ver_1.2
     RDKit          3D

 15 16  0  0  0  0  0  0  0  0999 V2000
    2.3972    0.1380   -0.8316 O   0  0  0  0  0  0  0  0  0  0  0  0
    2.5407   -0.4937    0.2432 C   0  0  0  0  0  0  0  0  0  0  0  0
    3.8674   -0.6011    0.9065 C   0  0  0  0  0  0  0  0  0  0  0  0
    5.0639    0.3136   -0.1314 S   0  0  0  0  0  0  0  0  0  0  0  0
    1.3664   -1.0978    0.7871 N   0  0  0  0  0  0  0  0  0  0  0  0
    0.1112   -0.9536    0.0908 C   0  0  0  0  0  0  0  0  0  0  0  0
   -0.2864   -1.8756   -0.8698 C   0  0  0  0  0  0  0  0  0  0  0  0
   -1.4934   -1.7298   -1.5339 C   0  0  0  0  0  0  0  0  0  0  0  0
   -2.3236   -0.6458   -1.2386 C   0  0  0  0  0  0  0  0  0  0  0  0
   -1.8973    0.2551   -0.2756 C   0  0  0  0  0  0  0  0  0  0  0  0
   -2.4820    1.4130    0.2342 C   0  0  0  0  0  0  0  0  0  0  0  0
   -4.0349    2.1146   -0.2272 Cl  0  0  0  0  0  0  0  0  0  0  0  0
   -1.6081    1.9305    1.1915 C   0  0  0  0  0  0  0  0  0  0  0  0
   -0.5197    1.1105    1.2638 N   0  0  0  0  0  0  0  0  0  0  0  0
   -0.7015    0.1221    0.3911 C   0  0  0  0  0  0  0  0  0  0  0  0
  1  2  2  0
  2  3  1  0
  3  4  1  0
  2  5  1  0
  5  6  1  0
  6  7  2  0
  7  8  1  0
  8  9  2  0
  9 10  1  0
 10 11  1  0
 11 12  1  0
 11 13  2  0
 13 14  1  0
 14 15  1  0
 15  6  1  0
 15 10  2  0
M  END
>  <ref_url>  (1) 
https://hippo.winokan.com

>  <submitter_name>  (1) 
Max Winokan

>  <submitter_email>  (1) 
max.winokan@diamond.ac.uk

>  <submitter_institution>  (1) 
DLS

>  <generation_date>  (1) 
2025-12-09

>  <method>  (1) 
openbind_a71ev2a_c2_elabs_activefrags_only_scored_5.2plus_products

>  <exports>  (1) 
exports

>  <gnina_score>  (1) 
gnina_score

>  <gnina_score_min>  (1) 
gnina_score_min

>  <smina_score_min>  (1) 
smina_score_min

>  <rmsd(smina/fragmenstein)>  (1) 
rmsd(smina/fragmenstein)

>  <HIPPO Pose ID>  (1) 
HIPPO Pose ID

>  <HIPPO Compound ID>  (1) 
HIPPO Compound ID

>  <smiles>  (1) 
smiles

>  <ref_pdb>  (1) 
protein reference

>  <ref_mols>  (1) 
fragment inspirations

>  <alias>  (1) 
alias

>  <distance_score>  (1) 
distance_score

>  <energy_score>  (1) 
energy_score

>  <inspiration_score>  (1) 
inspiration_score

>  <subsites>  (1) 
subsites

>  <tags>  (1) 
tags

$$$$
P535213
     RDKit          3D

 15 16  0  0  0  0  0  0  0  0999 V2000
   11.2042   14.8138   24.1039 O   0  0  0  0  0  0  0  0  0  0  0  0
   11.2251   14.1975   23.1137 C   0  0  0  0  0  0  0  0  0  0  0  0
   11.9281   14.6687   21.8425 C   0  0  0  0  0  0  0  0  0  0  0  0
   10.6498   15.2851   20.7019 S   0  0  0  0  0  0  0  0  0  0  0  0
   10.5223   12.8697   22.7446 N   0  0  0  0  0  0  0  0  0  0  0  0
    9.6143   12.1095   23.4526 C   0  0  0  0  0  0  0  0  0  0  0  0
    9.5416   10.7693   23.1424 C   0  0  0  0  0  0  0  0  0  0  0  0
    8.6367    9.9550   23.7844 C   0  0  0  0  0  0  0  0  0  0  0  0
    7.7266   10.4271   24.7234 C   0  0  0  0  0  0  0  0  0  0  0  0
    7.7402   11.7988   25.0143 C   0  0  0  0  0  0  0  0  0  0  0  0
    6.9584   12.6410   25.8513 C   0  0  0  0  0  0  0  0  0  0  0  0
    5.6880   12.1362   26.8599 Cl  0  0  0  0  0  0  0  0  0  0  0  0
    7.4287   13.9239   25.7121 C   0  0  0  0  0  0  0  0  0  0  0  0
    8.4839   13.8900   24.8394 N   0  0  0  0  0  0  0  0  0  0  0  0
    8.7020   12.6068   24.3922 C   0  0  0  0  0  0  0  0  0  0  0  0
  1  2  2  0
  2  3  1  0
  3  4  1  0
  2  5  1  0
  5  6  1  0
  6  7  2  0
  7  8  1  0
  8  9  2  0
  9 10  1  0
 10 11  1  0
 11 12  1  0
 11 13  2  0
 13 14  1  0
 14 15  1  0
 15  6  1  0
 15 10  2  0
M  END
>  <alias>  (1) 
None

>  <rmsd(smina/fragmenstein)>  (1) 
0.295

>  <smiles>  (1) 
O=C(CS)Nc1cccc2c(Cl)c[nH]c12

>  <gnina_score>  (1) 
5.242

>  <inspiration_score>  (1) 
None

>  <energy_score>  (1) 
-22.779833

>  <distance_score>  (1) 
0.734086

>  <gnina_score_min>  (1) 
5.254

>  <inchikey>  (1) 
UONVLBAGSCPVHC-UHFFFAOYSA-N

>  <exports>  (1) 
['/opt/xchem-fragalysis-2/maxwin/BulkDock/OUTPUTS/openbind_a71ev2a_c2_elabs_1LOUU54.sdf', '/opt/xchem-fragalysis-2/maxwin/BulkDock/OUTPUTS/openbind_a71ev2a_c2_elabs_1LSYIDY.sdf']

>  <name>  (1) 
P535213

>  <ref_pdb>  (1) 
A0554a

>  <subsites>  (1) 
None

>  <HIPPO Pose ID>  (1) 
535213

>  <ref_mols>  (1) 
A0554a

>  <HIPPO Compound ID>  (1) 
367234

>  <tags>  (1) 
openbind_a71ev2a_c2_elabs,syndirella_product,openbind_a71ev2a_c2_elabs_fragonly_scored_top80percent,openbind_a71ev2a_c2_elabs_scored,BulkDock Fragalysis export,openbind_a71ev2a_c2_elabs_scored_top80percent,openbind_a71ev2a_c2_elabs_activefrags_only_scored_5.2plus,syndirella_placed

>  <smina_score_min>  (1) 
-5.975

$$$$
P535217
     RDKit          3D

 16 17  0  0  0  0  0  0  0  0999 V2000
    9.9732   15.7326   20.6165 C   0  0  0  0  0  0  0  0  0  0  0  0
   11.4710   14.7316   20.4815 S   0  0  0  0  0  0  0  0  0  0  0  0
   12.1026   14.8328   22.1691 C   0  0  0  0  0  0  0  0  0  0  0  0
   11.2008   14.2827   23.2747 C   0  0  0  0  0  0  0  0  0  0  0  0
   11.1615   14.7934   24.3239 O   0  0  0  0  0  0  0  0  0  0  0  0
   10.4410   13.0536   22.7314 N   0  0  0  0  0  0  0  0  0  0  0  0
    9.5817   12.1758   23.3666 C   0  0  0  0  0  0  0  0  0  0  0  0
    9.6493   10.8370   23.0350 C   0  0  0  0  0  0  0  0  0  0  0  0
    8.8639    9.9027   23.6756 C   0  0  0  0  0  0  0  0  0  0  0  0
    7.9039   10.2712   24.6156 C   0  0  0  0  0  0  0  0  0  0  0  0
    7.7700   11.6343   24.9359 C   0  0  0  0  0  0  0  0  0  0  0  0
    6.9239   12.3744   25.8085 C   0  0  0  0  0  0  0  0  0  0  0  0
    5.7404   11.7211   26.8372 Cl  0  0  0  0  0  0  0  0  0  0  0  0
    7.2558   13.7023   25.6933 C   0  0  0  0  0  0  0  0  0  0  0  0
    8.2904   13.7983   24.8017 N   0  0  0  0  0  0  0  0  0  0  0  0
    8.6321   12.5532   24.3231 C   0  0  0  0  0  0  0  0  0  0  0  0
  1  2  1  0
  2  3  1  0
  3  4  1  0
  4  5  2  0
  4  6  1  0
  6  7  1  0
  7  8  2  0
  8  9  1  0
  9 10  2  0
 10 11  1  0
 11 12  1  0
 12 13  1  0
 12 14  2  0
 14 15  1  0
 15 16  1  0
 16  7  1  0
 16 11  2  0
M  END
>  <alias>  (2) 
None

>  <rmsd(smina/fragmenstein)>  (2) 
0.361

>  <smiles>  (2) 
CSCC(=O)Nc1cccc2c(Cl)c[nH]c12

>  <gnina_score>  (2) 
5.411

>  <inspiration_score>  (2) 
None

>  <energy_score>  (2) 
-19.8949

>  <distance_score>  (2) 
0.65373

>  <gnina_score_min>  (2) 
5.405

>  <inchikey>  (2) 
CMCIOVBWECNORL-UHFFFAOYSA-N

>  <exports>  (2) 
['/opt/xchem-fragalysis-2/maxwin/BulkDock/OUTPUTS/openbind_a71ev2a_c2_elabs_1LOUU54.sdf', '/opt/xchem-fragalysis-2/maxwin/BulkDock/OUTPUTS/openbind_a71ev2a_c2_elabs_1LSYIDY.sdf']

>  <name>  (2) 
P535217

>  <ref_pdb>  (2) 
A0554a

>  <subsites>  (2) 
None

>  <HIPPO Pose ID>  (2) 
535217

>  <ref_mols>  (2) 
A0554a

>  <HIPPO Compound ID>  (2) 
367248

>  <tags>  (2) 
openbind_a71ev2a_c2_elabs,syndirella_product,openbind_a71ev2a_c2_elabs_fragonly_scored_top80percent,openbind_a71ev2a_c2_elabs_scored,BulkDock Fragalysis export,openbind_a71ev2a_c2_elabs_scored_top80percent,openbind_a71ev2a_c2_elabs_activefrags_only_scored_5.2plus,syndirella_placed

>  <smina_score_min>  (2) 
-5.517

$$$$
P535218
     RDKit          3D

 16 17  0  0  0  0  0  0  0  0999 V2000
   11.0524   14.9164   23.8088 O   0  0  0  0  0  0  0  0  0  0  0  0
   11.0829   14.2625   22.8478 C   0  0  0  0  0  0  0  0  0  0  0  0
   11.7635   14.7482   21.5678 C   0  0  0  0  0  0  0  0  0  0  0  0
   10.8459   14.9689   20.3666 C   0  0  0  0  0  0  0  0  0  0  0  0
    9.5342   16.2044   20.5578 S   0  0  0  0  0  0  0  0  0  0  0  0
   10.4469   12.8941   22.5535 N   0  0  0  0  0  0  0  0  0  0  0  0
    9.5946   12.1164   23.3167 C   0  0  0  0  0  0  0  0  0  0  0  0
    9.6157   10.7521   23.1025 C   0  0  0  0  0  0  0  0  0  0  0  0
    8.8155    9.9094   23.8414 C   0  0  0  0  0  0  0  0  0  0  0  0
    7.8616   10.3838   24.7351 C   0  0  0  0  0  0  0  0  0  0  0  0
    7.7826   11.7704   24.9421 C   0  0  0  0  0  0  0  0  0  0  0  0
    6.9685   12.6047   25.7564 C   0  0  0  0  0  0  0  0  0  0  0  0
    5.7478   12.0745   26.8125 Cl  0  0  0  0  0  0  0  0  0  0  0  0
    7.3714   13.9029   25.5618 C   0  0  0  0  0  0  0  0  0  0  0  0
    8.4132   13.8900   24.6723 N   0  0  0  0  0  0  0  0  0  0  0  0
    8.6804   12.6039   24.2597 C   0  0  0  0  0  0  0  0  0  0  0  0
  1  2  2  0
  2  3  1  0
  3  4  1  0
  4  5  1  0
  2  6  1  0
  6  7  1  0
  7  8  2  0
  8  9  1  0
  9 10  2  0
 10 11  1  0
 11 12  1  0
 12 13  1  0
 12 14  2  0
 14 15  1  0
 15 16  1  0
 16  7  1  0
 16 11  2  0
M  END
>  <alias>  (3) 
None

>  <rmsd(smina/fragmenstein)>  (3) 
0.597

>  <smiles>  (3) 
O=C(CCS)Nc1cccc2c(Cl)c[nH]c12

>  <gnina_score>  (3) 
5.488

>  <inspiration_score>  (3) 
None

>  <energy_score>  (3) 
-11.321941

>  <distance_score>  (3) 
0.801619

>  <gnina_score_min>  (3) 
5.411

>  <inchikey>  (3) 
YHRFQTBLQQJUSK-UHFFFAOYSA-N

>  <exports>  (3) 
['/opt/xchem-fragalysis-2/maxwin/BulkDock/OUTPUTS/openbind_a71ev2a_c2_elabs_1LOUU54.sdf', '/opt/xchem-fragalysis-2/maxwin/BulkDock/OUTPUTS/openbind_a71ev2a_c2_elabs_1LSYIDY.sdf']

>  <name>  (3) 
P535218

>  <ref_pdb>  (3) 
A0554a

>  <subsites>  (3) 
None

>  <HIPPO Pose ID>  (3) 
535218

>  <ref_mols>  (3) 
A0554a

>  <HIPPO Compound ID>  (3) 
367250

>  <tags>  (3) 
openbind_a71ev2a_c2_elabs,syndirella_product,openbind_a71ev2a_c2_elabs_fragonly_scored_top80percent,openbind_a71ev2a_c2_elabs_scored,BulkDock Fragalysis export,openbind_a71ev2a_c2_elabs_scored_top80percent,openbind_a71ev2a_c2_elabs_activefrags_only_scored_5.2plus,syndirella_placed

>  <smina_score_min>  (3) 
-6.059

$$$$
P535219
     RDKit          3D

 16 17  0  0  0  0  0  0  0  0999 V2000
   12.7951   15.2032   21.9798 C   0  0  0  0  0  0  0  0  0  0  0  0
   11.6896   14.2167   21.7536 C   0  0  2  0  0  0  0  0  0  0  0  0
   10.4011   15.0355   20.5304 Br  0  0  0  0  0  0  0  0  0  0  0  0
   10.9110   13.9396   23.0366 C   0  0  0  0  0  0  0  0  0  0  0  0
   10.8473   14.7137   23.9087 O   0  0  0  0  0  0  0  0  0  0  0  0
   10.2118   12.5687   22.8584 N   0  0  0  0  0  0  0  0  0  0  0  0
    9.2562   11.9371   23.6399 C   0  0  0  0  0  0  0  0  0  0  0  0
    9.0806   10.5662   23.5327 C   0  0  0  0  0  0  0  0  0  0  0  0
    8.1188    9.9387   24.3128 C   0  0  0  0  0  0  0  0  0  0  0  0
    7.2724   10.6205   25.1758 C   0  0  0  0  0  0  0  0  0  0  0  0
    7.4055   12.0052   25.2674 C   0  0  0  0  0  0  0  0  0  0  0  0
    6.7241   13.0057   26.0067 C   0  0  0  0  0  0  0  0  0  0  0  0
    5.4471   12.7393   27.0951 Cl  0  0  0  0  0  0  0  0  0  0  0  0
    7.2929   14.2133   25.6923 C   0  0  0  0  0  0  0  0  0  0  0  0
    8.2986   13.9778   24.7952 N   0  0  0  0  0  0  0  0  0  0  0  0
    8.4048   12.6324   24.5168 C   0  0  0  0  0  0  0  0  0  0  0  0
  2  1  1  1
  2  3  1  0
  2  4  1  0
  4  5  2  0
  4  6  1  0
  6  7  1  0
  7  8  2  0
  8  9  1  0
  9 10  2  0
 10 11  1  0
 11 12  1  0
 12 13  1  0
 12 14  2  0
 14 15  1  0
 15 16  1  0
 16  7  1  0
 16 11  2  0
M  END
>  <alias>  (4) 
None

>  <rmsd(smina/fragmenstein)>  (4) 
0.341

>  <smiles>  (4) 
C[C@H](Br)C(=O)Nc1cccc2c(Cl)c[nH]c12

>  <gnina_score>  (4) 
5.14

>  <inspiration_score>  (4) 
None

>  <energy_score>  (4) 
-22.485662

>  <distance_score>  (4) 
0.874792

>  <gnina_score_min>  (4) 
5.21

>  <inchikey>  (4) 
CVCRGMGPLATHMC-LURJTMIESA-N

>  <exports>  (4) 
['/opt/xchem-fragalysis-2/maxwin/BulkDock/OUTPUTS/openbind_a71ev2a_c2_elabs_1LOUU54.sdf', '/opt/xchem-fragalysis-2/maxwin/BulkDock/OUTPUTS/openbind_a71ev2a_c2_elabs_1LSYIDY.sdf']

>  <name>  (4) 
P535219

>  <ref_pdb>  (4) 
A0554a

>  <subsites>  (4) 
None

>  <HIPPO Pose ID>  (4) 
535219

>  <ref_mols>  (4) 
A0554a

>  <HIPPO Compound ID>  (4) 
367251

>  <tags>  (4) 
openbind_a71ev2a_c2_elabs,syndirella_product,openbind_a71ev2a_c2_elabs_fragonly_scored_top80percent,openbind_a71ev2a_c2_elabs_scored,BulkDock Fragalysis export,openbind_a71ev2a_c2_elabs_scored_top80percent,openbind_a71ev2a_c2_elabs_activefrags_only_scored_5.2plus,syndirella_placed

>  <smina_score_min>  (4) 
-6.146

$$$$
P535229
     RDKit          3D

 16 17  0  0  0  0  0  0  0  0999 V2000
   11.1092   14.9101   23.7218 O   0  0  0  0  0  0  0  0  0  0  0  0
   11.1646   14.1826   22.8122 C   0  0  0  0  0  0  0  0  0  0  0  0
   11.8962   14.5354   21.4953 C   0  0  0  0  0  0  0  0  0  0  0  0
   10.9122   14.6783   20.4022 N   0  0  0  0  0  0  0  0  0  0  0  0
   11.7024   14.7539   19.1765 O   0  0  0  0  0  0  0  0  0  0  0  0
   10.5046   12.7994   22.5927 N   0  0  0  0  0  0  0  0  0  0  0  0
    9.6019   12.0991   23.3757 C   0  0  0  0  0  0  0  0  0  0  0  0
    9.5525   10.7257   23.2173 C   0  0  0  0  0  0  0  0  0  0  0  0
    8.6894    9.9634   23.9773 C   0  0  0  0  0  0  0  0  0  0  0  0
    7.7518   10.5205   24.8368 C   0  0  0  0  0  0  0  0  0  0  0  0
    7.7439   11.9141   24.9806 C   0  0  0  0  0  0  0  0  0  0  0  0
    6.9632   12.8198   25.7482 C   0  0  0  0  0  0  0  0  0  0  0  0
    5.7038   12.3936   26.8061 Cl  0  0  0  0  0  0  0  0  0  0  0  0
    7.4311   14.0866   25.5016 C   0  0  0  0  0  0  0  0  0  0  0  0
    8.4766   13.9840   24.6222 N   0  0  0  0  0  0  0  0  0  0  0  0
    8.6926   12.6696   24.2767 C   0  0  0  0  0  0  0  0  0  0  0  0
  1  2  2  0
  2  3  1  0
  3  4  1  0
  4  5  1  0
  2  6  1  0
  6  7  1  0
  7  8  2  0
  8  9  1  0
  9 10  2  0
 10 11  1  0
 11 12  1  0
 12 13  1  0
 12 14  2  0
 14 15  1  0
 15 16  1  0
 16  7  1  0
 16 11  2  0
M  END
>  <alias>  (5) 
None

>  <rmsd(smina/fragmenstein)>  (5) 
0.382

>  <smiles>  (5) 
O=C(CNO)Nc1cccc2c(Cl)c[nH]c12

>  <gnina_score>  (5) 
5.407

>  <inspiration_score>  (5) 
None

>  <energy_score>  (5) 
-12.469425

>  <distance_score>  (5) 
0.866152

>  <gnina_score_min>  (5) 
5.503

>  <inchikey>  (5) 
IECKEPJAUFOFEM-UHFFFAOYSA-N

>  <exports>  (5) 
['/opt/xchem-fragalysis-2/maxwin/BulkDock/OUTPUTS/openbind_a71ev2a_c2_elabs_1LOUU54.sdf', '/opt/xchem-fragalysis-2/maxwin/BulkDock/OUTPUTS/openbind_a71ev2a_c2_elabs_1LSYIDY.sdf']

>  <name>  (5) 
P535229

>  <ref_pdb>  (5) 
A0554a

>  <subsites>  (5) 
None

>  <HIPPO Pose ID>  (5) 
535229

>  <ref_mols>  (5) 
A0554a

>  <HIPPO Compound ID>  (5) 
367263

>  <tags>  (5) 
openbind_a71ev2a_c2_elabs,syndirella_product,openbind_a71ev2a_c2_elabs_fragonly_scored_top80percent,BulkDock Fragalysis export,openbind_a71ev2a_c2_elabs_scored,openbind_a71ev2a_c2_elabs_scored_top80percent,openbind_a71ev2a_c2_elabs_activefrags_only_scored_5.2plus,openbind_a71ev2a_c2_elabs_activefrags_only_scored_5.5plus,syndirella_placed

>  <smina_score_min>  (5) 
-6.74

$$$$
P535234
     RDKit          3D

 16 17  0  0  0  0  0  0  0  0999 V2000
   10.4886   15.4207   19.7606 C   0  0  0  0  0  0  0  0  0  0  0  0
   11.1448   15.0634   20.7006 C   0  0  0  0  0  0  0  0  0  0  0  0
   11.9957   14.6123   21.8091 C   0  0  0  0  0  0  0  0  0  0  0  0
   11.1800   14.2037   23.0338 C   0  0  0  0  0  0  0  0  0  0  0  0
   11.1684   14.8162   24.0277 O   0  0  0  0  0  0  0  0  0  0  0  0
   10.3920   12.9335   22.6288 N   0  0  0  0  0  0  0  0  0  0  0  0
    9.5371   12.1363   23.3639 C   0  0  0  0  0  0  0  0  0  0  0  0
    9.5795   10.7754   23.1329 C   0  0  0  0  0  0  0  0  0  0  0  0
    8.7893    9.9151   23.8622 C   0  0  0  0  0  0  0  0  0  0  0  0
    7.8318   10.3690   24.7641 C   0  0  0  0  0  0  0  0  0  0  0  0
    7.7308   11.7529   24.9820 C   0  0  0  0  0  0  0  0  0  0  0  0
    6.9091   12.5711   25.8047 C   0  0  0  0  0  0  0  0  0  0  0  0
    5.7099   12.0172   26.8731 Cl  0  0  0  0  0  0  0  0  0  0  0  0
    7.2793   13.8784   25.6014 C   0  0  0  0  0  0  0  0  0  0  0  0
    8.3064   13.8864   24.6957 N   0  0  0  0  0  0  0  0  0  0  0  0
    8.6111   12.6042   24.3014 C   0  0  0  0  0  0  0  0  0  0  0  0
  1  2  3  0
  2  3  1  0
  3  4  1  0
  4  5  2  0
  4  6  1  0
  6  7  1  0
  7  8  2  0
  8  9  1  0
  9 10  2  0
 10 11  1  0
 11 12  1  0
 12 13  1  0
 12 14  2  0
 14 15  1  0
 15 16  1  0
 16  7  1  0
 16 11  2  0
M  END
>  <alias>  (6) 
None

>  <rmsd(smina/fragmenstein)>  (6) 
0.389

>  <smiles>  (6) 
C#CCC(=O)Nc1cccc2c(Cl)c[nH]c12

>  <gnina_score>  (6) 
5.328

>  <inspiration_score>  (6) 
None

>  <energy_score>  (6) 
-2.437812

>  <distance_score>  (6) 
0.721755

>  <gnina_score_min>  (6) 
5.296

>  <inchikey>  (6) 
NFZOAKSTUZDAOS-UHFFFAOYSA-N

>  <exports>  (6) 
['/opt/xchem-fragalysis-2/maxwin/BulkDock/OUTPUTS/openbind_a71ev2a_c2_elabs_1LOUU54.sdf', '/opt/xchem-fragalysis-2/maxwin/BulkDock/OUTPUTS/openbind_a71ev2a_c2_elabs_1LSYIDY.sdf']

>  <name>  (6) 
P535234

>  <ref_pdb>  (6) 
A0554a

>  <subsites>  (6) 
None

>  <HIPPO Pose ID>  (6) 
535234

>  <ref_mols>  (6) 
A0554a

>  <HIPPO Compound ID>  (6) 
367273

>  <tags>  (6) 
openbind_a71ev2a_c2_elabs,syndirella_product,openbind_a71ev2a_c2_elabs_fragonly_scored_top80percent,openbind_a71ev2a_c2_elabs_scored,BulkDock Fragalysis export,openbind_a71ev2a_c2_elabs_scored_top80percent,openbind_a71ev2a_c2_elabs_activefrags_only_scored_5.2plus,syndirella_placed

>  <smina_score_min>  (6) 
-6.489

$$$$
P535236
     RDKit          3D

 16 17  0  0  0  0  0  0  0  0999 V2000
   10.8079   15.0488   19.8164 N   0  0  0  0  0  0  0  0  0  0  0  0
   11.1732   15.5915   21.1185 O   0  0  0  0  0  0  0  0  0  0  0  0
   12.0107   14.6759   21.8203 C   0  0  0  0  0  0  0  0  0  0  0  0
   11.2363   14.2164   23.0583 C   0  0  0  0  0  0  0  0  0  0  0  0
   11.2513   14.7989   24.0718 O   0  0  0  0  0  0  0  0  0  0  0  0
   10.4224   12.9687   22.6288 N   0  0  0  0  0  0  0  0  0  0  0  0
    9.5685   12.1600   23.3555 C   0  0  0  0  0  0  0  0  0  0  0  0
    9.6034   10.8032   23.0963 C   0  0  0  0  0  0  0  0  0  0  0  0
    8.8063    9.9268   23.7992 C   0  0  0  0  0  0  0  0  0  0  0  0
    7.8565   10.3642   24.7170 C   0  0  0  0  0  0  0  0  0  0  0  0
    7.7605   11.7439   24.9652 C   0  0  0  0  0  0  0  0  0  0  0  0
    6.9362   12.5467   25.8008 C   0  0  0  0  0  0  0  0  0  0  0  0
    5.7319   11.9743   26.8535 Cl  0  0  0  0  0  0  0  0  0  0  0  0
    7.3062   13.8578   25.6225 C   0  0  0  0  0  0  0  0  0  0  0  0
    8.3365   13.8822   24.7214 N   0  0  0  0  0  0  0  0  0  0  0  0
    8.6430   12.6087   24.3028 C   0  0  0  0  0  0  0  0  0  0  0  0
  1  2  1  0
  2  3  1  0
  3  4  1  0
  4  5  2  0
  4  6  1  0
  6  7  1  0
  7  8  2  0
  8  9  1  0
  9 10  2  0
 10 11  1  0
 11 12  1  0
 12 13  1  0
 12 14  2  0
 14 15  1  0
 15 16  1  0
 16  7  1  0
 16 11  2  0
M  END
>  <alias>  (7) 
None

>  <rmsd(smina/fragmenstein)>  (7) 
0.37

>  <smiles>  (7) 
NOCC(=O)Nc1cccc2c(Cl)c[nH]c12

>  <gnina_score>  (7) 
5.512

>  <inspiration_score>  (7) 
None

>  <energy_score>  (7) 
-32.54124

>  <distance_score>  (7) 
0.724603

>  <gnina_score_min>  (7) 
5.475

>  <inchikey>  (7) 
JNSNUCRVCUZYSN-UHFFFAOYSA-N

>  <exports>  (7) 
['/opt/xchem-fragalysis-2/maxwin/BulkDock/OUTPUTS/openbind_a71ev2a_c2_elabs_1LOUU54.sdf', '/opt/xchem-fragalysis-2/maxwin/BulkDock/OUTPUTS/openbind_a71ev2a_c2_elabs_1LSYIDY.sdf']

>  <name>  (7) 
P535236

>  <ref_pdb>  (7) 
A0554a

>  <subsites>  (7) 
None

>  <HIPPO Pose ID>  (7) 
535236

>  <ref_mols>  (7) 
A0554a

>  <HIPPO Compound ID>  (7) 
367275

>  <tags>  (7) 
openbind_a71ev2a_c2_elabs,syndirella_product,openbind_a71ev2a_c2_elabs_fragonly_scored_top80percent,openbind_a71ev2a_c2_elabs_scored,BulkDock Fragalysis export,openbind_a71ev2a_c2_elabs_scored_top80percent,openbind_a71ev2a_c2_elabs_activefrags_only_scored_5.2plus,syndirella_placed

>  <smina_score_min>  (7) 
-6.449

$$$$
P535246
     RDKit          3D

 16 17  0  0  0  0  0  0  0  0999 V2000
   10.1979   15.5132   20.1302 N   0  0  0  0  0  0  0  0  0  0  0  0
   11.0009   15.0899   20.8518 C   0  0  0  0  0  0  0  0  0  0  0  0
   11.9786   14.5138   21.7723 C   0  0  0  0  0  0  0  0  0  0  0  0
   11.2532   14.1112   23.0467 C   0  0  0  0  0  0  0  0  0  0  0  0
   11.2563   14.7778   24.0057 O   0  0  0  0  0  0  0  0  0  0  0  0
   10.4984   12.7902   22.7437 N   0  0  0  0  0  0  0  0  0  0  0  0
    9.5602   12.0996   23.4907 C   0  0  0  0  0  0  0  0  0  0  0  0
    9.4147   10.7464   23.2481 C   0  0  0  0  0  0  0  0  0  0  0  0
    8.4564   10.0196   23.9271 C   0  0  0  0  0  0  0  0  0  0  0  0
    7.5846   10.5831   24.8484 C   0  0  0  0  0  0  0  0  0  0  0  0
    7.6802   11.9597   25.0763 C   0  0  0  0  0  0  0  0  0  0  0  0
    6.9488   12.8740   25.8803 C   0  0  0  0  0  0  0  0  0  0  0  0
    5.6522   12.4784   26.9046 Cl  0  0  0  0  0  0  0  0  0  0  0  0
    7.4897   14.1207   25.6891 C   0  0  0  0  0  0  0  0  0  0  0  0
    8.5336   13.9944   24.8111 N   0  0  0  0  0  0  0  0  0  0  0  0
    8.6796   12.6849   24.4126 C   0  0  0  0  0  0  0  0  0  0  0  0
  1  2  3  0
  2  3  1  0
  3  4  1  0
  4  5  2  0
  4  6  1  0
  6  7  1  0
  7  8  2  0
  8  9  1  0
  9 10  2  0
 10 11  1  0
 11 12  1  0
 12 13  1  0
 12 14  2  0
 14 15  1  0
 15 16  1  0
 16  7  1  0
 16 11  2  0
M  END
>  <alias>  (8) 
None

>  <rmsd(smina/fragmenstein)>  (8) 
0.665

>  <smiles>  (8) 
N#CCC(=O)Nc1cccc2c(Cl)c[nH]c12

>  <gnina_score>  (8) 
5.383

>  <inspiration_score>  (8) 
None

>  <energy_score>  (8) 
-16.403983

>  <distance_score>  (8) 
0.821124

>  <gnina_score_min>  (8) 
5.378

>  <inchikey>  (8) 
HLXGVOUBERNBGO-UHFFFAOYSA-N

>  <exports>  (8) 
['/opt/xchem-fragalysis-2/maxwin/BulkDock/OUTPUTS/openbind_a71ev2a_c2_elabs_1LOUU54.sdf', '/opt/xchem-fragalysis-2/maxwin/BulkDock/OUTPUTS/openbind_a71ev2a_c2_elabs_1LSYIDY.sdf']

>  <name>  (8) 
P535246

>  <ref_pdb>  (8) 
A0554a

>  <subsites>  (8) 
None

>  <HIPPO Pose ID>  (8) 
535246

>  <ref_mols>  (8) 
A0554a

>  <HIPPO Compound ID>  (8) 
367296

>  <tags>  (8) 
openbind_a71ev2a_c2_elabs,syndirella_product,openbind_a71ev2a_c2_elabs_fragonly_scored_top80percent,openbind_a71ev2a_c2_elabs_scored,BulkDock Fragalysis export,openbind_a71ev2a_c2_elabs_scored_top80percent,openbind_a71ev2a_c2_elabs_activefrags_only_scored_5.2plus,syndirella_placed

>  <smina_score_min>  (8) 
-6.693

$$$$
P535254
     RDKit          3D

 16 17  0  0  0  0  0  0  0  0999 V2000
   11.1193   14.9987   19.6263 C   0  0  0  0  0  0  0  0  0  0  0  0
   11.6181   14.8203   20.8118 C   0  0  0  0  0  0  0  0  0  0  0  0
   12.1180   14.6757   22.0046 C   0  0  0  0  0  0  0  0  0  0  0  0
   11.2859   14.2113   23.1483 C   0  0  0  0  0  0  0  0  0  0  0  0
   11.2740   14.7878   24.1612 O   0  0  0  0  0  0  0  0  0  0  0  0
   10.4827   12.9805   22.6913 N   0  0  0  0  0  0  0  0  0  0  0  0
    9.6001   12.1739   23.3874 C   0  0  0  0  0  0  0  0  0  0  0  0
    9.6096   10.8227   23.0965 C   0  0  0  0  0  0  0  0  0  0  0  0
    8.7830    9.9453   23.7640 C   0  0  0  0  0  0  0  0  0  0  0  0
    7.8391   10.3776   24.6899 C   0  0  0  0  0  0  0  0  0  0  0  0
    7.7648   11.7533   24.9666 C   0  0  0  0  0  0  0  0  0  0  0  0
    6.9451   12.5527   25.8103 C   0  0  0  0  0  0  0  0  0  0  0  0
    5.7233   11.9789   26.8416 Cl  0  0  0  0  0  0  0  0  0  0  0  0
    7.3360   13.8613   25.6602 C   0  0  0  0  0  0  0  0  0  0  0  0
    8.3777   13.8866   24.7723 N   0  0  0  0  0  0  0  0  0  0  0  0
    8.6680   12.6170   24.3309 C   0  0  0  0  0  0  0  0  0  0  0  0
  1  2  2  0
  2  3  2  0
  3  4  1  0
  4  5  2  0
  4  6  1  0
  6  7  1  0
  7  8  2  0
  8  9  1  0
  9 10  2  0
 10 11  1  0
 11 12  1  0
 12 13  1  0
 12 14  2  0
 14 15  1  0
 15 16  1  0
 16  7  1  0
 16 11  2  0
M  END
>  <alias>  (9) 
None

>  <rmsd(smina/fragmenstein)>  (9) 
0.644

>  <smiles>  (9) 
C=C=CC(=O)Nc1cccc2c(Cl)c[nH]c12

>  <gnina_score>  (9) 
5.245

>  <inspiration_score>  (9) 
None

>  <energy_score>  (9) 
-25.688842

>  <distance_score>  (9) 
0.711517

>  <gnina_score_min>  (9) 
5.272

>  <inchikey>  (9) 
KJEYYIVRGAALDY-UHFFFAOYSA-N

>  <exports>  (9) 
['/opt/xchem-fragalysis-2/maxwin/BulkDock/OUTPUTS/openbind_a71ev2a_c2_elabs_1LOUU54.sdf', '/opt/xchem-fragalysis-2/maxwin/BulkDock/OUTPUTS/openbind_a71ev2a_c2_elabs_1LSYIDY.sdf']

>  <name>  (9) 
P535254

>  <ref_pdb>  (9) 
A0554a

>  <subsites>  (9) 
None

>  <HIPPO Pose ID>  (9) 
535254

>  <ref_mols>  (9) 
A0554a

>  <HIPPO Compound ID>  (9) 
367312

>  <tags>  (9) 
openbind_a71ev2a_c2_elabs,syndirella_product,openbind_a71ev2a_c2_elabs_fragonly_scored_top80percent,openbind_a71ev2a_c2_elabs_scored,BulkDock Fragalysis export,openbind_a71ev2a_c2_elabs_scored_top80percent,openbind_a71ev2a_c2_elabs_activefrags_only_scored_5.2plus,syndirella_placed

>  <smina_score_min>  (9) 
-7.228

$$$$
P535255
     RDKit          3D

 16 17  0  0  0  0  0  0  0  0999 V2000
   11.0927   14.9067   23.8205 O   0  0  0  0  0  0  0  0  0  0  0  0
   11.1276   14.2451   22.8624 C   0  0  0  0  0  0  0  0  0  0  0  0
   11.8956   14.6797   21.6119 C   0  0  0  0  0  0  0  0  0  0  0  0
   11.0805   14.8972   20.3429 C   0  0  0  0  0  0  0  0  0  0  0  0
    9.5908   16.3602   20.4747 I   0  0  0  0  0  0  0  0  0  0  0  0
   10.4696   12.8840   22.5645 N   0  0  0  0  0  0  0  0  0  0  0  0
    9.5889   12.1267   23.3179 C   0  0  0  0  0  0  0  0  0  0  0  0
    9.6089   10.7570   23.1266 C   0  0  0  0  0  0  0  0  0  0  0  0
    8.8053    9.9256   23.8765 C   0  0  0  0  0  0  0  0  0  0  0  0
    7.8515   10.4153   24.7610 C   0  0  0  0  0  0  0  0  0  0  0  0
    7.7667   11.8055   24.9376 C   0  0  0  0  0  0  0  0  0  0  0  0
    6.9489   12.6517   25.7354 C   0  0  0  0  0  0  0  0  0  0  0  0
    5.7393   12.1355   26.8110 Cl  0  0  0  0  0  0  0  0  0  0  0  0
    7.3307   13.9489   25.4975 C   0  0  0  0  0  0  0  0  0  0  0  0
    8.3603   13.9242   24.5944 N   0  0  0  0  0  0  0  0  0  0  0  0
    8.6596   12.6292   24.2369 C   0  0  0  0  0  0  0  0  0  0  0  0
  1  2  2  0
  2  3  1  0
  3  4  1  0
  4  5  1  0
  2  6  1  0
  6  7  1  0
  7  8  2  0
  8  9  1  0
  9 10  2  0
 10 11  1  0
 11 12  1  0
 12 13  1  0
 12 14  2  0
 14 15  1  0
 15 16  1  0
 16  7  1  0
 16 11  2  0
M  END
>  <alias>  (10) 
None

>  <rmsd(smina/fragmenstein)>  (10) 
0.496

>  <smiles>  (10) 
O=C(CCI)Nc1cccc2c(Cl)c[nH]c12

>  <gnina_score>  (10) 
5.53

>  <inspiration_score>  (10) 
None

>  <energy_score>  (10) 
-20.862568

>  <distance_score>  (10) 
0.805146

>  <gnina_score_min>  (10) 
5.517

>  <inchikey>  (10) 
YGZBQCYVUNCVCG-UHFFFAOYSA-N

>  <exports>  (10) 
['/opt/xchem-fragalysis-2/maxwin/BulkDock/OUTPUTS/openbind_a71ev2a_c2_elabs_1LOUU54.sdf', '/opt/xchem-fragalysis-2/maxwin/BulkDock/OUTPUTS/openbind_a71ev2a_c2_elabs_1LSYIDY.sdf']

>  <name>  (10) 
P535255

>  <ref_pdb>  (10) 
A0554a

>  <subsites>  (10) 
None

>  <HIPPO Pose ID>  (10) 
535255

>  <ref_mols>  (10) 
A0554a

>  <HIPPO Compound ID>  (10) 
367314

>  <tags>  (10) 
openbind_a71ev2a_c2_elabs,syndirella_product,openbind_a71ev2a_c2_elabs_fragonly_scored_top80percent,BulkDock Fragalysis export,openbind_a71ev2a_c2_elabs_scored,openbind_a71ev2a_c2_elabs_scored_top80percent,openbind_a71ev2a_c2_elabs_activefrags_only_scored_5.2plus,openbind_a71ev2a_c2_elabs_activefrags_only_scored_5.5plus,syndirella_placed

>  <smina_score_min>  (10) 
-6.064

$$$$
P535257
     RDKit          3D

 16 17  0  0  0  0  0  0  0  0999 V2000
   12.7523   15.0059   21.8680 C   0  0  0  0  0  0  0  0  0  0  0  0
   11.4355   14.8216   21.8815 C   0  0  0  0  0  0  0  0  0  0  0  0
   10.2923   15.2857   20.4989 Br  0  0  0  0  0  0  0  0  0  0  0  0
   10.8652   14.2151   23.1139 C   0  0  0  0  0  0  0  0  0  0  0  0
   10.8975   14.7435   24.1466 O   0  0  0  0  0  0  0  0  0  0  0  0
   10.2000   12.9080   22.6913 N   0  0  0  0  0  0  0  0  0  0  0  0
    9.3877   12.0534   23.3928 C   0  0  0  0  0  0  0  0  0  0  0  0
    9.5280   10.7061   23.1553 C   0  0  0  0  0  0  0  0  0  0  0  0
    8.8152    9.8056   23.9082 C   0  0  0  0  0  0  0  0  0  0  0  0
    7.8184   10.2007   24.8007 C   0  0  0  0  0  0  0  0  0  0  0  0
    7.6329   11.5737   25.0315 C   0  0  0  0  0  0  0  0  0  0  0  0
    6.7895   12.3413   25.8809 C   0  0  0  0  0  0  0  0  0  0  0  0
    5.6521   11.7182   26.9785 Cl  0  0  0  0  0  0  0  0  0  0  0  0
    7.0933   13.6674   25.6911 C   0  0  0  0  0  0  0  0  0  0  0  0
    8.1042   13.7365   24.7700 N   0  0  0  0  0  0  0  0  0  0  0  0
    8.4545   12.4737   24.3471 C   0  0  0  0  0  0  0  0  0  0  0  0
  1  2  2  0
  2  3  1  0
  2  4  1  0
  4  5  2  0
  4  6  1  0
  6  7  1  0
  7  8  2  0
  8  9  1  0
  9 10  2  0
 10 11  1  0
 11 12  1  0
 12 13  1  0
 12 14  2  0
 14 15  1  0
 15 16  1  0
 16  7  1  0
 16 11  2  0
M  END
>  <alias>  (11) 
None

>  <rmsd(smina/fragmenstein)>  (11) 
0.558

>  <smiles>  (11) 
C=C(Br)C(=O)Nc1cccc2c(Cl)c[nH]c12

>  <gnina_score>  (11) 
5.335

>  <inspiration_score>  (11) 
None

>  <energy_score>  (11) 
-12.18494

>  <distance_score>  (11) 
0.634165

>  <gnina_score_min>  (11) 
5.221

>  <inchikey>  (11) 
LSDWLTCMHMARMX-UHFFFAOYSA-N

>  <exports>  (11) 
['/opt/xchem-fragalysis-2/maxwin/BulkDock/OUTPUTS/openbind_a71ev2a_c2_elabs_1LOUU54.sdf', '/opt/xchem-fragalysis-2/maxwin/BulkDock/OUTPUTS/openbind_a71ev2a_c2_elabs_1LSYIDY.sdf']

>  <name>  (11) 
P535257

>  <ref_pdb>  (11) 
A0554a

>  <subsites>  (11) 
None

>  <HIPPO Pose ID>  (11) 
535257

>  <ref_mols>  (11) 
A0554a

>  <HIPPO Compound ID>  (11) 
367318

>  <tags>  (11) 
openbind_a71ev2a_c2_elabs,syndirella_product,openbind_a71ev2a_c2_elabs_fragonly_scored_top80percent,openbind_a71ev2a_c2_elabs_scored,BulkDock Fragalysis export,openbind_a71ev2a_c2_elabs_scored_top80percent,openbind_a71ev2a_c2_elabs_activefrags_only_scored_5.2plus,syndirella_placed

>  <smina_score_min>  (11) 
-6.407

$$$$
P535260
     RDKit          3D

 16 17  0  0  0  0  0  0  0  0999 V2000
   10.9160   14.5752   24.2237 O   0  0  0  0  0  0  0  0  0  0  0  0
   11.0505   13.7781   23.3791 C   0  0  0  0  0  0  0  0  0  0  0  0
   12.1171   13.9101   22.3191 C   0  0  0  0  0  0  0  0  0  0  0  0
   11.8668   15.0725   21.3879 C   0  0  0  0  0  0  0  0  0  0  0  0
   10.2263   15.0948   20.7097 Cl  0  0  0  0  0  0  0  0  0  0  0  0
   10.2367   12.4930   23.0702 N   0  0  0  0  0  0  0  0  0  0  0  0
    9.1944   11.9003   23.7637 C   0  0  0  0  0  0  0  0  0  0  0  0
    8.9893   10.5315   23.6453 C   0  0  0  0  0  0  0  0  0  0  0  0
    7.9908    9.9220   24.3932 C   0  0  0  0  0  0  0  0  0  0  0  0
    7.1462   10.6260   25.2408 C   0  0  0  0  0  0  0  0  0  0  0  0
    7.2982   12.0106   25.3264 C   0  0  0  0  0  0  0  0  0  0  0  0
    6.6229   13.0291   26.0459 C   0  0  0  0  0  0  0  0  0  0  0  0
    5.3208   12.7952   27.1120 Cl  0  0  0  0  0  0  0  0  0  0  0  0
    7.2204   14.2248   25.7356 C   0  0  0  0  0  0  0  0  0  0  0  0
    8.2390   13.9647   24.8609 N   0  0  0  0  0  0  0  0  0  0  0  0
    8.3236   12.6164   24.5965 C   0  0  0  0  0  0  0  0  0  0  0  0
  1  2  2  0
  2  3  1  0
  3  4  1  0
  4  5  1  0
  2  6  1  0
  6  7  1  0
  7  8  2  0
  8  9  1  0
  9 10  2  0
 10 11  1  0
 11 12  1  0
 12 13  1  0
 12 14  2  0
 14 15  1  0
 15 16  1  0
 16  7  1  0
 16 11  2  0
M  END
>  <alias>  (12) 
None

>  <rmsd(smina/fragmenstein)>  (12) 
0.399

>  <smiles>  (12) 
O=C(CCCl)Nc1cccc2c(Cl)c[nH]c12

>  <gnina_score>  (12) 
5.208

>  <inspiration_score>  (12) 
None

>  <energy_score>  (12) 
-30.933056

>  <distance_score>  (12) 
0.853484

>  <gnina_score_min>  (12) 
5.251

>  <inchikey>  (12) 
TYDZSSORPNJFTL-UHFFFAOYSA-N

>  <exports>  (12) 
['/opt/xchem-fragalysis-2/maxwin/BulkDock/OUTPUTS/openbind_a71ev2a_c2_elabs_1LOUU54.sdf', '/opt/xchem-fragalysis-2/maxwin/BulkDock/OUTPUTS/openbind_a71ev2a_c2_elabs_1LSYIDY.sdf']

>  <name>  (12) 
P535260

>  <ref_pdb>  (12) 
A0554a

>  <subsites>  (12) 
None

>  <HIPPO Pose ID>  (12) 
535260

>  <ref_mols>  (12) 
A0554a

>  <HIPPO Compound ID>  (12) 
367324

>  <tags>  (12) 
openbind_a71ev2a_c2_elabs,syndirella_product,openbind_a71ev2a_c2_elabs_fragonly_scored_top80percent,openbind_a71ev2a_c2_elabs_scored,BulkDock Fragalysis export,openbind_a71ev2a_c2_elabs_scored_top80percent,openbind_a71ev2a_c2_elabs_activefrags_only_scored_5.2plus,syndirella_placed

>  <smina_score_min>  (12) 
-5.811

$$$$
P535270
     RDKit          3D

 16 17  0  0  0  0  0  0  0  0999 V2000
    9.8195   16.0237   20.6673 C   0  0  0  0  0  0  0  0  0  0  0  0
   10.8956   14.9804   20.4351 C   0  0  0  0  0  0  0  0  0  0  0  0
   11.8185   14.7150   21.6251 C   0  0  0  0  0  0  0  0  0  0  0  0
   11.1094   14.2500   22.8959 C   0  0  0  0  0  0  0  0  0  0  0  0
   11.0585   14.9112   23.8530 O   0  0  0  0  0  0  0  0  0  0  0  0
   10.4693   12.8830   22.5923 N   0  0  0  0  0  0  0  0  0  0  0  0
    9.5903   12.1168   23.3371 C   0  0  0  0  0  0  0  0  0  0  0  0
    9.6123   10.7509   23.1291 C   0  0  0  0  0  0  0  0  0  0  0  0
    8.8076    9.9114   23.8672 C   0  0  0  0  0  0  0  0  0  0  0  0
    7.8490   10.3892   24.7535 C   0  0  0  0  0  0  0  0  0  0  0  0
    7.7624   11.7771   24.9465 C   0  0  0  0  0  0  0  0  0  0  0  0
    6.9424   12.6144   25.7515 C   0  0  0  0  0  0  0  0  0  0  0  0
    5.7287   12.0874   26.8170 Cl  0  0  0  0  0  0  0  0  0  0  0  0
    7.3284   13.9141   25.5337 C   0  0  0  0  0  0  0  0  0  0  0  0
    8.3645   13.8982   24.6388 N   0  0  0  0  0  0  0  0  0  0  0  0
    8.6585   12.6086   24.2596 C   0  0  0  0  0  0  0  0  0  0  0  0
  1  2  1  0
  2  3  1  0
  3  4  1  0
  4  5  2  0
  4  6  1  0
  6  7  1  0
  7  8  2  0
  8  9  1  0
  9 10  2  0
 10 11  1  0
 11 12  1  0
 12 13  1  0
 12 14  2  0
 14 15  1  0
 15 16  1  0
 16  7  1  0
 16 11  2  0
M  END
>  <alias>  (13) 
None

>  <rmsd(smina/fragmenstein)>  (13) 
0.399

>  <smiles>  (13) 
CCCC(=O)Nc1cccc2c(Cl)c[nH]c12

>  <gnina_score>  (13) 
5.337

>  <inspiration_score>  (13) 
None

>  <energy_score>  (13) 
-3.678831

>  <distance_score>  (13) 
0.785185

>  <gnina_score_min>  (13) 
5.294

>  <inchikey>  (13) 
SHBRVXWCOKGAKX-UHFFFAOYSA-N

>  <exports>  (13) 
['/opt/xchem-fragalysis-2/maxwin/BulkDock/OUTPUTS/openbind_a71ev2a_c2_elabs_1LOUU54.sdf', '/opt/xchem-fragalysis-2/maxwin/BulkDock/OUTPUTS/openbind_a71ev2a_c2_elabs_1LSYIDY.sdf']

>  <name>  (13) 
P535270

>  <ref_pdb>  (13) 
A0554a

>  <subsites>  (13) 
None

>  <HIPPO Pose ID>  (13) 
535270

>  <ref_mols>  (13) 
A0554a

>  <HIPPO Compound ID>  (13) 
367340

>  <tags>  (13) 
openbind_a71ev2a_c2_elabs,syndirella_product,openbind_a71ev2a_c2_elabs_fragonly_scored_top80percent,openbind_a71ev2a_c2_elabs_scored,BulkDock Fragalysis export,openbind_a71ev2a_c2_elabs_scored_top80percent,openbind_a71ev2a_c2_elabs_activefrags_only_scored_5.2plus,syndirella_placed

>  <smina_score_min>  (13) 
-6.194

$$$$
P535286
     RDKit          3D

 17 19  0  0  0  0  0  0  0  0999 V2000
   11.1788   14.5993   24.2298 O   0  0  0  0  0  0  0  0  0  0  0  0
   11.1844   13.9200   23.2776 C   0  0  0  0  0  0  0  0  0  0  0  0
   11.9761   14.2660   22.0211 C   0  0  0  0  0  0  0  0  0  0  0  0
   11.2416   15.2795   21.2034 C   0  0  0  0  0  0  0  0  0  0  0  0
    9.8233   15.0576   20.7460 C   0  0  0  0  0  0  0  0  0  0  0  0
   10.9388   15.0772   19.7406 C   0  0  0  0  0  0  0  0  0  0  0  0
   10.3833   12.6280   22.9585 N   0  0  0  0  0  0  0  0  0  0  0  0
    9.3857   11.9891   23.6747 C   0  0  0  0  0  0  0  0  0  0  0  0
    9.1627   10.6371   23.4686 C   0  0  0  0  0  0  0  0  0  0  0  0
    8.1533    9.9949   24.1705 C   0  0  0  0  0  0  0  0  0  0  0  0
    7.3179   10.6444   25.0690 C   0  0  0  0  0  0  0  0  0  0  0  0
    7.4853   12.0189   25.2420 C   0  0  0  0  0  0  0  0  0  0  0  0
    6.8058   13.0006   26.0088 C   0  0  0  0  0  0  0  0  0  0  0  0
    5.4867   12.7159   27.0411 Cl  0  0  0  0  0  0  0  0  0  0  0  0
    7.4146   14.2073   25.7726 C   0  0  0  0  0  0  0  0  0  0  0  0
    8.4484   13.9894   24.9023 N   0  0  0  0  0  0  0  0  0  0  0  0
    8.5238   12.6582   24.5573 C   0  0  0  0  0  0  0  0  0  0  0  0
  1  2  2  0
  2  3  1  0
  3  4  1  0
  4  5  1  0
  5  6  1  0
  2  7  1  0
  7  8  1  0
  8  9  2  0
  9 10  1  0
 10 11  2  0
 11 12  1  0
 12 13  1  0
 13 14  1  0
 13 15  2  0
 15 16  1  0
 16 17  1  0
  6  4  1  0
 17  8  1  0
 17 12  2  0
M  END
>  <alias>  (14) 
None

>  <rmsd(smina/fragmenstein)>  (14) 
0.393

>  <smiles>  (14) 
O=C(CC1CC1)Nc1cccc2c(Cl)c[nH]c12

>  <gnina_score>  (14) 
5.281

>  <inspiration_score>  (14) 
None

>  <energy_score>  (14) 
-20.901361

>  <distance_score>  (14) 
0.818222

>  <gnina_score_min>  (14) 
5.426

>  <inchikey>  (14) 
VIXXYZGBYCLEBD-UHFFFAOYSA-N

>  <exports>  (14) 
['/opt/xchem-fragalysis-2/maxwin/BulkDock/OUTPUTS/openbind_a71ev2a_c2_elabs_1LOUU54.sdf', '/opt/xchem-fragalysis-2/maxwin/BulkDock/OUTPUTS/openbind_a71ev2a_c2_elabs_1LSYIDY.sdf']

>  <name>  (14) 
P535286

>  <ref_pdb>  (14) 
A0554a

>  <subsites>  (14) 
None

>  <HIPPO Pose ID>  (14) 
535286

>  <ref_mols>  (14) 
A0554a

>  <HIPPO Compound ID>  (14) 
367358

>  <tags>  (14) 
openbind_a71ev2a_c2_elabs,syndirella_product,openbind_a71ev2a_c2_elabs_fragonly_scored_top80percent,openbind_a71ev2a_c2_elabs_scored,BulkDock Fragalysis export,openbind_a71ev2a_c2_elabs_scored_top80percent,openbind_a71ev2a_c2_elabs_activefrags_only_scored_5.2plus,syndirella_placed

>  <smina_score_min>  (14) 
-6.737

$$$$
P535292
     RDKit          3D

 17 18  0  0  0  0  0  0  0  0999 V2000
    9.9055   14.9578   21.2912 C   0  0  0  0  0  0  0  0  0  0  0  0
   11.3384   14.5942   21.5641 C   0  0  0  0  0  0  0  0  0  0  0  0
   12.2633   14.7138   20.4000 C   0  0  0  0  0  0  0  0  0  0  0  0
   11.8309   14.1614   22.7371 C   0  0  0  0  0  0  0  0  0  0  0  0
   10.9243   13.8342   23.8450 C   0  0  0  0  0  0  0  0  0  0  0  0
   10.8241   14.4860   24.8056 O   0  0  0  0  0  0  0  0  0  0  0  0
   10.1543   12.5707   23.4089 N   0  0  0  0  0  0  0  0  0  0  0  0
    9.0827   11.9285   23.9934 C   0  0  0  0  0  0  0  0  0  0  0  0
    8.8880   10.5772   23.7513 C   0  0  0  0  0  0  0  0  0  0  0  0
    7.8762    9.9107   24.4251 C   0  0  0  0  0  0  0  0  0  0  0  0
    7.0174   10.5429   25.3164 C   0  0  0  0  0  0  0  0  0  0  0  0
    7.1429   11.9212   25.4969 C   0  0  0  0  0  0  0  0  0  0  0  0
    6.4418   12.8828   26.2681 C   0  0  0  0  0  0  0  0  0  0  0  0
    5.1308   12.5644   27.3010 Cl  0  0  0  0  0  0  0  0  0  0  0  0
    7.0231   14.1048   26.0419 C   0  0  0  0  0  0  0  0  0  0  0  0
    8.0639   13.9151   25.1756 N   0  0  0  0  0  0  0  0  0  0  0  0
    8.1752   12.5853   24.8339 C   0  0  0  0  0  0  0  0  0  0  0  0
  1  2  1  0
  2  3  1  0
  2  4  2  3
  4  5  1  0
  5  6  2  0
  5  7  1  0
  7  8  1  0
  8  9  2  0
  9 10  1  0
 10 11  2  0
 11 12  1  0
 12 13  1  0
 13 14  1  0
 13 15  2  0
 15 16  1  0
 16 17  1  0
 17  8  1  0
 17 12  2  0
M  END
>  <alias>  (15) 
None

>  <rmsd(smina/fragmenstein)>  (15) 
0.356

>  <smiles>  (15) 
CC(C)=CC(=O)Nc1cccc2c(Cl)c[nH]c12

>  <gnina_score>  (15) 
5.121

>  <inspiration_score>  (15) 
None

>  <energy_score>  (15) 
-25.556117

>  <distance_score>  (15) 
0.903124

>  <gnina_score_min>  (15) 
5.258

>  <inchikey>  (15) 
KBDZKAKHDCBYTE-UHFFFAOYSA-N

>  <exports>  (15) 
['/opt/xchem-fragalysis-2/maxwin/BulkDock/OUTPUTS/openbind_a71ev2a_c2_elabs_1LOUU54.sdf', '/opt/xchem-fragalysis-2/maxwin/BulkDock/OUTPUTS/openbind_a71ev2a_c2_elabs_1LSYIDY.sdf']

>  <name>  (15) 
P535292

>  <ref_pdb>  (15) 
A0554a

>  <subsites>  (15) 
None

>  <HIPPO Pose ID>  (15) 
535292

>  <ref_mols>  (15) 
A0554a

>  <HIPPO Compound ID>  (15) 
367368

>  <tags>  (15) 
openbind_a71ev2a_c2_elabs,syndirella_product,openbind_a71ev2a_c2_elabs_fragonly_scored_top80percent,openbind_a71ev2a_c2_elabs_scored,BulkDock Fragalysis export,openbind_a71ev2a_c2_elabs_scored_top80percent,openbind_a71ev2a_c2_elabs_activefrags_only_scored_5.2plus,syndirella_placed

>  <smina_score_min>  (15) 
-6.443

$$$$
P535296
     RDKit          3D

 17 18  0  0  0  0  0  0  0  0999 V2000
    9.7238   15.2042   20.9428 C   0  0  0  0  0  0  0  0  0  0  0  0
   11.1693   15.2049   20.7800 N   0  0  0  0  0  0  0  0  0  0  0  0
   11.4932   14.9189   19.3809 C   0  0  0  0  0  0  0  0  0  0  0  0
   11.9618   14.3837   21.7123 C   0  0  0  0  0  0  0  0  0  0  0  0
   11.2152   14.0650   23.0253 C   0  0  0  0  0  0  0  0  0  0  0  0
   11.1963   14.7798   23.9510 O   0  0  0  0  0  0  0  0  0  0  0  0
   10.4731   12.7217   22.7748 N   0  0  0  0  0  0  0  0  0  0  0  0
    9.5248   12.0615   23.5396 C   0  0  0  0  0  0  0  0  0  0  0  0
    9.3324   10.7087   23.3173 C   0  0  0  0  0  0  0  0  0  0  0  0
    8.3470   10.0269   24.0100 C   0  0  0  0  0  0  0  0  0  0  0  0
    7.4995   10.6352   24.9251 C   0  0  0  0  0  0  0  0  0  0  0  0
    7.6398   12.0104   25.1265 C   0  0  0  0  0  0  0  0  0  0  0  0
    6.9369   12.9625   25.9107 C   0  0  0  0  0  0  0  0  0  0  0  0
    5.6270   12.6279   26.9395 Cl  0  0  0  0  0  0  0  0  0  0  0  0
    7.5138   14.1885   25.6916 C   0  0  0  0  0  0  0  0  0  0  0  0
    8.5508   14.0110   24.8158 N   0  0  0  0  0  0  0  0  0  0  0  0
    8.6608   12.6894   24.4490 C   0  0  0  0  0  0  0  0  0  0  0  0
  1  2  1  0
  2  3  1  0
  2  4  1  0
  4  5  1  0
  5  6  2  0
  5  7  1  0
  7  8  1  0
  8  9  2  0
  9 10  1  0
 10 11  2  0
 11 12  1  0
 12 13  1  0
 13 14  1  0
 13 15  2  0
 15 16  1  0
 16 17  1  0
 17  8  1  0
 17 12  2  0
M  END
>  <alias>  (16) 
None

>  <rmsd(smina/fragmenstein)>  (16) 
0.282

>  <smiles>  (16) 
CN(C)CC(=O)Nc1cccc2c(Cl)c[nH]c12

>  <gnina_score>  (16) 
5.507

>  <inspiration_score>  (16) 
None

>  <energy_score>  (16) 
-35.805464

>  <distance_score>  (16) 
0.854978

>  <gnina_score_min>  (16) 
5.567

>  <inchikey>  (16) 
HTAYAMNLBOWGHH-UHFFFAOYSA-N

>  <exports>  (16) 
['/opt/xchem-fragalysis-2/maxwin/BulkDock/OUTPUTS/openbind_a71ev2a_c2_elabs_1LOUU54.sdf', '/opt/xchem-fragalysis-2/maxwin/BulkDock/OUTPUTS/openbind_a71ev2a_c2_elabs_1LSYIDY.sdf']

>  <name>  (16) 
P535296

>  <ref_pdb>  (16) 
A0554a

>  <subsites>  (16) 
None

>  <HIPPO Pose ID>  (16) 
535296

>  <ref_mols>  (16) 
A0554a

>  <HIPPO Compound ID>  (16) 
367375

>  <tags>  (16) 
openbind_a71ev2a_c2_elabs,syndirella_product,openbind_a71ev2a_c2_elabs_fragonly_scored_top80percent,BulkDock Fragalysis export,openbind_a71ev2a_c2_elabs_scored,openbind_a71ev2a_c2_elabs_scored_top80percent,openbind_a71ev2a_c2_elabs_activefrags_only_scored_5.2plus,openbind_a71ev2a_c2_elabs_activefrags_only_scored_5.5plus,syndirella_placed

>  <smina_score_min>  (16) 
-6.391

$$$$
P535377
     RDKit          3D

 17 18  0  0  0  0  0  0  0  0999 V2000
   11.6499   14.8167   18.9563 C   0  0  0  0  0  0  0  0  0  0  0  0
   10.3824   15.8957   19.6424 S   0  0  0  0  0  0  0  0  0  0  0  0
    9.7132   14.7847   21.1940 S   0  0  0  0  0  0  0  0  0  0  0  0
   11.2220   14.4329   22.2155 C   0  0  0  0  0  0  0  0  0  0  0  0
   10.6338   13.9530   23.5325 C   0  0  0  0  0  0  0  0  0  0  0  0
   10.7229   14.5518   24.5324 O   0  0  0  0  0  0  0  0  0  0  0  0
    9.8633   12.6441   23.2089 N   0  0  0  0  0  0  0  0  0  0  0  0
    9.0103   11.8944   23.9857 C   0  0  0  0  0  0  0  0  0  0  0  0
    8.8487   10.5407   23.7597 C   0  0  0  0  0  0  0  0  0  0  0  0
    7.8795    9.8581   24.4787 C   0  0  0  0  0  0  0  0  0  0  0  0
    7.0325   10.4700   25.3959 C   0  0  0  0  0  0  0  0  0  0  0  0
    7.1440   11.8462   25.5850 C   0  0  0  0  0  0  0  0  0  0  0  0
    6.4452   12.7920   26.3769 C   0  0  0  0  0  0  0  0  0  0  0  0
    5.1738   12.4438   27.4487 Cl  0  0  0  0  0  0  0  0  0  0  0  0
    6.9854   14.0273   26.1249 C   0  0  0  0  0  0  0  0  0  0  0  0
    7.9914   13.8610   25.2141 N   0  0  0  0  0  0  0  0  0  0  0  0
    8.1368   12.5298   24.8844 C   0  0  0  0  0  0  0  0  0  0  0  0
  1  2  1  0
  2  3  1  0
  3  4  1  0
  4  5  1  0
  5  6  2  0
  5  7  1  0
  7  8  1  0
  8  9  2  0
  9 10  1  0
 10 11  2  0
 11 12  1  0
 12 13  1  0
 13 14  1  0
 13 15  2  0
 15 16  1  0
 16 17  1  0
 17  8  1  0
 17 12  2  0
M  END
>  <alias>  (17) 
None

>  <rmsd(smina/fragmenstein)>  (17) 
0.676

>  <smiles>  (17) 
CSSCC(=O)Nc1cccc2c(Cl)c[nH]c12

>  <gnina_score>  (17) 
5.264

>  <inspiration_score>  (17) 
None

>  <energy_score>  (17) 
-18.331234

>  <distance_score>  (17) 
0.938788

>  <gnina_score_min>  (17) 
5.386

>  <inchikey>  (17) 
XTFLULKQESQHNE-UHFFFAOYSA-N

>  <exports>  (17) 
['/opt/xchem-fragalysis-2/maxwin/BulkDock/OUTPUTS/openbind_a71ev2a_c2_elabs_1LOUU54.sdf', '/opt/xchem-fragalysis-2/maxwin/BulkDock/OUTPUTS/openbind_a71ev2a_c2_elabs_1LSYIDY.sdf']

>  <name>  (17) 
P535377

>  <ref_pdb>  (17) 
A0554a

>  <subsites>  (17) 
None

>  <HIPPO Pose ID>  (17) 
535377

>  <ref_mols>  (17) 
A0554a

>  <HIPPO Compound ID>  (17) 
367475

>  <tags>  (17) 
openbind_a71ev2a_c2_elabs,syndirella_product,openbind_a71ev2a_c2_elabs_fragonly_scored_top80percent,openbind_a71ev2a_c2_elabs_scored,BulkDock Fragalysis export,openbind_a71ev2a_c2_elabs_scored_top80percent,openbind_a71ev2a_c2_elabs_activefrags_only_scored_5.2plus,syndirella_placed

>  <smina_score_min>  (17) 
-5.7

$$$$
P535386
     RDKit          3D

 17 18  0  0  0  0  0  0  0  0999 V2000
   11.1345   14.7090   24.1033 O   0  0  0  0  0  0  0  0  0  0  0  0
   11.1174   14.0324   23.1513 C   0  0  0  0  0  0  0  0  0  0  0  0
   11.8285   14.4000   21.8627 C   0  0  0  0  0  0  0  0  0  0  0  0
   10.7885   15.0378   20.9456 C   0  0  0  0  0  0  0  0  0  0  0  0
   11.1490   14.9597   19.4860 C   0  0  0  0  0  0  0  0  0  0  0  0
   10.2344   15.6948   18.7967 F   0  0  0  0  0  0  0  0  0  0  0  0
   10.3486   12.7158   22.8681 N   0  0  0  0  0  0  0  0  0  0  0  0
    9.4100   12.0414   23.6299 C   0  0  0  0  0  0  0  0  0  0  0  0
    9.2262   10.6860   23.4159 C   0  0  0  0  0  0  0  0  0  0  0  0
    8.2433   10.0081   24.1183 C   0  0  0  0  0  0  0  0  0  0  0  0
    7.3944   10.6218   25.0289 C   0  0  0  0  0  0  0  0  0  0  0  0
    7.5288   11.9977   25.2205 C   0  0  0  0  0  0  0  0  0  0  0  0
    6.8284   12.9511   26.0044 C   0  0  0  0  0  0  0  0  0  0  0  0
    5.5269   12.6180   27.0440 Cl  0  0  0  0  0  0  0  0  0  0  0  0
    7.4004   14.1775   25.7764 C   0  0  0  0  0  0  0  0  0  0  0  0
    8.4306   13.9983   24.8940 N   0  0  0  0  0  0  0  0  0  0  0  0
    8.5436   12.6747   24.5343 C   0  0  0  0  0  0  0  0  0  0  0  0
  1  2  2  0
  2  3  1  0
  3  4  1  0
  4  5  1  0
  5  6  1  0
  2  7  1  0
  7  8  1  0
  8  9  2  0
  9 10  1  0
 10 11  2  0
 11 12  1  0
 12 13  1  0
 13 14  1  0
 13 15  2  0
 15 16  1  0
 16 17  1  0
 17  8  1  0
 17 12  2  0
M  END
>  <alias>  (18) 
None

>  <rmsd(smina/fragmenstein)>  (18) 
0.724

>  <smiles>  (18) 
O=C(CCCF)Nc1cccc2c(Cl)c[nH]c12

>  <gnina_score>  (18) 
5.095

>  <inspiration_score>  (18) 
None

>  <energy_score>  (18) 
-13.875287

>  <distance_score>  (18) 
0.827957

>  <gnina_score_min>  (18) 
5.34

>  <inchikey>  (18) 
QNBQMQBEFSXGCC-UHFFFAOYSA-N

>  <exports>  (18) 
['/opt/xchem-fragalysis-2/maxwin/BulkDock/OUTPUTS/openbind_a71ev2a_c2_elabs_1LOUU54.sdf', '/opt/xchem-fragalysis-2/maxwin/BulkDock/OUTPUTS/openbind_a71ev2a_c2_elabs_1LSYIDY.sdf']

>  <name>  (18) 
P535386

>  <ref_pdb>  (18) 
A0554a

>  <subsites>  (18) 
None

>  <HIPPO Pose ID>  (18) 
535386

>  <ref_mols>  (18) 
A0554a

>  <HIPPO Compound ID>  (18) 
367483

>  <tags>  (18) 
openbind_a71ev2a_c2_elabs,syndirella_product,openbind_a71ev2a_c2_elabs_fragonly_scored_top80percent,openbind_a71ev2a_c2_elabs_scored,BulkDock Fragalysis export,openbind_a71ev2a_c2_elabs_scored_top80percent,openbind_a71ev2a_c2_elabs_activefrags_only_scored_5.2plus,syndirella_placed

>  <smina_score_min>  (18) 
-6.893

$$$$
P535387
     RDKit          3D

 17 18  0  0  0  0  0  0  0  0999 V2000
   12.6617   15.6391   22.0927 C   0  0  0  0  0  0  0  0  0  0  0  0
   11.9165   14.5695   21.8445 C   0  0  0  0  0  0  0  0  0  0  0  0
   12.0280   13.9196   20.5295 C   0  0  0  0  0  0  0  0  0  0  0  0
   12.8711   14.5267   19.5816 O   0  0  0  0  0  0  0  0  0  0  0  0
   10.9700   14.1455   22.9455 C   0  0  0  0  0  0  0  0  0  0  0  0
   10.8258   14.8424   23.8640 O   0  0  0  0  0  0  0  0  0  0  0  0
   10.3137   12.8089   22.6039 N   0  0  0  0  0  0  0  0  0  0  0  0
    9.4431   12.0249   23.3330 C   0  0  0  0  0  0  0  0  0  0  0  0
    9.5369   10.6569   23.1897 C   0  0  0  0  0  0  0  0  0  0  0  0
    8.7842    9.8308   23.9935 C   0  0  0  0  0  0  0  0  0  0  0  0
    7.7920   10.3094   24.8453 C   0  0  0  0  0  0  0  0  0  0  0  0
    7.6494   11.6979   24.9789 C   0  0  0  0  0  0  0  0  0  0  0  0
    6.8244   12.5398   25.7731 C   0  0  0  0  0  0  0  0  0  0  0  0
    5.6608   12.0174   26.8950 Cl  0  0  0  0  0  0  0  0  0  0  0  0
    7.1696   13.8414   25.5033 C   0  0  0  0  0  0  0  0  0  0  0  0
    8.1841   13.8218   24.5846 N   0  0  0  0  0  0  0  0  0  0  0  0
    8.5039   12.5267   24.2441 C   0  0  0  0  0  0  0  0  0  0  0  0
  1  2  2  0
  2  3  1  0
  3  4  1  0
  2  5  1  0
  5  6  2  0
  5  7  1  0
  7  8  1  0
  8  9  2  0
  9 10  1  0
 10 11  2  0
 11 12  1  0
 12 13  1  0
 13 14  1  0
 13 15  2  0
 15 16  1  0
 16 17  1  0
 17  8  1  0
 17 12  2  0
M  END
>  <alias>  (19) 
None

>  <rmsd(smina/fragmenstein)>  (19) 
0.729

>  <smiles>  (19) 
C=C(CO)C(=O)Nc1cccc2c(Cl)c[nH]c12

>  <gnina_score>  (19) 
5.312

>  <inspiration_score>  (19) 
None

>  <energy_score>  (19) 
-12.175992

>  <distance_score>  (19) 
0.691885

>  <gnina_score_min>  (19) 
5.228

>  <inchikey>  (19) 
LFSYEQUWDXZOOK-UHFFFAOYSA-N

>  <exports>  (19) 
['/opt/xchem-fragalysis-2/maxwin/BulkDock/OUTPUTS/openbind_a71ev2a_c2_elabs_1LOUU54.sdf', '/opt/xchem-fragalysis-2/maxwin/BulkDock/OUTPUTS/openbind_a71ev2a_c2_elabs_1LSYIDY.sdf']

>  <name>  (19) 
P535387

>  <ref_pdb>  (19) 
A0554a

>  <subsites>  (19) 
None

>  <HIPPO Pose ID>  (19) 
535387

>  <ref_mols>  (19) 
A0554a

>  <HIPPO Compound ID>  (19) 
367488

>  <tags>  (19) 
openbind_a71ev2a_c2_elabs,syndirella_product,openbind_a71ev2a_c2_elabs_fragonly_scored_top80percent,openbind_a71ev2a_c2_elabs_scored,BulkDock Fragalysis export,openbind_a71ev2a_c2_elabs_scored_top80percent,openbind_a71ev2a_c2_elabs_activefrags_only_scored_5.2plus,syndirella_placed

>  <smina_score_min>  (19) 
-6.722

$$$$
P535391
     RDKit          3D

 17 18  0  0  0  0  0  0  0  0999 V2000
   11.6484   15.0164   18.7174 C   0  0  0  0  0  0  0  0  0  0  0  0
   11.2963   14.9134   19.8558 C   0  0  0  0  0  0  0  0  0  0  0  0
   10.7862   14.8509   21.2143 C   0  0  0  0  0  0  0  0  0  0  0  0
   11.7899   14.2225   22.1728 C   0  0  0  0  0  0  0  0  0  0  0  0
   11.0067   13.8771   23.4155 C   0  0  0  0  0  0  0  0  0  0  0  0
   10.9877   14.5579   24.3645 O   0  0  0  0  0  0  0  0  0  0  0  0
   10.2246   12.5750   23.0964 N   0  0  0  0  0  0  0  0  0  0  0  0
    9.2332   11.9259   23.8089 C   0  0  0  0  0  0  0  0  0  0  0  0
    9.0143   10.5722   23.6099 C   0  0  0  0  0  0  0  0  0  0  0  0
    8.0063    9.9363   24.3208 C   0  0  0  0  0  0  0  0  0  0  0  0
    7.1688   10.5964   25.2104 C   0  0  0  0  0  0  0  0  0  0  0  0
    7.3324   11.9718   25.3727 C   0  0  0  0  0  0  0  0  0  0  0  0
    6.6556   12.9574   26.1358 C   0  0  0  0  0  0  0  0  0  0  0  0
    5.3384   12.6797   27.1724 Cl  0  0  0  0  0  0  0  0  0  0  0  0
    7.2674   14.1617   25.8968 C   0  0  0  0  0  0  0  0  0  0  0  0
    8.3005   13.9379   25.0280 N   0  0  0  0  0  0  0  0  0  0  0  0
    8.3699   12.6051   24.6840 C   0  0  0  0  0  0  0  0  0  0  0  0
  1  2  3  0
  2  3  1  0
  3  4  1  0
  4  5  1  0
  5  6  2  0
  5  7  1  0
  7  8  1  0
  8  9  2  0
  9 10  1  0
 10 11  2  0
 11 12  1  0
 12 13  1  0
 13 14  1  0
 13 15  2  0
 15 16  1  0
 16 17  1  0
 17  8  1  0
 17 12  2  0
M  END
>  <alias>  (20) 
None

>  <rmsd(smina/fragmenstein)>  (20) 
0.498

>  <smiles>  (20) 
C#CCCC(=O)Nc1cccc2c(Cl)c[nH]c12

>  <gnina_score>  (20) 
5.004

>  <inspiration_score>  (20) 
None

>  <energy_score>  (20) 
-3.410014

>  <distance_score>  (20) 
0.830409

>  <gnina_score_min>  (20) 
5.226

>  <inchikey>  (20) 
GKQXBFUUMBFVHL-UHFFFAOYSA-N

>  <exports>  (20) 
['/opt/xchem-fragalysis-2/maxwin/BulkDock/OUTPUTS/openbind_a71ev2a_c2_elabs_1LOUU54.sdf', '/opt/xchem-fragalysis-2/maxwin/BulkDock/OUTPUTS/openbind_a71ev2a_c2_elabs_1LSYIDY.sdf']

>  <name>  (20) 
P535391

>  <ref_pdb>  (20) 
A0554a

>  <subsites>  (20) 
None

>  <HIPPO Pose ID>  (20) 
535391

>  <ref_mols>  (20) 
A0554a

>  <HIPPO Compound ID>  (20) 
367494

>  <tags>  (20) 
openbind_a71ev2a_c2_elabs,syndirella_product,openbind_a71ev2a_c2_elabs_fragonly_scored_top80percent,openbind_a71ev2a_c2_elabs_scored,BulkDock Fragalysis export,openbind_a71ev2a_c2_elabs_scored_top80percent,openbind_a71ev2a_c2_elabs_activefrags_only_scored_5.2plus,syndirella_placed

>  <smina_score_min>  (20) 
-6.135

$$$$
P535394
     RDKit          3D

 17 18  0  0  0  0  0  0  0  0999 V2000
   12.2613   14.2820   20.8060 C   0  0  0  0  0  0  0  0  0  0  0  0
   11.5054   15.1010   21.8312 C   0  0  1  0  0  0  0  0  0  0  0  0
   10.5374   15.9336   21.1946 O   0  0  0  0  0  0  0  0  0  0  0  0
    9.3878   15.1696   20.7289 N   0  0  0  0  0  0  0  0  0  0  0  0
   11.0062   14.3463   23.1014 C   0  0  0  0  0  0  0  0  0  0  0  0
   11.1567   14.7952   24.1708 O   0  0  0  0  0  0  0  0  0  0  0  0
   10.2561   13.0730   22.6456 N   0  0  0  0  0  0  0  0  0  0  0  0
    9.4899   12.1789   23.3640 C   0  0  0  0  0  0  0  0  0  0  0  0
    9.6102   10.8344   23.0726 C   0  0  0  0  0  0  0  0  0  0  0  0
    8.8759    9.8920   23.7594 C   0  0  0  0  0  0  0  0  0  0  0  0
    7.9066   10.2567   24.6924 C   0  0  0  0  0  0  0  0  0  0  0  0
    7.7315   11.6225   24.9811 C   0  0  0  0  0  0  0  0  0  0  0  0
    6.8743   12.3586   25.8457 C   0  0  0  0  0  0  0  0  0  0  0  0
    5.7252   11.6959   26.9071 Cl  0  0  0  0  0  0  0  0  0  0  0  0
    7.1586   13.6936   25.6871 C   0  0  0  0  0  0  0  0  0  0  0  0
    8.1663   13.7987   24.7669 N   0  0  0  0  0  0  0  0  0  0  0  0
    8.5513   12.5521   24.3302 C   0  0  0  0  0  0  0  0  0  0  0  0
  2  1  1  6
  2  3  1  0
  3  4  1  0
  2  5  1  0
  5  6  2  0
  5  7  1  0
  7  8  1  0
  8  9  2  0
  9 10  1  0
 10 11  2  0
 11 12  1  0
 12 13  1  0
 13 14  1  0
 13 15  2  0
 15 16  1  0
 16 17  1  0
 17  8  1  0
 17 12  2  0
M  END
>  <alias>  (21) 
None

>  <rmsd(smina/fragmenstein)>  (21) 
0.821

>  <smiles>  (21) 
C[C@@H](ON)C(=O)Nc1cccc2c(Cl)c[nH]c12

>  <gnina_score>  (21) 
5.38

>  <inspiration_score>  (21) 
None

>  <energy_score>  (21) 
-20.56876

>  <distance_score>  (21) 
0.718211

>  <gnina_score_min>  (21) 
5.279

>  <inchikey>  (21) 
AYWAZZHDVAXZGX-ZCFIWIBFSA-N

>  <exports>  (21) 
['/opt/xchem-fragalysis-2/maxwin/BulkDock/OUTPUTS/openbind_a71ev2a_c2_elabs_1LOUU54.sdf', '/opt/xchem-fragalysis-2/maxwin/BulkDock/OUTPUTS/openbind_a71ev2a_c2_elabs_1LSYIDY.sdf']

>  <name>  (21) 
P535394

>  <ref_pdb>  (21) 
A0554a

>  <subsites>  (21) 
None

>  <HIPPO Pose ID>  (21) 
535394

>  <ref_mols>  (21) 
A0554a

>  <HIPPO Compound ID>  (21) 
367497

>  <tags>  (21) 
openbind_a71ev2a_c2_elabs,syndirella_product,openbind_a71ev2a_c2_elabs_fragonly_scored_top80percent,openbind_a71ev2a_c2_elabs_scored,BulkDock Fragalysis export,openbind_a71ev2a_c2_elabs_scored_top80percent,openbind_a71ev2a_c2_elabs_activefrags_only_scored_5.2plus,syndirella_placed

>  <smina_score_min>  (21) 
-6.39

$$$$
P535397
     RDKit          3D

 17 18  0  0  0  0  0  0  0  0999 V2000
   10.2290   15.3942   21.1047 C   0  0  0  0  0  0  0  0  0  0  0  0
   11.3614   14.9276   22.0343 C   0  0  2  0  0  0  0  0  0  0  0  0
   12.1977   13.9530   21.4177 O   0  0  0  0  0  0  0  0  0  0  0  0
   12.6964   14.4851   20.1635 N   0  0  0  0  0  0  0  0  0  0  0  0
   10.7669   14.2608   23.2886 C   0  0  0  0  0  0  0  0  0  0  0  0
   10.8624   14.6974   24.3661 O   0  0  0  0  0  0  0  0  0  0  0  0
    9.9878   13.0318   22.7723 N   0  0  0  0  0  0  0  0  0  0  0  0
    9.2748   12.0743   23.4556 C   0  0  0  0  0  0  0  0  0  0  0  0
    9.6019   10.7723   23.1130 C   0  0  0  0  0  0  0  0  0  0  0  0
    9.0059    9.7023   23.7235 C   0  0  0  0  0  0  0  0  0  0  0  0
    7.9755    9.8989   24.6342 C   0  0  0  0  0  0  0  0  0  0  0  0
    7.6018   11.2011   24.9973 C   0  0  0  0  0  0  0  0  0  0  0  0
    6.6304   11.6972   25.9028 C   0  0  0  0  0  0  0  0  0  0  0  0
    6.6645   13.0637   25.8240 C   0  0  0  0  0  0  0  0  0  0  0  0
    7.5766   13.4068   24.8555 N   0  0  0  0  0  0  0  0  0  0  0  0
    7.6554   14.7521   24.3446 C   0  0  0  0  0  0  0  0  0  0  0  0
    8.2534   12.2923   24.4006 C   0  0  0  0  0  0  0  0  0  0  0  0
  2  1  1  6
  2  3  1  0
  3  4  1  0
  2  5  1  0
  5  6  2  0
  5  7  1  0
  7  8  1  0
  8  9  2  0
  9 10  1  0
 10 11  2  0
 11 12  1  0
 12 13  1  0
 13 14  2  0
 14 15  1  0
 15 16  1  0
 15 17  1  0
 17  8  1  0
 17 12  2  0
M  END
>  <alias>  (22) 
None

>  <rmsd(smina/fragmenstein)>  (22) 
1.125

>  <smiles>  (22) 
C[C@H](ON)C(=O)Nc1cccc2ccn(C)c12

>  <gnina_score>  (22) 
5.323

>  <inspiration_score>  (22) 
None

>  <energy_score>  (22) 
-13.226109

>  <distance_score>  (22) 
0.602738

>  <gnina_score_min>  (22) 
5.461

>  <inchikey>  (22) 
WGEKALDYQJCALM-QMMMGPOBSA-N

>  <exports>  (22) 
['/opt/xchem-fragalysis-2/maxwin/BulkDock/OUTPUTS/openbind_a71ev2a_c2_elabs_1LOUU54.sdf', '/opt/xchem-fragalysis-2/maxwin/BulkDock/OUTPUTS/openbind_a71ev2a_c2_elabs_1LSYIDY.sdf']

>  <name>  (22) 
P535397

>  <ref_pdb>  (22) 
A0554a

>  <subsites>  (22) 
None

>  <HIPPO Pose ID>  (22) 
535397

>  <ref_mols>  (22) 
A0554a

>  <HIPPO Compound ID>  (22) 
367500

>  <tags>  (22) 
openbind_a71ev2a_c2_elabs,syndirella_product,openbind_a71ev2a_c2_elabs_fragonly_scored_top80percent,openbind_a71ev2a_c2_elabs_scored,BulkDock Fragalysis export,openbind_a71ev2a_c2_elabs_scored_top80percent,openbind_a71ev2a_c2_elabs_activefrags_only_scored_5.2plus,syndirella_placed

>  <smina_score_min>  (22) 
-7.222

$$$$
P535407
     RDKit          3D

 17 19  0  0  0  0  0  0  0  0999 V2000
    9.5631   15.0154   20.8887 C   0  0  0  0  0  0  0  0  0  0  0  0
   10.9248   15.4723   21.2535 C   0  0  2  0  0  0  0  0  0  0  0  0
   12.1354   14.6067   21.0473 C   0  0  0  0  0  0  0  0  0  0  0  0
   11.7454   14.9783   22.4407 C   0  0  2  0  0  0  0  0  0  0  0  0
   11.0395   14.2047   23.4957 C   0  0  0  0  0  0  0  0  0  0  0  0
   10.9744   14.6787   24.5524 O   0  0  0  0  0  0  0  0  0  0  0  0
   10.4257   12.9282   22.9495 N   0  0  0  0  0  0  0  0  0  0  0  0
    9.5580   12.0399   23.5261 C   0  0  0  0  0  0  0  0  0  0  0  0
    9.6145   10.7370   23.1051 C   0  0  0  0  0  0  0  0  0  0  0  0
    8.7913    9.7994   23.6715 C   0  0  0  0  0  0  0  0  0  0  0  0
    7.8209   10.1263   24.6208 C   0  0  0  0  0  0  0  0  0  0  0  0
    7.6935   11.4711   25.0104 C   0  0  0  0  0  0  0  0  0  0  0  0
    6.8472   12.1845   25.9047 C   0  0  0  0  0  0  0  0  0  0  0  0
    5.6641   11.5026   26.9143 Cl  0  0  0  0  0  0  0  0  0  0  0  0
    7.1850   13.5147   25.8389 C   0  0  0  0  0  0  0  0  0  0  0  0
    8.2346   13.6345   24.9682 N   0  0  0  0  0  0  0  0  0  0  0  0
    8.5800   12.4011   24.4600 C   0  0  0  0  0  0  0  0  0  0  0  0
  2  1  1  1
  2  3  1  0
  3  4  1  0
  4  5  1  1
  5  6  2  0
  5  7  1  0
  7  8  1  0
  8  9  2  0
  9 10  1  0
 10 11  2  0
 11 12  1  0
 12 13  1  0
 13 14  1  0
 13 15  2  0
 15 16  1  0
 16 17  1  0
  4  2  1  0
 17  8  1  0
 17 12  2  0
M  END
>  <alias>  (23) 
None

>  <rmsd(smina/fragmenstein)>  (23) 
0.569

>  <smiles>  (23) 
C[C@@H]1C[C@@H]1C(=O)Nc1cccc2c(Cl)c[nH]c12

>  <gnina_score>  (23) 
5.401

>  <inspiration_score>  (23) 
None

>  <energy_score>  (23) 
-4.129422

>  <distance_score>  (23) 
0.527854

>  <gnina_score_min>  (23) 
5.335

>  <inchikey>  (23) 
KAZWNRCQGDAVMR-APPZFPTMSA-N

>  <exports>  (23) 
['/opt/xchem-fragalysis-2/maxwin/BulkDock/OUTPUTS/openbind_a71ev2a_c2_elabs_1LOUU54.sdf', '/opt/xchem-fragalysis-2/maxwin/BulkDock/OUTPUTS/openbind_a71ev2a_c2_elabs_1LSYIDY.sdf']

>  <name>  (23) 
P535407

>  <ref_pdb>  (23) 
A0554a

>  <subsites>  (23) 
None

>  <HIPPO Pose ID>  (23) 
535407

>  <ref_mols>  (23) 
A0554a

>  <HIPPO Compound ID>  (23) 
367518

>  <tags>  (23) 
openbind_a71ev2a_c2_elabs,syndirella_product,openbind_a71ev2a_c2_elabs_fragonly_scored_top80percent,openbind_a71ev2a_c2_elabs_scored,BulkDock Fragalysis export,openbind_a71ev2a_c2_elabs_scored_top80percent,openbind_a71ev2a_c2_elabs_activefrags_only_scored_5.2plus,syndirella_placed

>  <smina_score_min>  (23) 
-6.785

$$$$
P535456
     RDKit          3D

 18 19  0  0  0  0  0  0  0  0999 V2000
   10.1522   15.0707   20.8873 C   0  0  0  0  0  0  0  0  0  0  0  0
   11.6354   15.1027   21.2091 C   0  0  0  0  0  0  0  0  0  0  0  0
   12.1336   14.0171   22.1466 C   0  0  0  0  0  0  0  0  0  0  0  0
   11.2175   13.8114   23.3279 C   0  0  0  0  0  0  0  0  0  0  0  0
   11.1572   14.5873   24.2021 O   0  0  0  0  0  0  0  0  0  0  0  0
   10.3892   12.5210   23.0669 N   0  0  0  0  0  0  0  0  0  0  0  0
    9.3017   11.9966   23.7482 C   0  0  0  0  0  0  0  0  0  0  0  0
    9.0145   10.6383   23.6834 C   0  0  0  0  0  0  0  0  0  0  0  0
    7.9909   10.1111   24.4699 C   0  0  0  0  0  0  0  0  0  0  0  0
    7.1866   10.9123   25.3012 C   0  0  0  0  0  0  0  0  0  0  0  0
    6.1391   10.3118   26.1797 C   0  0  0  0  0  0  0  0  0  0  0  0
    7.4076   12.2995   25.2904 C   0  0  0  0  0  0  0  0  0  0  0  0
    6.7893   13.4107   25.9434 C   0  0  0  0  0  0  0  0  0  0  0  0
    5.6922   13.4096   26.8611 C   0  0  0  0  0  0  0  0  0  0  0  0
    4.8331   13.3789   27.6421 N   0  0  0  0  0  0  0  0  0  0  0  0
    7.4543   14.5462   25.5501 C   0  0  0  0  0  0  0  0  0  0  0  0
    8.4562   14.1622   24.7089 N   0  0  0  0  0  0  0  0  0  0  0  0
    8.4630   12.7991   24.5307 C   0  0  0  0  0  0  0  0  0  0  0  0
  1  2  1  0
  2  3  1  0
  3  4  1  0
  4  5  2  0
  4  6  1  0
  6  7  1  0
  7  8  2  0
  8  9  1  0
  9 10  2  0
 10 11  1  0
 10 12  1  0
 12 13  1  0
 13 14  1  0
 14 15  3  0
 13 16  2  0
 16 17  1  0
 17 18  1  0
 18  7  1  0
 18 12  2  0
M  END
>  <alias>  (24) 
None

>  <rmsd(smina/fragmenstein)>  (24) 
1.063

>  <smiles>  (24) 
CCCC(=O)Nc1ccc(C)c2c(C#N)c[nH]c12

>  <gnina_score>  (24) 
5.209

>  <inspiration_score>  (24) 
None

>  <energy_score>  (24) 
-23.94978

>  <distance_score>  (24) 
1.028971

>  <gnina_score_min>  (24) 
5.216

>  <inchikey>  (24) 
STZSKESBGOIWLT-UHFFFAOYSA-N

>  <exports>  (24) 
['/opt/xchem-fragalysis-2/maxwin/BulkDock/OUTPUTS/openbind_a71ev2a_c2_elabs_1LOUU54.sdf', '/opt/xchem-fragalysis-2/maxwin/BulkDock/OUTPUTS/openbind_a71ev2a_c2_elabs_1LSYIDY.sdf']

>  <name>  (24) 
P535456

>  <ref_pdb>  (24) 
A0554a

>  <subsites>  (24) 
None

>  <HIPPO Pose ID>  (24) 
535456

>  <ref_mols>  (24) 
A0554a

>  <HIPPO Compound ID>  (24) 
367569

>  <tags>  (24) 
openbind_a71ev2a_c2_elabs,syndirella_product,openbind_a71ev2a_c2_elabs_fragonly_scored_top80percent,openbind_a71ev2a_c2_elabs_scored,BulkDock Fragalysis export,openbind_a71ev2a_c2_elabs_scored_top80percent,openbind_a71ev2a_c2_elabs_activefrags_only_scored_5.2plus,syndirella_placed

>  <smina_score_min>  (24) 
-6.68

$$$$
P535494
     RDKit          3D

 18 19  0  0  0  0  0  0  0  0999 V2000
    6.4144   10.2232   25.8333 C   0  0  0  0  0  0  0  0  0  0  0  0
    7.4793   10.8988   25.0404 C   0  0  0  0  0  0  0  0  0  0  0  0
    8.3174   10.1714   24.1807 C   0  0  0  0  0  0  0  0  0  0  0  0
    9.2977   10.7738   23.3970 C   0  0  0  0  0  0  0  0  0  0  0  0
    9.5167   12.1410   23.4909 C   0  0  0  0  0  0  0  0  0  0  0  0
   10.4680   12.7629   22.6922 N   0  0  0  0  0  0  0  0  0  0  0  0
   11.2553   14.0952   22.9041 C   0  0  0  0  0  0  0  0  0  0  0  0
   11.2760   14.8275   23.8198 O   0  0  0  0  0  0  0  0  0  0  0  0
   12.0003   14.4223   21.5937 C   0  0  2  0  0  0  0  0  0  0  0  0
   12.9238   15.4031   21.7879 F   0  0  0  0  0  0  0  0  0  0  0  0
   10.7891   15.0120   20.4281 Cl  0  0  0  0  0  0  0  0  0  0  0  0
    8.6848   12.8637   24.3585 C   0  0  0  0  0  0  0  0  0  0  0  0
    8.6248   14.2132   24.6074 N   0  0  0  0  0  0  0  0  0  0  0  0
    7.6286   14.5150   25.4897 C   0  0  0  0  0  0  0  0  0  0  0  0
    7.0123   13.3369   25.8331 C   0  0  0  0  0  0  0  0  0  0  0  0
    5.9356   13.2391   26.7696 C   0  0  0  0  0  0  0  0  0  0  0  0
    5.0997   13.1246   27.5678 N   0  0  0  0  0  0  0  0  0  0  0  0
    7.6631   12.2874   25.1126 C   0  0  0  0  0  0  0  0  0  0  0  0
  1  2  1  0
  2  3  2  0
  3  4  1  0
  4  5  2  0
  5  6  1  0
  6  7  1  0
  7  8  2  0
  7  9  1  0
  9 10  1  1
  9 11  1  0
  5 12  1  0
 12 13  1  0
 13 14  1  0
 14 15  2  0
 15 16  1  0
 16 17  3  0
 15 18  1  0
 18  2  1  0
 18 12  2  0
M  END
>  <alias>  (25) 
None

>  <rmsd(smina/fragmenstein)>  (25) 
0.31

>  <smiles>  (25) 
Cc1ccc(NC(=O)[C@H](F)Cl)c2[nH]cc(C#N)c12

>  <gnina_score>  (25) 
5.335

>  <inspiration_score>  (25) 
None

>  <energy_score>  (25) 
-21.45815

>  <distance_score>  (25) 
1.064061

>  <gnina_score_min>  (25) 
5.352

>  <inchikey>  (25) 
GHKJLPVBDMGBST-NSHDSACASA-N

>  <exports>  (25) 
['/opt/xchem-fragalysis-2/maxwin/BulkDock/OUTPUTS/openbind_a71ev2a_c2_elabs_1LOUU54.sdf', '/opt/xchem-fragalysis-2/maxwin/BulkDock/OUTPUTS/openbind_a71ev2a_c2_elabs_1LSYIDY.sdf']

>  <name>  (25) 
P535494

>  <ref_pdb>  (25) 
A0554a

>  <subsites>  (25) 
None

>  <HIPPO Pose ID>  (25) 
535494

>  <ref_mols>  (25) 
A0554a

>  <HIPPO Compound ID>  (25) 
367613

>  <tags>  (25) 
openbind_a71ev2a_c2_elabs,syndirella_product,openbind_a71ev2a_c2_elabs_fragonly_scored_top80percent,openbind_a71ev2a_c2_elabs_scored,BulkDock Fragalysis export,openbind_a71ev2a_c2_elabs_scored_top80percent,openbind_a71ev2a_c2_elabs_activefrags_only_scored_5.2plus,syndirella_placed

>  <smina_score_min>  (25) 
-6.584

$$$$
P535513
     RDKit          3D

 18 19  0  0  0  0  0  0  0  0999 V2000
    6.4183   10.2147   25.8324 C   0  0  0  0  0  0  0  0  0  0  0  0
    7.4836   10.8959   25.0455 C   0  0  0  0  0  0  0  0  0  0  0  0
    8.3281   10.1743   24.1870 C   0  0  0  0  0  0  0  0  0  0  0  0
    9.2999   10.7852   23.3993 C   0  0  0  0  0  0  0  0  0  0  0  0
    9.5034   12.1554   23.4867 C   0  0  0  0  0  0  0  0  0  0  0  0
   10.4083   12.7947   22.6473 N   0  0  0  0  0  0  0  0  0  0  0  0
   11.1267   14.1580   22.7955 C   0  0  0  0  0  0  0  0  0  0  0  0
   11.1292   14.9184   23.6799 O   0  0  0  0  0  0  0  0  0  0  0  0
   11.8249   14.4864   21.4845 C   0  0  0  0  0  0  0  0  0  0  0  0
   10.8593   14.7076   20.3370 C   0  0  0  0  0  0  0  0  0  0  0  0
    9.7182   16.2624   20.4882 Br  0  0  0  0  0  0  0  0  0  0  0  0
    8.6758   12.8694   24.3666 C   0  0  0  0  0  0  0  0  0  0  0  0
    8.6156   14.2169   24.6281 N   0  0  0  0  0  0  0  0  0  0  0  0
    7.6192   14.5107   25.5127 C   0  0  0  0  0  0  0  0  0  0  0  0
    7.0063   13.3290   25.8490 C   0  0  0  0  0  0  0  0  0  0  0  0
    5.9310   13.2236   26.7861 C   0  0  0  0  0  0  0  0  0  0  0  0
    5.0942   13.1051   27.5828 N   0  0  0  0  0  0  0  0  0  0  0  0
    7.6610   12.2851   25.1234 C   0  0  0  0  0  0  0  0  0  0  0  0
  1  2  1  0
  2  3  2  0
  3  4  1  0
  4  5  2  0
  5  6  1  0
  6  7  1  0
  7  8  2  0
  7  9  1  0
  9 10  1  0
 10 11  1  0
  5 12  1  0
 12 13  1  0
 13 14  1  0
 14 15  2  0
 15 16  1  0
 16 17  3  0
 15 18  1  0
 18  2  1  0
 18 12  2  0
M  END
>  <alias>  (26) 
None

>  <rmsd(smina/fragmenstein)>  (26) 
0.477

>  <smiles>  (26) 
Cc1ccc(NC(=O)CCBr)c2[nH]cc(C#N)c12

>  <gnina_score>  (26) 
5.361

>  <inspiration_score>  (26) 
None

>  <energy_score>  (26) 
-19.920342

>  <distance_score>  (26) 
1.092628

>  <gnina_score_min>  (26) 
5.573

>  <inchikey>  (26) 
JRQIOPORTYCSGN-UHFFFAOYSA-N

>  <exports>  (26) 
['/opt/xchem-fragalysis-2/maxwin/BulkDock/OUTPUTS/openbind_a71ev2a_c2_elabs_1LOUU54.sdf', '/opt/xchem-fragalysis-2/maxwin/BulkDock/OUTPUTS/openbind_a71ev2a_c2_elabs_1LSYIDY.sdf']

>  <name>  (26) 
P535513

>  <ref_pdb>  (26) 
A0554a

>  <subsites>  (26) 
None

>  <HIPPO Pose ID>  (26) 
535513

>  <ref_mols>  (26) 
A0554a

>  <HIPPO Compound ID>  (26) 
367638

>  <tags>  (26) 
openbind_a71ev2a_c2_elabs,syndirella_product,openbind_a71ev2a_c2_elabs_fragonly_scored_top80percent,BulkDock Fragalysis export,openbind_a71ev2a_c2_elabs_scored,openbind_a71ev2a_c2_elabs_scored_top80percent,openbind_a71ev2a_c2_elabs_activefrags_only_scored_5.2plus,openbind_a71ev2a_c2_elabs_activefrags_only_scored_5.5plus,syndirella_placed

>  <smina_score_min>  (26) 
-5.863

$$$$
P535526
     RDKit          3D

 18 19  0  0  0  0  0  0  0  0999 V2000
    6.3734   10.2517   25.8895 C   0  0  0  0  0  0  0  0  0  0  0  0
    7.4447   10.9086   25.0879 C   0  0  0  0  0  0  0  0  0  0  0  0
    8.2740   10.1638   24.2344 C   0  0  0  0  0  0  0  0  0  0  0  0
    9.2642   10.7485   23.4487 C   0  0  0  0  0  0  0  0  0  0  0  0
    9.5010   12.1143   23.5335 C   0  0  0  0  0  0  0  0  0  0  0  0
   10.4616   12.7170   22.7311 N   0  0  0  0  0  0  0  0  0  0  0  0
   11.2654   14.0369   22.9333 C   0  0  0  0  0  0  0  0  0  0  0  0
   11.2956   14.7749   23.8421 O   0  0  0  0  0  0  0  0  0  0  0  0
   12.0041   14.3385   21.6412 C   0  0  0  0  0  0  0  0  0  0  0  0
   11.0581   14.9841   20.7350 C   0  0  0  0  0  0  0  0  0  0  0  0
   10.2663   15.4819   20.0502 N   0  0  0  0  0  0  0  0  0  0  0  0
    8.6689   12.8555   24.3837 C   0  0  0  0  0  0  0  0  0  0  0  0
    8.6097   14.2106   24.6011 N   0  0  0  0  0  0  0  0  0  0  0  0
    7.6188   14.5308   25.4831 C   0  0  0  0  0  0  0  0  0  0  0  0
    6.9988   13.3612   25.8486 C   0  0  0  0  0  0  0  0  0  0  0  0
    5.9234   13.2841   26.7883 C   0  0  0  0  0  0  0  0  0  0  0  0
    5.0895   13.1859   27.5909 N   0  0  0  0  0  0  0  0  0  0  0  0
    7.6410   12.2968   25.1428 C   0  0  0  0  0  0  0  0  0  0  0  0
  1  2  1  0
  2  3  2  0
  3  4  1  0
  4  5  2  0
  5  6  1  0
  6  7  1  0
  7  8  2  0
  7  9  1  0
  9 10  1  0
 10 11  3  0
  5 12  1  0
 12 13  1  0
 13 14  1  0
 14 15  2  0
 15 16  1  0
 16 17  3  0
 15 18  1  0
 18  2  1  0
 18 12  2  0
M  END
>  <alias>  (27) 
None

>  <rmsd(smina/fragmenstein)>  (27) 
0.39

>  <smiles>  (27) 
Cc1ccc(NC(=O)CC#N)c2[nH]cc(C#N)c12

>  <gnina_score>  (27) 
5.422

>  <inspiration_score>  (27) 
None

>  <energy_score>  (27) 
-16.89429

>  <distance_score>  (27) 
1.060213

>  <gnina_score_min>  (27) 
5.438

>  <inchikey>  (27) 
CEMKFOIYSHUYTH-UHFFFAOYSA-N

>  <exports>  (27) 
['/opt/xchem-fragalysis-2/maxwin/BulkDock/OUTPUTS/openbind_a71ev2a_c2_elabs_1LOUU54.sdf', '/opt/xchem-fragalysis-2/maxwin/BulkDock/OUTPUTS/openbind_a71ev2a_c2_elabs_1LSYIDY.sdf']

>  <name>  (27) 
P535526

>  <ref_pdb>  (27) 
A0554a

>  <subsites>  (27) 
None

>  <HIPPO Pose ID>  (27) 
535526

>  <ref_mols>  (27) 
A0554a

>  <HIPPO Compound ID>  (27) 
367660

>  <tags>  (27) 
openbind_a71ev2a_c2_elabs,syndirella_product,openbind_a71ev2a_c2_elabs_fragonly_scored_top80percent,openbind_a71ev2a_c2_elabs_scored,BulkDock Fragalysis export,openbind_a71ev2a_c2_elabs_scored_top80percent,openbind_a71ev2a_c2_elabs_activefrags_only_scored_5.2plus,syndirella_placed

>  <smina_score_min>  (27) 
-6.012

$$$$
P535550
     RDKit          3D

 19 20  0  0  0  0  0  0  0  0999 V2000
    6.4265   10.1536   25.8179 C   0  0  0  0  0  0  0  0  0  0  0  0
    7.4760   10.8480   25.0259 C   0  0  0  0  0  0  0  0  0  0  0  0
    8.3229   10.1457   24.1493 C   0  0  0  0  0  0  0  0  0  0  0  0
    9.2584   10.7713   23.3282 C   0  0  0  0  0  0  0  0  0  0  0  0
    9.4170   12.1408   23.4106 C   0  0  0  0  0  0  0  0  0  0  0  0
   10.2700   12.8590   22.5881 N   0  0  0  0  0  0  0  0  0  0  0  0
   11.0672   14.1467   22.8561 C   0  0  0  0  0  0  0  0  0  0  0  0
   11.1948   14.7676   23.8373 O   0  0  0  0  0  0  0  0  0  0  0  0
   11.6900   14.6950   21.5338 C   0  0  0  0  0  0  0  0  0  0  0  0
   12.2727   13.8922   20.4064 C   0  0  0  0  0  0  0  0  0  0  0  0
   12.8051   15.5905   21.9941 C   0  0  0  0  0  0  0  0  0  0  0  0
   10.1778   15.7228   20.7660 Br  0  0  0  0  0  0  0  0  0  0  0  0
    8.6011   12.8386   24.3224 C   0  0  0  0  0  0  0  0  0  0  0  0
    8.5121   14.1882   24.5782 N   0  0  0  0  0  0  0  0  0  0  0  0
    7.5419   14.4610   25.4979 C   0  0  0  0  0  0  0  0  0  0  0  0
    6.9690   13.2660   25.8548 C   0  0  0  0  0  0  0  0  0  0  0  0
    5.9250   13.1368   26.8236 C   0  0  0  0  0  0  0  0  0  0  0  0
    5.1138   12.9975   27.6432 N   0  0  0  0  0  0  0  0  0  0  0  0
    7.6251   12.2371   25.1092 C   0  0  0  0  0  0  0  0  0  0  0  0
  1  2  1  0
  2  3  2  0
  3  4  1  0
  4  5  2  0
  5  6  1  0
  6  7  1  0
  7  8  2  0
  7  9  1  0
  9 10  1  0
  9 11  1  0
  9 12  1  0
  5 13  1  0
 13 14  1  0
 14 15  1  0
 15 16  2  0
 16 17  1  0
 17 18  3  0
 16 19  1  0
 19  2  1  0
 19 13  2  0
M  END
>  <alias>  (28) 
None

>  <rmsd(smina/fragmenstein)>  (28) 
0.376

>  <smiles>  (28) 
Cc1ccc(NC(=O)C(C)(C)Br)c2[nH]cc(C#N)c12

>  <gnina_score>  (28) 
5.372

>  <inspiration_score>  (28) 
None

>  <energy_score>  (28) 
-4.657783

>  <distance_score>  (28) 
1.042782

>  <gnina_score_min>  (28) 
5.208

>  <inchikey>  (28) 
PHAKXILYVUBZEQ-UHFFFAOYSA-N

>  <exports>  (28) 
['/opt/xchem-fragalysis-2/maxwin/BulkDock/OUTPUTS/openbind_a71ev2a_c2_elabs_1LOUU54.sdf', '/opt/xchem-fragalysis-2/maxwin/BulkDock/OUTPUTS/openbind_a71ev2a_c2_elabs_1LSYIDY.sdf']

>  <name>  (28) 
P535550

>  <ref_pdb>  (28) 
A0554a

>  <subsites>  (28) 
None

>  <HIPPO Pose ID>  (28) 
535550

>  <ref_mols>  (28) 
A0554a

>  <HIPPO Compound ID>  (28) 
367693

>  <tags>  (28) 
openbind_a71ev2a_c2_elabs,syndirella_product,openbind_a71ev2a_c2_elabs_fragonly_scored_top80percent,openbind_a71ev2a_c2_elabs_scored,BulkDock Fragalysis export,openbind_a71ev2a_c2_elabs_scored_top80percent,openbind_a71ev2a_c2_elabs_activefrags_only_scored_5.2plus,syndirella_placed

>  <smina_score_min>  (28) 
-5.366

$$$$
P535560
     RDKit          3D

 19 20  0  0  0  0  0  0  0  0999 V2000
    9.9463   15.5920   20.3672 C   0  0  0  0  0  0  0  0  0  0  0  0
   10.9660   14.7251   20.3481 C   0  0  0  0  0  0  0  0  0  0  0  0
   11.7207   14.1705   21.5189 C   0  0  1  0  0  0  0  0  0  0  0  0
   13.0087   15.3233   21.8688 Cl  0  0  0  0  0  0  0  0  0  0  0  0
   10.9085   13.9761   22.8235 C   0  0  0  0  0  0  0  0  0  0  0  0
   10.8314   14.8182   23.6310 O   0  0  0  0  0  0  0  0  0  0  0  0
   10.2183   12.5862   22.7505 N   0  0  0  0  0  0  0  0  0  0  0  0
    9.2584   12.0116   23.5740 C   0  0  0  0  0  0  0  0  0  0  0  0
    9.0440   10.6397   23.5835 C   0  0  0  0  0  0  0  0  0  0  0  0
    8.0708   10.0978   24.4235 C   0  0  0  0  0  0  0  0  0  0  0  0
    7.2533   10.8889   25.2506 C   0  0  0  0  0  0  0  0  0  0  0  0
    6.2048   10.2796   26.1205 C   0  0  0  0  0  0  0  0  0  0  0  0
    7.4457   12.2782   25.2274 C   0  0  0  0  0  0  0  0  0  0  0  0
    6.8259   13.3751   25.9036 C   0  0  0  0  0  0  0  0  0  0  0  0
    5.7832   13.3461   26.8819 C   0  0  0  0  0  0  0  0  0  0  0  0
    4.9715   13.2883   27.7107 N   0  0  0  0  0  0  0  0  0  0  0  0
    7.4320   14.5259   25.4664 C   0  0  0  0  0  0  0  0  0  0  0  0
    8.3915   14.1646   24.5674 N   0  0  0  0  0  0  0  0  0  0  0  0
    8.4429   12.7986   24.4050 C   0  0  0  0  0  0  0  0  0  0  0  0
  1  2  2  0
  2  3  1  0
  3  4  1  1
  3  5  1  0
  5  6  2  0
  5  7  1  0
  7  8  1  0
  8  9  2  0
  9 10  1  0
 10 11  2  0
 11 12  1  0
 11 13  1  0
 13 14  1  0
 14 15  1  0
 15 16  3  0
 14 17  2  0
 17 18  1  0
 18 19  1  0
 19  8  1  0
 19 13  2  0
M  END
>  <alias>  (29) 
None

>  <rmsd(smina/fragmenstein)>  (29) 
0.398

>  <smiles>  (29) 
C=C[C@@H](Cl)C(=O)Nc1ccc(C)c2c(C#N)c[nH]c12

>  <gnina_score>  (29) 
5.399

>  <inspiration_score>  (29) 
None

>  <energy_score>  (29) 
-20.763773

>  <distance_score>  (29) 
1.094056

>  <gnina_score_min>  (29) 
5.507

>  <inchikey>  (29) 
YJIJBKVNNIKBJS-SNVBAGLBSA-N

>  <exports>  (29) 
['/opt/xchem-fragalysis-2/maxwin/BulkDock/OUTPUTS/openbind_a71ev2a_c2_elabs_1LOUU54.sdf', '/opt/xchem-fragalysis-2/maxwin/BulkDock/OUTPUTS/openbind_a71ev2a_c2_elabs_1LSYIDY.sdf']

>  <name>  (29) 
P535560

>  <ref_pdb>  (29) 
A0554a

>  <subsites>  (29) 
None

>  <HIPPO Pose ID>  (29) 
535560

>  <ref_mols>  (29) 
A0554a

>  <HIPPO Compound ID>  (29) 
367715

>  <tags>  (29) 
openbind_a71ev2a_c2_elabs,syndirella_product,openbind_a71ev2a_c2_elabs_fragonly_scored_top80percent,BulkDock Fragalysis export,openbind_a71ev2a_c2_elabs_scored,openbind_a71ev2a_c2_elabs_scored_top80percent,openbind_a71ev2a_c2_elabs_activefrags_only_scored_5.2plus,openbind_a71ev2a_c2_elabs_activefrags_only_scored_5.5plus,syndirella_placed

>  <smina_score_min>  (29) 
-6.059

$$$$
P535563
     RDKit          3D

 19 20  0  0  0  0  0  0  0  0999 V2000
    5.9361   10.2940   26.4546 C   0  0  0  0  0  0  0  0  0  0  0  0
    6.9455   10.8795   25.5188 C   0  0  0  0  0  0  0  0  0  0  0  0
    7.7296   10.0632   24.6762 C   0  0  0  0  0  0  0  0  0  0  0  0
    8.7607   10.5722   23.8877 C   0  0  0  0  0  0  0  0  0  0  0  0
    9.0681   11.9230   23.9653 C   0  0  0  0  0  0  0  0  0  0  0  0
   10.1904   12.4343   23.3427 N   0  0  0  0  0  0  0  0  0  0  0  0
   11.0427   13.6906   23.6732 C   0  0  0  0  0  0  0  0  0  0  0  0
   10.9715   14.4401   24.5670 O   0  0  0  0  0  0  0  0  0  0  0  0
   11.9945   13.8899   22.5351 C   0  0  0  0  0  0  0  0  0  0  0  0
   11.2635   14.5679   21.3935 C   0  0  0  0  0  0  0  0  0  0  0  0
   12.1717   14.6029   20.1984 C   0  0  0  0  0  0  0  0  0  0  0  0
   11.5476   15.2410   19.1848 F   0  0  0  0  0  0  0  0  0  0  0  0
    8.2341   12.7477   24.7282 C   0  0  0  0  0  0  0  0  0  0  0  0
    8.2588   14.1129   24.9062 N   0  0  0  0  0  0  0  0  0  0  0  0
    7.2589   14.5166   25.7396 C   0  0  0  0  0  0  0  0  0  0  0  0
    6.5719   13.3941   26.1325 C   0  0  0  0  0  0  0  0  0  0  0  0
    5.4709   13.4231   27.0448 C   0  0  0  0  0  0  0  0  0  0  0  0
    4.6014   13.4195   27.8151 N   0  0  0  0  0  0  0  0  0  0  0  0
    7.1727   12.2673   25.4891 C   0  0  0  0  0  0  0  0  0  0  0  0
  1  2  1  0
  2  3  2  0
  3  4  1  0
  4  5  2  0
  5  6  1  0
  6  7  1  0
  7  8  2  0
  7  9  1  0
  9 10  1  0
 10 11  1  0
 11 12  1  0
  5 13  1  0
 13 14  1  0
 14 15  1  0
 15 16  2  0
 16 17  1  0
 17 18  3  0
 16 19  1  0
 19  2  1  0
 19 13  2  0
M  END
>  <alias>  (30) 
None

>  <rmsd(smina/fragmenstein)>  (30) 
1.197

>  <smiles>  (30) 
Cc1ccc(NC(=O)CCCF)c2[nH]cc(C#N)c12

>  <gnina_score>  (30) 
5.065

>  <inspiration_score>  (30) 
None

>  <energy_score>  (30) 
-15.272095

>  <distance_score>  (30) 
1.094235

>  <gnina_score_min>  (30) 
5.373

>  <inchikey>  (30) 
FIKGZNPKNKQLLF-UHFFFAOYSA-N

>  <exports>  (30) 
['/opt/xchem-fragalysis-2/maxwin/BulkDock/OUTPUTS/openbind_a71ev2a_c2_elabs_1LOUU54.sdf', '/opt/xchem-fragalysis-2/maxwin/BulkDock/OUTPUTS/openbind_a71ev2a_c2_elabs_1LSYIDY.sdf']

>  <name>  (30) 
P535563

>  <ref_pdb>  (30) 
A0554a

>  <subsites>  (30) 
None

>  <HIPPO Pose ID>  (30) 
535563

>  <ref_mols>  (30) 
A0554a

>  <HIPPO Compound ID>  (30) 
367718

>  <tags>  (30) 
openbind_a71ev2a_c2_elabs,syndirella_product,openbind_a71ev2a_c2_elabs_fragonly_scored_top80percent,openbind_a71ev2a_c2_elabs_scored,BulkDock Fragalysis export,openbind_a71ev2a_c2_elabs_scored_top80percent,openbind_a71ev2a_c2_elabs_activefrags_only_scored_5.2plus,syndirella_placed

>  <smina_score_min>  (30) 
-6.613

$$$$
P535592
     RDKit          3D

 19 20  0  0  0  0  0  0  0  0999 V2000
    3.5602   14.1449   26.1233 C   0  0  0  0  0  0  0  0  0  0  0  0
    4.4446   14.1734   27.2944 N   0  0  0  0  0  0  0  0  0  0  0  0
    5.5275   12.8922   27.4429 S   0  0  0  0  0  0  0  0  0  0  0  0
    4.8056   11.6612   27.2174 O   0  0  0  0  0  0  0  0  0  0  0  0
    6.2848   13.1045   28.6572 O   0  0  0  0  0  0  0  0  0  0  0  0
    6.7058   13.0199   26.1934 C   0  0  0  0  0  0  0  0  0  0  0  0
    7.3074   14.2004   25.8136 C   0  0  0  0  0  0  0  0  0  0  0  0
    8.2551   13.8991   24.8801 N   0  0  0  0  0  0  0  0  0  0  0  0
    8.2841   12.5439   24.6300 C   0  0  0  0  0  0  0  0  0  0  0  0
    9.0974   11.7919   23.7645 C   0  0  0  0  0  0  0  0  0  0  0  0
   10.0804   12.3679   22.9776 N   0  0  0  0  0  0  0  0  0  0  0  0
   10.7937   13.7419   23.1004 C   0  0  0  0  0  0  0  0  0  0  0  0
   10.7159   14.5633   23.9270 O   0  0  0  0  0  0  0  0  0  0  0  0
   11.5915   13.8904   21.8184 C   0  0  0  0  0  0  0  0  0  0  0  0
   12.5751   15.3710   21.7846 S   0  0  0  0  0  0  0  0  0  0  0  0
    8.8704   10.4261   23.6863 C   0  0  0  0  0  0  0  0  0  0  0  0
    7.8857    9.8559   24.4800 C   0  0  0  0  0  0  0  0  0  0  0  0
    7.0954   10.5931   25.3531 C   0  0  0  0  0  0  0  0  0  0  0  0
    7.2853   11.9738   25.4277 C   0  0  0  0  0  0  0  0  0  0  0  0
  1  2  1  0
  2  3  1  0
  3  4  2  0
  3  5  2  0
  3  6  1  0
  6  7  2  0
  7  8  1  0
  8  9  1  0
  9 10  2  0
 10 11  1  0
 11 12  1  0
 12 13  2  0
 12 14  1  0
 14 15  1  0
 10 16  1  0
 16 17  2  0
 17 18  1  0
 18 19  2  0
 19  6  1  0
 19  9  1  0
M  END
>  <alias>  (31) 
None

>  <rmsd(smina/fragmenstein)>  (31) 
0.516

>  <smiles>  (31) 
CNS(=O)(=O)c1c[nH]c2c(NC(=O)CS)cccc12

>  <gnina_score>  (31) 
5.189

>  <inspiration_score>  (31) 
None

>  <energy_score>  (31) 
-43.28672

>  <distance_score>  (31) 
0.928203

>  <gnina_score_min>  (31) 
5.238

>  <inchikey>  (31) 
VKZHTASQBCWEDF-UHFFFAOYSA-N

>  <exports>  (31) 
['/opt/xchem-fragalysis-2/maxwin/BulkDock/OUTPUTS/openbind_a71ev2a_c2_elabs_1LOUU54.sdf', '/opt/xchem-fragalysis-2/maxwin/BulkDock/OUTPUTS/openbind_a71ev2a_c2_elabs_1LSYIDY.sdf']

>  <name>  (31) 
P535592

>  <ref_pdb>  (31) 
A0554a

>  <subsites>  (31) 
None

>  <HIPPO Pose ID>  (31) 
535592

>  <ref_mols>  (31) 
A0554a

>  <HIPPO Compound ID>  (31) 
367763

>  <tags>  (31) 
openbind_a71ev2a_c2_elabs,syndirella_product,openbind_a71ev2a_c2_elabs_fragonly_scored_top80percent,openbind_a71ev2a_c2_elabs_scored,BulkDock Fragalysis export,openbind_a71ev2a_c2_elabs_scored_top80percent,openbind_a71ev2a_c2_elabs_activefrags_only_scored_5.2plus,syndirella_placed

>  <smina_score_min>  (31) 
-5.028

$$$$
P535597
     RDKit          3D

 19 20  0  0  0  0  0  0  0  0999 V2000
    3.8251   14.0927   25.9411 C   0  0  0  0  0  0  0  0  0  0  0  0
    4.7025   14.0597   27.1173 N   0  0  0  0  0  0  0  0  0  0  0  0
    5.8229   12.8054   27.1837 S   0  0  0  0  0  0  0  0  0  0  0  0
    6.5755   12.9645   28.4095 O   0  0  0  0  0  0  0  0  0  0  0  0
    5.1446   11.5669   26.8822 O   0  0  0  0  0  0  0  0  0  0  0  0
    6.9962   13.0467   25.9473 C   0  0  0  0  0  0  0  0  0  0  0  0
    7.5351   14.2733   25.6201 C   0  0  0  0  0  0  0  0  0  0  0  0
    8.5084   14.0610   24.6887 N   0  0  0  0  0  0  0  0  0  0  0  0
    8.6204   12.7231   24.3913 C   0  0  0  0  0  0  0  0  0  0  0  0
    9.4800   12.0684   23.4958 C   0  0  0  0  0  0  0  0  0  0  0  0
   10.4264   12.7178   22.7143 N   0  0  0  0  0  0  0  0  0  0  0  0
   11.1421   14.0810   22.9217 C   0  0  0  0  0  0  0  0  0  0  0  0
   11.1018   14.8282   23.8193 O   0  0  0  0  0  0  0  0  0  0  0  0
   11.9029   14.3887   21.6174 C   0  0  0  0  0  0  0  0  0  0  0  0
   11.0474   14.4845   20.4867 O   0  0  0  0  0  0  0  0  0  0  0  0
    9.3201   10.6993   23.3560 C   0  0  0  0  0  0  0  0  0  0  0  0
    8.3727   10.0341   24.1176 C   0  0  0  0  0  0  0  0  0  0  0  0
    7.5255   10.6772   25.0117 C   0  0  0  0  0  0  0  0  0  0  0  0
    7.6405   12.0635   25.1474 C   0  0  0  0  0  0  0  0  0  0  0  0
  1  2  1  0
  2  3  1  0
  3  4  2  0
  3  5  2  0
  3  6  1  0
  6  7  2  0
  7  8  1  0
  8  9  1  0
  9 10  2  0
 10 11  1  0
 11 12  1  0
 12 13  2  0
 12 14  1  0
 14 15  1  0
 10 16  1  0
 16 17  2  0
 17 18  1  0
 18 19  2  0
 19  6  1  0
 19  9  1  0
M  END
>  <alias>  (32) 
None

>  <rmsd(smina/fragmenstein)>  (32) 
0.343

>  <smiles>  (32) 
CNS(=O)(=O)c1c[nH]c2c(NC(=O)CO)cccc12

>  <gnina_score>  (32) 
5.19

>  <inspiration_score>  (32) 
None

>  <energy_score>  (32) 
-39.649953

>  <distance_score>  (32) 
0.916841

>  <gnina_score_min>  (32) 
5.261

>  <inchikey>  (32) 
DTGAMHOGYFMWJR-UHFFFAOYSA-N

>  <exports>  (32) 
['/opt/xchem-fragalysis-2/maxwin/BulkDock/OUTPUTS/openbind_a71ev2a_c2_elabs_1LOUU54.sdf', '/opt/xchem-fragalysis-2/maxwin/BulkDock/OUTPUTS/openbind_a71ev2a_c2_elabs_1LSYIDY.sdf']

>  <name>  (32) 
P535597

>  <ref_pdb>  (32) 
A0554a

>  <subsites>  (32) 
None

>  <HIPPO Pose ID>  (32) 
535597

>  <ref_mols>  (32) 
A0554a

>  <HIPPO Compound ID>  (32) 
367771

>  <tags>  (32) 
openbind_a71ev2a_c2_elabs,syndirella_product,openbind_a71ev2a_c2_elabs_fragonly_scored_top80percent,openbind_a71ev2a_c2_elabs_scored,BulkDock Fragalysis export,openbind_a71ev2a_c2_elabs_scored_top80percent,openbind_a71ev2a_c2_elabs_activefrags_only_scored_5.2plus,syndirella_placed

>  <smina_score_min>  (32) 
-6.061

$$$$
P535601
     RDKit          3D

 19 20  0  0  0  0  0  0  0  0999 V2000
    5.4618   12.5551   29.6202 C   0  0  0  0  0  0  0  0  0  0  0  0
    6.2698   12.9728   28.4632 N   0  0  0  0  0  0  0  0  0  0  0  0
    5.7210   12.3415   26.9801 S   0  0  0  0  0  0  0  0  0  0  0  0
    5.7099   10.9015   27.0967 O   0  0  0  0  0  0  0  0  0  0  0  0
    4.5488   13.1064   26.6269 O   0  0  0  0  0  0  0  0  0  0  0  0
    6.9232   12.7482   25.8125 C   0  0  0  0  0  0  0  0  0  0  0  0
    7.3500   14.0356   25.5516 C   0  0  0  0  0  0  0  0  0  0  0  0
    8.3726   13.9623   24.6474 N   0  0  0  0  0  0  0  0  0  0  0  0
    8.6196   12.6555   24.2981 C   0  0  0  0  0  0  0  0  0  0  0  0
    9.5377   12.1240   23.3811 C   0  0  0  0  0  0  0  0  0  0  0  0
   10.4360   12.8662   22.6360 N   0  0  0  0  0  0  0  0  0  0  0  0
   11.1552   14.1976   22.9631 C   0  0  0  0  0  0  0  0  0  0  0  0
   11.1602   14.8334   23.9415 O   0  0  0  0  0  0  0  0  0  0  0  0
   11.8657   14.6418   21.6871 C   0  0  0  0  0  0  0  0  0  0  0  0
   10.6379   15.1432   20.5006 Cl  0  0  0  0  0  0  0  0  0  0  0  0
    9.5294   10.7574   23.1891 C   0  0  0  0  0  0  0  0  0  0  0  0
    8.6976    9.9585   23.9417 C   0  0  0  0  0  0  0  0  0  0  0  0
    7.7567   10.4739   24.8273 C   0  0  0  0  0  0  0  0  0  0  0  0
    7.7010   11.8648   25.0076 C   0  0  0  0  0  0  0  0  0  0  0  0
  1  2  1  0
  2  3  1  0
  3  4  2  0
  3  5  2  0
  3  6  1  0
  6  7  2  0
  7  8  1  0
  8  9  1  0
  9 10  2  0
 10 11  1  0
 11 12  1  0
 12 13  2  0
 12 14  1  0
 14 15  1  0
 10 16  1  0
 16 17  2  0
 17 18  1  0
 18 19  2  0
 19  6  1  0
 19  9  1  0
M  END
>  <alias>  (33) 
None

>  <rmsd(smina/fragmenstein)>  (33) 
0.39

>  <smiles>  (33) 
CNS(=O)(=O)c1c[nH]c2c(NC(=O)CCl)cccc12

>  <gnina_score>  (33) 
5.433

>  <inspiration_score>  (33) 
None

>  <energy_score>  (33) 
-29.903412

>  <distance_score>  (33) 
0.797114

>  <gnina_score_min>  (33) 
5.446

>  <inchikey>  (33) 
ZSFLSKDTNHEXST-UHFFFAOYSA-N

>  <exports>  (33) 
['/opt/xchem-fragalysis-2/maxwin/BulkDock/OUTPUTS/openbind_a71ev2a_c2_elabs_1LOUU54.sdf', '/opt/xchem-fragalysis-2/maxwin/BulkDock/OUTPUTS/openbind_a71ev2a_c2_elabs_1LSYIDY.sdf']

>  <name>  (33) 
P535601

>  <ref_pdb>  (33) 
A0554a

>  <subsites>  (33) 
None

>  <HIPPO Pose ID>  (33) 
535601

>  <ref_mols>  (33) 
A0554a

>  <HIPPO Compound ID>  (33) 
367778

>  <tags>  (33) 
openbind_a71ev2a_c2_elabs,syndirella_product,openbind_a71ev2a_c2_elabs_fragonly_scored_top80percent,openbind_a71ev2a_c2_elabs_scored,BulkDock Fragalysis export,openbind_a71ev2a_c2_elabs_scored_top80percent,openbind_a71ev2a_c2_elabs_activefrags_only_scored_5.2plus,syndirella_placed

>  <smina_score_min>  (33) 
-6.266

$$$$
P535609
     RDKit          3D

 19 20  0  0  0  0  0  0  0  0999 V2000
   12.3429   14.4367   20.9354 C   0  0  0  0  0  0  0  0  0  0  0  0
   11.7279   14.1842   21.9336 C   0  0  0  0  0  0  0  0  0  0  0  0
   10.9149   13.8692   23.0829 C   0  0  0  0  0  0  0  0  0  0  0  0
   10.8327   14.6632   23.9270 O   0  0  0  0  0  0  0  0  0  0  0  0
   10.2108   12.5220   22.9168 N   0  0  0  0  0  0  0  0  0  0  0  0
    9.2165   11.9233   23.6794 C   0  0  0  0  0  0  0  0  0  0  0  0
    9.0196   10.5517   23.5900 C   0  0  0  0  0  0  0  0  0  0  0  0
    8.0422    9.9466   24.3696 C   0  0  0  0  0  0  0  0  0  0  0  0
    7.2175   10.6552   25.2350 C   0  0  0  0  0  0  0  0  0  0  0  0
    7.3728   12.0405   25.3196 C   0  0  0  0  0  0  0  0  0  0  0  0
    6.7509   13.0639   26.0884 C   0  0  0  0  0  0  0  0  0  0  0  0
    5.5505   12.8440   27.3097 S   0  0  0  0  0  0  0  0  0  0  0  0
    4.2912   12.9105   26.6095 O   0  0  0  0  0  0  0  0  0  0  0  0
    5.9745   11.6700   28.0413 O   0  0  0  0  0  0  0  0  0  0  0  0
    5.5912   14.1623   28.3569 N   0  0  0  0  0  0  0  0  0  0  0  0
    6.7770   14.3429   29.1881 C   0  0  0  0  0  0  0  0  0  0  0  0
    7.3066   14.2659   25.7069 C   0  0  0  0  0  0  0  0  0  0  0  0
    8.2827   13.9956   24.7884 N   0  0  0  0  0  0  0  0  0  0  0  0
    8.3675   12.6433   24.5402 C   0  0  0  0  0  0  0  0  0  0  0  0
  1  2  3  0
  2  3  1  0
  3  4  2  0
  3  5  1  0
  5  6  1  0
  6  7  2  0
  7  8  1  0
  8  9  2  0
  9 10  1  0
 10 11  1  0
 11 12  1  0
 12 13  2  0
 12 14  2  0
 12 15  1  0
 15 16  1  0
 11 17  2  0
 17 18  1  0
 18 19  1  0
 19  6  1  0
 19 10  2  0
M  END
>  <alias>  (34) 
None

>  <rmsd(smina/fragmenstein)>  (34) 
0.696

>  <smiles>  (34) 
C#CC(=O)Nc1cccc2c(S(=O)(=O)NC)c[nH]c12

>  <gnina_score>  (34) 
4.934

>  <inspiration_score>  (34) 
None

>  <energy_score>  (34) 
-37.303468

>  <distance_score>  (34) 
0.896761

>  <gnina_score_min>  (34) 
5.209

>  <inchikey>  (34) 
IGEGKBIEIQTGEI-UHFFFAOYSA-N

>  <exports>  (34) 
['/opt/xchem-fragalysis-2/maxwin/BulkDock/OUTPUTS/openbind_a71ev2a_c2_elabs_1LOUU54.sdf', '/opt/xchem-fragalysis-2/maxwin/BulkDock/OUTPUTS/openbind_a71ev2a_c2_elabs_1LSYIDY.sdf']

>  <name>  (34) 
P535609

>  <ref_pdb>  (34) 
A0554a

>  <subsites>  (34) 
None

>  <HIPPO Pose ID>  (34) 
535609

>  <ref_mols>  (34) 
A0554a

>  <HIPPO Compound ID>  (34) 
367785

>  <tags>  (34) 
openbind_a71ev2a_c2_elabs,syndirella_product,openbind_a71ev2a_c2_elabs_fragonly_scored_top80percent,openbind_a71ev2a_c2_elabs_scored,BulkDock Fragalysis export,openbind_a71ev2a_c2_elabs_scored_top80percent,openbind_a71ev2a_c2_elabs_activefrags_only_scored_5.2plus,syndirella_placed

>  <smina_score_min>  (34) 
-6.352

$$$$
P535611
     RDKit          3D

 19 20  0  0  0  0  0  0  0  0999 V2000
   11.1315   14.9494   20.7189 C   0  0  0  0  0  0  0  0  0  0  0  0
   12.0384   14.3436   21.7760 C   0  0  0  0  0  0  0  0  0  0  0  0
   11.2386   14.0405   23.0299 C   0  0  0  0  0  0  0  0  0  0  0  0
   11.1701   14.7894   23.9223 O   0  0  0  0  0  0  0  0  0  0  0  0
   10.5247   12.6850   22.8003 N   0  0  0  0  0  0  0  0  0  0  0  0
    9.5468   12.0433   23.5477 C   0  0  0  0  0  0  0  0  0  0  0  0
    9.3154   10.6940   23.3385 C   0  0  0  0  0  0  0  0  0  0  0  0
    8.2940   10.0566   24.0237 C   0  0  0  0  0  0  0  0  0  0  0  0
    7.4376   10.7176   24.8964 C   0  0  0  0  0  0  0  0  0  0  0  0
    7.6142   12.0919   25.0858 C   0  0  0  0  0  0  0  0  0  0  0  0
    6.9099   13.1090   25.7910 C   0  0  0  0  0  0  0  0  0  0  0  0
    5.4087   12.9671   26.6323 S   0  0  0  0  0  0  0  0  0  0  0  0
    5.4760   13.9699   27.6720 O   0  0  0  0  0  0  0  0  0  0  0  0
    5.2811   11.5613   26.9475 O   0  0  0  0  0  0  0  0  0  0  0  0
    4.1899   13.3748   25.5367 N   0  0  0  0  0  0  0  0  0  0  0  0
    4.0762   14.7938   25.1753 C   0  0  0  0  0  0  0  0  0  0  0  0
    7.5982   14.2911   25.6190 C   0  0  0  0  0  0  0  0  0  0  0  0
    8.6740   14.0312   24.8240 N   0  0  0  0  0  0  0  0  0  0  0  0
    8.6942   12.7104   24.4415 C   0  0  0  0  0  0  0  0  0  0  0  0
  1  2  1  0
  2  3  1  0
  3  4  2  0
  3  5  1  0
  5  6  1  0
  6  7  2  0
  7  8  1  0
  8  9  2  0
  9 10  1  0
 10 11  1  0
 11 12  1  0
 12 13  2  0
 12 14  2  0
 12 15  1  0
 15 16  1  0
 11 17  2  0
 17 18  1  0
 18 19  1  0
 19  6  1  0
 19 10  2  0
M  END
>  <alias>  (35) 
None

>  <rmsd(smina/fragmenstein)>  (35) 
0.364

>  <smiles>  (35) 
CCC(=O)Nc1cccc2c(S(=O)(=O)NC)c[nH]c12

>  <gnina_score>  (35) 
5.339

>  <inspiration_score>  (35) 
None

>  <energy_score>  (35) 
-41.033207

>  <distance_score>  (35) 
0.901835

>  <gnina_score_min>  (35) 
5.419

>  <inchikey>  (35) 
RICWEDOPWHDCIZ-UHFFFAOYSA-N

>  <exports>  (35) 
['/opt/xchem-fragalysis-2/maxwin/BulkDock/OUTPUTS/openbind_a71ev2a_c2_elabs_1LOUU54.sdf', '/opt/xchem-fragalysis-2/maxwin/BulkDock/OUTPUTS/openbind_a71ev2a_c2_elabs_1LSYIDY.sdf']

>  <name>  (35) 
P535611

>  <ref_pdb>  (35) 
A0554a

>  <subsites>  (35) 
None

>  <HIPPO Pose ID>  (35) 
535611

>  <ref_mols>  (35) 
A0554a

>  <HIPPO Compound ID>  (35) 
367787

>  <tags>  (35) 
openbind_a71ev2a_c2_elabs,syndirella_product,openbind_a71ev2a_c2_elabs_fragonly_scored_top80percent,openbind_a71ev2a_c2_elabs_scored,BulkDock Fragalysis export,openbind_a71ev2a_c2_elabs_scored_top80percent,openbind_a71ev2a_c2_elabs_activefrags_only_scored_5.2plus,syndirella_placed

>  <smina_score_min>  (35) 
-6.461

$$$$
P535612
     RDKit          3D

 19 20  0  0  0  0  0  0  0  0999 V2000
    6.5786   10.0563   25.6221 C   0  0  0  0  0  0  0  0  0  0  0  0
    7.6395   10.8218   24.9218 C   0  0  0  0  0  0  0  0  0  0  0  0
    8.5162   10.2018   24.0162 C   0  0  0  0  0  0  0  0  0  0  0  0
    9.4386   10.9172   23.2623 C   0  0  0  0  0  0  0  0  0  0  0  0
    9.5671   12.2823   23.4457 C   0  0  0  0  0  0  0  0  0  0  0  0
   10.2461   13.0826   22.5413 N   0  0  0  0  0  0  0  0  0  0  0  0
   10.9727   14.4306   22.7430 C   0  0  0  0  0  0  0  0  0  0  0  0
   11.1800   15.0392   23.7163 O   0  0  0  0  0  0  0  0  0  0  0  0
   11.3498   15.0092   21.3723 C   0  0  1  0  0  0  0  0  0  0  0  0
   12.3437   14.1788   20.6059 C   0  0  0  0  0  0  0  0  0  0  0  0
   10.0193   15.3133   20.6682 C   0  0  0  0  0  0  0  0  0  0  0  0
   10.1684   16.0741   18.8904 Br  0  0  0  0  0  0  0  0  0  0  0  0
    8.7368   12.8880   24.4050 C   0  0  0  0  0  0  0  0  0  0  0  0
    8.6078   14.2091   24.7586 N   0  0  0  0  0  0  0  0  0  0  0  0
    7.5999   14.3947   25.6579 C   0  0  0  0  0  0  0  0  0  0  0  0
    7.0467   13.1631   25.9102 C   0  0  0  0  0  0  0  0  0  0  0  0
    5.9732   12.9413   26.8295 C   0  0  0  0  0  0  0  0  0  0  0  0
    5.1402   12.7306   27.6106 N   0  0  0  0  0  0  0  0  0  0  0  0
    7.7559   12.2050   25.1174 C   0  0  0  0  0  0  0  0  0  0  0  0
  1  2  1  0
  2  3  2  0
  3  4  1  0
  4  5  2  0
  5  6  1  0
  6  7  1  0
  7  8  2  0
  7  9  1  0
  9 10  1  6
  9 11  1  0
 11 12  1  0
  5 13  1  0
 13 14  1  0
 14 15  1  0
 15 16  2  0
 16 17  1  0
 17 18  3  0
 16 19  1  0
 19  2  1  0
 19 13  2  0
M  END
>  <alias>  (36) 
None

>  <rmsd(smina/fragmenstein)>  (36) 
0.903

>  <smiles>  (36) 
Cc1ccc(NC(=O)[C@@H](C)CBr)c2[nH]cc(C#N)c12

>  <gnina_score>  (36) 
5.341

>  <inspiration_score>  (36) 
None

>  <energy_score>  (36) 
-13.225162

>  <distance_score>  (36) 
1.127015

>  <gnina_score_min>  (36) 
5.49

>  <inchikey>  (36) 
GOTMAGDZBCUEPB-VIFPVBQESA-N

>  <exports>  (36) 
['/opt/xchem-fragalysis-2/maxwin/BulkDock/OUTPUTS/openbind_a71ev2a_c2_elabs_1LOUU54.sdf', '/opt/xchem-fragalysis-2/maxwin/BulkDock/OUTPUTS/openbind_a71ev2a_c2_elabs_1LSYIDY.sdf']

>  <name>  (36) 
P535612

>  <ref_pdb>  (36) 
A0554a

>  <subsites>  (36) 
None

>  <HIPPO Pose ID>  (36) 
535612

>  <ref_mols>  (36) 
A0554a

>  <HIPPO Compound ID>  (36) 
367788

>  <tags>  (36) 
openbind_a71ev2a_c2_elabs,syndirella_product,openbind_a71ev2a_c2_elabs_fragonly_scored_top80percent,openbind_a71ev2a_c2_elabs_scored,BulkDock Fragalysis export,openbind_a71ev2a_c2_elabs_scored_top80percent,openbind_a71ev2a_c2_elabs_activefrags_only_scored_5.2plus,syndirella_placed

>  <smina_score_min>  (36) 
-6.468

$$$$
P535640
     RDKit          3D

 20 21  0  0  0  0  0  0  0  0999 V2000
    4.1866   14.3402   26.8224 C   0  0  0  0  0  0  0  0  0  0  0  0
    4.2919   12.8820   26.9309 N   0  0  0  0  0  0  0  0  0  0  0  0
    5.8237   12.2185   27.1617 S   0  0  0  0  0  0  0  0  0  0  0  0
    6.3882   12.8396   28.3422 O   0  0  0  0  0  0  0  0  0  0  0  0
    5.6703   10.7832   27.0976 O   0  0  0  0  0  0  0  0  0  0  0  0
    6.9179   12.6600   25.9025 C   0  0  0  0  0  0  0  0  0  0  0  0
    7.3194   13.9589   25.6556 C   0  0  0  0  0  0  0  0  0  0  0  0
    8.2811   13.9256   24.6908 N   0  0  0  0  0  0  0  0  0  0  0  0
    8.5426   12.6318   24.3082 C   0  0  0  0  0  0  0  0  0  0  0  0
    9.4429   12.1479   23.3455 C   0  0  0  0  0  0  0  0  0  0  0  0
   10.2298   12.9855   22.5775 N   0  0  0  0  0  0  0  0  0  0  0  0
   10.9392   14.3031   22.9409 C   0  0  0  0  0  0  0  0  0  0  0  0
   11.0363   14.8515   23.9658 O   0  0  0  0  0  0  0  0  0  0  0  0
   11.4851   14.9511   21.6373 C   0  0  2  0  0  0  0  0  0  0  0  0
   12.3161   14.1262   20.7005 C   0  0  0  0  0  0  0  0  0  0  0  0
   12.2870   16.0644   21.9970 O   0  0  0  0  0  0  0  0  0  0  0  0
    9.5040   10.7873   23.1476 C   0  0  0  0  0  0  0  0  0  0  0  0
    8.7288    9.9492   23.9219 C   0  0  0  0  0  0  0  0  0  0  0  0
    7.7820   10.4203   24.8347 C   0  0  0  0  0  0  0  0  0  0  0  0
    7.6787   11.8061   25.0425 C   0  0  0  0  0  0  0  0  0  0  0  0
  1  2  1  0
  2  3  1  0
  3  4  2  0
  3  5  2  0
  3  6  1  0
  6  7  2  0
  7  8  1  0
  8  9  1  0
  9 10  2  0
 10 11  1  0
 11 12  1  0
 12 13  2  0
 12 14  1  0
 14 15  1  1
 14 16  1  0
 10 17  1  0
 17 18  2  0
 18 19  1  0
 19 20  2  0
 20  6  1  0
 20  9  1  0
M  END
>  <alias>  (37) 
None

>  <rmsd(smina/fragmenstein)>  (37) 
0.748

>  <smiles>  (37) 
CNS(=O)(=O)c1c[nH]c2c(NC(=O)[C@H](C)O)cccc12

>  <gnina_score>  (37) 
5.17

>  <inspiration_score>  (37) 
None

>  <energy_score>  (37) 
-16.839676

>  <distance_score>  (37) 
0.818294

>  <gnina_score_min>  (37) 
5.251

>  <inchikey>  (37) 
IOFOGHYZSVTHFW-ZETCQYMHSA-N

>  <exports>  (37) 
['/opt/xchem-fragalysis-2/maxwin/BulkDock/OUTPUTS/openbind_a71ev2a_c2_elabs_1LOUU54.sdf', '/opt/xchem-fragalysis-2/maxwin/BulkDock/OUTPUTS/openbind_a71ev2a_c2_elabs_1LSYIDY.sdf']

>  <name>  (37) 
P535640

>  <ref_pdb>  (37) 
A0554a

>  <subsites>  (37) 
None

>  <HIPPO Pose ID>  (37) 
535640

>  <ref_mols>  (37) 
A0554a

>  <HIPPO Compound ID>  (37) 
367825

>  <tags>  (37) 
openbind_a71ev2a_c2_elabs,syndirella_product,openbind_a71ev2a_c2_elabs_fragonly_scored_top80percent,openbind_a71ev2a_c2_elabs_scored,BulkDock Fragalysis export,openbind_a71ev2a_c2_elabs_scored_top80percent,openbind_a71ev2a_c2_elabs_activefrags_only_scored_5.2plus,syndirella_placed

>  <smina_score_min>  (37) 
-6.575

$$$$
P535641
     RDKit          3D

 20 21  0  0  0  0  0  0  0  0999 V2000
    4.4087   16.6583   28.3177 C   0  0  0  0  0  0  0  0  0  0  0  0
    5.8586   16.6792   27.8750 C   0  0  0  0  0  0  0  0  0  0  0  0
    6.1460   15.4344   27.2293 O   0  0  0  0  0  0  0  0  0  0  0  0
    7.4023   15.3610   26.7136 C   0  0  0  0  0  0  0  0  0  0  0  0
    8.2806   16.2005   26.8597 O   0  0  0  0  0  0  0  0  0  0  0  0
    7.5719   14.1325   25.9859 C   0  0  0  0  0  0  0  0  0  0  0  0
    6.8596   12.9479   26.0212 C   0  0  0  0  0  0  0  0  0  0  0  0
    7.5425   12.0046   25.2111 C   0  0  0  0  0  0  0  0  0  0  0  0
    7.3427   10.6500   24.9460 C   0  0  0  0  0  0  0  0  0  0  0  0
    8.1880   10.0367   24.0295 C   0  0  0  0  0  0  0  0  0  0  0  0
    9.2294   10.7001   23.3994 C   0  0  0  0  0  0  0  0  0  0  0  0
    9.4756   12.0323   23.6922 C   0  0  0  0  0  0  0  0  0  0  0  0
   10.4937   12.6846   23.0193 N   0  0  0  0  0  0  0  0  0  0  0  0
   11.2665   13.9867   23.3745 C   0  0  0  0  0  0  0  0  0  0  0  0
   11.2135   14.6631   24.3271 O   0  0  0  0  0  0  0  0  0  0  0  0
   12.1122   14.3482   22.1424 C   0  0  0  0  0  0  0  0  0  0  0  0
   11.3547   15.1806   21.1928 N   0  0  0  0  0  0  0  0  0  0  0  0
   10.1834   14.4262   20.7857 O   0  0  0  0  0  0  0  0  0  0  0  0
    8.6183   12.6579   24.6081 C   0  0  0  0  0  0  0  0  0  0  0  0
    8.5987   13.9456   25.0892 N   0  0  0  0  0  0  0  0  0  0  0  0
  1  2  1  0
  2  3  1  0
  3  4  1  0
  4  5  2  0
  4  6  1  0
  6  7  2  0
  7  8  1  0
  8  9  2  0
  9 10  1  0
 10 11  2  0
 11 12  1  0
 12 13  1  0
 13 14  1  0
 14 15  2  0
 14 16  1  0
 16 17  1  0
 17 18  1  0
 12 19  2  0
 19 20  1  0
 20  6  1  0
 19  8  1  0
M  END
>  <alias>  (38) 
None

>  <rmsd(smina/fragmenstein)>  (38) 
0.941

>  <smiles>  (38) 
CCOC(=O)c1cc2cccc(NC(=O)CNO)c2[nH]1

>  <gnina_score>  (38) 
5.198

>  <inspiration_score>  (38) 
None

>  <energy_score>  (38) 
-42.154222

>  <distance_score>  (38) 
0.814171

>  <gnina_score_min>  (38) 
5.279

>  <inchikey>  (38) 
ZPUDRNQMKIEYMJ-UHFFFAOYSA-N

>  <exports>  (38) 
['/opt/xchem-fragalysis-2/maxwin/BulkDock/OUTPUTS/openbind_a71ev2a_c2_elabs_1LOUU54.sdf', '/opt/xchem-fragalysis-2/maxwin/BulkDock/OUTPUTS/openbind_a71ev2a_c2_elabs_1LSYIDY.sdf']

>  <name>  (38) 
P535641

>  <ref_pdb>  (38) 
A0554a

>  <subsites>  (38) 
None

>  <HIPPO Pose ID>  (38) 
535641

>  <ref_mols>  (38) 
A0554a

>  <HIPPO Compound ID>  (38) 
367826

>  <tags>  (38) 
openbind_a71ev2a_c2_elabs,syndirella_product,openbind_a71ev2a_c2_elabs_fragonly_scored_top80percent,openbind_a71ev2a_c2_elabs_scored,BulkDock Fragalysis export,openbind_a71ev2a_c2_elabs_scored_top80percent,openbind_a71ev2a_c2_elabs_activefrags_only_scored_5.2plus,syndirella_placed

>  <smina_score_min>  (38) 
-6.321

$$$$
P535654
     RDKit          3D

 20 21  0  0  0  0  0  0  0  0999 V2000
    4.7446   16.8574   26.0997 C   0  0  0  0  0  0  0  0  0  0  0  0
    6.0676   16.6612   26.8207 C   0  0  0  0  0  0  0  0  0  0  0  0
    6.8156   15.5864   26.2285 O   0  0  0  0  0  0  0  0  0  0  0  0
    6.4005   14.3439   26.5958 C   0  0  0  0  0  0  0  0  0  0  0  0
    5.5569   14.1027   27.4498 O   0  0  0  0  0  0  0  0  0  0  0  0
    7.0958   13.3408   25.8305 C   0  0  0  0  0  0  0  0  0  0  0  0
    6.8073   11.9901   25.7934 C   0  0  0  0  0  0  0  0  0  0  0  0
    7.7190   11.3638   24.9139 C   0  0  0  0  0  0  0  0  0  0  0  0
    7.8845   10.0369   24.4915 C   0  0  0  0  0  0  0  0  0  0  0  0
    8.8726    9.7601   23.5545 C   0  0  0  0  0  0  0  0  0  0  0  0
    9.6709   10.7494   23.0447 C   0  0  0  0  0  0  0  0  0  0  0  0
    9.5881   12.0485   23.5027 C   0  0  0  0  0  0  0  0  0  0  0  0
   10.5442   12.9014   23.0031 N   0  0  0  0  0  0  0  0  0  0  0  0
   11.1440   14.1863   23.5955 C   0  0  0  0  0  0  0  0  0  0  0  0
   10.9806   14.6869   24.6356 O   0  0  0  0  0  0  0  0  0  0  0  0
   12.1463   14.7632   22.5967 C   0  0  0  0  0  0  0  0  0  0  0  0
   11.8788   14.7132   21.1147 C   0  0  0  0  0  0  0  0  0  0  0  0
   10.1177   15.3808   20.6632 Br  0  0  0  0  0  0  0  0  0  0  0  0
    8.5818   12.3506   24.4267 C   0  0  0  0  0  0  0  0  0  0  0  0
    8.1703   13.5409   24.9882 N   0  0  0  0  0  0  0  0  0  0  0  0
  1  2  1  0
  2  3  1  0
  3  4  1  0
  4  5  2  0
  4  6  1  0
  6  7  2  0
  7  8  1  0
  8  9  2  0
  9 10  1  0
 10 11  2  0
 11 12  1  0
 12 13  1  0
 13 14  1  0
 14 15  2  0
 14 16  1  0
 16 17  1  0
 17 18  1  0
 12 19  2  0
 19 20  1  0
 20  6  1  0
 19  8  1  0
M  END
>  <alias>  (39) 
None

>  <rmsd(smina/fragmenstein)>  (39) 
1.44

>  <smiles>  (39) 
CCOC(=O)c1cc2cccc(NC(=O)CCBr)c2[nH]1

>  <gnina_score>  (39) 
5.35

>  <inspiration_score>  (39) 
None

>  <energy_score>  (39) 
-18.252977

>  <distance_score>  (39) 
0.476928

>  <gnina_score_min>  (39) 
5.531

>  <inchikey>  (39) 
GYNQNYGLWNHVIN-UHFFFAOYSA-N

>  <exports>  (39) 
['/opt/xchem-fragalysis-2/maxwin/BulkDock/OUTPUTS/openbind_a71ev2a_c2_elabs_1LOUU54.sdf', '/opt/xchem-fragalysis-2/maxwin/BulkDock/OUTPUTS/openbind_a71ev2a_c2_elabs_1LSYIDY.sdf']

>  <name>  (39) 
P535654

>  <ref_pdb>  (39) 
A0554a

>  <subsites>  (39) 
None

>  <HIPPO Pose ID>  (39) 
535654

>  <ref_mols>  (39) 
A0554a

>  <HIPPO Compound ID>  (39) 
367839

>  <tags>  (39) 
openbind_a71ev2a_c2_elabs,syndirella_product,openbind_a71ev2a_c2_elabs_fragonly_scored_top80percent,BulkDock Fragalysis export,openbind_a71ev2a_c2_elabs_scored,openbind_a71ev2a_c2_elabs_scored_top80percent,openbind_a71ev2a_c2_elabs_activefrags_only_scored_5.2plus,openbind_a71ev2a_c2_elabs_activefrags_only_scored_5.5plus,syndirella_placed

>  <smina_score_min>  (39) 
-6.193

$$$$
P535655
     RDKit          3D

 20 21  0  0  0  0  0  0  0  0999 V2000
   11.1613   14.9414   19.5613 C   0  0  0  0  0  0  0  0  0  0  0  0
   11.6611   14.7206   20.7392 C   0  0  0  0  0  0  0  0  0  0  0  0
   12.1677   14.5393   21.9241 C   0  0  0  0  0  0  0  0  0  0  0  0
   11.3157   14.1510   23.0796 C   0  0  0  0  0  0  0  0  0  0  0  0
   11.3035   14.8019   24.0477 O   0  0  0  0  0  0  0  0  0  0  0  0
   10.4819   12.9109   22.6981 N   0  0  0  0  0  0  0  0  0  0  0  0
    9.5594   12.1811   23.4378 C   0  0  0  0  0  0  0  0  0  0  0  0
    9.4291   10.8221   23.2146 C   0  0  0  0  0  0  0  0  0  0  0  0
    8.4971   10.0860   23.9279 C   0  0  0  0  0  0  0  0  0  0  0  0
    7.6363   10.6557   24.8638 C   0  0  0  0  0  0  0  0  0  0  0  0
    7.7189   12.0375   25.0841 C   0  0  0  0  0  0  0  0  0  0  0  0
    7.0461   12.9729   25.9238 C   0  0  0  0  0  0  0  0  0  0  0  0
    5.8515   12.6659   27.1293 S   0  0  0  0  0  0  0  0  0  0  0  0
    5.2560   11.3927   26.8072 O   0  0  0  0  0  0  0  0  0  0  0  0
    6.5794   12.8701   28.3643 O   0  0  0  0  0  0  0  0  0  0  0  0
    4.6854   13.8795   27.0442 N   0  0  0  0  0  0  0  0  0  0  0  0
    3.9549   14.0201   25.7800 C   0  0  0  0  0  0  0  0  0  0  0  0
    7.5758   14.2236   25.6735 C   0  0  0  0  0  0  0  0  0  0  0  0
    8.5601   14.0730   24.7437 N   0  0  0  0  0  0  0  0  0  0  0  0
    8.6900   12.7575   24.3733 C   0  0  0  0  0  0  0  0  0  0  0  0
  1  2  2  0
  2  3  2  0
  3  4  1  0
  4  5  2  0
  4  6  1  0
  6  7  1  0
  7  8  2  0
  8  9  1  0
  9 10  2  0
 10 11  1  0
 11 12  1  0
 12 13  1  0
 13 14  2  0
 13 15  2  0
 13 16  1  0
 16 17  1  0
 12 18  2  0
 18 19  1  0
 19 20  1  0
 20  7  1  0
 20 11  2  0
M  END
>  <alias>  (40) 
None

>  <rmsd(smina/fragmenstein)>  (40) 
0.319

>  <smiles>  (40) 
C=C=CC(=O)Nc1cccc2c(S(=O)(=O)NC)c[nH]c12

>  <gnina_score>  (40) 
5.379

>  <inspiration_score>  (40) 
None

>  <energy_score>  (40) 
-38.170962

>  <distance_score>  (40) 
0.884638

>  <gnina_score_min>  (40) 
5.546

>  <inchikey>  (40) 
NFQMPSHZKHOMML-UHFFFAOYSA-N

>  <exports>  (40) 
['/opt/xchem-fragalysis-2/maxwin/BulkDock/OUTPUTS/openbind_a71ev2a_c2_elabs_1LOUU54.sdf', '/opt/xchem-fragalysis-2/maxwin/BulkDock/OUTPUTS/openbind_a71ev2a_c2_elabs_1LSYIDY.sdf']

>  <name>  (40) 
P535655

>  <ref_pdb>  (40) 
A0554a

>  <subsites>  (40) 
None

>  <HIPPO Pose ID>  (40) 
535655

>  <ref_mols>  (40) 
A0554a

>  <HIPPO Compound ID>  (40) 
367840

>  <tags>  (40) 
openbind_a71ev2a_c2_elabs,syndirella_product,openbind_a71ev2a_c2_elabs_fragonly_scored_top80percent,BulkDock Fragalysis export,openbind_a71ev2a_c2_elabs_scored,openbind_a71ev2a_c2_elabs_scored_top80percent,openbind_a71ev2a_c2_elabs_activefrags_only_scored_5.2plus,openbind_a71ev2a_c2_elabs_activefrags_only_scored_5.5plus,syndirella_placed

>  <smina_score_min>  (40) 
-6.636

$$$$
P535656
     RDKit          3D

 20 21  0  0  0  0  0  0  0  0999 V2000
    6.7328   14.0898   29.2967 C   0  0  0  0  0  0  0  0  0  0  0  0
    5.6719   14.0976   28.2942 N   0  0  0  0  0  0  0  0  0  0  0  0
    5.6340   12.8214   27.1939 S   0  0  0  0  0  0  0  0  0  0  0  0
    6.0098   11.6183   27.9063 O   0  0  0  0  0  0  0  0  0  0  0  0
    4.3812   12.9293   26.4874 O   0  0  0  0  0  0  0  0  0  0  0  0
    6.8681   13.0646   26.0181 C   0  0  0  0  0  0  0  0  0  0  0  0
    7.4411   14.2793   25.7086 C   0  0  0  0  0  0  0  0  0  0  0  0
    8.4324   14.0510   24.7966 N   0  0  0  0  0  0  0  0  0  0  0  0
    8.5177   12.7112   24.4898 C   0  0  0  0  0  0  0  0  0  0  0  0
    9.3725   12.0415   23.5972 C   0  0  0  0  0  0  0  0  0  0  0  0
   10.3559   12.6913   22.8631 N   0  0  0  0  0  0  0  0  0  0  0  0
   11.1398   13.9991   23.1627 C   0  0  0  0  0  0  0  0  0  0  0  0
   11.1326   14.6869   24.1086 O   0  0  0  0  0  0  0  0  0  0  0  0
   11.9392   14.3626   21.9010 C   0  0  0  0  0  0  0  0  0  0  0  0
   11.1003   14.6018   20.7164 N   0  0  0  0  0  0  0  0  0  0  0  0
    9.9764   15.4214   21.1289 O   0  0  0  0  0  0  0  0  0  0  0  0
    9.1762   10.6795   23.4337 C   0  0  0  0  0  0  0  0  0  0  0  0
    8.1967   10.0327   24.1760 C   0  0  0  0  0  0  0  0  0  0  0  0
    7.3633   10.6902   25.0756 C   0  0  0  0  0  0  0  0  0  0  0  0
    7.5108   12.0719   25.2254 C   0  0  0  0  0  0  0  0  0  0  0  0
  1  2  1  0
  2  3  1  0
  3  4  2  0
  3  5  2  0
  3  6  1  0
  6  7  2  0
  7  8  1  0
  8  9  1  0
  9 10  2  0
 10 11  1  0
 11 12  1  0
 12 13  2  0
 12 14  1  0
 14 15  1  0
 15 16  1  0
 10 17  1  0
 17 18  2  0
 18 19  1  0
 19 20  2  0
 20  6  1  0
 20  9  1  0
M  END
>  <alias>  (41) 
None

>  <rmsd(smina/fragmenstein)>  (41) 
0.423

>  <smiles>  (41) 
CNS(=O)(=O)c1c[nH]c2c(NC(=O)CNO)cccc12

>  <gnina_score>  (41) 
5.434

>  <inspiration_score>  (41) 
None

>  <energy_score>  (41) 
-43.917837

>  <distance_score>  (41) 
0.872335

>  <gnina_score_min>  (41) 
5.489

>  <inchikey>  (41) 
LJGWPMARSXBEFG-UHFFFAOYSA-N

>  <exports>  (41) 
['/opt/xchem-fragalysis-2/maxwin/BulkDock/OUTPUTS/openbind_a71ev2a_c2_elabs_1LOUU54.sdf', '/opt/xchem-fragalysis-2/maxwin/BulkDock/OUTPUTS/openbind_a71ev2a_c2_elabs_1LSYIDY.sdf']

>  <name>  (41) 
P535656

>  <ref_pdb>  (41) 
A0554a

>  <subsites>  (41) 
None

>  <HIPPO Pose ID>  (41) 
535656

>  <ref_mols>  (41) 
A0554a

>  <HIPPO Compound ID>  (41) 
367841

>  <tags>  (41) 
openbind_a71ev2a_c2_elabs,syndirella_product,openbind_a71ev2a_c2_elabs_fragonly_scored_top80percent,openbind_a71ev2a_c2_elabs_scored,BulkDock Fragalysis export,openbind_a71ev2a_c2_elabs_scored_top80percent,openbind_a71ev2a_c2_elabs_activefrags_only_scored_5.2plus,syndirella_placed

>  <smina_score_min>  (41) 
-6.408

$$$$
P535657
     RDKit          3D

 20 21  0  0  0  0  0  0  0  0999 V2000
    3.5677   14.1266   26.1367 C   0  0  0  0  0  0  0  0  0  0  0  0
    4.3893   14.0862   27.3506 N   0  0  0  0  0  0  0  0  0  0  0  0
    5.4956   12.8219   27.4793 S   0  0  0  0  0  0  0  0  0  0  0  0
    6.2782   13.0540   28.6740 O   0  0  0  0  0  0  0  0  0  0  0  0
    4.8148   11.5697   27.2469 O   0  0  0  0  0  0  0  0  0  0  0  0
    6.6596   12.9897   26.2162 C   0  0  0  0  0  0  0  0  0  0  0  0
    7.2278   14.1878   25.8387 C   0  0  0  0  0  0  0  0  0  0  0  0
    8.1656   13.9154   24.8863 N   0  0  0  0  0  0  0  0  0  0  0  0
    8.2351   12.5619   24.6354 C   0  0  0  0  0  0  0  0  0  0  0  0
    9.0567   11.8391   23.7508 C   0  0  0  0  0  0  0  0  0  0  0  0
    9.9694   12.4711   22.9240 N   0  0  0  0  0  0  0  0  0  0  0  0
   10.6299   13.8695   23.0369 C   0  0  0  0  0  0  0  0  0  0  0  0
   10.5646   14.6698   23.8832 O   0  0  0  0  0  0  0  0  0  0  0  0
   11.3535   14.0965   21.7225 C   0  0  1  0  0  0  0  0  0  0  0  0
   10.3914   14.6716   20.7021 C   0  0  0  0  0  0  0  0  0  0  0  0
   12.7908   15.3160   21.9557 Br  0  0  0  0  0  0  0  0  0  0  0  0
    8.8787   10.4676   23.6747 C   0  0  0  0  0  0  0  0  0  0  0  0
    7.9237    9.8661   24.4819 C   0  0  0  0  0  0  0  0  0  0  0  0
    7.1140   10.5761   25.3617 C   0  0  0  0  0  0  0  0  0  0  0  0
    7.2629   11.9615   25.4421 C   0  0  0  0  0  0  0  0  0  0  0  0
  1  2  1  0
  2  3  1  0
  3  4  2  0
  3  5  2  0
  3  6  1  0
  6  7  2  0
  7  8  1  0
  8  9  1  0
  9 10  2  0
 10 11  1  0
 11 12  1  0
 12 13  2  0
 12 14  1  0
 14 15  1  6
 14 16  1  0
 10 17  1  0
 17 18  2  0
 18 19  1  0
 19 20  2  0
 20  6  1  0
 20  9  1  0
M  END
>  <alias>  (42) 
None

>  <rmsd(smina/fragmenstein)>  (42) 
0.398

>  <smiles>  (42) 
CNS(=O)(=O)c1c[nH]c2c(NC(=O)[C@@H](C)Br)cccc12

>  <gnina_score>  (42) 
5.301

>  <inspiration_score>  (42) 
None

>  <energy_score>  (42) 
-37.319976

>  <distance_score>  (42) 
0.961703

>  <gnina_score_min>  (42) 
5.269

>  <inchikey>  (42) 
OPYXETLZIBZTAO-SSDOTTSWSA-N

>  <exports>  (42) 
['/opt/xchem-fragalysis-2/maxwin/BulkDock/OUTPUTS/openbind_a71ev2a_c2_elabs_1LOUU54.sdf', '/opt/xchem-fragalysis-2/maxwin/BulkDock/OUTPUTS/openbind_a71ev2a_c2_elabs_1LSYIDY.sdf']

>  <name>  (42) 
P535657

>  <ref_pdb>  (42) 
A0554a

>  <subsites>  (42) 
None

>  <HIPPO Pose ID>  (42) 
535657

>  <ref_mols>  (42) 
A0554a

>  <HIPPO Compound ID>  (42) 
367842

>  <tags>  (42) 
openbind_a71ev2a_c2_elabs,syndirella_product,openbind_a71ev2a_c2_elabs_fragonly_scored_top80percent,openbind_a71ev2a_c2_elabs_scored,BulkDock Fragalysis export,openbind_a71ev2a_c2_elabs_scored_top80percent,openbind_a71ev2a_c2_elabs_activefrags_only_scored_5.2plus,syndirella_placed

>  <smina_score_min>  (42) 
-5.424

$$$$
P535661
     RDKit          3D

 20 21  0  0  0  0  0  0  0  0999 V2000
    3.7720   14.3752   28.7421 C   0  0  0  0  0  0  0  0  0  0  0  0
    4.6605   14.2647   27.5790 N   0  0  0  0  0  0  0  0  0  0  0  0
    5.6117   12.8701   27.5468 S   0  0  0  0  0  0  0  0  0  0  0  0
    4.7463   11.7638   27.2111 O   0  0  0  0  0  0  0  0  0  0  0  0
    6.4593   12.8465   28.7186 O   0  0  0  0  0  0  0  0  0  0  0  0
    6.7245   13.0310   26.2424 C   0  0  0  0  0  0  0  0  0  0  0  0
    7.3051   14.2184   25.8502 C   0  0  0  0  0  0  0  0  0  0  0  0
    8.2356   13.9246   24.8965 N   0  0  0  0  0  0  0  0  0  0  0  0
    8.2821   12.5691   24.6592 C   0  0  0  0  0  0  0  0  0  0  0  0
    9.1032   11.8220   23.8029 C   0  0  0  0  0  0  0  0  0  0  0  0
   10.0940   12.3843   23.0163 N   0  0  0  0  0  0  0  0  0  0  0  0
   10.8218   13.7532   23.1352 C   0  0  0  0  0  0  0  0  0  0  0  0
   10.7504   14.5791   23.9580 O   0  0  0  0  0  0  0  0  0  0  0  0
   11.6075   13.8673   21.8669 C   0  0  0  0  0  0  0  0  0  0  0  0
   12.3867   15.1244   21.7053 C   0  0  0  0  0  0  0  0  0  0  0  0
   12.6236   15.2240   20.3723 F   0  0  0  0  0  0  0  0  0  0  0  0
    8.8699   10.4554   23.7138 C   0  0  0  0  0  0  0  0  0  0  0  0
    7.8793    9.8777   24.4943 C   0  0  0  0  0  0  0  0  0  0  0  0
    7.0935   10.6110   25.3744 C   0  0  0  0  0  0  0  0  0  0  0  0
    7.2878   11.9917   25.4567 C   0  0  0  0  0  0  0  0  0  0  0  0
  1  2  1  0
  2  3  1  0
  3  4  2  0
  3  5  2  0
  3  6  1  0
  6  7  2  0
  7  8  1  0
  8  9  1  0
  9 10  2  0
 10 11  1  0
 11 12  1  0
 12 13  2  0
 12 14  1  0
 14 15  1  0
 15 16  1  0
 10 17  1  0
 17 18  2  0
 18 19  1  0
 19 20  2  0
 20  6  1  0
 20  9  1  0
M  END
>  <alias>  (43) 
None

>  <rmsd(smina/fragmenstein)>  (43) 
1.343

>  <smiles>  (43) 
CNS(=O)(=O)c1c[nH]c2c(NC(=O)CCF)cccc12

>  <gnina_score>  (43) 
5.106

>  <inspiration_score>  (43) 
None

>  <energy_score>  (43) 
-48.023491

>  <distance_score>  (43) 
0.941512

>  <gnina_score_min>  (43) 
5.381

>  <inchikey>  (43) 
HTODEXCGKRAHCZ-UHFFFAOYSA-N

>  <exports>  (43) 
['/opt/xchem-fragalysis-2/maxwin/BulkDock/OUTPUTS/openbind_a71ev2a_c2_elabs_1LOUU54.sdf', '/opt/xchem-fragalysis-2/maxwin/BulkDock/OUTPUTS/openbind_a71ev2a_c2_elabs_1LSYIDY.sdf']

>  <name>  (43) 
P535661

>  <ref_pdb>  (43) 
A0554a

>  <subsites>  (43) 
None

>  <HIPPO Pose ID>  (43) 
535661

>  <ref_mols>  (43) 
A0554a

>  <HIPPO Compound ID>  (43) 
367847

>  <tags>  (43) 
openbind_a71ev2a_c2_elabs,syndirella_product,openbind_a71ev2a_c2_elabs_fragonly_scored_top80percent,openbind_a71ev2a_c2_elabs_scored,BulkDock Fragalysis export,openbind_a71ev2a_c2_elabs_scored_top80percent,openbind_a71ev2a_c2_elabs_activefrags_only_scored_5.2plus,syndirella_placed

>  <smina_score_min>  (43) 
-6.753

$$$$
P535662
     RDKit          3D

 20 21  0  0  0  0  0  0  0  0999 V2000
    6.6010   16.6774   29.3470 C   0  0  0  0  0  0  0  0  0  0  0  0
    6.1840   16.7790   27.8919 C   0  0  0  0  0  0  0  0  0  0  0  0
    6.4328   15.5363   27.2196 O   0  0  0  0  0  0  0  0  0  0  0  0
    7.6710   15.4036   26.6766 C   0  0  0  0  0  0  0  0  0  0  0  0
    8.6055   16.1817   26.8200 O   0  0  0  0  0  0  0  0  0  0  0  0
    7.7551   14.1848   25.9183 C   0  0  0  0  0  0  0  0  0  0  0  0
    7.0084   13.0220   25.9731 C   0  0  0  0  0  0  0  0  0  0  0  0
    7.6491   12.0579   25.1506 C   0  0  0  0  0  0  0  0  0  0  0  0
    7.4241   10.7015   24.9145 C   0  0  0  0  0  0  0  0  0  0  0  0
    8.2490   10.0582   24.0001 C   0  0  0  0  0  0  0  0  0  0  0  0
    9.2702   10.7049   23.3183 C   0  0  0  0  0  0  0  0  0  0  0  0
    9.5196   12.0496   23.5504 C   0  0  0  0  0  0  0  0  0  0  0  0
   10.4687   12.7008   22.7748 N   0  0  0  0  0  0  0  0  0  0  0  0
   11.2217   14.0373   23.0144 C   0  0  0  0  0  0  0  0  0  0  0  0
   11.2154   14.7547   23.9365 O   0  0  0  0  0  0  0  0  0  0  0  0
   11.9593   14.3684   21.7273 C   0  0  0  0  0  0  0  0  0  0  0  0
   10.9926   14.8382   20.6582 C   0  0  0  0  0  0  0  0  0  0  0  0
   10.5691   16.0924   20.9520 F   0  0  0  0  0  0  0  0  0  0  0  0
    8.7104   12.6898   24.4991 C   0  0  0  0  0  0  0  0  0  0  0  0
    8.7280   13.9803   24.9680 N   0  0  0  0  0  0  0  0  0  0  0  0
  1  2  1  0
  2  3  1  0
  3  4  1  0
  4  5  2  0
  4  6  1  0
  6  7  2  0
  7  8  1  0
  8  9  2  0
  9 10  1  0
 10 11  2  0
 11 12  1  0
 12 13  1  0
 13 14  1  0
 14 15  2  0
 14 16  1  0
 16 17  1  0
 17 18  1  0
 12 19  2  0
 19 20  1  0
 20  6  1  0
 19  8  1  0
M  END
>  <alias>  (44) 
None

>  <rmsd(smina/fragmenstein)>  (44) 
0.991

>  <smiles>  (44) 
CCOC(=O)c1cc2cccc(NC(=O)CCF)c2[nH]1

>  <gnina_score>  (44) 
5.063

>  <inspiration_score>  (44) 
None

>  <energy_score>  (44) 
-9.180815

>  <distance_score>  (44) 
0.899677

>  <gnina_score_min>  (44) 
5.269

>  <inchikey>  (44) 
ILAFHIYQVCWXPC-UHFFFAOYSA-N

>  <exports>  (44) 
['/opt/xchem-fragalysis-2/maxwin/BulkDock/OUTPUTS/openbind_a71ev2a_c2_elabs_1LOUU54.sdf', '/opt/xchem-fragalysis-2/maxwin/BulkDock/OUTPUTS/openbind_a71ev2a_c2_elabs_1LSYIDY.sdf']

>  <name>  (44) 
P535662

>  <ref_pdb>  (44) 
A0554a

>  <subsites>  (44) 
None

>  <HIPPO Pose ID>  (44) 
535662

>  <ref_mols>  (44) 
A0554a

>  <HIPPO Compound ID>  (44) 
367849

>  <tags>  (44) 
openbind_a71ev2a_c2_elabs,syndirella_product,openbind_a71ev2a_c2_elabs_fragonly_scored_top80percent,openbind_a71ev2a_c2_elabs_scored,BulkDock Fragalysis export,openbind_a71ev2a_c2_elabs_scored_top80percent,openbind_a71ev2a_c2_elabs_activefrags_only_scored_5.2plus,syndirella_placed

>  <smina_score_min>  (44) 
-5.837

$$$$
P535665
     RDKit          3D

 20 21  0  0  0  0  0  0  0  0999 V2000
   12.8124   14.9537   21.8859 C   0  0  0  0  0  0  0  0  0  0  0  0
   11.5087   14.6993   21.9104 C   0  0  0  0  0  0  0  0  0  0  0  0
   10.3521   15.1376   20.5260 Br  0  0  0  0  0  0  0  0  0  0  0  0
   10.9418   14.1641   23.1800 C   0  0  0  0  0  0  0  0  0  0  0  0
   11.0427   14.7351   24.1896 O   0  0  0  0  0  0  0  0  0  0  0  0
   10.1825   12.8752   22.8374 N   0  0  0  0  0  0  0  0  0  0  0  0
    9.3426   12.0971   23.6085 C   0  0  0  0  0  0  0  0  0  0  0  0
    9.1944   10.7553   23.3266 C   0  0  0  0  0  0  0  0  0  0  0  0
    8.2389   10.0212   24.0097 C   0  0  0  0  0  0  0  0  0  0  0  0
    7.3920   10.5655   24.9711 C   0  0  0  0  0  0  0  0  0  0  0  0
    7.5226   11.9250   25.2542 C   0  0  0  0  0  0  0  0  0  0  0  0
    6.8307   12.8198   26.1142 C   0  0  0  0  0  0  0  0  0  0  0  0
    7.4621   14.0483   26.0459 C   0  0  0  0  0  0  0  0  0  0  0  0
    7.2679   15.2703   26.7783 C   0  0  0  0  0  0  0  0  0  0  0  0
    8.0857   16.1809   26.8106 O   0  0  0  0  0  0  0  0  0  0  0  0
    6.0779   15.2481   27.4337 O   0  0  0  0  0  0  0  0  0  0  0  0
    5.7663   16.4717   28.1094 C   0  0  0  0  0  0  0  0  0  0  0  0
    4.3922   16.3299   28.7342 C   0  0  0  0  0  0  0  0  0  0  0  0
    8.4404   13.9306   25.0879 N   0  0  0  0  0  0  0  0  0  0  0  0
    8.5165   12.6502   24.5982 C   0  0  0  0  0  0  0  0  0  0  0  0
  1  2  2  0
  2  3  1  0
  2  4  1  0
  4  5  2  0
  4  6  1  0
  6  7  1  0
  7  8  2  0
  8  9  1  0
  9 10  2  0
 10 11  1  0
 11 12  1  0
 12 13  2  0
 13 14  1  0
 14 15  2  0
 14 16  1  0
 16 17  1  0
 17 18  1  0
 13 19  1  0
 19 20  1  0
 20  7  1  0
 20 11  2  0
M  END
>  <alias>  (45) 
None

>  <rmsd(smina/fragmenstein)>  (45) 
1.583

>  <smiles>  (45) 
C=C(Br)C(=O)Nc1cccc2cc(C(=O)OCC)[nH]c12

>  <gnina_score>  (45) 
5.144

>  <inspiration_score>  (45) 
None

>  <energy_score>  (45) 
-18.783264

>  <distance_score>  (45) 
0.830341

>  <gnina_score_min>  (45) 
5.205

>  <inchikey>  (45) 
KVMDWUPEOZVHDQ-UHFFFAOYSA-N

>  <exports>  (45) 
['/opt/xchem-fragalysis-2/maxwin/BulkDock/OUTPUTS/openbind_a71ev2a_c2_elabs_1LOUU54.sdf', '/opt/xchem-fragalysis-2/maxwin/BulkDock/OUTPUTS/openbind_a71ev2a_c2_elabs_1LSYIDY.sdf']

>  <name>  (45) 
P535665

>  <ref_pdb>  (45) 
A0554a

>  <subsites>  (45) 
None

>  <HIPPO Pose ID>  (45) 
535665

>  <ref_mols>  (45) 
A0554a

>  <HIPPO Compound ID>  (45) 
367853

>  <tags>  (45) 
openbind_a71ev2a_c2_elabs,syndirella_product,openbind_a71ev2a_c2_elabs_fragonly_scored_top80percent,openbind_a71ev2a_c2_elabs_scored,BulkDock Fragalysis export,openbind_a71ev2a_c2_elabs_scored_top80percent,openbind_a71ev2a_c2_elabs_activefrags_only_scored_5.2plus,syndirella_placed

>  <smina_score_min>  (45) 
-6.431

$$$$
P535666
     RDKit          3D

 20 21  0  0  0  0  0  0  0  0999 V2000
    3.3789   13.5864   26.7461 C   0  0  0  0  0  0  0  0  0  0  0  0
    4.5335   13.5631   27.6458 N   0  0  0  0  0  0  0  0  0  0  0  0
    5.7071   12.3897   27.3674 S   0  0  0  0  0  0  0  0  0  0  0  0
    5.0505   11.1258   27.1305 O   0  0  0  0  0  0  0  0  0  0  0  0
    6.6969   12.5381   28.4128 O   0  0  0  0  0  0  0  0  0  0  0  0
    6.5665   12.7715   25.9258 C   0  0  0  0  0  0  0  0  0  0  0  0
    6.6968   14.0447   25.4146 C   0  0  0  0  0  0  0  0  0  0  0  0
    7.5201   13.9715   24.3306 N   0  0  0  0  0  0  0  0  0  0  0  0
    8.0142   12.6947   24.1809 C   0  0  0  0  0  0  0  0  0  0  0  0
    8.9866   12.1911   23.3076 C   0  0  0  0  0  0  0  0  0  0  0  0
    9.6837   12.9592   22.3837 N   0  0  0  0  0  0  0  0  0  0  0  0
    9.4873   14.4336   21.9481 C   0  0  0  0  0  0  0  0  0  0  0  0
    8.6622   15.2053   22.2418 O   0  0  0  0  0  0  0  0  0  0  0  0
   10.6842   14.8123   21.0810 C   0  0  0  0  0  0  0  0  0  0  0  0
   12.1845   15.1891   22.0458 S   0  0  0  0  0  0  0  0  0  0  0  0
   12.2550   13.8667   23.2689 C   0  0  0  0  0  0  0  0  0  0  0  0
    9.2875   10.8354   23.3894 C   0  0  0  0  0  0  0  0  0  0  0  0
    8.5921   10.0143   24.2605 C   0  0  0  0  0  0  0  0  0  0  0  0
    7.6027   10.5136   25.1081 C   0  0  0  0  0  0  0  0  0  0  0  0
    7.3471   11.8948   25.1179 C   0  0  0  0  0  0  0  0  0  0  0  0
  1  2  1  0
  2  3  1  0
  3  4  2  0
  3  5  2  0
  3  6  1  0
  6  7  2  0
  7  8  1  0
  8  9  1  0
  9 10  2  0
 10 11  1  0
 11 12  1  0
 12 13  2  0
 12 14  1  0
 14 15  1  0
 15 16  1  0
 10 17  1  0
 17 18  2  0
 18 19  1  0
 19 20  2  0
 20  6  1  0
 20  9  1  0
M  END
>  <alias>  (46) 
None

>  <rmsd(smina/fragmenstein)>  (46) 
0.474

>  <smiles>  (46) 
CNS(=O)(=O)c1c[nH]c2c(NC(=O)CSC)cccc12

>  <gnina_score>  (46) 
5.394

>  <inspiration_score>  (46) 
None

>  <energy_score>  (46) 
-37.286971

>  <distance_score>  (46) 
1.541449

>  <gnina_score_min>  (46) 
5.379

>  <inchikey>  (46) 
LAUYCPYPPWFNTJ-UHFFFAOYSA-N

>  <exports>  (46) 
['/opt/xchem-fragalysis-2/maxwin/BulkDock/OUTPUTS/openbind_a71ev2a_c2_elabs_1LOUU54.sdf', '/opt/xchem-fragalysis-2/maxwin/BulkDock/OUTPUTS/openbind_a71ev2a_c2_elabs_1LSYIDY.sdf']

>  <name>  (46) 
P535666

>  <ref_pdb>  (46) 
A0554a

>  <subsites>  (46) 
None

>  <HIPPO Pose ID>  (46) 
535666

>  <ref_mols>  (46) 
A0554a

>  <HIPPO Compound ID>  (46) 
367854

>  <tags>  (46) 
openbind_a71ev2a_c2_elabs,syndirella_product,openbind_a71ev2a_c2_elabs_fragonly_scored_top80percent,openbind_a71ev2a_c2_elabs_scored,BulkDock Fragalysis export,openbind_a71ev2a_c2_elabs_scored_top80percent,openbind_a71ev2a_c2_elabs_activefrags_only_scored_5.2plus,syndirella_placed

>  <smina_score_min>  (46) 
-5.582

$$$$
P535667
     RDKit          3D

 20 21  0  0  0  0  0  0  0  0999 V2000
    2.2612   14.3212   26.6661 C   0  0  0  0  0  0  0  0  0  0  0  0
    3.4284   14.1555   27.6216 C   0  0  0  0  0  0  0  0  0  0  0  0
    4.4526   13.3580   27.0128 O   0  0  0  0  0  0  0  0  0  0  0  0
    5.3435   14.0451   26.2403 C   0  0  0  0  0  0  0  0  0  0  0  0
    5.3576   15.2580   26.0927 O   0  0  0  0  0  0  0  0  0  0  0  0
    6.2804   13.1311   25.6401 C   0  0  0  0  0  0  0  0  0  0  0  0
    6.4606   11.7740   25.8249 C   0  0  0  0  0  0  0  0  0  0  0  0
    7.4885   11.3397   24.9507 C   0  0  0  0  0  0  0  0  0  0  0  0
    8.0405   10.0825   24.6647 C   0  0  0  0  0  0  0  0  0  0  0  0
    9.1179    9.9882   23.7876 C   0  0  0  0  0  0  0  0  0  0  0  0
    9.5928   11.1229   23.1469 C   0  0  0  0  0  0  0  0  0  0  0  0
    8.9821   12.3688   23.3089 C   0  0  0  0  0  0  0  0  0  0  0  0
    9.3508   13.4020   22.4516 N   0  0  0  0  0  0  0  0  0  0  0  0
    8.6531   14.7507   22.1426 C   0  0  0  0  0  0  0  0  0  0  0  0
    7.7018   15.2371   22.6168 O   0  0  0  0  0  0  0  0  0  0  0  0
    9.3951   15.4755   21.0019 C   0  0  0  0  0  0  0  0  0  0  0  0
   11.0083   14.8179   20.4967 S   0  0  0  0  0  0  0  0  0  0  0  0
   12.0057   15.1700   21.9610 C   0  0  0  0  0  0  0  0  0  0  0  0
    7.9549   12.4561   24.2572 C   0  0  0  0  0  0  0  0  0  0  0  0
    7.1816   13.5185   24.6727 N   0  0  0  0  0  0  0  0  0  0  0  0
  1  2  1  0
  2  3  1  0
  3  4  1  0
  4  5  2  0
  4  6  1  0
  6  7  2  0
  7  8  1  0
  8  9  2  0
  9 10  1  0
 10 11  2  0
 11 12  1  0
 12 13  1  0
 13 14  1  0
 14 15  2  0
 14 16  1  0
 16 17  1  0
 17 18  1  0
 12 19  2  0
 19 20  1  0
 20  6  1  0
 19  8  1  0
M  END
>  <alias>  (47) 
None

>  <rmsd(smina/fragmenstein)>  (47) 
1.567

>  <smiles>  (47) 
CCOC(=O)c1cc2cccc(NC(=O)CSC)c2[nH]1

>  <gnina_score>  (47) 
5.048

>  <inspiration_score>  (47) 
None

>  <energy_score>  (47) 
-39.498748

>  <distance_score>  (47) 
1.822381

>  <gnina_score_min>  (47) 
5.21

>  <inchikey>  (47) 
ZUGFDFXUXIVCBQ-UHFFFAOYSA-N

>  <exports>  (47) 
['/opt/xchem-fragalysis-2/maxwin/BulkDock/OUTPUTS/openbind_a71ev2a_c2_elabs_1LOUU54.sdf', '/opt/xchem-fragalysis-2/maxwin/BulkDock/OUTPUTS/openbind_a71ev2a_c2_elabs_1LSYIDY.sdf']

>  <name>  (47) 
P535667

>  <ref_pdb>  (47) 
A0554a

>  <subsites>  (47) 
None

>  <HIPPO Pose ID>  (47) 
535667

>  <ref_mols>  (47) 
A0554a

>  <HIPPO Compound ID>  (47) 
367856

>  <tags>  (47) 
openbind_a71ev2a_c2_elabs,syndirella_product,openbind_a71ev2a_c2_elabs_fragonly_scored_top80percent,openbind_a71ev2a_c2_elabs_scored,BulkDock Fragalysis export,openbind_a71ev2a_c2_elabs_scored_top80percent,openbind_a71ev2a_c2_elabs_activefrags_only_scored_5.2plus,syndirella_placed

>  <smina_score_min>  (47) 
-5.605

$$$$
P535668
     RDKit          3D

 20 21  0  0  0  0  0  0  0  0999 V2000
    3.5152   14.0060   26.1416 C   0  0  0  0  0  0  0  0  0  0  0  0
    4.5095   14.0100   27.2189 N   0  0  0  0  0  0  0  0  0  0  0  0
    5.6726   12.7900   27.1880 S   0  0  0  0  0  0  0  0  0  0  0  0
    6.5842   13.0430   28.2838 O   0  0  0  0  0  0  0  0  0  0  0  0
    5.0227   11.5114   27.0229 O   0  0  0  0  0  0  0  0  0  0  0  0
    6.6716   13.0108   25.7996 C   0  0  0  0  0  0  0  0  0  0  0  0
    6.9995   14.2338   25.2530 C   0  0  0  0  0  0  0  0  0  0  0  0
    7.9031   14.0095   24.2538 N   0  0  0  0  0  0  0  0  0  0  0  0
    8.2360   12.6754   24.1915 C   0  0  0  0  0  0  0  0  0  0  0  0
    9.2139   12.0161   23.4351 C   0  0  0  0  0  0  0  0  0  0  0  0
   10.0915   12.6445   22.5644 N   0  0  0  0  0  0  0  0  0  0  0  0
   10.0953   14.0982   22.0077 C   0  0  0  0  0  0  0  0  0  0  0  0
    9.3165   14.9618   22.1384 O   0  0  0  0  0  0  0  0  0  0  0  0
   11.4182   14.2802   21.2376 C   0  0  1  0  0  0  0  0  0  0  0  0
   11.1868   14.9369   19.8923 C   0  0  0  0  0  0  0  0  0  0  0  0
   12.5319   15.2492   22.2468 S   0  0  0  0  0  0  0  0  0  0  0  0
    9.2996   10.6345   23.5622 C   0  0  0  0  0  0  0  0  0  0  0  0
    8.4316    9.9570   24.4025 C   0  0  0  0  0  0  0  0  0  0  0  0
    7.4718   10.6130   25.1663 C   0  0  0  0  0  0  0  0  0  0  0  0
    7.3951   12.0103   25.0933 C   0  0  0  0  0  0  0  0  0  0  0  0
  1  2  1  0
  2  3  1  0
  3  4  2  0
  3  5  2  0
  3  6  1  0
  6  7  2  0
  7  8  1  0
  8  9  1  0
  9 10  2  0
 10 11  1  0
 11 12  1  0
 12 13  2  0
 12 14  1  0
 14 15  1  6
 14 16  1  0
 10 17  1  0
 17 18  2  0
 18 19  1  0
 19 20  2  0
 20  6  1  0
 20  9  1  0
M  END
>  <alias>  (48) 
None

>  <rmsd(smina/fragmenstein)>  (48) 
0.809

>  <smiles>  (48) 
CNS(=O)(=O)c1c[nH]c2c(NC(=O)[C@@H](C)S)cccc12

>  <gnina_score>  (48) 
5.41

>  <inspiration_score>  (48) 
None

>  <energy_score>  (48) 
-29.335235

>  <distance_score>  (48) 
1.347293

>  <gnina_score_min>  (48) 
5.429

>  <inchikey>  (48) 
CYUSRBIQOVBTRA-SSDOTTSWSA-N

>  <exports>  (48) 
['/opt/xchem-fragalysis-2/maxwin/BulkDock/OUTPUTS/openbind_a71ev2a_c2_elabs_1LOUU54.sdf', '/opt/xchem-fragalysis-2/maxwin/BulkDock/OUTPUTS/openbind_a71ev2a_c2_elabs_1LSYIDY.sdf']

>  <name>  (48) 
P535668

>  <ref_pdb>  (48) 
A0554a

>  <subsites>  (48) 
None

>  <HIPPO Pose ID>  (48) 
535668

>  <ref_mols>  (48) 
A0554a

>  <HIPPO Compound ID>  (48) 
367857

>  <tags>  (48) 
openbind_a71ev2a_c2_elabs,syndirella_product,openbind_a71ev2a_c2_elabs_fragonly_scored_top80percent,openbind_a71ev2a_c2_elabs_scored,BulkDock Fragalysis export,openbind_a71ev2a_c2_elabs_scored_top80percent,openbind_a71ev2a_c2_elabs_activefrags_only_scored_5.2plus,syndirella_placed

>  <smina_score_min>  (48) 
-5.872

$$$$
P535674
     RDKit          3D

 20 21  0  0  0  0  0  0  0  0999 V2000
    3.5662   14.1352   26.1065 C   0  0  0  0  0  0  0  0  0  0  0  0
    4.4419   14.1464   27.2836 N   0  0  0  0  0  0  0  0  0  0  0  0
    5.5430   12.8797   27.4098 S   0  0  0  0  0  0  0  0  0  0  0  0
    6.2966   13.0812   28.6285 O   0  0  0  0  0  0  0  0  0  0  0  0
    4.8398   11.6415   27.1655 O   0  0  0  0  0  0  0  0  0  0  0  0
    6.7196   13.0443   26.1638 C   0  0  0  0  0  0  0  0  0  0  0  0
    7.2988   14.2417   25.7993 C   0  0  0  0  0  0  0  0  0  0  0  0
    8.2555   13.9703   24.8662 N   0  0  0  0  0  0  0  0  0  0  0  0
    8.3231   12.6179   24.6188 C   0  0  0  0  0  0  0  0  0  0  0  0
    9.1804   11.8971   23.7769 C   0  0  0  0  0  0  0  0  0  0  0  0
   10.2410   12.4870   23.1097 N   0  0  0  0  0  0  0  0  0  0  0  0
   11.0758   13.7505   23.4596 C   0  0  0  0  0  0  0  0  0  0  0  0
   10.9464   14.5293   24.3227 O   0  0  0  0  0  0  0  0  0  0  0  0
   12.1635   13.8810   22.4196 C   0  0  0  0  0  0  0  0  0  0  0  0
   11.9757   15.0822   21.5196 C   0  0  0  0  0  0  0  0  0  0  0  0
   10.3767   15.0961   20.6681 S   0  0  0  0  0  0  0  0  0  0  0  0
    8.9591   10.5334   23.6446 C   0  0  0  0  0  0  0  0  0  0  0  0
    7.9607    9.9306   24.3973 C   0  0  0  0  0  0  0  0  0  0  0  0
    7.1498   10.6356   25.2795 C   0  0  0  0  0  0  0  0  0  0  0  0
    7.3177   12.0185   25.3847 C   0  0  0  0  0  0  0  0  0  0  0  0
  1  2  1  0
  2  3  1  0
  3  4  2  0
  3  5  2  0
  3  6  1  0
  6  7  2  0
  7  8  1  0
  8  9  1  0
  9 10  2  0
 10 11  1  0
 11 12  1  0
 12 13  2  0
 12 14  1  0
 14 15  1  0
 15 16  1  0
 10 17  1  0
 17 18  2  0
 18 19  1  0
 19 20  2  0
 20  6  1  0
 20  9  1  0
M  END
>  <alias>  (49) 
None

>  <rmsd(smina/fragmenstein)>  (49) 
0.281

>  <smiles>  (49) 
CNS(=O)(=O)c1c[nH]c2c(NC(=O)CCS)cccc12

>  <gnina_score>  (49) 
5.529

>  <inspiration_score>  (49) 
None

>  <energy_score>  (49) 
-51.239075

>  <distance_score>  (49) 
0.86842

>  <gnina_score_min>  (49) 
5.533

>  <inchikey>  (49) 
KKQPTNFFCSTUMY-UHFFFAOYSA-N

>  <exports>  (49) 
['/opt/xchem-fragalysis-2/maxwin/BulkDock/OUTPUTS/openbind_a71ev2a_c2_elabs_1LOUU54.sdf', '/opt/xchem-fragalysis-2/maxwin/BulkDock/OUTPUTS/openbind_a71ev2a_c2_elabs_1LSYIDY.sdf']

>  <name>  (49) 
P535674

>  <ref_pdb>  (49) 
A0554a

>  <subsites>  (49) 
None

>  <HIPPO Pose ID>  (49) 
535674

>  <ref_mols>  (49) 
A0554a

>  <HIPPO Compound ID>  (49) 
367863

>  <tags>  (49) 
openbind_a71ev2a_c2_elabs,syndirella_product,openbind_a71ev2a_c2_elabs_fragonly_scored_top80percent,BulkDock Fragalysis export,openbind_a71ev2a_c2_elabs_scored,openbind_a71ev2a_c2_elabs_scored_top80percent,openbind_a71ev2a_c2_elabs_activefrags_only_scored_5.2plus,openbind_a71ev2a_c2_elabs_activefrags_only_scored_5.5plus,syndirella_placed

>  <smina_score_min>  (49) 
-5.611

$$$$
P535675
     RDKit          3D

 20 21  0  0  0  0  0  0  0  0999 V2000
    4.7346   16.8585   26.0309 C   0  0  0  0  0  0  0  0  0  0  0  0
    6.0645   16.6755   26.7431 C   0  0  0  0  0  0  0  0  0  0  0  0
    6.8230   15.6154   26.1372 O   0  0  0  0  0  0  0  0  0  0  0  0
    6.4340   14.3692   26.5194 C   0  0  0  0  0  0  0  0  0  0  0  0
    5.6086   14.1225   27.3898 O   0  0  0  0  0  0  0  0  0  0  0  0
    7.1344   13.3672   25.7576 C   0  0  0  0  0  0  0  0  0  0  0  0
    6.8728   12.0112   25.7730 C   0  0  0  0  0  0  0  0  0  0  0  0
    7.7818   11.3725   24.9026 C   0  0  0  0  0  0  0  0  0  0  0  0
    7.9713   10.0302   24.5437 C   0  0  0  0  0  0  0  0  0  0  0  0
    8.9609    9.7260   23.6203 C   0  0  0  0  0  0  0  0  0  0  0  0
    9.6948   10.7129   23.0198 C   0  0  0  0  0  0  0  0  0  0  0  0
    9.5761   12.0385   23.3920 C   0  0  0  0  0  0  0  0  0  0  0  0
   10.4306   12.8925   22.7316 N   0  0  0  0  0  0  0  0  0  0  0  0
   11.0555   14.2268   23.1798 C   0  0  0  0  0  0  0  0  0  0  0  0
   11.0076   14.7756   24.2054 O   0  0  0  0  0  0  0  0  0  0  0  0
   11.7314   14.7978   21.9418 C   0  0  0  0  0  0  0  0  0  0  0  0
   10.6771   15.2337   20.9262 C   0  0  0  0  0  0  0  0  0  0  0  0
   11.2548   14.9176   19.2392 S   0  0  0  0  0  0  0  0  0  0  0  0
    8.6051   12.3601   24.3480 C   0  0  0  0  0  0  0  0  0  0  0  0
    8.1784   13.5620   24.8748 N   0  0  0  0  0  0  0  0  0  0  0  0
  1  2  1  0
  2  3  1  0
  3  4  1  0
  4  5  2  0
  4  6  1  0
  6  7  2  0
  7  8  1  0
  8  9  2  0
  9 10  1  0
 10 11  2  0
 11 12  1  0
 12 13  1  0
 13 14  1  0
 14 15  2  0
 14 16  1  0
 16 17  1  0
 17 18  1  0
 12 19  2  0
 19 20  1  0
 20  6  1  0
 19  8  1  0
M  END
>  <alias>  (50) 
None

>  <rmsd(smina/fragmenstein)>  (50) 
1.338

>  <smiles>  (50) 
CCOC(=O)c1cc2cccc(NC(=O)CCS)c2[nH]1

>  <gnina_score>  (50) 
5.353

>  <inspiration_score>  (50) 
None

>  <energy_score>  (50) 
-23.189708

>  <distance_score>  (50) 
0.543719

>  <gnina_score_min>  (50) 
5.524

>  <inchikey>  (50) 
GWAJDDGEUWASNW-UHFFFAOYSA-N

>  <exports>  (50) 
['/opt/xchem-fragalysis-2/maxwin/BulkDock/OUTPUTS/openbind_a71ev2a_c2_elabs_1LOUU54.sdf', '/opt/xchem-fragalysis-2/maxwin/BulkDock/OUTPUTS/openbind_a71ev2a_c2_elabs_1LSYIDY.sdf']

>  <name>  (50) 
P535675

>  <ref_pdb>  (50) 
A0554a

>  <subsites>  (50) 
None

>  <HIPPO Pose ID>  (50) 
535675

>  <ref_mols>  (50) 
A0554a

>  <HIPPO Compound ID>  (50) 
367866

>  <tags>  (50) 
openbind_a71ev2a_c2_elabs,syndirella_product,openbind_a71ev2a_c2_elabs_fragonly_scored_top80percent,BulkDock Fragalysis export,openbind_a71ev2a_c2_elabs_scored,openbind_a71ev2a_c2_elabs_scored_top80percent,openbind_a71ev2a_c2_elabs_activefrags_only_scored_5.2plus,openbind_a71ev2a_c2_elabs_activefrags_only_scored_5.5plus,syndirella_placed

>  <smina_score_min>  (50) 
-6.149

$$$$
P535682
     RDKit          3D

 20 21  0  0  0  0  0  0  0  0999 V2000
    5.3877   15.2699   28.6565 C   0  0  0  0  0  0  0  0  0  0  0  0
    4.7973   14.2420   27.8018 N   0  0  0  0  0  0  0  0  0  0  0  0
    5.6756   12.8326   27.5475 S   0  0  0  0  0  0  0  0  0  0  0  0
    6.5625   12.6279   28.6733 O   0  0  0  0  0  0  0  0  0  0  0  0
    4.7250   11.8212   27.1470 O   0  0  0  0  0  0  0  0  0  0  0  0
    6.7406   13.0419   26.2090 C   0  0  0  0  0  0  0  0  0  0  0  0
    7.2853   14.2384   25.7952 C   0  0  0  0  0  0  0  0  0  0  0  0
    8.2150   13.9586   24.8341 N   0  0  0  0  0  0  0  0  0  0  0  0
    8.2852   12.6036   24.6012 C   0  0  0  0  0  0  0  0  0  0  0  0
    9.1304   11.8715   23.7528 C   0  0  0  0  0  0  0  0  0  0  0  0
   10.1834   12.4537   23.0635 N   0  0  0  0  0  0  0  0  0  0  0  0
   10.9768   13.7540   23.3495 C   0  0  0  0  0  0  0  0  0  0  0  0
   10.8162   14.5743   24.1648 O   0  0  0  0  0  0  0  0  0  0  0  0
   12.1108   13.8430   22.3585 C   0  0  0  0  0  0  0  0  0  0  0  0
   12.0087   15.0687   21.4828 C   0  0  0  0  0  0  0  0  0  0  0  0
   10.5309   15.0769   20.4915 Cl  0  0  0  0  0  0  0  0  0  0  0  0
    8.9166   10.5034   23.6562 C   0  0  0  0  0  0  0  0  0  0  0  0
    7.9323    9.9107   24.4368 C   0  0  0  0  0  0  0  0  0  0  0  0
    7.1361   10.6281   25.3232 C   0  0  0  0  0  0  0  0  0  0  0  0
    7.3060   12.0123   25.4057 C   0  0  0  0  0  0  0  0  0  0  0  0
  1  2  1  0
  2  3  1  0
  3  4  2  0
  3  5  2  0
  3  6  1  0
  6  7  2  0
  7  8  1  0
  8  9  1  0
  9 10  2  0
 10 11  1  0
 11 12  1  0
 12 13  2  0
 12 14  1  0
 14 15  1  0
 15 16  1  0
 10 17  1  0
 17 18  2  0
 18 19  1  0
 19 20  2  0
 20  6  1  0
 20  9  1  0
M  END
>  <alias>  (51) 
None

>  <rmsd(smina/fragmenstein)>  (51) 
0.473

>  <smiles>  (51) 
CNS(=O)(=O)c1c[nH]c2c(NC(=O)CCCl)cccc12

>  <gnina_score>  (51) 
5.495

>  <inspiration_score>  (51) 
None

>  <energy_score>  (51) 
-50.748278

>  <distance_score>  (51) 
0.888991

>  <gnina_score_min>  (51) 
5.423

>  <inchikey>  (51) 
HDUKUNHOBUAHTQ-UHFFFAOYSA-N

>  <exports>  (51) 
['/opt/xchem-fragalysis-2/maxwin/BulkDock/OUTPUTS/openbind_a71ev2a_c2_elabs_1LOUU54.sdf', '/opt/xchem-fragalysis-2/maxwin/BulkDock/OUTPUTS/openbind_a71ev2a_c2_elabs_1LSYIDY.sdf']

>  <name>  (51) 
P535682

>  <ref_pdb>  (51) 
A0554a

>  <subsites>  (51) 
None

>  <HIPPO Pose ID>  (51) 
535682

>  <ref_mols>  (51) 
A0554a

>  <HIPPO Compound ID>  (51) 
367872

>  <tags>  (51) 
openbind_a71ev2a_c2_elabs,syndirella_product,openbind_a71ev2a_c2_elabs_fragonly_scored_top80percent,openbind_a71ev2a_c2_elabs_scored,BulkDock Fragalysis export,openbind_a71ev2a_c2_elabs_scored_top80percent,openbind_a71ev2a_c2_elabs_activefrags_only_scored_5.2plus,syndirella_placed

>  <smina_score_min>  (51) 
-5.657

$$$$
P535686
     RDKit          3D

 20 21  0  0  0  0  0  0  0  0999 V2000
    4.0244   14.6932   29.2319 C   0  0  0  0  0  0  0  0  0  0  0  0
    3.5025   14.3260   27.8555 C   0  0  0  0  0  0  0  0  0  0  0  0
    4.4542   13.5004   27.1704 O   0  0  0  0  0  0  0  0  0  0  0  0
    5.4078   14.1711   26.4657 C   0  0  0  0  0  0  0  0  0  0  0  0
    5.5294   15.3863   26.4123 O   0  0  0  0  0  0  0  0  0  0  0  0
    6.2861   13.2406   25.8053 C   0  0  0  0  0  0  0  0  0  0  0  0
    6.3472   11.8611   25.8499 C   0  0  0  0  0  0  0  0  0  0  0  0
    7.4030   11.4334   25.0049 C   0  0  0  0  0  0  0  0  0  0  0  0
    7.9080   10.1700   24.6534 C   0  0  0  0  0  0  0  0  0  0  0  0
    9.0308   10.0893   23.8318 C   0  0  0  0  0  0  0  0  0  0  0  0
    9.6316   11.2479   23.3554 C   0  0  0  0  0  0  0  0  0  0  0  0
    9.1126   12.5136   23.6343 C   0  0  0  0  0  0  0  0  0  0  0  0
    9.6498   13.6273   23.0082 N   0  0  0  0  0  0  0  0  0  0  0  0
   11.1037   13.9060   22.5066 C   0  0  0  0  0  0  0  0  0  0  0  0
   12.0788   13.2687   22.6175 O   0  0  0  0  0  0  0  0  0  0  0  0
   11.0552   15.1839   21.6953 C   0  0  0  0  0  0  0  0  0  0  0  0
   10.7630   14.8225   20.2579 C   0  0  0  0  0  0  0  0  0  0  0  0
    9.9951   16.1647   19.3752 Cl  0  0  0  0  0  0  0  0  0  0  0  0
    7.9907   12.5774   24.4626 C   0  0  0  0  0  0  0  0  0  0  0  0
    7.2793   13.6514   24.9433 N   0  0  0  0  0  0  0  0  0  0  0  0
  1  2  1  0
  2  3  1  0
  3  4  1  0
  4  5  2  0
  4  6  1  0
  6  7  2  0
  7  8  1  0
  8  9  2  0
  9 10  1  0
 10 11  2  0
 11 12  1  0
 12 13  1  0
 13 14  1  0
 14 15  2  0
 14 16  1  0
 16 17  1  0
 17 18  1  0
 12 19  2  0
 19 20  1  0
 20  6  1  0
 19  8  1  0
M  END
>  <alias>  (52) 
None

>  <rmsd(smina/fragmenstein)>  (52) 
0.89

>  <smiles>  (52) 
CCOC(=O)c1cc2cccc(NC(=O)CCCl)c2[nH]1

>  <gnina_score>  (52) 
5.105

>  <inspiration_score>  (52) 
None

>  <energy_score>  (52) 
-37.720751

>  <distance_score>  (52) 
1.121322

>  <gnina_score_min>  (52) 
5.202

>  <inchikey>  (52) 
LVFHARRCWXTODN-UHFFFAOYSA-N

>  <exports>  (52) 
['/opt/xchem-fragalysis-2/maxwin/BulkDock/OUTPUTS/openbind_a71ev2a_c2_elabs_1LOUU54.sdf', '/opt/xchem-fragalysis-2/maxwin/BulkDock/OUTPUTS/openbind_a71ev2a_c2_elabs_1LSYIDY.sdf']

>  <name>  (52) 
P535686

>  <ref_pdb>  (52) 
A0554a

>  <subsites>  (52) 
None

>  <HIPPO Pose ID>  (52) 
535686

>  <ref_mols>  (52) 
A0554a

>  <HIPPO Compound ID>  (52) 
367877

>  <tags>  (52) 
openbind_a71ev2a_c2_elabs,syndirella_product,openbind_a71ev2a_c2_elabs_fragonly_scored_top80percent,openbind_a71ev2a_c2_elabs_scored,BulkDock Fragalysis export,openbind_a71ev2a_c2_elabs_scored_top80percent,openbind_a71ev2a_c2_elabs_activefrags_only_scored_5.2plus,syndirella_placed

>  <smina_score_min>  (52) 
-6.101

$$$$
P535688
     RDKit          3D

 20 21  0  0  0  0  0  0  0  0999 V2000
   10.3774   15.1531   20.8668 C   0  0  0  0  0  0  0  0  0  0  0  0
   11.8012   15.1059   21.3942 C   0  0  0  0  0  0  0  0  0  0  0  0
   12.1009   13.9440   22.3236 C   0  0  0  0  0  0  0  0  0  0  0  0
   11.0674   13.7758   23.4162 C   0  0  0  0  0  0  0  0  0  0  0  0
   10.9421   14.5592   24.2754 O   0  0  0  0  0  0  0  0  0  0  0  0
   10.2995   12.4547   23.1394 N   0  0  0  0  0  0  0  0  0  0  0  0
    9.2035   11.8987   23.7821 C   0  0  0  0  0  0  0  0  0  0  0  0
    8.9670   10.5351   23.6571 C   0  0  0  0  0  0  0  0  0  0  0  0
    7.9515    9.9447   24.3984 C   0  0  0  0  0  0  0  0  0  0  0  0
    7.1340   10.6649   25.2623 C   0  0  0  0  0  0  0  0  0  0  0  0
    7.3135   12.0476   25.3570 C   0  0  0  0  0  0  0  0  0  0  0  0
    6.7055   13.0804   26.1242 C   0  0  0  0  0  0  0  0  0  0  0  0
    5.4978   12.8730   27.3397 S   0  0  0  0  0  0  0  0  0  0  0  0
    4.2456   12.8783   26.6241 O   0  0  0  0  0  0  0  0  0  0  0  0
    5.9486   11.7358   28.1128 O   0  0  0  0  0  0  0  0  0  0  0  0
    5.4879   14.2260   28.3416 N   0  0  0  0  0  0  0  0  0  0  0  0
    6.6449   14.4554   29.2006 C   0  0  0  0  0  0  0  0  0  0  0  0
    7.2841   14.2742   25.7493 C   0  0  0  0  0  0  0  0  0  0  0  0
    8.2703   13.9872   24.8472 N   0  0  0  0  0  0  0  0  0  0  0  0
    8.3364   12.6341   24.6045 C   0  0  0  0  0  0  0  0  0  0  0  0
  1  2  1  0
  2  3  1  0
  3  4  1  0
  4  5  2  0
  4  6  1  0
  6  7  1  0
  7  8  2  0
  8  9  1  0
  9 10  2  0
 10 11  1  0
 11 12  1  0
 12 13  1  0
 13 14  2  0
 13 15  2  0
 13 16  1  0
 16 17  1  0
 12 18  2  0
 18 19  1  0
 19 20  1  0
 20  7  1  0
 20 11  2  0
M  END
>  <alias>  (53) 
None

>  <rmsd(smina/fragmenstein)>  (53) 
0.484

>  <smiles>  (53) 
CCCC(=O)Nc1cccc2c(S(=O)(=O)NC)c[nH]c12

>  <gnina_score>  (53) 
5.329

>  <inspiration_score>  (53) 
None

>  <energy_score>  (53) 
-27.313338

>  <distance_score>  (53) 
0.880731

>  <gnina_score_min>  (53) 
5.282

>  <inchikey>  (53) 
QQTODYPWSYHWPL-UHFFFAOYSA-N

>  <exports>  (53) 
['/opt/xchem-fragalysis-2/maxwin/BulkDock/OUTPUTS/openbind_a71ev2a_c2_elabs_1LOUU54.sdf', '/opt/xchem-fragalysis-2/maxwin/BulkDock/OUTPUTS/openbind_a71ev2a_c2_elabs_1LSYIDY.sdf']

>  <name>  (53) 
P535688

>  <ref_pdb>  (53) 
A0554a

>  <subsites>  (53) 
None

>  <HIPPO Pose ID>  (53) 
535688

>  <ref_mols>  (53) 
A0554a

>  <HIPPO Compound ID>  (53) 
367880

>  <tags>  (53) 
openbind_a71ev2a_c2_elabs,syndirella_product,openbind_a71ev2a_c2_elabs_fragonly_scored_top80percent,openbind_a71ev2a_c2_elabs_scored,BulkDock Fragalysis export,openbind_a71ev2a_c2_elabs_scored_top80percent,openbind_a71ev2a_c2_elabs_activefrags_only_scored_5.2plus,syndirella_placed

>  <smina_score_min>  (53) 
-5.858

$$$$
P535692
     RDKit          3D

 20 21  0  0  0  0  0  0  0  0999 V2000
    4.5040   14.4345   27.9071 C   0  0  0  0  0  0  0  0  0  0  0  0
    4.4760   13.1770   27.1606 N   0  0  0  0  0  0  0  0  0  0  0  0
    5.8500   12.2115   27.1849 S   0  0  0  0  0  0  0  0  0  0  0  0
    6.5879   12.4913   28.3983 O   0  0  0  0  0  0  0  0  0  0  0  0
    5.4196   10.8700   26.8656 O   0  0  0  0  0  0  0  0  0  0  0  0
    6.9241   12.6805   25.9197 C   0  0  0  0  0  0  0  0  0  0  0  0
    7.2415   13.9880   25.6117 C   0  0  0  0  0  0  0  0  0  0  0  0
    8.2042   13.9680   24.6460 N   0  0  0  0  0  0  0  0  0  0  0  0
    8.5387   12.6752   24.3200 C   0  0  0  0  0  0  0  0  0  0  0  0
    9.4564   12.2055   23.3696 C   0  0  0  0  0  0  0  0  0  0  0  0
   10.1892   13.0703   22.5785 N   0  0  0  0  0  0  0  0  0  0  0  0
   10.9555   14.3653   22.9463 C   0  0  0  0  0  0  0  0  0  0  0  0
   11.1506   14.8598   23.9870 O   0  0  0  0  0  0  0  0  0  0  0  0
   11.3890   15.0534   21.6387 C   0  0  1  0  0  0  0  0  0  0  0  0
   12.3592   14.2933   20.7781 C   0  0  0  0  0  0  0  0  0  0  0  0
    9.8921   15.4400   20.7284 Cl  0  0  0  0  0  0  0  0  0  0  0  0
    9.5290   10.8439   23.1640 C   0  0  0  0  0  0  0  0  0  0  0  0
    8.7656    9.9875   23.9348 C   0  0  0  0  0  0  0  0  0  0  0  0
    7.8299   10.4488   24.8652 C   0  0  0  0  0  0  0  0  0  0  0  0
    7.7033   11.8348   25.0680 C   0  0  0  0  0  0  0  0  0  0  0  0
  1  2  1  0
  2  3  1  0
  3  4  2  0
  3  5  2  0
  3  6  1  0
  6  7  2  0
  7  8  1  0
  8  9  1  0
  9 10  2  0
 10 11  1  0
 11 12  1  0
 12 13  2  0
 12 14  1  0
 14 15  1  6
 14 16  1  0
 10 17  1  0
 17 18  2  0
 18 19  1  0
 19 20  2  0
 20  6  1  0
 20  9  1  0
M  END
>  <alias>  (54) 
None

>  <rmsd(smina/fragmenstein)>  (54) 
1.257

>  <smiles>  (54) 
CNS(=O)(=O)c1c[nH]c2c(NC(=O)[C@@H](C)Cl)cccc12

>  <gnina_score>  (54) 
5.527

>  <inspiration_score>  (54) 
None

>  <energy_score>  (54) 
-36.604446

>  <distance_score>  (54) 
0.861594

>  <gnina_score_min>  (54) 
5.373

>  <inchikey>  (54) 
BAZAVLWJKHPHJA-SSDOTTSWSA-N

>  <exports>  (54) 
['/opt/xchem-fragalysis-2/maxwin/BulkDock/OUTPUTS/openbind_a71ev2a_c2_elabs_1LOUU54.sdf', '/opt/xchem-fragalysis-2/maxwin/BulkDock/OUTPUTS/openbind_a71ev2a_c2_elabs_1LSYIDY.sdf']

>  <name>  (54) 
P535692

>  <ref_pdb>  (54) 
A0554a

>  <subsites>  (54) 
None

>  <HIPPO Pose ID>  (54) 
535692

>  <ref_mols>  (54) 
A0554a

>  <HIPPO Compound ID>  (54) 
367884

>  <tags>  (54) 
openbind_a71ev2a_c2_elabs,syndirella_product,openbind_a71ev2a_c2_elabs_fragonly_scored_top80percent,openbind_a71ev2a_c2_elabs_scored,BulkDock Fragalysis export,openbind_a71ev2a_c2_elabs_scored_top80percent,openbind_a71ev2a_c2_elabs_activefrags_only_scored_5.2plus,syndirella_placed

>  <smina_score_min>  (54) 
-6.302

$$$$
P535697
     RDKit          3D

 20 21  0  0  0  0  0  0  0  0999 V2000
    6.6229   16.7689   29.4877 C   0  0  0  0  0  0  0  0  0  0  0  0
    6.0642   16.8243   28.0784 C   0  0  0  0  0  0  0  0  0  0  0  0
    6.2643   15.5669   27.4178 O   0  0  0  0  0  0  0  0  0  0  0  0
    7.4506   15.4255   26.7716 C   0  0  0  0  0  0  0  0  0  0  0  0
    8.3785   16.2251   26.7893 O   0  0  0  0  0  0  0  0  0  0  0  0
    7.4921   14.1725   26.0685 C   0  0  0  0  0  0  0  0  0  0  0  0
    6.7269   13.0270   26.1837 C   0  0  0  0  0  0  0  0  0  0  0  0
    7.3316   12.0202   25.3866 C   0  0  0  0  0  0  0  0  0  0  0  0
    7.0887   10.6582   25.2166 C   0  0  0  0  0  0  0  0  0  0  0  0
    7.8974    9.9510   24.3339 C   0  0  0  0  0  0  0  0  0  0  0  0
    8.9368   10.5422   23.6257 C   0  0  0  0  0  0  0  0  0  0  0  0
    9.2165   11.8894   23.8156 C   0  0  0  0  0  0  0  0  0  0  0  0
   10.2697   12.4727   23.1310 N   0  0  0  0  0  0  0  0  0  0  0  0
   11.1053   13.7402   23.4570 C   0  0  0  0  0  0  0  0  0  0  0  0
   10.9832   14.5291   24.3116 O   0  0  0  0  0  0  0  0  0  0  0  0
   12.1611   13.8765   22.3879 C   0  0  0  0  0  0  0  0  0  0  0  0
   12.0155   15.1409   21.5684 C   0  0  0  0  0  0  0  0  0  0  0  0
   10.1245   15.3295   20.6040 I   0  0  0  0  0  0  0  0  0  0  0  0
    8.3989   12.5990   24.7043 C   0  0  0  0  0  0  0  0  0  0  0  0
    8.4386   13.9112   25.1071 N   0  0  0  0  0  0  0  0  0  0  0  0
  1  2  1  0
  2  3  1  0
  3  4  1  0
  4  5  2  0
  4  6  1  0
  6  7  2  0
  7  8  1  0
  8  9  2  0
  9 10  1  0
 10 11  2  0
 11 12  1  0
 12 13  1  0
 13 14  1  0
 14 15  2  0
 14 16  1  0
 16 17  1  0
 17 18  1  0
 12 19  2  0
 19 20  1  0
 20  6  1  0
 19  8  1  0
M  END
>  <alias>  (55) 
None

>  <rmsd(smina/fragmenstein)>  (55) 
0.94

>  <smiles>  (55) 
CCOC(=O)c1cc2cccc(NC(=O)CCI)c2[nH]1

>  <gnina_score>  (55) 
5.238

>  <inspiration_score>  (55) 
None

>  <energy_score>  (55) 
-7.364877

>  <distance_score>  (55) 
0.879148

>  <gnina_score_min>  (55) 
5.339

>  <inchikey>  (55) 
KGCLHLDUVQZDOB-UHFFFAOYSA-N

>  <exports>  (55) 
['/opt/xchem-fragalysis-2/maxwin/BulkDock/OUTPUTS/openbind_a71ev2a_c2_elabs_1LOUU54.sdf', '/opt/xchem-fragalysis-2/maxwin/BulkDock/OUTPUTS/openbind_a71ev2a_c2_elabs_1LSYIDY.sdf']

>  <name>  (55) 
P535697

>  <ref_pdb>  (55) 
A0554a

>  <subsites>  (55) 
None

>  <HIPPO Pose ID>  (55) 
535697

>  <ref_mols>  (55) 
A0554a

>  <HIPPO Compound ID>  (55) 
367890

>  <tags>  (55) 
openbind_a71ev2a_c2_elabs,syndirella_product,openbind_a71ev2a_c2_elabs_fragonly_scored_top80percent,openbind_a71ev2a_c2_elabs_scored,BulkDock Fragalysis export,openbind_a71ev2a_c2_elabs_scored_top80percent,openbind_a71ev2a_c2_elabs_activefrags_only_scored_5.2plus,syndirella_placed

>  <smina_score_min>  (55) 
-5.553

$$$$
P535698
     RDKit          3D

 20 21  0  0  0  0  0  0  0  0999 V2000
   10.4416   15.0934   20.7671 C   0  0  0  0  0  0  0  0  0  0  0  0
   11.8298   14.8941   21.2797 C   0  0  0  0  0  0  0  0  0  0  0  0
   12.2140   14.4722   22.4910 C   0  0  0  0  0  0  0  0  0  0  0  0
   11.2909   14.0623   23.5689 C   0  0  0  0  0  0  0  0  0  0  0  0
   11.2202   14.6388   24.5769 O   0  0  0  0  0  0  0  0  0  0  0  0
   10.5372   12.8168   23.0790 N   0  0  0  0  0  0  0  0  0  0  0  0
    9.5115   12.1019   23.6634 C   0  0  0  0  0  0  0  0  0  0  0  0
    9.3367   10.7811   23.2980 C   0  0  0  0  0  0  0  0  0  0  0  0
    8.3275   10.0361   23.8799 C   0  0  0  0  0  0  0  0  0  0  0  0
    7.4420   10.5572   24.8185 C   0  0  0  0  0  0  0  0  0  0  0  0
    7.5619   11.9101   25.1453 C   0  0  0  0  0  0  0  0  0  0  0  0
    6.8155   12.7887   25.9743 C   0  0  0  0  0  0  0  0  0  0  0  0
    7.4491   14.0188   25.9754 C   0  0  0  0  0  0  0  0  0  0  0  0
    7.1751   15.2318   26.6990 C   0  0  0  0  0  0  0  0  0  0  0  0
    7.9685   16.1552   26.8224 O   0  0  0  0  0  0  0  0  0  0  0  0
    5.9263   15.1879   27.2374 O   0  0  0  0  0  0  0  0  0  0  0  0
    5.5363   16.4024   27.8869 C   0  0  0  0  0  0  0  0  0  0  0  0
    4.1089   16.2412   28.3720 C   0  0  0  0  0  0  0  0  0  0  0  0
    8.5152   13.9104   25.1129 N   0  0  0  0  0  0  0  0  0  0  0  0
    8.6089   12.6439   24.5875 C   0  0  0  0  0  0  0  0  0  0  0  0
  1  2  1  0
  2  3  2  0
  3  4  1  0
  4  5  2  0
  4  6  1  0
  6  7  1  0
  7  8  2  0
  8  9  1  0
  9 10  2  0
 10 11  1  0
 11 12  1  0
 12 13  2  0
 13 14  1  0
 14 15  2  0
 14 16  1  0
 16 17  1  0
 17 18  1  0
 13 19  1  0
 19 20  1  0
 20  7  1  0
 20 11  2  0
M  END
>  <alias>  (56) 
None

>  <rmsd(smina/fragmenstein)>  (56) 
0.944

>  <smiles>  (56) 
C/C=C\C(=O)Nc1cccc2cc(C(=O)OCC)[nH]c12

>  <gnina_score>  (56) 
5.092

>  <inspiration_score>  (56) 
None

>  <energy_score>  (56) 
-40.940521

>  <distance_score>  (56) 
0.741586

>  <gnina_score_min>  (56) 
5.246

>  <inchikey>  (56) 
HSTZDKBMPGFXAY-UTCJRWHESA-N

>  <exports>  (56) 
['/opt/xchem-fragalysis-2/maxwin/BulkDock/OUTPUTS/openbind_a71ev2a_c2_elabs_1LOUU54.sdf', '/opt/xchem-fragalysis-2/maxwin/BulkDock/OUTPUTS/openbind_a71ev2a_c2_elabs_1LSYIDY.sdf']

>  <name>  (56) 
P535698

>  <ref_pdb>  (56) 
A0554a

>  <subsites>  (56) 
None

>  <HIPPO Pose ID>  (56) 
535698

>  <ref_mols>  (56) 
A0554a

>  <HIPPO Compound ID>  (56) 
367891

>  <tags>  (56) 
openbind_a71ev2a_c2_elabs,syndirella_product,openbind_a71ev2a_c2_elabs_fragonly_scored_top80percent,openbind_a71ev2a_c2_elabs_scored,BulkDock Fragalysis export,openbind_a71ev2a_c2_elabs_scored_top80percent,openbind_a71ev2a_c2_elabs_activefrags_only_scored_5.2plus,syndirella_placed

>  <smina_score_min>  (56) 
-6.62

$$$$
P535702
     RDKit          3D

 20 21  0  0  0  0  0  0  0  0999 V2000
    5.8034   16.0154   29.2100 C   0  0  0  0  0  0  0  0  0  0  0  0
    5.3669   16.0254   27.7570 C   0  0  0  0  0  0  0  0  0  0  0  0
    5.8933   14.8791   27.0750 O   0  0  0  0  0  0  0  0  0  0  0  0
    7.1319   15.0436   26.5353 C   0  0  0  0  0  0  0  0  0  0  0  0
    7.8428   16.0294   26.6740 O   0  0  0  0  0  0  0  0  0  0  0  0
    7.5124   13.8684   25.7961 C   0  0  0  0  0  0  0  0  0  0  0  0
    6.9774   12.5919   25.7633 C   0  0  0  0  0  0  0  0  0  0  0  0
    7.7994   11.7895   24.9257 C   0  0  0  0  0  0  0  0  0  0  0  0
    7.7865   10.4336   24.5686 C   0  0  0  0  0  0  0  0  0  0  0  0
    8.7228    9.9977   23.6353 C   0  0  0  0  0  0  0  0  0  0  0  0
    9.6394   10.8559   23.0586 C   0  0  0  0  0  0  0  0  0  0  0  0
    9.7180   12.1830   23.4401 C   0  0  0  0  0  0  0  0  0  0  0  0
   10.6676   12.9906   22.8350 N   0  0  0  0  0  0  0  0  0  0  0  0
   11.4000   14.2472   23.3609 C   0  0  0  0  0  0  0  0  0  0  0  0
   11.3745   14.7530   24.4138 O   0  0  0  0  0  0  0  0  0  0  0  0
   12.2461   14.8330   22.2041 C   0  0  0  0  0  0  0  0  0  0  0  0
   12.1878   14.2278   20.9264 O   0  0  0  0  0  0  0  0  0  0  0  0
   11.0136   14.7188   20.2186 N   0  0  0  0  0  0  0  0  0  0  0  0
    8.7896   12.6203   24.3925 C   0  0  0  0  0  0  0  0  0  0  0  0
    8.5986   13.8609   24.9513 N   0  0  0  0  0  0  0  0  0  0  0  0
  1  2  1  0
  2  3  1  0
  3  4  1  0
  4  5  2  0
  4  6  1  0
  6  7  2  0
  7  8  1  0
  8  9  2  0
  9 10  1  0
 10 11  2  0
 11 12  1  0
 12 13  1  0
 13 14  1  0
 14 15  2  0
 14 16  1  0
 16 17  1  0
 17 18  1  0
 12 19  2  0
 19 20  1  0
 20  6  1  0
 19  8  1  0
M  END
>  <alias>  (57) 
None

>  <rmsd(smina/fragmenstein)>  (57) 
1.666

>  <smiles>  (57) 
CCOC(=O)c1cc2cccc(NC(=O)CON)c2[nH]1

>  <gnina_score>  (57) 
5.319

>  <inspiration_score>  (57) 
None

>  <energy_score>  (57) 
-20.74805

>  <distance_score>  (57) 
0.741798

>  <gnina_score_min>  (57) 
5.503

>  <inchikey>  (57) 
YRFIHRGEEWWBGN-UHFFFAOYSA-N

>  <exports>  (57) 
['/opt/xchem-fragalysis-2/maxwin/BulkDock/OUTPUTS/openbind_a71ev2a_c2_elabs_1LOUU54.sdf', '/opt/xchem-fragalysis-2/maxwin/BulkDock/OUTPUTS/openbind_a71ev2a_c2_elabs_1LSYIDY.sdf']

>  <name>  (57) 
P535702

>  <ref_pdb>  (57) 
A0554a

>  <subsites>  (57) 
None

>  <HIPPO Pose ID>  (57) 
535702

>  <ref_mols>  (57) 
A0554a

>  <HIPPO Compound ID>  (57) 
367897

>  <tags>  (57) 
openbind_a71ev2a_c2_elabs,syndirella_product,openbind_a71ev2a_c2_elabs_fragonly_scored_top80percent,BulkDock Fragalysis export,openbind_a71ev2a_c2_elabs_scored,openbind_a71ev2a_c2_elabs_scored_top80percent,openbind_a71ev2a_c2_elabs_activefrags_only_scored_5.2plus,openbind_a71ev2a_c2_elabs_activefrags_only_scored_5.5plus,syndirella_placed

>  <smina_score_min>  (57) 
-6.046

$$$$
P535708
     RDKit          3D

 20 21  0  0  0  0  0  0  0  0999 V2000
   11.1278   14.9518   19.6598 C   0  0  0  0  0  0  0  0  0  0  0  0
   11.6578   14.7554   20.8285 C   0  0  0  0  0  0  0  0  0  0  0  0
   12.1935   14.6033   22.0043 C   0  0  0  0  0  0  0  0  0  0  0  0
   11.3920   14.1493   23.1722 C   0  0  0  0  0  0  0  0  0  0  0  0
   11.3877   14.7589   24.1670 O   0  0  0  0  0  0  0  0  0  0  0  0
   10.6308   12.8661   22.7830 N   0  0  0  0  0  0  0  0  0  0  0  0
    9.6694   12.1438   23.4745 C   0  0  0  0  0  0  0  0  0  0  0  0
    9.4895   10.8082   23.1575 C   0  0  0  0  0  0  0  0  0  0  0  0
    8.5021   10.0626   23.7789 C   0  0  0  0  0  0  0  0  0  0  0  0
    7.6233   10.6058   24.7107 C   0  0  0  0  0  0  0  0  0  0  0  0
    7.7608   11.9631   25.0186 C   0  0  0  0  0  0  0  0  0  0  0  0
    7.0380   12.8584   25.8550 C   0  0  0  0  0  0  0  0  0  0  0  0
    7.7048   14.0712   25.8543 C   0  0  0  0  0  0  0  0  0  0  0  0
    7.5047   15.2763   26.6125 C   0  0  0  0  0  0  0  0  0  0  0  0
    8.3628   16.1387   26.7573 O   0  0  0  0  0  0  0  0  0  0  0  0
    6.2571   15.2984   27.1490 O   0  0  0  0  0  0  0  0  0  0  0  0
    5.9331   16.5252   27.8127 C   0  0  0  0  0  0  0  0  0  0  0  0
    4.4908   16.4469   28.2732 C   0  0  0  0  0  0  0  0  0  0  0  0
    8.7341   13.9504   24.9522 N   0  0  0  0  0  0  0  0  0  0  0  0
    8.8024   12.6850   24.4303 C   0  0  0  0  0  0  0  0  0  0  0  0
  1  2  2  0
  2  3  2  0
  3  4  1  0
  4  5  2  0
  4  6  1  0
  6  7  1  0
  7  8  2  0
  8  9  1  0
  9 10  2  0
 10 11  1  0
 11 12  1  0
 12 13  2  0
 13 14  1  0
 14 15  2  0
 14 16  1  0
 16 17  1  0
 17 18  1  0
 13 19  1  0
 19 20  1  0
 20  7  1  0
 20 11  2  0
M  END
>  <alias>  (58) 
None

>  <rmsd(smina/fragmenstein)>  (58) 
0.967

>  <smiles>  (58) 
C=C=CC(=O)Nc1cccc2cc(C(=O)OCC)[nH]c12

>  <gnina_score>  (58) 
4.965

>  <inspiration_score>  (58) 
None

>  <energy_score>  (58) 
-34.743928

>  <distance_score>  (58) 
0.834782

>  <gnina_score_min>  (58) 
5.357

>  <inchikey>  (58) 
RCSVXVSDNYBROY-UHFFFAOYSA-N

>  <exports>  (58) 
['/opt/xchem-fragalysis-2/maxwin/BulkDock/OUTPUTS/openbind_a71ev2a_c2_elabs_1LOUU54.sdf', '/opt/xchem-fragalysis-2/maxwin/BulkDock/OUTPUTS/openbind_a71ev2a_c2_elabs_1LSYIDY.sdf']

>  <name>  (58) 
P535708

>  <ref_pdb>  (58) 
A0554a

>  <subsites>  (58) 
None

>  <HIPPO Pose ID>  (58) 
535708

>  <ref_mols>  (58) 
A0554a

>  <HIPPO Compound ID>  (58) 
367910

>  <tags>  (58) 
openbind_a71ev2a_c2_elabs,syndirella_product,openbind_a71ev2a_c2_elabs_fragonly_scored_top80percent,openbind_a71ev2a_c2_elabs_scored,BulkDock Fragalysis export,openbind_a71ev2a_c2_elabs_scored_top80percent,openbind_a71ev2a_c2_elabs_activefrags_only_scored_5.2plus,syndirella_placed

>  <smina_score_min>  (58) 
-6.617

$$$$
P535710
     RDKit          3D

 20 21  0  0  0  0  0  0  0  0999 V2000
    6.7314   14.0975   29.3829 C   0  0  0  0  0  0  0  0  0  0  0  0
    5.5463   13.9899   28.5381 N   0  0  0  0  0  0  0  0  0  0  0  0
    5.4831   12.7341   27.4175 S   0  0  0  0  0  0  0  0  0  0  0  0
    4.2338   12.8742   26.7101 O   0  0  0  0  0  0  0  0  0  0  0  0
    5.8683   11.5101   28.0858 O   0  0  0  0  0  0  0  0  0  0  0  0
    6.7020   12.9919   26.2227 C   0  0  0  0  0  0  0  0  0  0  0  0
    7.2786   14.2028   25.9035 C   0  0  0  0  0  0  0  0  0  0  0  0
    8.2695   13.9597   24.9933 N   0  0  0  0  0  0  0  0  0  0  0  0
    8.3354   12.6188   24.6842 C   0  0  0  0  0  0  0  0  0  0  0  0
    9.1866   11.9268   23.8056 C   0  0  0  0  0  0  0  0  0  0  0  0
   10.1850   12.5647   23.0894 N   0  0  0  0  0  0  0  0  0  0  0  0
   10.9689   13.8689   23.3959 C   0  0  0  0  0  0  0  0  0  0  0  0
   10.9466   14.5618   24.3358 O   0  0  0  0  0  0  0  0  0  0  0  0
   11.7634   14.2040   22.1563 C   0  0  0  0  0  0  0  0  0  0  0  0
   10.7826   14.8677   21.1941 C   0  0  0  0  0  0  0  0  0  0  0  0
   11.4596   14.8180   19.2235 I   0  0  0  0  0  0  0  0  0  0  0  0
    8.9659   10.5701   23.6285 C   0  0  0  0  0  0  0  0  0  0  0  0
    7.9674    9.9436   24.3619 C   0  0  0  0  0  0  0  0  0  0  0  0
    7.1507   10.6177   25.2634 C   0  0  0  0  0  0  0  0  0  0  0  0
    7.3208   11.9952   25.4177 C   0  0  0  0  0  0  0  0  0  0  0  0
  1  2  1  0
  2  3  1  0
  3  4  2  0
  3  5  2  0
  3  6  1  0
  6  7  2  0
  7  8  1  0
  8  9  1  0
  9 10  2  0
 10 11  1  0
 11 12  1  0
 12 13  2  0
 12 14  1  0
 14 15  1  0
 15 16  1  0
 10 17  1  0
 17 18  2  0
 18 19  1  0
 19 20  2  0
 20  6  1  0
 20  9  1  0
M  END
>  <alias>  (59) 
None

>  <rmsd(smina/fragmenstein)>  (59) 
0.528

>  <smiles>  (59) 
CNS(=O)(=O)c1c[nH]c2c(NC(=O)CCI)cccc12

>  <gnina_score>  (59) 
5.329

>  <inspiration_score>  (59) 
None

>  <energy_score>  (59) 
-22.897536

>  <distance_score>  (59) 
0.865931

>  <gnina_score_min>  (59) 
5.569

>  <inchikey>  (59) 
UJZMIWBEMRGFOO-UHFFFAOYSA-N

>  <exports>  (59) 
['/opt/xchem-fragalysis-2/maxwin/BulkDock/OUTPUTS/openbind_a71ev2a_c2_elabs_1LOUU54.sdf', '/opt/xchem-fragalysis-2/maxwin/BulkDock/OUTPUTS/openbind_a71ev2a_c2_elabs_1LSYIDY.sdf']

>  <name>  (59) 
P535710

>  <ref_pdb>  (59) 
A0554a

>  <subsites>  (59) 
None

>  <HIPPO Pose ID>  (59) 
535710

>  <ref_mols>  (59) 
A0554a

>  <HIPPO Compound ID>  (59) 
367914

>  <tags>  (59) 
openbind_a71ev2a_c2_elabs,syndirella_product,openbind_a71ev2a_c2_elabs_fragonly_scored_top80percent,BulkDock Fragalysis export,openbind_a71ev2a_c2_elabs_scored,openbind_a71ev2a_c2_elabs_scored_top80percent,openbind_a71ev2a_c2_elabs_activefrags_only_scored_5.2plus,openbind_a71ev2a_c2_elabs_activefrags_only_scored_5.5plus,syndirella_placed

>  <smina_score_min>  (59) 
-5.547

$$$$
P535714
     RDKit          3D

 20 21  0  0  0  0  0  0  0  0999 V2000
    3.7330   16.7731   27.8527 C   0  0  0  0  0  0  0  0  0  0  0  0
    5.1803   16.7783   27.4006 C   0  0  0  0  0  0  0  0  0  0  0  0
    5.4861   15.4847   26.8697 O   0  0  0  0  0  0  0  0  0  0  0  0
    6.7530   15.3783   26.3847 C   0  0  0  0  0  0  0  0  0  0  0  0
    7.6214   16.2341   26.4705 O   0  0  0  0  0  0  0  0  0  0  0  0
    6.9542   14.0820   25.7985 C   0  0  0  0  0  0  0  0  0  0  0  0
    6.3131   12.8830   26.0292 C   0  0  0  0  0  0  0  0  0  0  0  0
    7.0296   11.8746   25.3426 C   0  0  0  0  0  0  0  0  0  0  0  0
    6.9358   10.4869   25.3407 C   0  0  0  0  0  0  0  0  0  0  0  0
    7.8489    9.7676   24.5840 C   0  0  0  0  0  0  0  0  0  0  0  0
    8.8474   10.3644   23.8319 C   0  0  0  0  0  0  0  0  0  0  0  0
    8.9572   11.7470   23.8267 C   0  0  0  0  0  0  0  0  0  0  0  0
   10.0596   12.3173   23.2179 N   0  0  0  0  0  0  0  0  0  0  0  0
   10.4547   13.8018   23.0448 C   0  0  0  0  0  0  0  0  0  0  0  0
    9.8753   14.7735   23.3200 O   0  0  0  0  0  0  0  0  0  0  0  0
   11.8675   13.8602   22.5152 C   0  0  0  0  0  0  0  0  0  0  0  0
   12.6922   13.4032   23.6353 C   0  0  0  0  0  0  0  0  0  0  0  0
   13.2733   12.9415   24.5298 N   0  0  0  0  0  0  0  0  0  0  0  0
    8.0342   12.4831   24.5926 C   0  0  0  0  0  0  0  0  0  0  0  0
    7.9351   13.8296   24.8679 N   0  0  0  0  0  0  0  0  0  0  0  0
  1  2  1  0
  2  3  1  0
  3  4  1  0
  4  5  2  0
  4  6  1  0
  6  7  2  0
  7  8  1  0
  8  9  2  0
  9 10  1  0
 10 11  2  0
 11 12  1  0
 12 13  1  0
 13 14  1  0
 14 15  2  0
 14 16  1  0
 16 17  1  0
 17 18  3  0
 12 19  2  0
 19 20  1  0
 20  6  1  0
 19  8  1  0
M  END
>  <alias>  (60) 
None

>  <rmsd(smina/fragmenstein)>  (60) 
1.666

>  <smiles>  (60) 
CCOC(=O)c1cc2cccc(NC(=O)CC#N)c2[nH]1

>  <gnina_score>  (60) 
5.049

>  <inspiration_score>  (60) 
None

>  <energy_score>  (60) 
-77.567857

>  <distance_score>  (60) 
1.027079

>  <gnina_score_min>  (60) 
5.205

>  <inchikey>  (60) 
UCWQAHNEQFJSEE-UHFFFAOYSA-N

>  <exports>  (60) 
['/opt/xchem-fragalysis-2/maxwin/BulkDock/OUTPUTS/openbind_a71ev2a_c2_elabs_1LOUU54.sdf', '/opt/xchem-fragalysis-2/maxwin/BulkDock/OUTPUTS/openbind_a71ev2a_c2_elabs_1LSYIDY.sdf']

>  <name>  (60) 
P535714

>  <ref_pdb>  (60) 
A0554a

>  <subsites>  (60) 
None

>  <HIPPO Pose ID>  (60) 
535714

>  <ref_mols>  (60) 
A0554a

>  <HIPPO Compound ID>  (60) 
367917

>  <tags>  (60) 
openbind_a71ev2a_c2_elabs,syndirella_product,openbind_a71ev2a_c2_elabs_fragonly_scored_top80percent,openbind_a71ev2a_c2_elabs_scored,BulkDock Fragalysis export,openbind_a71ev2a_c2_elabs_scored_top80percent,openbind_a71ev2a_c2_elabs_activefrags_only_scored_5.2plus,syndirella_placed

>  <smina_score_min>  (60) 
-5.914

$$$$
P535717
     RDKit          3D

 20 21  0  0  0  0  0  0  0  0999 V2000
    6.6170   14.4765   29.2119 C   0  0  0  0  0  0  0  0  0  0  0  0
    5.5937   14.2958   28.1865 N   0  0  0  0  0  0  0  0  0  0  0  0
    5.6726   12.9006   27.2462 S   0  0  0  0  0  0  0  0  0  0  0  0
    4.4160   12.8044   26.5460 O   0  0  0  0  0  0  0  0  0  0  0  0
    6.1679   11.8301   28.0848 O   0  0  0  0  0  0  0  0  0  0  0  0
    6.8765   13.1136   26.0326 C   0  0  0  0  0  0  0  0  0  0  0  0
    7.4375   14.3196   25.6722 C   0  0  0  0  0  0  0  0  0  0  0  0
    8.4077   14.0644   24.7463 N   0  0  0  0  0  0  0  0  0  0  0  0
    8.5016   12.7157   24.4884 C   0  0  0  0  0  0  0  0  0  0  0  0
    9.3499   12.0185   23.6114 C   0  0  0  0  0  0  0  0  0  0  0  0
   10.3308   12.6409   22.8468 N   0  0  0  0  0  0  0  0  0  0  0  0
   11.1223   13.9592   23.0962 C   0  0  0  0  0  0  0  0  0  0  0  0
   11.1240   14.6796   24.0191 O   0  0  0  0  0  0  0  0  0  0  0  0
   11.8961   14.2885   21.8300 C   0  0  0  0  0  0  0  0  0  0  0  0
   10.9856   14.9716   20.9152 C   0  0  0  0  0  0  0  0  0  0  0  0
   10.2243   15.5046   20.2221 N   0  0  0  0  0  0  0  0  0  0  0  0
    9.1429   10.6516   23.4855 C   0  0  0  0  0  0  0  0  0  0  0  0
    8.1655   10.0271   24.2519 C   0  0  0  0  0  0  0  0  0  0  0  0
    7.3442   10.7146   25.1403 C   0  0  0  0  0  0  0  0  0  0  0  0
    7.5014   12.0990   25.2530 C   0  0  0  0  0  0  0  0  0  0  0  0
  1  2  1  0
  2  3  1  0
  3  4  2  0
  3  5  2  0
  3  6  1  0
  6  7  2  0
  7  8  1  0
  8  9  1  0
  9 10  2  0
 10 11  1  0
 11 12  1  0
 12 13  2  0
 12 14  1  0
 14 15  1  0
 15 16  3  0
 10 17  1  0
 17 18  2  0
 18 19  1  0
 19 20  2  0
 20  6  1  0
 20  9  1  0
M  END
>  <alias>  (61) 
None

>  <rmsd(smina/fragmenstein)>  (61) 
0.55

>  <smiles>  (61) 
CNS(=O)(=O)c1c[nH]c2c(NC(=O)CC#N)cccc12

>  <gnina_score>  (61) 
5.511

>  <inspiration_score>  (61) 
None

>  <energy_score>  (61) 
-39.407948

>  <distance_score>  (61) 
0.904217

>  <gnina_score_min>  (61) 
5.582

>  <inchikey>  (61) 
UEKVBULEQQUVKB-UHFFFAOYSA-N

>  <exports>  (61) 
['/opt/xchem-fragalysis-2/maxwin/BulkDock/OUTPUTS/openbind_a71ev2a_c2_elabs_1LOUU54.sdf', '/opt/xchem-fragalysis-2/maxwin/BulkDock/OUTPUTS/openbind_a71ev2a_c2_elabs_1LSYIDY.sdf']

>  <name>  (61) 
P535717

>  <ref_pdb>  (61) 
A0554a

>  <subsites>  (61) 
None

>  <HIPPO Pose ID>  (61) 
535717

>  <ref_mols>  (61) 
A0554a

>  <HIPPO Compound ID>  (61) 
367921

>  <tags>  (61) 
openbind_a71ev2a_c2_elabs,syndirella_product,openbind_a71ev2a_c2_elabs_fragonly_scored_top80percent,BulkDock Fragalysis export,openbind_a71ev2a_c2_elabs_scored,openbind_a71ev2a_c2_elabs_scored_top80percent,openbind_a71ev2a_c2_elabs_activefrags_only_scored_5.2plus,openbind_a71ev2a_c2_elabs_activefrags_only_scored_5.5plus,syndirella_placed

>  <smina_score_min>  (61) 
-6.401

$$$$
P535719
     RDKit          3D

 20 21  0  0  0  0  0  0  0  0999 V2000
    4.1012   14.7762   25.2419 C   0  0  0  0  0  0  0  0  0  0  0  0
    4.2144   13.3466   25.5610 N   0  0  0  0  0  0  0  0  0  0  0  0
    5.4489   12.9018   26.6237 S   0  0  0  0  0  0  0  0  0  0  0  0
    5.3283   11.4859   26.8922 O   0  0  0  0  0  0  0  0  0  0  0  0
    5.5324   13.8663   27.6979 O   0  0  0  0  0  0  0  0  0  0  0  0
    6.9378   13.0753   25.7677 C   0  0  0  0  0  0  0  0  0  0  0  0
    7.6011   14.2728   25.6009 C   0  0  0  0  0  0  0  0  0  0  0  0
    8.6742   14.0423   24.7944 N   0  0  0  0  0  0  0  0  0  0  0  0
    8.7246   12.7232   24.4108 C   0  0  0  0  0  0  0  0  0  0  0  0
    9.5956   12.0816   23.5183 C   0  0  0  0  0  0  0  0  0  0  0  0
   10.5886   12.7446   22.8144 N   0  0  0  0  0  0  0  0  0  0  0  0
   11.3628   14.0509   23.1490 C   0  0  0  0  0  0  0  0  0  0  0  0
   11.3355   14.7246   24.1061 O   0  0  0  0  0  0  0  0  0  0  0  0
   12.1723   14.4383   21.8991 C   0  0  0  0  0  0  0  0  0  0  0  0
   11.5553   15.4965   21.1935 O   0  0  0  0  0  0  0  0  0  0  0  0
   10.6225   15.0714   20.2135 C   0  0  0  0  0  0  0  0  0  0  0  0
    9.3836   10.7347   23.2831 C   0  0  0  0  0  0  0  0  0  0  0  0
    8.3685   10.0706   23.9507 C   0  0  0  0  0  0  0  0  0  0  0  0
    7.5008   10.7030   24.8349 C   0  0  0  0  0  0  0  0  0  0  0  0
    7.6546   12.0781   25.0458 C   0  0  0  0  0  0  0  0  0  0  0  0
  1  2  1  0
  2  3  1  0
  3  4  2  0
  3  5  2  0
  3  6  1  0
  6  7  2  0
  7  8  1  0
  8  9  1  0
  9 10  2  0
 10 11  1  0
 11 12  1  0
 12 13  2  0
 12 14  1  0
 14 15  1  0
 15 16  1  0
 10 17  1  0
 17 18  2  0
 18 19  1  0
 19 20  2  0
 20  6  1  0
 20  9  1  0
M  END
>  <alias>  (62) 
None

>  <rmsd(smina/fragmenstein)>  (62) 
0.28

>  <smiles>  (62) 
CNS(=O)(=O)c1c[nH]c2c(NC(=O)COC)cccc12

>  <gnina_score>  (62) 
5.457

>  <inspiration_score>  (62) 
None

>  <energy_score>  (62) 
-23.509895

>  <distance_score>  (62) 
0.877695

>  <gnina_score_min>  (62) 
5.425

>  <inchikey>  (62) 
AYZUFMOTGYQQJJ-UHFFFAOYSA-N

>  <exports>  (62) 
['/opt/xchem-fragalysis-2/maxwin/BulkDock/OUTPUTS/openbind_a71ev2a_c2_elabs_1LOUU54.sdf', '/opt/xchem-fragalysis-2/maxwin/BulkDock/OUTPUTS/openbind_a71ev2a_c2_elabs_1LSYIDY.sdf']

>  <name>  (62) 
P535719

>  <ref_pdb>  (62) 
A0554a

>  <subsites>  (62) 
None

>  <HIPPO Pose ID>  (62) 
535719

>  <ref_mols>  (62) 
A0554a

>  <HIPPO Compound ID>  (62) 
367926

>  <tags>  (62) 
openbind_a71ev2a_c2_elabs,syndirella_product,openbind_a71ev2a_c2_elabs_fragonly_scored_top80percent,openbind_a71ev2a_c2_elabs_scored,BulkDock Fragalysis export,openbind_a71ev2a_c2_elabs_scored_top80percent,openbind_a71ev2a_c2_elabs_activefrags_only_scored_5.2plus,syndirella_placed

>  <smina_score_min>  (62) 
-6.481

$$$$
P535720
     RDKit          3D

 20 21  0  0  0  0  0  0  0  0999 V2000
    9.9753   15.4930   20.6599 C   0  0  0  0  0  0  0  0  0  0  0  0
   11.2356   15.0586   20.7845 C   0  0  0  0  0  0  0  0  0  0  0  0
   11.9539   14.6847   22.0507 C   0  0  0  0  0  0  0  0  0  0  0  0
   11.0802   14.2140   23.2255 C   0  0  0  0  0  0  0  0  0  0  0  0
   11.0279   14.7553   24.2568 O   0  0  0  0  0  0  0  0  0  0  0  0
   10.3526   12.9501   22.7215 N   0  0  0  0  0  0  0  0  0  0  0  0
    9.5194   12.0739   23.3818 C   0  0  0  0  0  0  0  0  0  0  0  0
    9.6687   10.7452   23.0267 C   0  0  0  0  0  0  0  0  0  0  0  0
    8.9574    9.7491   23.6432 C   0  0  0  0  0  0  0  0  0  0  0  0
    7.9631   10.0458   24.5652 C   0  0  0  0  0  0  0  0  0  0  0  0
    7.7523   11.3878   24.9148 C   0  0  0  0  0  0  0  0  0  0  0  0
    6.8418   12.0206   25.7887 C   0  0  0  0  0  0  0  0  0  0  0  0
    7.0843   13.3803   25.7611 C   0  0  0  0  0  0  0  0  0  0  0  0
    6.3772   14.3816   26.5177 C   0  0  0  0  0  0  0  0  0  0  0  0
    5.5444   14.1351   27.3812 O   0  0  0  0  0  0  0  0  0  0  0  0
    6.7707   15.6273   26.1390 O   0  0  0  0  0  0  0  0  0  0  0  0
    6.0207   16.6911   26.7479 C   0  0  0  0  0  0  0  0  0  0  0  0
    4.6933   16.8877   26.0350 C   0  0  0  0  0  0  0  0  0  0  0  0
    8.1186   13.5829   24.8690 N   0  0  0  0  0  0  0  0  0  0  0  0
    8.5537   12.3836   24.3452 C   0  0  0  0  0  0  0  0  0  0  0  0
  1  2  2  0
  2  3  1  0
  3  4  1  0
  4  5  2  0
  4  6  1  0
  6  7  1  0
  7  8  2  0
  8  9  1  0
  9 10  2  0
 10 11  1  0
 11 12  1  0
 12 13  2  0
 13 14  1  0
 14 15  2  0
 14 16  1  0
 16 17  1  0
 17 18  1  0
 13 19  1  0
 19 20  1  0
 20  7  1  0
 20 11  2  0
M  END
>  <alias>  (63) 
None

>  <rmsd(smina/fragmenstein)>  (63) 
1.029

>  <smiles>  (63) 
C=CCC(=O)Nc1cccc2cc(C(=O)OCC)[nH]c12

>  <gnina_score>  (63) 
5.262

>  <inspiration_score>  (63) 
None

>  <energy_score>  (63) 
-29.036233

>  <distance_score>  (63) 
0.526743

>  <gnina_score_min>  (63) 
5.417

>  <inchikey>  (63) 
BETLOMVRTQVFQF-UHFFFAOYSA-N

>  <exports>  (63) 
['/opt/xchem-fragalysis-2/maxwin/BulkDock/OUTPUTS/openbind_a71ev2a_c2_elabs_1LOUU54.sdf', '/opt/xchem-fragalysis-2/maxwin/BulkDock/OUTPUTS/openbind_a71ev2a_c2_elabs_1LSYIDY.sdf']

>  <name>  (63) 
P535720

>  <ref_pdb>  (63) 
A0554a

>  <subsites>  (63) 
None

>  <HIPPO Pose ID>  (63) 
535720

>  <ref_mols>  (63) 
A0554a

>  <HIPPO Compound ID>  (63) 
367928

>  <tags>  (63) 
openbind_a71ev2a_c2_elabs,syndirella_product,openbind_a71ev2a_c2_elabs_fragonly_scored_top80percent,openbind_a71ev2a_c2_elabs_scored,BulkDock Fragalysis export,openbind_a71ev2a_c2_elabs_scored_top80percent,openbind_a71ev2a_c2_elabs_activefrags_only_scored_5.2plus,syndirella_placed

>  <smina_score_min>  (63) 
-6.117

$$$$
P535721
     RDKit          3D

 20 21  0  0  0  0  0  0  0  0999 V2000
    4.4674   16.7258   26.8649 C   0  0  0  0  0  0  0  0  0  0  0  0
    5.2982   15.8963   27.8257 C   0  0  0  0  0  0  0  0  0  0  0  0
    5.8524   14.7644   27.1418 O   0  0  0  0  0  0  0  0  0  0  0  0
    7.0481   14.9792   26.5285 C   0  0  0  0  0  0  0  0  0  0  0  0
    7.7100   16.0059   26.5934 O   0  0  0  0  0  0  0  0  0  0  0  0
    7.4504   13.8046   25.8003 C   0  0  0  0  0  0  0  0  0  0  0  0
    6.9481   12.5147   25.7873 C   0  0  0  0  0  0  0  0  0  0  0  0
    7.7760   11.7262   24.9426 C   0  0  0  0  0  0  0  0  0  0  0  0
    7.7897   10.3693   24.5895 C   0  0  0  0  0  0  0  0  0  0  0  0
    8.7307    9.9510   23.6522 C   0  0  0  0  0  0  0  0  0  0  0  0
    9.6198   10.8232   23.0605 C   0  0  0  0  0  0  0  0  0  0  0  0
    9.6634   12.1517   23.4309 C   0  0  0  0  0  0  0  0  0  0  0  0
   10.5673   12.9782   22.7912 N   0  0  0  0  0  0  0  0  0  0  0  0
   11.2757   14.2616   23.2818 C   0  0  0  0  0  0  0  0  0  0  0  0
   11.2657   14.7777   24.3281 O   0  0  0  0  0  0  0  0  0  0  0  0
   12.0157   14.8369   22.0560 C   0  0  0  0  0  0  0  0  0  0  0  0
   11.3853   14.6476   20.7991 O   0  0  0  0  0  0  0  0  0  0  0  0
   10.2071   15.4313   20.6440 C   0  0  0  0  0  0  0  0  0  0  0  0
    8.7392   12.5762   24.3921 C   0  0  0  0  0  0  0  0  0  0  0  0
    8.5247   13.8166   24.9408 N   0  0  0  0  0  0  0  0  0  0  0  0
  1  2  1  0
  2  3  1  0
  3  4  1  0
  4  5  2  0
  4  6  1  0
  6  7  2  0
  7  8  1  0
  8  9  2  0
  9 10  1  0
 10 11  2  0
 11 12  1  0
 12 13  1  0
 13 14  1  0
 14 15  2  0
 14 16  1  0
 16 17  1  0
 17 18  1  0
 12 19  2  0
 19 20  1  0
 20  6  1  0
 19  8  1  0
M  END
>  <alias>  (64) 
None

>  <rmsd(smina/fragmenstein)>  (64) 
0.991

>  <smiles>  (64) 
CCOC(=O)c1cc2cccc(NC(=O)COC)c2[nH]1

>  <gnina_score>  (64) 
5.085

>  <inspiration_score>  (64) 
None

>  <energy_score>  (64) 
-35.965143

>  <distance_score>  (64) 
0.699223

>  <gnina_score_min>  (64) 
5.266

>  <inchikey>  (64) 
JRJZOFYFXJFCJX-UHFFFAOYSA-N

>  <exports>  (64) 
['/opt/xchem-fragalysis-2/maxwin/BulkDock/OUTPUTS/openbind_a71ev2a_c2_elabs_1LOUU54.sdf', '/opt/xchem-fragalysis-2/maxwin/BulkDock/OUTPUTS/openbind_a71ev2a_c2_elabs_1LSYIDY.sdf']

>  <name>  (64) 
P535721

>  <ref_pdb>  (64) 
A0554a

>  <subsites>  (64) 
None

>  <HIPPO Pose ID>  (64) 
535721

>  <ref_mols>  (64) 
A0554a

>  <HIPPO Compound ID>  (64) 
367930

>  <tags>  (64) 
openbind_a71ev2a_c2_elabs,syndirella_product,openbind_a71ev2a_c2_elabs_fragonly_scored_top80percent,openbind_a71ev2a_c2_elabs_scored,BulkDock Fragalysis export,openbind_a71ev2a_c2_elabs_scored_top80percent,openbind_a71ev2a_c2_elabs_activefrags_only_scored_5.2plus,syndirella_placed

>  <smina_score_min>  (64) 
-5.819

$$$$
P535723
     RDKit          3D

 20 21  0  0  0  0  0  0  0  0999 V2000
    6.7314   14.1812   29.3683 C   0  0  0  0  0  0  0  0  0  0  0  0
    5.5462   14.0313   28.5303 N   0  0  0  0  0  0  0  0  0  0  0  0
    5.5009   12.7472   27.4423 S   0  0  0  0  0  0  0  0  0  0  0  0
    4.2434   12.8415   26.7420 O   0  0  0  0  0  0  0  0  0  0  0  0
    5.9194   11.5486   28.1360 O   0  0  0  0  0  0  0  0  0  0  0  0
    6.7034   13.0002   26.2294 C   0  0  0  0  0  0  0  0  0  0  0  0
    7.2619   14.2117   25.8824 C   0  0  0  0  0  0  0  0  0  0  0  0
    8.2372   13.9657   24.9562 N   0  0  0  0  0  0  0  0  0  0  0  0
    8.3198   12.6196   24.6736 C   0  0  0  0  0  0  0  0  0  0  0  0
    9.1614   11.9210   23.7898 C   0  0  0  0  0  0  0  0  0  0  0  0
   10.1133   12.5596   23.0126 N   0  0  0  0  0  0  0  0  0  0  0  0
   10.8734   13.8682   23.2457 C   0  0  0  0  0  0  0  0  0  0  0  0
   10.8807   14.5826   24.1628 O   0  0  0  0  0  0  0  0  0  0  0  0
   11.5917   14.2407   22.0616 C   0  0  0  0  0  0  0  0  0  0  0  0
   11.8229   14.5158   20.9202 C   0  0  0  0  0  0  0  0  0  0  0  0
   11.6859   14.7701   19.0487 Br  0  0  0  0  0  0  0  0  0  0  0  0
    8.9523   10.5578   23.6428 C   0  0  0  0  0  0  0  0  0  0  0  0
    7.9697    9.9339   24.3995 C   0  0  0  0  0  0  0  0  0  0  0  0
    7.1565   10.6172   25.2965 C   0  0  0  0  0  0  0  0  0  0  0  0
    7.3208   11.9978   25.4306 C   0  0  0  0  0  0  0  0  0  0  0  0
  1  2  1  0
  2  3  1  0
  3  4  2  0
  3  5  2  0
  3  6  1  0
  6  7  2  0
  7  8  1  0
  8  9  1  0
  9 10  2  0
 10 11  1  0
 11 12  1  0
 12 13  2  0
 12 14  1  0
 14 15  3  0
 15 16  1  0
 10 17  1  0
 17 18  2  0
 18 19  1  0
 19 20  2  0
 20  6  1  0
 20  9  1  0
M  END
>  <alias>  (65) 
None

>  <rmsd(smina/fragmenstein)>  (65) 
0.327

>  <smiles>  (65) 
CNS(=O)(=O)c1c[nH]c2c(NC(=O)C#CBr)cccc12

>  <gnina_score>  (65) 
5.21

>  <inspiration_score>  (65) 
None

>  <energy_score>  (65) 
-42.055711

>  <distance_score>  (65) 
0.890717

>  <gnina_score_min>  (65) 
5.282

>  <inchikey>  (65) 
OKXUGSQIQTYTAX-UHFFFAOYSA-N

>  <exports>  (65) 
['/opt/xchem-fragalysis-2/maxwin/BulkDock/OUTPUTS/openbind_a71ev2a_c2_elabs_1LOUU54.sdf', '/opt/xchem-fragalysis-2/maxwin/BulkDock/OUTPUTS/openbind_a71ev2a_c2_elabs_1LSYIDY.sdf']

>  <name>  (65) 
P535723

>  <ref_pdb>  (65) 
A0554a

>  <subsites>  (65) 
None

>  <HIPPO Pose ID>  (65) 
535723

>  <ref_mols>  (65) 
A0554a

>  <HIPPO Compound ID>  (65) 
367932

>  <tags>  (65) 
openbind_a71ev2a_c2_elabs,syndirella_product,openbind_a71ev2a_c2_elabs_fragonly_scored_top80percent,openbind_a71ev2a_c2_elabs_scored,BulkDock Fragalysis export,openbind_a71ev2a_c2_elabs_scored_top80percent,openbind_a71ev2a_c2_elabs_activefrags_only_scored_5.2plus,syndirella_placed

>  <smina_score_min>  (65) 
-5.685

$$$$
P535724
     RDKit          3D

 20 21  0  0  0  0  0  0  0  0999 V2000
   12.7585   14.9901   21.8340 C   0  0  0  0  0  0  0  0  0  0  0  0
   11.4557   14.7335   21.8467 C   0  0  0  0  0  0  0  0  0  0  0  0
   10.4285   15.0712   20.5196 Cl  0  0  0  0  0  0  0  0  0  0  0  0
   10.8608   14.1771   23.0889 C   0  0  0  0  0  0  0  0  0  0  0  0
   10.9111   14.7372   24.1052 O   0  0  0  0  0  0  0  0  0  0  0  0
   10.1491   12.8786   22.7065 N   0  0  0  0  0  0  0  0  0  0  0  0
    9.3047   12.0738   23.4359 C   0  0  0  0  0  0  0  0  0  0  0  0
    9.4078   10.7104   23.2790 C   0  0  0  0  0  0  0  0  0  0  0  0
    8.6561    9.8862   24.0855 C   0  0  0  0  0  0  0  0  0  0  0  0
    7.6815   10.3646   24.9616 C   0  0  0  0  0  0  0  0  0  0  0  0
    7.5343   11.7519   25.1156 C   0  0  0  0  0  0  0  0  0  0  0  0
    6.7348   12.6076   25.9318 C   0  0  0  0  0  0  0  0  0  0  0  0
    5.6128   12.1558   27.1616 S   0  0  0  0  0  0  0  0  0  0  0  0
    4.4672   13.0211   27.0050 O   0  0  0  0  0  0  0  0  0  0  0  0
    5.4917   10.7163   27.1115 O   0  0  0  0  0  0  0  0  0  0  0  0
    6.2997   12.4889   28.6802 N   0  0  0  0  0  0  0  0  0  0  0  0
    6.4572   13.9076   29.0292 C   0  0  0  0  0  0  0  0  0  0  0  0
    7.0548   13.9101   25.6032 C   0  0  0  0  0  0  0  0  0  0  0  0
    8.0550   13.8765   24.6741 N   0  0  0  0  0  0  0  0  0  0  0  0
    8.3760   12.5764   24.3587 C   0  0  0  0  0  0  0  0  0  0  0  0
  1  2  2  0
  2  3  1  0
  2  4  1  0
  4  5  2  0
  4  6  1  0
  6  7  1  0
  7  8  2  0
  8  9  1  0
  9 10  2  0
 10 11  1  0
 11 12  1  0
 12 13  1  0
 13 14  2  0
 13 15  2  0
 13 16  1  0
 16 17  1  0
 12 18  2  0
 18 19  1  0
 19 20  1  0
 20  7  1  0
 20 11  2  0
M  END
>  <alias>  (66) 
None

>  <rmsd(smina/fragmenstein)>  (66) 
0.335

>  <smiles>  (66) 
C=C(Cl)C(=O)Nc1cccc2c(S(=O)(=O)NC)c[nH]c12

>  <gnina_score>  (66) 
5.478

>  <inspiration_score>  (66) 
None

>  <energy_score>  (66) 
-34.311708

>  <distance_score>  (66) 
0.725549

>  <gnina_score_min>  (66) 
5.447

>  <inchikey>  (66) 
NUIYUZCVPYEAJP-UHFFFAOYSA-N

>  <exports>  (66) 
['/opt/xchem-fragalysis-2/maxwin/BulkDock/OUTPUTS/openbind_a71ev2a_c2_elabs_1LOUU54.sdf', '/opt/xchem-fragalysis-2/maxwin/BulkDock/OUTPUTS/openbind_a71ev2a_c2_elabs_1LSYIDY.sdf']

>  <name>  (66) 
P535724

>  <ref_pdb>  (66) 
A0554a

>  <subsites>  (66) 
None

>  <HIPPO Pose ID>  (66) 
535724

>  <ref_mols>  (66) 
A0554a

>  <HIPPO Compound ID>  (66) 
367936

>  <tags>  (66) 
openbind_a71ev2a_c2_elabs,syndirella_product,openbind_a71ev2a_c2_elabs_fragonly_scored_top80percent,openbind_a71ev2a_c2_elabs_scored,BulkDock Fragalysis export,openbind_a71ev2a_c2_elabs_scored_top80percent,openbind_a71ev2a_c2_elabs_activefrags_only_scored_5.2plus,syndirella_placed

>  <smina_score_min>  (66) 
-6.312

$$$$
P535726
     RDKit          3D

 21 22  0  0  0  0  0  0  0  0999 V2000
   11.1510   15.0098   19.5465 C   0  0  0  0  0  0  0  0  0  0  0  0
   10.6067   14.9398   20.9622 C   0  0  0  0  0  0  0  0  0  0  0  0
   11.6050   14.3996   22.0013 C   0  0  2  0  0  0  0  0  0  0  0  0
   12.3518   13.3008   21.5356 O   0  0  0  0  0  0  0  0  0  0  0  0
   10.8353   14.0167   23.2827 C   0  0  0  0  0  0  0  0  0  0  0  0
   10.8030   14.7199   24.2150 O   0  0  0  0  0  0  0  0  0  0  0  0
   10.1074   12.6745   23.0111 N   0  0  0  0  0  0  0  0  0  0  0  0
    9.1572   11.9987   23.7601 C   0  0  0  0  0  0  0  0  0  0  0  0
    8.9893   10.6324   23.5999 C   0  0  0  0  0  0  0  0  0  0  0  0
    8.0281    9.9716   24.3541 C   0  0  0  0  0  0  0  0  0  0  0  0
    7.1959   10.6190   25.2628 C   0  0  0  0  0  0  0  0  0  0  0  0
    7.3232   12.0018   25.4147 C   0  0  0  0  0  0  0  0  0  0  0  0
    6.6918   12.9796   26.2337 C   0  0  0  0  0  0  0  0  0  0  0  0
    5.5139   12.7053   27.4606 S   0  0  0  0  0  0  0  0  0  0  0  0
    5.9725   11.5335   28.1753 O   0  0  0  0  0  0  0  0  0  0  0  0
    4.2345   12.7490   26.7965 O   0  0  0  0  0  0  0  0  0  0  0  0
    5.5398   14.0040   28.5361 N   0  0  0  0  0  0  0  0  0  0  0  0
    6.6194   14.0361   29.5196 C   0  0  0  0  0  0  0  0  0  0  0  0
    7.2257   14.2069   25.9055 C   0  0  0  0  0  0  0  0  0  0  0  0
    8.1868   13.9981   24.9594 N   0  0  0  0  0  0  0  0  0  0  0  0
    8.3001   12.6590   24.6579 C   0  0  0  0  0  0  0  0  0  0  0  0
  1  2  1  0
  2  3  1  0
  3  4  1  6
  3  5  1  0
  5  6  2  0
  5  7  1  0
  7  8  1  0
  8  9  2  0
  9 10  1  0
 10 11  2  0
 11 12  1  0
 12 13  1  0
 13 14  1  0
 14 15  2  0
 14 16  2  0
 14 17  1  0
 17 18  1  0
 13 19  2  0
 19 20  1  0
 20 21  1  0
 21  8  1  0
 21 12  2  0
M  END
>  <alias>  (67) 
None

>  <rmsd(smina/fragmenstein)>  (67) 
0.998

>  <smiles>  (67) 
CC[C@H](O)C(=O)Nc1cccc2c(S(=O)(=O)NC)c[nH]c12

>  <gnina_score>  (67) 
5.359

>  <inspiration_score>  (67) 
None

>  <energy_score>  (67) 
-39.529815

>  <distance_score>  (67) 
0.902607

>  <gnina_score_min>  (67) 
5.555

>  <inchikey>  (67) 
MMDRVUZCNXCKMU-JTQLQIEISA-N

>  <exports>  (67) 
['/opt/xchem-fragalysis-2/maxwin/BulkDock/OUTPUTS/openbind_a71ev2a_c2_elabs_1LOUU54.sdf', '/opt/xchem-fragalysis-2/maxwin/BulkDock/OUTPUTS/openbind_a71ev2a_c2_elabs_1LSYIDY.sdf']

>  <name>  (67) 
P535726

>  <ref_pdb>  (67) 
A0554a

>  <subsites>  (67) 
None

>  <HIPPO Pose ID>  (67) 
535726

>  <ref_mols>  (67) 
A0554a

>  <HIPPO Compound ID>  (67) 
367938

>  <tags>  (67) 
openbind_a71ev2a_c2_elabs,syndirella_product,openbind_a71ev2a_c2_elabs_fragonly_scored_top80percent,BulkDock Fragalysis export,openbind_a71ev2a_c2_elabs_scored,openbind_a71ev2a_c2_elabs_scored_top80percent,openbind_a71ev2a_c2_elabs_activefrags_only_scored_5.2plus,openbind_a71ev2a_c2_elabs_activefrags_only_scored_5.5plus,syndirella_placed

>  <smina_score_min>  (67) 
-7.095

$$$$
P535728
     RDKit          3D

 21 22  0  0  0  0  0  0  0  0999 V2000
    4.6060   16.8919   25.9342 C   0  0  0  0  0  0  0  0  0  0  0  0
    5.9074   16.6764   26.6874 C   0  0  0  0  0  0  0  0  0  0  0  0
    6.6566   15.6003   26.1002 O   0  0  0  0  0  0  0  0  0  0  0  0
    6.2536   14.3604   26.4864 C   0  0  0  0  0  0  0  0  0  0  0  0
    5.4056   14.1241   27.3376 O   0  0  0  0  0  0  0  0  0  0  0  0
    6.9817   13.3520   25.7597 C   0  0  0  0  0  0  0  0  0  0  0  0
    6.7776   11.9875   25.8299 C   0  0  0  0  0  0  0  0  0  0  0  0
    7.7011   11.3548   24.9692 C   0  0  0  0  0  0  0  0  0  0  0  0
    7.9529   10.0115   24.6550 C   0  0  0  0  0  0  0  0  0  0  0  0
    8.9682    9.7142   23.7542 C   0  0  0  0  0  0  0  0  0  0  0  0
    9.6332   10.7081   23.0885 C   0  0  0  0  0  0  0  0  0  0  0  0
    9.4283   12.0386   23.3996 C   0  0  0  0  0  0  0  0  0  0  0  0
   10.1663   12.9283   22.6595 N   0  0  0  0  0  0  0  0  0  0  0  0
   10.8802   14.2279   23.0776 C   0  0  0  0  0  0  0  0  0  0  0  0
   10.8907   14.7884   24.0983 O   0  0  0  0  0  0  0  0  0  0  0  0
   11.5530   14.7614   21.7791 C   0  0  1  0  0  0  0  0  0  0  0  0
   12.3734   13.7641   21.1907 O   0  0  0  0  0  0  0  0  0  0  0  0
   10.4789   15.2801   20.8046 C   0  0  0  0  0  0  0  0  0  0  0  0
   10.8577   15.2121   19.3357 C   0  0  0  0  0  0  0  0  0  0  0  0
    8.4688   12.3546   24.3657 C   0  0  0  0  0  0  0  0  0  0  0  0
    8.0012   13.5567   24.8514 N   0  0  0  0  0  0  0  0  0  0  0  0
  1  2  1  0
  2  3  1  0
  3  4  1  0
  4  5  2  0
  4  6  1  0
  6  7  2  0
  7  8  1  0
  8  9  2  0
  9 10  1  0
 10 11  2  0
 11 12  1  0
 12 13  1  0
 13 14  1  0
 14 15  2  0
 14 16  1  0
 16 17  1  6
 16 18  1  0
 18 19  1  0
 12 20  2  0
 20 21  1  0
 21  6  1  0
 20  8  1  0
M  END
>  <alias>  (68) 
None

>  <rmsd(smina/fragmenstein)>  (68) 
1.65

>  <smiles>  (68) 
CCOC(=O)c1cc2cccc(NC(=O)[C@@H](O)CC)c2[nH]1

>  <gnina_score>  (68) 
5.325

>  <inspiration_score>  (68) 
None

>  <energy_score>  (68) 
-20.263231

>  <distance_score>  (68) 
0.58091

>  <gnina_score_min>  (68) 
5.287

>  <inchikey>  (68) 
WPPIRSDIXOWFIT-LBPRGKRZSA-N

>  <exports>  (68) 
['/opt/xchem-fragalysis-2/maxwin/BulkDock/OUTPUTS/openbind_a71ev2a_c2_elabs_1LOUU54.sdf', '/opt/xchem-fragalysis-2/maxwin/BulkDock/OUTPUTS/openbind_a71ev2a_c2_elabs_1LSYIDY.sdf']

>  <name>  (68) 
P535728

>  <ref_pdb>  (68) 
A0554a

>  <subsites>  (68) 
None

>  <HIPPO Pose ID>  (68) 
535728

>  <ref_mols>  (68) 
A0554a

>  <HIPPO Compound ID>  (68) 
367939

>  <tags>  (68) 
openbind_a71ev2a_c2_elabs,syndirella_product,openbind_a71ev2a_c2_elabs_fragonly_scored_top80percent,openbind_a71ev2a_c2_elabs_scored,BulkDock Fragalysis export,openbind_a71ev2a_c2_elabs_scored_top80percent,openbind_a71ev2a_c2_elabs_activefrags_only_scored_5.2plus,syndirella_placed

>  <smina_score_min>  (68) 
-6.996

$$$$
P535729
     RDKit          3D

 21 22  0  0  0  0  0  0  0  0999 V2000
    4.7098   16.9384   28.3586 C   0  0  0  0  0  0  0  0  0  0  0  0
    6.1525   16.8551   27.9005 C   0  0  0  0  0  0  0  0  0  0  0  0
    6.3496   15.5824   27.2747 O   0  0  0  0  0  0  0  0  0  0  0  0
    7.5834   15.4221   26.7290 C   0  0  0  0  0  0  0  0  0  0  0  0
    8.5236   16.1988   26.8440 O   0  0  0  0  0  0  0  0  0  0  0  0
    7.6541   14.1808   26.0076 C   0  0  0  0  0  0  0  0  0  0  0  0
    6.8922   13.0297   26.0877 C   0  0  0  0  0  0  0  0  0  0  0  0
    7.5156   12.0404   25.2824 C   0  0  0  0  0  0  0  0  0  0  0  0
    7.2668   10.6861   25.0647 C   0  0  0  0  0  0  0  0  0  0  0  0
    8.0754   10.0125   24.1561 C   0  0  0  0  0  0  0  0  0  0  0  0
    9.1157   10.6257   23.4692 C   0  0  0  0  0  0  0  0  0  0  0  0
    9.4005   11.9627   23.7035 C   0  0  0  0  0  0  0  0  0  0  0  0
   10.3681   12.6015   22.9459 N   0  0  0  0  0  0  0  0  0  0  0  0
   11.1806   13.8959   23.2301 C   0  0  0  0  0  0  0  0  0  0  0  0
   11.2129   14.5770   24.1805 O   0  0  0  0  0  0  0  0  0  0  0  0
   11.9127   14.2299   21.9447 C   0  0  0  0  0  0  0  0  0  0  0  0
   11.0555   15.1027   21.0076 C   0  0  0  0  0  0  0  0  0  0  0  0
   11.4538   14.9009   19.5457 C   0  0  0  0  0  0  0  0  0  0  0  0
    9.5393   14.9640   21.1348 C   0  0  0  0  0  0  0  0  0  0  0  0
    8.5927   12.6382   24.6289 C   0  0  0  0  0  0  0  0  0  0  0  0
    8.6268   13.9399   25.0665 N   0  0  0  0  0  0  0  0  0  0  0  0
  1  2  1  0
  2  3  1  0
  3  4  1  0
  4  5  2  0
  4  6  1  0
  6  7  2  0
  7  8  1  0
  8  9  2  0
  9 10  1  0
 10 11  2  0
 11 12  1  0
 12 13  1  0
 13 14  1  0
 14 15  2  0
 14 16  1  0
 16 17  1  0
 17 18  1  0
 17 19  1  0
 12 20  2  0
 20 21  1  0
 21  6  1  0
 20  8  1  0
M  END
>  <alias>  (69) 
None

>  <rmsd(smina/fragmenstein)>  (69) 
1.038

>  <smiles>  (69) 
CCOC(=O)c1cc2cccc(NC(=O)CC(C)C)c2[nH]1

>  <gnina_score>  (69) 
5.222

>  <inspiration_score>  (69) 
None

>  <energy_score>  (69) 
-19.513288

>  <distance_score>  (69) 
0.861692

>  <gnina_score_min>  (69) 
5.467

>  <inchikey>  (69) 
WUVHYFJQISNGKT-UHFFFAOYSA-N

>  <exports>  (69) 
['/opt/xchem-fragalysis-2/maxwin/BulkDock/OUTPUTS/openbind_a71ev2a_c2_elabs_1LOUU54.sdf', '/opt/xchem-fragalysis-2/maxwin/BulkDock/OUTPUTS/openbind_a71ev2a_c2_elabs_1LSYIDY.sdf']

>  <name>  (69) 
P535729

>  <ref_pdb>  (69) 
A0554a

>  <subsites>  (69) 
None

>  <HIPPO Pose ID>  (69) 
535729

>  <ref_mols>  (69) 
A0554a

>  <HIPPO Compound ID>  (69) 
367942

>  <tags>  (69) 
openbind_a71ev2a_c2_elabs,syndirella_product,openbind_a71ev2a_c2_elabs_fragonly_scored_top80percent,openbind_a71ev2a_c2_elabs_scored,BulkDock Fragalysis export,openbind_a71ev2a_c2_elabs_scored_top80percent,openbind_a71ev2a_c2_elabs_activefrags_only_scored_5.2plus,syndirella_placed

>  <smina_score_min>  (69) 
-6.527

$$$$
P535731
     RDKit          3D

 21 22  0  0  0  0  0  0  0  0999 V2000
   11.7018   14.7357   19.1230 C   0  0  0  0  0  0  0  0  0  0  0  0
   11.9260   14.5130   20.4275 C   0  0  0  0  0  0  0  0  0  0  0  0
   11.2116   15.1785   21.5559 C   0  0  1  0  0  0  0  0  0  0  0  0
    9.5800   15.7743   21.0174 Cl  0  0  0  0  0  0  0  0  0  0  0  0
   10.8976   14.4110   22.8779 C   0  0  0  0  0  0  0  0  0  0  0  0
   11.1746   14.8599   23.9199 O   0  0  0  0  0  0  0  0  0  0  0  0
   10.1227   13.1237   22.5161 N   0  0  0  0  0  0  0  0  0  0  0  0
    9.4724   12.2095   23.3249 C   0  0  0  0  0  0  0  0  0  0  0  0
    9.5662   10.8555   23.0930 C   0  0  0  0  0  0  0  0  0  0  0  0
    8.8183    9.9709   23.8469 C   0  0  0  0  0  0  0  0  0  0  0  0
    7.8721   10.3991   24.7849 C   0  0  0  0  0  0  0  0  0  0  0  0
    7.7320   11.7783   25.0281 C   0  0  0  0  0  0  0  0  0  0  0  0
    6.9451   12.5977   25.9013 C   0  0  0  0  0  0  0  0  0  0  0  0
    5.8677   12.1079   27.1560 S   0  0  0  0  0  0  0  0  0  0  0  0
    6.4417   12.6888   28.3525 O   0  0  0  0  0  0  0  0  0  0  0  0
    5.7191   10.6752   27.0433 O   0  0  0  0  0  0  0  0  0  0  0  0
    4.3276   12.7696   26.9752 N   0  0  0  0  0  0  0  0  0  0  0  0
    4.2118   14.2292   26.9064 C   0  0  0  0  0  0  0  0  0  0  0  0
    7.2998   13.9126   25.6672 C   0  0  0  0  0  0  0  0  0  0  0  0
    8.2477   13.9251   24.6884 N   0  0  0  0  0  0  0  0  0  0  0  0
    8.5650   12.6435   24.3047 C   0  0  0  0  0  0  0  0  0  0  0  0
  1  2  2  0
  2  3  1  0
  3  4  1  6
  3  5  1  0
  5  6  2  0
  5  7  1  0
  7  8  1  0
  8  9  2  0
  9 10  1  0
 10 11  2  0
 11 12  1  0
 12 13  1  0
 13 14  1  0
 14 15  2  0
 14 16  2  0
 14 17  1  0
 17 18  1  0
 13 19  2  0
 19 20  1  0
 20 21  1  0
 21  8  1  0
 21 12  2  0
M  END
>  <alias>  (70) 
None

>  <rmsd(smina/fragmenstein)>  (70) 
0.752

>  <smiles>  (70) 
C=C[C@@H](Cl)C(=O)Nc1cccc2c(S(=O)(=O)NC)c[nH]c12

>  <gnina_score>  (70) 
5.543

>  <inspiration_score>  (70) 
None

>  <energy_score>  (70) 
-43.499026

>  <distance_score>  (70) 
0.883722

>  <gnina_score_min>  (70) 
5.431

>  <inchikey>  (70) 
APMVDPIPPCZGFP-SECBINFHSA-N

>  <exports>  (70) 
['/opt/xchem-fragalysis-2/maxwin/BulkDock/OUTPUTS/openbind_a71ev2a_c2_elabs_1LOUU54.sdf', '/opt/xchem-fragalysis-2/maxwin/BulkDock/OUTPUTS/openbind_a71ev2a_c2_elabs_1LSYIDY.sdf']

>  <name>  (70) 
P535731

>  <ref_pdb>  (70) 
A0554a

>  <subsites>  (70) 
None

>  <HIPPO Pose ID>  (70) 
535731

>  <ref_mols>  (70) 
A0554a

>  <HIPPO Compound ID>  (70) 
367944

>  <tags>  (70) 
openbind_a71ev2a_c2_elabs,syndirella_product,openbind_a71ev2a_c2_elabs_fragonly_scored_top80percent,openbind_a71ev2a_c2_elabs_scored,BulkDock Fragalysis export,openbind_a71ev2a_c2_elabs_scored_top80percent,openbind_a71ev2a_c2_elabs_activefrags_only_scored_5.2plus,syndirella_placed

>  <smina_score_min>  (70) 
-6.073

$$$$
P535733
     RDKit          3D

 21 22  0  0  0  0  0  0  0  0999 V2000
   12.7188   14.5364   20.4809 C   0  0  0  0  0  0  0  0  0  0  0  0
   11.3942   14.6088   20.4991 C   0  0  0  0  0  0  0  0  0  0  0  0
   10.6929   15.2330   21.6379 C   0  0  1  0  0  0  0  0  0  0  0  0
    9.0268   15.6131   21.1168 Cl  0  0  0  0  0  0  0  0  0  0  0  0
   10.5784   14.4162   22.9614 C   0  0  0  0  0  0  0  0  0  0  0  0
   10.9121   14.8226   24.0009 O   0  0  0  0  0  0  0  0  0  0  0  0
    9.8741   13.1031   22.5846 N   0  0  0  0  0  0  0  0  0  0  0  0
    9.3698   12.1022   23.3771 C   0  0  0  0  0  0  0  0  0  0  0  0
    9.6399   10.7923   23.0388 C   0  0  0  0  0  0  0  0  0  0  0  0
    9.0201    9.7525   23.6903 C   0  0  0  0  0  0  0  0  0  0  0  0
    8.0095    9.9928   24.6208 C   0  0  0  0  0  0  0  0  0  0  0  0
    7.7144   11.3160   24.9829 C   0  0  0  0  0  0  0  0  0  0  0  0
    6.7874   11.9052   25.8772 C   0  0  0  0  0  0  0  0  0  0  0  0
    6.9664   13.2761   25.8478 C   0  0  0  0  0  0  0  0  0  0  0  0
    6.2915   14.2686   26.6453 C   0  0  0  0  0  0  0  0  0  0  0  0
    5.4360   14.0257   27.4863 O   0  0  0  0  0  0  0  0  0  0  0  0
    6.7968   15.5015   26.3655 O   0  0  0  0  0  0  0  0  0  0  0  0
    6.2181   16.5811   27.1132 C   0  0  0  0  0  0  0  0  0  0  0  0
    6.9866   16.7820   28.4058 C   0  0  0  0  0  0  0  0  0  0  0  0
    7.9295   13.5273   24.8942 N   0  0  0  0  0  0  0  0  0  0  0  0
    8.4290   12.3513   24.3820 C   0  0  0  0  0  0  0  0  0  0  0  0
  1  2  2  0
  2  3  1  0
  3  4  1  6
  3  5  1  0
  5  6  2  0
  5  7  1  0
  7  8  1  0
  8  9  2  0
  9 10  1  0
 10 11  2  0
 11 12  1  0
 12 13  1  0
 13 14  2  0
 14 15  1  0
 15 16  2  0
 15 17  1  0
 17 18  1  0
 18 19  1  0
 14 20  1  0
 20 21  1  0
 21  8  1  0
 21 12  2  0
M  END
>  <alias>  (71) 
None

>  <rmsd(smina/fragmenstein)>  (71) 
0.956

>  <smiles>  (71) 
C=C[C@@H](Cl)C(=O)Nc1cccc2cc(C(=O)OCC)[nH]c12

>  <gnina_score>  (71) 
5.273

>  <inspiration_score>  (71) 
None

>  <energy_score>  (71) 
-17.604545

>  <distance_score>  (71) 
0.797098

>  <gnina_score_min>  (71) 
5.223

>  <inchikey>  (71) 
VIBHICWZWDVVCF-SNVBAGLBSA-N

>  <exports>  (71) 
['/opt/xchem-fragalysis-2/maxwin/BulkDock/OUTPUTS/openbind_a71ev2a_c2_elabs_1LOUU54.sdf', '/opt/xchem-fragalysis-2/maxwin/BulkDock/OUTPUTS/openbind_a71ev2a_c2_elabs_1LSYIDY.sdf']

>  <name>  (71) 
P535733

>  <ref_pdb>  (71) 
A0554a

>  <subsites>  (71) 
None

>  <HIPPO Pose ID>  (71) 
535733

>  <ref_mols>  (71) 
A0554a

>  <HIPPO Compound ID>  (71) 
367946

>  <tags>  (71) 
openbind_a71ev2a_c2_elabs,syndirella_product,openbind_a71ev2a_c2_elabs_fragonly_scored_top80percent,openbind_a71ev2a_c2_elabs_scored,BulkDock Fragalysis export,openbind_a71ev2a_c2_elabs_scored_top80percent,openbind_a71ev2a_c2_elabs_activefrags_only_scored_5.2plus,syndirella_placed

>  <smina_score_min>  (71) 
-5.471

$$$$
P535734
     RDKit          3D

 21 22  0  0  0  0  0  0  0  0999 V2000
    3.3752   14.1139   25.8898 C   0  0  0  0  0  0  0  0  0  0  0  0
    4.1129   14.2171   27.1519 N   0  0  0  0  0  0  0  0  0  0  0  0
    5.2116   12.9880   27.4996 S   0  0  0  0  0  0  0  0  0  0  0  0
    5.9191   13.3763   28.7001 O   0  0  0  0  0  0  0  0  0  0  0  0
    4.5480   11.7106   27.3824 O   0  0  0  0  0  0  0  0  0  0  0  0
    6.4477   13.0188   26.2932 C   0  0  0  0  0  0  0  0  0  0  0  0
    7.1040   14.1657   25.8933 C   0  0  0  0  0  0  0  0  0  0  0  0
    8.0571   13.7996   24.9902 N   0  0  0  0  0  0  0  0  0  0  0  0
    8.0403   12.4384   24.7902 C   0  0  0  0  0  0  0  0  0  0  0  0
    8.8531   11.6285   23.9881 C   0  0  0  0  0  0  0  0  0  0  0  0
    9.9428   12.1143   23.3049 N   0  0  0  0  0  0  0  0  0  0  0  0
   10.7724   13.4016   23.5221 C   0  0  0  0  0  0  0  0  0  0  0  0
   10.6134   14.2881   24.2656 O   0  0  0  0  0  0  0  0  0  0  0  0
   11.8856   13.3593   22.5061 C   0  0  0  0  0  0  0  0  0  0  0  0
   11.8080   14.4855   21.4881 C   0  0  0  0  0  0  0  0  0  0  0  0
   12.5222   15.6350   22.1297 C   0  0  0  0  0  0  0  0  0  0  0  0
   10.3962   14.8801   21.0577 C   0  0  0  0  0  0  0  0  0  0  0  0
    8.5813   10.2753   23.9128 C   0  0  0  0  0  0  0  0  0  0  0  0
    7.5614    9.7594   24.6881 C   0  0  0  0  0  0  0  0  0  0  0  0
    6.7941   10.5444   25.5453 C   0  0  0  0  0  0  0  0  0  0  0  0
    7.0119   11.9249   25.5831 C   0  0  0  0  0  0  0  0  0  0  0  0
  1  2  1  0
  2  3  1  0
  3  4  2  0
  3  5  2  0
  3  6  1  0
  6  7  2  0
  7  8  1  0
  8  9  1  0
  9 10  2  0
 10 11  1  0
 11 12  1  0
 12 13  2  0
 12 14  1  0
 14 15  1  0
 15 16  1  0
 15 17  1  0
 10 18  1  0
 18 19  2  0
 19 20  1  0
 20 21  2  0
 21  6  1  0
 21  9  1  0
M  END
>  <alias>  (72) 
None

>  <rmsd(smina/fragmenstein)>  (72) 
0.411

>  <smiles>  (72) 
CNS(=O)(=O)c1c[nH]c2c(NC(=O)CC(C)C)cccc12

>  <gnina_score>  (72) 
5.285

>  <inspiration_score>  (72) 
None

>  <energy_score>  (72) 
-50.079747

>  <distance_score>  (72) 
1.041107

>  <gnina_score_min>  (72) 
5.327

>  <inchikey>  (72) 
JUXUWIKWJKGELA-UHFFFAOYSA-N

>  <exports>  (72) 
['/opt/xchem-fragalysis-2/maxwin/BulkDock/OUTPUTS/openbind_a71ev2a_c2_elabs_1LOUU54.sdf', '/opt/xchem-fragalysis-2/maxwin/BulkDock/OUTPUTS/openbind_a71ev2a_c2_elabs_1LSYIDY.sdf']

>  <name>  (72) 
P535734

>  <ref_pdb>  (72) 
A0554a

>  <subsites>  (72) 
None

>  <HIPPO Pose ID>  (72) 
535734

>  <ref_mols>  (72) 
A0554a

>  <HIPPO Compound ID>  (72) 
367947

>  <tags>  (72) 
openbind_a71ev2a_c2_elabs,syndirella_product,openbind_a71ev2a_c2_elabs_fragonly_scored_top80percent,openbind_a71ev2a_c2_elabs_scored,BulkDock Fragalysis export,openbind_a71ev2a_c2_elabs_scored_top80percent,openbind_a71ev2a_c2_elabs_activefrags_only_scored_5.2plus,syndirella_placed

>  <smina_score_min>  (72) 
-5.398

$$$$
P535740
     RDKit          3D

 21 22  0  0  0  0  0  0  0  0999 V2000
    6.7206   14.2888   29.2113 C   0  0  0  0  0  0  0  0  0  0  0  0
    6.3673   12.9277   28.7887 N   0  0  0  0  0  0  0  0  0  0  0  0
    5.6382   12.7779   27.2597 S   0  0  0  0  0  0  0  0  0  0  0  0
    4.7131   13.8760   27.1078 O   0  0  0  0  0  0  0  0  0  0  0  0
    5.2195   11.3972   27.1799 O   0  0  0  0  0  0  0  0  0  0  0  0
    6.8577   13.0124   26.0595 C   0  0  0  0  0  0  0  0  0  0  0  0
    7.4190   14.2303   25.7330 C   0  0  0  0  0  0  0  0  0  0  0  0
    8.4127   14.0035   24.8253 N   0  0  0  0  0  0  0  0  0  0  0  0
    8.5087   12.6651   24.5246 C   0  0  0  0  0  0  0  0  0  0  0  0
    9.3624   11.9946   23.6314 C   0  0  0  0  0  0  0  0  0  0  0  0
   10.3470   12.6221   22.8799 N   0  0  0  0  0  0  0  0  0  0  0  0
   11.0760   13.9703   23.1025 C   0  0  0  0  0  0  0  0  0  0  0  0
   11.0170   14.7245   23.9921 O   0  0  0  0  0  0  0  0  0  0  0  0
   11.8763   14.2580   21.8490 C   0  0  0  0  0  0  0  0  0  0  0  0
   10.9574   14.9388   20.8346 C   0  0  0  0  0  0  0  0  0  0  0  0
   11.5546   14.9383   19.4440 C   0  0  0  0  0  0  0  0  0  0  0  0
   11.0078   13.9355   18.7197 F   0  0  0  0  0  0  0  0  0  0  0  0
    9.1569   10.6361   23.4553 C   0  0  0  0  0  0  0  0  0  0  0  0
    8.1710    9.9939   24.1862 C   0  0  0  0  0  0  0  0  0  0  0  0
    7.3518   10.6450   25.0985 C   0  0  0  0  0  0  0  0  0  0  0  0
    7.5026   12.0236   25.2624 C   0  0  0  0  0  0  0  0  0  0  0  0
  1  2  1  0
  2  3  1  0
  3  4  2  0
  3  5  2  0
  3  6  1  0
  6  7  2  0
  7  8  1  0
  8  9  1  0
  9 10  2  0
 10 11  1  0
 11 12  1  0
 12 13  2  0
 12 14  1  0
 14 15  1  0
 15 16  1  0
 16 17  1  0
 10 18  1  0
 18 19  2  0
 19 20  1  0
 20 21  2  0
 21  6  1  0
 21  9  1  0
M  END
>  <alias>  (73) 
None

>  <rmsd(smina/fragmenstein)>  (73) 
0.971

>  <smiles>  (73) 
CNS(=O)(=O)c1c[nH]c2c(NC(=O)CCCF)cccc12

>  <gnina_score>  (73) 
5.183

>  <inspiration_score>  (73) 
None

>  <energy_score>  (73) 
-40.74622

>  <distance_score>  (73) 
0.85838

>  <gnina_score_min>  (73) 
5.674

>  <inchikey>  (73) 
HXCHQSMEFYIXHJ-UHFFFAOYSA-N

>  <exports>  (73) 
['/opt/xchem-fragalysis-2/maxwin/BulkDock/OUTPUTS/openbind_a71ev2a_c2_elabs_1LOUU54.sdf', '/opt/xchem-fragalysis-2/maxwin/BulkDock/OUTPUTS/openbind_a71ev2a_c2_elabs_1LSYIDY.sdf']

>  <name>  (73) 
P535740

>  <ref_pdb>  (73) 
A0554a

>  <subsites>  (73) 
None

>  <HIPPO Pose ID>  (73) 
535740

>  <ref_mols>  (73) 
A0554a

>  <HIPPO Compound ID>  (73) 
367951

>  <tags>  (73) 
openbind_a71ev2a_c2_elabs,syndirella_product,openbind_a71ev2a_c2_elabs_fragonly_scored_top80percent,BulkDock Fragalysis export,openbind_a71ev2a_c2_elabs_scored,openbind_a71ev2a_c2_elabs_scored_top80percent,openbind_a71ev2a_c2_elabs_activefrags_only_scored_5.2plus,openbind_a71ev2a_c2_elabs_activefrags_only_scored_5.5plus,syndirella_placed

>  <smina_score_min>  (73) 
-6.813

$$$$
P535745
     RDKit          3D

 21 22  0  0  0  0  0  0  0  0999 V2000
   12.5065   13.8234   20.3125 C   0  0  0  0  0  0  0  0  0  0  0  0
   12.1610   13.4390   21.7487 C   0  0  0  0  0  0  0  0  0  0  0  0
   11.1727   14.4113   22.2755 C   0  0  2  0  0  0  0  0  0  0  0  0
   12.1864   15.8133   22.4621 Cl  0  0  0  0  0  0  0  0  0  0  0  0
   10.5124   13.9671   23.5784 C   0  0  0  0  0  0  0  0  0  0  0  0
   10.5705   14.5724   24.5766 O   0  0  0  0  0  0  0  0  0  0  0  0
    9.7221   12.6733   23.2294 N   0  0  0  0  0  0  0  0  0  0  0  0
    8.8147   11.9529   23.9724 C   0  0  0  0  0  0  0  0  0  0  0  0
    8.6898   10.5902   23.7656 C   0  0  0  0  0  0  0  0  0  0  0  0
    7.7715    9.8826   24.5216 C   0  0  0  0  0  0  0  0  0  0  0  0
    6.9598   10.4825   25.4800 C   0  0  0  0  0  0  0  0  0  0  0  0
    7.0533   11.8622   25.6832 C   0  0  0  0  0  0  0  0  0  0  0  0
    6.4265   12.7965   26.5536 C   0  0  0  0  0  0  0  0  0  0  0  0
    5.3179   12.4632   27.8348 S   0  0  0  0  0  0  0  0  0  0  0  0
    4.5291   13.6625   27.9965 O   0  0  0  0  0  0  0  0  0  0  0  0
    4.7161   11.1809   27.5518 O   0  0  0  0  0  0  0  0  0  0  0  0
    6.2185   12.2450   29.2584 N   0  0  0  0  0  0  0  0  0  0  0  0
    6.8106   13.4575   29.8380 C   0  0  0  0  0  0  0  0  0  0  0  0
    6.9240   14.0468   26.2477 C   0  0  0  0  0  0  0  0  0  0  0  0
    7.8527   13.8958   25.2606 N   0  0  0  0  0  0  0  0  0  0  0  0
    7.9828   12.5694   24.9162 C   0  0  0  0  0  0  0  0  0  0  0  0
  1  2  1  0
  2  3  1  0
  3  4  1  1
  3  5  1  0
  5  6  2  0
  5  7  1  0
  7  8  1  0
  8  9  2  0
  9 10  1  0
 10 11  2  0
 11 12  1  0
 12 13  1  0
 13 14  1  0
 14 15  2  0
 14 16  2  0
 14 17  1  0
 17 18  1  0
 13 19  2  0
 19 20  1  0
 20 21  1  0
 21  8  1  0
 21 12  2  0
M  END
>  <alias>  (74) 
None

>  <rmsd(smina/fragmenstein)>  (74) 
1.65

>  <smiles>  (74) 
CC[C@H](Cl)C(=O)Nc1cccc2c(S(=O)(=O)NC)c[nH]c12

>  <gnina_score>  (74) 
5.001

>  <inspiration_score>  (74) 
None

>  <energy_score>  (74) 
-32.942677

>  <distance_score>  (74) 
1.042651

>  <gnina_score_min>  (74) 
5.519

>  <inchikey>  (74) 
SLJRYMRFXSNPQY-VIFPVBQESA-N

>  <exports>  (74) 
['/opt/xchem-fragalysis-2/maxwin/BulkDock/OUTPUTS/openbind_a71ev2a_c2_elabs_1LOUU54.sdf', '/opt/xchem-fragalysis-2/maxwin/BulkDock/OUTPUTS/openbind_a71ev2a_c2_elabs_1LSYIDY.sdf']

>  <name>  (74) 
P535745

>  <ref_pdb>  (74) 
A0554a

>  <subsites>  (74) 
None

>  <HIPPO Pose ID>  (74) 
535745

>  <ref_mols>  (74) 
A0554a

>  <HIPPO Compound ID>  (74) 
367954

>  <tags>  (74) 
openbind_a71ev2a_c2_elabs,syndirella_product,openbind_a71ev2a_c2_elabs_fragonly_scored_top80percent,BulkDock Fragalysis export,openbind_a71ev2a_c2_elabs_scored,openbind_a71ev2a_c2_elabs_scored_top80percent,openbind_a71ev2a_c2_elabs_activefrags_only_scored_5.2plus,openbind_a71ev2a_c2_elabs_activefrags_only_scored_5.5plus,syndirella_placed

>  <smina_score_min>  (74) 
-6.411

$$$$
P535748
     RDKit          3D

 21 22  0  0  0  0  0  0  0  0999 V2000
    5.5716   12.1132   29.7603 C   0  0  0  0  0  0  0  0  0  0  0  0
    6.3077   12.6092   28.5852 N   0  0  0  0  0  0  0  0  0  0  0  0
    5.7054   12.0218   27.1039 S   0  0  0  0  0  0  0  0  0  0  0  0
    4.5018   12.7732   26.8383 O   0  0  0  0  0  0  0  0  0  0  0  0
    5.7348   10.5794   27.1601 O   0  0  0  0  0  0  0  0  0  0  0  0
    6.8429   12.5048   25.9015 C   0  0  0  0  0  0  0  0  0  0  0  0
    7.1515   13.8213   25.6194 C   0  0  0  0  0  0  0  0  0  0  0  0
    8.1456   13.8233   24.6842 N   0  0  0  0  0  0  0  0  0  0  0  0
    8.5168   12.5362   24.3668 C   0  0  0  0  0  0  0  0  0  0  0  0
    9.4583   12.0743   23.4319 C   0  0  0  0  0  0  0  0  0  0  0  0
   10.1104   12.9416   22.5868 N   0  0  0  0  0  0  0  0  0  0  0  0
   10.7799   14.2851   22.8670 C   0  0  0  0  0  0  0  0  0  0  0  0
   10.9579   14.8428   23.8691 O   0  0  0  0  0  0  0  0  0  0  0  0
   11.1120   14.8744   21.5512 C   0  0  0  0  0  0  0  0  0  0  0  0
   10.0732   15.3656   20.8428 C   0  0  0  0  0  0  0  0  0  0  0  0
   10.1795   16.0979   19.5514 C   0  0  0  0  0  0  0  0  0  0  0  0
    8.4029   15.2129   21.3455 Cl  0  0  0  0  0  0  0  0  0  0  0  0
    9.5629   10.7210   23.2213 C   0  0  0  0  0  0  0  0  0  0  0  0
    8.8195    9.8576   23.9925 C   0  0  0  0  0  0  0  0  0  0  0  0
    7.8368   10.2979   24.8829 C   0  0  0  0  0  0  0  0  0  0  0  0
    7.6733   11.6790   25.0844 C   0  0  0  0  0  0  0  0  0  0  0  0
  1  2  1  0
  2  3  1  0
  3  4  2  0
  3  5  2  0
  3  6  1  0
  6  7  2  0
  7  8  1  0
  8  9  1  0
  9 10  2  0
 10 11  1  0
 11 12  1  0
 12 13  2  0
 12 14  1  0
 14 15  2  0
 15 16  1  0
 15 17  1  0
 10 18  1  0
 18 19  2  0
 19 20  1  0
 20 21  2  0
 21  6  1  0
 21  9  1  0
M  END
>  <alias>  (75) 
None

>  <rmsd(smina/fragmenstein)>  (75) 
0.41

>  <smiles>  (75) 
CNS(=O)(=O)c1c[nH]c2c(NC(=O)/C=C(/C)Cl)cccc12

>  <gnina_score>  (75) 
5.785

>  <inspiration_score>  (75) 
None

>  <energy_score>  (75) 
-22.93469

>  <distance_score>  (75) 
0.796834

>  <gnina_score_min>  (75) 
5.742

>  <inchikey>  (75) 
MZCNCUUZWKYHHO-VURMDHGXSA-N

>  <exports>  (75) 
['/opt/xchem-fragalysis-2/maxwin/BulkDock/OUTPUTS/openbind_a71ev2a_c2_elabs_1LOUU54.sdf', '/opt/xchem-fragalysis-2/maxwin/BulkDock/OUTPUTS/openbind_a71ev2a_c2_elabs_1LSYIDY.sdf']

>  <name>  (75) 
P535748

>  <ref_pdb>  (75) 
A0554a

>  <subsites>  (75) 
None

>  <HIPPO Pose ID>  (75) 
535748

>  <ref_mols>  (75) 
A0554a

>  <HIPPO Compound ID>  (75) 
367958

>  <tags>  (75) 
openbind_a71ev2a_c2_elabs,syndirella_product,openbind_a71ev2a_c2_elabs_fragonly_scored_top80percent,BulkDock Fragalysis export,openbind_a71ev2a_c2_elabs_scored,openbind_a71ev2a_c2_elabs_scored_top80percent,openbind_a71ev2a_c2_elabs_activefrags_only_scored_5.2plus,openbind_a71ev2a_c2_elabs_activefrags_only_scored_5.5plus,syndirella_placed

>  <smina_score_min>  (75) 
-6.593

$$$$
P535749
     RDKit          3D

 21 23  0  0  0  0  0  0  0  0999 V2000
    4.2930   16.5704   26.7211 C   0  0  0  0  0  0  0  0  0  0  0  0
    5.1034   15.7687   27.7230 C   0  0  0  0  0  0  0  0  0  0  0  0
    5.7073   14.6389   27.0785 O   0  0  0  0  0  0  0  0  0  0  0  0
    6.9009   14.8842   26.4729 C   0  0  0  0  0  0  0  0  0  0  0  0
    7.5214   15.9379   26.5168 O   0  0  0  0  0  0  0  0  0  0  0  0
    7.3554   13.7105   25.7747 C   0  0  0  0  0  0  0  0  0  0  0  0
    6.9251   12.3943   25.8000 C   0  0  0  0  0  0  0  0  0  0  0  0
    7.7814   11.6314   24.9582 C   0  0  0  0  0  0  0  0  0  0  0  0
    7.8685   10.2709   24.6248 C   0  0  0  0  0  0  0  0  0  0  0  0
    8.8313    9.8851   23.6918 C   0  0  0  0  0  0  0  0  0  0  0  0
    9.6398   10.7973   23.0507 C   0  0  0  0  0  0  0  0  0  0  0  0
    9.6022   12.1294   23.3938 C   0  0  0  0  0  0  0  0  0  0  0  0
   10.3474   13.0297   22.6647 N   0  0  0  0  0  0  0  0  0  0  0  0
   11.0455   14.3296   23.0957 C   0  0  0  0  0  0  0  0  0  0  0  0
   11.1673   14.8083   24.1541 O   0  0  0  0  0  0  0  0  0  0  0  0
   11.5405   15.0802   21.8180 C   0  0  0  0  0  0  0  0  0  0  0  0
   10.4449   15.4235   20.7685 C   0  0  0  0  0  0  0  0  0  0  0  0
   11.3334   14.8553   19.6609 C   0  0  0  0  0  0  0  0  0  0  0  0
   12.3447   14.3964   20.7176 C   0  0  0  0  0  0  0  0  0  0  0  0
    8.6863   12.5208   24.3760 C   0  0  0  0  0  0  0  0  0  0  0  0
    8.4134   13.7607   24.8979 N   0  0  0  0  0  0  0  0  0  0  0  0
  1  2  1  0
  2  3  1  0
  3  4  1  0
  4  5  2  0
  4  6  1  0
  6  7  2  0
  7  8  1  0
  8  9  2  0
  9 10  1  0
 10 11  2  0
 11 12  1  0
 12 13  1  0
 13 14  1  0
 14 15  2  0
 14 16  1  0
 16 17  1  0
 17 18  1  0
 18 19  1  0
 12 20  2  0
 20 21  1  0
 21  6  1  0
 20  8  1  0
 19 16  1  0
M  END
>  <alias>  (76) 
None

>  <rmsd(smina/fragmenstein)>  (76) 
1.369

>  <smiles>  (76) 
CCOC(=O)c1cc2cccc(NC(=O)C3CCC3)c2[nH]1

>  <gnina_score>  (76) 
5.209

>  <inspiration_score>  (76) 
None

>  <energy_score>  (76) 
-30.303919

>  <distance_score>  (76) 
0.715917

>  <gnina_score_min>  (76) 
5.352

>  <inchikey>  (76) 
RTENMUVAKHUINJ-UHFFFAOYSA-N

>  <exports>  (76) 
['/opt/xchem-fragalysis-2/maxwin/BulkDock/OUTPUTS/openbind_a71ev2a_c2_elabs_1LOUU54.sdf', '/opt/xchem-fragalysis-2/maxwin/BulkDock/OUTPUTS/openbind_a71ev2a_c2_elabs_1LSYIDY.sdf']

>  <name>  (76) 
P535749

>  <ref_pdb>  (76) 
A0554a

>  <subsites>  (76) 
None

>  <HIPPO Pose ID>  (76) 
535749

>  <ref_mols>  (76) 
A0554a

>  <HIPPO Compound ID>  (76) 
367959

>  <tags>  (76) 
openbind_a71ev2a_c2_elabs,syndirella_product,openbind_a71ev2a_c2_elabs_fragonly_scored_top80percent,openbind_a71ev2a_c2_elabs_scored,BulkDock Fragalysis export,openbind_a71ev2a_c2_elabs_scored_top80percent,openbind_a71ev2a_c2_elabs_activefrags_only_scored_5.2plus,syndirella_placed

>  <smina_score_min>  (76) 
-6.83

$$$$
P535754
     RDKit          3D

 21 22  0  0  0  0  0  0  0  0999 V2000
    6.9067   14.0271   29.1046 C   0  0  0  0  0  0  0  0  0  0  0  0
    5.6796   13.9482   28.3209 N   0  0  0  0  0  0  0  0  0  0  0  0
    5.5476   12.7268   27.1688 S   0  0  0  0  0  0  0  0  0  0  0  0
    4.2816   12.9266   26.5076 O   0  0  0  0  0  0  0  0  0  0  0  0
    5.9153   11.4754   27.7942 O   0  0  0  0  0  0  0  0  0  0  0  0
    6.7394   12.9947   25.9478 C   0  0  0  0  0  0  0  0  0  0  0  0
    7.2130   14.2284   25.5561 C   0  0  0  0  0  0  0  0  0  0  0  0
    8.2013   14.0182   24.6366 N   0  0  0  0  0  0  0  0  0  0  0  0
    8.3865   12.6730   24.4060 C   0  0  0  0  0  0  0  0  0  0  0  0
    9.2863   12.0098   23.5479 C   0  0  0  0  0  0  0  0  0  0  0  0
   10.2418   12.6827   22.7992 N   0  0  0  0  0  0  0  0  0  0  0  0
   10.8980   14.0628   23.0185 C   0  0  0  0  0  0  0  0  0  0  0  0
   10.7955   14.8163   23.9030 O   0  0  0  0  0  0  0  0  0  0  0  0
   11.7188   14.4434   21.7656 C   0  0  2  0  0  0  0  0  0  0  0  0
   12.4601   15.6343   22.0357 O   0  0  0  0  0  0  0  0  0  0  0  0
   10.8647   14.6585   20.5285 C   0  0  0  0  0  0  0  0  0  0  0  0
    9.7220   16.2197   20.6366 Br  0  0  0  0  0  0  0  0  0  0  0  0
    9.2030   10.6306   23.4768 C   0  0  0  0  0  0  0  0  0  0  0  0
    8.2915    9.9648   24.2828 C   0  0  0  0  0  0  0  0  0  0  0  0
    7.3926   10.6137   25.1236 C   0  0  0  0  0  0  0  0  0  0  0  0
    7.4362   12.0084   25.1918 C   0  0  0  0  0  0  0  0  0  0  0  0
  1  2  1  0
  2  3  1  0
  3  4  2  0
  3  5  2  0
  3  6  1  0
  6  7  2  0
  7  8  1  0
  8  9  1  0
  9 10  2  0
 10 11  1  0
 11 12  1  0
 12 13  2  0
 12 14  1  0
 14 15  1  1
 14 16  1  0
 16 17  1  0
 10 18  1  0
 18 19  2  0
 19 20  1  0
 20 21  2  0
 21  6  1  0
 21  9  1  0
M  END
>  <alias>  (77) 
None

>  <rmsd(smina/fragmenstein)>  (77) 
0.452

>  <smiles>  (77) 
CNS(=O)(=O)c1c[nH]c2c(NC(=O)[C@H](O)CBr)cccc12

>  <gnina_score>  (77) 
5.339

>  <inspiration_score>  (77) 
None

>  <energy_score>  (77) 
-52.008657

>  <distance_score>  (77) 
0.874928

>  <gnina_score_min>  (77) 
5.484

>  <inchikey>  (77) 
SKORYVSVJPDWGG-SECBINFHSA-N

>  <exports>  (77) 
['/opt/xchem-fragalysis-2/maxwin/BulkDock/OUTPUTS/openbind_a71ev2a_c2_elabs_1LOUU54.sdf', '/opt/xchem-fragalysis-2/maxwin/BulkDock/OUTPUTS/openbind_a71ev2a_c2_elabs_1LSYIDY.sdf']

>  <name>  (77) 
P535754

>  <ref_pdb>  (77) 
A0554a

>  <subsites>  (77) 
None

>  <HIPPO Pose ID>  (77) 
535754

>  <ref_mols>  (77) 
A0554a

>  <HIPPO Compound ID>  (77) 
367965

>  <tags>  (77) 
openbind_a71ev2a_c2_elabs,syndirella_product,openbind_a71ev2a_c2_elabs_fragonly_scored_top80percent,openbind_a71ev2a_c2_elabs_scored,BulkDock Fragalysis export,openbind_a71ev2a_c2_elabs_scored_top80percent,openbind_a71ev2a_c2_elabs_activefrags_only_scored_5.2plus,syndirella_placed

>  <smina_score_min>  (77) 
-6.179

$$$$
P535756
     RDKit          3D

 21 22  0  0  0  0  0  0  0  0999 V2000
    4.4787   16.7959   28.2802 C   0  0  0  0  0  0  0  0  0  0  0  0
    5.9341   16.7656   27.8565 C   0  0  0  0  0  0  0  0  0  0  0  0
    6.1900   15.5048   27.2290 O   0  0  0  0  0  0  0  0  0  0  0  0
    7.4451   15.3910   26.7178 C   0  0  0  0  0  0  0  0  0  0  0  0
    8.3485   16.2032   26.8636 O   0  0  0  0  0  0  0  0  0  0  0  0
    7.5782   14.1538   25.9971 C   0  0  0  0  0  0  0  0  0  0  0  0
    6.8501   12.9812   26.0687 C   0  0  0  0  0  0  0  0  0  0  0  0
    7.5011   12.0156   25.2600 C   0  0  0  0  0  0  0  0  0  0  0  0
    7.2822   10.6582   25.0341 C   0  0  0  0  0  0  0  0  0  0  0  0
    8.1025   10.0112   24.1187 C   0  0  0  0  0  0  0  0  0  0  0  0
    9.1246   10.6506   23.4315 C   0  0  0  0  0  0  0  0  0  0  0  0
    9.3765   11.9925   23.6700 C   0  0  0  0  0  0  0  0  0  0  0  0
   10.3452   12.6439   22.9263 N   0  0  0  0  0  0  0  0  0  0  0  0
   11.1330   13.9532   23.2197 C   0  0  0  0  0  0  0  0  0  0  0  0
   11.1387   14.6370   24.1678 O   0  0  0  0  0  0  0  0  0  0  0  0
   11.8946   14.2991   21.9180 C   0  0  2  0  0  0  0  0  0  0  0  0
   12.9562   15.2115   22.1497 O   0  0  0  0  0  0  0  0  0  0  0  0
   10.8863   14.9141   20.9565 C   0  0  0  0  0  0  0  0  0  0  0  0
   11.5488   14.7500   19.1372 Br  0  0  0  0  0  0  0  0  0  0  0  0
    8.5627   12.6452   24.6093 C   0  0  0  0  0  0  0  0  0  0  0  0
    8.5774   13.9403   25.0749 N   0  0  0  0  0  0  0  0  0  0  0  0
  1  2  1  0
  2  3  1  0
  3  4  1  0
  4  5  2  0
  4  6  1  0
  6  7  2  0
  7  8  1  0
  8  9  2  0
  9 10  1  0
 10 11  2  0
 11 12  1  0
 12 13  1  0
 13 14  1  0
 14 15  2  0
 14 16  1  0
 16 17  1  1
 16 18  1  0
 18 19  1  0
 12 20  2  0
 20 21  1  0
 21  6  1  0
 20  8  1  0
M  END
>  <alias>  (78) 
None

>  <rmsd(smina/fragmenstein)>  (78) 
0.918

>  <smiles>  (78) 
CCOC(=O)c1cc2cccc(NC(=O)[C@H](O)CBr)c2[nH]1

>  <gnina_score>  (78) 
5.014

>  <inspiration_score>  (78) 
None

>  <energy_score>  (78) 
-19.199383

>  <distance_score>  (78) 
0.844264

>  <gnina_score_min>  (78) 
5.253

>  <inchikey>  (78) 
MORKNFVPNVCKJE-LLVKDONJSA-N

>  <exports>  (78) 
['/opt/xchem-fragalysis-2/maxwin/BulkDock/OUTPUTS/openbind_a71ev2a_c2_elabs_1LOUU54.sdf', '/opt/xchem-fragalysis-2/maxwin/BulkDock/OUTPUTS/openbind_a71ev2a_c2_elabs_1LSYIDY.sdf']

>  <name>  (78) 
P535756

>  <ref_pdb>  (78) 
A0554a

>  <subsites>  (78) 
None

>  <HIPPO Pose ID>  (78) 
535756

>  <ref_mols>  (78) 
A0554a

>  <HIPPO Compound ID>  (78) 
367967

>  <tags>  (78) 
openbind_a71ev2a_c2_elabs,syndirella_product,openbind_a71ev2a_c2_elabs_fragonly_scored_top80percent,openbind_a71ev2a_c2_elabs_scored,BulkDock Fragalysis export,openbind_a71ev2a_c2_elabs_scored_top80percent,openbind_a71ev2a_c2_elabs_activefrags_only_scored_5.2plus,syndirella_placed

>  <smina_score_min>  (78) 
-6.206

$$$$
P535765
     RDKit          3D

 21 22  0  0  0  0  0  0  0  0999 V2000
    7.2830   16.7939   28.4879 C   0  0  0  0  0  0  0  0  0  0  0  0
    6.5132   16.6742   27.1856 C   0  0  0  0  0  0  0  0  0  0  0  0
    7.0617   15.6088   26.3933 O   0  0  0  0  0  0  0  0  0  0  0  0
    6.4999   14.3889   26.6227 C   0  0  0  0  0  0  0  0  0  0  0  0
    5.6227   14.1576   27.4446 O   0  0  0  0  0  0  0  0  0  0  0  0
    7.1404   13.3869   25.8082 C   0  0  0  0  0  0  0  0  0  0  0  0
    6.8835   12.0285   25.8121 C   0  0  0  0  0  0  0  0  0  0  0  0
    7.7947   11.3997   24.9313 C   0  0  0  0  0  0  0  0  0  0  0  0
    8.0157   10.0616   24.5709 C   0  0  0  0  0  0  0  0  0  0  0  0
    9.0086    9.7756   23.6396 C   0  0  0  0  0  0  0  0  0  0  0  0
    9.6987   10.7841   23.0105 C   0  0  0  0  0  0  0  0  0  0  0  0
    9.5284   12.1086   23.3651 C   0  0  0  0  0  0  0  0  0  0  0  0
   10.1663   13.0593   22.5982 N   0  0  0  0  0  0  0  0  0  0  0  0
   10.8756   14.3682   23.0083 C   0  0  0  0  0  0  0  0  0  0  0  0
   11.0986   14.8083   24.0663 O   0  0  0  0  0  0  0  0  0  0  0  0
   11.1877   15.1356   21.7020 C   0  0  2  0  0  0  0  0  0  0  0  0
    9.5610   15.5316   21.0053 Cl  0  0  0  0  0  0  0  0  0  0  0  0
   12.1414   14.4966   20.7048 C   0  0  0  0  0  0  0  0  0  0  0  0
   11.7564   14.6788   19.2417 C   0  0  0  0  0  0  0  0  0  0  0  0
    8.5812   12.4017   24.3549 C   0  0  0  0  0  0  0  0  0  0  0  0
    8.1375   13.5973   24.8784 N   0  0  0  0  0  0  0  0  0  0  0  0
  1  2  1  0
  2  3  1  0
  3  4  1  0
  4  5  2  0
  4  6  1  0
  6  7  2  0
  7  8  1  0
  8  9  2  0
  9 10  1  0
 10 11  2  0
 11 12  1  0
 12 13  1  0
 13 14  1  0
 14 15  2  0
 14 16  1  0
 16 17  1  6
 16 18  1  0
 18 19  1  0
 12 20  2  0
 20 21  1  0
 21  6  1  0
 20  8  1  0
M  END
>  <alias>  (79) 
None

>  <rmsd(smina/fragmenstein)>  (79) 
0.808

>  <smiles>  (79) 
CCOC(=O)c1cc2cccc(NC(=O)[C@H](Cl)CC)c2[nH]1

>  <gnina_score>  (79) 
5.365

>  <inspiration_score>  (79) 
None

>  <energy_score>  (79) 
-17.418139

>  <distance_score>  (79) 
0.704653

>  <gnina_score_min>  (79) 
5.225

>  <inchikey>  (79) 
QCQPPMBDCDEGBM-SNVBAGLBSA-N

>  <exports>  (79) 
['/opt/xchem-fragalysis-2/maxwin/BulkDock/OUTPUTS/openbind_a71ev2a_c2_elabs_1LOUU54.sdf', '/opt/xchem-fragalysis-2/maxwin/BulkDock/OUTPUTS/openbind_a71ev2a_c2_elabs_1LSYIDY.sdf']

>  <name>  (79) 
P535765

>  <ref_pdb>  (79) 
A0554a

>  <subsites>  (79) 
None

>  <HIPPO Pose ID>  (79) 
535765

>  <ref_mols>  (79) 
A0554a

>  <HIPPO Compound ID>  (79) 
367975

>  <tags>  (79) 
openbind_a71ev2a_c2_elabs,syndirella_product,openbind_a71ev2a_c2_elabs_fragonly_scored_top80percent,openbind_a71ev2a_c2_elabs_scored,BulkDock Fragalysis export,openbind_a71ev2a_c2_elabs_scored_top80percent,openbind_a71ev2a_c2_elabs_activefrags_only_scored_5.2plus,syndirella_placed

>  <smina_score_min>  (79) 
-5.954

$$$$
P535770
     RDKit          3D

 21 23  0  0  0  0  0  0  0  0999 V2000
    4.1423   16.0298   28.2765 C   0  0  0  0  0  0  0  0  0  0  0  0
    5.5560   16.2409   27.7708 C   0  0  0  0  0  0  0  0  0  0  0  0
    5.9852   15.0344   27.1300 O   0  0  0  0  0  0  0  0  0  0  0  0
    7.2217   15.1226   26.5721 C   0  0  0  0  0  0  0  0  0  0  0  0
    7.9864   16.0730   26.6761 O   0  0  0  0  0  0  0  0  0  0  0  0
    7.5356   13.9177   25.8524 C   0  0  0  0  0  0  0  0  0  0  0  0
    6.9755   12.6519   25.8758 C   0  0  0  0  0  0  0  0  0  0  0  0
    7.7628   11.8075   25.0440 C   0  0  0  0  0  0  0  0  0  0  0  0
    7.7152   10.4468   24.7180 C   0  0  0  0  0  0  0  0  0  0  0  0
    8.6296    9.9748   23.7788 C   0  0  0  0  0  0  0  0  0  0  0  0
    9.5562   10.7867   23.1580 C   0  0  0  0  0  0  0  0  0  0  0  0
    9.6440   12.1202   23.4928 C   0  0  0  0  0  0  0  0  0  0  0  0
   10.4082   12.9529   22.7019 N   0  0  0  0  0  0  0  0  0  0  0  0
   11.0741   14.2941   23.0216 C   0  0  0  0  0  0  0  0  0  0  0  0
   11.1514   14.8770   24.0244 O   0  0  0  0  0  0  0  0  0  0  0  0
   11.6144   14.9677   21.7848 C   0  0  1  0  0  0  0  0  0  0  0  0
   12.2326   14.2696   20.6221 C   0  0  0  0  0  0  0  0  0  0  0  0
   10.8168   14.7753   20.4866 C   0  0  2  0  0  0  0  0  0  0  0  0
   10.4711   15.8681   19.5440 C   0  0  0  0  0  0  0  0  0  0  0  0
    8.7519   12.6018   24.4596 C   0  0  0  0  0  0  0  0  0  0  0  0
    8.5770   13.8685   24.9571 N   0  0  0  0  0  0  0  0  0  0  0  0
  1  2  1  0
  2  3  1  0
  3  4  1  0
  4  5  2  0
  4  6  1  0
  6  7  2  0
  7  8  1  0
  8  9  2  0
  9 10  1  0
 10 11  2  0
 11 12  1  0
 12 13  1  0
 13 14  1  0
 14 15  2  0
 16 14  1  1
 16 17  1  0
 17 18  1  0
 18 19  1  6
 12 20  2  0
 20 21  1  0
 21  6  1  0
 20  8  1  0
 18 16  1  0
M  END
>  <alias>  (80) 
None

>  <rmsd(smina/fragmenstein)>  (80) 
1.59

>  <smiles>  (80) 
CCOC(=O)c1cc2cccc(NC(=O)[C@H]3C[C@@H]3C)c2[nH]1

>  <gnina_score>  (80) 
5.168

>  <inspiration_score>  (80) 
None

>  <energy_score>  (80) 
-20.675106

>  <distance_score>  (80) 
0.79998

>  <gnina_score_min>  (80) 
5.32

>  <inchikey>  (80) 
NEGPRSRYFITKLG-ONGXEEELSA-N

>  <exports>  (80) 
['/opt/xchem-fragalysis-2/maxwin/BulkDock/OUTPUTS/openbind_a71ev2a_c2_elabs_1LOUU54.sdf', '/opt/xchem-fragalysis-2/maxwin/BulkDock/OUTPUTS/openbind_a71ev2a_c2_elabs_1LSYIDY.sdf']

>  <name>  (80) 
P535770

>  <ref_pdb>  (80) 
A0554a

>  <subsites>  (80) 
None

>  <HIPPO Pose ID>  (80) 
535770

>  <ref_mols>  (80) 
A0554a

>  <HIPPO Compound ID>  (80) 
367979

>  <tags>  (80) 
openbind_a71ev2a_c2_elabs,syndirella_product,openbind_a71ev2a_c2_elabs_fragonly_scored_top80percent,openbind_a71ev2a_c2_elabs_scored,BulkDock Fragalysis export,openbind_a71ev2a_c2_elabs_scored_top80percent,openbind_a71ev2a_c2_elabs_activefrags_only_scored_5.2plus,syndirella_placed

>  <smina_score_min>  (80) 
-6.816

$$$$
P535776
     RDKit          3D

 21 23  0  0  0  0  0  0  0  0999 V2000
    6.6481   13.2362   29.5667 C   0  0  0  0  0  0  0  0  0  0  0  0
    5.6200   13.5115   28.5699 N   0  0  0  0  0  0  0  0  0  0  0  0
    5.5017   12.4576   27.2579 S   0  0  0  0  0  0  0  0  0  0  0  0
    5.7741   11.1216   27.7414 O   0  0  0  0  0  0  0  0  0  0  0  0
    4.2709   12.8012   26.5892 O   0  0  0  0  0  0  0  0  0  0  0  0
    6.7620   12.8220   26.1427 C   0  0  0  0  0  0  0  0  0  0  0  0
    7.2793   14.0839   25.9415 C   0  0  0  0  0  0  0  0  0  0  0  0
    8.2921   13.9759   25.0344 N   0  0  0  0  0  0  0  0  0  0  0  0
    8.4626   12.6665   24.6398 C   0  0  0  0  0  0  0  0  0  0  0  0
    9.3778   12.1117   23.7246 C   0  0  0  0  0  0  0  0  0  0  0  0
   10.3183   12.8936   23.0817 N   0  0  0  0  0  0  0  0  0  0  0  0
   11.0640   14.1414   23.5549 C   0  0  0  0  0  0  0  0  0  0  0  0
   11.0666   14.6713   24.5904 O   0  0  0  0  0  0  0  0  0  0  0  0
   11.8248   14.8265   22.4757 C   0  0  1  0  0  0  0  0  0  0  0  0
   12.1717   14.4458   21.0800 C   0  0  0  0  0  0  0  0  0  0  0  0
   11.0076   15.3636   21.3030 C   0  0  1  0  0  0  0  0  0  0  0  0
    9.6240   14.9694   20.9434 C   0  0  0  0  0  0  0  0  0  0  0  0
    9.2392   10.7790   23.4051 C   0  0  0  0  0  0  0  0  0  0  0  0
    8.2643   10.0329   24.0467 C   0  0  0  0  0  0  0  0  0  0  0  0
    7.3926   10.5562   25.0028 C   0  0  0  0  0  0  0  0  0  0  0  0
    7.4691   11.9235   25.2894 C   0  0  0  0  0  0  0  0  0  0  0  0
  1  2  1  0
  2  3  1  0
  3  4  2  0
  3  5  2  0
  3  6  1  0
  6  7  2  0
  7  8  1  0
  8  9  1  0
  9 10  2  0
 10 11  1  0
 11 12  1  0
 12 13  2  0
 14 12  1  1
 14 15  1  0
 15 16  1  0
 16 17  1  1
 10 18  1  0
 18 19  2  0
 19 20  1  0
 20 21  2  0
 21  6  1  0
 21  9  1  0
 16 14  1  0
M  END
>  <alias>  (81) 
None

>  <rmsd(smina/fragmenstein)>  (81) 
0.484

>  <smiles>  (81) 
CNS(=O)(=O)c1c[nH]c2c(NC(=O)[C@H]3C[C@H]3C)cccc12

>  <gnina_score>  (81) 
5.509

>  <inspiration_score>  (81) 
None

>  <energy_score>  (81) 
-30.140556

>  <distance_score>  (81) 
0.79188

>  <gnina_score_min>  (81) 
5.628

>  <inchikey>  (81) 
LUWQQXRDNLOPNJ-SCZZXKLOSA-N

>  <exports>  (81) 
['/opt/xchem-fragalysis-2/maxwin/BulkDock/OUTPUTS/openbind_a71ev2a_c2_elabs_1LOUU54.sdf', '/opt/xchem-fragalysis-2/maxwin/BulkDock/OUTPUTS/openbind_a71ev2a_c2_elabs_1LSYIDY.sdf']

>  <name>  (81) 
P535776

>  <ref_pdb>  (81) 
A0554a

>  <subsites>  (81) 
None

>  <HIPPO Pose ID>  (81) 
535776

>  <ref_mols>  (81) 
A0554a

>  <HIPPO Compound ID>  (81) 
367981

>  <tags>  (81) 
openbind_a71ev2a_c2_elabs,syndirella_product,openbind_a71ev2a_c2_elabs_fragonly_scored_top80percent,BulkDock Fragalysis export,openbind_a71ev2a_c2_elabs_scored,openbind_a71ev2a_c2_elabs_scored_top80percent,openbind_a71ev2a_c2_elabs_activefrags_only_scored_5.2plus,openbind_a71ev2a_c2_elabs_activefrags_only_scored_5.5plus,syndirella_placed

>  <smina_score_min>  (81) 
-6.942

$$$$
P535782
     RDKit          3D

 21 22  0  0  0  0  0  0  0  0999 V2000
    3.7926   13.7975   26.1983 C   0  0  0  0  0  0  0  0  0  0  0  0
    4.7273   13.6647   27.3178 N   0  0  0  0  0  0  0  0  0  0  0  0
    5.8787   12.4421   27.2277 S   0  0  0  0  0  0  0  0  0  0  0  0
    6.6734   12.5322   28.4342 O   0  0  0  0  0  0  0  0  0  0  0  0
    5.2255   11.2108   26.8560 O   0  0  0  0  0  0  0  0  0  0  0  0
    6.9898   12.8193   25.9680 C   0  0  0  0  0  0  0  0  0  0  0  0
    7.4041   14.1048   25.6861 C   0  0  0  0  0  0  0  0  0  0  0  0
    8.3627   14.0272   24.7227 N   0  0  0  0  0  0  0  0  0  0  0  0
    8.5875   12.7199   24.3583 C   0  0  0  0  0  0  0  0  0  0  0  0
    9.4600   12.2011   23.3878 C   0  0  0  0  0  0  0  0  0  0  0  0
   10.2274   13.0282   22.5850 N   0  0  0  0  0  0  0  0  0  0  0  0
   10.9809   14.3381   22.9208 C   0  0  0  0  0  0  0  0  0  0  0  0
   11.1354   14.8814   23.9437 O   0  0  0  0  0  0  0  0  0  0  0  0
   11.4838   14.9929   21.5987 C   0  0  0  0  0  0  0  0  0  0  0  0
   12.3548   14.1348   20.7213 C   0  0  0  0  0  0  0  0  0  0  0  0
   10.2717   15.4997   20.8094 C   0  0  0  0  0  0  0  0  0  0  0  0
   12.2575   16.0811   21.9132 F   0  0  0  0  0  0  0  0  0  0  0  0
    9.4546   10.8371   23.1886 C   0  0  0  0  0  0  0  0  0  0  0  0
    8.6346   10.0336   23.9619 C   0  0  0  0  0  0  0  0  0  0  0  0
    7.7345   10.5437   24.9011 C   0  0  0  0  0  0  0  0  0  0  0  0
    7.7036   11.9312   25.1087 C   0  0  0  0  0  0  0  0  0  0  0  0
  1  2  1  0
  2  3  1  0
  3  4  2  0
  3  5  2  0
  3  6  1  0
  6  7  2  0
  7  8  1  0
  8  9  1  0
  9 10  2  0
 10 11  1  0
 11 12  1  0
 12 13  2  0
 12 14  1  0
 14 15  1  0
 14 16  1  0
 14 17  1  0
 10 18  1  0
 18 19  2  0
 19 20  1  0
 20 21  2  0
 21  6  1  0
 21  9  1  0
M  END
>  <alias>  (82) 
None

>  <rmsd(smina/fragmenstein)>  (82) 
0.619

>  <smiles>  (82) 
CNS(=O)(=O)c1c[nH]c2c(NC(=O)C(C)(C)F)cccc12

>  <gnina_score>  (82) 
5.4

>  <inspiration_score>  (82) 
None

>  <energy_score>  (82) 
-29.671293

>  <distance_score>  (82) 
0.906275

>  <gnina_score_min>  (82) 
5.359

>  <inchikey>  (82) 
COYNYBCULXPVFU-UHFFFAOYSA-N

>  <exports>  (82) 
['/opt/xchem-fragalysis-2/maxwin/BulkDock/OUTPUTS/openbind_a71ev2a_c2_elabs_1LOUU54.sdf', '/opt/xchem-fragalysis-2/maxwin/BulkDock/OUTPUTS/openbind_a71ev2a_c2_elabs_1LSYIDY.sdf']

>  <name>  (82) 
P535782

>  <ref_pdb>  (82) 
A0554a

>  <subsites>  (82) 
None

>  <HIPPO Pose ID>  (82) 
535782

>  <ref_mols>  (82) 
A0554a

>  <HIPPO Compound ID>  (82) 
367994

>  <tags>  (82) 
openbind_a71ev2a_c2_elabs,syndirella_product,openbind_a71ev2a_c2_elabs_fragonly_scored_top80percent,openbind_a71ev2a_c2_elabs_scored,BulkDock Fragalysis export,openbind_a71ev2a_c2_elabs_scored_top80percent,openbind_a71ev2a_c2_elabs_activefrags_only_scored_5.2plus,syndirella_placed

>  <smina_score_min>  (82) 
-6.274

$$$$
P535787
     RDKit          3D

 21 22  0  0  0  0  0  0  0  0999 V2000
    3.7078   14.8354   25.0952 C   0  0  0  0  0  0  0  0  0  0  0  0
    3.8307   13.4359   25.5293 N   0  0  0  0  0  0  0  0  0  0  0  0
    4.9872   13.1221   26.7250 S   0  0  0  0  0  0  0  0  0  0  0  0
    4.8219   11.7590   27.1793 O   0  0  0  0  0  0  0  0  0  0  0  0
    5.0362   14.2288   27.6540 O   0  0  0  0  0  0  0  0  0  0  0  0
    6.5191   13.1464   25.9301 C   0  0  0  0  0  0  0  0  0  0  0  0
    7.2427   14.2918   25.6794 C   0  0  0  0  0  0  0  0  0  0  0  0
    8.3161   13.9397   24.9217 N   0  0  0  0  0  0  0  0  0  0  0  0
    8.3086   12.5876   24.6602 C   0  0  0  0  0  0  0  0  0  0  0  0
    9.1757   11.8149   23.8755 C   0  0  0  0  0  0  0  0  0  0  0  0
   10.2874   12.3684   23.2743 N   0  0  0  0  0  0  0  0  0  0  0  0
   11.1155   13.6287   23.6504 C   0  0  0  0  0  0  0  0  0  0  0  0
   10.9365   14.4336   24.4813 O   0  0  0  0  0  0  0  0  0  0  0  0
   12.2639   13.7240   22.6758 C   0  0  0  0  0  0  0  0  0  0  0  0
   12.2216   15.3114   21.8396 S   0  0  0  0  0  0  0  0  0  0  0  0
   10.5737   15.1506   20.6267 S   0  0  0  0  0  0  0  0  0  0  0  0
   11.3593   14.8155   19.0342 C   0  0  0  0  0  0  0  0  0  0  0  0
    8.9061   10.4630   23.7327 C   0  0  0  0  0  0  0  0  0  0  0  0
    7.8498    9.9119   24.4436 C   0  0  0  0  0  0  0  0  0  0  0  0
    7.0050   10.6731   25.2482 C   0  0  0  0  0  0  0  0  0  0  0  0
    7.2030   12.0553   25.3250 C   0  0  0  0  0  0  0  0  0  0  0  0
  1  2  1  0
  2  3  1  0
  3  4  2  0
  3  5  2  0
  3  6  1  0
  6  7  2  0
  7  8  1  0
  8  9  1  0
  9 10  2  0
 10 11  1  0
 11 12  1  0
 12 13  2  0
 12 14  1  0
 14 15  1  0
 15 16  1  0
 16 17  1  0
 10 18  1  0
 18 19  2  0
 19 20  1  0
 20 21  2  0
 21  6  1  0
 21  9  1  0
M  END
>  <alias>  (83) 
None

>  <rmsd(smina/fragmenstein)>  (83) 
0.379

>  <smiles>  (83) 
CNS(=O)(=O)c1c[nH]c2c(NC(=O)CSSC)cccc12

>  <gnina_score>  (83) 
5.645

>  <inspiration_score>  (83) 
None

>  <energy_score>  (83) 
-45.611982

>  <distance_score>  (83) 
0.908094

>  <gnina_score_min>  (83) 
5.555

>  <inchikey>  (83) 
NJJJXPBDVQOUEF-UHFFFAOYSA-N

>  <exports>  (83) 
['/opt/xchem-fragalysis-2/maxwin/BulkDock/OUTPUTS/openbind_a71ev2a_c2_elabs_1LOUU54.sdf', '/opt/xchem-fragalysis-2/maxwin/BulkDock/OUTPUTS/openbind_a71ev2a_c2_elabs_1LSYIDY.sdf']

>  <name>  (83) 
P535787

>  <ref_pdb>  (83) 
A0554a

>  <subsites>  (83) 
None

>  <HIPPO Pose ID>  (83) 
535787

>  <ref_mols>  (83) 
A0554a

>  <HIPPO Compound ID>  (83) 
367999

>  <tags>  (83) 
openbind_a71ev2a_c2_elabs,syndirella_product,openbind_a71ev2a_c2_elabs_fragonly_scored_top80percent,BulkDock Fragalysis export,openbind_a71ev2a_c2_elabs_scored,openbind_a71ev2a_c2_elabs_scored_top80percent,openbind_a71ev2a_c2_elabs_activefrags_only_scored_5.2plus,openbind_a71ev2a_c2_elabs_activefrags_only_scored_5.5plus,syndirella_placed

>  <smina_score_min>  (83) 
-5.393

$$$$
P535788
     RDKit          3D

 21 22  0  0  0  0  0  0  0  0999 V2000
    4.4542   17.0224   28.3185 C   0  0  0  0  0  0  0  0  0  0  0  0
    5.8944   16.9126   27.8577 C   0  0  0  0  0  0  0  0  0  0  0  0
    6.0805   15.6163   27.2793 O   0  0  0  0  0  0  0  0  0  0  0  0
    7.3129   15.4287   26.7372 C   0  0  0  0  0  0  0  0  0  0  0  0
    8.2547   16.2073   26.8187 O   0  0  0  0  0  0  0  0  0  0  0  0
    7.3771   14.1563   26.0710 C   0  0  0  0  0  0  0  0  0  0  0  0
    6.6059   13.0160   26.1946 C   0  0  0  0  0  0  0  0  0  0  0  0
    7.2206   11.9909   25.4307 C   0  0  0  0  0  0  0  0  0  0  0  0
    6.9760   10.6268   25.2828 C   0  0  0  0  0  0  0  0  0  0  0  0
    7.7861    9.8984   24.4180 C   0  0  0  0  0  0  0  0  0  0  0  0
    8.8426   10.4673   23.7193 C   0  0  0  0  0  0  0  0  0  0  0  0
    9.1409   11.8087   23.9145 C   0  0  0  0  0  0  0  0  0  0  0  0
   10.2742   12.3411   23.3317 N   0  0  0  0  0  0  0  0  0  0  0  0
   11.1032   13.6034   23.7039 C   0  0  0  0  0  0  0  0  0  0  0  0
   10.9976   14.3412   24.6073 O   0  0  0  0  0  0  0  0  0  0  0  0
   12.2136   13.7266   22.6843 C   0  0  0  0  0  0  0  0  0  0  0  0
   12.1403   15.3204   21.8758 S   0  0  0  0  0  0  0  0  0  0  0  0
   10.5166   15.1334   20.6366 S   0  0  0  0  0  0  0  0  0  0  0  0
   11.3335   14.8499   19.0479 C   0  0  0  0  0  0  0  0  0  0  0  0
    8.3072   12.5484   24.7634 C   0  0  0  0  0  0  0  0  0  0  0  0
    8.3513   13.8688   25.1450 N   0  0  0  0  0  0  0  0  0  0  0  0
  1  2  1  0
  2  3  1  0
  3  4  1  0
  4  5  2  0
  4  6  1  0
  6  7  2  0
  7  8  1  0
  8  9  2  0
  9 10  1  0
 10 11  2  0
 11 12  1  0
 12 13  1  0
 13 14  1  0
 14 15  2  0
 14 16  1  0
 16 17  1  0
 17 18  1  0
 18 19  1  0
 12 20  2  0
 20 21  1  0
 21  6  1  0
 20  8  1  0
M  END
>  <alias>  (84) 
None

>  <rmsd(smina/fragmenstein)>  (84) 
0.957

>  <smiles>  (84) 
CCOC(=O)c1cc2cccc(NC(=O)CSSC)c2[nH]1

>  <gnina_score>  (84) 
5.148

>  <inspiration_score>  (84) 
None

>  <energy_score>  (84) 
-31.792464

>  <distance_score>  (84) 
0.90375

>  <gnina_score_min>  (84) 
5.621

>  <inchikey>  (84) 
PXDBEXKAJBPYRI-UHFFFAOYSA-N

>  <exports>  (84) 
['/opt/xchem-fragalysis-2/maxwin/BulkDock/OUTPUTS/openbind_a71ev2a_c2_elabs_1LOUU54.sdf', '/opt/xchem-fragalysis-2/maxwin/BulkDock/OUTPUTS/openbind_a71ev2a_c2_elabs_1LSYIDY.sdf']

>  <name>  (84) 
P535788

>  <ref_pdb>  (84) 
A0554a

>  <subsites>  (84) 
None

>  <HIPPO Pose ID>  (84) 
535788

>  <ref_mols>  (84) 
A0554a

>  <HIPPO Compound ID>  (84) 
368000

>  <tags>  (84) 
openbind_a71ev2a_c2_elabs,syndirella_product,openbind_a71ev2a_c2_elabs_fragonly_scored_top80percent,BulkDock Fragalysis export,openbind_a71ev2a_c2_elabs_scored,openbind_a71ev2a_c2_elabs_scored_top80percent,openbind_a71ev2a_c2_elabs_activefrags_only_scored_5.2plus,openbind_a71ev2a_c2_elabs_activefrags_only_scored_5.5plus,syndirella_placed

>  <smina_score_min>  (84) 
-5.236

$$$$
P535796
     RDKit          3D

 21 23  0  0  0  0  0  0  0  0999 V2000
    6.5835   16.7583   29.3649 C   0  0  0  0  0  0  0  0  0  0  0  0
    6.1428   16.8211   27.9147 C   0  0  0  0  0  0  0  0  0  0  0  0
    6.3839   15.5623   27.2708 O   0  0  0  0  0  0  0  0  0  0  0  0
    7.6133   15.4174   26.7115 C   0  0  0  0  0  0  0  0  0  0  0  0
    8.5489   16.2011   26.8195 O   0  0  0  0  0  0  0  0  0  0  0  0
    7.6871   14.1809   25.9817 C   0  0  0  0  0  0  0  0  0  0  0  0
    6.9248   13.0286   26.0465 C   0  0  0  0  0  0  0  0  0  0  0  0
    7.5545   12.0457   25.2372 C   0  0  0  0  0  0  0  0  0  0  0  0
    7.3097   10.6927   25.0063 C   0  0  0  0  0  0  0  0  0  0  0  0
    8.1266   10.0296   24.0970 C   0  0  0  0  0  0  0  0  0  0  0  0
    9.1734   10.6491   23.4264 C   0  0  0  0  0  0  0  0  0  0  0  0
    9.4559   11.9834   23.6753 C   0  0  0  0  0  0  0  0  0  0  0  0
   10.4456   12.6230   22.9468 N   0  0  0  0  0  0  0  0  0  0  0  0
   11.2469   13.9199   23.2540 C   0  0  0  0  0  0  0  0  0  0  0  0
   11.2485   14.6032   24.2046 O   0  0  0  0  0  0  0  0  0  0  0  0
   12.0253   14.2639   21.9900 C   0  0  0  0  0  0  0  0  0  0  0  0
   11.2721   15.2790   21.1889 C   0  0  0  0  0  0  0  0  0  0  0  0
    9.8489   15.0528   20.7467 C   0  0  0  0  0  0  0  0  0  0  0  0
   10.9524   15.0838   19.7290 C   0  0  0  0  0  0  0  0  0  0  0  0
    8.6363   12.6495   24.5971 C   0  0  0  0  0  0  0  0  0  0  0  0
    8.6672   13.9466   25.0467 N   0  0  0  0  0  0  0  0  0  0  0  0
  1  2  1  0
  2  3  1  0
  3  4  1  0
  4  5  2  0
  4  6  1  0
  6  7  2  0
  7  8  1  0
  8  9  2  0
  9 10  1  0
 10 11  2  0
 11 12  1  0
 12 13  1  0
 13 14  1  0
 14 15  2  0
 14 16  1  0
 16 17  1  0
 17 18  1  0
 18 19  1  0
 12 20  2  0
 20 21  1  0
 21  6  1  0
 20  8  1  0
 19 17  1  0
M  END
>  <alias>  (85) 
None

>  <rmsd(smina/fragmenstein)>  (85) 
0.971

>  <smiles>  (85) 
CCOC(=O)c1cc2cccc(NC(=O)CC3CC3)c2[nH]1

>  <gnina_score>  (85) 
5.29

>  <inspiration_score>  (85) 
None

>  <energy_score>  (85) 
-16.540324

>  <distance_score>  (85) 
0.854041

>  <gnina_score_min>  (85) 
5.445

>  <inchikey>  (85) 
XIKWDAGOWGPLRF-UHFFFAOYSA-N

>  <exports>  (85) 
['/opt/xchem-fragalysis-2/maxwin/BulkDock/OUTPUTS/openbind_a71ev2a_c2_elabs_1LOUU54.sdf', '/opt/xchem-fragalysis-2/maxwin/BulkDock/OUTPUTS/openbind_a71ev2a_c2_elabs_1LSYIDY.sdf']

>  <name>  (85) 
P535796

>  <ref_pdb>  (85) 
A0554a

>  <subsites>  (85) 
None

>  <HIPPO Pose ID>  (85) 
535796

>  <ref_mols>  (85) 
A0554a

>  <HIPPO Compound ID>  (85) 
368012

>  <tags>  (85) 
openbind_a71ev2a_c2_elabs,syndirella_product,openbind_a71ev2a_c2_elabs_fragonly_scored_top80percent,openbind_a71ev2a_c2_elabs_scored,BulkDock Fragalysis export,openbind_a71ev2a_c2_elabs_scored_top80percent,openbind_a71ev2a_c2_elabs_activefrags_only_scored_5.2plus,syndirella_placed

>  <smina_score_min>  (85) 
-6.417

$$$$
P535798
     RDKit          3D

 21 23  0  0  0  0  0  0  0  0999 V2000
    6.5840   14.2887   29.4493 C   0  0  0  0  0  0  0  0  0  0  0  0
    5.5147   14.1440   28.4642 N   0  0  0  0  0  0  0  0  0  0  0  0
    5.5540   12.7769   27.4789 S   0  0  0  0  0  0  0  0  0  0  0  0
    6.0531   11.6755   28.2744 O   0  0  0  0  0  0  0  0  0  0  0  0
    4.2796   12.7170   26.8057 O   0  0  0  0  0  0  0  0  0  0  0  0
    6.7312   13.0092   26.2437 C   0  0  0  0  0  0  0  0  0  0  0  0
    7.2951   14.2170   25.8947 C   0  0  0  0  0  0  0  0  0  0  0  0
    8.2545   13.9688   24.9549 N   0  0  0  0  0  0  0  0  0  0  0  0
    8.3300   12.6212   24.6738 C   0  0  0  0  0  0  0  0  0  0  0  0
    9.1640   11.9235   23.7813 C   0  0  0  0  0  0  0  0  0  0  0  0
   10.0855   12.5824   22.9836 N   0  0  0  0  0  0  0  0  0  0  0  0
   10.8353   13.9221   23.2069 C   0  0  0  0  0  0  0  0  0  0  0  0
   10.8495   14.6360   24.1307 O   0  0  0  0  0  0  0  0  0  0  0  0
   11.5337   14.2591   21.8986 C   0  0  0  0  0  0  0  0  0  0  0  0
   10.5022   14.5738   20.8410 C   0  0  0  0  0  0  0  0  0  0  0  0
   10.9454   15.1642   19.5388 C   0  0  0  0  0  0  0  0  0  0  0  0
   10.1075   15.9762   20.4901 C   0  0  0  0  0  0  0  0  0  0  0  0
    8.9554   10.5608   23.6384 C   0  0  0  0  0  0  0  0  0  0  0  0
    7.9773    9.9383   24.4047 C   0  0  0  0  0  0  0  0  0  0  0  0
    7.1684   10.6226   25.3075 C   0  0  0  0  0  0  0  0  0  0  0  0
    7.3357   12.0029   25.4397 C   0  0  0  0  0  0  0  0  0  0  0  0
  1  2  1  0
  2  3  1  0
  3  4  2  0
  3  5  2  0
  3  6  1  0
  6  7  2  0
  7  8  1  0
  8  9  1  0
  9 10  2  0
 10 11  1  0
 11 12  1  0
 12 13  2  0
 12 14  1  0
 14 15  1  0
 15 16  1  0
 16 17  1  0
 10 18  1  0
 18 19  2  0
 19 20  1  0
 20 21  2  0
 21  6  1  0
 21  9  1  0
 17 15  1  0
M  END
>  <alias>  (86) 
None

>  <rmsd(smina/fragmenstein)>  (86) 
0.861

>  <smiles>  (86) 
CNS(=O)(=O)c1c[nH]c2c(NC(=O)CC3CC3)cccc12

>  <gnina_score>  (86) 
5.39

>  <inspiration_score>  (86) 
None

>  <energy_score>  (86) 
-32.44214

>  <distance_score>  (86) 
0.912903

>  <gnina_score_min>  (86) 
5.587

>  <inchikey>  (86) 
ARXHNMKALUFWGV-UHFFFAOYSA-N

>  <exports>  (86) 
['/opt/xchem-fragalysis-2/maxwin/BulkDock/OUTPUTS/openbind_a71ev2a_c2_elabs_1LOUU54.sdf', '/opt/xchem-fragalysis-2/maxwin/BulkDock/OUTPUTS/openbind_a71ev2a_c2_elabs_1LSYIDY.sdf']

>  <name>  (86) 
P535798

>  <ref_pdb>  (86) 
A0554a

>  <subsites>  (86) 
None

>  <HIPPO Pose ID>  (86) 
535798

>  <ref_mols>  (86) 
A0554a

>  <HIPPO Compound ID>  (86) 
368015

>  <tags>  (86) 
openbind_a71ev2a_c2_elabs,syndirella_product,openbind_a71ev2a_c2_elabs_fragonly_scored_top80percent,BulkDock Fragalysis export,openbind_a71ev2a_c2_elabs_scored,openbind_a71ev2a_c2_elabs_scored_top80percent,openbind_a71ev2a_c2_elabs_activefrags_only_scored_5.2plus,openbind_a71ev2a_c2_elabs_activefrags_only_scored_5.5plus,syndirella_placed

>  <smina_score_min>  (86) 
-7.05

$$$$
P535803
     RDKit          3D

 21 22  0  0  0  0  0  0  0  0999 V2000
    3.6966   13.7261   26.3503 C   0  0  0  0  0  0  0  0  0  0  0  0
    4.6823   13.6097   27.4266 N   0  0  0  0  0  0  0  0  0  0  0  0
    5.8445   12.4013   27.2896 S   0  0  0  0  0  0  0  0  0  0  0  0
    6.6756   12.4929   28.4710 O   0  0  0  0  0  0  0  0  0  0  0  0
    5.1934   11.1659   26.9261 O   0  0  0  0  0  0  0  0  0  0  0  0
    6.9111   12.7977   25.9978 C   0  0  0  0  0  0  0  0  0  0  0  0
    7.2631   14.0919   25.6724 C   0  0  0  0  0  0  0  0  0  0  0  0
    8.1930   14.0281   24.6800 N   0  0  0  0  0  0  0  0  0  0  0  0
    8.4798   12.7213   24.3630 C   0  0  0  0  0  0  0  0  0  0  0  0
    9.3610   12.2133   23.3977 C   0  0  0  0  0  0  0  0  0  0  0  0
   10.0733   13.0516   22.5592 N   0  0  0  0  0  0  0  0  0  0  0  0
   10.8154   14.3699   22.8559 C   0  0  0  0  0  0  0  0  0  0  0  0
   11.0088   14.9169   23.8670 O   0  0  0  0  0  0  0  0  0  0  0  0
   11.2159   14.9736   21.4893 C   0  0  1  0  0  0  0  0  0  0  0  0
   12.5168   14.3804   21.0308 C   0  0  0  0  0  0  0  0  0  0  0  0
   10.1791   14.7656   20.5293 O   0  0  0  0  0  0  0  0  0  0  0  0
   10.2072   15.7387   19.4851 C   0  0  0  0  0  0  0  0  0  0  0  0
    9.4134   10.8441   23.2328 C   0  0  0  0  0  0  0  0  0  0  0  0
    8.6400   10.0253   24.0381 C   0  0  0  0  0  0  0  0  0  0  0  0
    7.7251   10.5263   24.9690 C   0  0  0  0  0  0  0  0  0  0  0  0
    7.6420   11.9168   25.1458 C   0  0  0  0  0  0  0  0  0  0  0  0
  1  2  1  0
  2  3  1  0
  3  4  2  0
  3  5  2  0
  3  6  1  0
  6  7  2  0
  7  8  1  0
  8  9  1  0
  9 10  2  0
 10 11  1  0
 11 12  1  0
 12 13  2  0
 12 14  1  0
 14 15  1  6
 14 16  1  0
 16 17  1  0
 10 18  1  0
 18 19  2  0
 19 20  1  0
 20 21  2  0
 21  6  1  0
 21  9  1  0
M  END
>  <alias>  (87) 
None

>  <rmsd(smina/fragmenstein)>  (87) 
0.585

>  <smiles>  (87) 
CNS(=O)(=O)c1c[nH]c2c(NC(=O)[C@@H](C)OC)cccc12

>  <gnina_score>  (87) 
5.401

>  <inspiration_score>  (87) 
None

>  <energy_score>  (87) 
-39.939148

>  <distance_score>  (87) 
0.942745

>  <gnina_score_min>  (87) 
5.337

>  <inchikey>  (87) 
NUEUZUFAIPKDIQ-MRVPVSSYSA-N

>  <exports>  (87) 
['/opt/xchem-fragalysis-2/maxwin/BulkDock/OUTPUTS/openbind_a71ev2a_c2_elabs_1LOUU54.sdf', '/opt/xchem-fragalysis-2/maxwin/BulkDock/OUTPUTS/openbind_a71ev2a_c2_elabs_1LSYIDY.sdf']

>  <name>  (87) 
P535803

>  <ref_pdb>  (87) 
A0554a

>  <subsites>  (87) 
None

>  <HIPPO Pose ID>  (87) 
535803

>  <ref_mols>  (87) 
A0554a

>  <HIPPO Compound ID>  (87) 
368019

>  <tags>  (87) 
openbind_a71ev2a_c2_elabs,syndirella_product,openbind_a71ev2a_c2_elabs_fragonly_scored_top80percent,openbind_a71ev2a_c2_elabs_scored,BulkDock Fragalysis export,openbind_a71ev2a_c2_elabs_scored_top80percent,openbind_a71ev2a_c2_elabs_activefrags_only_scored_5.2plus,syndirella_placed

>  <smina_score_min>  (87) 
-6.02

$$$$
P535804
     RDKit          3D

 21 22  0  0  0  0  0  0  0  0999 V2000
    6.4567   14.0751   28.7682 C   0  0  0  0  0  0  0  0  0  0  0  0
    6.3985   12.6337   28.4882 N   0  0  0  0  0  0  0  0  0  0  0  0
    5.7367   12.1815   26.9869 S   0  0  0  0  0  0  0  0  0  0  0  0
    5.6792   10.7382   27.0282 O   0  0  0  0  0  0  0  0  0  0  0  0
    4.5601   12.9915   26.7765 O   0  0  0  0  0  0  0  0  0  0  0  0
    6.8526   12.6044   25.7403 C   0  0  0  0  0  0  0  0  0  0  0  0
    7.1395   13.8984   25.3535 C   0  0  0  0  0  0  0  0  0  0  0  0
    8.1297   13.8476   24.4151 N   0  0  0  0  0  0  0  0  0  0  0  0
    8.4894   12.5441   24.1578 C   0  0  0  0  0  0  0  0  0  0  0  0
    9.4241   12.0277   23.2433 C   0  0  0  0  0  0  0  0  0  0  0  0
   10.2427   12.8295   22.4701 N   0  0  0  0  0  0  0  0  0  0  0  0
   10.8742   14.1879   22.7714 C   0  0  0  0  0  0  0  0  0  0  0  0
   10.8725   14.8213   23.7493 O   0  0  0  0  0  0  0  0  0  0  0  0
   11.5177   14.7916   21.4764 C   0  0  0  0  0  0  0  0  0  0  0  0
   12.7047   15.5594   22.0052 C   0  0  0  0  0  0  0  0  0  0  0  0
   12.0469   14.0553   20.2713 C   0  0  0  0  0  0  0  0  0  0  0  0
   10.0683   15.9401   20.7762 Br  0  0  0  0  0  0  0  0  0  0  0  0
    9.5438   10.6596   23.1416 C   0  0  0  0  0  0  0  0  0  0  0  0
    8.8176    9.8490   23.9858 C   0  0  0  0  0  0  0  0  0  0  0  0
    7.8418   10.3437   24.8523 C   0  0  0  0  0  0  0  0  0  0  0  0
    7.6699   11.7335   24.9556 C   0  0  0  0  0  0  0  0  0  0  0  0
  1  2  1  0
  2  3  1  0
  3  4  2  0
  3  5  2  0
  3  6  1  0
  6  7  2  0
  7  8  1  0
  8  9  1  0
  9 10  2  0
 10 11  1  0
 11 12  1  0
 12 13  2  0
 12 14  1  0
 14 15  1  0
 14 16  1  0
 14 17  1  0
 10 18  1  0
 18 19  2  0
 19 20  1  0
 20 21  2  0
 21  6  1  0
 21  9  1  0
M  END
>  <alias>  (88) 
None

>  <rmsd(smina/fragmenstein)>  (88) 
1.358

>  <smiles>  (88) 
CNS(=O)(=O)c1c[nH]c2c(NC(=O)C(C)(C)Br)cccc12

>  <gnina_score>  (88) 
5.554

>  <inspiration_score>  (88) 
None

>  <energy_score>  (88) 
-5.592929

>  <distance_score>  (88) 
0.80412

>  <gnina_score_min>  (88) 
5.228

>  <inchikey>  (88) 
DCVWTERWIHZODZ-UHFFFAOYSA-N

>  <exports>  (88) 
['/opt/xchem-fragalysis-2/maxwin/BulkDock/OUTPUTS/openbind_a71ev2a_c2_elabs_1LOUU54.sdf', '/opt/xchem-fragalysis-2/maxwin/BulkDock/OUTPUTS/openbind_a71ev2a_c2_elabs_1LSYIDY.sdf']

>  <name>  (88) 
P535804

>  <ref_pdb>  (88) 
A0554a

>  <subsites>  (88) 
None

>  <HIPPO Pose ID>  (88) 
535804

>  <ref_mols>  (88) 
A0554a

>  <HIPPO Compound ID>  (88) 
368020

>  <tags>  (88) 
openbind_a71ev2a_c2_elabs,syndirella_product,openbind_a71ev2a_c2_elabs_fragonly_scored_top80percent,openbind_a71ev2a_c2_elabs_scored,BulkDock Fragalysis export,openbind_a71ev2a_c2_elabs_scored_top80percent,openbind_a71ev2a_c2_elabs_activefrags_only_scored_5.2plus,syndirella_placed

>  <smina_score_min>  (88) 
-5.675

$$$$
P535807
     RDKit          3D

 21 22  0  0  0  0  0  0  0  0999 V2000
    3.8077   16.4700   26.1644 C   0  0  0  0  0  0  0  0  0  0  0  0
    4.6108   15.7436   27.2286 C   0  0  0  0  0  0  0  0  0  0  0  0
    5.2735   14.6045   26.6619 O   0  0  0  0  0  0  0  0  0  0  0  0
    6.4577   14.8738   26.0505 C   0  0  0  0  0  0  0  0  0  0  0  0
    7.0375   15.9512   26.0490 O   0  0  0  0  0  0  0  0  0  0  0  0
    6.9781   13.6920   25.4191 C   0  0  0  0  0  0  0  0  0  0  0  0
    6.7507   12.3452   25.6341 C   0  0  0  0  0  0  0  0  0  0  0  0
    7.6684   11.6140   24.8280 C   0  0  0  0  0  0  0  0  0  0  0  0
    7.9702   10.2507   24.6894 C   0  0  0  0  0  0  0  0  0  0  0  0
    9.0254    9.8848   23.8530 C   0  0  0  0  0  0  0  0  0  0  0  0
    9.7102   10.8268   23.1024 C   0  0  0  0  0  0  0  0  0  0  0  0
    9.3954   12.1749   23.1673 C   0  0  0  0  0  0  0  0  0  0  0  0
   10.0275   13.0795   22.3173 N   0  0  0  0  0  0  0  0  0  0  0  0
    9.5670   14.4625   21.8005 C   0  0  0  0  0  0  0  0  0  0  0  0
    8.6201   15.0935   22.0676 O   0  0  0  0  0  0  0  0  0  0  0  0
   10.6545   15.0890   20.8451 C   0  0  0  0  0  0  0  0  0  0  0  0
   11.3412   14.3919   19.6835 C   0  0  0  0  0  0  0  0  0  0  0  0
   10.0372   16.3836   20.2879 C   0  0  0  0  0  0  0  0  0  0  0  0
   12.1592   15.3991   22.0877 Br  0  0  0  0  0  0  0  0  0  0  0  0
    8.3834   12.5384   24.0651 C   0  0  0  0  0  0  0  0  0  0  0  0
    7.8858   13.7752   24.3931 N   0  0  0  0  0  0  0  0  0  0  0  0
  1  2  1  0
  2  3  1  0
  3  4  1  0
  4  5  2  0
  4  6  1  0
  6  7  2  0
  7  8  1  0
  8  9  2  0
  9 10  1  0
 10 11  2  0
 11 12  1  0
 12 13  1  0
 13 14  1  0
 14 15  2  0
 14 16  1  0
 16 17  1  0
 16 18  1  0
 16 19  1  0
 12 20  2  0
 20 21  1  0
 21  6  1  0
 20  8  1  0
M  END
>  <alias>  (89) 
None

>  <rmsd(smina/fragmenstein)>  (89) 
1.049

>  <smiles>  (89) 
CCOC(=O)c1cc2cccc(NC(=O)C(C)(C)Br)c2[nH]1

>  <gnina_score>  (89) 
5.427

>  <inspiration_score>  (89) 
None

>  <energy_score>  (89) 
-23.825393

>  <distance_score>  (89) 
1.493969

>  <gnina_score_min>  (89) 
5.274

>  <inchikey>  (89) 
BADLSATXSZSAAA-UHFFFAOYSA-N

>  <exports>  (89) 
['/opt/xchem-fragalysis-2/maxwin/BulkDock/OUTPUTS/openbind_a71ev2a_c2_elabs_1LOUU54.sdf', '/opt/xchem-fragalysis-2/maxwin/BulkDock/OUTPUTS/openbind_a71ev2a_c2_elabs_1LSYIDY.sdf']

>  <name>  (89) 
P535807

>  <ref_pdb>  (89) 
A0554a

>  <subsites>  (89) 
None

>  <HIPPO Pose ID>  (89) 
535807

>  <ref_mols>  (89) 
A0554a

>  <HIPPO Compound ID>  (89) 
368023

>  <tags>  (89) 
openbind_a71ev2a_c2_elabs,syndirella_product,openbind_a71ev2a_c2_elabs_fragonly_scored_top80percent,openbind_a71ev2a_c2_elabs_scored,BulkDock Fragalysis export,openbind_a71ev2a_c2_elabs_scored_top80percent,openbind_a71ev2a_c2_elabs_activefrags_only_scored_5.2plus,syndirella_placed

>  <smina_score_min>  (89) 
-6.446

$$$$
P535809
     RDKit          3D

 21 23  0  0  0  0  0  0  0  0999 V2000
    6.6981   13.7686   29.6479 C   0  0  0  0  0  0  0  0  0  0  0  0
    6.1154   12.5114   29.1619 N   0  0  0  0  0  0  0  0  0  0  0  0
    5.2808   12.5947   27.6828 S   0  0  0  0  0  0  0  0  0  0  0  0
    4.7275   11.2748   27.4826 O   0  0  0  0  0  0  0  0  0  0  0  0
    4.4475   13.7744   27.7222 O   0  0  0  0  0  0  0  0  0  0  0  0
    6.4373   12.8653   26.4318 C   0  0  0  0  0  0  0  0  0  0  0  0
    6.9977   14.0912   26.1348 C   0  0  0  0  0  0  0  0  0  0  0  0
    7.9875   13.8865   25.2182 N   0  0  0  0  0  0  0  0  0  0  0  0
    8.0755   12.5513   24.8945 C   0  0  0  0  0  0  0  0  0  0  0  0
    8.9804   11.8788   24.0636 C   0  0  0  0  0  0  0  0  0  0  0  0
   10.1358   12.4697   23.5976 N   0  0  0  0  0  0  0  0  0  0  0  0
   10.9149   13.6928   24.1189 C   0  0  0  0  0  0  0  0  0  0  0  0
   10.7466   14.3469   25.0678 O   0  0  0  0  0  0  0  0  0  0  0  0
   12.0554   13.8748   23.2269 C   0  0  0  0  0  0  0  0  0  0  0  0
   11.8192   14.3898   22.0454 C   0  0  0  0  0  0  0  0  0  0  0  0
   12.4167   14.7929   20.8443 C   0  0  0  0  0  0  0  0  0  0  0  0
   10.8895   14.9466   21.1484 C   0  0  0  0  0  0  0  0  0  0  0  0
    8.7700   10.5334   23.8095 C   0  0  0  0  0  0  0  0  0  0  0  0
    7.7524    9.8808   24.4841 C   0  0  0  0  0  0  0  0  0  0  0  0
    6.9253   10.5192   25.4039 C   0  0  0  0  0  0  0  0  0  0  0  0
    7.0606   11.8968   25.5967 C   0  0  0  0  0  0  0  0  0  0  0  0
  1  2  1  0
  2  3  1  0
  3  4  2  0
  3  5  2  0
  3  6  1  0
  6  7  2  0
  7  8  1  0
  8  9  1  0
  9 10  2  0
 10 11  1  0
 11 12  1  0
 12 13  2  0
 12 14  1  0
 14 15  2  3
 15 16  1  0
 16 17  1  0
 10 18  1  0
 18 19  2  0
 19 20  1  0
 20 21  2  0
 21  6  1  0
 21  9  1  0
 17 15  1  0
M  END
>  <alias>  (90) 
None

>  <rmsd(smina/fragmenstein)>  (90) 
0.55

>  <smiles>  (90) 
CNS(=O)(=O)c1c[nH]c2c(NC(=O)C=C3CC3)cccc12

>  <gnina_score>  (90) 
5.321

>  <inspiration_score>  (90) 
None

>  <energy_score>  (90) 
-41.137931

>  <distance_score>  (90) 
1.002171

>  <gnina_score_min>  (90) 
5.242

>  <inchikey>  (90) 
UJZWAJGXSHWSLV-UHFFFAOYSA-N

>  <exports>  (90) 
['/opt/xchem-fragalysis-2/maxwin/BulkDock/OUTPUTS/openbind_a71ev2a_c2_elabs_1LOUU54.sdf', '/opt/xchem-fragalysis-2/maxwin/BulkDock/OUTPUTS/openbind_a71ev2a_c2_elabs_1LSYIDY.sdf']

>  <name>  (90) 
P535809

>  <ref_pdb>  (90) 
A0554a

>  <subsites>  (90) 
None

>  <HIPPO Pose ID>  (90) 
535809

>  <ref_mols>  (90) 
A0554a

>  <HIPPO Compound ID>  (90) 
368025

>  <tags>  (90) 
openbind_a71ev2a_c2_elabs,syndirella_product,openbind_a71ev2a_c2_elabs_fragonly_scored_top80percent,openbind_a71ev2a_c2_elabs_scored,BulkDock Fragalysis export,openbind_a71ev2a_c2_elabs_scored_top80percent,openbind_a71ev2a_c2_elabs_activefrags_only_scored_5.2plus,syndirella_placed

>  <smina_score_min>  (90) 
-6.341

$$$$
P535810
     RDKit          3D

 21 22  0  0  0  0  0  0  0  0999 V2000
    3.9325   15.5022   28.3424 C   0  0  0  0  0  0  0  0  0  0  0  0
    5.2534   15.8907   27.7071 C   0  0  0  0  0  0  0  0  0  0  0  0
    5.7967   14.7320   27.0648 O   0  0  0  0  0  0  0  0  0  0  0  0
    6.9669   14.9658   26.4118 C   0  0  0  0  0  0  0  0  0  0  0  0
    7.5814   16.0233   26.4117 O   0  0  0  0  0  0  0  0  0  0  0  0
    7.4072   13.7771   25.7309 C   0  0  0  0  0  0  0  0  0  0  0  0
    6.9694   12.4655   25.7984 C   0  0  0  0  0  0  0  0  0  0  0  0
    7.8172   11.6740   24.9770 C   0  0  0  0  0  0  0  0  0  0  0  0
    7.8983   10.3015   24.6989 C   0  0  0  0  0  0  0  0  0  0  0  0
    8.8618    9.8757   23.7873 C   0  0  0  0  0  0  0  0  0  0  0  0
    9.6493   10.7602   23.0863 C   0  0  0  0  0  0  0  0  0  0  0  0
    9.6124   12.1083   23.3670 C   0  0  0  0  0  0  0  0  0  0  0  0
   10.2610   12.9739   22.5123 N   0  0  0  0  0  0  0  0  0  0  0  0
   10.9256   14.3241   22.7815 C   0  0  0  0  0  0  0  0  0  0  0  0
   11.1021   14.8900   23.7785 O   0  0  0  0  0  0  0  0  0  0  0  0
   11.2542   14.9044   21.4512 C   0  0  0  0  0  0  0  0  0  0  0  0
   10.1576   15.2546   20.7531 C   0  0  0  0  0  0  0  0  0  0  0  0
   10.0960   16.0928   19.2495 S   0  0  0  0  0  0  0  0  0  0  0  0
   11.2015   15.1407   18.2005 C   0  0  0  0  0  0  0  0  0  0  0  0
    8.7183   12.5410   24.3534 C   0  0  0  0  0  0  0  0  0  0  0  0
    8.4536   13.7984   24.8374 N   0  0  0  0  0  0  0  0  0  0  0  0
  1  2  1  0
  2  3  1  0
  3  4  1  0
  4  5  2  0
  4  6  1  0
  6  7  2  0
  7  8  1  0
  8  9  2  0
  9 10  1  0
 10 11  2  0
 11 12  1  0
 12 13  1  0
 13 14  1  0
 14 15  2  0
 14 16  1  0
 16 17  2  0
 17 18  1  0
 18 19  1  0
 12 20  2  0
 20 21  1  0
 21  6  1  0
 20  8  1  0
M  END
>  <alias>  (91) 
None

>  <rmsd(smina/fragmenstein)>  (91) 
1.252

>  <smiles>  (91) 
CCOC(=O)c1cc2cccc(NC(=O)/C=C/SC)c2[nH]1

>  <gnina_score>  (91) 
5.153

>  <inspiration_score>  (91) 
None

>  <energy_score>  (91) 
-0.383812

>  <distance_score>  (91) 
0.822713

>  <gnina_score_min>  (91) 
5.383

>  <inchikey>  (91) 
ALKZGQOHRWREPM-BQYQJAHWSA-N

>  <exports>  (91) 
['/opt/xchem-fragalysis-2/maxwin/BulkDock/OUTPUTS/openbind_a71ev2a_c2_elabs_1LOUU54.sdf', '/opt/xchem-fragalysis-2/maxwin/BulkDock/OUTPUTS/openbind_a71ev2a_c2_elabs_1LSYIDY.sdf']

>  <name>  (91) 
P535810

>  <ref_pdb>  (91) 
A0554a

>  <subsites>  (91) 
None

>  <HIPPO Pose ID>  (91) 
535810

>  <ref_mols>  (91) 
A0554a

>  <HIPPO Compound ID>  (91) 
368026

>  <tags>  (91) 
openbind_a71ev2a_c2_elabs,syndirella_product,openbind_a71ev2a_c2_elabs_fragonly_scored_top80percent,openbind_a71ev2a_c2_elabs_scored,BulkDock Fragalysis export,openbind_a71ev2a_c2_elabs_scored_top80percent,openbind_a71ev2a_c2_elabs_activefrags_only_scored_5.2plus,syndirella_placed

>  <smina_score_min>  (91) 
-5.724

$$$$
P535819
     RDKit          3D

 21 22  0  0  0  0  0  0  0  0999 V2000
    7.5623   17.0100   28.6249 C   0  0  0  0  0  0  0  0  0  0  0  0
    6.7560   17.0289   27.3389 C   0  0  0  0  0  0  0  0  0  0  0  0
    7.1905   15.9561   26.4832 O   0  0  0  0  0  0  0  0  0  0  0  0
    6.4888   14.8031   26.6629 C   0  0  0  0  0  0  0  0  0  0  0  0
    5.5713   14.6598   27.4626 O   0  0  0  0  0  0  0  0  0  0  0  0
    7.0275   13.7287   25.8638 C   0  0  0  0  0  0  0  0  0  0  0  0
    6.6145   12.4130   25.9436 C   0  0  0  0  0  0  0  0  0  0  0  0
    7.4602   11.6330   25.1341 C   0  0  0  0  0  0  0  0  0  0  0  0
    7.5816   10.2530   24.9637 C   0  0  0  0  0  0  0  0  0  0  0  0
    8.6013    9.7942   24.1480 C   0  0  0  0  0  0  0  0  0  0  0  0
    9.3584   10.6296   23.3694 C   0  0  0  0  0  0  0  0  0  0  0  0
    9.2648   11.9979   23.5397 C   0  0  0  0  0  0  0  0  0  0  0  0
   10.1718   12.7101   22.7960 N   0  0  0  0  0  0  0  0  0  0  0  0
   10.8673   14.0481   23.0849 C   0  0  0  0  0  0  0  0  0  0  0  0
   10.8412   14.7218   24.0318 O   0  0  0  0  0  0  0  0  0  0  0  0
   11.6223   14.3672   21.7997 C   0  0  2  0  0  0  0  0  0  0  0  0
   12.7825   15.2781   22.0864 C   0  0  0  0  0  0  0  0  0  0  0  0
   10.6493   14.9687   20.8005 C   0  0  0  0  0  0  0  0  0  0  0  0
   11.4097   14.8331   19.0237 Br  0  0  0  0  0  0  0  0  0  0  0  0
    8.3388   12.4957   24.4704 C   0  0  0  0  0  0  0  0  0  0  0  0
    8.0385   13.7699   24.9201 N   0  0  0  0  0  0  0  0  0  0  0  0
  1  2  1  0
  2  3  1  0
  3  4  1  0
  4  5  2  0
  4  6  1  0
  6  7  2  0
  7  8  1  0
  8  9  2  0
  9 10  1  0
 10 11  2  0
 11 12  1  0
 12 13  1  0
 13 14  1  0
 14 15  2  0
 14 16  1  0
 16 17  1  1
 16 18  1  0
 18 19  1  0
 12 20  2  0
 20 21  1  0
 21  6  1  0
 20  8  1  0
M  END
>  <alias>  (92) 
None

>  <rmsd(smina/fragmenstein)>  (92) 
0.734

>  <smiles>  (92) 
CCOC(=O)c1cc2cccc(NC(=O)[C@H](C)CBr)c2[nH]1

>  <gnina_score>  (92) 
5.34

>  <inspiration_score>  (92) 
None

>  <energy_score>  (92) 
-3.239328

>  <distance_score>  (92) 
0.639415

>  <gnina_score_min>  (92) 
5.272

>  <inchikey>  (92) 
CJOYEFKGFYNOKQ-SECBINFHSA-N

>  <exports>  (92) 
['/opt/xchem-fragalysis-2/maxwin/BulkDock/OUTPUTS/openbind_a71ev2a_c2_elabs_1LOUU54.sdf', '/opt/xchem-fragalysis-2/maxwin/BulkDock/OUTPUTS/openbind_a71ev2a_c2_elabs_1LSYIDY.sdf']

>  <name>  (92) 
P535819

>  <ref_pdb>  (92) 
A0554a

>  <subsites>  (92) 
None

>  <HIPPO Pose ID>  (92) 
535819

>  <ref_mols>  (92) 
A0554a

>  <HIPPO Compound ID>  (92) 
368035

>  <tags>  (92) 
openbind_a71ev2a_c2_elabs,syndirella_product,openbind_a71ev2a_c2_elabs_fragonly_scored_top80percent,openbind_a71ev2a_c2_elabs_scored,BulkDock Fragalysis export,openbind_a71ev2a_c2_elabs_scored_top80percent,openbind_a71ev2a_c2_elabs_activefrags_only_scored_5.2plus,syndirella_placed

>  <smina_score_min>  (92) 
-5.968

$$$$
P535821
     RDKit          3D

 21 22  0  0  0  0  0  0  0  0999 V2000
    3.6179   14.1108   26.1556 C   0  0  0  0  0  0  0  0  0  0  0  0
    4.5117   14.1034   27.3198 N   0  0  0  0  0  0  0  0  0  0  0  0
    5.6091   12.8293   27.4111 S   0  0  0  0  0  0  0  0  0  0  0  0
    4.8984   11.5994   27.1481 O   0  0  0  0  0  0  0  0  0  0  0  0
    6.3752   13.0052   28.6258 O   0  0  0  0  0  0  0  0  0  0  0  0
    6.7741   13.0145   26.1569 C   0  0  0  0  0  0  0  0  0  0  0  0
    7.3493   14.2167   25.8053 C   0  0  0  0  0  0  0  0  0  0  0  0
    8.3005   13.9584   24.8627 N   0  0  0  0  0  0  0  0  0  0  0  0
    8.3565   12.6118   24.5765 C   0  0  0  0  0  0  0  0  0  0  0  0
    9.1817   11.9049   23.6838 C   0  0  0  0  0  0  0  0  0  0  0  0
   10.1455   12.5317   22.9092 N   0  0  0  0  0  0  0  0  0  0  0  0
   10.8683   13.8862   23.1060 C   0  0  0  0  0  0  0  0  0  0  0  0
   10.8208   14.6469   23.9894 O   0  0  0  0  0  0  0  0  0  0  0  0
   11.6460   14.1688   21.8276 C   0  0  2  0  0  0  0  0  0  0  0  0
   12.7742   15.1322   22.1155 C   0  0  0  0  0  0  0  0  0  0  0  0
   10.6693   14.7669   20.8258 C   0  0  0  0  0  0  0  0  0  0  0  0
   11.4550   14.7694   19.0557 Br  0  0  0  0  0  0  0  0  0  0  0  0
    8.9856   10.5374   23.5740 C   0  0  0  0  0  0  0  0  0  0  0  0
    8.0201    9.9249   24.3613 C   0  0  0  0  0  0  0  0  0  0  0  0
    7.2123   10.6185   25.2541 C   0  0  0  0  0  0  0  0  0  0  0  0
    7.3722   12.0004   25.3624 C   0  0  0  0  0  0  0  0  0  0  0  0
  1  2  1  0
  2  3  1  0
  3  4  2  0
  3  5  2  0
  3  6  1  0
  6  7  2  0
  7  8  1  0
  8  9  1  0
  9 10  2  0
 10 11  1  0
 11 12  1  0
 12 13  2  0
 12 14  1  0
 14 15  1  1
 14 16  1  0
 16 17  1  0
 10 18  1  0
 18 19  2  0
 19 20  1  0
 20 21  2  0
 21  6  1  0
 21  9  1  0
M  END
>  <alias>  (93) 
None

>  <rmsd(smina/fragmenstein)>  (93) 
0.357

>  <smiles>  (93) 
CNS(=O)(=O)c1c[nH]c2c(NC(=O)[C@H](C)CBr)cccc12

>  <gnina_score>  (93) 
5.427

>  <inspiration_score>  (93) 
None

>  <energy_score>  (93) 
-63.511211

>  <distance_score>  (93) 
0.891339

>  <gnina_score_min>  (93) 
5.558

>  <inchikey>  (93) 
VLVJFIQBIPDUGO-MRVPVSSYSA-N

>  <exports>  (93) 
['/opt/xchem-fragalysis-2/maxwin/BulkDock/OUTPUTS/openbind_a71ev2a_c2_elabs_1LOUU54.sdf', '/opt/xchem-fragalysis-2/maxwin/BulkDock/OUTPUTS/openbind_a71ev2a_c2_elabs_1LSYIDY.sdf']

>  <name>  (93) 
P535821

>  <ref_pdb>  (93) 
A0554a

>  <subsites>  (93) 
None

>  <HIPPO Pose ID>  (93) 
535821

>  <ref_mols>  (93) 
A0554a

>  <HIPPO Compound ID>  (93) 
368037

>  <tags>  (93) 
openbind_a71ev2a_c2_elabs,syndirella_product,openbind_a71ev2a_c2_elabs_fragonly_scored_top80percent,BulkDock Fragalysis export,openbind_a71ev2a_c2_elabs_scored,openbind_a71ev2a_c2_elabs_scored_top80percent,openbind_a71ev2a_c2_elabs_activefrags_only_scored_5.2plus,openbind_a71ev2a_c2_elabs_activefrags_only_scored_5.5plus,syndirella_placed

>  <smina_score_min>  (93) 
-5.965

$$$$
P535826
     RDKit          3D

 21 23  0  0  0  0  0  0  0  0999 V2000
    5.1978   17.1886   26.8621 C   0  0  0  0  0  0  0  0  0  0  0  0
    4.8116   16.4817   25.5758 C   0  0  0  0  0  0  0  0  0  0  0  0
    5.7563   15.4469   25.2704 O   0  0  0  0  0  0  0  0  0  0  0  0
    5.5148   14.2509   25.8652 C   0  0  0  0  0  0  0  0  0  0  0  0
    4.6407   14.0321   26.6950 O   0  0  0  0  0  0  0  0  0  0  0  0
    6.4545   13.2700   25.3864 C   0  0  0  0  0  0  0  0  0  0  0  0
    6.4828   11.9276   25.7067 C   0  0  0  0  0  0  0  0  0  0  0  0
    7.4869   11.3107   24.9284 C   0  0  0  0  0  0  0  0  0  0  0  0
    7.9015    9.9823   24.7800 C   0  0  0  0  0  0  0  0  0  0  0  0
    8.9954    9.6975   23.9700 C   0  0  0  0  0  0  0  0  0  0  0  0
    9.6097   10.6870   23.2446 C   0  0  0  0  0  0  0  0  0  0  0  0
    9.1978   12.0058   23.3392 C   0  0  0  0  0  0  0  0  0  0  0  0
    9.8819   12.9067   22.5539 N   0  0  0  0  0  0  0  0  0  0  0  0
    9.5634   14.3465   22.1985 C   0  0  0  0  0  0  0  0  0  0  0  0
    8.7128   15.0409   22.5674 O   0  0  0  0  0  0  0  0  0  0  0  0
   10.6287   14.9324   21.2835 C   0  0  0  0  0  0  0  0  0  0  0  0
   10.0996   15.8343   20.1903 C   0  0  0  0  0  0  0  0  0  0  0  0
   11.8912   15.3648   22.0348 C   0  0  0  0  0  0  0  0  0  0  0  0
   11.9957   14.3024   21.0107 C   0  0  0  0  0  0  0  0  0  0  0  0
    8.1275   12.3054   24.1913 C   0  0  0  0  0  0  0  0  0  0  0  0
    7.4652   13.4824   24.4721 N   0  0  0  0  0  0  0  0  0  0  0  0
  1  2  1  0
  2  3  1  0
  3  4  1  0
  4  5  2  0
  4  6  1  0
  6  7  2  0
  7  8  1  0
  8  9  2  0
  9 10  1  0
 10 11  2  0
 11 12  1  0
 12 13  1  0
 13 14  1  0
 14 15  2  0
 14 16  1  0
 16 17  1  0
 16 18  1  0
 18 19  1  0
 12 20  2  0
 20 21  1  0
 21  6  1  0
 20  8  1  0
 19 16  1  0
M  END
>  <alias>  (94) 
None

>  <rmsd(smina/fragmenstein)>  (94) 
1.111

>  <smiles>  (94) 
CCOC(=O)c1cc2cccc(NC(=O)C3(C)CC3)c2[nH]1

>  <gnina_score>  (94) 
5.376

>  <inspiration_score>  (94) 
None

>  <energy_score>  (94) 
-37.219692

>  <distance_score>  (94) 
1.302607

>  <gnina_score_min>  (94) 
5.207

>  <inchikey>  (94) 
YCSGKGYSXXHCIA-UHFFFAOYSA-N

>  <exports>  (94) 
['/opt/xchem-fragalysis-2/maxwin/BulkDock/OUTPUTS/openbind_a71ev2a_c2_elabs_1LOUU54.sdf', '/opt/xchem-fragalysis-2/maxwin/BulkDock/OUTPUTS/openbind_a71ev2a_c2_elabs_1LSYIDY.sdf']

>  <name>  (94) 
P535826

>  <ref_pdb>  (94) 
A0554a

>  <subsites>  (94) 
None

>  <HIPPO Pose ID>  (94) 
535826

>  <ref_mols>  (94) 
A0554a

>  <HIPPO Compound ID>  (94) 
368045

>  <tags>  (94) 
openbind_a71ev2a_c2_elabs,syndirella_product,openbind_a71ev2a_c2_elabs_fragonly_scored_top80percent,openbind_a71ev2a_c2_elabs_scored,BulkDock Fragalysis export,openbind_a71ev2a_c2_elabs_scored_top80percent,openbind_a71ev2a_c2_elabs_activefrags_only_scored_5.2plus,syndirella_placed

>  <smina_score_min>  (94) 
-6.163

$$$$
P535827
     RDKit          3D

 21 23  0  0  0  0  0  0  0  0999 V2000
    5.5198   12.4758   29.8166 C   0  0  0  0  0  0  0  0  0  0  0  0
    6.2217   12.8682   28.5833 N   0  0  0  0  0  0  0  0  0  0  0  0
    5.5950   12.1425   27.1773 S   0  0  0  0  0  0  0  0  0  0  0  0
    5.6745   10.7106   27.3514 O   0  0  0  0  0  0  0  0  0  0  0  0
    4.3563   12.8249   26.8873 O   0  0  0  0  0  0  0  0  0  0  0  0
    6.6762   12.5576   25.8999 C   0  0  0  0  0  0  0  0  0  0  0  0
    6.9838   13.8537   25.5389 C   0  0  0  0  0  0  0  0  0  0  0  0
    7.9517   13.7980   24.5773 N   0  0  0  0  0  0  0  0  0  0  0  0
    8.2962   12.4918   24.3061 C   0  0  0  0  0  0  0  0  0  0  0  0
    9.2365   11.9658   23.4004 C   0  0  0  0  0  0  0  0  0  0  0  0
   10.0369   12.7668   22.6179 N   0  0  0  0  0  0  0  0  0  0  0  0
   10.5338   14.1725   22.8407 C   0  0  0  0  0  0  0  0  0  0  0  0
   10.4201   14.8710   23.7520 O   0  0  0  0  0  0  0  0  0  0  0  0
   11.1870   14.7239   21.6089 C   0  0  0  0  0  0  0  0  0  0  0  0
   10.2996   15.5287   20.6894 C   0  0  0  0  0  0  0  0  0  0  0  0
   12.6344   15.1345   21.8202 C   0  0  0  0  0  0  0  0  0  0  0  0
   12.3151   13.9877   20.9358 C   0  0  0  0  0  0  0  0  0  0  0  0
    9.3836   10.6018   23.3179 C   0  0  0  0  0  0  0  0  0  0  0  0
    8.6489    9.8061   24.1670 C   0  0  0  0  0  0  0  0  0  0  0  0
    7.6475   10.2995   25.0045 C   0  0  0  0  0  0  0  0  0  0  0  0
    7.4757   11.6863   25.1030 C   0  0  0  0  0  0  0  0  0  0  0  0
  1  2  1  0
  2  3  1  0
  3  4  2  0
  3  5  2  0
  3  6  1  0
  6  7  2  0
  7  8  1  0
  8  9  1  0
  9 10  2  0
 10 11  1  0
 11 12  1  0
 12 13  2  0
 12 14  1  0
 14 15  1  0
 14 16  1  0
 16 17  1  0
 10 18  1  0
 18 19  2  0
 19 20  1  0
 20 21  2  0
 21  6  1  0
 21  9  1  0
 17 14  1  0
M  END
>  <alias>  (95) 
None

>  <rmsd(smina/fragmenstein)>  (95) 
0.329

>  <smiles>  (95) 
CNS(=O)(=O)c1c[nH]c2c(NC(=O)C3(C)CC3)cccc12

>  <gnina_score>  (95) 
5.383

>  <inspiration_score>  (95) 
None

>  <energy_score>  (95) 
-29.628256

>  <distance_score>  (95) 
0.814991

>  <gnina_score_min>  (95) 
5.404

>  <inchikey>  (95) 
BMIRNCXRYGDDFX-UHFFFAOYSA-N

>  <exports>  (95) 
['/opt/xchem-fragalysis-2/maxwin/BulkDock/OUTPUTS/openbind_a71ev2a_c2_elabs_1LOUU54.sdf', '/opt/xchem-fragalysis-2/maxwin/BulkDock/OUTPUTS/openbind_a71ev2a_c2_elabs_1LSYIDY.sdf']

>  <name>  (95) 
P535827

>  <ref_pdb>  (95) 
A0554a

>  <subsites>  (95) 
None

>  <HIPPO Pose ID>  (95) 
535827

>  <ref_mols>  (95) 
A0554a

>  <HIPPO Compound ID>  (95) 
368047

>  <tags>  (95) 
openbind_a71ev2a_c2_elabs,syndirella_product,openbind_a71ev2a_c2_elabs_fragonly_scored_top80percent,openbind_a71ev2a_c2_elabs_scored,BulkDock Fragalysis export,openbind_a71ev2a_c2_elabs_scored_top80percent,openbind_a71ev2a_c2_elabs_activefrags_only_scored_5.2plus,syndirella_placed

>  <smina_score_min>  (95) 
-5.933

$$$$
P535831
     RDKit          3D

 21 22  0  0  0  0  0  0  0  0999 V2000
   10.4733   15.0295   20.7566 C   0  0  0  0  0  0  0  0  0  0  0  0
   11.7701   14.6918   21.4113 C   0  0  0  0  0  0  0  0  0  0  0  0
   11.9396   14.1910   22.6375 C   0  0  0  0  0  0  0  0  0  0  0  0
   13.1717   14.0437   23.1489 F   0  0  0  0  0  0  0  0  0  0  0  0
   10.8842   13.9081   23.6302 C   0  0  0  0  0  0  0  0  0  0  0  0
   10.7504   14.5911   24.5646 O   0  0  0  0  0  0  0  0  0  0  0  0
   10.1532   12.6166   23.2263 N   0  0  0  0  0  0  0  0  0  0  0  0
    9.0812   11.9690   23.8146 C   0  0  0  0  0  0  0  0  0  0  0  0
    8.9223   10.6050   23.6354 C   0  0  0  0  0  0  0  0  0  0  0  0
    7.9497    9.9396   24.3679 C   0  0  0  0  0  0  0  0  0  0  0  0
    7.1051   10.5772   25.2712 C   0  0  0  0  0  0  0  0  0  0  0  0
    7.2119   11.9609   25.4236 C   0  0  0  0  0  0  0  0  0  0  0  0
    6.5692   12.9285   26.2457 C   0  0  0  0  0  0  0  0  0  0  0  0
    5.3963   12.6235   27.4751 S   0  0  0  0  0  0  0  0  0  0  0  0
    4.1204   12.8000   26.8254 O   0  0  0  0  0  0  0  0  0  0  0  0
    5.7995   11.3716   28.0780 O   0  0  0  0  0  0  0  0  0  0  0  0
    5.5120   13.8318   28.6427 N   0  0  0  0  0  0  0  0  0  0  0  0
    6.7368   13.9086   29.4322 C   0  0  0  0  0  0  0  0  0  0  0  0
    7.0843   14.1638   25.9160 C   0  0  0  0  0  0  0  0  0  0  0  0
    8.0610   13.9651   24.9815 N   0  0  0  0  0  0  0  0  0  0  0  0
    8.1896   12.6273   24.6795 C   0  0  0  0  0  0  0  0  0  0  0  0
  1  2  1  0
  2  3  2  0
  3  4  1  0
  3  5  1  0
  5  6  2  0
  5  7  1  0
  7  8  1  0
  8  9  2  0
  9 10  1  0
 10 11  2  0
 11 12  1  0
 12 13  1  0
 13 14  1  0
 14 15  2  0
 14 16  2  0
 14 17  1  0
 17 18  1  0
 13 19  2  0
 19 20  1  0
 20 21  1  0
 21  8  1  0
 21 12  2  0
M  END
>  <alias>  (96) 
None

>  <rmsd(smina/fragmenstein)>  (96) 
0.858

>  <smiles>  (96) 
C/C=C(/F)C(=O)Nc1cccc2c(S(=O)(=O)NC)c[nH]c12

>  <gnina_score>  (96) 
5.263

>  <inspiration_score>  (96) 
None

>  <energy_score>  (96) 
-59.123811

>  <distance_score>  (96) 
0.871344

>  <gnina_score_min>  (96) 
5.509

>  <inchikey>  (96) 
KKXZFIIHFWKWIU-YCRREMRBSA-N

>  <exports>  (96) 
['/opt/xchem-fragalysis-2/maxwin/BulkDock/OUTPUTS/openbind_a71ev2a_c2_elabs_1LOUU54.sdf', '/opt/xchem-fragalysis-2/maxwin/BulkDock/OUTPUTS/openbind_a71ev2a_c2_elabs_1LSYIDY.sdf']

>  <name>  (96) 
P535831

>  <ref_pdb>  (96) 
A0554a

>  <subsites>  (96) 
None

>  <HIPPO Pose ID>  (96) 
535831

>  <ref_mols>  (96) 
A0554a

>  <HIPPO Compound ID>  (96) 
368050

>  <tags>  (96) 
openbind_a71ev2a_c2_elabs,syndirella_product,openbind_a71ev2a_c2_elabs_fragonly_scored_top80percent,BulkDock Fragalysis export,openbind_a71ev2a_c2_elabs_scored,openbind_a71ev2a_c2_elabs_scored_top80percent,openbind_a71ev2a_c2_elabs_activefrags_only_scored_5.2plus,openbind_a71ev2a_c2_elabs_activefrags_only_scored_5.5plus,syndirella_placed

>  <smina_score_min>  (96) 
-7.13

$$$$
P535833
     RDKit          3D

 21 22  0  0  0  0  0  0  0  0999 V2000
   10.4494   15.0830   20.6774 C   0  0  0  0  0  0  0  0  0  0  0  0
   11.7774   14.8229   21.3033 C   0  0  0  0  0  0  0  0  0  0  0  0
   12.0270   14.3758   22.5366 C   0  0  0  0  0  0  0  0  0  0  0  0
   13.2899   14.3304   22.9831 F   0  0  0  0  0  0  0  0  0  0  0  0
   11.0491   14.0203   23.5866 C   0  0  0  0  0  0  0  0  0  0  0  0
   10.9701   14.6325   24.5740 O   0  0  0  0  0  0  0  0  0  0  0  0
   10.2335   12.8152   23.0939 N   0  0  0  0  0  0  0  0  0  0  0  0
    9.2521   12.0792   23.7246 C   0  0  0  0  0  0  0  0  0  0  0  0
    9.0931   10.7423   23.4191 C   0  0  0  0  0  0  0  0  0  0  0  0
    8.1141   10.0131   24.0743 C   0  0  0  0  0  0  0  0  0  0  0  0
    7.2612   10.5575   25.0300 C   0  0  0  0  0  0  0  0  0  0  0  0
    7.3879   11.9160   25.3175 C   0  0  0  0  0  0  0  0  0  0  0  0
    6.6984   12.8031   26.1847 C   0  0  0  0  0  0  0  0  0  0  0  0
    7.3343   14.0305   26.1340 C   0  0  0  0  0  0  0  0  0  0  0  0
    7.1393   15.2410   26.8881 C   0  0  0  0  0  0  0  0  0  0  0  0
    7.9206   16.1830   26.8871 O   0  0  0  0  0  0  0  0  0  0  0  0
    5.9967   15.1563   27.6222 O   0  0  0  0  0  0  0  0  0  0  0  0
    5.6633   16.3229   28.3866 C   0  0  0  0  0  0  0  0  0  0  0  0
    4.8516   17.2849   27.5409 C   0  0  0  0  0  0  0  0  0  0  0  0
    8.3140   13.9207   25.1753 N   0  0  0  0  0  0  0  0  0  0  0  0
    8.3916   12.6405   24.6794 C   0  0  0  0  0  0  0  0  0  0  0  0
  1  2  1  0
  2  3  2  0
  3  4  1  0
  3  5  1  0
  5  6  2  0
  5  7  1  0
  7  8  1  0
  8  9  2  0
  9 10  1  0
 10 11  2  0
 11 12  1  0
 12 13  1  0
 13 14  2  0
 14 15  1  0
 15 16  2  0
 15 17  1  0
 17 18  1  0
 18 19  1  0
 14 20  1  0
 20 21  1  0
 21  8  1  0
 21 12  2  0
M  END
>  <alias>  (97) 
None

>  <rmsd(smina/fragmenstein)>  (97) 
1.682

>  <smiles>  (97) 
C/C=C(/F)C(=O)Nc1cccc2cc(C(=O)OCC)[nH]c12

>  <gnina_score>  (97) 
5.013

>  <inspiration_score>  (97) 
None

>  <energy_score>  (97) 
-41.229094

>  <distance_score>  (97) 
0.789106

>  <gnina_score_min>  (97) 
5.447

>  <inchikey>  (97) 
NDVRZZFOYCOYJV-XCVCLJGOSA-N

>  <exports>  (97) 
['/opt/xchem-fragalysis-2/maxwin/BulkDock/OUTPUTS/openbind_a71ev2a_c2_elabs_1LOUU54.sdf', '/opt/xchem-fragalysis-2/maxwin/BulkDock/OUTPUTS/openbind_a71ev2a_c2_elabs_1LSYIDY.sdf']

>  <name>  (97) 
P535833

>  <ref_pdb>  (97) 
A0554a

>  <subsites>  (97) 
None

>  <HIPPO Pose ID>  (97) 
535833

>  <ref_mols>  (97) 
A0554a

>  <HIPPO Compound ID>  (97) 
368052

>  <tags>  (97) 
openbind_a71ev2a_c2_elabs,syndirella_product,openbind_a71ev2a_c2_elabs_fragonly_scored_top80percent,openbind_a71ev2a_c2_elabs_scored,BulkDock Fragalysis export,openbind_a71ev2a_c2_elabs_scored_top80percent,openbind_a71ev2a_c2_elabs_activefrags_only_scored_5.2plus,syndirella_placed

>  <smina_score_min>  (97) 
-6.969

$$$$
P535837
     RDKit          3D

 21 22  0  0  0  0  0  0  0  0999 V2000
    4.0191   14.7107   25.4011 C   0  0  0  0  0  0  0  0  0  0  0  0
    4.1897   13.2736   25.6463 N   0  0  0  0  0  0  0  0  0  0  0  0
    5.4453   12.8150   26.6780 S   0  0  0  0  0  0  0  0  0  0  0  0
    5.3460   11.3921   26.9126 O   0  0  0  0  0  0  0  0  0  0  0  0
    5.5421   13.7568   27.7708 O   0  0  0  0  0  0  0  0  0  0  0  0
    6.9140   13.0273   25.7962 C   0  0  0  0  0  0  0  0  0  0  0  0
    7.5349   14.2454   25.6173 C   0  0  0  0  0  0  0  0  0  0  0  0
    8.5959   14.0482   24.7888 N   0  0  0  0  0  0  0  0  0  0  0  0
    8.6803   12.7324   24.4006 C   0  0  0  0  0  0  0  0  0  0  0  0
    9.5374   12.1215   23.4717 C   0  0  0  0  0  0  0  0  0  0  0  0
   10.3958   12.8439   22.6587 N   0  0  0  0  0  0  0  0  0  0  0  0
   11.0947   14.1919   22.8933 C   0  0  0  0  0  0  0  0  0  0  0  0
   11.1225   14.8733   23.8364 O   0  0  0  0  0  0  0  0  0  0  0  0
   11.7511   14.6755   21.5874 C   0  0  0  0  0  0  0  0  0  0  0  0
   12.8871   15.0965   21.5337 O   0  0  0  0  0  0  0  0  0  0  0  0
   10.8329   14.5891   20.6016 O   0  0  0  0  0  0  0  0  0  0  0  0
   11.2837   14.9240   19.2882 C   0  0  0  0  0  0  0  0  0  0  0  0
    9.3928   10.7620   23.2715 C   0  0  0  0  0  0  0  0  0  0  0  0
    8.4366   10.0612   23.9850 C   0  0  0  0  0  0  0  0  0  0  0  0
    7.5500   10.6683   24.8695 C   0  0  0  0  0  0  0  0  0  0  0  0
    7.6530   12.0506   25.0675 C   0  0  0  0  0  0  0  0  0  0  0  0
  1  2  1  0
  2  3  1  0
  3  4  2  0
  3  5  2  0
  3  6  1  0
  6  7  2  0
  7  8  1  0
  8  9  1  0
  9 10  2  0
 10 11  1  0
 11 12  1  0
 12 13  2  0
 12 14  1  0
 14 15  2  0
 14 16  1  0
 16 17  1  0
 10 18  1  0
 18 19  2  0
 19 20  1  0
 20 21  2  0
 21  6  1  0
 21  9  1  0
M  END
>  <alias>  (98) 
None

>  <rmsd(smina/fragmenstein)>  (98) 
0.387

>  <smiles>  (98) 
CNS(=O)(=O)c1c[nH]c2c(NC(=O)C(=O)OC)cccc12

>  <gnina_score>  (98) 
5.321

>  <inspiration_score>  (98) 
None

>  <energy_score>  (98) 
-46.081603

>  <distance_score>  (98) 
0.925824

>  <gnina_score_min>  (98) 
5.318

>  <inchikey>  (98) 
KFWSEZROLYPLJM-UHFFFAOYSA-N

>  <exports>  (98) 
['/opt/xchem-fragalysis-2/maxwin/BulkDock/OUTPUTS/openbind_a71ev2a_c2_elabs_1LOUU54.sdf', '/opt/xchem-fragalysis-2/maxwin/BulkDock/OUTPUTS/openbind_a71ev2a_c2_elabs_1LSYIDY.sdf']

>  <name>  (98) 
P535837

>  <ref_pdb>  (98) 
A0554a

>  <subsites>  (98) 
None

>  <HIPPO Pose ID>  (98) 
535837

>  <ref_mols>  (98) 
A0554a

>  <HIPPO Compound ID>  (98) 
368055

>  <tags>  (98) 
openbind_a71ev2a_c2_elabs,syndirella_product,openbind_a71ev2a_c2_elabs_fragonly_scored_top80percent,openbind_a71ev2a_c2_elabs_scored,BulkDock Fragalysis export,openbind_a71ev2a_c2_elabs_scored_top80percent,openbind_a71ev2a_c2_elabs_activefrags_only_scored_5.2plus,syndirella_placed

>  <smina_score_min>  (98) 
-6.515

$$$$
P535839
     RDKit          3D

 21 22  0  0  0  0  0  0  0  0999 V2000
    5.4888   12.9875   29.5926 C   0  0  0  0  0  0  0  0  0  0  0  0
    6.1704   13.2946   28.3247 N   0  0  0  0  0  0  0  0  0  0  0  0
    5.5695   12.4209   26.9935 S   0  0  0  0  0  0  0  0  0  0  0  0
    4.2970   13.0164   26.6615 O   0  0  0  0  0  0  0  0  0  0  0  0
    5.7191   11.0144   27.2909 O   0  0  0  0  0  0  0  0  0  0  0  0
    6.6228   12.7757   25.6748 C   0  0  0  0  0  0  0  0  0  0  0  0
    6.8478   14.0440   25.1802 C   0  0  0  0  0  0  0  0  0  0  0  0
    7.7978   13.9497   24.2024 N   0  0  0  0  0  0  0  0  0  0  0  0
    8.2620   12.6568   24.1010 C   0  0  0  0  0  0  0  0  0  0  0  0
    9.3052   12.1159   23.3349 C   0  0  0  0  0  0  0  0  0  0  0  0
   10.1580   12.8335   22.5079 N   0  0  0  0  0  0  0  0  0  0  0  0
   10.0828   14.3108   22.0129 C   0  0  0  0  0  0  0  0  0  0  0  0
    9.2504   15.1203   22.1658 O   0  0  0  0  0  0  0  0  0  0  0  0
   11.4314   14.5932   21.2798 C   0  0  0  0  0  0  0  0  0  0  0  0
   12.0730   15.6741   21.7980 F   0  0  0  0  0  0  0  0  0  0  0  0
   11.2699   14.8174   19.9487 F   0  0  0  0  0  0  0  0  0  0  0  0
   12.3118   13.5591   21.4120 F   0  0  0  0  0  0  0  0  0  0  0  0
    9.4991   10.7424   23.4008 C   0  0  0  0  0  0  0  0  0  0  0  0
    8.7002    9.9521   24.2031 C   0  0  0  0  0  0  0  0  0  0  0  0
    7.6741   10.4886   24.9731 C   0  0  0  0  0  0  0  0  0  0  0  0
    7.4660   11.8780   24.9572 C   0  0  0  0  0  0  0  0  0  0  0  0
  1  2  1  0
  2  3  1  0
  3  4  2  0
  3  5  2  0
  3  6  1  0
  6  7  2  0
  7  8  1  0
  8  9  1  0
  9 10  2  0
 10 11  1  0
 11 12  1  0
 12 13  2  0
 12 14  1  0
 14 15  1  0
 14 16  1  0
 14 17  1  0
 10 18  1  0
 18 19  2  0
 19 20  1  0
 20 21  2  0
 21  6  1  0
 21  9  1  0
M  END
>  <alias>  (99) 
None

>  <rmsd(smina/fragmenstein)>  (99) 
0.631

>  <smiles>  (99) 
CNS(=O)(=O)c1c[nH]c2c(NC(=O)C(F)(F)F)cccc12

>  <gnina_score>  (99) 
5.21

>  <inspiration_score>  (99) 
None

>  <energy_score>  (99) 
-37.457535

>  <distance_score>  (99) 
1.321631

>  <gnina_score_min>  (99) 
5.394

>  <inchikey>  (99) 
CLSKYPPUTPJDJV-UHFFFAOYSA-N

>  <exports>  (99) 
['/opt/xchem-fragalysis-2/maxwin/BulkDock/OUTPUTS/openbind_a71ev2a_c2_elabs_1LOUU54.sdf', '/opt/xchem-fragalysis-2/maxwin/BulkDock/OUTPUTS/openbind_a71ev2a_c2_elabs_1LSYIDY.sdf']

>  <name>  (99) 
P535839

>  <ref_pdb>  (99) 
A0554a

>  <subsites>  (99) 
None

>  <HIPPO Pose ID>  (99) 
535839

>  <ref_mols>  (99) 
A0554a

>  <HIPPO Compound ID>  (99) 
368058

>  <tags>  (99) 
openbind_a71ev2a_c2_elabs,syndirella_product,openbind_a71ev2a_c2_elabs_fragonly_scored_top80percent,openbind_a71ev2a_c2_elabs_scored,BulkDock Fragalysis export,openbind_a71ev2a_c2_elabs_scored_top80percent,openbind_a71ev2a_c2_elabs_activefrags_only_scored_5.2plus,syndirella_placed

>  <smina_score_min>  (99) 
-6.636

$$$$
P535840
     RDKit          3D

 21 22  0  0  0  0  0  0  0  0999 V2000
   11.2006   15.0471   19.2527 C   0  0  0  0  0  0  0  0  0  0  0  0
   10.7542   15.1700   20.6968 C   0  0  0  0  0  0  0  0  0  0  0  0
   11.7780   14.5863   21.6740 C   0  0  1  0  0  0  0  0  0  0  0  0
   12.7365   15.5257   21.9191 F   0  0  0  0  0  0  0  0  0  0  0  0
   11.0506   14.1752   22.9614 C   0  0  0  0  0  0  0  0  0  0  0  0
   11.0769   14.7981   23.9483 O   0  0  0  0  0  0  0  0  0  0  0  0
   10.2563   12.8932   22.6042 N   0  0  0  0  0  0  0  0  0  0  0  0
    9.4427   12.0987   23.3825 C   0  0  0  0  0  0  0  0  0  0  0  0
    9.5143   10.7343   23.2022 C   0  0  0  0  0  0  0  0  0  0  0  0
    8.7610    9.9032   23.9964 C   0  0  0  0  0  0  0  0  0  0  0  0
    7.8150   10.3849   24.8994 C   0  0  0  0  0  0  0  0  0  0  0  0
    7.6832   11.7734   25.0739 C   0  0  0  0  0  0  0  0  0  0  0  0
    6.9177   12.6328   25.9191 C   0  0  0  0  0  0  0  0  0  0  0  0
    5.8593   12.2023   27.2092 S   0  0  0  0  0  0  0  0  0  0  0  0
    4.5686   12.7427   26.8558 O   0  0  0  0  0  0  0  0  0  0  0  0
    6.5752   12.6133   28.3980 O   0  0  0  0  0  0  0  0  0  0  0  0
    5.6845   10.5247   27.2837 N   0  0  0  0  0  0  0  0  0  0  0  0
    4.9534   10.0431   28.4635 C   0  0  0  0  0  0  0  0  0  0  0  0
    7.2496   13.9352   25.6034 C   0  0  0  0  0  0  0  0  0  0  0  0
    8.2198   13.9002   24.6443 N   0  0  0  0  0  0  0  0  0  0  0  0
    8.5269   12.6000   24.3168 C   0  0  0  0  0  0  0  0  0  0  0  0
  1  2  1  0
  2  3  1  0
  3  4  1  1
  3  5  1  0
  5  6  2  0
  5  7  1  0
  7  8  1  0
  8  9  2  0
  9 10  1  0
 10 11  2  0
 11 12  1  0
 12 13  1  0
 13 14  1  0
 14 15  2  0
 14 16  2  0
 14 17  1  0
 17 18  1  0
 13 19  2  0
 19 20  1  0
 20 21  1  0
 21  8  1  0
 21 12  2  0
M  END
>  <alias>  (100) 
None

>  <rmsd(smina/fragmenstein)>  (100) 
0.561

>  <smiles>  (100) 
CC[C@@H](F)C(=O)Nc1cccc2c(S(=O)(=O)NC)c[nH]c12

>  <gnina_score>  (100) 
5.538

>  <inspiration_score>  (100) 
None

>  <energy_score>  (100) 
-28.192897

>  <distance_score>  (100) 
0.751876

>  <gnina_score_min>  (100) 
5.682

>  <inchikey>  (100) 
FKUBDYPRINJXDP-SECBINFHSA-N

>  <exports>  (100) 
['/opt/xchem-fragalysis-2/maxwin/BulkDock/OUTPUTS/openbind_a71ev2a_c2_elabs_1LOUU54.sdf', '/opt/xchem-fragalysis-2/maxwin/BulkDock/OUTPUTS/openbind_a71ev2a_c2_elabs_1LSYIDY.sdf']

>  <name>  (100) 
P535840

>  <ref_pdb>  (100) 
A0554a

>  <subsites>  (100) 
None

>  <HIPPO Pose ID>  (100) 
535840

>  <ref_mols>  (100) 
A0554a

>  <HIPPO Compound ID>  (100) 
368059

>  <tags>  (100) 
openbind_a71ev2a_c2_elabs,syndirella_product,openbind_a71ev2a_c2_elabs_fragonly_scored_top80percent,BulkDock Fragalysis export,openbind_a71ev2a_c2_elabs_scored,openbind_a71ev2a_c2_elabs_scored_top80percent,openbind_a71ev2a_c2_elabs_activefrags_only_scored_5.2plus,openbind_a71ev2a_c2_elabs_activefrags_only_scored_5.5plus,syndirella_placed

>  <smina_score_min>  (100) 
-7.348

$$$$
P535843
     RDKit          3D

 21 22  0  0  0  0  0  0  0  0999 V2000
    6.3374   16.5357   29.3715 C   0  0  0  0  0  0  0  0  0  0  0  0
    5.9114   16.6203   27.9179 C   0  0  0  0  0  0  0  0  0  0  0  0
    6.2385   15.4018   27.2358 O   0  0  0  0  0  0  0  0  0  0  0  0
    7.4855   15.3500   26.6959 C   0  0  0  0  0  0  0  0  0  0  0  0
    8.3581   16.1955   26.8367 O   0  0  0  0  0  0  0  0  0  0  0  0
    7.6522   14.1318   25.9487 C   0  0  0  0  0  0  0  0  0  0  0  0
    6.9501   12.9417   25.9971 C   0  0  0  0  0  0  0  0  0  0  0  0
    7.6238   12.0048   25.1733 C   0  0  0  0  0  0  0  0  0  0  0  0
    7.4282   10.6478   24.9180 C   0  0  0  0  0  0  0  0  0  0  0  0
    8.2621   10.0383   23.9900 C   0  0  0  0  0  0  0  0  0  0  0  0
    9.2655   10.7142   23.3148 C   0  0  0  0  0  0  0  0  0  0  0  0
    9.4859   12.0578   23.5689 C   0  0  0  0  0  0  0  0  0  0  0  0
   10.3861   12.7457   22.7724 N   0  0  0  0  0  0  0  0  0  0  0  0
   11.1490   14.0746   23.0286 C   0  0  0  0  0  0  0  0  0  0  0  0
   11.1934   14.7501   23.9808 O   0  0  0  0  0  0  0  0  0  0  0  0
   11.8142   14.4570   21.6949 C   0  0  2  0  0  0  0  0  0  0  0  0
   12.7839   15.4017   21.8682 F   0  0  0  0  0  0  0  0  0  0  0  0
   10.7434   15.0362   20.7628 C   0  0  0  0  0  0  0  0  0  0  0  0
   11.1483   14.9947   19.2997 C   0  0  0  0  0  0  0  0  0  0  0  0
    8.6716   12.6717   24.5336 C   0  0  0  0  0  0  0  0  0  0  0  0
    8.6599   13.9566   25.0260 N   0  0  0  0  0  0  0  0  0  0  0  0
  1  2  1  0
  2  3  1  0
  3  4  1  0
  4  5  2  0
  4  6  1  0
  6  7  2  0
  7  8  1  0
  8  9  2  0
  9 10  1  0
 10 11  2  0
 11 12  1  0
 12 13  1  0
 13 14  1  0
 14 15  2  0
 14 16  1  0
 16 17  1  1
 16 18  1  0
 18 19  1  0
 12 20  2  0
 20 21  1  0
 21  6  1  0
 20  8  1  0
M  END
>  <alias>  (101) 
None

>  <rmsd(smina/fragmenstein)>  (101) 
0.877

>  <smiles>  (101) 
CCOC(=O)c1cc2cccc(NC(=O)[C@H](F)CC)c2[nH]1

>  <gnina_score>  (101) 
5.252

>  <inspiration_score>  (101) 
None

>  <energy_score>  (101) 
-34.105677

>  <distance_score>  (101) 
0.868793

>  <gnina_score_min>  (101) 
5.409

>  <inchikey>  (101) 
CIAWSRNSDGKPSH-SNVBAGLBSA-N

>  <exports>  (101) 
['/opt/xchem-fragalysis-2/maxwin/BulkDock/OUTPUTS/openbind_a71ev2a_c2_elabs_1LOUU54.sdf', '/opt/xchem-fragalysis-2/maxwin/BulkDock/OUTPUTS/openbind_a71ev2a_c2_elabs_1LSYIDY.sdf']

>  <name>  (101) 
P535843

>  <ref_pdb>  (101) 
A0554a

>  <subsites>  (101) 
None

>  <HIPPO Pose ID>  (101) 
535843

>  <ref_mols>  (101) 
A0554a

>  <HIPPO Compound ID>  (101) 
368060

>  <tags>  (101) 
openbind_a71ev2a_c2_elabs,syndirella_product,openbind_a71ev2a_c2_elabs_fragonly_scored_top80percent,openbind_a71ev2a_c2_elabs_scored,BulkDock Fragalysis export,openbind_a71ev2a_c2_elabs_scored_top80percent,openbind_a71ev2a_c2_elabs_activefrags_only_scored_5.2plus,syndirella_placed

>  <smina_score_min>  (101) 
-6.668

$$$$
P535847
     RDKit          3D

 21 22  0  0  0  0  0  0  0  0999 V2000
    9.2339   16.9104   20.5841 C   0  0  0  0  0  0  0  0  0  0  0  0
   10.0029   15.9902   20.5456 C   0  0  0  0  0  0  0  0  0  0  0  0
   10.8819   14.8278   20.3914 C   0  0  0  0  0  0  0  0  0  0  0  0
   11.8217   14.5566   21.5602 C   0  0  0  0  0  0  0  0  0  0  0  0
   11.1069   14.1749   22.8530 C   0  0  0  0  0  0  0  0  0  0  0  0
   11.0764   14.8992   23.7660 O   0  0  0  0  0  0  0  0  0  0  0  0
   10.4214   12.8064   22.6372 N   0  0  0  0  0  0  0  0  0  0  0  0
    9.5148   12.1163   23.4317 C   0  0  0  0  0  0  0  0  0  0  0  0
    9.3849   10.7483   23.2724 C   0  0  0  0  0  0  0  0  0  0  0  0
    8.4593   10.0491   24.0288 C   0  0  0  0  0  0  0  0  0  0  0  0
    7.6031   10.6575   24.9408 C   0  0  0  0  0  0  0  0  0  0  0  0
    7.6952   12.0436   25.1065 C   0  0  0  0  0  0  0  0  0  0  0  0
    7.0381   13.0033   25.9264 C   0  0  0  0  0  0  0  0  0  0  0  0
    5.8655   12.7327   27.1557 S   0  0  0  0  0  0  0  0  0  0  0  0
    5.2031   11.4881   26.8456 O   0  0  0  0  0  0  0  0  0  0  0  0
    6.6064   12.8909   28.3891 O   0  0  0  0  0  0  0  0  0  0  0  0
    4.7276   13.9733   27.0990 N   0  0  0  0  0  0  0  0  0  0  0  0
    3.8755   14.0274   25.9053 C   0  0  0  0  0  0  0  0  0  0  0  0
    7.5613   14.2434   25.6243 C   0  0  0  0  0  0  0  0  0  0  0  0
    8.5339   14.0637   24.6861 N   0  0  0  0  0  0  0  0  0  0  0  0
    8.6581   12.7348   24.3558 C   0  0  0  0  0  0  0  0  0  0  0  0
  1  2  3  0
  2  3  1  0
  3  4  1  0
  4  5  1  0
  5  6  2  0
  5  7  1  0
  7  8  1  0
  8  9  2  0
  9 10  1  0
 10 11  2  0
 11 12  1  0
 12 13  1  0
 13 14  1  0
 14 15  2  0
 14 16  2  0
 14 17  1  0
 17 18  1  0
 13 19  2  0
 19 20  1  0
 20 21  1  0
 21  8  1  0
 21 12  2  0
M  END
>  <alias>  (102) 
None

>  <rmsd(smina/fragmenstein)>  (102) 
0.359

>  <smiles>  (102) 
C#CCCC(=O)Nc1cccc2c(S(=O)(=O)NC)c[nH]c12

>  <gnina_score>  (102) 
5.555

>  <inspiration_score>  (102) 
None

>  <energy_score>  (102) 
-44.323209

>  <distance_score>  (102) 
0.934243

>  <gnina_score_min>  (102) 
5.744

>  <inchikey>  (102) 
PNLJLPJFHFPTIC-UHFFFAOYSA-N

>  <exports>  (102) 
['/opt/xchem-fragalysis-2/maxwin/BulkDock/OUTPUTS/openbind_a71ev2a_c2_elabs_1LOUU54.sdf', '/opt/xchem-fragalysis-2/maxwin/BulkDock/OUTPUTS/openbind_a71ev2a_c2_elabs_1LSYIDY.sdf']

>  <name>  (102) 
P535847

>  <ref_pdb>  (102) 
A0554a

>  <subsites>  (102) 
None

>  <HIPPO Pose ID>  (102) 
535847

>  <ref_mols>  (102) 
A0554a

>  <HIPPO Compound ID>  (102) 
368063

>  <tags>  (102) 
openbind_a71ev2a_c2_elabs,syndirella_product,openbind_a71ev2a_c2_elabs_fragonly_scored_top80percent,BulkDock Fragalysis export,openbind_a71ev2a_c2_elabs_scored,openbind_a71ev2a_c2_elabs_scored_top80percent,openbind_a71ev2a_c2_elabs_activefrags_only_scored_5.2plus,openbind_a71ev2a_c2_elabs_activefrags_only_scored_5.5plus,syndirella_placed

>  <smina_score_min>  (102) 
-6.349

$$$$
P535850
     RDKit          3D

 21 22  0  0  0  0  0  0  0  0999 V2000
    7.4815   16.8714   28.4869 C   0  0  0  0  0  0  0  0  0  0  0  0
    6.6561   16.8289   27.2138 C   0  0  0  0  0  0  0  0  0  0  0  0
    7.1345   15.7737   26.3624 O   0  0  0  0  0  0  0  0  0  0  0  0
    6.5191   14.5776   26.5741 C   0  0  0  0  0  0  0  0  0  0  0  0
    5.6422   14.3769   27.4058 O   0  0  0  0  0  0  0  0  0  0  0  0
    7.1056   13.5439   25.7572 C   0  0  0  0  0  0  0  0  0  0  0  0
    6.7951   12.1990   25.8305 C   0  0  0  0  0  0  0  0  0  0  0  0
    7.6696   11.4938   24.9786 C   0  0  0  0  0  0  0  0  0  0  0  0
    7.8734   10.1267   24.7480 C   0  0  0  0  0  0  0  0  0  0  0  0
    8.8841    9.7507   23.8761 C   0  0  0  0  0  0  0  0  0  0  0  0
    9.5524   10.6756   23.1199 C   0  0  0  0  0  0  0  0  0  0  0  0
    9.3739   12.0322   23.3290 C   0  0  0  0  0  0  0  0  0  0  0  0
   10.1545   12.8301   22.5261 N   0  0  0  0  0  0  0  0  0  0  0  0
   10.8878   14.1432   22.8352 C   0  0  0  0  0  0  0  0  0  0  0  0
   10.8861   14.7998   23.7958 O   0  0  0  0  0  0  0  0  0  0  0  0
   11.7161   14.4181   21.5538 C   0  0  2  0  0  0  0  0  0  0  0  0
   12.8246   15.3669   21.8946 C   0  0  0  0  0  0  0  0  0  0  0  0
   10.8810   14.9558   20.5266 O   0  0  0  0  0  0  0  0  0  0  0  0
   11.4976   14.7138   19.2199 N   0  0  0  0  0  0  0  0  0  0  0  0
    8.4607   12.4348   24.3102 C   0  0  0  0  0  0  0  0  0  0  0  0
    8.0795   13.6745   24.7848 N   0  0  0  0  0  0  0  0  0  0  0  0
  1  2  1  0
  2  3  1  0
  3  4  1  0
  4  5  2  0
  4  6  1  0
  6  7  2  0
  7  8  1  0
  8  9  2  0
  9 10  1  0
 10 11  2  0
 11 12  1  0
 12 13  1  0
 13 14  1  0
 14 15  2  0
 14 16  1  0
 16 17  1  1
 16 18  1  0
 18 19  1  0
 12 20  2  0
 20 21  1  0
 21  6  1  0
 20  8  1  0
M  END
>  <alias>  (103) 
None

>  <rmsd(smina/fragmenstein)>  (103) 
0.852

>  <smiles>  (103) 
CCOC(=O)c1cc2cccc(NC(=O)[C@H](C)ON)c2[nH]1

>  <gnina_score>  (103) 
5.493

>  <inspiration_score>  (103) 
None

>  <energy_score>  (103) 
-17.40231

>  <distance_score>  (103) 
0.652341

>  <gnina_score_min>  (103) 
5.293

>  <inchikey>  (103) 
BKALERBJBWLGRW-QMMMGPOBSA-N

>  <exports>  (103) 
['/opt/xchem-fragalysis-2/maxwin/BulkDock/OUTPUTS/openbind_a71ev2a_c2_elabs_1LOUU54.sdf', '/opt/xchem-fragalysis-2/maxwin/BulkDock/OUTPUTS/openbind_a71ev2a_c2_elabs_1LSYIDY.sdf']

>  <name>  (103) 
P535850

>  <ref_pdb>  (103) 
A0554a

>  <subsites>  (103) 
None

>  <HIPPO Pose ID>  (103) 
535850

>  <ref_mols>  (103) 
A0554a

>  <HIPPO Compound ID>  (103) 
368069

>  <tags>  (103) 
openbind_a71ev2a_c2_elabs,syndirella_product,openbind_a71ev2a_c2_elabs_fragonly_scored_top80percent,openbind_a71ev2a_c2_elabs_scored,BulkDock Fragalysis export,openbind_a71ev2a_c2_elabs_scored_top80percent,openbind_a71ev2a_c2_elabs_activefrags_only_scored_5.2plus,syndirella_placed

>  <smina_score_min>  (103) 
-6.332

$$$$
P535852
     RDKit          3D

 21 22  0  0  0  0  0  0  0  0999 V2000
    3.8191   13.8283   26.0924 C   0  0  0  0  0  0  0  0  0  0  0  0
    4.7787   13.7255   27.1940 N   0  0  0  0  0  0  0  0  0  0  0  0
    5.9225   12.4948   27.1159 S   0  0  0  0  0  0  0  0  0  0  0  0
    5.2588   11.2549   26.7940 O   0  0  0  0  0  0  0  0  0  0  0  0
    6.7435   12.6185   28.3016 O   0  0  0  0  0  0  0  0  0  0  0  0
    7.0100   12.8233   25.8223 C   0  0  0  0  0  0  0  0  0  0  0  0
    7.4044   14.0957   25.4656 C   0  0  0  0  0  0  0  0  0  0  0  0
    8.3557   13.9748   24.4990 N   0  0  0  0  0  0  0  0  0  0  0  0
    8.5996   12.6521   24.2076 C   0  0  0  0  0  0  0  0  0  0  0  0
    9.4891   12.0871   23.2740 C   0  0  0  0  0  0  0  0  0  0  0  0
   10.3179   12.8675   22.4812 N   0  0  0  0  0  0  0  0  0  0  0  0
   10.9815   14.2191   22.7631 C   0  0  0  0  0  0  0  0  0  0  0  0
   11.0034   14.8623   23.7360 O   0  0  0  0  0  0  0  0  0  0  0  0
   11.6200   14.8053   21.4751 C   0  0  0  0  0  0  0  0  0  0  0  0
   10.5143   15.5387   20.7156 C   0  0  0  0  0  0  0  0  0  0  0  0
   12.7679   15.6357   21.9711 C   0  0  0  0  0  0  0  0  0  0  0  0
   12.4247   13.7663   20.3301 Cl  0  0  0  0  0  0  0  0  0  0  0  0
    9.5067   10.7138   23.1647 C   0  0  0  0  0  0  0  0  0  0  0  0
    8.7144    9.9514   24.0049 C   0  0  0  0  0  0  0  0  0  0  0  0
    7.7911   10.5028   24.8964 C   0  0  0  0  0  0  0  0  0  0  0  0
    7.7305   11.8987   25.0089 C   0  0  0  0  0  0  0  0  0  0  0  0
  1  2  1  0
  2  3  1  0
  3  4  2  0
  3  5  2  0
  3  6  1  0
  6  7  2  0
  7  8  1  0
  8  9  1  0
  9 10  2  0
 10 11  1  0
 11 12  1  0
 12 13  2  0
 12 14  1  0
 14 15  1  0
 14 16  1  0
 14 17  1  0
 10 18  1  0
 18 19  2  0
 19 20  1  0
 20 21  2  0
 21  6  1  0
 21  9  1  0
M  END
>  <alias>  (104) 
None

>  <rmsd(smina/fragmenstein)>  (104) 
0.649

>  <smiles>  (104) 
CNS(=O)(=O)c1c[nH]c2c(NC(=O)C(C)(C)Cl)cccc12

>  <gnina_score>  (104) 
5.401

>  <inspiration_score>  (104) 
None

>  <energy_score>  (104) 
-34.621588

>  <distance_score>  (104) 
0.888312

>  <gnina_score_min>  (104) 
5.368

>  <inchikey>  (104) 
AERUVQCGENKSDT-UHFFFAOYSA-N

>  <exports>  (104) 
['/opt/xchem-fragalysis-2/maxwin/BulkDock/OUTPUTS/openbind_a71ev2a_c2_elabs_1LOUU54.sdf', '/opt/xchem-fragalysis-2/maxwin/BulkDock/OUTPUTS/openbind_a71ev2a_c2_elabs_1LSYIDY.sdf']

>  <name>  (104) 
P535852

>  <ref_pdb>  (104) 
A0554a

>  <subsites>  (104) 
None

>  <HIPPO Pose ID>  (104) 
535852

>  <ref_mols>  (104) 
A0554a

>  <HIPPO Compound ID>  (104) 
368071

>  <tags>  (104) 
openbind_a71ev2a_c2_elabs,syndirella_product,openbind_a71ev2a_c2_elabs_fragonly_scored_top80percent,openbind_a71ev2a_c2_elabs_scored,BulkDock Fragalysis export,openbind_a71ev2a_c2_elabs_scored_top80percent,openbind_a71ev2a_c2_elabs_activefrags_only_scored_5.2plus,syndirella_placed

>  <smina_score_min>  (104) 
-5.822

$$$$
P535853
     RDKit          3D

 21 22  0  0  0  0  0  0  0  0999 V2000
    5.9114   16.0919   28.9731 C   0  0  0  0  0  0  0  0  0  0  0  0
    5.3073   15.9413   27.5895 C   0  0  0  0  0  0  0  0  0  0  0  0
    5.8316   14.7710   26.9462 O   0  0  0  0  0  0  0  0  0  0  0  0
    6.9847   14.9562   26.2516 C   0  0  0  0  0  0  0  0  0  0  0  0
    7.6403   15.9889   26.2090 O   0  0  0  0  0  0  0  0  0  0  0  0
    7.3720   13.7424   25.5848 C   0  0  0  0  0  0  0  0  0  0  0  0
    6.9387   12.4344   25.7129 C   0  0  0  0  0  0  0  0  0  0  0  0
    7.7720   11.6165   24.9005 C   0  0  0  0  0  0  0  0  0  0  0  0
    7.9007   10.2342   24.7144 C   0  0  0  0  0  0  0  0  0  0  0  0
    8.8918    9.7847   23.8416 C   0  0  0  0  0  0  0  0  0  0  0  0
    9.6232   10.6373   23.0471 C   0  0  0  0  0  0  0  0  0  0  0  0
    9.5319   11.9965   23.2327 C   0  0  0  0  0  0  0  0  0  0  0  0
   10.3167   12.8276   22.4613 N   0  0  0  0  0  0  0  0  0  0  0  0
   10.8975   14.2061   22.7636 C   0  0  0  0  0  0  0  0  0  0  0  0
   10.8748   14.8369   23.7423 O   0  0  0  0  0  0  0  0  0  0  0  0
   11.5164   14.8359   21.4642 C   0  0  0  0  0  0  0  0  0  0  0  0
   12.0136   14.0987   20.2455 C   0  0  0  0  0  0  0  0  0  0  0  0
   12.7360   15.5538   22.0013 C   0  0  0  0  0  0  0  0  0  0  0  0
   10.2238   15.9437   20.8533 Cl  0  0  0  0  0  0  0  0  0  0  0  0
    8.6350   12.4618   24.2029 C   0  0  0  0  0  0  0  0  0  0  0  0
    8.3678   13.7346   24.6384 N   0  0  0  0  0  0  0  0  0  0  0  0
  1  2  1  0
  2  3  1  0
  3  4  1  0
  4  5  2  0
  4  6  1  0
  6  7  2  0
  7  8  1  0
  8  9  2  0
  9 10  1  0
 10 11  2  0
 11 12  1  0
 12 13  1  0
 13 14  1  0
 14 15  2  0
 14 16  1  0
 16 17  1  0
 16 18  1  0
 16 19  1  0
 12 20  2  0
 20 21  1  0
 21  6  1  0
 20  8  1  0
M  END
>  <alias>  (105) 
None

>  <rmsd(smina/fragmenstein)>  (105) 
1.196

>  <smiles>  (105) 
CCOC(=O)c1cc2cccc(NC(=O)C(C)(C)Cl)c2[nH]1

>  <gnina_score>  (105) 
5.351

>  <inspiration_score>  (105) 
None

>  <energy_score>  (105) 
-8.030347

>  <distance_score>  (105) 
0.7568

>  <gnina_score_min>  (105) 
5.252

>  <inchikey>  (105) 
MFVIKKFCHXDOHC-UHFFFAOYSA-N

>  <exports>  (105) 
['/opt/xchem-fragalysis-2/maxwin/BulkDock/OUTPUTS/openbind_a71ev2a_c2_elabs_1LOUU54.sdf', '/opt/xchem-fragalysis-2/maxwin/BulkDock/OUTPUTS/openbind_a71ev2a_c2_elabs_1LSYIDY.sdf']

>  <name>  (105) 
P535853

>  <ref_pdb>  (105) 
A0554a

>  <subsites>  (105) 
None

>  <HIPPO Pose ID>  (105) 
535853

>  <ref_mols>  (105) 
A0554a

>  <HIPPO Compound ID>  (105) 
368073

>  <tags>  (105) 
openbind_a71ev2a_c2_elabs,syndirella_product,openbind_a71ev2a_c2_elabs_fragonly_scored_top80percent,openbind_a71ev2a_c2_elabs_scored,BulkDock Fragalysis export,openbind_a71ev2a_c2_elabs_scored_top80percent,openbind_a71ev2a_c2_elabs_activefrags_only_scored_5.2plus,syndirella_placed

>  <smina_score_min>  (105) 
-5.737

$$$$
P535854
     RDKit          3D

 21 22  0  0  0  0  0  0  0  0999 V2000
    3.6022   14.8425   25.4817 C   0  0  0  0  0  0  0  0  0  0  0  0
    3.7445   13.4094   25.7820 N   0  0  0  0  0  0  0  0  0  0  0  0
    4.9160   12.9962   26.9348 S   0  0  0  0  0  0  0  0  0  0  0  0
    5.0080   14.0393   27.9308 O   0  0  0  0  0  0  0  0  0  0  0  0
    4.7290   11.6092   27.2994 O   0  0  0  0  0  0  0  0  0  0  0  0
    6.4283   13.0428   26.1049 C   0  0  0  0  0  0  0  0  0  0  0  0
    7.1254   14.2023   25.8472 C   0  0  0  0  0  0  0  0  0  0  0  0
    8.1739   13.8764   25.0465 N   0  0  0  0  0  0  0  0  0  0  0  0
    8.1782   12.5276   24.7643 C   0  0  0  0  0  0  0  0  0  0  0  0
    9.0127   11.7802   23.9173 C   0  0  0  0  0  0  0  0  0  0  0  0
    9.9767   12.4090   23.1613 N   0  0  0  0  0  0  0  0  0  0  0  0
   10.7167   13.7541   23.3885 C   0  0  0  0  0  0  0  0  0  0  0  0
   10.6781   14.4971   24.2909 O   0  0  0  0  0  0  0  0  0  0  0  0
   11.4857   14.0341   22.1135 C   0  0  1  0  0  0  0  0  0  0  0  0
   10.4903   14.6327   21.1091 C   0  0  0  0  0  0  0  0  0  0  0  0
   12.5023   14.9558   22.4790 O   0  0  0  0  0  0  0  0  0  0  0  0
   13.1657   15.3377   21.2682 N   0  0  0  0  0  0  0  0  0  0  0  0
    8.7862   10.4222   23.7925 C   0  0  0  0  0  0  0  0  0  0  0  0
    7.7754    9.8464   24.5463 C   0  0  0  0  0  0  0  0  0  0  0  0
    6.9376   10.5842   25.3813 C   0  0  0  0  0  0  0  0  0  0  0  0
    7.1126   11.9685   25.4696 C   0  0  0  0  0  0  0  0  0  0  0  0
  1  2  1  0
  2  3  1  0
  3  4  2  0
  3  5  2  0
  3  6  1  0
  6  7  2  0
  7  8  1  0
  8  9  1  0
  9 10  2  0
 10 11  1  0
 11 12  1  0
 12 13  2  0
 12 14  1  0
 14 15  1  6
 14 16  1  0
 16 17  1  0
 10 18  1  0
 18 19  2  0
 19 20  1  0
 20 21  2  0
 21  6  1  0
 21  9  1  0
M  END
>  <alias>  (106) 
None

>  <rmsd(smina/fragmenstein)>  (106) 
0.491

>  <smiles>  (106) 
CNS(=O)(=O)c1c[nH]c2c(NC(=O)[C@@H](C)ON)cccc12

>  <gnina_score>  (106) 
5.445

>  <inspiration_score>  (106) 
None

>  <energy_score>  (106) 
-51.812356

>  <distance_score>  (106) 
0.949224

>  <gnina_score_min>  (106) 
5.37

>  <inchikey>  (106) 
WEJMSXGLRDCQBU-SSDOTTSWSA-N

>  <exports>  (106) 
['/opt/xchem-fragalysis-2/maxwin/BulkDock/OUTPUTS/openbind_a71ev2a_c2_elabs_1LOUU54.sdf', '/opt/xchem-fragalysis-2/maxwin/BulkDock/OUTPUTS/openbind_a71ev2a_c2_elabs_1LSYIDY.sdf']

>  <name>  (106) 
P535854

>  <ref_pdb>  (106) 
A0554a

>  <subsites>  (106) 
None

>  <HIPPO Pose ID>  (106) 
535854

>  <ref_mols>  (106) 
A0554a

>  <HIPPO Compound ID>  (106) 
368074

>  <tags>  (106) 
openbind_a71ev2a_c2_elabs,syndirella_product,openbind_a71ev2a_c2_elabs_fragonly_scored_top80percent,openbind_a71ev2a_c2_elabs_scored,BulkDock Fragalysis export,openbind_a71ev2a_c2_elabs_scored_top80percent,openbind_a71ev2a_c2_elabs_activefrags_only_scored_5.2plus,syndirella_placed

>  <smina_score_min>  (106) 
-5.941

$$$$
P535856
     RDKit          3D

 21 22  0  0  0  0  0  0  0  0999 V2000
    9.7955   15.6808   20.1282 C   0  0  0  0  0  0  0  0  0  0  0  0
   10.2510   15.0424   21.2199 C   0  0  0  0  0  0  0  0  0  0  0  0
   11.7081   14.9119   21.5511 C   0  0  0  0  0  0  0  0  0  0  0  0
   12.0685   13.5540   21.7608 O   0  0  0  0  0  0  0  0  0  0  0  0
    9.2027   14.5237   22.1705 C   0  0  0  0  0  0  0  0  0  0  0  0
    8.2179   15.1070   22.3827 O   0  0  0  0  0  0  0  0  0  0  0  0
    9.6863   13.1628   22.6936 N   0  0  0  0  0  0  0  0  0  0  0  0
    9.0483   12.2272   23.4800 C   0  0  0  0  0  0  0  0  0  0  0  0
    9.4942   10.9146   23.3875 C   0  0  0  0  0  0  0  0  0  0  0  0
    8.8499    9.8970   24.0622 C   0  0  0  0  0  0  0  0  0  0  0  0
    7.7423   10.1603   24.8674 C   0  0  0  0  0  0  0  0  0  0  0  0
    7.3250   11.4891   25.0400 C   0  0  0  0  0  0  0  0  0  0  0  0
    6.3276   12.1115   25.8343 C   0  0  0  0  0  0  0  0  0  0  0  0
    6.3638   13.4718   25.5876 C   0  0  0  0  0  0  0  0  0  0  0  0
    5.5946   14.5575   26.1352 C   0  0  0  0  0  0  0  0  0  0  0  0
    5.8505   15.7401   25.9602 O   0  0  0  0  0  0  0  0  0  0  0  0
    4.5789   14.0738   26.9040 O   0  0  0  0  0  0  0  0  0  0  0  0
    3.7174   15.0674   27.4759 C   0  0  0  0  0  0  0  0  0  0  0  0
    4.2727   15.5373   28.8073 C   0  0  0  0  0  0  0  0  0  0  0  0
    7.3274   13.6696   24.6254 N   0  0  0  0  0  0  0  0  0  0  0  0
    7.9689   12.4934   24.3211 C   0  0  0  0  0  0  0  0  0  0  0  0
  1  2  2  0
  2  3  1  0
  3  4  1  0
  2  5  1  0
  5  6  2  0
  5  7  1  0
  7  8  1  0
  8  9  2  0
  9 10  1  0
 10 11  2  0
 11 12  1  0
 12 13  1  0
 13 14  2  0
 14 15  1  0
 15 16  2  0
 15 17  1  0
 17 18  1  0
 18 19  1  0
 14 20  1  0
 20 21  1  0
 21  8  1  0
 21 12  2  0
M  END
>  <alias>  (107) 
None

>  <rmsd(smina/fragmenstein)>  (107) 
0.682

>  <smiles>  (107) 
C=C(CO)C(=O)Nc1cccc2cc(C(=O)OCC)[nH]c12

>  <gnina_score>  (107) 
5.175

>  <inspiration_score>  (107) 
None

>  <energy_score>  (107) 
-13.246176

>  <distance_score>  (107) 
1.541855

>  <gnina_score_min>  (107) 
5.215

>  <inchikey>  (107) 
LLQIXDUBYYSWDW-UHFFFAOYSA-N

>  <exports>  (107) 
['/opt/xchem-fragalysis-2/maxwin/BulkDock/OUTPUTS/openbind_a71ev2a_c2_elabs_1LOUU54.sdf', '/opt/xchem-fragalysis-2/maxwin/BulkDock/OUTPUTS/openbind_a71ev2a_c2_elabs_1LSYIDY.sdf']

>  <name>  (107) 
P535856

>  <ref_pdb>  (107) 
A0554a

>  <subsites>  (107) 
None

>  <HIPPO Pose ID>  (107) 
535856

>  <ref_mols>  (107) 
A0554a

>  <HIPPO Compound ID>  (107) 
368075

>  <tags>  (107) 
openbind_a71ev2a_c2_elabs,syndirella_product,openbind_a71ev2a_c2_elabs_fragonly_scored_top80percent,openbind_a71ev2a_c2_elabs_scored,BulkDock Fragalysis export,openbind_a71ev2a_c2_elabs_scored_top80percent,openbind_a71ev2a_c2_elabs_activefrags_only_scored_5.2plus,syndirella_placed

>  <smina_score_min>  (107) 
-6.297

$$$$
P535859
     RDKit          3D

 21 22  0  0  0  0  0  0  0  0999 V2000
    3.9157   14.0747   25.8104 C   0  0  0  0  0  0  0  0  0  0  0  0
    4.6710   13.9491   27.0608 N   0  0  0  0  0  0  0  0  0  0  0  0
    5.8202   12.7221   27.1484 S   0  0  0  0  0  0  0  0  0  0  0  0
    6.5636   12.9225   28.3742 O   0  0  0  0  0  0  0  0  0  0  0  0
    5.2033   11.4558   26.8359 O   0  0  0  0  0  0  0  0  0  0  0  0
    7.0093   12.9995   25.9297 C   0  0  0  0  0  0  0  0  0  0  0  0
    7.5490   14.2373   25.6473 C   0  0  0  0  0  0  0  0  0  0  0  0
    8.5324   14.0545   24.7208 N   0  0  0  0  0  0  0  0  0  0  0  0
    8.6499   12.7283   24.3784 C   0  0  0  0  0  0  0  0  0  0  0  0
    9.5151   12.1071   23.4621 C   0  0  0  0  0  0  0  0  0  0  0  0
   10.4462   12.7950   22.6971 N   0  0  0  0  0  0  0  0  0  0  0  0
   11.1542   14.1557   22.9514 C   0  0  0  0  0  0  0  0  0  0  0  0
   11.1187   14.8663   23.8802 O   0  0  0  0  0  0  0  0  0  0  0  0
   11.9014   14.5310   21.6508 C   0  0  0  0  0  0  0  0  0  0  0  0
   10.9255   15.0729   20.6243 C   0  0  0  0  0  0  0  0  0  0  0  0
   12.5342   13.4538   21.1215 F   0  0  0  0  0  0  0  0  0  0  0  0
   12.8622   15.4664   21.8818 F   0  0  0  0  0  0  0  0  0  0  0  0
    9.3738   10.7433   23.2854 C   0  0  0  0  0  0  0  0  0  0  0  0
    8.4352   10.0473   24.0280 C   0  0  0  0  0  0  0  0  0  0  0  0
    7.5772   10.6550   24.9391 C   0  0  0  0  0  0  0  0  0  0  0  0
    7.6724   12.0399   25.1123 C   0  0  0  0  0  0  0  0  0  0  0  0
  1  2  1  0
  2  3  1  0
  3  4  2  0
  3  5  2  0
  3  6  1  0
  6  7  2  0
  7  8  1  0
  8  9  1  0
  9 10  2  0
 10 11  1  0
 11 12  1  0
 12 13  2  0
 12 14  1  0
 14 15  1  0
 14 16  1  0
 14 17  1  0
 10 18  1  0
 18 19  2  0
 19 20  1  0
 20 21  2  0
 21  6  1  0
 21  9  1  0
M  END
>  <alias>  (108) 
None

>  <rmsd(smina/fragmenstein)>  (108) 
0.319

>  <smiles>  (108) 
CNS(=O)(=O)c1c[nH]c2c(NC(=O)C(C)(F)F)cccc12

>  <gnina_score>  (108) 
5.389

>  <inspiration_score>  (108) 
None

>  <energy_score>  (108) 
-33.721601

>  <distance_score>  (108) 
0.904662

>  <gnina_score_min>  (108) 
5.502

>  <inchikey>  (108) 
IMIYEICYKMXOBH-UHFFFAOYSA-N

>  <exports>  (108) 
['/opt/xchem-fragalysis-2/maxwin/BulkDock/OUTPUTS/openbind_a71ev2a_c2_elabs_1LOUU54.sdf', '/opt/xchem-fragalysis-2/maxwin/BulkDock/OUTPUTS/openbind_a71ev2a_c2_elabs_1LSYIDY.sdf']

>  <name>  (108) 
P535859

>  <ref_pdb>  (108) 
A0554a

>  <subsites>  (108) 
None

>  <HIPPO Pose ID>  (108) 
535859

>  <ref_mols>  (108) 
A0554a

>  <HIPPO Compound ID>  (108) 
368077

>  <tags>  (108) 
openbind_a71ev2a_c2_elabs,syndirella_product,openbind_a71ev2a_c2_elabs_fragonly_scored_top80percent,BulkDock Fragalysis export,openbind_a71ev2a_c2_elabs_scored,openbind_a71ev2a_c2_elabs_scored_top80percent,openbind_a71ev2a_c2_elabs_activefrags_only_scored_5.2plus,openbind_a71ev2a_c2_elabs_activefrags_only_scored_5.5plus,syndirella_placed

>  <smina_score_min>  (108) 
-6.616

$$$$
P535864
     RDKit          3D

 21 22  0  0  0  0  0  0  0  0999 V2000
    4.6354   16.8948   26.0257 C   0  0  0  0  0  0  0  0  0  0  0  0
    5.9535   16.6879   26.7521 C   0  0  0  0  0  0  0  0  0  0  0  0
    6.6998   15.6186   26.1488 O   0  0  0  0  0  0  0  0  0  0  0  0
    6.3090   14.3731   26.5296 C   0  0  0  0  0  0  0  0  0  0  0  0
    5.4736   14.1233   27.3892 O   0  0  0  0  0  0  0  0  0  0  0  0
    7.0309   13.3772   25.7792 C   0  0  0  0  0  0  0  0  0  0  0  0
    6.8227   12.0123   25.8138 C   0  0  0  0  0  0  0  0  0  0  0  0
    7.7385   11.3997   24.9292 C   0  0  0  0  0  0  0  0  0  0  0  0
    7.9727   10.0632   24.5714 C   0  0  0  0  0  0  0  0  0  0  0  0
    8.9642    9.7860   23.6389 C   0  0  0  0  0  0  0  0  0  0  0  0
    9.6504   10.8009   23.0181 C   0  0  0  0  0  0  0  0  0  0  0  0
    9.4675   12.1271   23.3715 C   0  0  0  0  0  0  0  0  0  0  0  0
   10.2527   13.0381   22.6991 N   0  0  0  0  0  0  0  0  0  0  0  0
   11.0076   14.2930   23.2146 C   0  0  0  0  0  0  0  0  0  0  0  0
   11.1423   14.7031   24.3026 O   0  0  0  0  0  0  0  0  0  0  0  0
   11.5299   15.0731   21.9597 C   0  0  0  0  0  0  0  0  0  0  0  0
   12.2575   14.2673   20.9165 C   0  0  0  0  0  0  0  0  0  0  0  0
   10.4927   15.6992   21.3268 F   0  0  0  0  0  0  0  0  0  0  0  0
   12.3954   16.0530   22.3472 F   0  0  0  0  0  0  0  0  0  0  0  0
    8.5106   12.4135   24.3509 C   0  0  0  0  0  0  0  0  0  0  0  0
    8.0507   13.6023   24.8764 N   0  0  0  0  0  0  0  0  0  0  0  0
  1  2  1  0
  2  3  1  0
  3  4  1  0
  4  5  2  0
  4  6  1  0
  6  7  2  0
  7  8  1  0
  8  9  2  0
  9 10  1  0
 10 11  2  0
 11 12  1  0
 12 13  1  0
 13 14  1  0
 14 15  2  0
 14 16  1  0
 16 17  1  0
 16 18  1  0
 16 19  1  0
 12 20  2  0
 20 21  1  0
 21  6  1  0
 20  8  1  0
M  END
>  <alias>  (109) 
None

>  <rmsd(smina/fragmenstein)>  (109) 
1.703

>  <smiles>  (109) 
CCOC(=O)c1cc2cccc(NC(=O)C(C)(F)F)c2[nH]1

>  <gnina_score>  (109) 
5.135

>  <inspiration_score>  (109) 
None

>  <energy_score>  (109) 
-15.793977

>  <distance_score>  (109) 
0.602432

>  <gnina_score_min>  (109) 
5.205

>  <inchikey>  (109) 
YTKWIBNBGYYNEX-UHFFFAOYSA-N

>  <exports>  (109) 
['/opt/xchem-fragalysis-2/maxwin/BulkDock/OUTPUTS/openbind_a71ev2a_c2_elabs_1LOUU54.sdf', '/opt/xchem-fragalysis-2/maxwin/BulkDock/OUTPUTS/openbind_a71ev2a_c2_elabs_1LSYIDY.sdf']

>  <name>  (109) 
P535864

>  <ref_pdb>  (109) 
A0554a

>  <subsites>  (109) 
None

>  <HIPPO Pose ID>  (109) 
535864

>  <ref_mols>  (109) 
A0554a

>  <HIPPO Compound ID>  (109) 
368082

>  <tags>  (109) 
openbind_a71ev2a_c2_elabs,syndirella_product,openbind_a71ev2a_c2_elabs_fragonly_scored_top80percent,openbind_a71ev2a_c2_elabs_scored,BulkDock Fragalysis export,openbind_a71ev2a_c2_elabs_scored_top80percent,openbind_a71ev2a_c2_elabs_activefrags_only_scored_5.2plus,syndirella_placed

>  <smina_score_min>  (109) 
-6.764

$$$$
P542791
     RDKit          3D

 19 20  0  0  0  0  0  0  0  0999 V2000
    9.4807    9.2875   23.5035 C   0  0  0  0  0  0  0  0  0  0  0  0
    8.6378   10.2793   24.2578 C   0  0  0  0  0  0  0  0  0  0  0  0
    7.5945    9.7683   24.9546 N   0  0  0  0  0  0  0  0  0  0  0  0
    6.8329   10.6298   25.6631 C   0  0  0  0  0  0  0  0  0  0  0  0
    5.5326    9.8324   26.4410 Cl  0  0  0  0  0  0  0  0  0  0  0  0
    7.0272   12.0058   25.7507 C   0  0  0  0  0  0  0  0  0  0  0  0
    6.1264   12.8923   26.5811 C   0  0  0  0  0  0  0  0  0  0  0  0
    5.8427   12.3605   27.8905 N   0  0  0  0  0  0  0  0  0  0  0  0
    6.6614   12.4250   29.1992 C   0  0  0  0  0  0  0  0  0  0  0  0
    7.7305   12.8528   29.4039 O   0  0  0  0  0  0  0  0  0  0  0  0
    5.8315   11.6823   30.3376 C   0  0  0  0  0  0  0  0  0  0  0  0
    4.4062   12.8979   30.9525 Br  0  0  0  0  0  0  0  0  0  0  0  0
    6.6748   11.0523   31.4958 C   0  0  0  0  0  0  0  0  0  0  0  0
    5.6850    9.8762   31.5185 C   0  0  0  0  0  0  0  0  0  0  0  0
    5.3393   10.2229   30.0607 C   0  0  0  0  0  0  0  0  0  0  0  0
    8.0670   12.5351   24.9534 C   0  0  0  0  0  0  0  0  0  0  0  0
    8.2850   14.0249   24.8766 C   0  0  0  0  0  0  0  0  0  0  0  0
    8.9136   11.6500   24.2468 C   0  0  0  0  0  0  0  0  0  0  0  0
   10.3025   12.2531   23.4083 Cl  0  0  0  0  0  0  0  0  0  0  0  0
  1  2  1  0
  2  3  2  0
  3  4  1  0
  4  5  1  0
  4  6  2  0
  6  7  1  0
  7  8  1  0
  8  9  1  0
  9 10  2  0
  9 11  1  0
 11 12  1  0
 11 13  1  0
 13 14  1  0
 14 15  1  0
  6 16  1  0
 16 17  1  0
 16 18  2  0
 18 19  1  0
 18  2  1  0
 15 11  1  0
M  END
>  <alias>  (110) 
None

>  <rmsd(smina/fragmenstein)>  (110) 
0.763

>  <smiles>  (110) 
Cc1nc(Cl)c(CNC(=O)C2(Br)CCC2)c(C)c1Cl

>  <gnina_score>  (110) 
5.228

>  <inspiration_score>  (110) 
None

>  <energy_score>  (110) 
-19.973042

>  <distance_score>  (110) 
0.788848

>  <gnina_score_min>  (110) 
5.293

>  <inchikey>  (110) 
BNCRPTLDINTADA-UHFFFAOYSA-N

>  <exports>  (110) 
['/opt/xchem-fragalysis-2/maxwin/BulkDock/OUTPUTS/openbind_a71ev2a_c2_elabs_1LOUU54.sdf', '/opt/xchem-fragalysis-2/maxwin/BulkDock/OUTPUTS/openbind_a71ev2a_c2_elabs_1LSYIDY.sdf']

>  <name>  (110) 
P542791

>  <ref_pdb>  (110) 
A0237a

>  <subsites>  (110) 
None

>  <HIPPO Pose ID>  (110) 
542791

>  <ref_mols>  (110) 
A0237a

>  <HIPPO Compound ID>  (110) 
378440

>  <tags>  (110) 
openbind_a71ev2a_c2_elabs,syndirella_product,openbind_a71ev2a_c2_elabs_fragonly_scored_top80percent,openbind_a71ev2a_c2_elabs_scored,BulkDock Fragalysis export,openbind_a71ev2a_c2_elabs_scored_top80percent,openbind_a71ev2a_c2_elabs_activefrags_only_scored_5.2plus,syndirella_placed

>  <smina_score_min>  (110) 
-5.246

$$$$
P542826
     RDKit          3D

 19 20  0  0  0  0  0  0  0  0999 V2000
    9.5354    9.2646   23.4785 C   0  0  0  0  0  0  0  0  0  0  0  0
    8.6961   10.2743   24.2110 C   0  0  0  0  0  0  0  0  0  0  0  0
    7.6515    9.7814   24.9166 N   0  0  0  0  0  0  0  0  0  0  0  0
    6.8832   10.6573   25.6011 C   0  0  0  0  0  0  0  0  0  0  0  0
    5.5992    9.8498   26.3975 Cl  0  0  0  0  0  0  0  0  0  0  0  0
    7.0719   12.0378   25.6492 C   0  0  0  0  0  0  0  0  0  0  0  0
    6.1805   12.9763   26.4362 C   0  0  0  0  0  0  0  0  0  0  0  0
    5.6912   12.4120   27.6604 N   0  0  0  0  0  0  0  0  0  0  0  0
    6.3710   12.2599   29.0353 C   0  0  0  0  0  0  0  0  0  0  0  0
    7.4098   12.6392   29.4125 O   0  0  0  0  0  0  0  0  0  0  0  0
    5.4011   11.3340   29.9096 C   0  0  0  0  0  0  0  0  0  0  0  0
    4.1914   11.2494   29.2847 F   0  0  0  0  0  0  0  0  0  0  0  0
    5.3129   11.6028   31.4302 C   0  0  0  0  0  0  0  0  0  0  0  0
    5.3206   10.0808   31.6487 C   0  0  0  0  0  0  0  0  0  0  0  0
    6.0151    9.9526   30.2866 C   0  0  0  0  0  0  0  0  0  0  0  0
    8.1182   12.5435   24.8449 C   0  0  0  0  0  0  0  0  0  0  0  0
    8.3381   14.0296   24.7226 C   0  0  0  0  0  0  0  0  0  0  0  0
    8.9731   11.6426   24.1716 C   0  0  0  0  0  0  0  0  0  0  0  0
   10.3736   12.2304   23.3438 Cl  0  0  0  0  0  0  0  0  0  0  0  0
  1  2  1  0
  2  3  2  0
  3  4  1  0
  4  5  1  0
  4  6  2  0
  6  7  1  0
  7  8  1  0
  8  9  1  0
  9 10  2  0
  9 11  1  0
 11 12  1  0
 11 13  1  0
 13 14  1  0
 14 15  1  0
  6 16  1  0
 16 17  1  0
 16 18  2  0
 18 19  1  0
 18  2  1  0
 15 11  1  0
M  END
>  <alias>  (111) 
None

>  <rmsd(smina/fragmenstein)>  (111) 
1.14

>  <smiles>  (111) 
Cc1nc(Cl)c(CNC(=O)C2(F)CCC2)c(C)c1Cl

>  <gnina_score>  (111) 
5.176

>  <inspiration_score>  (111) 
None

>  <energy_score>  (111) 
-8.610824

>  <distance_score>  (111) 
0.860681

>  <gnina_score_min>  (111) 
5.221

>  <inchikey>  (111) 
CYAXSGFSJZKNTJ-UHFFFAOYSA-N

>  <exports>  (111) 
['/opt/xchem-fragalysis-2/maxwin/BulkDock/OUTPUTS/openbind_a71ev2a_c2_elabs_1LOUU54.sdf', '/opt/xchem-fragalysis-2/maxwin/BulkDock/OUTPUTS/openbind_a71ev2a_c2_elabs_1LSYIDY.sdf']

>  <name>  (111) 
P542826

>  <ref_pdb>  (111) 
A0237a

>  <subsites>  (111) 
None

>  <HIPPO Pose ID>  (111) 
542826

>  <ref_mols>  (111) 
A0237a

>  <HIPPO Compound ID>  (111) 
378487

>  <tags>  (111) 
openbind_a71ev2a_c2_elabs,syndirella_product,openbind_a71ev2a_c2_elabs_fragonly_scored_top80percent,openbind_a71ev2a_c2_elabs_scored,BulkDock Fragalysis export,openbind_a71ev2a_c2_elabs_scored_top80percent,openbind_a71ev2a_c2_elabs_activefrags_only_scored_5.2plus,syndirella_placed

>  <smina_score_min>  (111) 
-5.283

$$$$
P542873
     RDKit          3D

 19 20  0  0  0  0  0  0  0  0999 V2000
    9.4271    9.2247   23.5261 C   0  0  0  0  0  0  0  0  0  0  0  0
    8.5125   10.1315   24.3067 C   0  0  0  0  0  0  0  0  0  0  0  0
    7.5032    9.5262   24.9941 N   0  0  0  0  0  0  0  0  0  0  0  0
    6.6959   10.3267   25.7024 C   0  0  0  0  0  0  0  0  0  0  0  0
    5.7058    9.6542   26.3582 O   0  0  0  0  0  0  0  0  0  0  0  0
    6.8126   11.7110   25.8265 C   0  0  0  0  0  0  0  0  0  0  0  0
    5.8928   12.4729   26.7521 C   0  0  0  0  0  0  0  0  0  0  0  0
    5.7165   11.7269   27.9676 N   0  0  0  0  0  0  0  0  0  0  0  0
    6.4783   11.7942   29.2995 C   0  0  0  0  0  0  0  0  0  0  0  0
    7.3213   12.5186   29.6525 O   0  0  0  0  0  0  0  0  0  0  0  0
    5.9844   10.5771   30.1458 C   0  0  1  0  0  0  0  0  0  0  0  0
    6.6924   10.2955   31.4924 C   0  0  0  0  0  0  0  0  0  0  0  0
    5.3167    9.9044   32.0798 C   0  0  2  0  0  0  0  0  0  0  0  0
    4.9843    8.4200   32.0963 C   0  0  0  0  0  0  0  0  0  0  0  0
    4.6697   10.7270   30.9408 C   0  0  0  0  0  0  0  0  0  0  0  0
    7.8124   12.3366   25.0546 C   0  0  0  0  0  0  0  0  0  0  0  0
    7.9469   13.8388   25.0467 C   0  0  0  0  0  0  0  0  0  0  0  0
    8.7039   11.5222   24.3246 C   0  0  0  0  0  0  0  0  0  0  0  0
   10.0503   12.2319   23.4975 Cl  0  0  0  0  0  0  0  0  0  0  0  0
  1  2  1  0
  2  3  2  0
  3  4  1  0
  4  5  1  0
  4  6  2  0
  6  7  1  0
  7  8  1  0
  8  9  1  0
  9 10  2  0
 11  9  1  1
 11 12  1  0
 12 13  1  0
 13 14  1  6
 13 15  1  0
  6 16  1  0
 16 17  1  0
 16 18  2  0
 18 19  1  0
 18  2  1  0
 15 11  1  0
M  END
>  <alias>  (112) 
None

>  <rmsd(smina/fragmenstein)>  (112) 
0.585

>  <smiles>  (112) 
Cc1nc(O)c(CNC(=O)[C@H]2C[C@H](C)C2)c(C)c1Cl

>  <gnina_score>  (112) 
5.045

>  <inspiration_score>  (112) 
None

>  <energy_score>  (112) 
-31.039714

>  <distance_score>  (112) 
0.642649

>  <gnina_score_min>  (112) 
5.206

>  <inchikey>  (112) 
XUJVUUMMJFUYHV-GVJMRKKJSA-N

>  <exports>  (112) 
['/opt/xchem-fragalysis-2/maxwin/BulkDock/OUTPUTS/openbind_a71ev2a_c2_elabs_1LOUU54.sdf', '/opt/xchem-fragalysis-2/maxwin/BulkDock/OUTPUTS/openbind_a71ev2a_c2_elabs_1LSYIDY.sdf']

>  <name>  (112) 
P542873

>  <ref_pdb>  (112) 
A0237a

>  <subsites>  (112) 
None

>  <HIPPO Pose ID>  (112) 
542873

>  <ref_mols>  (112) 
A0237a

>  <HIPPO Compound ID>  (112) 
378529

>  <tags>  (112) 
openbind_a71ev2a_c2_elabs,syndirella_product,openbind_a71ev2a_c2_elabs_fragonly_scored_top80percent,openbind_a71ev2a_c2_elabs_scored,BulkDock Fragalysis export,openbind_a71ev2a_c2_elabs_scored_top80percent,openbind_a71ev2a_c2_elabs_activefrags_only_scored_5.2plus,syndirella_placed

>  <smina_score_min>  (112) 
-6.124

$$$$
P542980
     RDKit          3D

 19 20  0  0  0  0  0  0  0  0999 V2000
    9.4675    9.2791   23.5347 C   0  0  0  0  0  0  0  0  0  0  0  0
    8.6273   10.2791   24.2815 C   0  0  0  0  0  0  0  0  0  0  0  0
    7.5859    9.7778   24.9891 N   0  0  0  0  0  0  0  0  0  0  0  0
    6.8195   10.6499   25.6807 C   0  0  0  0  0  0  0  0  0  0  0  0
    5.5269    9.8616   26.4794 Cl  0  0  0  0  0  0  0  0  0  0  0  0
    7.0056   12.0279   25.7382 C   0  0  0  0  0  0  0  0  0  0  0  0
    6.0884   12.9372   26.5244 C   0  0  0  0  0  0  0  0  0  0  0  0
    5.7572   12.4669   27.8465 N   0  0  0  0  0  0  0  0  0  0  0  0
    6.6073   12.4173   29.1375 C   0  0  0  0  0  0  0  0  0  0  0  0
    7.6843   12.8208   29.3517 O   0  0  0  0  0  0  0  0  0  0  0  0
    5.7444   11.6422   30.2628 C   0  0  0  0  0  0  0  0  0  0  0  0
    4.2772   12.6197   30.6929 Cl  0  0  0  0  0  0  0  0  0  0  0  0
    5.4628   10.1272   29.9824 C   0  0  0  0  0  0  0  0  0  0  0  0
    5.7127    9.8545   31.4747 C   0  0  0  0  0  0  0  0  0  0  0  0
    6.5864   11.1183   31.4786 C   0  0  0  0  0  0  0  0  0  0  0  0
    8.0497   12.5440   24.9352 C   0  0  0  0  0  0  0  0  0  0  0  0
    8.2621   14.0332   24.8280 C   0  0  0  0  0  0  0  0  0  0  0  0
    8.9015   11.6492   24.2484 C   0  0  0  0  0  0  0  0  0  0  0  0
   10.2932   12.2395   23.4053 Cl  0  0  0  0  0  0  0  0  0  0  0  0
  1  2  1  0
  2  3  2  0
  3  4  1  0
  4  5  1  0
  4  6  2  0
  6  7  1  0
  7  8  1  0
  8  9  1  0
  9 10  2  0
  9 11  1  0
 11 12  1  0
 11 13  1  0
 13 14  1  0
 14 15  1  0
  6 16  1  0
 16 17  1  0
 16 18  2  0
 18 19  1  0
 18  2  1  0
 15 11  1  0
M  END
>  <alias>  (113) 
None

>  <rmsd(smina/fragmenstein)>  (113) 
0.776

>  <smiles>  (113) 
Cc1nc(Cl)c(CNC(=O)C2(Cl)CCC2)c(C)c1Cl

>  <gnina_score>  (113) 
5.22

>  <inspiration_score>  (113) 
None

>  <energy_score>  (113) 
-18.759742

>  <distance_score>  (113) 
0.78369

>  <gnina_score_min>  (113) 
5.285

>  <inchikey>  (113) 
ULDVBGSAEQYFCT-UHFFFAOYSA-N

>  <exports>  (113) 
['/opt/xchem-fragalysis-2/maxwin/BulkDock/OUTPUTS/openbind_a71ev2a_c2_elabs_1LOUU54.sdf', '/opt/xchem-fragalysis-2/maxwin/BulkDock/OUTPUTS/openbind_a71ev2a_c2_elabs_1LSYIDY.sdf']

>  <name>  (113) 
P542980

>  <ref_pdb>  (113) 
A0237a

>  <subsites>  (113) 
None

>  <HIPPO Pose ID>  (113) 
542980

>  <ref_mols>  (113) 
A0237a

>  <HIPPO Compound ID>  (113) 
378634

>  <tags>  (113) 
openbind_a71ev2a_c2_elabs,syndirella_product,openbind_a71ev2a_c2_elabs_fragonly_scored_top80percent,openbind_a71ev2a_c2_elabs_scored,BulkDock Fragalysis export,openbind_a71ev2a_c2_elabs_scored_top80percent,openbind_a71ev2a_c2_elabs_activefrags_only_scored_5.2plus,syndirella_placed

>  <smina_score_min>  (113) 
-5.283

$$$$
P543037
     RDKit          3D

 19 21  0  0  0  0  0  0  0  0999 V2000
    9.5704    9.3333   23.3712 C   0  0  0  0  0  0  0  0  0  0  0  0
    8.7136   10.2961   24.1442 C   0  0  0  0  0  0  0  0  0  0  0  0
    7.6585    9.7496   24.7889 N   0  0  0  0  0  0  0  0  0  0  0  0
    6.8982   10.5653   25.5428 C   0  0  0  0  0  0  0  0  0  0  0  0
    5.5687    9.7230   26.2178 Cl  0  0  0  0  0  0  0  0  0  0  0  0
    7.1136   11.9276   25.7473 C   0  0  0  0  0  0  0  0  0  0  0  0
    6.2708   12.7268   26.7200 C   0  0  0  0  0  0  0  0  0  0  0  0
    6.0287   11.9588   27.9135 N   0  0  0  0  0  0  0  0  0  0  0  0
    6.7160   12.0056   29.2893 C   0  0  0  0  0  0  0  0  0  0  0  0
    7.5359   12.7262   29.7006 O   0  0  0  0  0  0  0  0  0  0  0  0
    6.1588   10.7573   30.0732 C   0  0  2  0  0  0  0  0  0  0  0  0
    4.8121   10.8712   30.8168 C   0  0  0  0  0  0  0  0  0  0  0  0
    5.4982   10.4466   32.0565 C   0  0  2  0  0  0  0  0  0  0  0  0
    6.6337   11.1968   32.6750 C   0  0  0  0  0  0  0  0  0  0  0  0
    6.8284   10.4746   31.3770 C   0  0  2  0  0  0  0  0  0  0  0  0
    8.1452   12.5078   24.9827 C   0  0  0  0  0  0  0  0  0  0  0  0
    8.3704   13.9971   25.0047 C   0  0  0  0  0  0  0  0  0  0  0  0
    8.9874   11.6665   24.2166 C   0  0  0  0  0  0  0  0  0  0  0  0
   10.3750   12.3269   23.4198 Cl  0  0  0  0  0  0  0  0  0  0  0  0
  1  2  1  0
  2  3  2  0
  3  4  1  0
  4  5  1  0
  4  6  2  0
  6  7  1  0
  7  8  1  0
  8  9  1  0
  9 10  2  0
 11  9  1  1
 11 12  1  0
 13 12  1  6
 13 14  1  0
 15 14  1  1
  6 16  1  0
 16 17  1  0
 16 18  2  0
 18 19  1  0
 18  2  1  0
 15 11  1  0
 15 13  1  0
M  END
>  <alias>  (114) 
None

>  <rmsd(smina/fragmenstein)>  (114) 
0.828

>  <smiles>  (114) 
Cc1nc(Cl)c(CNC(=O)[C@@H]2C[C@@H]3C[C@@H]32)c(C)c1Cl

>  <gnina_score>  (114) 
5.205

>  <inspiration_score>  (114) 
None

>  <energy_score>  (114) 
-9.786257

>  <distance_score>  (114) 
0.716718

>  <gnina_score_min>  (114) 
5.214

>  <inchikey>  (114) 
KKPXQNIUXZHBCU-LPEHRKFASA-N

>  <exports>  (114) 
['/opt/xchem-fragalysis-2/maxwin/BulkDock/OUTPUTS/openbind_a71ev2a_c2_elabs_1LOUU54.sdf', '/opt/xchem-fragalysis-2/maxwin/BulkDock/OUTPUTS/openbind_a71ev2a_c2_elabs_1LSYIDY.sdf']

>  <name>  (114) 
P543037

>  <ref_pdb>  (114) 
A0237a

>  <subsites>  (114) 
None

>  <HIPPO Pose ID>  (114) 
543037

>  <ref_mols>  (114) 
A0237a

>  <HIPPO Compound ID>  (114) 
378686

>  <tags>  (114) 
openbind_a71ev2a_c2_elabs,syndirella_product,openbind_a71ev2a_c2_elabs_fragonly_scored_top80percent,openbind_a71ev2a_c2_elabs_scored,BulkDock Fragalysis export,openbind_a71ev2a_c2_elabs_scored_top80percent,openbind_a71ev2a_c2_elabs_activefrags_only_scored_5.2plus,syndirella_placed

>  <smina_score_min>  (114) 
-4.983

$$$$
P543045
     RDKit          3D

 19 21  0  0  0  0  0  0  0  0999 V2000
    9.4290    9.2232   23.5104 C   0  0  0  0  0  0  0  0  0  0  0  0
    8.5108   10.1230   24.2942 C   0  0  0  0  0  0  0  0  0  0  0  0
    7.4980    9.5108   24.9691 N   0  0  0  0  0  0  0  0  0  0  0  0
    6.6906   10.3017   25.6873 C   0  0  0  0  0  0  0  0  0  0  0  0
    5.6897    9.6293   26.3280 O   0  0  0  0  0  0  0  0  0  0  0  0
    6.8143   11.6840   25.8324 C   0  0  0  0  0  0  0  0  0  0  0  0
    5.9071   12.4286   26.7830 C   0  0  0  0  0  0  0  0  0  0  0  0
    5.7662   11.6606   27.9884 N   0  0  0  0  0  0  0  0  0  0  0  0
    6.4695   11.7977   29.3486 C   0  0  0  0  0  0  0  0  0  0  0  0
    7.2197   12.6035   29.7340 O   0  0  0  0  0  0  0  0  0  0  0  0
    6.0579   10.5158   30.1595 C   0  0  2  0  0  0  0  0  0  0  0  0
    4.7263   10.5284   30.9395 C   0  0  0  0  0  0  0  0  0  0  0  0
    5.4811   10.2051   32.1695 C   0  0  2  0  0  0  0  0  0  0  0  0
    6.5674   11.0648   32.7312 C   0  0  0  0  0  0  0  0  0  0  0  0
    6.7839   10.3216   31.4484 C   0  0  2  0  0  0  0  0  0  0  0  0
    7.8135   12.3194   25.0683 C   0  0  0  0  0  0  0  0  0  0  0  0
    7.9485   13.8213   25.0810 C   0  0  0  0  0  0  0  0  0  0  0  0
    8.7033   11.5134   24.3280 C   0  0  0  0  0  0  0  0  0  0  0  0
   10.0494   12.2318   23.5076 Cl  0  0  0  0  0  0  0  0  0  0  0  0
  1  2  1  0
  2  3  2  0
  3  4  1  0
  4  5  1  0
  4  6  2  0
  6  7  1  0
  7  8  1  0
  8  9  1  0
  9 10  2  0
 11  9  1  1
 11 12  1  0
 13 12  1  6
 13 14  1  0
 15 14  1  1
  6 16  1  0
 16 17  1  0
 16 18  2  0
 18 19  1  0
 18  2  1  0
 15 11  1  0
 15 13  1  0
M  END
>  <alias>  (115) 
None

>  <rmsd(smina/fragmenstein)>  (115) 
0.773

>  <smiles>  (115) 
Cc1nc(O)c(CNC(=O)[C@@H]2C[C@@H]3C[C@@H]32)c(C)c1Cl

>  <gnina_score>  (115) 
5.064

>  <inspiration_score>  (115) 
None

>  <energy_score>  (115) 
-23.908832

>  <distance_score>  (115) 
0.62652

>  <gnina_score_min>  (115) 
5.227

>  <inchikey>  (115) 
PWZDBKKDQNPXSJ-LPEHRKFASA-N

>  <exports>  (115) 
['/opt/xchem-fragalysis-2/maxwin/BulkDock/OUTPUTS/openbind_a71ev2a_c2_elabs_1LOUU54.sdf', '/opt/xchem-fragalysis-2/maxwin/BulkDock/OUTPUTS/openbind_a71ev2a_c2_elabs_1LSYIDY.sdf']

>  <name>  (115) 
P543045

>  <ref_pdb>  (115) 
A0237a

>  <subsites>  (115) 
None

>  <HIPPO Pose ID>  (115) 
543045

>  <ref_mols>  (115) 
A0237a

>  <HIPPO Compound ID>  (115) 
378688

>  <tags>  (115) 
openbind_a71ev2a_c2_elabs,syndirella_product,openbind_a71ev2a_c2_elabs_fragonly_scored_top80percent,openbind_a71ev2a_c2_elabs_scored,BulkDock Fragalysis export,openbind_a71ev2a_c2_elabs_scored_top80percent,openbind_a71ev2a_c2_elabs_activefrags_only_scored_5.2plus,syndirella_placed

>  <smina_score_min>  (115) 
-6.127

$$$$
P543158
     RDKit          3D

 19 20  0  0  0  0  0  0  0  0999 V2000
    4.8875    9.0265   31.8588 C   0  0  0  0  0  0  0  0  0  0  0  0
    5.3946   10.0538   31.1746 C   0  0  0  0  0  0  0  0  0  0  0  0
    4.8173   11.3754   30.7148 C   0  0  0  0  0  0  0  0  0  0  0  0
    6.3041   11.8094   30.5821 C   0  0  0  0  0  0  0  0  0  0  0  0
    6.7917   12.7196   29.4081 C   0  0  0  0  0  0  0  0  0  0  0  0
    7.5840   13.5556   29.6098 O   0  0  0  0  0  0  0  0  0  0  0  0
    6.1170   12.2785   28.0933 N   0  0  0  0  0  0  0  0  0  0  0  0
    6.2015   12.8338   26.7627 C   0  0  0  0  0  0  0  0  0  0  0  0
    7.0450   11.9853   25.8411 C   0  0  0  0  0  0  0  0  0  0  0  0
    6.8225   10.6156   25.7217 C   0  0  0  0  0  0  0  0  0  0  0  0
    5.5344    9.8343   26.5443 Cl  0  0  0  0  0  0  0  0  0  0  0  0
    7.5559    9.7607   24.9784 N   0  0  0  0  0  0  0  0  0  0  0  0
    8.5938   10.2771   24.2736 C   0  0  0  0  0  0  0  0  0  0  0  0
    9.4288    9.2918   23.5008 C   0  0  0  0  0  0  0  0  0  0  0  0
    8.8822   11.6468   24.2816 C   0  0  0  0  0  0  0  0  0  0  0  0
   10.2599   12.2536   23.4264 Cl  0  0  0  0  0  0  0  0  0  0  0  0
    8.0653   12.5255   25.0291 C   0  0  0  0  0  0  0  0  0  0  0  0
    8.2979   14.0142   24.9895 C   0  0  0  0  0  0  0  0  0  0  0  0
    6.7514   10.3246   30.5692 C   0  0  0  0  0  0  0  0  0  0  0  0
  1  2  2  0
  2  3  1  0
  3  4  1  0
  4  5  1  0
  5  6  2  0
  5  7  1  0
  7  8  1  0
  8  9  1  0
  9 10  2  0
 10 11  1  0
 10 12  1  0
 12 13  2  0
 13 14  1  0
 13 15  1  0
 15 16  1  0
 15 17  2  0
 17 18  1  0
  4 19  1  0
 19  2  1  0
 17  9  1  0
M  END
>  <alias>  (116) 
None

>  <rmsd(smina/fragmenstein)>  (116) 
0.407

>  <smiles>  (116) 
C=C1CC(C(=O)NCc2c(Cl)nc(C)c(Cl)c2C)C1

>  <gnina_score>  (116) 
5.125

>  <inspiration_score>  (116) 
None

>  <energy_score>  (116) 
-19.395239

>  <distance_score>  (116) 
0.924693

>  <gnina_score_min>  (116) 
5.21

>  <inchikey>  (116) 
IJEIHRFJKPZVIR-UHFFFAOYSA-N

>  <exports>  (116) 
['/opt/xchem-fragalysis-2/maxwin/BulkDock/OUTPUTS/openbind_a71ev2a_c2_elabs_1LOUU54.sdf', '/opt/xchem-fragalysis-2/maxwin/BulkDock/OUTPUTS/openbind_a71ev2a_c2_elabs_1LSYIDY.sdf']

>  <name>  (116) 
P543158

>  <ref_pdb>  (116) 
A0237a

>  <subsites>  (116) 
None

>  <HIPPO Pose ID>  (116) 
543158

>  <ref_mols>  (116) 
A0237a

>  <HIPPO Compound ID>  (116) 
378793

>  <tags>  (116) 
openbind_a71ev2a_c2_elabs,syndirella_product,openbind_a71ev2a_c2_elabs_fragonly_scored_top80percent,openbind_a71ev2a_c2_elabs_scored,BulkDock Fragalysis export,openbind_a71ev2a_c2_elabs_scored_top80percent,openbind_a71ev2a_c2_elabs_activefrags_only_scored_5.2plus,syndirella_placed

>  <smina_score_min>  (116) 
-5.409

$$$$
P543511
     RDKit          3D

 19 20  0  0  0  0  0  0  0  0999 V2000
    4.8969   16.1833   26.6071 C   0  0  0  0  0  0  0  0  0  0  0  0
    4.1708   15.0652   25.8868 C   0  0  1  0  0  0  0  0  0  0  0  0
    3.8214   15.5628   24.0329 Br  0  0  0  0  0  0  0  0  0  0  0  0
    4.9445   13.7438   25.9284 C   0  0  0  0  0  0  0  0  0  0  0  0
    4.6120   12.8662   26.6322 O   0  0  0  0  0  0  0  0  0  0  0  0
    6.1989   13.8807   25.0010 N   0  0  0  0  0  0  0  0  0  0  0  0
    7.2160   12.9508   24.6909 C   0  0  0  0  0  0  0  0  0  0  0  0
    8.2076   13.4950   23.8465 C   0  0  0  0  0  0  0  0  0  0  0  0
    9.3329   12.7667   23.4543 C   0  0  0  0  0  0  0  0  0  0  0  0
   10.3904   13.3673   22.7532 N   0  0  0  0  0  0  0  0  0  0  0  0
   10.2320   14.3803   21.7364 C   0  0  0  0  0  0  0  0  0  0  0  0
   11.6616   14.7667   21.3896 C   0  0  0  0  0  0  0  0  0  0  0  0
   12.4107   14.3495   22.5344 N   0  0  0  0  0  0  0  0  0  0  0  0
   11.6554   13.5293   23.3540 C   0  0  0  0  0  0  0  0  0  0  0  0
   12.0317   13.1061   24.4339 O   0  0  0  0  0  0  0  0  0  0  0  0
    9.4233   11.4239   23.7944 C   0  0  0  0  0  0  0  0  0  0  0  0
    8.4330   10.8474   24.5826 C   0  0  0  0  0  0  0  0  0  0  0  0
    7.3670   11.6133   25.0863 C   0  0  0  0  0  0  0  0  0  0  0  0
    6.3720   10.7856   26.2129 Cl  0  0  0  0  0  0  0  0  0  0  0  0
  2  1  1  6
  2  3  1  0
  2  4  1  0
  4  5  2  0
  4  6  1  0
  6  7  1  0
  7  8  2  0
  8  9  1  0
  9 10  1  0
 10 11  1  0
 11 12  1  0
 12 13  1  0
 13 14  1  0
 14 15  2  0
  9 16  2  0
 16 17  1  0
 17 18  2  0
 18 19  1  0
 18  7  1  0
 14 10  1  0
M  END
>  <alias>  (117) 
None

>  <rmsd(smina/fragmenstein)>  (117) 
0.815

>  <smiles>  (117) 
C[C@@H](Br)C(=O)Nc1cc(N2CCNC2=O)ccc1Cl

>  <gnina_score>  (117) 
5.063

>  <inspiration_score>  (117) 
None

>  <energy_score>  (117) 
-24.161486

>  <distance_score>  (117) 
1.634923

>  <gnina_score_min>  (117) 
5.218

>  <inchikey>  (117) 
DCBBBGWWGLNJPG-SSDOTTSWSA-N

>  <exports>  (117) 
['/opt/xchem-fragalysis-2/maxwin/BulkDock/OUTPUTS/openbind_a71ev2a_c2_elabs_1LOUU54.sdf', '/opt/xchem-fragalysis-2/maxwin/BulkDock/OUTPUTS/openbind_a71ev2a_c2_elabs_1LSYIDY.sdf']

>  <name>  (117) 
P543511

>  <ref_pdb>  (117) 
A0884a

>  <subsites>  (117) 
None

>  <HIPPO Pose ID>  (117) 
543511

>  <ref_mols>  (117) 
A0884a

>  <HIPPO Compound ID>  (117) 
380543

>  <tags>  (117) 
openbind_a71ev2a_c2_elabs,syndirella_product,openbind_a71ev2a_c2_elabs_fragonly_scored_top80percent,openbind_a71ev2a_c2_elabs_scored,BulkDock Fragalysis export,openbind_a71ev2a_c2_elabs_scored_top80percent,openbind_a71ev2a_c2_elabs_activefrags_only_scored_5.2plus,syndirella_placed

>  <smina_score_min>  (117) 
-6.606

$$$$
P543563
     RDKit          3D

 19 20  0  0  0  0  0  0  0  0999 V2000
    5.0711   11.6101   27.0218 O   0  0  0  0  0  0  0  0  0  0  0  0
    5.3694   12.6913   26.6843 C   0  0  0  0  0  0  0  0  0  0  0  0
    4.6734   13.9367   27.2074 C   0  0  0  0  0  0  0  0  0  0  0  0
    3.3784   14.4975   25.8839 Br  0  0  0  0  0  0  0  0  0  0  0  0
    6.4876   13.1732   25.7077 N   0  0  0  0  0  0  0  0  0  0  0  0
    7.4847   12.4562   25.0505 C   0  0  0  0  0  0  0  0  0  0  0  0
    7.5466   11.0672   25.0697 C   0  0  0  0  0  0  0  0  0  0  0  0
    8.5774   10.4129   24.3897 C   0  0  0  0  0  0  0  0  0  0  0  0
    9.5762   11.1377   23.7366 C   0  0  0  0  0  0  0  0  0  0  0  0
    9.5358   12.5318   23.7298 C   0  0  0  0  0  0  0  0  0  0  0  0
   10.5488   13.2805   23.1120 N   0  0  0  0  0  0  0  0  0  0  0  0
   11.8909   13.1872   23.3593 C   0  0  0  0  0  0  0  0  0  0  0  0
   12.4577   12.4757   24.1756 O   0  0  0  0  0  0  0  0  0  0  0  0
   12.5975   14.1722   22.4507 C   0  0  0  0  0  0  0  0  0  0  0  0
   11.5154   15.0289   22.1346 N   0  0  0  0  0  0  0  0  0  0  0  0
   10.3338   14.3793   22.3431 C   0  0  0  0  0  0  0  0  0  0  0  0
    9.2918   14.7588   21.8482 O   0  0  0  0  0  0  0  0  0  0  0  0
    8.4693   13.1760   24.3682 C   0  0  0  0  0  0  0  0  0  0  0  0
    8.4464   14.5180   24.4544 F   0  0  0  0  0  0  0  0  0  0  0  0
  1  2  2  0
  2  3  1  0
  3  4  1  0
  2  5  1  0
  5  6  1  0
  6  7  2  0
  7  8  1  0
  8  9  2  0
  9 10  1  0
 10 11  1  0
 11 12  1  0
 12 13  2  0
 12 14  1  0
 14 15  1  0
 15 16  1  0
 16 17  2  0
 10 18  2  0
 18 19  1  0
 18  6  1  0
 16 11  1  0
M  END
>  <alias>  (118) 
None

>  <rmsd(smina/fragmenstein)>  (118) 
0.764

>  <smiles>  (118) 
O=C(CBr)Nc1cccc(N2C(=O)CNC2=O)c1F

>  <gnina_score>  (118) 
5.104

>  <inspiration_score>  (118) 
None

>  <energy_score>  (118) 
-29.643291

>  <distance_score>  (118) 
1.592048

>  <gnina_score_min>  (118) 
5.236

>  <inchikey>  (118) 
GXGMUWRQBLMCIW-UHFFFAOYSA-N

>  <exports>  (118) 
['/opt/xchem-fragalysis-2/maxwin/BulkDock/OUTPUTS/openbind_a71ev2a_c2_elabs_1LOUU54.sdf', '/opt/xchem-fragalysis-2/maxwin/BulkDock/OUTPUTS/openbind_a71ev2a_c2_elabs_1LSYIDY.sdf']

>  <name>  (118) 
P543563

>  <ref_pdb>  (118) 
A0884a

>  <subsites>  (118) 
None

>  <HIPPO Pose ID>  (118) 
543563

>  <ref_mols>  (118) 
A0884a

>  <HIPPO Compound ID>  (118) 
380640

>  <tags>  (118) 
openbind_a71ev2a_c2_elabs,syndirella_product,openbind_a71ev2a_c2_elabs_fragonly_scored_top80percent,openbind_a71ev2a_c2_elabs_scored,BulkDock Fragalysis export,openbind_a71ev2a_c2_elabs_scored_top80percent,openbind_a71ev2a_c2_elabs_activefrags_only_scored_5.2plus,syndirella_placed

>  <smina_score_min>  (118) 
-6.883

$$$$
P543581
     RDKit          3D

 19 20  0  0  0  0  0  0  0  0999 V2000
    3.8817   15.0918   28.3776 C   0  0  0  0  0  0  0  0  0  0  0  0
    4.3531   13.9251   27.9185 C   0  0  0  0  0  0  0  0  0  0  0  0
    3.4539   12.4734   28.1819 Cl  0  0  0  0  0  0  0  0  0  0  0  0
    5.6787   13.8856   27.1826 C   0  0  0  0  0  0  0  0  0  0  0  0
    6.3793   14.8211   27.1470 O   0  0  0  0  0  0  0  0  0  0  0  0
    5.8652   12.4656   26.5822 N   0  0  0  0  0  0  0  0  0  0  0  0
    6.8670   11.9559   25.7682 C   0  0  0  0  0  0  0  0  0  0  0  0
    6.9300   10.6045   25.5242 C   0  0  0  0  0  0  0  0  0  0  0  0
    7.9368   10.1069   24.6997 C   0  0  0  0  0  0  0  0  0  0  0  0
    8.9102   10.9244   24.1242 C   0  0  0  0  0  0  0  0  0  0  0  0
   10.0355   10.0893   23.1568 Cl  0  0  0  0  0  0  0  0  0  0  0  0
    8.9302   12.2745   24.4575 C   0  0  0  0  0  0  0  0  0  0  0  0
   10.0157   13.1589   24.2856 N   0  0  0  0  0  0  0  0  0  0  0  0
   10.1609   14.2835   25.1601 C   0  0  0  0  0  0  0  0  0  0  0  0
   11.6360   14.5667   25.0916 C   0  0  0  0  0  0  0  0  0  0  0  0
   11.9261   14.2375   23.7449 N   0  0  0  0  0  0  0  0  0  0  0  0
   11.0382   13.2465   23.3319 C   0  0  0  0  0  0  0  0  0  0  0  0
   11.2162   12.6550   22.2961 O   0  0  0  0  0  0  0  0  0  0  0  0
    7.8432   12.7735   25.2179 C   0  0  0  0  0  0  0  0  0  0  0  0
  1  2  2  0
  2  3  1  0
  2  4  1  0
  4  5  2  0
  4  6  1  0
  6  7  1  0
  7  8  2  0
  8  9  1  0
  9 10  2  0
 10 11  1  0
 10 12  1  0
 12 13  1  0
 13 14  1  0
 14 15  1  0
 15 16  1  0
 16 17  1  0
 17 18  2  0
 12 19  2  0
 19  7  1  0
 17 13  1  0
M  END
>  <alias>  (119) 
None

>  <rmsd(smina/fragmenstein)>  (119) 
1.794

>  <smiles>  (119) 
C=C(Cl)C(=O)Nc1ccc(Cl)c(N2CCNC2=O)c1

>  <gnina_score>  (119) 
4.993

>  <inspiration_score>  (119) 
None

>  <energy_score>  (119) 
-7.974142

>  <distance_score>  (119) 
1.631794

>  <gnina_score_min>  (119) 
5.227

>  <inchikey>  (119) 
OMMVTRSEIJLKQD-UHFFFAOYSA-N

>  <exports>  (119) 
['/opt/xchem-fragalysis-2/maxwin/BulkDock/OUTPUTS/openbind_a71ev2a_c2_elabs_1LOUU54.sdf', '/opt/xchem-fragalysis-2/maxwin/BulkDock/OUTPUTS/openbind_a71ev2a_c2_elabs_1LSYIDY.sdf']

>  <name>  (119) 
P543581

>  <ref_pdb>  (119) 
A0884a

>  <subsites>  (119) 
None

>  <HIPPO Pose ID>  (119) 
543581

>  <ref_mols>  (119) 
A0884a

>  <HIPPO Compound ID>  (119) 
380670

>  <tags>  (119) 
openbind_a71ev2a_c2_elabs,syndirella_product,openbind_a71ev2a_c2_elabs_fragonly_scored_top80percent,openbind_a71ev2a_c2_elabs_scored,BulkDock Fragalysis export,openbind_a71ev2a_c2_elabs_scored_top80percent,openbind_a71ev2a_c2_elabs_activefrags_only_scored_5.2plus,syndirella_placed

>  <smina_score_min>  (119) 
-6.134

$$$$
P543604
     RDKit          3D

 19 20  0  0  0  0  0  0  0  0999 V2000
    4.9195   16.0364   27.1104 C   0  0  0  0  0  0  0  0  0  0  0  0
    4.1076   14.9384   26.4382 C   0  0  1  0  0  0  0  0  0  0  0  0
    3.5109   15.4722   24.7959 S   0  0  0  0  0  0  0  0  0  0  0  0
    4.8926   13.6200   26.3200 C   0  0  0  0  0  0  0  0  0  0  0  0
    4.5551   12.6477   26.8820 O   0  0  0  0  0  0  0  0  0  0  0  0
    6.0798   13.8576   25.3322 N   0  0  0  0  0  0  0  0  0  0  0  0
    7.1031   13.0061   24.9291 C   0  0  0  0  0  0  0  0  0  0  0  0
    7.1013   11.6587   25.2788 C   0  0  0  0  0  0  0  0  0  0  0  0
    8.0656   10.8091   24.7496 C   0  0  0  0  0  0  0  0  0  0  0  0
    9.0643   11.3123   23.9148 C   0  0  0  0  0  0  0  0  0  0  0  0
   10.0520   10.1364   23.1557 Cl  0  0  0  0  0  0  0  0  0  0  0  0
    9.1340   12.6859   23.6222 C   0  0  0  0  0  0  0  0  0  0  0  0
   10.1982   13.2373   22.8632 N   0  0  0  0  0  0  0  0  0  0  0  0
   10.0171   14.2393   21.8316 C   0  0  0  0  0  0  0  0  0  0  0  0
   11.4350   14.6633   21.4756 C   0  0  0  0  0  0  0  0  0  0  0  0
   12.1826   14.3099   22.6432 N   0  0  0  0  0  0  0  0  0  0  0  0
   11.4475   13.4813   23.4765 C   0  0  0  0  0  0  0  0  0  0  0  0
   11.8289   13.1234   24.5780 O   0  0  0  0  0  0  0  0  0  0  0  0
    8.1164   13.5163   24.1089 C   0  0  0  0  0  0  0  0  0  0  0  0
  2  1  1  6
  2  3  1  0
  2  4  1  0
  4  5  2  0
  4  6  1  0
  6  7  1  0
  7  8  2  0
  8  9  1  0
  9 10  2  0
 10 11  1  0
 10 12  1  0
 12 13  1  0
 13 14  1  0
 14 15  1  0
 15 16  1  0
 16 17  1  0
 17 18  2  0
 12 19  2  0
 19  7  1  0
 17 13  1  0
M  END
>  <alias>  (120) 
None

>  <rmsd(smina/fragmenstein)>  (120) 
0.437

>  <smiles>  (120) 
C[C@@H](S)C(=O)Nc1ccc(Cl)c(N2CCNC2=O)c1

>  <gnina_score>  (120) 
5.276

>  <inspiration_score>  (120) 
None

>  <energy_score>  (120) 
-43.195492

>  <distance_score>  (120) 
1.598298

>  <gnina_score_min>  (120) 
5.268

>  <inchikey>  (120) 
HPLDUCFDNDGIMX-SSDOTTSWSA-N

>  <exports>  (120) 
['/opt/xchem-fragalysis-2/maxwin/BulkDock/OUTPUTS/openbind_a71ev2a_c2_elabs_1LOUU54.sdf', '/opt/xchem-fragalysis-2/maxwin/BulkDock/OUTPUTS/openbind_a71ev2a_c2_elabs_1LSYIDY.sdf']

>  <name>  (120) 
P543604

>  <ref_pdb>  (120) 
A0884a

>  <subsites>  (120) 
None

>  <HIPPO Pose ID>  (120) 
543604

>  <ref_mols>  (120) 
A0884a

>  <HIPPO Compound ID>  (120) 
380729

>  <tags>  (120) 
openbind_a71ev2a_c2_elabs,syndirella_product,openbind_a71ev2a_c2_elabs_fragonly_scored_top80percent,openbind_a71ev2a_c2_elabs_scored,BulkDock Fragalysis export,openbind_a71ev2a_c2_elabs_scored_top80percent,openbind_a71ev2a_c2_elabs_activefrags_only_scored_5.2plus,syndirella_placed

>  <smina_score_min>  (120) 
-6.044

$$$$
P543623
     RDKit          3D

 19 19  0  0  0  0  0  0  0  0999 V2000
    7.3563   14.2761   23.3179 C   0  0  0  0  0  0  0  0  0  0  0  0
    8.0012   12.9886   23.7521 C   0  0  0  0  0  0  0  0  0  0  0  0
    7.3682   12.2184   24.7647 C   0  0  0  0  0  0  0  0  0  0  0  0
    6.3495   12.7741   25.5474 N   0  0  0  0  0  0  0  0  0  0  0  0
    5.6393   12.2255   26.8219 C   0  0  0  0  0  0  0  0  0  0  0  0
    5.7449   11.1936   27.3639 O   0  0  0  0  0  0  0  0  0  0  0  0
    4.7346   13.3362   27.3383 C   0  0  0  0  0  0  0  0  0  0  0  0
    5.5213   14.3688   28.1340 C   0  0  0  0  0  0  0  0  0  0  0  0
    6.0340   13.7449   29.7671 S   0  0  0  0  0  0  0  0  0  0  0  0
    7.7483   10.8967   24.9887 C   0  0  0  0  0  0  0  0  0  0  0  0
    8.7870   10.3433   24.2604 C   0  0  0  0  0  0  0  0  0  0  0  0
    9.5182   11.1414   23.3947 C   0  0  0  0  0  0  0  0  0  0  0  0
    9.1693   12.4785   23.1482 C   0  0  0  0  0  0  0  0  0  0  0  0
   10.0963   13.1407   22.3173 N   0  0  0  0  0  0  0  0  0  0  0  0
   10.0997   14.5916   21.7679 C   0  0  0  0  0  0  0  0  0  0  0  0
    9.2997   15.4336   21.8556 O   0  0  0  0  0  0  0  0  0  0  0  0
   11.3544   14.7721   21.1842 N   0  0  0  0  0  0  0  0  0  0  0  0
   11.5868   14.5503   19.7841 C   0  0  0  0  0  0  0  0  0  0  0  0
   12.4479   15.1941   22.0148 C   0  0  0  0  0  0  0  0  0  0  0  0
  1  2  1  0
  2  3  2  0
  3  4  1  0
  4  5  1  0
  5  6  2  0
  5  7  1  0
  7  8  1  0
  8  9  1  0
  3 10  1  0
 10 11  2  0
 11 12  1  0
 12 13  2  0
 13 14  1  0
 14 15  1  0
 15 16  2  0
 15 17  1  0
 17 18  1  0
 17 19  1  0
 13  2  1  0
M  END
>  <alias>  (121) 
None

>  <rmsd(smina/fragmenstein)>  (121) 
1.629

>  <smiles>  (121) 
Cc1c(NC(=O)CCS)cccc1NC(=O)N(C)C

>  <gnina_score>  (121) 
5.299

>  <inspiration_score>  (121) 
None

>  <energy_score>  (121) 
-7.674355

>  <distance_score>  (121) 
1.760249

>  <gnina_score_min>  (121) 
5.251

>  <inchikey>  (121) 
SIJUJDULNMNEEC-UHFFFAOYSA-N

>  <exports>  (121) 
['/opt/xchem-fragalysis-2/maxwin/BulkDock/OUTPUTS/openbind_a71ev2a_c2_elabs_1LOUU54.sdf', '/opt/xchem-fragalysis-2/maxwin/BulkDock/OUTPUTS/openbind_a71ev2a_c2_elabs_1LSYIDY.sdf']

>  <name>  (121) 
P543623

>  <ref_pdb>  (121) 
A0884a

>  <subsites>  (121) 
None

>  <HIPPO Pose ID>  (121) 
543623

>  <ref_mols>  (121) 
A0884a

>  <HIPPO Compound ID>  (121) 
380780

>  <tags>  (121) 
openbind_a71ev2a_c2_elabs,syndirella_product,openbind_a71ev2a_c2_elabs_fragonly_scored_top80percent,openbind_a71ev2a_c2_elabs_scored,BulkDock Fragalysis export,openbind_a71ev2a_c2_elabs_scored_top80percent,openbind_a71ev2a_c2_elabs_activefrags_only_scored_5.2plus,syndirella_placed

>  <smina_score_min>  (121) 
-5.623

$$$$
P543636
     RDKit          3D

 19 20  0  0  0  0  0  0  0  0999 V2000
    3.7192   12.3559   28.3229 C   0  0  0  0  0  0  0  0  0  0  0  0
    5.1502   11.9415   27.9934 C   0  0  1  0  0  0  0  0  0  0  0  0
    5.3954   10.1871   28.4495 S   0  0  0  0  0  0  0  0  0  0  0  0
    5.5329   12.2669   26.5302 C   0  0  0  0  0  0  0  0  0  0  0  0
    5.0216   13.1458   25.9538 O   0  0  0  0  0  0  0  0  0  0  0  0
    6.6977   11.3295   26.1095 N   0  0  0  0  0  0  0  0  0  0  0  0
    7.5032   11.3419   24.9755 C   0  0  0  0  0  0  0  0  0  0  0  0
    8.1637   10.1756   24.6111 C   0  0  0  0  0  0  0  0  0  0  0  0
    9.1778   10.1848   23.6523 C   0  0  0  0  0  0  0  0  0  0  0  0
    9.6123   11.4022   23.1441 C   0  0  0  0  0  0  0  0  0  0  0  0
    8.9969   12.5860   23.5653 C   0  0  0  0  0  0  0  0  0  0  0  0
    9.7894   13.7619   23.6885 N   0  0  0  0  0  0  0  0  0  0  0  0
   10.7963   14.1278   22.7777 C   0  0  0  0  0  0  0  0  0  0  0  0
   10.7908   14.0419   21.5720 O   0  0  0  0  0  0  0  0  0  0  0  0
   11.8634   14.6522   23.4791 N   0  0  0  0  0  0  0  0  0  0  0  0
   11.7401   14.3995   24.8702 C   0  0  0  0  0  0  0  0  0  0  0  0
   10.3259   13.9041   25.0347 C   0  0  1  0  0  0  0  0  0  0  0  0
    9.4376   14.7086   25.9932 C   0  0  0  0  0  0  0  0  0  0  0  0
    7.8398   12.5322   24.3522 C   0  0  0  0  0  0  0  0  0  0  0  0
  2  1  1  6
  2  3  1  0
  2  4  1  0
  4  5  2  0
  4  6  1  0
  6  7  1  0
  7  8  2  0
  8  9  1  0
  9 10  2  0
 10 11  1  0
 11 12  1  0
 12 13  1  0
 13 14  2  0
 13 15  1  0
 15 16  1  0
 16 17  1  0
 17 18  1  1
 11 19  2  0
 19  7  1  0
 17 12  1  0
M  END
>  <alias>  (122) 
None

>  <rmsd(smina/fragmenstein)>  (122) 
1.757

>  <smiles>  (122) 
C[C@@H]1CNC(=O)N1c1cccc(NC(=O)[C@@H](C)S)c1

>  <gnina_score>  (122) 
4.853

>  <inspiration_score>  (122) 
None

>  <energy_score>  (122) 
-0.744605

>  <distance_score>  (122) 
1.124219

>  <gnina_score_min>  (122) 
5.233

>  <inchikey>  (122) 
KCBLRBSIJPQTLL-RKDXNWHRSA-N

>  <exports>  (122) 
['/opt/xchem-fragalysis-2/maxwin/BulkDock/OUTPUTS/openbind_a71ev2a_c2_elabs_1LOUU54.sdf', '/opt/xchem-fragalysis-2/maxwin/BulkDock/OUTPUTS/openbind_a71ev2a_c2_elabs_1LSYIDY.sdf']

>  <name>  (122) 
P543636

>  <ref_pdb>  (122) 
A0884a

>  <subsites>  (122) 
None

>  <HIPPO Pose ID>  (122) 
543636

>  <ref_mols>  (122) 
A0884a

>  <HIPPO Compound ID>  (122) 
380794

>  <tags>  (122) 
openbind_a71ev2a_c2_elabs,syndirella_product,openbind_a71ev2a_c2_elabs_fragonly_scored_top80percent,openbind_a71ev2a_c2_elabs_scored,BulkDock Fragalysis export,openbind_a71ev2a_c2_elabs_scored_top80percent,openbind_a71ev2a_c2_elabs_activefrags_only_scored_5.2plus,syndirella_placed

>  <smina_score_min>  (122) 
-6.669

$$$$
P543641
     RDKit          3D

 19 20  0  0  0  0  0  0  0  0999 V2000
   12.4789   14.5978   21.0949 C   0  0  0  0  0  0  0  0  0  0  0  0
   11.6342   13.6988   21.8133 N   0  0  0  0  0  0  0  0  0  0  0  0
   11.0133   13.8179   23.1447 C   0  0  0  0  0  0  0  0  0  0  0  0
   11.1322   14.6473   23.9595 O   0  0  0  0  0  0  0  0  0  0  0  0
   10.1160   12.6306   23.1103 N   0  0  0  0  0  0  0  0  0  0  0  0
    9.1130   12.2296   23.9809 C   0  0  0  0  0  0  0  0  0  0  0  0
    8.7377   10.9066   24.0910 C   0  0  0  0  0  0  0  0  0  0  0  0
    7.7224   10.5802   24.9927 C   0  0  0  0  0  0  0  0  0  0  0  0
    7.0183   11.5647   25.7164 C   0  0  0  0  0  0  0  0  0  0  0  0
    5.8822   10.9009   27.0865 Br  0  0  0  0  0  0  0  0  0  0  0  0
    7.3102   12.9149   25.5110 C   0  0  0  0  0  0  0  0  0  0  0  0
    6.6270   14.0490   25.9927 N   0  0  0  0  0  0  0  0  0  0  0  0
    5.2784   14.2053   26.4837 C   0  0  0  0  0  0  0  0  0  0  0  0
    4.4190   13.3962   26.6818 O   0  0  0  0  0  0  0  0  0  0  0  0
    5.0153   15.6566   26.7404 C   0  0  0  0  0  0  0  0  0  0  0  0
    3.9998   16.0253   27.4934 C   0  0  0  0  0  0  0  0  0  0  0  0
    3.2919   17.1194   28.0324 C   0  0  0  0  0  0  0  0  0  0  0  0
    2.9045   15.6259   28.2862 C   0  0  0  0  0  0  0  0  0  0  0  0
    8.4137   13.2158   24.6939 C   0  0  0  0  0  0  0  0  0  0  0  0
  1  2  1  0
  2  3  1  0
  3  4  2  0
  3  5  1  0
  5  6  1  0
  6  7  2  0
  7  8  1  0
  8  9  2  0
  9 10  1  0
  9 11  1  0
 11 12  1  0
 12 13  1  0
 13 14  2  0
 13 15  1  0
 15 16  2  3
 16 17  1  0
 17 18  1  0
 11 19  2  0
 19  6  1  0
 18 16  1  0
M  END
>  <alias>  (123) 
None

>  <rmsd(smina/fragmenstein)>  (123) 
1.677

>  <smiles>  (123) 
CNC(=O)Nc1ccc(Br)c(NC(=O)C=C2CC2)c1

>  <gnina_score>  (123) 
5.081

>  <inspiration_score>  (123) 
None

>  <energy_score>  (123) 
-1.156637

>  <distance_score>  (123) 
1.883425

>  <gnina_score_min>  (123) 
5.275

>  <inchikey>  (123) 
VRJXBMHQXRYVII-UHFFFAOYSA-N

>  <exports>  (123) 
['/opt/xchem-fragalysis-2/maxwin/BulkDock/OUTPUTS/openbind_a71ev2a_c2_elabs_1LOUU54.sdf', '/opt/xchem-fragalysis-2/maxwin/BulkDock/OUTPUTS/openbind_a71ev2a_c2_elabs_1LSYIDY.sdf']

>  <name>  (123) 
P543641

>  <ref_pdb>  (123) 
A0884a

>  <subsites>  (123) 
None

>  <HIPPO Pose ID>  (123) 
543641

>  <ref_mols>  (123) 
A0884a

>  <HIPPO Compound ID>  (123) 
380801

>  <tags>  (123) 
openbind_a71ev2a_c2_elabs,syndirella_product,openbind_a71ev2a_c2_elabs_fragonly_scored_top80percent,openbind_a71ev2a_c2_elabs_scored,BulkDock Fragalysis export,openbind_a71ev2a_c2_elabs_scored_top80percent,openbind_a71ev2a_c2_elabs_activefrags_only_scored_5.2plus,syndirella_placed

>  <smina_score_min>  (123) 
-6.187

$$$$
P543647
     RDKit          3D

 19 20  0  0  0  0  0  0  0  0999 V2000
    3.7631   10.6873   29.7354 C   0  0  0  0  0  0  0  0  0  0  0  0
    5.2618   10.7078   28.7231 S   0  0  0  0  0  0  0  0  0  0  0  0
    5.2607   12.4793   28.2809 C   0  0  0  0  0  0  0  0  0  0  0  0
    6.5322   12.8727   27.5286 C   0  0  0  0  0  0  0  0  0  0  0  0
    7.1771   13.8044   27.8253 O   0  0  0  0  0  0  0  0  0  0  0  0
    6.6720   11.8872   26.3246 N   0  0  0  0  0  0  0  0  0  0  0  0
    7.6552   11.7981   25.3339 C   0  0  0  0  0  0  0  0  0  0  0  0
    7.8772   10.5060   24.8416 C   0  0  0  0  0  0  0  0  0  0  0  0
    8.8681   10.2501   23.8994 C   0  0  0  0  0  0  0  0  0  0  0  0
    9.6563   11.2891   23.4419 C   0  0  0  0  0  0  0  0  0  0  0  0
    9.4573   12.5825   23.9273 C   0  0  0  0  0  0  0  0  0  0  0  0
   10.3428   13.6016   23.5279 N   0  0  0  0  0  0  0  0  0  0  0  0
   11.6701   13.6635   24.1002 C   0  0  0  0  0  0  0  0  0  0  0  0
   12.3904   14.6067   23.1595 C   0  0  0  0  0  0  0  0  0  0  0  0
   11.7208   14.4176   21.9292 N   0  0  0  0  0  0  0  0  0  0  0  0
   10.4424   13.9725   22.1785 C   0  0  0  0  0  0  0  0  0  0  0  0
    9.5645   13.9683   21.3387 O   0  0  0  0  0  0  0  0  0  0  0  0
    8.4131   12.8684   24.8339 C   0  0  0  0  0  0  0  0  0  0  0  0
    8.1103   14.3041   25.1628 C   0  0  0  0  0  0  0  0  0  0  0  0
  1  2  1  0
  2  3  1  0
  3  4  1  0
  4  5  2  0
  4  6  1  0
  6  7  1  0
  7  8  2  0
  8  9  1  0
  9 10  2  0
 10 11  1  0
 11 12  1  0
 12 13  1  0
 13 14  1  0
 14 15  1  0
 15 16  1  0
 16 17  2  0
 11 18  2  0
 18 19  1  0
 18  7  1  0
 16 12  1  0
M  END
>  <alias>  (124) 
None

>  <rmsd(smina/fragmenstein)>  (124) 
0.595

>  <smiles>  (124) 
CSCC(=O)Nc1cccc(N2CCNC2=O)c1C

>  <gnina_score>  (124) 
5.214

>  <inspiration_score>  (124) 
None

>  <energy_score>  (124) 
-30.766228

>  <distance_score>  (124) 
1.55085

>  <gnina_score_min>  (124) 
5.221

>  <inchikey>  (124) 
KUZVLMVQSRIGAB-UHFFFAOYSA-N

>  <exports>  (124) 
['/opt/xchem-fragalysis-2/maxwin/BulkDock/OUTPUTS/openbind_a71ev2a_c2_elabs_1LOUU54.sdf', '/opt/xchem-fragalysis-2/maxwin/BulkDock/OUTPUTS/openbind_a71ev2a_c2_elabs_1LSYIDY.sdf']

>  <name>  (124) 
P543647

>  <ref_pdb>  (124) 
A0884a

>  <subsites>  (124) 
None

>  <HIPPO Pose ID>  (124) 
543647

>  <ref_mols>  (124) 
A0884a

>  <HIPPO Compound ID>  (124) 
380821

>  <tags>  (124) 
openbind_a71ev2a_c2_elabs,syndirella_product,openbind_a71ev2a_c2_elabs_fragonly_scored_top80percent,openbind_a71ev2a_c2_elabs_scored,BulkDock Fragalysis export,openbind_a71ev2a_c2_elabs_scored_top80percent,openbind_a71ev2a_c2_elabs_activefrags_only_scored_5.2plus,syndirella_placed

>  <smina_score_min>  (124) 
-6.097

$$$$
P543652
     RDKit          3D

 19 20  0  0  0  0  0  0  0  0999 V2000
    5.7636   11.5488   29.7391 C   0  0  0  0  0  0  0  0  0  0  0  0
    4.5804   12.9144   29.9383 S   0  0  0  0  0  0  0  0  0  0  0  0
    5.1505   14.0479   28.6080 C   0  0  0  0  0  0  0  0  0  0  0  0
    5.2779   13.3085   27.2547 C   0  0  0  0  0  0  0  0  0  0  0  0
    4.3531   12.8320   26.7093 O   0  0  0  0  0  0  0  0  0  0  0  0
    6.7915   13.3207   26.8590 N   0  0  0  0  0  0  0  0  0  0  0  0
    7.4511   12.6982   25.8142 C   0  0  0  0  0  0  0  0  0  0  0  0
    7.1234   11.3770   25.5016 C   0  0  0  0  0  0  0  0  0  0  0  0
    7.9490   10.6645   24.6442 C   0  0  0  0  0  0  0  0  0  0  0  0
    9.0129   11.2884   23.9856 C   0  0  0  0  0  0  0  0  0  0  0  0
    9.9679   10.2973   22.9709 Cl  0  0  0  0  0  0  0  0  0  0  0  0
    9.3089   12.6291   24.2495 C   0  0  0  0  0  0  0  0  0  0  0  0
   10.3896   13.2862   23.6359 N   0  0  0  0  0  0  0  0  0  0  0  0
   11.6303   13.6435   24.2762 C   0  0  0  0  0  0  0  0  0  0  0  0
   12.5187   13.9454   23.0780 C   0  0  0  0  0  0  0  0  0  0  0  0
   11.6060   14.3835   22.0802 N   0  0  0  0  0  0  0  0  0  0  0  0
   10.3613   13.8353   22.3467 C   0  0  0  0  0  0  0  0  0  0  0  0
    9.4425   13.8739   21.5524 O   0  0  0  0  0  0  0  0  0  0  0  0
    8.5456   13.3287   25.1975 C   0  0  0  0  0  0  0  0  0  0  0  0
  1  2  1  0
  2  3  1  0
  3  4  1  0
  4  5  2  0
  4  6  1  0
  6  7  1  0
  7  8  2  0
  8  9  1  0
  9 10  2  0
 10 11  1  0
 10 12  1  0
 12 13  1  0
 13 14  1  0
 14 15  1  0
 15 16  1  0
 16 17  1  0
 17 18  2  0
 12 19  2  0
 19  7  1  0
 17 13  1  0
M  END
>  <alias>  (125) 
None

>  <rmsd(smina/fragmenstein)>  (125) 
0.661

>  <smiles>  (125) 
CSCC(=O)Nc1ccc(Cl)c(N2CCNC2=O)c1

>  <gnina_score>  (125) 
5.321

>  <inspiration_score>  (125) 
None

>  <energy_score>  (125) 
-28.429988

>  <distance_score>  (125) 
1.712641

>  <gnina_score_min>  (125) 
5.264

>  <inchikey>  (125) 
SAHJRVHVNAMVMY-UHFFFAOYSA-N

>  <exports>  (125) 
['/opt/xchem-fragalysis-2/maxwin/BulkDock/OUTPUTS/openbind_a71ev2a_c2_elabs_1LOUU54.sdf', '/opt/xchem-fragalysis-2/maxwin/BulkDock/OUTPUTS/openbind_a71ev2a_c2_elabs_1LSYIDY.sdf']

>  <name>  (125) 
P543652

>  <ref_pdb>  (125) 
A0884a

>  <subsites>  (125) 
None

>  <HIPPO Pose ID>  (125) 
543652

>  <ref_mols>  (125) 
A0884a

>  <HIPPO Compound ID>  (125) 
380835

>  <tags>  (125) 
openbind_a71ev2a_c2_elabs,syndirella_product,openbind_a71ev2a_c2_elabs_fragonly_scored_top80percent,openbind_a71ev2a_c2_elabs_scored,BulkDock Fragalysis export,openbind_a71ev2a_c2_elabs_scored_top80percent,openbind_a71ev2a_c2_elabs_activefrags_only_scored_5.2plus,syndirella_placed

>  <smina_score_min>  (125) 
-5.811

$$$$
P543657
     RDKit          3D

 19 20  0  0  0  0  0  0  0  0999 V2000
    3.5754   14.5337   25.4357 C   0  0  0  0  0  0  0  0  0  0  0  0
    4.4511   14.1828   26.6379 C   0  0  0  0  0  0  0  0  0  0  0  0
    3.5842   14.0372   27.8888 C   0  0  0  0  0  0  0  0  0  0  0  0
    5.2530   12.8924   26.3841 C   0  0  0  0  0  0  0  0  0  0  0  0
    5.0115   11.8700   26.9007 O   0  0  0  0  0  0  0  0  0  0  0  0
    6.3466   13.2605   25.3315 N   0  0  0  0  0  0  0  0  0  0  0  0
    7.3844   12.4932   24.7953 C   0  0  0  0  0  0  0  0  0  0  0  0
    8.3104   13.1732   23.9969 C   0  0  0  0  0  0  0  0  0  0  0  0
    9.4317   12.5231   23.4629 C   0  0  0  0  0  0  0  0  0  0  0  0
   10.4335   13.2653   22.8185 N   0  0  0  0  0  0  0  0  0  0  0  0
   11.8388   13.0542   23.0138 C   0  0  0  0  0  0  0  0  0  0  0  0
   12.3635   14.4657   23.0921 C   0  0  0  0  0  0  0  0  0  0  0  0
   11.4878   15.1701   22.2238 N   0  0  0  0  0  0  0  0  0  0  0  0
   10.2737   14.5095   22.2120 C   0  0  0  0  0  0  0  0  0  0  0  0
    9.2525   15.0125   21.7924 O   0  0  0  0  0  0  0  0  0  0  0  0
    9.5627   11.1479   23.6384 C   0  0  0  0  0  0  0  0  0  0  0  0
    8.6144   10.4503   24.3817 C   0  0  0  0  0  0  0  0  0  0  0  0
    7.5603   11.1259   24.9933 C   0  0  0  0  0  0  0  0  0  0  0  0
    6.7157   10.4039   25.7352 F   0  0  0  0  0  0  0  0  0  0  0  0
  1  2  1  0
  2  3  1  0
  2  4  1  0
  4  5  2  0
  4  6  1  0
  6  7  1  0
  7  8  2  0
  8  9  1  0
  9 10  1  0
 10 11  1  0
 11 12  1  0
 12 13  1  0
 13 14  1  0
 14 15  2  0
  9 16  2  0
 16 17  1  0
 17 18  2  0
 18 19  1  0
 18  7  1  0
 14 10  1  0
M  END
>  <alias>  (126) 
None

>  <rmsd(smina/fragmenstein)>  (126) 
1.137

>  <smiles>  (126) 
CC(C)C(=O)Nc1cc(N2CCNC2=O)ccc1F

>  <gnina_score>  (126) 
5.195

>  <inspiration_score>  (126) 
None

>  <energy_score>  (126) 
-25.67707

>  <distance_score>  (126) 
1.688115

>  <gnina_score_min>  (126) 
5.258

>  <inchikey>  (126) 
NAWAYJKMNIVQBM-UHFFFAOYSA-N

>  <exports>  (126) 
['/opt/xchem-fragalysis-2/maxwin/BulkDock/OUTPUTS/openbind_a71ev2a_c2_elabs_1LOUU54.sdf', '/opt/xchem-fragalysis-2/maxwin/BulkDock/OUTPUTS/openbind_a71ev2a_c2_elabs_1LSYIDY.sdf']

>  <name>  (126) 
P543657

>  <ref_pdb>  (126) 
A0884a

>  <subsites>  (126) 
None

>  <HIPPO Pose ID>  (126) 
543657

>  <ref_mols>  (126) 
A0884a

>  <HIPPO Compound ID>  (126) 
380851

>  <tags>  (126) 
openbind_a71ev2a_c2_elabs,syndirella_product,openbind_a71ev2a_c2_elabs_fragonly_scored_top80percent,openbind_a71ev2a_c2_elabs_scored,BulkDock Fragalysis export,openbind_a71ev2a_c2_elabs_scored_top80percent,openbind_a71ev2a_c2_elabs_activefrags_only_scored_5.2plus,syndirella_placed

>  <smina_score_min>  (126) 
-6.346

$$$$
P543676
     RDKit          3D

 19 20  0  0  0  0  0  0  0  0999 V2000
    5.1911   11.7827   26.9186 O   0  0  0  0  0  0  0  0  0  0  0  0
    5.5715   12.8412   26.5919 C   0  0  0  0  0  0  0  0  0  0  0  0
    4.8312   14.1362   26.9242 C   0  0  0  0  0  0  0  0  0  0  0  0
    5.8841   15.2591   27.8895 S   0  0  0  0  0  0  0  0  0  0  0  0
    6.8104   13.2503   25.7357 N   0  0  0  0  0  0  0  0  0  0  0  0
    7.7381   12.4664   25.0579 C   0  0  0  0  0  0  0  0  0  0  0  0
    7.6538   11.0789   25.0101 C   0  0  0  0  0  0  0  0  0  0  0  0
    8.5860   10.3550   24.2603 C   0  0  0  0  0  0  0  0  0  0  0  0
    9.6072   11.0041   23.5664 C   0  0  0  0  0  0  0  0  0  0  0  0
    9.7214   12.3897   23.6499 C   0  0  0  0  0  0  0  0  0  0  0  0
   10.7685   13.0528   22.9801 N   0  0  0  0  0  0  0  0  0  0  0  0
   11.8234   13.5789   23.6806 C   0  0  0  0  0  0  0  0  0  0  0  0
   12.1946   13.2713   24.8064 O   0  0  0  0  0  0  0  0  0  0  0  0
   12.4147   14.7246   22.8886 C   0  0  0  0  0  0  0  0  0  0  0  0
   11.5594   14.7626   21.7651 N   0  0  0  0  0  0  0  0  0  0  0  0
   10.4913   13.9377   21.9803 C   0  0  0  0  0  0  0  0  0  0  0  0
    9.4348   14.1058   21.3996 O   0  0  0  0  0  0  0  0  0  0  0  0
    8.7815   13.1112   24.3914 C   0  0  0  0  0  0  0  0  0  0  0  0
    8.8918   14.4476   24.4904 F   0  0  0  0  0  0  0  0  0  0  0  0
  1  2  2  0
  2  3  1  0
  3  4  1  0
  2  5  1  0
  5  6  1  0
  6  7  2  0
  7  8  1  0
  8  9  2  0
  9 10  1  0
 10 11  1  0
 11 12  1  0
 12 13  2  0
 12 14  1  0
 14 15  1  0
 15 16  1  0
 16 17  2  0
 10 18  2  0
 18 19  1  0
 18  6  1  0
 16 11  1  0
M  END
>  <alias>  (127) 
None

>  <rmsd(smina/fragmenstein)>  (127) 
0.529

>  <smiles>  (127) 
O=C(CS)Nc1cccc(N2C(=O)CNC2=O)c1F

>  <gnina_score>  (127) 
5.223

>  <inspiration_score>  (127) 
None

>  <energy_score>  (127) 
-35.967696

>  <distance_score>  (127) 
1.589442

>  <gnina_score_min>  (127) 
5.203

>  <inchikey>  (127) 
UDMZKIMKBDFVID-UHFFFAOYSA-N

>  <exports>  (127) 
['/opt/xchem-fragalysis-2/maxwin/BulkDock/OUTPUTS/openbind_a71ev2a_c2_elabs_1LOUU54.sdf', '/opt/xchem-fragalysis-2/maxwin/BulkDock/OUTPUTS/openbind_a71ev2a_c2_elabs_1LSYIDY.sdf']

>  <name>  (127) 
P543676

>  <ref_pdb>  (127) 
A0884a

>  <subsites>  (127) 
None

>  <HIPPO Pose ID>  (127) 
543676

>  <ref_mols>  (127) 
A0884a

>  <HIPPO Compound ID>  (127) 
380897

>  <tags>  (127) 
openbind_a71ev2a_c2_elabs,syndirella_product,openbind_a71ev2a_c2_elabs_fragonly_scored_top80percent,openbind_a71ev2a_c2_elabs_scored,BulkDock Fragalysis export,openbind_a71ev2a_c2_elabs_scored_top80percent,openbind_a71ev2a_c2_elabs_activefrags_only_scored_5.2plus,syndirella_placed

>  <smina_score_min>  (127) 
-6.449

$$$$
P543680
     RDKit          3D

 19 20  0  0  0  0  0  0  0  0999 V2000
    5.0033   11.5697   27.2203 O   0  0  0  0  0  0  0  0  0  0  0  0
    5.4149   12.6555   27.1107 C   0  0  0  0  0  0  0  0  0  0  0  0
    4.7052   13.8201   27.7038 C   0  0  0  0  0  0  0  0  0  0  0  0
    5.1952   14.6701   28.6156 C   0  0  0  0  0  0  0  0  0  0  0  0
    7.0458   14.6261   29.4791 I   0  0  0  0  0  0  0  0  0  0  0  0
    6.6400   13.1900   26.3307 N   0  0  0  0  0  0  0  0  0  0  0  0
    7.5288   12.5325   25.4742 C   0  0  0  0  0  0  0  0  0  0  0  0
    8.4832   13.3365   24.8409 C   0  0  0  0  0  0  0  0  0  0  0  0
    9.4049   12.7882   23.9479 C   0  0  0  0  0  0  0  0  0  0  0  0
   10.3004   13.6723   23.3166 N   0  0  0  0  0  0  0  0  0  0  0  0
   10.5962   13.5477   21.9226 C   0  0  0  0  0  0  0  0  0  0  0  0
   11.7442   14.4984   21.6876 C   0  0  0  0  0  0  0  0  0  0  0  0
   12.4039   14.4370   22.9512 N   0  0  0  0  0  0  0  0  0  0  0  0
   11.5124   14.0396   23.9477 C   0  0  0  0  0  0  0  0  0  0  0  0
   11.7642   13.9969   25.1387 O   0  0  0  0  0  0  0  0  0  0  0  0
    9.3813   11.4168   23.6782 C   0  0  0  0  0  0  0  0  0  0  0  0
    8.4641   10.6024   24.3361 C   0  0  0  0  0  0  0  0  0  0  0  0
    7.5422   11.1600   25.2219 C   0  0  0  0  0  0  0  0  0  0  0  0
    6.6929   10.3260   25.8283 F   0  0  0  0  0  0  0  0  0  0  0  0
  1  2  2  0
  2  3  1  0
  3  4  2  0
  4  5  1  0
  2  6  1  0
  6  7  1  0
  7  8  2  0
  8  9  1  0
  9 10  1  0
 10 11  1  0
 11 12  1  0
 12 13  1  0
 13 14  1  0
 14 15  2  0
  9 16  2  0
 16 17  1  0
 17 18  2  0
 18 19  1  0
 18  7  1  0
 14 10  1  0
M  END
>  <alias>  (128) 
None

>  <rmsd(smina/fragmenstein)>  (128) 
1.234

>  <smiles>  (128) 
O=C(/C=C\I)Nc1cc(N2CCNC2=O)ccc1F

>  <gnina_score>  (128) 
4.884

>  <inspiration_score>  (128) 
None

>  <energy_score>  (128) 
-1.833448

>  <distance_score>  (128) 
1.214886

>  <gnina_score_min>  (128) 
5.278

>  <inchikey>  (128) 
USDXTOBYMXZJGG-ARJAWSKDSA-N

>  <exports>  (128) 
['/opt/xchem-fragalysis-2/maxwin/BulkDock/OUTPUTS/openbind_a71ev2a_c2_elabs_1LOUU54.sdf', '/opt/xchem-fragalysis-2/maxwin/BulkDock/OUTPUTS/openbind_a71ev2a_c2_elabs_1LSYIDY.sdf']

>  <name>  (128) 
P543680

>  <ref_pdb>  (128) 
A0884a

>  <subsites>  (128) 
None

>  <HIPPO Pose ID>  (128) 
543680

>  <ref_mols>  (128) 
A0884a

>  <HIPPO Compound ID>  (128) 
380909

>  <tags>  (128) 
openbind_a71ev2a_c2_elabs,syndirella_product,openbind_a71ev2a_c2_elabs_fragonly_scored_top80percent,openbind_a71ev2a_c2_elabs_scored,BulkDock Fragalysis export,openbind_a71ev2a_c2_elabs_scored_top80percent,openbind_a71ev2a_c2_elabs_activefrags_only_scored_5.2plus,syndirella_placed

>  <smina_score_min>  (128) 
-6.678

$$$$
P543752
     RDKit          3D

 19 20  0  0  0  0  0  0  0  0999 V2000
    4.9429   14.8183   28.9081 C   0  0  0  0  0  0  0  0  0  0  0  0
    5.9834   14.8343   28.0625 C   0  0  0  0  0  0  0  0  0  0  0  0
    6.7846   16.4278   27.5299 Br  0  0  0  0  0  0  0  0  0  0  0  0
    6.5453   13.5103   27.6026 C   0  0  0  0  0  0  0  0  0  0  0  0
    6.5154   12.5685   28.2966 O   0  0  0  0  0  0  0  0  0  0  0  0
    7.0840   13.6772   26.1518 N   0  0  0  0  0  0  0  0  0  0  0  0
    7.7609   12.7703   25.3209 C   0  0  0  0  0  0  0  0  0  0  0  0
    8.7287   13.3166   24.4727 C   0  0  0  0  0  0  0  0  0  0  0  0
    9.5863   12.4854   23.7402 C   0  0  0  0  0  0  0  0  0  0  0  0
   10.6776   13.0265   23.0424 N   0  0  0  0  0  0  0  0  0  0  0  0
   11.8836   13.3773   23.7659 C   0  0  0  0  0  0  0  0  0  0  0  0
   12.3771   14.6392   23.0893 C   0  0  0  0  0  0  0  0  0  0  0  0
   11.5884   14.7695   21.9237 N   0  0  0  0  0  0  0  0  0  0  0  0
   10.4694   13.9858   22.0476 C   0  0  0  0  0  0  0  0  0  0  0  0
    9.4513   14.2002   21.4182 O   0  0  0  0  0  0  0  0  0  0  0  0
    9.4156   11.1059   23.7532 C   0  0  0  0  0  0  0  0  0  0  0  0
    8.3960   10.5579   24.5251 C   0  0  0  0  0  0  0  0  0  0  0  0
    7.5819   11.3796   25.3190 C   0  0  0  0  0  0  0  0  0  0  0  0
    6.3192   10.6097   26.1956 Cl  0  0  0  0  0  0  0  0  0  0  0  0
  1  2  2  0
  2  3  1  0
  2  4  1  0
  4  5  2  0
  4  6  1  0
  6  7  1  0
  7  8  2  0
  8  9  1  0
  9 10  1  0
 10 11  1  0
 11 12  1  0
 12 13  1  0
 13 14  1  0
 14 15  2  0
  9 16  2  0
 16 17  1  0
 17 18  2  0
 18 19  1  0
 18  7  1  0
 14 10  1  0
M  END
>  <alias>  (129) 
None

>  <rmsd(smina/fragmenstein)>  (129) 
0.743

>  <smiles>  (129) 
C=C(Br)C(=O)Nc1cc(N2CCNC2=O)ccc1Cl

>  <gnina_score>  (129) 
5.333

>  <inspiration_score>  (129) 
None

>  <energy_score>  (129) 
-3.780326

>  <distance_score>  (129) 
1.81069

>  <gnina_score_min>  (129) 
5.217

>  <inchikey>  (129) 
BXNSXBCBMVLPSD-UHFFFAOYSA-N

>  <exports>  (129) 
['/opt/xchem-fragalysis-2/maxwin/BulkDock/OUTPUTS/openbind_a71ev2a_c2_elabs_1LOUU54.sdf', '/opt/xchem-fragalysis-2/maxwin/BulkDock/OUTPUTS/openbind_a71ev2a_c2_elabs_1LSYIDY.sdf']

>  <name>  (129) 
P543752

>  <ref_pdb>  (129) 
A0884a

>  <subsites>  (129) 
None

>  <HIPPO Pose ID>  (129) 
543752

>  <ref_mols>  (129) 
A0884a

>  <HIPPO Compound ID>  (129) 
381063

>  <tags>  (129) 
openbind_a71ev2a_c2_elabs,syndirella_product,openbind_a71ev2a_c2_elabs_fragonly_scored_top80percent,openbind_a71ev2a_c2_elabs_scored,BulkDock Fragalysis export,openbind_a71ev2a_c2_elabs_scored_top80percent,openbind_a71ev2a_c2_elabs_activefrags_only_scored_5.2plus,syndirella_placed

>  <smina_score_min>  (129) 
-6.049

$$$$
P543753
     RDKit          3D

 19 20  0  0  0  0  0  0  0  0999 V2000
    3.4608   14.0814   27.4926 C   0  0  0  0  0  0  0  0  0  0  0  0
    4.7002   14.1780   26.9886 C   0  0  0  0  0  0  0  0  0  0  0  0
    5.5596   15.8306   26.8514 Br  0  0  0  0  0  0  0  0  0  0  0  0
    5.4134   12.9005   26.5915 C   0  0  0  0  0  0  0  0  0  0  0  0
    5.1166   11.8692   27.0569 O   0  0  0  0  0  0  0  0  0  0  0  0
    6.5078   13.2565   25.5473 N   0  0  0  0  0  0  0  0  0  0  0  0
    7.4905   12.4580   24.9535 C   0  0  0  0  0  0  0  0  0  0  0  0
    8.4867   13.1100   24.2194 C   0  0  0  0  0  0  0  0  0  0  0  0
    9.5337   12.3827   23.6378 C   0  0  0  0  0  0  0  0  0  0  0  0
   10.6038   13.0378   23.0122 N   0  0  0  0  0  0  0  0  0  0  0  0
   11.8201   13.2936   23.7500 C   0  0  0  0  0  0  0  0  0  0  0  0
   12.3249   14.6039   23.1868 C   0  0  0  0  0  0  0  0  0  0  0  0
   11.5339   14.8515   22.0412 N   0  0  0  0  0  0  0  0  0  0  0  0
   10.4122   14.0626   22.0867 C   0  0  0  0  0  0  0  0  0  0  0  0
    9.4109   14.3133   21.4448 O   0  0  0  0  0  0  0  0  0  0  0  0
    9.5467   10.9941   23.7098 C   0  0  0  0  0  0  0  0  0  0  0  0
    8.5383   10.3399   24.4038 C   0  0  0  0  0  0  0  0  0  0  0  0
    7.5388   11.0671   25.0461 C   0  0  0  0  0  0  0  0  0  0  0  0
    6.6215   10.3735   25.7263 F   0  0  0  0  0  0  0  0  0  0  0  0
  1  2  2  0
  2  3  1  0
  2  4  1  0
  4  5  2  0
  4  6  1  0
  6  7  1  0
  7  8  2  0
  8  9  1  0
  9 10  1  0
 10 11  1  0
 11 12  1  0
 12 13  1  0
 13 14  1  0
 14 15  2  0
  9 16  2  0
 16 17  1  0
 17 18  2  0
 18 19  1  0
 18  7  1  0
 14 10  1  0
M  END
>  <alias>  (130) 
None

>  <rmsd(smina/fragmenstein)>  (130) 
0.819

>  <smiles>  (130) 
C=C(Br)C(=O)Nc1cc(N2CCNC2=O)ccc1F

>  <gnina_score>  (130) 
5.252

>  <inspiration_score>  (130) 
None

>  <energy_score>  (130) 
-13.35136

>  <distance_score>  (130) 
1.593232

>  <gnina_score_min>  (130) 
5.276

>  <inchikey>  (130) 
ARSHTJWTFAEYIQ-UHFFFAOYSA-N

>  <exports>  (130) 
['/opt/xchem-fragalysis-2/maxwin/BulkDock/OUTPUTS/openbind_a71ev2a_c2_elabs_1LOUU54.sdf', '/opt/xchem-fragalysis-2/maxwin/BulkDock/OUTPUTS/openbind_a71ev2a_c2_elabs_1LSYIDY.sdf']

>  <name>  (130) 
P543753

>  <ref_pdb>  (130) 
A0884a

>  <subsites>  (130) 
None

>  <HIPPO Pose ID>  (130) 
543753

>  <ref_mols>  (130) 
A0884a

>  <HIPPO Compound ID>  (130) 
381064

>  <tags>  (130) 
openbind_a71ev2a_c2_elabs,syndirella_product,openbind_a71ev2a_c2_elabs_fragonly_scored_top80percent,openbind_a71ev2a_c2_elabs_scored,BulkDock Fragalysis export,openbind_a71ev2a_c2_elabs_scored_top80percent,openbind_a71ev2a_c2_elabs_activefrags_only_scored_5.2plus,syndirella_placed

>  <smina_score_min>  (130) 
-6.065

$$$$
P543797
     RDKit          3D

 19 20  0  0  0  0  0  0  0  0999 V2000
    4.6779   12.1116   27.0212 O   0  0  0  0  0  0  0  0  0  0  0  0
    4.9543   13.1251   26.5017 C   0  0  0  0  0  0  0  0  0  0  0  0
    4.1799   14.4183   26.7460 C   0  0  0  0  0  0  0  0  0  0  0  0
    2.8924   14.7755   25.1167 I   0  0  0  0  0  0  0  0  0  0  0  0
    6.1434   13.4855   25.5545 N   0  0  0  0  0  0  0  0  0  0  0  0
    7.1361   12.6796   25.0034 C   0  0  0  0  0  0  0  0  0  0  0  0
    7.1994   11.3051   25.2329 C   0  0  0  0  0  0  0  0  0  0  0  0
    8.2243   10.5505   24.6590 C   0  0  0  0  0  0  0  0  0  0  0  0
    9.2238   11.1804   23.9306 C   0  0  0  0  0  0  0  0  0  0  0  0
   10.2226   10.4380   23.4389 F   0  0  0  0  0  0  0  0  0  0  0  0
    9.1925   12.5596   23.7213 C   0  0  0  0  0  0  0  0  0  0  0  0
   10.2874   13.2338   23.1182 N   0  0  0  0  0  0  0  0  0  0  0  0
   11.5151   13.2294   23.8802 C   0  0  0  0  0  0  0  0  0  0  0  0
   12.6815   13.6984   23.0667 C   0  0  0  0  0  0  0  0  0  0  0  0
   12.3742   15.0376   22.4776 C   0  0  0  0  0  0  0  0  0  0  0  0
   11.1091   14.9999   21.8267 N   0  0  0  0  0  0  0  0  0  0  0  0
   10.0770   14.1932   22.1571 C   0  0  0  0  0  0  0  0  0  0  0  0
    9.0159   14.3695   21.5739 O   0  0  0  0  0  0  0  0  0  0  0  0
    8.1134   13.2970   24.2204 C   0  0  0  0  0  0  0  0  0  0  0  0
  1  2  2  0
  2  3  1  0
  3  4  1  0
  2  5  1  0
  5  6  1  0
  6  7  2  0
  7  8  1  0
  8  9  2  0
  9 10  1  0
  9 11  1  0
 11 12  1  0
 12 13  1  0
 13 14  1  0
 14 15  1  0
 15 16  1  0
 16 17  1  0
 17 18  2  0
 11 19  2  0
 19  6  1  0
 17 12  1  0
M  END
>  <alias>  (131) 
None

>  <rmsd(smina/fragmenstein)>  (131) 
1.599

>  <smiles>  (131) 
O=C(CI)Nc1ccc(F)c(N2CCCNC2=O)c1

>  <gnina_score>  (131) 
5.403

>  <inspiration_score>  (131) 
None

>  <energy_score>  (131) 
-42.191211

>  <distance_score>  (131) 
1.86842

>  <gnina_score_min>  (131) 
5.235

>  <inchikey>  (131) 
DSEGUCKSKFDUKU-UHFFFAOYSA-N

>  <exports>  (131) 
['/opt/xchem-fragalysis-2/maxwin/BulkDock/OUTPUTS/openbind_a71ev2a_c2_elabs_1LOUU54.sdf', '/opt/xchem-fragalysis-2/maxwin/BulkDock/OUTPUTS/openbind_a71ev2a_c2_elabs_1LSYIDY.sdf']

>  <name>  (131) 
P543797

>  <ref_pdb>  (131) 
A0884a

>  <subsites>  (131) 
None

>  <HIPPO Pose ID>  (131) 
543797

>  <ref_mols>  (131) 
A0884a

>  <HIPPO Compound ID>  (131) 
381163

>  <tags>  (131) 
openbind_a71ev2a_c2_elabs,syndirella_product,openbind_a71ev2a_c2_elabs_fragonly_scored_top80percent,openbind_a71ev2a_c2_elabs_scored,BulkDock Fragalysis export,openbind_a71ev2a_c2_elabs_scored_top80percent,openbind_a71ev2a_c2_elabs_activefrags_only_scored_5.2plus,syndirella_placed

>  <smina_score_min>  (131) 
-6.41

$$$$
P543841
     RDKit          3D

 19 20  0  0  0  0  0  0  0  0999 V2000
    9.9099   10.1366   23.1515 C   0  0  0  0  0  0  0  0  0  0  0  0
    9.0929   11.1192   23.9313 C   0  0  0  0  0  0  0  0  0  0  0  0
    8.0299   10.6095   24.6868 C   0  0  0  0  0  0  0  0  0  0  0  0
    7.1720   11.4559   25.3854 C   0  0  0  0  0  0  0  0  0  0  0  0
    7.3723   12.8303   25.3464 C   0  0  0  0  0  0  0  0  0  0  0  0
    6.4992   13.7172   25.9678 N   0  0  0  0  0  0  0  0  0  0  0  0
    5.2241   13.4479   26.8337 C   0  0  0  0  0  0  0  0  0  0  0  0
    4.6768   12.4425   27.0873 O   0  0  0  0  0  0  0  0  0  0  0  0
    4.7109   14.8044   27.2879 C   0  0  0  0  0  0  0  0  0  0  0  0
    5.9533   15.4919   28.6140 Br  0  0  0  0  0  0  0  0  0  0  0  0
    8.4766   13.3473   24.6672 C   0  0  0  0  0  0  0  0  0  0  0  0
    9.3594   12.4993   23.9821 C   0  0  0  0  0  0  0  0  0  0  0  0
   10.5310   13.0338   23.3965 N   0  0  0  0  0  0  0  0  0  0  0  0
   11.4353   13.7671   24.1206 C   0  0  0  0  0  0  0  0  0  0  0  0
   11.4939   13.9162   25.3358 O   0  0  0  0  0  0  0  0  0  0  0  0
   12.3492   14.4969   23.1612 C   0  0  0  0  0  0  0  0  0  0  0  0
   11.7183   14.2310   21.9269 N   0  0  0  0  0  0  0  0  0  0  0  0
   10.5034   13.6455   22.1780 C   0  0  0  0  0  0  0  0  0  0  0  0
    9.5472   13.8581   21.4552 O   0  0  0  0  0  0  0  0  0  0  0  0
  1  2  1  0
  2  3  2  0
  3  4  1  0
  4  5  2  0
  5  6  1  0
  6  7  1  0
  7  8  2  0
  7  9  1  0
  9 10  1  0
  5 11  1  0
 11 12  2  0
 12 13  1  0
 13 14  1  0
 14 15  2  0
 14 16  1  0
 16 17  1  0
 17 18  1  0
 18 19  2  0
 12  2  1  0
 18 13  1  0
M  END
>  <alias>  (132) 
None

>  <rmsd(smina/fragmenstein)>  (132) 
0.961

>  <smiles>  (132) 
Cc1ccc(NC(=O)CBr)cc1N1C(=O)CNC1=O

>  <gnina_score>  (132) 
5.205

>  <inspiration_score>  (132) 
None

>  <energy_score>  (132) 
-11.219986

>  <distance_score>  (132) 
1.763484

>  <gnina_score_min>  (132) 
5.215

>  <inchikey>  (132) 
GAGXCWNOZBAZNR-UHFFFAOYSA-N

>  <exports>  (132) 
['/opt/xchem-fragalysis-2/maxwin/BulkDock/OUTPUTS/openbind_a71ev2a_c2_elabs_1LOUU54.sdf', '/opt/xchem-fragalysis-2/maxwin/BulkDock/OUTPUTS/openbind_a71ev2a_c2_elabs_1LSYIDY.sdf']

>  <name>  (132) 
P543841

>  <ref_pdb>  (132) 
A0884a

>  <subsites>  (132) 
None

>  <HIPPO Pose ID>  (132) 
543841

>  <ref_mols>  (132) 
A0884a

>  <HIPPO Compound ID>  (132) 
381243

>  <tags>  (132) 
openbind_a71ev2a_c2_elabs,syndirella_product,openbind_a71ev2a_c2_elabs_fragonly_scored_top80percent,openbind_a71ev2a_c2_elabs_scored,BulkDock Fragalysis export,openbind_a71ev2a_c2_elabs_scored_top80percent,openbind_a71ev2a_c2_elabs_activefrags_only_scored_5.2plus,syndirella_placed

>  <smina_score_min>  (132) 
-6.507

$$$$
P543888
     RDKit          3D

 19 20  0  0  0  0  0  0  0  0999 V2000
    3.0015   14.4686   25.2652 C   0  0  0  0  0  0  0  0  0  0  0  0
    4.1677   15.1685   25.9438 C   0  0  0  0  0  0  0  0  0  0  0  0
    4.7989   14.3310   27.0538 C   0  0  0  0  0  0  0  0  0  0  0  0
    5.4703   13.0410   26.5834 C   0  0  0  0  0  0  0  0  0  0  0  0
    5.0739   11.9783   26.8724 O   0  0  0  0  0  0  0  0  0  0  0  0
    6.7306   13.4615   25.7674 N   0  0  0  0  0  0  0  0  0  0  0  0
    7.6681   12.6865   25.0883 C   0  0  0  0  0  0  0  0  0  0  0  0
    7.6223   11.2927   25.0799 C   0  0  0  0  0  0  0  0  0  0  0  0
    8.5649   10.5697   24.3436 C   0  0  0  0  0  0  0  0  0  0  0  0
    9.5660   11.2353   23.6372 C   0  0  0  0  0  0  0  0  0  0  0  0
    9.6390   12.6272   23.6797 C   0  0  0  0  0  0  0  0  0  0  0  0
   10.6371   13.2785   22.9281 N   0  0  0  0  0  0  0  0  0  0  0  0
   10.2415   14.1275   21.8745 C   0  0  0  0  0  0  0  0  0  0  0  0
    9.1854   14.1401   21.2761 O   0  0  0  0  0  0  0  0  0  0  0  0
   11.2598   15.0224   21.6157 N   0  0  0  0  0  0  0  0  0  0  0  0
   12.4079   14.6292   22.3466 C   0  0  0  0  0  0  0  0  0  0  0  0
   11.7607   13.9581   23.5437 C   0  0  2  0  0  0  0  0  0  0  0  0
   12.7066   13.0923   24.3088 C   0  0  0  0  0  0  0  0  0  0  0  0
    8.6781   13.3509   24.3885 C   0  0  0  0  0  0  0  0  0  0  0  0
  1  2  1  0
  2  3  1  0
  3  4  1  0
  4  5  2  0
  4  6  1  0
  6  7  1  0
  7  8  2  0
  8  9  1  0
  9 10  2  0
 10 11  1  0
 11 12  1  0
 12 13  1  0
 13 14  2  0
 13 15  1  0
 15 16  1  0
 16 17  1  0
 17 18  1  6
 11 19  2  0
 19  7  1  0
 17 12  1  0
M  END
>  <alias>  (133) 
None

>  <rmsd(smina/fragmenstein)>  (133) 
0.565

>  <smiles>  (133) 
CCCC(=O)Nc1cccc(N2C(=O)NC[C@@H]2C)c1

>  <gnina_score>  (133) 
5.355

>  <inspiration_score>  (133) 
None

>  <energy_score>  (133) 
-41.384299

>  <distance_score>  (133) 
1.745795

>  <gnina_score_min>  (133) 
5.258

>  <inchikey>  (133) 
XMKHUXKVYGHSSY-JTQLQIEISA-N

>  <exports>  (133) 
['/opt/xchem-fragalysis-2/maxwin/BulkDock/OUTPUTS/openbind_a71ev2a_c2_elabs_1LOUU54.sdf', '/opt/xchem-fragalysis-2/maxwin/BulkDock/OUTPUTS/openbind_a71ev2a_c2_elabs_1LSYIDY.sdf']

>  <name>  (133) 
P543888

>  <ref_pdb>  (133) 
A0884a

>  <subsites>  (133) 
None

>  <HIPPO Pose ID>  (133) 
543888

>  <ref_mols>  (133) 
A0884a

>  <HIPPO Compound ID>  (133) 
381340

>  <tags>  (133) 
openbind_a71ev2a_c2_elabs,syndirella_product,openbind_a71ev2a_c2_elabs_fragonly_scored_top80percent,openbind_a71ev2a_c2_elabs_scored,BulkDock Fragalysis export,openbind_a71ev2a_c2_elabs_scored_top80percent,openbind_a71ev2a_c2_elabs_activefrags_only_scored_5.2plus,syndirella_placed

>  <smina_score_min>  (133) 
-6.473

$$$$
P543908
     RDKit          3D

 19 20  0  0  0  0  0  0  0  0999 V2000
    2.5002   14.7151   24.8008 C   0  0  0  0  0  0  0  0  0  0  0  0
    3.6618   15.5977   25.2326 C   0  0  0  0  0  0  0  0  0  0  0  0
    4.3155   15.1179   26.5265 C   0  0  0  0  0  0  0  0  0  0  0  0
    5.0093   13.7644   26.3949 C   0  0  0  0  0  0  0  0  0  0  0  0
    4.6179   12.7946   26.9216 O   0  0  0  0  0  0  0  0  0  0  0  0
    6.2654   13.9903   25.4971 N   0  0  0  0  0  0  0  0  0  0  0  0
    7.2020   13.0835   25.0090 C   0  0  0  0  0  0  0  0  0  0  0  0
    7.1133   11.7212   25.2833 C   0  0  0  0  0  0  0  0  0  0  0  0
    8.0364   10.8414   24.7257 C   0  0  0  0  0  0  0  0  0  0  0  0
    9.0605   11.3210   23.9069 C   0  0  0  0  0  0  0  0  0  0  0  0
   10.0195   10.1270   23.1387 Cl  0  0  0  0  0  0  0  0  0  0  0  0
    9.1941   12.6980   23.6598 C   0  0  0  0  0  0  0  0  0  0  0  0
   10.2666   13.2222   22.8942 N   0  0  0  0  0  0  0  0  0  0  0  0
   10.0845   14.1989   21.8379 C   0  0  0  0  0  0  0  0  0  0  0  0
   11.5042   14.6165   21.4837 C   0  0  0  0  0  0  0  0  0  0  0  0
   12.2203   14.3582   22.6950 N   0  0  0  0  0  0  0  0  0  0  0  0
   11.4950   13.5180   23.5277 C   0  0  0  0  0  0  0  0  0  0  0  0
   11.8671   13.1838   24.6393 O   0  0  0  0  0  0  0  0  0  0  0  0
    8.2415   13.5669   24.2071 C   0  0  0  0  0  0  0  0  0  0  0  0
  1  2  1  0
  2  3  1  0
  3  4  1  0
  4  5  2  0
  4  6  1  0
  6  7  1  0
  7  8  2  0
  8  9  1  0
  9 10  2  0
 10 11  1  0
 10 12  1  0
 12 13  1  0
 13 14  1  0
 14 15  1  0
 15 16  1  0
 16 17  1  0
 17 18  2  0
 12 19  2  0
 19  7  1  0
 17 13  1  0
M  END
>  <alias>  (134) 
None

>  <rmsd(smina/fragmenstein)>  (134) 
0.44

>  <smiles>  (134) 
CCCC(=O)Nc1ccc(Cl)c(N2CCNC2=O)c1

>  <gnina_score>  (134) 
5.231

>  <inspiration_score>  (134) 
None

>  <energy_score>  (134) 
-32.042966

>  <distance_score>  (134) 
1.604053

>  <gnina_score_min>  (134) 
5.23

>  <inchikey>  (134) 
YLVFWOGZEUZPNF-UHFFFAOYSA-N

>  <exports>  (134) 
['/opt/xchem-fragalysis-2/maxwin/BulkDock/OUTPUTS/openbind_a71ev2a_c2_elabs_1LOUU54.sdf', '/opt/xchem-fragalysis-2/maxwin/BulkDock/OUTPUTS/openbind_a71ev2a_c2_elabs_1LSYIDY.sdf']

>  <name>  (134) 
P543908

>  <ref_pdb>  (134) 
A0884a

>  <subsites>  (134) 
None

>  <HIPPO Pose ID>  (134) 
543908

>  <ref_mols>  (134) 
A0884a

>  <HIPPO Compound ID>  (134) 
381392

>  <tags>  (134) 
openbind_a71ev2a_c2_elabs,syndirella_product,openbind_a71ev2a_c2_elabs_fragonly_scored_top80percent,openbind_a71ev2a_c2_elabs_scored,BulkDock Fragalysis export,openbind_a71ev2a_c2_elabs_scored_top80percent,openbind_a71ev2a_c2_elabs_activefrags_only_scored_5.2plus,syndirella_placed

>  <smina_score_min>  (134) 
-5.927

$$$$
P543931
     RDKit          3D

 19 20  0  0  0  0  0  0  0  0999 V2000
    4.8010   16.1745   26.2738 C   0  0  0  0  0  0  0  0  0  0  0  0
    4.1579   15.0307   25.9937 C   0  0  0  0  0  0  0  0  0  0  0  0
    2.7069   14.9461   25.6431 C   0  0  0  0  0  0  0  0  0  0  0  0
    4.8752   13.7171   26.0647 C   0  0  0  0  0  0  0  0  0  0  0  0
    4.4469   12.8164   26.6731 O   0  0  0  0  0  0  0  0  0  0  0  0
    6.1233   13.8076   25.1435 N   0  0  0  0  0  0  0  0  0  0  0  0
    7.1283   12.8562   24.8651 C   0  0  0  0  0  0  0  0  0  0  0  0
    8.1685   13.3753   24.0683 C   0  0  0  0  0  0  0  0  0  0  0  0
    9.2815   12.6114   23.7008 C   0  0  0  0  0  0  0  0  0  0  0  0
   10.4144   13.2156   23.1358 N   0  0  0  0  0  0  0  0  0  0  0  0
   11.6992   13.1245   23.7847 C   0  0  0  0  0  0  0  0  0  0  0  0
   12.5741   13.9226   22.8524 C   0  0  0  0  0  0  0  0  0  0  0  0
   11.6849   14.9395   22.4202 N   0  0  0  0  0  0  0  0  0  0  0  0
   10.4159   14.3892   22.3709 C   0  0  0  0  0  0  0  0  0  0  0  0
    9.5006   14.8822   21.7447 O   0  0  0  0  0  0  0  0  0  0  0  0
    9.2911   11.2530   23.9794 C   0  0  0  0  0  0  0  0  0  0  0  0
    8.2574   10.7077   24.7322 C   0  0  0  0  0  0  0  0  0  0  0  0
    7.2260   11.5128   25.2489 C   0  0  0  0  0  0  0  0  0  0  0  0
    6.2153   10.7234   26.3897 Cl  0  0  0  0  0  0  0  0  0  0  0  0
  1  2  2  0
  2  3  1  0
  2  4  1  0
  4  5  2  0
  4  6  1  0
  6  7  1  0
  7  8  2  0
  8  9  1  0
  9 10  1  0
 10 11  1  0
 11 12  1  0
 12 13  1  0
 13 14  1  0
 14 15  2  0
  9 16  2  0
 16 17  1  0
 17 18  2  0
 18 19  1  0
 18  7  1  0
 14 10  1  0
M  END
>  <alias>  (135) 
None

>  <rmsd(smina/fragmenstein)>  (135) 
1.264

>  <smiles>  (135) 
C=C(C)C(=O)Nc1cc(N2CCNC2=O)ccc1Cl

>  <gnina_score>  (135) 
5.214

>  <inspiration_score>  (135) 
None

>  <energy_score>  (135) 
-7.12049

>  <distance_score>  (135) 
1.914697

>  <gnina_score_min>  (135) 
5.287

>  <inchikey>  (135) 
PKIBGYAQMOFVQN-UHFFFAOYSA-N

>  <exports>  (135) 
['/opt/xchem-fragalysis-2/maxwin/BulkDock/OUTPUTS/openbind_a71ev2a_c2_elabs_1LOUU54.sdf', '/opt/xchem-fragalysis-2/maxwin/BulkDock/OUTPUTS/openbind_a71ev2a_c2_elabs_1LSYIDY.sdf']

>  <name>  (135) 
P543931

>  <ref_pdb>  (135) 
A0884a

>  <subsites>  (135) 
None

>  <HIPPO Pose ID>  (135) 
543931

>  <ref_mols>  (135) 
A0884a

>  <HIPPO Compound ID>  (135) 
381469

>  <tags>  (135) 
openbind_a71ev2a_c2_elabs,syndirella_product,openbind_a71ev2a_c2_elabs_fragonly_scored_top80percent,openbind_a71ev2a_c2_elabs_scored,BulkDock Fragalysis export,openbind_a71ev2a_c2_elabs_scored_top80percent,openbind_a71ev2a_c2_elabs_activefrags_only_scored_5.2plus,syndirella_placed

>  <smina_score_min>  (135) 
-6.796

$$$$
P543972
     RDKit          3D

 19 20  0  0  0  0  0  0  0  0999 V2000
    3.7003   14.8277   28.1672 C   0  0  0  0  0  0  0  0  0  0  0  0
    4.6178   14.7418   27.1951 C   0  0  0  0  0  0  0  0  0  0  0  0
    5.1881   13.4106   26.8127 C   0  0  0  0  0  0  0  0  0  0  0  0
    4.7329   12.3999   27.1823 O   0  0  0  0  0  0  0  0  0  0  0  0
    6.3986   13.6877   25.8810 N   0  0  0  0  0  0  0  0  0  0  0  0
    7.3201   12.8125   25.3110 C   0  0  0  0  0  0  0  0  0  0  0  0
    7.1479   11.4345   25.3715 C   0  0  0  0  0  0  0  0  0  0  0  0
    8.0257   10.5936   24.6921 C   0  0  0  0  0  0  0  0  0  0  0  0
    9.0850   11.1119   23.9385 C   0  0  0  0  0  0  0  0  0  0  0  0
    9.9140   10.1357   23.1636 C   0  0  0  0  0  0  0  0  0  0  0  0
    9.3318   12.4961   23.9799 C   0  0  0  0  0  0  0  0  0  0  0  0
   10.5077   13.0357   23.4089 N   0  0  0  0  0  0  0  0  0  0  0  0
   11.3974   13.7760   24.1435 C   0  0  0  0  0  0  0  0  0  0  0  0
   11.4303   13.9415   25.3574 O   0  0  0  0  0  0  0  0  0  0  0  0
   12.3341   14.4889   23.1933 C   0  0  0  0  0  0  0  0  0  0  0  0
   11.7201   14.2212   21.9505 N   0  0  0  0  0  0  0  0  0  0  0  0
   10.4991   13.6414   22.1874 C   0  0  0  0  0  0  0  0  0  0  0  0
    9.5544   13.8531   21.4494 O   0  0  0  0  0  0  0  0  0  0  0  0
    8.4259   13.3395   24.6410 C   0  0  0  0  0  0  0  0  0  0  0  0
  1  2  2  0
  2  3  1  0
  3  4  2  0
  3  5  1  0
  5  6  1  0
  6  7  2  0
  7  8  1  0
  8  9  2  0
  9 10  1  0
  9 11  1  0
 11 12  1  0
 12 13  1  0
 13 14  2  0
 13 15  1  0
 15 16  1  0
 16 17  1  0
 17 18  2  0
 11 19  2  0
 19  6  1  0
 17 12  1  0
M  END
>  <alias>  (136) 
None

>  <rmsd(smina/fragmenstein)>  (136) 
1.144

>  <smiles>  (136) 
C=CC(=O)Nc1ccc(C)c(N2C(=O)CNC2=O)c1

>  <gnina_score>  (136) 
5.178

>  <inspiration_score>  (136) 
None

>  <energy_score>  (136) 
-33.912646

>  <distance_score>  (136) 
1.759386

>  <gnina_score_min>  (136) 
5.216

>  <inchikey>  (136) 
ZSKXAYCWBQYXRP-UHFFFAOYSA-N

>  <exports>  (136) 
['/opt/xchem-fragalysis-2/maxwin/BulkDock/OUTPUTS/openbind_a71ev2a_c2_elabs_1LOUU54.sdf', '/opt/xchem-fragalysis-2/maxwin/BulkDock/OUTPUTS/openbind_a71ev2a_c2_elabs_1LSYIDY.sdf']

>  <name>  (136) 
P543972

>  <ref_pdb>  (136) 
A0884a

>  <subsites>  (136) 
None

>  <HIPPO Pose ID>  (136) 
543972

>  <ref_mols>  (136) 
A0884a

>  <HIPPO Compound ID>  (136) 
381581

>  <tags>  (136) 
openbind_a71ev2a_c2_elabs,syndirella_product,openbind_a71ev2a_c2_elabs_fragonly_scored_top80percent,openbind_a71ev2a_c2_elabs_scored,BulkDock Fragalysis export,openbind_a71ev2a_c2_elabs_scored_top80percent,openbind_a71ev2a_c2_elabs_activefrags_only_scored_5.2plus,syndirella_placed

>  <smina_score_min>  (136) 
-6.604

$$$$
P544021
     RDKit          3D

 19 20  0  0  0  0  0  0  0  0999 V2000
    3.5932   16.2685   23.7452 C   0  0  0  0  0  0  0  0  0  0  0  0
    3.4564   15.2624   24.6186 C   0  0  0  0  0  0  0  0  0  0  0  0
    4.2456   15.1359   25.8894 C   0  0  0  0  0  0  0  0  0  0  0  0
    4.9552   13.7792   25.9275 C   0  0  0  0  0  0  0  0  0  0  0  0
    4.5527   12.8623   26.5363 O   0  0  0  0  0  0  0  0  0  0  0  0
    6.1948   13.9014   24.9791 N   0  0  0  0  0  0  0  0  0  0  0  0
    7.2122   12.9697   24.6750 C   0  0  0  0  0  0  0  0  0  0  0  0
    8.2009   13.5071   23.8225 C   0  0  0  0  0  0  0  0  0  0  0  0
    9.3302   12.7797   23.4401 C   0  0  0  0  0  0  0  0  0  0  0  0
   10.3884   13.3789   22.7382 N   0  0  0  0  0  0  0  0  0  0  0  0
   10.2325   14.3968   21.7248 C   0  0  0  0  0  0  0  0  0  0  0  0
   11.6618   14.7863   21.3803 C   0  0  0  0  0  0  0  0  0  0  0  0
   12.4169   14.3421   22.5118 N   0  0  0  0  0  0  0  0  0  0  0  0
   11.6585   13.5259   23.3315 C   0  0  0  0  0  0  0  0  0  0  0  0
   12.0372   13.0938   24.4073 O   0  0  0  0  0  0  0  0  0  0  0  0
    9.4239   11.4406   23.7936 C   0  0  0  0  0  0  0  0  0  0  0  0
    8.4356   10.8691   24.5880 C   0  0  0  0  0  0  0  0  0  0  0  0
    7.3685   11.6373   25.0861 C   0  0  0  0  0  0  0  0  0  0  0  0
    6.3798   10.8176   26.2248 Cl  0  0  0  0  0  0  0  0  0  0  0  0
  1  2  2  0
  2  3  1  0
  3  4  1  0
  4  5  2  0
  4  6  1  0
  6  7  1  0
  7  8  2  0
  8  9  1  0
  9 10  1  0
 10 11  1  0
 11 12  1  0
 12 13  1  0
 13 14  1  0
 14 15  2  0
  9 16  2  0
 16 17  1  0
 17 18  2  0
 18 19  1  0
 18  7  1  0
 14 10  1  0
M  END
>  <alias>  (137) 
None

>  <rmsd(smina/fragmenstein)>  (137) 
1.064

>  <smiles>  (137) 
C=CCC(=O)Nc1cc(N2CCNC2=O)ccc1Cl

>  <gnina_score>  (137) 
5.019

>  <inspiration_score>  (137) 
None

>  <energy_score>  (137) 
-23.7828

>  <distance_score>  (137) 
1.653323

>  <gnina_score_min>  (137) 
5.205

>  <inchikey>  (137) 
JQJHUGSPUIIBON-UHFFFAOYSA-N

>  <exports>  (137) 
['/opt/xchem-fragalysis-2/maxwin/BulkDock/OUTPUTS/openbind_a71ev2a_c2_elabs_1LOUU54.sdf', '/opt/xchem-fragalysis-2/maxwin/BulkDock/OUTPUTS/openbind_a71ev2a_c2_elabs_1LSYIDY.sdf']

>  <name>  (137) 
P544021

>  <ref_pdb>  (137) 
A0884a

>  <subsites>  (137) 
None

>  <HIPPO Pose ID>  (137) 
544021

>  <ref_mols>  (137) 
A0884a

>  <HIPPO Compound ID>  (137) 
381705

>  <tags>  (137) 
openbind_a71ev2a_c2_elabs,syndirella_product,openbind_a71ev2a_c2_elabs_fragonly_scored_top80percent,openbind_a71ev2a_c2_elabs_scored,BulkDock Fragalysis export,openbind_a71ev2a_c2_elabs_scored_top80percent,openbind_a71ev2a_c2_elabs_activefrags_only_scored_5.2plus,syndirella_placed

>  <smina_score_min>  (137) 
-6.419

$$$$
P544028
     RDKit          3D

 19 20  0  0  0  0  0  0  0  0999 V2000
    3.4065   10.4140   28.9742 C   0  0  0  0  0  0  0  0  0  0  0  0
    3.6092   11.6937   28.6355 C   0  0  0  0  0  0  0  0  0  0  0  0
    4.5791   12.2575   27.6302 C   0  0  0  0  0  0  0  0  0  0  0  0
    5.6914   11.3517   27.0409 C   0  0  0  0  0  0  0  0  0  0  0  0
    6.0394   10.3398   27.5138 O   0  0  0  0  0  0  0  0  0  0  0  0
    6.2512   12.1403   25.8134 N   0  0  0  0  0  0  0  0  0  0  0  0
    7.2492   11.8056   24.9043 C   0  0  0  0  0  0  0  0  0  0  0  0
    7.8153   10.5403   24.8237 C   0  0  0  0  0  0  0  0  0  0  0  0
    8.9031   10.3115   23.9717 C   0  0  0  0  0  0  0  0  0  0  0  0
    9.5169   11.3798   23.3192 C   0  0  0  0  0  0  0  0  0  0  0  0
    9.0055   12.6656   23.4962 C   0  0  0  0  0  0  0  0  0  0  0  0
    9.9032   13.7525   23.6478 N   0  0  0  0  0  0  0  0  0  0  0  0
   10.9660   14.0590   22.7884 C   0  0  0  0  0  0  0  0  0  0  0  0
   11.0622   13.9149   21.5880 O   0  0  0  0  0  0  0  0  0  0  0  0
   11.9864   14.6197   23.5324 N   0  0  0  0  0  0  0  0  0  0  0  0
   11.7884   14.4010   24.9241 C   0  0  0  0  0  0  0  0  0  0  0  0
   10.3698   13.8931   25.0233 C   0  0  1  0  0  0  0  0  0  0  0  0
    9.4362   14.6971   25.9410 C   0  0  0  0  0  0  0  0  0  0  0  0
    7.7782   12.8399   24.1438 C   0  0  0  0  0  0  0  0  0  0  0  0
  1  2  2  0
  2  3  1  0
  3  4  1  0
  4  5  2  0
  4  6  1  0
  6  7  1  0
  7  8  2  0
  8  9  1  0
  9 10  2  0
 10 11  1  0
 11 12  1  0
 12 13  1  0
 13 14  2  0
 13 15  1  0
 15 16  1  0
 16 17  1  0
 17 18  1  1
 11 19  2  0
 19  7  1  0
 17 12  1  0
M  END
>  <alias>  (138) 
None

>  <rmsd(smina/fragmenstein)>  (138) 
1.909

>  <smiles>  (138) 
C=CCC(=O)Nc1cccc(N2C(=O)NC[C@H]2C)c1

>  <gnina_score>  (138) 
4.817

>  <inspiration_score>  (138) 
None

>  <energy_score>  (138) 
-17.669386

>  <distance_score>  (138) 
1.351515

>  <gnina_score_min>  (138) 
5.239

>  <inchikey>  (138) 
VBZCSSVTVFLYLY-SNVBAGLBSA-N

>  <exports>  (138) 
['/opt/xchem-fragalysis-2/maxwin/BulkDock/OUTPUTS/openbind_a71ev2a_c2_elabs_1LOUU54.sdf', '/opt/xchem-fragalysis-2/maxwin/BulkDock/OUTPUTS/openbind_a71ev2a_c2_elabs_1LSYIDY.sdf']

>  <name>  (138) 
P544028

>  <ref_pdb>  (138) 
A0884a

>  <subsites>  (138) 
None

>  <HIPPO Pose ID>  (138) 
544028

>  <ref_mols>  (138) 
A0884a

>  <HIPPO Compound ID>  (138) 
381723

>  <tags>  (138) 
openbind_a71ev2a_c2_elabs,syndirella_product,openbind_a71ev2a_c2_elabs_fragonly_scored_top80percent,openbind_a71ev2a_c2_elabs_scored,BulkDock Fragalysis export,openbind_a71ev2a_c2_elabs_scored_top80percent,openbind_a71ev2a_c2_elabs_activefrags_only_scored_5.2plus,syndirella_placed

>  <smina_score_min>  (138) 
-6.417

$$$$
P544042
     RDKit          3D

 19 20  0  0  0  0  0  0  0  0999 V2000
    6.2056   12.4808   28.6043 O   0  0  0  0  0  0  0  0  0  0  0  0
    6.2318   13.4759   27.9896 C   0  0  0  0  0  0  0  0  0  0  0  0
    5.5768   14.7677   28.4398 C   0  0  0  0  0  0  0  0  0  0  0  0
    4.8478   14.5708   29.7509 C   0  0  0  0  0  0  0  0  0  0  0  0
    4.2731   15.7527   30.1058 F   0  0  0  0  0  0  0  0  0  0  0  0
    6.9098   13.8019   26.6210 N   0  0  0  0  0  0  0  0  0  0  0  0
    7.5886   12.9682   25.7194 C   0  0  0  0  0  0  0  0  0  0  0  0
    8.5479   13.6213   24.9378 C   0  0  0  0  0  0  0  0  0  0  0  0
    9.3504   12.9261   24.0328 C   0  0  0  0  0  0  0  0  0  0  0  0
   10.3141   13.6643   23.3277 N   0  0  0  0  0  0  0  0  0  0  0  0
   10.6176   13.4033   21.9595 C   0  0  0  0  0  0  0  0  0  0  0  0
   11.7894   14.3074   21.6503 C   0  0  0  0  0  0  0  0  0  0  0  0
   12.4104   14.4167   22.9309 N   0  0  0  0  0  0  0  0  0  0  0  0
   11.5021   14.1119   23.9425 C   0  0  0  0  0  0  0  0  0  0  0  0
   11.7274   14.2033   25.1366 O   0  0  0  0  0  0  0  0  0  0  0  0
    9.1651   11.5552   23.8521 C   0  0  0  0  0  0  0  0  0  0  0  0
    8.2109   10.8877   24.6197 C   0  0  0  0  0  0  0  0  0  0  0  0
    7.4197   11.5872   25.5460 C   0  0  0  0  0  0  0  0  0  0  0  0
    6.2026   10.6832   26.3546 Cl  0  0  0  0  0  0  0  0  0  0  0  0
  1  2  2  0
  2  3  1  0
  3  4  1  0
  4  5  1  0
  2  6  1  0
  6  7  1  0
  7  8  2  0
  8  9  1  0
  9 10  1  0
 10 11  1  0
 11 12  1  0
 12 13  1  0
 13 14  1  0
 14 15  2  0
  9 16  2  0
 16 17  1  0
 17 18  2  0
 18 19  1  0
 18  7  1  0
 14 10  1  0
M  END
>  <alias>  (139) 
None

>  <rmsd(smina/fragmenstein)>  (139) 
1.546

>  <smiles>  (139) 
O=C(CCF)Nc1cc(N2CCNC2=O)ccc1Cl

>  <gnina_score>  (139) 
4.67

>  <inspiration_score>  (139) 
None

>  <energy_score>  (139) 
-18.594292

>  <distance_score>  (139) 
1.620324

>  <gnina_score_min>  (139) 
5.269

>  <inchikey>  (139) 
NXIOIQXBSPQRKV-UHFFFAOYSA-N

>  <exports>  (139) 
['/opt/xchem-fragalysis-2/maxwin/BulkDock/OUTPUTS/openbind_a71ev2a_c2_elabs_1LOUU54.sdf', '/opt/xchem-fragalysis-2/maxwin/BulkDock/OUTPUTS/openbind_a71ev2a_c2_elabs_1LSYIDY.sdf']

>  <name>  (139) 
P544042

>  <ref_pdb>  (139) 
A0884a

>  <subsites>  (139) 
None

>  <HIPPO Pose ID>  (139) 
544042

>  <ref_mols>  (139) 
A0884a

>  <HIPPO Compound ID>  (139) 
381751

>  <tags>  (139) 
openbind_a71ev2a_c2_elabs,syndirella_product,openbind_a71ev2a_c2_elabs_fragonly_scored_top80percent,openbind_a71ev2a_c2_elabs_scored,BulkDock Fragalysis export,openbind_a71ev2a_c2_elabs_scored_top80percent,openbind_a71ev2a_c2_elabs_activefrags_only_scored_5.2plus,syndirella_placed

>  <smina_score_min>  (139) 
-5.977

$$$$
P544045
     RDKit          3D

 19 19  0  0  0  0  0  0  0  0999 V2000
   12.5051   14.8249   20.8457 C   0  0  0  0  0  0  0  0  0  0  0  0
   11.7841   13.8236   21.5451 N   0  0  0  0  0  0  0  0  0  0  0  0
   11.1098   13.8629   22.9277 C   0  0  0  0  0  0  0  0  0  0  0  0
   11.1069   14.6762   23.7195 O   0  0  0  0  0  0  0  0  0  0  0  0
   10.3560   12.5160   22.8782 N   0  0  0  0  0  0  0  0  0  0  0  0
    9.4123   11.9872   23.7367 C   0  0  0  0  0  0  0  0  0  0  0  0
    8.6396   12.8309   24.5399 C   0  0  0  0  0  0  0  0  0  0  0  0
    7.6041   12.3023   25.3110 C   0  0  0  0  0  0  0  0  0  0  0  0
    6.7694   13.1735   25.9993 N   0  0  0  0  0  0  0  0  0  0  0  0
    5.5489   12.8812   26.9514 C   0  0  0  0  0  0  0  0  0  0  0  0
    5.0264   11.8650   27.2285 O   0  0  0  0  0  0  0  0  0  0  0  0
    5.0452   14.2620   27.4840 C   0  0  0  0  0  0  0  0  0  0  0  0
    3.6208   13.9633   28.7992 Br  0  0  0  0  0  0  0  0  0  0  0  0
    6.5683   15.1653   28.3319 Br  0  0  0  0  0  0  0  0  0  0  0  0
    4.3654   15.2505   25.9414 Br  0  0  0  0  0  0  0  0  0  0  0  0
    7.4024   10.9270   25.3392 C   0  0  0  0  0  0  0  0  0  0  0  0
    8.2014   10.0942   24.5560 C   0  0  0  0  0  0  0  0  0  0  0  0
    9.1736   10.6242   23.7291 C   0  0  0  0  0  0  0  0  0  0  0  0
    9.8771    9.8144   22.9282 F   0  0  0  0  0  0  0  0  0  0  0  0
  1  2  1  0
  2  3  1  0
  3  4  2  0
  3  5  1  0
  5  6  1  0
  6  7  2  0
  7  8  1  0
  8  9  1  0
  9 10  1  0
 10 11  2  0
 10 12  1  0
 12 13  1  0
 12 14  1  0
 12 15  1  0
  8 16  2  0
 16 17  1  0
 17 18  2  0
 18 19  1  0
 18  6  1  0
M  END
>  <alias>  (140) 
None

>  <rmsd(smina/fragmenstein)>  (140) 
0.595

>  <smiles>  (140) 
CNC(=O)Nc1cc(NC(=O)C(Br)(Br)Br)ccc1F

>  <gnina_score>  (140) 
5.371

>  <inspiration_score>  (140) 
None

>  <energy_score>  (140) 
-8.220622

>  <distance_score>  (140) 
1.422956

>  <gnina_score_min>  (140) 
5.348

>  <inchikey>  (140) 
AHMPHLHSJAEJRC-UHFFFAOYSA-N

>  <exports>  (140) 
['/opt/xchem-fragalysis-2/maxwin/BulkDock/OUTPUTS/openbind_a71ev2a_c2_elabs_1LOUU54.sdf', '/opt/xchem-fragalysis-2/maxwin/BulkDock/OUTPUTS/openbind_a71ev2a_c2_elabs_1LSYIDY.sdf']

>  <name>  (140) 
P544045

>  <ref_pdb>  (140) 
A0884a

>  <subsites>  (140) 
None

>  <HIPPO Pose ID>  (140) 
544045

>  <ref_mols>  (140) 
A0884a

>  <HIPPO Compound ID>  (140) 
381760

>  <tags>  (140) 
openbind_a71ev2a_c2_elabs,syndirella_product,openbind_a71ev2a_c2_elabs_fragonly_scored_top80percent,openbind_a71ev2a_c2_elabs_scored,BulkDock Fragalysis export,openbind_a71ev2a_c2_elabs_scored_top80percent,openbind_a71ev2a_c2_elabs_activefrags_only_scored_5.2plus,syndirella_placed

>  <smina_score_min>  (140) 
-5.852

$$$$
P544086
     RDKit          3D

 19 20  0  0  0  0  0  0  0  0999 V2000
    2.7990   12.5539   29.2988 C   0  0  0  0  0  0  0  0  0  0  0  0
    3.8665   11.7626   28.6173 C   0  0  0  0  0  0  0  0  0  0  0  0
    4.5876   12.2153   27.5791 C   0  0  0  0  0  0  0  0  0  0  0  0
    5.6466   11.3488   26.9643 C   0  0  0  0  0  0  0  0  0  0  0  0
    5.9295   10.3034   27.3972 O   0  0  0  0  0  0  0  0  0  0  0  0
    6.2023   12.1096   25.7364 N   0  0  0  0  0  0  0  0  0  0  0  0
    7.2474   11.7940   24.8761 C   0  0  0  0  0  0  0  0  0  0  0  0
    7.8209   10.5310   24.8042 C   0  0  0  0  0  0  0  0  0  0  0  0
    8.9203   10.3068   23.9665 C   0  0  0  0  0  0  0  0  0  0  0  0
    9.5366   11.3775   23.3207 C   0  0  0  0  0  0  0  0  0  0  0  0
    9.0214   12.6617   23.4954 C   0  0  0  0  0  0  0  0  0  0  0  0
    9.9131   13.7520   23.6483 N   0  0  0  0  0  0  0  0  0  0  0  0
   10.9781   14.0589   22.7918 C   0  0  0  0  0  0  0  0  0  0  0  0
   11.0785   13.9109   21.5923 O   0  0  0  0  0  0  0  0  0  0  0  0
   11.9942   14.6237   23.5378 N   0  0  0  0  0  0  0  0  0  0  0  0
   11.7920   14.4083   24.9294 C   0  0  0  0  0  0  0  0  0  0  0  0
   10.3751   13.8956   25.0248 C   0  0  1  0  0  0  0  0  0  0  0  0
    9.4343   14.6951   25.9388 C   0  0  0  0  0  0  0  0  0  0  0  0
    7.7887   12.8331   24.1318 C   0  0  0  0  0  0  0  0  0  0  0  0
  1  2  1  0
  2  3  2  0
  3  4  1  0
  4  5  2  0
  4  6  1  0
  6  7  1  0
  7  8  2  0
  8  9  1  0
  9 10  2  0
 10 11  1  0
 11 12  1  0
 12 13  1  0
 13 14  2  0
 13 15  1  0
 15 16  1  0
 16 17  1  0
 17 18  1  1
 11 19  2  0
 19  7  1  0
 17 12  1  0
M  END
>  <alias>  (141) 
None

>  <rmsd(smina/fragmenstein)>  (141) 
1.541

>  <smiles>  (141) 
C/C=C/C(=O)Nc1cccc(N2C(=O)NC[C@H]2C)c1

>  <gnina_score>  (141) 
4.878

>  <inspiration_score>  (141) 
None

>  <energy_score>  (141) 
-14.996612

>  <distance_score>  (141) 
1.343366

>  <gnina_score_min>  (141) 
5.243

>  <inchikey>  (141) 
XMBBUGGJDFAVKR-RXNUUUNCSA-N

>  <exports>  (141) 
['/opt/xchem-fragalysis-2/maxwin/BulkDock/OUTPUTS/openbind_a71ev2a_c2_elabs_1LOUU54.sdf', '/opt/xchem-fragalysis-2/maxwin/BulkDock/OUTPUTS/openbind_a71ev2a_c2_elabs_1LSYIDY.sdf']

>  <name>  (141) 
P544086

>  <ref_pdb>  (141) 
A0884a

>  <subsites>  (141) 
None

>  <HIPPO Pose ID>  (141) 
544086

>  <ref_mols>  (141) 
A0884a

>  <HIPPO Compound ID>  (141) 
381845

>  <tags>  (141) 
openbind_a71ev2a_c2_elabs,syndirella_product,openbind_a71ev2a_c2_elabs_fragonly_scored_top80percent,openbind_a71ev2a_c2_elabs_scored,BulkDock Fragalysis export,openbind_a71ev2a_c2_elabs_scored_top80percent,openbind_a71ev2a_c2_elabs_activefrags_only_scored_5.2plus,syndirella_placed

>  <smina_score_min>  (141) 
-6.829

$$$$
P544150
     RDKit          3D

 19 20  0  0  0  0  0  0  0  0999 V2000
    3.6684   14.5592   25.6820 C   0  0  0  0  0  0  0  0  0  0  0  0
    4.3402   13.9849   26.6928 C   0  0  0  0  0  0  0  0  0  0  0  0
    4.2413   14.4043   28.1224 C   0  0  0  0  0  0  0  0  0  0  0  0
    5.2023   12.7908   26.4210 C   0  0  0  0  0  0  0  0  0  0  0  0
    5.0110   11.7611   26.9372 O   0  0  0  0  0  0  0  0  0  0  0  0
    6.2650   13.2067   25.3737 N   0  0  0  0  0  0  0  0  0  0  0  0
    7.3303   12.4937   24.8366 C   0  0  0  0  0  0  0  0  0  0  0  0
    7.4837   11.1258   25.0458 C   0  0  0  0  0  0  0  0  0  0  0  0
    8.5493   10.4521   24.4515 C   0  0  0  0  0  0  0  0  0  0  0  0
    9.5181   11.1574   23.7427 C   0  0  0  0  0  0  0  0  0  0  0  0
    9.3958   12.5357   23.5728 C   0  0  0  0  0  0  0  0  0  0  0  0
   10.4383   13.2654   22.9772 N   0  0  0  0  0  0  0  0  0  0  0  0
   10.2892   14.4212   22.2128 C   0  0  0  0  0  0  0  0  0  0  0  0
    9.2840   14.8574   21.6929 O   0  0  0  0  0  0  0  0  0  0  0  0
   11.5218   15.0331   22.0966 N   0  0  0  0  0  0  0  0  0  0  0  0
   12.5252   14.1001   22.4769 C   0  0  0  0  0  0  0  0  0  0  0  0
   11.7868   13.2489   23.4984 C   0  0  1  0  0  0  0  0  0  0  0  0
   11.8676   13.8897   24.8759 C   0  0  0  0  0  0  0  0  0  0  0  0
    8.2624   13.1880   24.0636 C   0  0  0  0  0  0  0  0  0  0  0  0
  1  2  2  0
  2  3  1  0
  2  4  1  0
  4  5  2  0
  4  6  1  0
  6  7  1  0
  7  8  2  0
  8  9  1  0
  9 10  2  0
 10 11  1  0
 11 12  1  0
 12 13  1  0
 13 14  2  0
 13 15  1  0
 15 16  1  0
 16 17  1  0
 17 18  1  1
 11 19  2  0
 19  7  1  0
 17 12  1  0
M  END
>  <alias>  (142) 
None

>  <rmsd(smina/fragmenstein)>  (142) 
0.695

>  <smiles>  (142) 
C=C(C)C(=O)Nc1cccc(N2C(=O)NC[C@H]2C)c1

>  <gnina_score>  (142) 
5.2

>  <inspiration_score>  (142) 
None

>  <energy_score>  (142) 
-21.703688

>  <distance_score>  (142) 
1.676809

>  <gnina_score_min>  (142) 
5.21

>  <inchikey>  (142) 
IOOBQZSYGMAFHQ-SNVBAGLBSA-N

>  <exports>  (142) 
['/opt/xchem-fragalysis-2/maxwin/BulkDock/OUTPUTS/openbind_a71ev2a_c2_elabs_1LOUU54.sdf', '/opt/xchem-fragalysis-2/maxwin/BulkDock/OUTPUTS/openbind_a71ev2a_c2_elabs_1LSYIDY.sdf']

>  <name>  (142) 
P544150

>  <ref_pdb>  (142) 
A0884a

>  <subsites>  (142) 
None

>  <HIPPO Pose ID>  (142) 
544150

>  <ref_mols>  (142) 
A0884a

>  <HIPPO Compound ID>  (142) 
381970

>  <tags>  (142) 
openbind_a71ev2a_c2_elabs,syndirella_product,openbind_a71ev2a_c2_elabs_fragonly_scored_top80percent,openbind_a71ev2a_c2_elabs_scored,BulkDock Fragalysis export,openbind_a71ev2a_c2_elabs_scored_top80percent,openbind_a71ev2a_c2_elabs_activefrags_only_scored_5.2plus,syndirella_placed

>  <smina_score_min>  (142) 
-6.688

$$$$
P544167
     RDKit          3D

 20 21  0  0  0  0  0  0  0  0999 V2000
    6.8073   14.9273   29.2601 C   0  0  0  0  0  0  0  0  0  0  0  0
    5.4590   15.2721   28.6875 C   0  0  0  0  0  0  0  0  0  0  0  0
    4.8818   16.5719   29.1805 C   0  0  0  0  0  0  0  0  0  0  0  0
    4.7684   14.5059   27.8212 C   0  0  0  0  0  0  0  0  0  0  0  0
    5.2599   13.2187   27.2588 C   0  0  0  0  0  0  0  0  0  0  0  0
    4.7396   12.1987   27.4845 O   0  0  0  0  0  0  0  0  0  0  0  0
    6.4732   13.5484   26.3539 N   0  0  0  0  0  0  0  0  0  0  0  0
    7.3231   12.7089   25.6416 C   0  0  0  0  0  0  0  0  0  0  0  0
    7.0851   11.3443   25.5426 C   0  0  0  0  0  0  0  0  0  0  0  0
    7.9299   10.5514   24.7727 C   0  0  0  0  0  0  0  0  0  0  0  0
    8.9975   11.1131   24.0726 C   0  0  0  0  0  0  0  0  0  0  0  0
    9.9226   10.0053   23.1435 Cl  0  0  0  0  0  0  0  0  0  0  0  0
    9.2929   12.4787   24.2201 C   0  0  0  0  0  0  0  0  0  0  0  0
   10.3973   13.1095   23.6130 N   0  0  0  0  0  0  0  0  0  0  0  0
   10.6125   13.0821   22.2041 C   0  0  0  0  0  0  0  0  0  0  0  0
   11.4767   14.2863   21.8996 C   0  0  0  0  0  0  0  0  0  0  0  0
   11.9940   14.6416   23.1804 N   0  0  0  0  0  0  0  0  0  0  0  0
   11.2357   14.0594   24.1876 C   0  0  0  0  0  0  0  0  0  0  0  0
   11.3026   14.3669   25.3653 O   0  0  0  0  0  0  0  0  0  0  0  0
    8.4369   13.2651   25.0057 C   0  0  0  0  0  0  0  0  0  0  0  0
  1  2  1  0
  2  3  1  0
  2  4  2  3
  4  5  1  0
  5  6  2  0
  5  7  1  0
  7  8  1  0
  8  9  2  0
  9 10  1  0
 10 11  2  0
 11 12  1  0
 11 13  1  0
 13 14  1  0
 14 15  1  0
 15 16  1  0
 16 17  1  0
 17 18  1  0
 18 19  2  0
 13 20  2  0
 20  8  1  0
 18 14  1  0
M  END
>  <alias>  (143) 
None

>  <rmsd(smina/fragmenstein)>  (143) 
1.604

>  <smiles>  (143) 
CC(C)=CC(=O)Nc1ccc(Cl)c(N2CCNC2=O)c1

>  <gnina_score>  (143) 
4.989

>  <inspiration_score>  (143) 
None

>  <energy_score>  (143) 
-48.959153

>  <distance_score>  (143) 
1.446328

>  <gnina_score_min>  (143) 
5.216

>  <inchikey>  (143) 
NZWUUTMOYJSLBX-UHFFFAOYSA-N

>  <exports>  (143) 
['/opt/xchem-fragalysis-2/maxwin/BulkDock/OUTPUTS/openbind_a71ev2a_c2_elabs_1LOUU54.sdf', '/opt/xchem-fragalysis-2/maxwin/BulkDock/OUTPUTS/openbind_a71ev2a_c2_elabs_1LSYIDY.sdf']

>  <name>  (143) 
P544167

>  <ref_pdb>  (143) 
A0884a

>  <subsites>  (143) 
None

>  <HIPPO Pose ID>  (143) 
544167

>  <ref_mols>  (143) 
A0884a

>  <HIPPO Compound ID>  (143) 
381997

>  <tags>  (143) 
openbind_a71ev2a_c2_elabs,syndirella_product,openbind_a71ev2a_c2_elabs_fragonly_scored_top80percent,openbind_a71ev2a_c2_elabs_scored,BulkDock Fragalysis export,openbind_a71ev2a_c2_elabs_scored_top80percent,openbind_a71ev2a_c2_elabs_activefrags_only_scored_5.2plus,syndirella_placed

>  <smina_score_min>  (143) 
-6.063

$$$$
P544183
     RDKit          3D

 20 21  0  0  0  0  0  0  0  0999 V2000
    9.9765    9.9229   22.9875 C   0  0  0  0  0  0  0  0  0  0  0  0
    9.1118   10.9236   23.6803 C   0  0  0  0  0  0  0  0  0  0  0  0
    8.2056   10.4072   24.6211 C   0  0  0  0  0  0  0  0  0  0  0  0
    7.2817   11.2190   25.2721 C   0  0  0  0  0  0  0  0  0  0  0  0
    7.2255   12.5665   24.9591 C   0  0  0  0  0  0  0  0  0  0  0  0
    6.2689   13.4139   25.5081 N   0  0  0  0  0  0  0  0  0  0  0  0
    5.1447   13.1303   26.5213 C   0  0  0  0  0  0  0  0  0  0  0  0
    4.8893   12.1602   27.1152 O   0  0  0  0  0  0  0  0  0  0  0  0
    4.2812   14.3396   26.6614 C   0  0  1  0  0  0  0  0  0  0  0  0
    3.8587   14.8171   28.0336 C   0  0  0  0  0  0  0  0  0  0  0  0
    4.8028   15.6525   27.2149 C   0  0  1  0  0  0  0  0  0  0  0  0
    6.2088   15.8364   27.6770 C   0  0  0  0  0  0  0  0  0  0  0  0
    8.1344   13.0974   24.0420 C   0  0  0  0  0  0  0  0  0  0  0  0
    9.1041   12.2983   23.4170 C   0  0  0  0  0  0  0  0  0  0  0  0
   10.0499   12.9407   22.6043 N   0  0  0  0  0  0  0  0  0  0  0  0
   10.0821   14.3889   22.0487 C   0  0  0  0  0  0  0  0  0  0  0  0
    9.2907   15.2422   22.1183 O   0  0  0  0  0  0  0  0  0  0  0  0
   11.3337   14.6046   21.4778 N   0  0  0  0  0  0  0  0  0  0  0  0
   12.4076   15.0424   22.3224 C   0  0  0  0  0  0  0  0  0  0  0  0
   11.6155   14.4134   20.0826 C   0  0  0  0  0  0  0  0  0  0  0  0
  1  2  1  0
  2  3  2  0
  3  4  1  0
  4  5  2  0
  5  6  1  0
  6  7  1  0
  7  8  2  0
  9  7  1  1
  9 10  1  0
 10 11  1  0
 11 12  1  1
  5 13  1  0
 13 14  2  0
 14 15  1  0
 15 16  1  0
 16 17  2  0
 16 18  1  0
 18 19  1  0
 18 20  1  0
 14  2  1  0
 11  9  1  0
M  END
>  <alias>  (144) 
None

>  <rmsd(smina/fragmenstein)>  (144) 
1.507

>  <smiles>  (144) 
Cc1ccc(NC(=O)[C@H]2C[C@H]2C)cc1NC(=O)N(C)C

>  <gnina_score>  (144) 
5.416

>  <inspiration_score>  (144) 
None

>  <energy_score>  (144) 
-30.913588

>  <distance_score>  (144) 
1.820694

>  <gnina_score_min>  (144) 
5.546

>  <inchikey>  (144) 
LMTCFKFEZHYTCQ-PWSUYJOCSA-N

>  <exports>  (144) 
['/opt/xchem-fragalysis-2/maxwin/BulkDock/OUTPUTS/openbind_a71ev2a_c2_elabs_1LOUU54.sdf', '/opt/xchem-fragalysis-2/maxwin/BulkDock/OUTPUTS/openbind_a71ev2a_c2_elabs_1LSYIDY.sdf']

>  <name>  (144) 
P544183

>  <ref_pdb>  (144) 
A0884a

>  <subsites>  (144) 
None

>  <HIPPO Pose ID>  (144) 
544183

>  <ref_mols>  (144) 
A0884a

>  <HIPPO Compound ID>  (144) 
382018

>  <tags>  (144) 
openbind_a71ev2a_c2_elabs,syndirella_product,openbind_a71ev2a_c2_elabs_fragonly_scored_top80percent,BulkDock Fragalysis export,openbind_a71ev2a_c2_elabs_scored,openbind_a71ev2a_c2_elabs_scored_top80percent,openbind_a71ev2a_c2_elabs_activefrags_only_scored_5.2plus,openbind_a71ev2a_c2_elabs_activefrags_only_scored_5.5plus,syndirella_placed

>  <smina_score_min>  (144) 
-6.048

$$$$
P544199
     RDKit          3D

 20 21  0  0  0  0  0  0  0  0999 V2000
    4.2378   17.4080   27.0771 C   0  0  0  0  0  0  0  0  0  0  0  0
    4.9582   16.0910   26.9688 C   0  0  0  0  0  0  0  0  0  0  0  0
    6.2647   16.0285   27.7107 C   0  0  0  0  0  0  0  0  0  0  0  0
    4.4161   15.0739   26.2730 C   0  0  0  0  0  0  0  0  0  0  0  0
    5.0441   13.7348   26.1257 C   0  0  0  0  0  0  0  0  0  0  0  0
    4.5664   12.7734   26.5834 O   0  0  0  0  0  0  0  0  0  0  0  0
    6.3020   13.9059   25.2327 N   0  0  0  0  0  0  0  0  0  0  0  0
    7.2626   12.9589   24.8082 C   0  0  0  0  0  0  0  0  0  0  0  0
    8.2461   13.5150   23.9624 C   0  0  0  0  0  0  0  0  0  0  0  0
    9.3316   12.7705   23.4913 C   0  0  0  0  0  0  0  0  0  0  0  0
   10.3771   13.3716   22.7733 N   0  0  0  0  0  0  0  0  0  0  0  0
   10.1917   14.3666   21.7417 C   0  0  0  0  0  0  0  0  0  0  0  0
   11.6132   14.7638   21.3752 C   0  0  0  0  0  0  0  0  0  0  0  0
   12.3678   14.4118   22.5411 N   0  0  0  0  0  0  0  0  0  0  0  0
   11.6428   13.5638   23.3625 C   0  0  0  0  0  0  0  0  0  0  0  0
   12.0460   13.1393   24.4326 O   0  0  0  0  0  0  0  0  0  0  0  0
    9.3989   11.4120   23.7701 C   0  0  0  0  0  0  0  0  0  0  0  0
    8.4146   10.8264   24.5598 C   0  0  0  0  0  0  0  0  0  0  0  0
    7.3809   11.5966   25.1245 C   0  0  0  0  0  0  0  0  0  0  0  0
    6.4025   10.7509   26.2527 Cl  0  0  0  0  0  0  0  0  0  0  0  0
  1  2  1  0
  2  3  1  0
  2  4  2  3
  4  5  1  0
  5  6  2  0
  5  7  1  0
  7  8  1  0
  8  9  2  0
  9 10  1  0
 10 11  1  0
 11 12  1  0
 12 13  1  0
 13 14  1  0
 14 15  1  0
 15 16  2  0
 10 17  2  0
 17 18  1  0
 18 19  2  0
 19 20  1  0
 19  8  1  0
 15 11  1  0
M  END
>  <alias>  (145) 
None

>  <rmsd(smina/fragmenstein)>  (145) 
0.76

>  <smiles>  (145) 
CC(C)=CC(=O)Nc1cc(N2CCNC2=O)ccc1Cl

>  <gnina_score>  (145) 
5.104

>  <inspiration_score>  (145) 
None

>  <energy_score>  (145) 
-18.50264

>  <distance_score>  (145) 
1.568541

>  <gnina_score_min>  (145) 
5.33

>  <inchikey>  (145) 
FPZVHOKGRDCOFJ-UHFFFAOYSA-N

>  <exports>  (145) 
['/opt/xchem-fragalysis-2/maxwin/BulkDock/OUTPUTS/openbind_a71ev2a_c2_elabs_1LOUU54.sdf', '/opt/xchem-fragalysis-2/maxwin/BulkDock/OUTPUTS/openbind_a71ev2a_c2_elabs_1LSYIDY.sdf']

>  <name>  (145) 
P544199

>  <ref_pdb>  (145) 
A0884a

>  <subsites>  (145) 
None

>  <HIPPO Pose ID>  (145) 
544199

>  <ref_mols>  (145) 
A0884a

>  <HIPPO Compound ID>  (145) 
382047

>  <tags>  (145) 
openbind_a71ev2a_c2_elabs,syndirella_product,openbind_a71ev2a_c2_elabs_fragonly_scored_top80percent,openbind_a71ev2a_c2_elabs_scored,BulkDock Fragalysis export,openbind_a71ev2a_c2_elabs_scored_top80percent,openbind_a71ev2a_c2_elabs_activefrags_only_scored_5.2plus,syndirella_placed

>  <smina_score_min>  (145) 
-6.537

$$$$
P544245
     RDKit          3D

 20 21  0  0  0  0  0  0  0  0999 V2000
    9.1155    9.5564   23.8775 C   0  0  0  0  0  0  0  0  0  0  0  0
    8.8371   10.9960   24.1004 C   0  0  0  0  0  0  0  0  0  0  0  0
    7.7599   11.4422   24.8766 C   0  0  0  0  0  0  0  0  0  0  0  0
    7.4851   12.8066   24.9627 C   0  0  0  0  0  0  0  0  0  0  0  0
    6.4317   13.3057   25.7203 N   0  0  0  0  0  0  0  0  0  0  0  0
    5.4388   12.5762   26.6809 C   0  0  0  0  0  0  0  0  0  0  0  0
    5.3114   11.4357   26.9174 O   0  0  0  0  0  0  0  0  0  0  0  0
    4.5153   13.6446   27.2509 C   0  0  0  0  0  0  0  0  0  0  0  0
    5.4560   14.7863   28.2309 Cl  0  0  0  0  0  0  0  0  0  0  0  0
    8.2793   13.7196   24.2693 C   0  0  0  0  0  0  0  0  0  0  0  0
    9.3808   13.2707   23.5466 C   0  0  0  0  0  0  0  0  0  0  0  0
   10.1949   14.1868   22.8406 N   0  0  0  0  0  0  0  0  0  0  0  0
    9.6621   14.5767   21.5332 C   0  0  0  0  0  0  0  0  0  0  0  0
   10.6186   15.3644   20.6840 C   0  0  0  0  0  0  0  0  0  0  0  0
   11.9840   14.7752   20.8537 C   0  0  0  0  0  0  0  0  0  0  0  0
   12.6947   14.4014   19.9269 O   0  0  0  0  0  0  0  0  0  0  0  0
   12.3766   14.7052   22.1592 N   0  0  0  0  0  0  0  0  0  0  0  0
   11.5570   14.1750   23.1106 C   0  0  0  0  0  0  0  0  0  0  0  0
   12.0427   13.7102   24.1433 O   0  0  0  0  0  0  0  0  0  0  0  0
    9.6560   11.9130   23.4564 C   0  0  0  0  0  0  0  0  0  0  0  0
  1  2  1  0
  2  3  2  0
  3  4  1  0
  4  5  1  0
  5  6  1  0
  6  7  2  0
  6  8  1  0
  8  9  1  0
  4 10  2  0
 10 11  1  0
 11 12  1  0
 12 13  1  0
 13 14  1  0
 14 15  1  0
 15 16  2  0
 15 17  1  0
 17 18  1  0
 18 19  2  0
 11 20  2  0
 20  2  1  0
 18 12  1  0
M  END
>  <alias>  (146) 
None

>  <rmsd(smina/fragmenstein)>  (146) 
0.592

>  <smiles>  (146) 
Cc1cc(NC(=O)CCl)cc(N2CCC(=O)NC2=O)c1

>  <gnina_score>  (146) 
5.293

>  <inspiration_score>  (146) 
None

>  <energy_score>  (146) 
-1.810031

>  <distance_score>  (146) 
1.320141

>  <gnina_score_min>  (146) 
5.421

>  <inchikey>  (146) 
PKHBHZYVMGNGBK-UHFFFAOYSA-N

>  <exports>  (146) 
['/opt/xchem-fragalysis-2/maxwin/BulkDock/OUTPUTS/openbind_a71ev2a_c2_elabs_1LOUU54.sdf', '/opt/xchem-fragalysis-2/maxwin/BulkDock/OUTPUTS/openbind_a71ev2a_c2_elabs_1LSYIDY.sdf']

>  <name>  (146) 
P544245

>  <ref_pdb>  (146) 
A0884a

>  <subsites>  (146) 
None

>  <HIPPO Pose ID>  (146) 
544245

>  <ref_mols>  (146) 
A0884a

>  <HIPPO Compound ID>  (146) 
382101

>  <tags>  (146) 
openbind_a71ev2a_c2_elabs,syndirella_product,openbind_a71ev2a_c2_elabs_fragonly_scored_top80percent,openbind_a71ev2a_c2_elabs_scored,BulkDock Fragalysis export,openbind_a71ev2a_c2_elabs_scored_top80percent,openbind_a71ev2a_c2_elabs_activefrags_only_scored_5.2plus,syndirella_placed

>  <smina_score_min>  (146) 
-6.779

$$$$
P544281
     RDKit          3D

 20 22  0  0  0  0  0  0  0  0999 V2000
    7.8647   15.7909   26.5314 O   0  0  0  0  0  0  0  0  0  0  0  0
    6.9829   15.0536   26.7294 C   0  0  0  0  0  0  0  0  0  0  0  0
    5.8764   15.4402   27.6526 C   0  0  0  0  0  0  0  0  0  0  0  0
    4.6060   15.1380   27.4800 C   0  0  0  0  0  0  0  0  0  0  0  0
    3.3006   15.3263   27.9816 C   0  0  0  0  0  0  0  0  0  0  0  0
    3.6246   14.4868   26.7052 C   0  0  0  0  0  0  0  0  0  0  0  0
    6.7275   13.6290   26.1874 N   0  0  0  0  0  0  0  0  0  0  0  0
    7.5207   12.8101   25.3943 C   0  0  0  0  0  0  0  0  0  0  0  0
    7.2731   11.4407   25.3906 C   0  0  0  0  0  0  0  0  0  0  0  0
    8.0946   10.6002   24.6497 C   0  0  0  0  0  0  0  0  0  0  0  0
    9.1170   11.1265   23.8576 C   0  0  0  0  0  0  0  0  0  0  0  0
    9.9921    9.9838   22.9311 Cl  0  0  0  0  0  0  0  0  0  0  0  0
    9.3466   12.5109   23.8140 C   0  0  0  0  0  0  0  0  0  0  0  0
   10.3533   13.0776   22.9889 N   0  0  0  0  0  0  0  0  0  0  0  0
   10.0320   14.0962   22.0032 C   0  0  0  0  0  0  0  0  0  0  0  0
   11.3863   14.6418   21.5773 C   0  0  0  0  0  0  0  0  0  0  0  0
   12.2185   14.3365   22.6980 N   0  0  0  0  0  0  0  0  0  0  0  0
   11.5885   13.4567   23.5633 C   0  0  0  0  0  0  0  0  0  0  0  0
   12.0415   13.1309   24.6468 O   0  0  0  0  0  0  0  0  0  0  0  0
    8.5525   13.3417   24.6142 C   0  0  0  0  0  0  0  0  0  0  0  0
  1  2  2  0
  2  3  1  0
  3  4  2  3
  4  5  1  0
  5  6  1  0
  2  7  1  0
  7  8  1  0
  8  9  2  0
  9 10  1  0
 10 11  2  0
 11 12  1  0
 11 13  1  0
 13 14  1  0
 14 15  1  0
 15 16  1  0
 16 17  1  0
 17 18  1  0
 18 19  2  0
 13 20  2  0
  6  4  1  0
 20  8  1  0
 18 14  1  0
M  END
>  <alias>  (147) 
None

>  <rmsd(smina/fragmenstein)>  (147) 
0.912

>  <smiles>  (147) 
O=C(C=C1CC1)Nc1ccc(Cl)c(N2CCNC2=O)c1

>  <gnina_score>  (147) 
5.236

>  <inspiration_score>  (147) 
None

>  <energy_score>  (147) 
-19.686754

>  <distance_score>  (147) 
1.922929

>  <gnina_score_min>  (147) 
5.24

>  <inchikey>  (147) 
WIABPZXTTVBTSF-UHFFFAOYSA-N

>  <exports>  (147) 
['/opt/xchem-fragalysis-2/maxwin/BulkDock/OUTPUTS/openbind_a71ev2a_c2_elabs_1LOUU54.sdf', '/opt/xchem-fragalysis-2/maxwin/BulkDock/OUTPUTS/openbind_a71ev2a_c2_elabs_1LSYIDY.sdf']

>  <name>  (147) 
P544281

>  <ref_pdb>  (147) 
A0884a

>  <subsites>  (147) 
None

>  <HIPPO Pose ID>  (147) 
544281

>  <ref_mols>  (147) 
A0884a

>  <HIPPO Compound ID>  (147) 
382147

>  <tags>  (147) 
openbind_a71ev2a_c2_elabs,syndirella_product,openbind_a71ev2a_c2_elabs_fragonly_scored_top80percent,openbind_a71ev2a_c2_elabs_scored,BulkDock Fragalysis export,openbind_a71ev2a_c2_elabs_scored_top80percent,openbind_a71ev2a_c2_elabs_activefrags_only_scored_5.2plus,syndirella_placed

>  <smina_score_min>  (147) 
-6.324

$$$$
P544291
     RDKit          3D

 20 21  0  0  0  0  0  0  0  0999 V2000
   12.2633   15.5317   26.8986 O   0  0  0  0  0  0  0  0  0  0  0  0
   11.3977   14.9758   26.2311 C   0  0  0  0  0  0  0  0  0  0  0  0
    9.9647   15.1099   26.6280 C   0  0  0  0  0  0  0  0  0  0  0  0
    8.9927   14.5985   25.5932 C   0  0  0  0  0  0  0  0  0  0  0  0
    9.5385   13.7148   24.5464 N   0  0  0  0  0  0  0  0  0  0  0  0
    8.8585   12.4835   24.2901 C   0  0  0  0  0  0  0  0  0  0  0  0
    9.4863   11.4118   23.6574 C   0  0  0  0  0  0  0  0  0  0  0  0
    8.9995   10.1393   23.8657 C   0  0  0  0  0  0  0  0  0  0  0  0
    9.6357    9.0959   23.3246 F   0  0  0  0  0  0  0  0  0  0  0  0
    7.9220    9.9249   24.7133 C   0  0  0  0  0  0  0  0  0  0  0  0
    7.2457   10.9843   25.2757 C   0  0  0  0  0  0  0  0  0  0  0  0
    6.2727   10.8077   26.2583 N   0  0  0  0  0  0  0  0  0  0  0  0
    5.6666   11.8244   27.2807 C   0  0  0  0  0  0  0  0  0  0  0  0
    5.8392   12.9789   27.3971 O   0  0  0  0  0  0  0  0  0  0  0  0
    4.6590   11.1266   28.1886 C   0  0  0  0  0  0  0  0  0  0  0  0
    4.9850    9.4135   28.4472 Cl  0  0  0  0  0  0  0  0  0  0  0  0
    7.6326   12.2595   24.9236 C   0  0  0  0  0  0  0  0  0  0  0  0
   10.8482   13.8734   24.1185 C   0  0  0  0  0  0  0  0  0  0  0  0
   11.3044   13.6025   23.0135 O   0  0  0  0  0  0  0  0  0  0  0  0
   11.7021   14.3070   25.0883 N   0  0  0  0  0  0  0  0  0  0  0  0
  1  2  2  0
  2  3  1  0
  3  4  1  0
  4  5  1  0
  5  6  1  0
  6  7  2  0
  7  8  1  0
  8  9  1  0
  8 10  2  0
 10 11  1  0
 11 12  1  0
 12 13  1  0
 13 14  2  0
 13 15  1  0
 15 16  1  0
 11 17  2  0
  5 18  1  0
 18 19  2  0
 18 20  1  0
 20  2  1  0
 17  6  1  0
M  END
>  <alias>  (148) 
None

>  <rmsd(smina/fragmenstein)>  (148) 
0.627

>  <smiles>  (148) 
O=C1CCN(c2cc(F)cc(NC(=O)CCl)c2)C(=O)N1

>  <gnina_score>  (148) 
5.161

>  <inspiration_score>  (148) 
None

>  <energy_score>  (148) 
-5.654525

>  <distance_score>  (148) 
1.330087

>  <gnina_score_min>  (148) 
5.231

>  <inchikey>  (148) 
WTUPHVZGFODLLN-UHFFFAOYSA-N

>  <exports>  (148) 
['/opt/xchem-fragalysis-2/maxwin/BulkDock/OUTPUTS/openbind_a71ev2a_c2_elabs_1LOUU54.sdf', '/opt/xchem-fragalysis-2/maxwin/BulkDock/OUTPUTS/openbind_a71ev2a_c2_elabs_1LSYIDY.sdf']

>  <name>  (148) 
P544291

>  <ref_pdb>  (148) 
A0884a

>  <subsites>  (148) 
None

>  <HIPPO Pose ID>  (148) 
544291

>  <ref_mols>  (148) 
A0884a

>  <HIPPO Compound ID>  (148) 
382169

>  <tags>  (148) 
openbind_a71ev2a_c2_elabs,syndirella_product,openbind_a71ev2a_c2_elabs_fragonly_scored_top80percent,openbind_a71ev2a_c2_elabs_scored,BulkDock Fragalysis export,openbind_a71ev2a_c2_elabs_scored_top80percent,openbind_a71ev2a_c2_elabs_activefrags_only_scored_5.2plus,syndirella_placed

>  <smina_score_min>  (148) 
-5.778

$$$$
P544292
     RDKit          3D

 20 22  0  0  0  0  0  0  0  0999 V2000
    7.9404   14.5410   24.7113 C   0  0  0  0  0  0  0  0  0  0  0  0
    8.2082   13.0630   24.6275 C   0  0  0  0  0  0  0  0  0  0  0  0
    7.3997   12.1296   25.3040 C   0  0  0  0  0  0  0  0  0  0  0  0
    6.4228   12.5728   26.2021 N   0  0  0  0  0  0  0  0  0  0  0  0
    5.5909   11.7870   27.2621 C   0  0  0  0  0  0  0  0  0  0  0  0
    5.5425   10.6402   27.4894 O   0  0  0  0  0  0  0  0  0  0  0  0
    4.8171   12.8325   28.0641 C   0  0  0  0  0  0  0  0  0  0  0  0
    3.6160   13.3704   27.3434 C   0  0  0  0  0  0  0  0  0  0  0  0
    2.6151   14.2075   28.0989 C   0  0  0  0  0  0  0  0  0  0  0  0
    2.2393   12.8300   27.6311 C   0  0  0  0  0  0  0  0  0  0  0  0
    7.6136   10.7655   25.1113 C   0  0  0  0  0  0  0  0  0  0  0  0
    8.6385   10.3203   24.2761 C   0  0  0  0  0  0  0  0  0  0  0  0
    9.5055   11.2292   23.6867 C   0  0  0  0  0  0  0  0  0  0  0  0
    9.3213   12.5939   23.8974 C   0  0  0  0  0  0  0  0  0  0  0  0
   10.3078   13.5042   23.4793 N   0  0  0  0  0  0  0  0  0  0  0  0
   11.6497   13.4706   24.0077 C   0  0  0  0  0  0  0  0  0  0  0  0
   12.3563   14.5002   23.1505 C   0  0  0  0  0  0  0  0  0  0  0  0
   11.6494   14.4410   21.9272 N   0  0  0  0  0  0  0  0  0  0  0  0
   10.3712   13.9783   22.1622 C   0  0  0  0  0  0  0  0  0  0  0  0
    9.4761   14.0468   21.3457 O   0  0  0  0  0  0  0  0  0  0  0  0
  1  2  1  0
  2  3  2  0
  3  4  1  0
  4  5  1  0
  5  6  2  0
  5  7  1  0
  7  8  1  0
  8  9  1  0
  9 10  1  0
  3 11  1  0
 11 12  2  0
 12 13  1  0
 13 14  2  0
 14 15  1  0
 15 16  1  0
 16 17  1  0
 17 18  1  0
 18 19  1  0
 19 20  2  0
 14  2  1  0
 19 15  1  0
 10  8  1  0
M  END
>  <alias>  (149) 
None

>  <rmsd(smina/fragmenstein)>  (149) 
0.942

>  <smiles>  (149) 
Cc1c(NC(=O)CC2CC2)cccc1N1CCNC1=O

>  <gnina_score>  (149) 
5.238

>  <inspiration_score>  (149) 
None

>  <energy_score>  (149) 
-22.346598

>  <distance_score>  (149) 
1.594905

>  <gnina_score_min>  (149) 
5.355

>  <inchikey>  (149) 
LNRTYPADYIPQCR-UHFFFAOYSA-N

>  <exports>  (149) 
['/opt/xchem-fragalysis-2/maxwin/BulkDock/OUTPUTS/openbind_a71ev2a_c2_elabs_1LOUU54.sdf', '/opt/xchem-fragalysis-2/maxwin/BulkDock/OUTPUTS/openbind_a71ev2a_c2_elabs_1LSYIDY.sdf']

>  <name>  (149) 
P544292

>  <ref_pdb>  (149) 
A0884a

>  <subsites>  (149) 
None

>  <HIPPO Pose ID>  (149) 
544292

>  <ref_mols>  (149) 
A0884a

>  <HIPPO Compound ID>  (149) 
382174

>  <tags>  (149) 
openbind_a71ev2a_c2_elabs,syndirella_product,openbind_a71ev2a_c2_elabs_fragonly_scored_top80percent,openbind_a71ev2a_c2_elabs_scored,BulkDock Fragalysis export,openbind_a71ev2a_c2_elabs_scored_top80percent,openbind_a71ev2a_c2_elabs_activefrags_only_scored_5.2plus,syndirella_placed

>  <smina_score_min>  (149) 
-6.313

$$$$
P544298
     RDKit          3D

 20 22  0  0  0  0  0  0  0  0999 V2000
    4.5915   12.8359   26.6250 O   0  0  0  0  0  0  0  0  0  0  0  0
    4.9829   13.7562   26.0151 C   0  0  0  0  0  0  0  0  0  0  0  0
    4.2574   15.0995   25.9752 C   0  0  0  0  0  0  0  0  0  0  0  0
    4.8911   16.1265   26.8685 C   0  0  0  0  0  0  0  0  0  0  0  0
    4.0525   17.2355   27.4499 C   0  0  0  0  0  0  0  0  0  0  0  0
    4.5877   16.1510   28.3440 C   0  0  0  0  0  0  0  0  0  0  0  0
    6.2632   13.9145   25.1281 N   0  0  0  0  0  0  0  0  0  0  0  0
    7.2406   12.9653   24.7491 C   0  0  0  0  0  0  0  0  0  0  0  0
    8.2225   13.5077   23.8920 C   0  0  0  0  0  0  0  0  0  0  0  0
    9.3269   12.7680   23.4611 C   0  0  0  0  0  0  0  0  0  0  0  0
   10.3788   13.3651   22.7474 N   0  0  0  0  0  0  0  0  0  0  0  0
   10.2087   14.3833   21.7367 C   0  0  0  0  0  0  0  0  0  0  0  0
   11.6329   14.7847   21.3848 C   0  0  0  0  0  0  0  0  0  0  0  0
   12.3960   14.3520   22.5152 N   0  0  0  0  0  0  0  0  0  0  0  0
   11.6489   13.5268   23.3375 C   0  0  0  0  0  0  0  0  0  0  0  0
   12.0375   13.0977   24.4108 O   0  0  0  0  0  0  0  0  0  0  0  0
    9.4063   11.4190   23.7796 C   0  0  0  0  0  0  0  0  0  0  0  0
    8.4218   10.8440   24.5767 C   0  0  0  0  0  0  0  0  0  0  0  0
    7.3762   11.6171   25.1136 C   0  0  0  0  0  0  0  0  0  0  0  0
    6.3932   10.7863   26.2485 Cl  0  0  0  0  0  0  0  0  0  0  0  0
  1  2  2  0
  2  3  1  0
  3  4  1  0
  4  5  1  0
  5  6  1  0
  2  7  1  0
  7  8  1  0
  8  9  2  0
  9 10  1  0
 10 11  1  0
 11 12  1  0
 12 13  1  0
 13 14  1  0
 14 15  1  0
 15 16  2  0
 10 17  2  0
 17 18  1  0
 18 19  2  0
 19 20  1  0
  6  4  1  0
 19  8  1  0
 15 11  1  0
M  END
>  <alias>  (150) 
None

>  <rmsd(smina/fragmenstein)>  (150) 
1.162

>  <smiles>  (150) 
O=C(CC1CC1)Nc1cc(N2CCNC2=O)ccc1Cl

>  <gnina_score>  (150) 
5.084

>  <inspiration_score>  (150) 
None

>  <energy_score>  (150) 
-5.857634

>  <distance_score>  (150) 
1.618833

>  <gnina_score_min>  (150) 
5.283

>  <inchikey>  (150) 
UKFOJZLPUMOATI-UHFFFAOYSA-N

>  <exports>  (150) 
['/opt/xchem-fragalysis-2/maxwin/BulkDock/OUTPUTS/openbind_a71ev2a_c2_elabs_1LOUU54.sdf', '/opt/xchem-fragalysis-2/maxwin/BulkDock/OUTPUTS/openbind_a71ev2a_c2_elabs_1LSYIDY.sdf']

>  <name>  (150) 
P544298

>  <ref_pdb>  (150) 
A0884a

>  <subsites>  (150) 
None

>  <HIPPO Pose ID>  (150) 
544298

>  <ref_mols>  (150) 
A0884a

>  <HIPPO Compound ID>  (150) 
382183

>  <tags>  (150) 
openbind_a71ev2a_c2_elabs,syndirella_product,openbind_a71ev2a_c2_elabs_fragonly_scored_top80percent,openbind_a71ev2a_c2_elabs_scored,BulkDock Fragalysis export,openbind_a71ev2a_c2_elabs_scored_top80percent,openbind_a71ev2a_c2_elabs_activefrags_only_scored_5.2plus,syndirella_placed

>  <smina_score_min>  (150) 
-6.421

$$$$
P544299
     RDKit          3D

 20 22  0  0  0  0  0  0  0  0999 V2000
    5.1152   11.7536   26.9408 O   0  0  0  0  0  0  0  0  0  0  0  0
    5.2916   12.7682   26.3837 C   0  0  0  0  0  0  0  0  0  0  0  0
    4.3869   13.9850   26.5564 C   0  0  0  0  0  0  0  0  0  0  0  0
    4.8372   15.0208   27.5475 C   0  0  0  0  0  0  0  0  0  0  0  0
    5.1981   14.6326   28.9593 C   0  0  0  0  0  0  0  0  0  0  0  0
    6.2586   15.1681   28.0361 C   0  0  0  0  0  0  0  0  0  0  0  0
    6.4081   13.1881   25.3760 N   0  0  0  0  0  0  0  0  0  0  0  0
    7.4383   12.4402   24.8005 C   0  0  0  0  0  0  0  0  0  0  0  0
    8.3467   13.1438   24.0032 C   0  0  0  0  0  0  0  0  0  0  0  0
    9.4652   12.5124   23.4421 C   0  0  0  0  0  0  0  0  0  0  0  0
   10.4505   13.2732   22.7944 N   0  0  0  0  0  0  0  0  0  0  0  0
   11.8609   13.0845   22.9757 C   0  0  0  0  0  0  0  0  0  0  0  0
   12.3643   14.5055   23.0405 C   0  0  0  0  0  0  0  0  0  0  0  0
   11.4662   15.1940   22.1827 N   0  0  0  0  0  0  0  0  0  0  0  0
   10.2621   14.5152   22.1924 C   0  0  0  0  0  0  0  0  0  0  0  0
    9.2247   14.9997   21.7913 O   0  0  0  0  0  0  0  0  0  0  0  0
    9.6083   11.1355   23.5891 C   0  0  0  0  0  0  0  0  0  0  0  0
    8.6763   10.4157   24.3308 C   0  0  0  0  0  0  0  0  0  0  0  0
    7.6263   11.0711   24.9691 C   0  0  0  0  0  0  0  0  0  0  0  0
    6.7938   10.3281   25.7034 F   0  0  0  0  0  0  0  0  0  0  0  0
  1  2  2  0
  2  3  1  0
  3  4  1  0
  4  5  1  0
  5  6  1  0
  2  7  1  0
  7  8  1  0
  8  9  2  0
  9 10  1  0
 10 11  1  0
 11 12  1  0
 12 13  1  0
 13 14  1  0
 14 15  1  0
 15 16  2  0
 10 17  2  0
 17 18  1  0
 18 19  2  0
 19 20  1  0
  6  4  1  0
 19  8  1  0
 15 11  1  0
M  END
>  <alias>  (151) 
None

>  <rmsd(smina/fragmenstein)>  (151) 
1.554

>  <smiles>  (151) 
O=C(CC1CC1)Nc1cc(N2CCNC2=O)ccc1F

>  <gnina_score>  (151) 
5.307

>  <inspiration_score>  (151) 
None

>  <energy_score>  (151) 
-16.665202

>  <distance_score>  (151) 
1.670349

>  <gnina_score_min>  (151) 
5.262

>  <inchikey>  (151) 
SAVRRUPELFZCLS-UHFFFAOYSA-N

>  <exports>  (151) 
['/opt/xchem-fragalysis-2/maxwin/BulkDock/OUTPUTS/openbind_a71ev2a_c2_elabs_1LOUU54.sdf', '/opt/xchem-fragalysis-2/maxwin/BulkDock/OUTPUTS/openbind_a71ev2a_c2_elabs_1LSYIDY.sdf']

>  <name>  (151) 
P544299

>  <ref_pdb>  (151) 
A0884a

>  <subsites>  (151) 
None

>  <HIPPO Pose ID>  (151) 
544299

>  <ref_mols>  (151) 
A0884a

>  <HIPPO Compound ID>  (151) 
382184

>  <tags>  (151) 
openbind_a71ev2a_c2_elabs,syndirella_product,openbind_a71ev2a_c2_elabs_fragonly_scored_top80percent,openbind_a71ev2a_c2_elabs_scored,BulkDock Fragalysis export,openbind_a71ev2a_c2_elabs_scored_top80percent,openbind_a71ev2a_c2_elabs_activefrags_only_scored_5.2plus,syndirella_placed

>  <smina_score_min>  (151) 
-5.819

$$$$
P544306
     RDKit          3D

 20 21  0  0  0  0  0  0  0  0999 V2000
    9.9476   10.3183   23.0582 C   0  0  0  0  0  0  0  0  0  0  0  0
    9.0570   11.2472   23.8177 C   0  0  0  0  0  0  0  0  0  0  0  0
    8.1206   10.6469   24.6738 C   0  0  0  0  0  0  0  0  0  0  0  0
    7.1879   11.4093   25.3704 C   0  0  0  0  0  0  0  0  0  0  0  0
    7.1871   12.7905   25.2292 C   0  0  0  0  0  0  0  0  0  0  0  0
    6.2573   13.5965   25.8802 N   0  0  0  0  0  0  0  0  0  0  0  0
    5.1301   13.2263   26.8988 C   0  0  0  0  0  0  0  0  0  0  0  0
    4.7668   12.1795   27.2819 O   0  0  0  0  0  0  0  0  0  0  0  0
    4.4679   14.5357   27.3092 C   0  0  0  0  0  0  0  0  0  0  0  0
    5.6488   15.5593   28.1522 Cl  0  0  0  0  0  0  0  0  0  0  0  0
    8.1321   13.4037   24.4020 C   0  0  0  0  0  0  0  0  0  0  0  0
    9.0798   12.6487   23.6937 C   0  0  0  0  0  0  0  0  0  0  0  0
   10.0162   13.3238   22.8429 N   0  0  0  0  0  0  0  0  0  0  0  0
    9.4836   14.3180   21.9166 C   0  0  0  0  0  0  0  0  0  0  0  0
   10.4571   14.7919   20.8595 C   0  0  0  0  0  0  0  0  0  0  0  0
   11.8803   14.5451   21.2397 C   0  0  0  0  0  0  0  0  0  0  0  0
   12.7840   14.5456   20.4077 O   0  0  0  0  0  0  0  0  0  0  0  0
   12.1115   14.3364   22.5651 N   0  0  0  0  0  0  0  0  0  0  0  0
   11.2995   13.5544   23.3440 C   0  0  0  0  0  0  0  0  0  0  0  0
   11.7333   13.1044   24.4023 O   0  0  0  0  0  0  0  0  0  0  0  0
  1  2  1  0
  2  3  2  0
  3  4  1  0
  4  5  2  0
  5  6  1  0
  6  7  1  0
  7  8  2  0
  7  9  1  0
  9 10  1  0
  5 11  1  0
 11 12  2  0
 12 13  1  0
 13 14  1  0
 14 15  1  0
 15 16  1  0
 16 17  2  0
 16 18  1  0
 18 19  1  0
 19 20  2  0
 12  2  1  0
 19 13  1  0
M  END
>  <alias>  (152) 
None

>  <rmsd(smina/fragmenstein)>  (152) 
0.839

>  <smiles>  (152) 
Cc1ccc(NC(=O)CCl)cc1N1CCC(=O)NC1=O

>  <gnina_score>  (152) 
5.258

>  <inspiration_score>  (152) 
None

>  <energy_score>  (152) 
-14.897335

>  <distance_score>  (152) 
1.395521

>  <gnina_score_min>  (152) 
5.235

>  <inchikey>  (152) 
ZNLAROIQZZAQSZ-UHFFFAOYSA-N

>  <exports>  (152) 
['/opt/xchem-fragalysis-2/maxwin/BulkDock/OUTPUTS/openbind_a71ev2a_c2_elabs_1LOUU54.sdf', '/opt/xchem-fragalysis-2/maxwin/BulkDock/OUTPUTS/openbind_a71ev2a_c2_elabs_1LSYIDY.sdf']

>  <name>  (152) 
P544306

>  <ref_pdb>  (152) 
A0884a

>  <subsites>  (152) 
None

>  <HIPPO Pose ID>  (152) 
544306

>  <ref_mols>  (152) 
A0884a

>  <HIPPO Compound ID>  (152) 
382203

>  <tags>  (152) 
openbind_a71ev2a_c2_elabs,syndirella_product,openbind_a71ev2a_c2_elabs_fragonly_scored_top80percent,openbind_a71ev2a_c2_elabs_scored,BulkDock Fragalysis export,openbind_a71ev2a_c2_elabs_scored_top80percent,openbind_a71ev2a_c2_elabs_activefrags_only_scored_5.2plus,syndirella_placed

>  <smina_score_min>  (152) 
-6.739

$$$$
P544307
     RDKit          3D

 20 21  0  0  0  0  0  0  0  0999 V2000
   13.0185   15.4592   21.4604 O   0  0  0  0  0  0  0  0  0  0  0  0
   12.2210   14.8375   22.1476 C   0  0  0  0  0  0  0  0  0  0  0  0
   12.5992   13.7205   23.0586 C   0  0  0  0  0  0  0  0  0  0  0  0
   11.4617   13.4021   23.9897 C   0  0  0  0  0  0  0  0  0  0  0  0
   10.2641   13.1381   23.2187 N   0  0  0  0  0  0  0  0  0  0  0  0
    9.1829   12.5183   23.9136 C   0  0  0  0  0  0  0  0  0  0  0  0
    8.2404   13.3389   24.5539 C   0  0  0  0  0  0  0  0  0  0  0  0
    7.2009   12.7878   25.3056 C   0  0  0  0  0  0  0  0  0  0  0  0
    6.2890   13.6501   25.9033 N   0  0  0  0  0  0  0  0  0  0  0  0
    5.0567   13.3490   26.8190 C   0  0  0  0  0  0  0  0  0  0  0  0
    4.5823   12.3265   27.1418 O   0  0  0  0  0  0  0  0  0  0  0  0
    4.4640   14.6983   27.2105 C   0  0  0  0  0  0  0  0  0  0  0  0
    5.6526   15.6085   28.1675 Cl  0  0  0  0  0  0  0  0  0  0  0  0
    7.1001   11.4067   25.4323 C   0  0  0  0  0  0  0  0  0  0  0  0
    8.0102   10.5823   24.7737 C   0  0  0  0  0  0  0  0  0  0  0  0
    9.0373   11.1290   24.0051 C   0  0  0  0  0  0  0  0  0  0  0  0
   10.0218   10.0175   23.1549 Cl  0  0  0  0  0  0  0  0  0  0  0  0
    9.9608   14.0934   22.2595 C   0  0  0  0  0  0  0  0  0  0  0  0
    8.9206   14.1170   21.6168 O   0  0  0  0  0  0  0  0  0  0  0  0
   10.8890   15.0595   22.0438 N   0  0  0  0  0  0  0  0  0  0  0  0
  1  2  2  0
  2  3  1  0
  3  4  1  0
  4  5  1  0
  5  6  1  0
  6  7  2  0
  7  8  1  0
  8  9  1  0
  9 10  1  0
 10 11  2  0
 10 12  1  0
 12 13  1  0
  8 14  2  0
 14 15  1  0
 15 16  2  0
 16 17  1  0
  5 18  1  0
 18 19  2  0
 18 20  1  0
 20  2  1  0
 16  6  1  0
M  END
>  <alias>  (153) 
None

>  <rmsd(smina/fragmenstein)>  (153) 
0.693

>  <smiles>  (153) 
O=C1CCN(c2cc(NC(=O)CCl)ccc2Cl)C(=O)N1

>  <gnina_score>  (153) 
5.604

>  <inspiration_score>  (153) 
None

>  <energy_score>  (153) 
-17.449867

>  <distance_score>  (153) 
1.898435

>  <gnina_score_min>  (153) 
5.464

>  <inchikey>  (153) 
FRZSHSRDUHWLTA-UHFFFAOYSA-N

>  <exports>  (153) 
['/opt/xchem-fragalysis-2/maxwin/BulkDock/OUTPUTS/openbind_a71ev2a_c2_elabs_1LOUU54.sdf', '/opt/xchem-fragalysis-2/maxwin/BulkDock/OUTPUTS/openbind_a71ev2a_c2_elabs_1LSYIDY.sdf']

>  <name>  (153) 
P544307

>  <ref_pdb>  (153) 
A0884a

>  <subsites>  (153) 
None

>  <HIPPO Pose ID>  (153) 
544307

>  <ref_mols>  (153) 
A0884a

>  <HIPPO Compound ID>  (153) 
382205

>  <tags>  (153) 
openbind_a71ev2a_c2_elabs,syndirella_product,openbind_a71ev2a_c2_elabs_fragonly_scored_top80percent,openbind_a71ev2a_c2_elabs_scored,BulkDock Fragalysis export,openbind_a71ev2a_c2_elabs_scored_top80percent,openbind_a71ev2a_c2_elabs_activefrags_only_scored_5.2plus,syndirella_placed

>  <smina_score_min>  (153) 
-6.972

$$$$
P544315
     RDKit          3D

 20 22  0  0  0  0  0  0  0  0999 V2000
   10.1114   15.3355   20.5874 C   0  0  0  0  0  0  0  0  0  0  0  0
   11.5018   14.7948   20.6002 C   0  0  1  0  0  0  0  0  0  0  0  0
   12.5467   15.4252   21.4715 C   0  0  0  0  0  0  0  0  0  0  0  0
   12.0552   14.0531   21.8028 C   0  0  1  0  0  0  0  0  0  0  0  0
   11.2296   13.8324   23.0102 C   0  0  0  0  0  0  0  0  0  0  0  0
   11.1899   14.6259   23.8579 O   0  0  0  0  0  0  0  0  0  0  0  0
   10.4785   12.5124   22.8533 N   0  0  0  0  0  0  0  0  0  0  0  0
    9.4864   11.9492   23.6260 C   0  0  0  0  0  0  0  0  0  0  0  0
    9.3159   10.5795   23.5975 C   0  0  0  0  0  0  0  0  0  0  0  0
    8.3547   10.0281   24.4236 C   0  0  0  0  0  0  0  0  0  0  0  0
    7.5246   10.8253   25.2110 C   0  0  0  0  0  0  0  0  0  0  0  0
    7.6429   12.2121   25.1949 C   0  0  0  0  0  0  0  0  0  0  0  0
    6.7440   13.0347   25.9161 N   0  0  0  0  0  0  0  0  0  0  0  0
    5.8287   12.5991   26.8915 C   0  0  0  0  0  0  0  0  0  0  0  0
    5.7038   11.5013   27.4120 O   0  0  0  0  0  0  0  0  0  0  0  0
    5.0580   13.6920   27.2715 N   0  0  0  0  0  0  0  0  0  0  0  0
    5.6245   14.9092   26.7602 C   0  0  0  0  0  0  0  0  0  0  0  0
    6.5110   14.4439   25.6022 C   0  0  2  0  0  0  0  0  0  0  0  0
    5.7875   14.6321   24.2671 C   0  0  0  0  0  0  0  0  0  0  0  0
    8.6647   12.7623   24.4159 C   0  0  0  0  0  0  0  0  0  0  0  0
  2  1  1  1
  2  3  1  0
  3  4  1  0
  4  5  1  1
  5  6  2  0
  5  7  1  0
  7  8  1  0
  8  9  2  0
  9 10  1  0
 10 11  2  0
 11 12  1  0
 12 13  1  0
 13 14  1  0
 14 15  2  0
 14 16  1  0
 16 17  1  0
 17 18  1  0
 18 19  1  6
 12 20  2  0
  4  2  1  0
 20  8  1  0
 18 13  1  0
M  END
>  <alias>  (154) 
None

>  <rmsd(smina/fragmenstein)>  (154) 
0.329

>  <smiles>  (154) 
C[C@H]1C[C@H]1C(=O)Nc1cccc(N2C(=O)NC[C@@H]2C)c1

>  <gnina_score>  (154) 
5.093

>  <inspiration_score>  (154) 
None

>  <energy_score>  (154) 
-61.770841

>  <distance_score>  (154) 
0.978473

>  <gnina_score_min>  (154) 
5.242

>  <inchikey>  (154) 
KAMYGCPFHYRBRS-OUJBWJOFSA-N

>  <exports>  (154) 
['/opt/xchem-fragalysis-2/maxwin/BulkDock/OUTPUTS/openbind_a71ev2a_c2_elabs_1LOUU54.sdf', '/opt/xchem-fragalysis-2/maxwin/BulkDock/OUTPUTS/openbind_a71ev2a_c2_elabs_1LSYIDY.sdf']

>  <name>  (154) 
P544315

>  <ref_pdb>  (154) 
A0884a

>  <subsites>  (154) 
None

>  <HIPPO Pose ID>  (154) 
544315

>  <ref_mols>  (154) 
A0884a

>  <HIPPO Compound ID>  (154) 
382211

>  <tags>  (154) 
openbind_a71ev2a_c2_elabs,syndirella_product,openbind_a71ev2a_c2_elabs_fragonly_scored_top80percent,openbind_a71ev2a_c2_elabs_scored,BulkDock Fragalysis export,openbind_a71ev2a_c2_elabs_scored_top80percent,openbind_a71ev2a_c2_elabs_activefrags_only_scored_5.2plus,syndirella_placed

>  <smina_score_min>  (154) 
-6.776

$$$$
P544362
     RDKit          3D

 20 21  0  0  0  0  0  0  0  0999 V2000
    3.5412   14.1491   27.8214 C   0  0  0  0  0  0  0  0  0  0  0  0
    4.8910   14.2501   28.5314 C   0  0  0  0  0  0  0  0  0  0  0  0
    5.0303   13.2265   29.6604 C   0  0  0  0  0  0  0  0  0  0  0  0
    4.9310   16.0370   29.4132 Br  0  0  0  0  0  0  0  0  0  0  0  0
    6.0841   14.1960   27.5250 C   0  0  0  0  0  0  0  0  0  0  0  0
    6.7828   15.1113   27.3086 O   0  0  0  0  0  0  0  0  0  0  0  0
    6.0824   12.7549   26.9125 N   0  0  0  0  0  0  0  0  0  0  0  0
    6.9608   12.1538   26.0223 C   0  0  0  0  0  0  0  0  0  0  0  0
    7.9717   12.8671   25.3899 C   0  0  0  0  0  0  0  0  0  0  0  0
    8.8936   12.2156   24.5588 C   0  0  0  0  0  0  0  0  0  0  0  0
   10.0008   12.9138   24.0644 N   0  0  0  0  0  0  0  0  0  0  0  0
   10.3682   14.2240   24.4759 C   0  0  0  0  0  0  0  0  0  0  0  0
   11.7577   14.4014   23.8918 C   0  0  0  0  0  0  0  0  0  0  0  0
   11.7439   13.5205   22.7836 N   0  0  0  0  0  0  0  0  0  0  0  0
   10.7780   12.5624   22.9789 C   0  0  0  0  0  0  0  0  0  0  0  0
   10.6440   11.5746   22.2970 O   0  0  0  0  0  0  0  0  0  0  0  0
    8.7441   10.8518   24.3142 C   0  0  0  0  0  0  0  0  0  0  0  0
    7.7335   10.1421   24.9470 C   0  0  0  0  0  0  0  0  0  0  0  0
    6.8519   10.7848   25.8046 C   0  0  0  0  0  0  0  0  0  0  0  0
    5.9092   10.0837   26.5127 O   0  0  0  0  0  0  0  0  0  0  0  0
  1  2  1  0
  2  3  1  0
  2  4  1  0
  2  5  1  0
  5  6  2  0
  5  7  1  0
  7  8  1  0
  8  9  2  0
  9 10  1  0
 10 11  1  0
 11 12  1  0
 12 13  1  0
 13 14  1  0
 14 15  1  0
 15 16  2  0
 10 17  2  0
 17 18  1  0
 18 19  2  0
 19 20  1  0
 19  8  1  0
 15 11  1  0
M  END
>  <alias>  (155) 
None

>  <rmsd(smina/fragmenstein)>  (155) 
2.106

>  <smiles>  (155) 
CC(C)(Br)C(=O)Nc1cc(N2CCNC2=O)ccc1O

>  <gnina_score>  (155) 
4.99

>  <inspiration_score>  (155) 
None

>  <energy_score>  (155) 
-56.394574

>  <distance_score>  (155) 
1.972552

>  <gnina_score_min>  (155) 
5.231

>  <inchikey>  (155) 
QYMBWDXWHNHJLT-UHFFFAOYSA-N

>  <exports>  (155) 
['/opt/xchem-fragalysis-2/maxwin/BulkDock/OUTPUTS/openbind_a71ev2a_c2_elabs_1LOUU54.sdf', '/opt/xchem-fragalysis-2/maxwin/BulkDock/OUTPUTS/openbind_a71ev2a_c2_elabs_1LSYIDY.sdf']

>  <name>  (155) 
P544362

>  <ref_pdb>  (155) 
A0884a

>  <subsites>  (155) 
None

>  <HIPPO Pose ID>  (155) 
544362

>  <ref_mols>  (155) 
A0884a

>  <HIPPO Compound ID>  (155) 
382268

>  <tags>  (155) 
openbind_a71ev2a_c2_elabs,syndirella_product,openbind_a71ev2a_c2_elabs_fragonly_scored_top80percent,openbind_a71ev2a_c2_elabs_scored,BulkDock Fragalysis export,openbind_a71ev2a_c2_elabs_scored_top80percent,openbind_a71ev2a_c2_elabs_activefrags_only_scored_5.2plus,syndirella_placed

>  <smina_score_min>  (155) 
-7.072

$$$$
P544363
     RDKit          3D

 20 21  0  0  0  0  0  0  0  0999 V2000
    5.0407   16.0905   27.1969 C   0  0  0  0  0  0  0  0  0  0  0  0
    4.2088   15.0338   26.4707 C   0  0  0  0  0  0  0  0  0  0  0  0
    3.6960   15.5238   25.1165 C   0  0  0  0  0  0  0  0  0  0  0  0
    2.5903   14.7295   27.5994 Br  0  0  0  0  0  0  0  0  0  0  0  0
    4.9548   13.6647   26.3587 C   0  0  0  0  0  0  0  0  0  0  0  0
    4.5580   12.6762   26.8502 O   0  0  0  0  0  0  0  0  0  0  0  0
    6.2382   13.9249   25.4944 N   0  0  0  0  0  0  0  0  0  0  0  0
    7.1934   13.0381   25.0065 C   0  0  0  0  0  0  0  0  0  0  0  0
    7.1340   11.6776   25.2962 C   0  0  0  0  0  0  0  0  0  0  0  0
    8.0623   10.8104   24.7305 C   0  0  0  0  0  0  0  0  0  0  0  0
    9.0703   11.3028   23.9001 C   0  0  0  0  0  0  0  0  0  0  0  0
   10.0316   10.1178   23.1223 Cl  0  0  0  0  0  0  0  0  0  0  0  0
    9.1819   12.6809   23.6463 C   0  0  0  0  0  0  0  0  0  0  0  0
   10.2468   13.2173   22.8781 N   0  0  0  0  0  0  0  0  0  0  0  0
   10.0593   14.2129   21.8401 C   0  0  0  0  0  0  0  0  0  0  0  0
   11.4750   14.6430   21.4834 C   0  0  0  0  0  0  0  0  0  0  0  0
   12.2144   14.3234   22.6655 N   0  0  0  0  0  0  0  0  0  0  0  0
   11.4854   13.4923   23.5013 C   0  0  0  0  0  0  0  0  0  0  0  0
   11.8604   13.1507   24.6099 O   0  0  0  0  0  0  0  0  0  0  0  0
    8.2153   13.5361   24.1909 C   0  0  0  0  0  0  0  0  0  0  0  0
  1  2  1  0
  2  3  1  0
  2  4  1  0
  2  5  1  0
  5  6  2  0
  5  7  1  0
  7  8  1  0
  8  9  2  0
  9 10  1  0
 10 11  2  0
 11 12  1  0
 11 13  1  0
 13 14  1  0
 14 15  1  0
 15 16  1  0
 16 17  1  0
 17 18  1  0
 18 19  2  0
 13 20  2  0
 20  8  1  0
 18 14  1  0
M  END
>  <alias>  (156) 
None

>  <rmsd(smina/fragmenstein)>  (156) 
0.526

>  <smiles>  (156) 
CC(C)(Br)C(=O)Nc1ccc(Cl)c(N2CCNC2=O)c1

>  <gnina_score>  (156) 
5.299

>  <inspiration_score>  (156) 
None

>  <energy_score>  (156) 
-13.373094

>  <distance_score>  (156) 
1.589044

>  <gnina_score_min>  (156) 
5.313

>  <inchikey>  (156) 
XLUAGBLBGZASQV-UHFFFAOYSA-N

>  <exports>  (156) 
['/opt/xchem-fragalysis-2/maxwin/BulkDock/OUTPUTS/openbind_a71ev2a_c2_elabs_1LOUU54.sdf', '/opt/xchem-fragalysis-2/maxwin/BulkDock/OUTPUTS/openbind_a71ev2a_c2_elabs_1LSYIDY.sdf']

>  <name>  (156) 
P544363

>  <ref_pdb>  (156) 
A0884a

>  <subsites>  (156) 
None

>  <HIPPO Pose ID>  (156) 
544363

>  <ref_mols>  (156) 
A0884a

>  <HIPPO Compound ID>  (156) 
382270

>  <tags>  (156) 
openbind_a71ev2a_c2_elabs,syndirella_product,openbind_a71ev2a_c2_elabs_fragonly_scored_top80percent,openbind_a71ev2a_c2_elabs_scored,BulkDock Fragalysis export,openbind_a71ev2a_c2_elabs_scored_top80percent,openbind_a71ev2a_c2_elabs_activefrags_only_scored_5.2plus,syndirella_placed

>  <smina_score_min>  (156) 
-6.212

$$$$
P544364
     RDKit          3D

 20 21  0  0  0  0  0  0  0  0999 V2000
    5.4393   10.3322   28.4812 C   0  0  0  0  0  0  0  0  0  0  0  0
    5.4714   11.8469   28.3051 C   0  0  0  0  0  0  0  0  0  0  0  0
    5.8179   12.4905   29.6594 C   0  0  0  0  0  0  0  0  0  0  0  0
    3.6516   12.4554   27.8541 Br  0  0  0  0  0  0  0  0  0  0  0  0
    6.4031   12.4615   27.2043 C   0  0  0  0  0  0  0  0  0  0  0  0
    6.7535   13.5767   27.3028 O   0  0  0  0  0  0  0  0  0  0  0  0
    6.7566   11.3800   26.1309 N   0  0  0  0  0  0  0  0  0  0  0  0
    7.6502   11.4246   25.0618 C   0  0  0  0  0  0  0  0  0  0  0  0
    8.2070   12.6103   24.6331 C   0  0  0  0  0  0  0  0  0  0  0  0
    9.2665   12.6004   23.7058 C   0  0  0  0  0  0  0  0  0  0  0  0
   10.1184   13.7150   23.7377 N   0  0  0  0  0  0  0  0  0  0  0  0
   10.5963   13.9958   25.0666 C   0  0  0  0  0  0  0  0  0  0  0  0
   11.9693   14.5342   24.9130 C   0  0  0  0  0  0  0  0  0  0  0  0
   12.1294   14.6891   23.5059 N   0  0  0  0  0  0  0  0  0  0  0  0
   11.1162   14.0547   22.8207 C   0  0  0  0  0  0  0  0  0  0  0  0
   11.1785   13.8612   21.6252 O   0  0  0  0  0  0  0  0  0  0  0  0
    9.6846   11.4140   23.1130 C   0  0  0  0  0  0  0  0  0  0  0  0
    9.1050   10.2224   23.5150 C   0  0  0  0  0  0  0  0  0  0  0  0
    8.1107   10.2491   24.4864 C   0  0  0  0  0  0  0  0  0  0  0  0
    7.6097    9.0919   24.9041 F   0  0  0  0  0  0  0  0  0  0  0  0
  1  2  1  0
  2  3  1  0
  2  4  1  0
  2  5  1  0
  5  6  2  0
  5  7  1  0
  7  8  1  0
  8  9  2  0
  9 10  1  0
 10 11  1  0
 11 12  1  0
 12 13  1  0
 13 14  1  0
 14 15  1  0
 15 16  2  0
 10 17  2  0
 17 18  1  0
 18 19  2  0
 19 20  1  0
 19  8  1  0
 15 11  1  0
M  END
>  <alias>  (157) 
None

>  <rmsd(smina/fragmenstein)>  (157) 
1.816

>  <smiles>  (157) 
CC(C)(Br)C(=O)Nc1cc(N2CCNC2=O)ccc1F

>  <gnina_score>  (157) 
5.035

>  <inspiration_score>  (157) 
None

>  <energy_score>  (157) 
-26.785374

>  <distance_score>  (157) 
1.127642

>  <gnina_score_min>  (157) 
5.397

>  <inchikey>  (157) 
VBQLACVFBSKJSO-UHFFFAOYSA-N

>  <exports>  (157) 
['/opt/xchem-fragalysis-2/maxwin/BulkDock/OUTPUTS/openbind_a71ev2a_c2_elabs_1LOUU54.sdf', '/opt/xchem-fragalysis-2/maxwin/BulkDock/OUTPUTS/openbind_a71ev2a_c2_elabs_1LSYIDY.sdf']

>  <name>  (157) 
P544364

>  <ref_pdb>  (157) 
A0884a

>  <subsites>  (157) 
None

>  <HIPPO Pose ID>  (157) 
544364

>  <ref_mols>  (157) 
A0884a

>  <HIPPO Compound ID>  (157) 
382274

>  <tags>  (157) 
openbind_a71ev2a_c2_elabs,syndirella_product,openbind_a71ev2a_c2_elabs_fragonly_scored_top80percent,openbind_a71ev2a_c2_elabs_scored,BulkDock Fragalysis export,openbind_a71ev2a_c2_elabs_scored_top80percent,openbind_a71ev2a_c2_elabs_activefrags_only_scored_5.2plus,syndirella_placed

>  <smina_score_min>  (157) 
-6.812

$$$$
P544365
     RDKit          3D

 20 21  0  0  0  0  0  0  0  0999 V2000
    3.9605   15.1539   28.1152 C   0  0  0  0  0  0  0  0  0  0  0  0
    4.9322   15.1833   26.9331 C   0  0  0  0  0  0  0  0  0  0  0  0
    5.9171   16.3389   27.0864 C   0  0  0  0  0  0  0  0  0  0  0  0
    3.8542   15.4653   25.3093 Br  0  0  0  0  0  0  0  0  0  0  0  0
    5.6783   13.8307   26.7928 C   0  0  0  0  0  0  0  0  0  0  0  0
    5.6779   13.0375   27.6572 O   0  0  0  0  0  0  0  0  0  0  0  0
    6.4268   13.8307   25.4158 N   0  0  0  0  0  0  0  0  0  0  0  0
    7.3670   12.9285   24.8886 C   0  0  0  0  0  0  0  0  0  0  0  0
    8.2866   13.4941   23.9899 C   0  0  0  0  0  0  0  0  0  0  0  0
    9.3546   12.7479   23.4861 C   0  0  0  0  0  0  0  0  0  0  0  0
   10.3910   13.3527   22.7588 N   0  0  0  0  0  0  0  0  0  0  0  0
   10.1912   14.3479   21.7323 C   0  0  0  0  0  0  0  0  0  0  0  0
   11.6090   14.7535   21.3610 C   0  0  0  0  0  0  0  0  0  0  0  0
   12.3598   14.4400   22.5387 N   0  0  0  0  0  0  0  0  0  0  0  0
   11.6459   13.5825   23.3620 C   0  0  0  0  0  0  0  0  0  0  0  0
   12.0468   13.1816   24.4414 O   0  0  0  0  0  0  0  0  0  0  0  0
    9.4322   11.3852   23.7575 C   0  0  0  0  0  0  0  0  0  0  0  0
    8.4694   10.7875   24.5651 C   0  0  0  0  0  0  0  0  0  0  0  0
    7.4676   11.5584   25.1715 C   0  0  0  0  0  0  0  0  0  0  0  0
    6.3667   10.7061   26.1769 Cl  0  0  0  0  0  0  0  0  0  0  0  0
  1  2  1  0
  2  3  1  0
  2  4  1  0
  2  5  1  0
  5  6  2  0
  5  7  1  0
  7  8  1  0
  8  9  2  0
  9 10  1  0
 10 11  1  0
 11 12  1  0
 12 13  1  0
 13 14  1  0
 14 15  1  0
 15 16  2  0
 10 17  2  0
 17 18  1  0
 18 19  2  0
 19 20  1  0
 19  8  1  0
 15 11  1  0
M  END
>  <alias>  (158) 
None

>  <rmsd(smina/fragmenstein)>  (158) 
0.729

>  <smiles>  (158) 
CC(C)(Br)C(=O)Nc1cc(N2CCNC2=O)ccc1Cl

>  <gnina_score>  (158) 
5.171

>  <inspiration_score>  (158) 
None

>  <energy_score>  (158) 
-23.988405

>  <distance_score>  (158) 
1.505906

>  <gnina_score_min>  (158) 
5.313

>  <inchikey>  (158) 
BGRNNBNGVAQNBX-UHFFFAOYSA-N

>  <exports>  (158) 
['/opt/xchem-fragalysis-2/maxwin/BulkDock/OUTPUTS/openbind_a71ev2a_c2_elabs_1LOUU54.sdf', '/opt/xchem-fragalysis-2/maxwin/BulkDock/OUTPUTS/openbind_a71ev2a_c2_elabs_1LSYIDY.sdf']

>  <name>  (158) 
P544365

>  <ref_pdb>  (158) 
A0884a

>  <subsites>  (158) 
None

>  <HIPPO Pose ID>  (158) 
544365

>  <ref_mols>  (158) 
A0884a

>  <HIPPO Compound ID>  (158) 
382275

>  <tags>  (158) 
openbind_a71ev2a_c2_elabs,syndirella_product,openbind_a71ev2a_c2_elabs_fragonly_scored_top80percent,openbind_a71ev2a_c2_elabs_scored,BulkDock Fragalysis export,openbind_a71ev2a_c2_elabs_scored_top80percent,openbind_a71ev2a_c2_elabs_activefrags_only_scored_5.2plus,syndirella_placed

>  <smina_score_min>  (158) 
-6.505

$$$$
P544366
     RDKit          3D

 20 21  0  0  0  0  0  0  0  0999 V2000
    6.4195   10.8275   25.9930 C   0  0  0  0  0  0  0  0  0  0  0  0
    7.3474   11.6638   25.1735 C   0  0  0  0  0  0  0  0  0  0  0  0
    8.3770   10.9932   24.4680 C   0  0  0  0  0  0  0  0  0  0  0  0
    9.3520   11.6990   23.7642 C   0  0  0  0  0  0  0  0  0  0  0  0
    9.2999   13.0888   23.7593 C   0  0  0  0  0  0  0  0  0  0  0  0
   10.4627   13.8576   23.6263 N   0  0  0  0  0  0  0  0  0  0  0  0
   11.4622   13.7539   24.6614 C   0  0  0  0  0  0  0  0  0  0  0  0
   12.7158   13.4998   23.8837 C   0  0  0  0  0  0  0  0  0  0  0  0
   12.4681   14.2372   22.6885 N   0  0  0  0  0  0  0  0  0  0  0  0
   11.1034   14.1694   22.4214 C   0  0  0  0  0  0  0  0  0  0  0  0
   10.6151   14.3614   21.3268 O   0  0  0  0  0  0  0  0  0  0  0  0
    8.2204   13.7453   24.3403 C   0  0  0  0  0  0  0  0  0  0  0  0
    7.2516   13.0591   25.0782 C   0  0  0  0  0  0  0  0  0  0  0  0
    6.3154   13.9182   25.6710 N   0  0  0  0  0  0  0  0  0  0  0  0
    5.3897   13.7086   26.9135 C   0  0  0  0  0  0  0  0  0  0  0  0
    5.2160   12.7603   27.5789 O   0  0  0  0  0  0  0  0  0  0  0  0
    4.6655   15.0496   27.1448 C   0  0  1  0  0  0  0  0  0  0  0  0
    3.5425   14.8915   28.1743 C   0  0  0  0  0  0  0  0  0  0  0  0
    5.6143   16.1920   27.5065 C   0  0  0  0  0  0  0  0  0  0  0  0
    6.6887   15.8285   29.0920 Br  0  0  0  0  0  0  0  0  0  0  0  0
  1  2  1  0
  2  3  2  0
  3  4  1  0
  4  5  2  0
  5  6  1  0
  6  7  1  0
  7  8  1  0
  8  9  1  0
  9 10  1  0
 10 11  2  0
  5 12  1  0
 12 13  2  0
 13 14  1  0
 14 15  1  0
 15 16  2  0
 15 17  1  0
 17 18  1  1
 17 19  1  0
 19 20  1  0
 13  2  1  0
 10  6  1  0
M  END
>  <alias>  (159) 
None

>  <rmsd(smina/fragmenstein)>  (159) 
1.769

>  <smiles>  (159) 
Cc1ccc(N2CCNC2=O)cc1NC(=O)[C@@H](C)CBr

>  <gnina_score>  (159) 
5.082

>  <inspiration_score>  (159) 
None

>  <energy_score>  (159) 
-18.565448

>  <distance_score>  (159) 
1.759515

>  <gnina_score_min>  (159) 
5.253

>  <inchikey>  (159) 
SANHWYRSIUBEDU-JTQLQIEISA-N

>  <exports>  (159) 
['/opt/xchem-fragalysis-2/maxwin/BulkDock/OUTPUTS/openbind_a71ev2a_c2_elabs_1LOUU54.sdf', '/opt/xchem-fragalysis-2/maxwin/BulkDock/OUTPUTS/openbind_a71ev2a_c2_elabs_1LSYIDY.sdf']

>  <name>  (159) 
P544366

>  <ref_pdb>  (159) 
A0884a

>  <subsites>  (159) 
None

>  <HIPPO Pose ID>  (159) 
544366

>  <ref_mols>  (159) 
A0884a

>  <HIPPO Compound ID>  (159) 
382285

>  <tags>  (159) 
openbind_a71ev2a_c2_elabs,syndirella_product,openbind_a71ev2a_c2_elabs_fragonly_scored_top80percent,openbind_a71ev2a_c2_elabs_scored,BulkDock Fragalysis export,openbind_a71ev2a_c2_elabs_scored_top80percent,openbind_a71ev2a_c2_elabs_activefrags_only_scored_5.2plus,syndirella_placed

>  <smina_score_min>  (159) 
-6.232

$$$$
P544367
     RDKit          3D

 20 21  0  0  0  0  0  0  0  0999 V2000
    4.3547   15.8349   26.5938 C   0  0  0  0  0  0  0  0  0  0  0  0
    4.7027   14.8614   27.7184 C   0  0  2  0  0  0  0  0  0  0  0  0
    5.5363   15.4423   28.8545 C   0  0  0  0  0  0  0  0  0  0  0  0
    7.1968   16.2936   28.2954 Br  0  0  0  0  0  0  0  0  0  0  0  0
    5.2457   13.5142   27.2101 C   0  0  0  0  0  0  0  0  0  0  0  0
    4.7121   12.5047   27.4700 O   0  0  0  0  0  0  0  0  0  0  0  0
    6.5385   13.7892   26.3869 N   0  0  0  0  0  0  0  0  0  0  0  0
    7.3506   12.9221   25.6663 C   0  0  0  0  0  0  0  0  0  0  0  0
    7.0827   11.5610   25.5846 C   0  0  0  0  0  0  0  0  0  0  0  0
    7.9037   10.7422   24.8154 C   0  0  0  0  0  0  0  0  0  0  0  0
    8.9701   11.2790   24.0895 C   0  0  0  0  0  0  0  0  0  0  0  0
    9.8740   10.1276   23.1895 Cl  0  0  0  0  0  0  0  0  0  0  0  0
    9.2758   12.6493   24.1950 C   0  0  0  0  0  0  0  0  0  0  0  0
   10.3086   13.3124   23.5039 N   0  0  0  0  0  0  0  0  0  0  0  0
   10.5438   13.1697   22.1078 C   0  0  0  0  0  0  0  0  0  0  0  0
   11.6467   14.1574   21.7924 C   0  0  0  0  0  0  0  0  0  0  0  0
   12.2755   14.3181   23.0623 N   0  0  0  0  0  0  0  0  0  0  0  0
   11.4077   13.9521   24.0875 C   0  0  0  0  0  0  0  0  0  0  0  0
   11.6083   14.1563   25.2711 O   0  0  0  0  0  0  0  0  0  0  0  0
    8.4583   13.4539   24.9996 C   0  0  0  0  0  0  0  0  0  0  0  0
  2  1  1  6
  2  3  1  0
  3  4  1  0
  2  5  1  0
  5  6  2  0
  5  7  1  0
  7  8  1  0
  8  9  2  0
  9 10  1  0
 10 11  2  0
 11 12  1  0
 11 13  1  0
 13 14  1  0
 14 15  1  0
 15 16  1  0
 16 17  1  0
 17 18  1  0
 18 19  2  0
 13 20  2  0
 20  8  1  0
 18 14  1  0
M  END
>  <alias>  (160) 
None

>  <rmsd(smina/fragmenstein)>  (160) 
0.83

>  <smiles>  (160) 
C[C@H](CBr)C(=O)Nc1ccc(Cl)c(N2CCNC2=O)c1

>  <gnina_score>  (160) 
5.104

>  <inspiration_score>  (160) 
None

>  <energy_score>  (160) 
-39.39711

>  <distance_score>  (160) 
1.543104

>  <gnina_score_min>  (160) 
5.275

>  <inchikey>  (160) 
KVHYYDOHXYFSIM-MRVPVSSYSA-N

>  <exports>  (160) 
['/opt/xchem-fragalysis-2/maxwin/BulkDock/OUTPUTS/openbind_a71ev2a_c2_elabs_1LOUU54.sdf', '/opt/xchem-fragalysis-2/maxwin/BulkDock/OUTPUTS/openbind_a71ev2a_c2_elabs_1LSYIDY.sdf']

>  <name>  (160) 
P544367

>  <ref_pdb>  (160) 
A0884a

>  <subsites>  (160) 
None

>  <HIPPO Pose ID>  (160) 
544367

>  <ref_mols>  (160) 
A0884a

>  <HIPPO Compound ID>  (160) 
382287

>  <tags>  (160) 
openbind_a71ev2a_c2_elabs,syndirella_product,openbind_a71ev2a_c2_elabs_fragonly_scored_top80percent,openbind_a71ev2a_c2_elabs_scored,BulkDock Fragalysis export,openbind_a71ev2a_c2_elabs_scored_top80percent,openbind_a71ev2a_c2_elabs_activefrags_only_scored_5.2plus,syndirella_placed

>  <smina_score_min>  (160) 
-5.9

$$$$
P544368
     RDKit          3D

 20 21  0  0  0  0  0  0  0  0999 V2000
    5.0306   15.6486   27.1417 C   0  0  0  0  0  0  0  0  0  0  0  0
    6.3265   15.3160   27.8790 C   0  0  2  0  0  0  0  0  0  0  0  0
    6.7409   16.3590   28.9170 C   0  0  0  0  0  0  0  0  0  0  0  0
    6.7628   18.1968   28.2861 Br  0  0  0  0  0  0  0  0  0  0  0  0
    7.4637   15.0055   26.8897 C   0  0  0  0  0  0  0  0  0  0  0  0
    8.3547   15.7339   26.6862 O   0  0  0  0  0  0  0  0  0  0  0  0
    7.1743   13.5803   26.3241 N   0  0  0  0  0  0  0  0  0  0  0  0
    7.8519   12.8339   25.3567 C   0  0  0  0  0  0  0  0  0  0  0  0
    8.8472   13.4109   24.5733 C   0  0  0  0  0  0  0  0  0  0  0  0
    9.5757   12.6268   23.6754 C   0  0  0  0  0  0  0  0  0  0  0  0
   10.5810   13.1910   22.8739 N   0  0  0  0  0  0  0  0  0  0  0  0
   10.2595   14.1987   21.8801 C   0  0  0  0  0  0  0  0  0  0  0  0
   11.6178   14.7362   21.4636 C   0  0  0  0  0  0  0  0  0  0  0  0
   12.4361   14.4559   22.6032 N   0  0  0  0  0  0  0  0  0  0  0  0
   11.8017   13.5804   23.4684 C   0  0  0  0  0  0  0  0  0  0  0  0
   12.2359   13.2433   24.5568 O   0  0  0  0  0  0  0  0  0  0  0  0
    9.3492   11.2518   23.5927 C   0  0  0  0  0  0  0  0  0  0  0  0
    8.3535   10.6674   24.3746 C   0  0  0  0  0  0  0  0  0  0  0  0
    7.5849   11.4636   25.2272 C   0  0  0  0  0  0  0  0  0  0  0  0
    6.3737   10.7297   26.2165 Cl  0  0  0  0  0  0  0  0  0  0  0  0
  2  1  1  6
  2  3  1  0
  3  4  1  0
  2  5  1  0
  5  6  2  0
  5  7  1  0
  7  8  1  0
  8  9  2  0
  9 10  1  0
 10 11  1  0
 11 12  1  0
 12 13  1  0
 13 14  1  0
 14 15  1  0
 15 16  2  0
 10 17  2  0
 17 18  1  0
 18 19  2  0
 19 20  1  0
 19  8  1  0
 15 11  1  0
M  END
>  <alias>  (161) 
None

>  <rmsd(smina/fragmenstein)>  (161) 
0.465

>  <smiles>  (161) 
C[C@H](CBr)C(=O)Nc1cc(N2CCNC2=O)ccc1Cl

>  <gnina_score>  (161) 
5.24

>  <inspiration_score>  (161) 
None

>  <energy_score>  (161) 
-16.852082

>  <distance_score>  (161) 
1.95347

>  <gnina_score_min>  (161) 
5.366

>  <inchikey>  (161) 
LMFMURTYPXKVMK-MRVPVSSYSA-N

>  <exports>  (161) 
['/opt/xchem-fragalysis-2/maxwin/BulkDock/OUTPUTS/openbind_a71ev2a_c2_elabs_1LOUU54.sdf', '/opt/xchem-fragalysis-2/maxwin/BulkDock/OUTPUTS/openbind_a71ev2a_c2_elabs_1LSYIDY.sdf']

>  <name>  (161) 
P544368

>  <ref_pdb>  (161) 
A0884a

>  <subsites>  (161) 
None

>  <HIPPO Pose ID>  (161) 
544368

>  <ref_mols>  (161) 
A0884a

>  <HIPPO Compound ID>  (161) 
382292

>  <tags>  (161) 
openbind_a71ev2a_c2_elabs,syndirella_product,openbind_a71ev2a_c2_elabs_fragonly_scored_top80percent,openbind_a71ev2a_c2_elabs_scored,BulkDock Fragalysis export,openbind_a71ev2a_c2_elabs_scored_top80percent,openbind_a71ev2a_c2_elabs_activefrags_only_scored_5.2plus,syndirella_placed

>  <smina_score_min>  (161) 
-6.231

$$$$
P544383
     RDKit          3D

 20 21  0  0  0  0  0  0  0  0999 V2000
    3.4927   17.2555   25.9418 C   0  0  0  0  0  0  0  0  0  0  0  0
    4.0425   15.8959   25.5391 C   0  0  0  0  0  0  0  0  0  0  0  0
    4.8636   15.2725   26.6606 C   0  0  2  0  0  0  0  0  0  0  0  0
    5.9923   16.0271   26.8460 F   0  0  0  0  0  0  0  0  0  0  0  0
    5.2274   13.8253   26.3175 C   0  0  0  0  0  0  0  0  0  0  0  0
    4.5444   12.9065   26.5681 O   0  0  0  0  0  0  0  0  0  0  0  0
    6.5945   13.8955   25.5568 N   0  0  0  0  0  0  0  0  0  0  0  0
    7.4149   12.8659   25.0518 C   0  0  0  0  0  0  0  0  0  0  0  0
    8.4801   13.3357   24.2639 C   0  0  0  0  0  0  0  0  0  0  0  0
    9.4375   12.4719   23.7178 C   0  0  0  0  0  0  0  0  0  0  0  0
   10.5739   12.9851   23.0718 N   0  0  0  0  0  0  0  0  0  0  0  0
   11.7595   13.2575   23.8567 C   0  0  0  0  0  0  0  0  0  0  0  0
   12.3375   14.5122   23.2427 C   0  0  0  0  0  0  0  0  0  0  0  0
   11.6305   14.6959   22.0340 N   0  0  0  0  0  0  0  0  0  0  0  0
   10.4684   13.9672   22.0806 C   0  0  0  0  0  0  0  0  0  0  0  0
    9.5018   14.2397   21.3953 O   0  0  0  0  0  0  0  0  0  0  0  0
    9.3082   11.1015   23.8791 C   0  0  0  0  0  0  0  0  0  0  0  0
    8.2516   10.6129   24.6418 C   0  0  0  0  0  0  0  0  0  0  0  0
    7.3352   11.4829   25.2661 C   0  0  0  0  0  0  0  0  0  0  0  0
    6.2786   10.7341   26.3973 Cl  0  0  0  0  0  0  0  0  0  0  0  0
  1  2  1  0
  2  3  1  0
  3  4  1  6
  3  5  1  0
  5  6  2  0
  5  7  1  0
  7  8  1  0
  8  9  2  0
  9 10  1  0
 10 11  1  0
 11 12  1  0
 12 13  1  0
 13 14  1  0
 14 15  1  0
 15 16  2  0
 10 17  2  0
 17 18  1  0
 18 19  2  0
 19 20  1  0
 19  8  1  0
 15 11  1  0
M  END
>  <alias>  (162) 
None

>  <rmsd(smina/fragmenstein)>  (162) 
0.654

>  <smiles>  (162) 
CC[C@H](F)C(=O)Nc1cc(N2CCNC2=O)ccc1Cl

>  <gnina_score>  (162) 
5.385

>  <inspiration_score>  (162) 
None

>  <energy_score>  (162) 
-16.744603

>  <distance_score>  (162) 
1.842965

>  <gnina_score_min>  (162) 
5.331

>  <inchikey>  (162) 
UGJWJRWINDLEJR-JTQLQIEISA-N

>  <exports>  (162) 
['/opt/xchem-fragalysis-2/maxwin/BulkDock/OUTPUTS/openbind_a71ev2a_c2_elabs_1LOUU54.sdf', '/opt/xchem-fragalysis-2/maxwin/BulkDock/OUTPUTS/openbind_a71ev2a_c2_elabs_1LSYIDY.sdf']

>  <name>  (162) 
P544383

>  <ref_pdb>  (162) 
A0884a

>  <subsites>  (162) 
None

>  <HIPPO Pose ID>  (162) 
544383

>  <ref_mols>  (162) 
A0884a

>  <HIPPO Compound ID>  (162) 
382307

>  <tags>  (162) 
openbind_a71ev2a_c2_elabs,syndirella_product,openbind_a71ev2a_c2_elabs_fragonly_scored_top80percent,openbind_a71ev2a_c2_elabs_scored,BulkDock Fragalysis export,openbind_a71ev2a_c2_elabs_scored_top80percent,openbind_a71ev2a_c2_elabs_activefrags_only_scored_5.2plus,syndirella_placed

>  <smina_score_min>  (162) 
-6.074

$$$$
P544392
     RDKit          3D

 20 21  0  0  0  0  0  0  0  0999 V2000
    5.8347   11.8100   29.2922 C   0  0  0  0  0  0  0  0  0  0  0  0
    5.1866   11.2821   27.9992 C   0  0  2  0  0  0  0  0  0  0  0  0
    5.0775    9.7671   28.0428 C   0  0  0  0  0  0  0  0  0  0  0  0
    3.7287    9.1674   29.3203 Br  0  0  0  0  0  0  0  0  0  0  0  0
    5.9486   11.9530   26.8190 C   0  0  0  0  0  0  0  0  0  0  0  0
    5.9289   13.1223   26.7453 O   0  0  0  0  0  0  0  0  0  0  0  0
    6.7173   10.9006   25.9644 N   0  0  0  0  0  0  0  0  0  0  0  0
    7.6541   11.0713   24.9483 C   0  0  0  0  0  0  0  0  0  0  0  0
    8.2786    9.9540   24.4175 C   0  0  0  0  0  0  0  0  0  0  0  0
    9.2961   10.0707   23.4727 C   0  0  0  0  0  0  0  0  0  0  0  0
    9.7461   11.3300   23.1015 C   0  0  0  0  0  0  0  0  0  0  0  0
    9.1674   12.4603   23.6673 C   0  0  0  0  0  0  0  0  0  0  0  0
    9.9019   13.6711   23.7502 N   0  0  0  0  0  0  0  0  0  0  0  0
   10.9018   14.0754   22.8481 C   0  0  0  0  0  0  0  0  0  0  0  0
   10.9901   13.9029   21.6499 O   0  0  0  0  0  0  0  0  0  0  0  0
   11.8893   14.7432   23.5489 N   0  0  0  0  0  0  0  0  0  0  0  0
   11.7682   14.4933   24.9431 C   0  0  0  0  0  0  0  0  0  0  0  0
   10.3706   13.9459   25.0971 C   0  0  1  0  0  0  0  0  0  0  0  0
    9.4126   14.7705   25.9656 C   0  0  0  0  0  0  0  0  0  0  0  0
    8.0552   12.3229   24.5146 C   0  0  0  0  0  0  0  0  0  0  0  0
  2  1  1  1
  2  3  1  0
  3  4  1  0
  2  5  1  0
  5  6  2  0
  5  7  1  0
  7  8  1  0
  8  9  2  0
  9 10  1  0
 10 11  2  0
 11 12  1  0
 12 13  1  0
 13 14  1  0
 14 15  2  0
 14 16  1  0
 16 17  1  0
 17 18  1  0
 18 19  1  6
 12 20  2  0
 20  8  1  0
 18 13  1  0
M  END
>  <alias>  (163) 
None

>  <rmsd(smina/fragmenstein)>  (163) 
1.846

>  <smiles>  (163) 
C[C@H](CBr)C(=O)Nc1cccc(N2C(=O)NC[C@H]2C)c1

>  <gnina_score>  (163) 
4.939

>  <inspiration_score>  (163) 
None

>  <energy_score>  (163) 
-30.80789

>  <distance_score>  (163) 
1.120909

>  <gnina_score_min>  (163) 
5.235

>  <inchikey>  (163) 
FIQIOFGRFDSTGW-NXEZZACHSA-N

>  <exports>  (163) 
['/opt/xchem-fragalysis-2/maxwin/BulkDock/OUTPUTS/openbind_a71ev2a_c2_elabs_1LOUU54.sdf', '/opt/xchem-fragalysis-2/maxwin/BulkDock/OUTPUTS/openbind_a71ev2a_c2_elabs_1LSYIDY.sdf']

>  <name>  (163) 
P544392

>  <ref_pdb>  (163) 
A0884a

>  <subsites>  (163) 
None

>  <HIPPO Pose ID>  (163) 
544392

>  <ref_mols>  (163) 
A0884a

>  <HIPPO Compound ID>  (163) 
382318

>  <tags>  (163) 
openbind_a71ev2a_c2_elabs,syndirella_product,openbind_a71ev2a_c2_elabs_fragonly_scored_top80percent,openbind_a71ev2a_c2_elabs_scored,BulkDock Fragalysis export,openbind_a71ev2a_c2_elabs_scored_top80percent,openbind_a71ev2a_c2_elabs_activefrags_only_scored_5.2plus,syndirella_placed

>  <smina_score_min>  (163) 
-6.485

$$$$
P544404
     RDKit          3D

 20 21  0  0  0  0  0  0  0  0999 V2000
    6.3240   10.9932   26.1624 C   0  0  0  0  0  0  0  0  0  0  0  0
    7.3994   11.5859   25.3059 C   0  0  0  0  0  0  0  0  0  0  0  0
    8.2810   10.6838   24.6630 C   0  0  0  0  0  0  0  0  0  0  0  0
    9.3396   11.1287   23.8748 C   0  0  0  0  0  0  0  0  0  0  0  0
    9.5012   12.4900   23.6811 C   0  0  0  0  0  0  0  0  0  0  0  0
   10.6421   12.9715   23.0155 N   0  0  0  0  0  0  0  0  0  0  0  0
   11.8240   13.2565   23.8062 C   0  0  0  0  0  0  0  0  0  0  0  0
   12.3771   14.5295   23.2095 C   0  0  0  0  0  0  0  0  0  0  0  0
   11.6854   14.7025   21.9906 N   0  0  0  0  0  0  0  0  0  0  0  0
   10.5302   13.9616   22.0309 C   0  0  0  0  0  0  0  0  0  0  0  0
    9.5617   14.2413   21.3498 O   0  0  0  0  0  0  0  0  0  0  0  0
    8.5913   13.3879   24.2434 C   0  0  0  0  0  0  0  0  0  0  0  0
    7.5677   12.9631   25.1014 C   0  0  0  0  0  0  0  0  0  0  0  0
    6.8610   14.0287   25.6844 N   0  0  0  0  0  0  0  0  0  0  0  0
    5.9362   14.0627   26.9278 C   0  0  0  0  0  0  0  0  0  0  0  0
    5.5580   13.1971   27.6132 O   0  0  0  0  0  0  0  0  0  0  0  0
    5.5440   15.4705   27.1556 C   0  0  0  0  0  0  0  0  0  0  0  0
    6.3707   16.3480   27.7411 C   0  0  0  0  0  0  0  0  0  0  0  0
    5.8005   18.1019   28.0894 Br  0  0  0  0  0  0  0  0  0  0  0  0
    8.1204   15.9617   28.2960 Br  0  0  0  0  0  0  0  0  0  0  0  0
  1  2  1  0
  2  3  2  0
  3  4  1  0
  4  5  2  0
  5  6  1  0
  6  7  1  0
  7  8  1  0
  8  9  1  0
  9 10  1  0
 10 11  2  0
  5 12  1  0
 12 13  2  0
 13 14  1  0
 14 15  1  0
 15 16  2  0
 15 17  1  0
 17 18  2  3
 18 19  1  0
 18 20  1  0
 13  2  1  0
 10  6  1  0
M  END
>  <alias>  (164) 
None

>  <rmsd(smina/fragmenstein)>  (164) 
0.739

>  <smiles>  (164) 
Cc1ccc(N2CCNC2=O)cc1NC(=O)C=C(Br)Br

>  <gnina_score>  (164) 
5.289

>  <inspiration_score>  (164) 
None

>  <energy_score>  (164) 
-28.097219

>  <distance_score>  (164) 
1.868111

>  <gnina_score_min>  (164) 
5.247

>  <inchikey>  (164) 
HTNGDNZIBOHRCH-UHFFFAOYSA-N

>  <exports>  (164) 
['/opt/xchem-fragalysis-2/maxwin/BulkDock/OUTPUTS/openbind_a71ev2a_c2_elabs_1LOUU54.sdf', '/opt/xchem-fragalysis-2/maxwin/BulkDock/OUTPUTS/openbind_a71ev2a_c2_elabs_1LSYIDY.sdf']

>  <name>  (164) 
P544404

>  <ref_pdb>  (164) 
A0884a

>  <subsites>  (164) 
None

>  <HIPPO Pose ID>  (164) 
544404

>  <ref_mols>  (164) 
A0884a

>  <HIPPO Compound ID>  (164) 
382342

>  <tags>  (164) 
openbind_a71ev2a_c2_elabs,syndirella_product,openbind_a71ev2a_c2_elabs_fragonly_scored_top80percent,openbind_a71ev2a_c2_elabs_scored,BulkDock Fragalysis export,openbind_a71ev2a_c2_elabs_scored_top80percent,openbind_a71ev2a_c2_elabs_activefrags_only_scored_5.2plus,syndirella_placed

>  <smina_score_min>  (164) 
-6.286

$$$$
P544405
     RDKit          3D

 20 21  0  0  0  0  0  0  0  0999 V2000
    4.5702   12.3085   27.3128 O   0  0  0  0  0  0  0  0  0  0  0  0
    5.0409   13.3456   27.0570 C   0  0  0  0  0  0  0  0  0  0  0  0
    4.4355   14.6393   27.4840 C   0  0  0  0  0  0  0  0  0  0  0  0
    3.1198   14.8521   27.6374 C   0  0  0  0  0  0  0  0  0  0  0  0
    1.7499   13.6282   27.2815 Br  0  0  0  0  0  0  0  0  0  0  0  0
    2.5198   16.5363   28.2287 Br  0  0  0  0  0  0  0  0  0  0  0  0
    6.3398   13.6974   26.2807 N   0  0  0  0  0  0  0  0  0  0  0  0
    7.2392   12.8769   25.6050 C   0  0  0  0  0  0  0  0  0  0  0  0
    7.0730   11.4972   25.5652 C   0  0  0  0  0  0  0  0  0  0  0  0
    7.9434   10.7182   24.8102 C   0  0  0  0  0  0  0  0  0  0  0  0
    8.9769   11.3068   24.0769 C   0  0  0  0  0  0  0  0  0  0  0  0
    9.9284   10.1943   23.1822 Cl  0  0  0  0  0  0  0  0  0  0  0  0
    9.1950   12.6955   24.1550 C   0  0  0  0  0  0  0  0  0  0  0  0
   10.1925   13.4231   23.4682 N   0  0  0  0  0  0  0  0  0  0  0  0
   10.4524   13.2811   22.0729 C   0  0  0  0  0  0  0  0  0  0  0  0
   11.6077   14.2200   21.7958 C   0  0  0  0  0  0  0  0  0  0  0  0
   12.2424   14.2863   23.0724 N   0  0  0  0  0  0  0  0  0  0  0  0
   11.3517   13.9278   24.0795 C   0  0  0  0  0  0  0  0  0  0  0  0
   11.5729   14.0456   25.2712 O   0  0  0  0  0  0  0  0  0  0  0  0
    8.3132   13.4650   24.9292 C   0  0  0  0  0  0  0  0  0  0  0  0
  1  2  2  0
  2  3  1  0
  3  4  2  3
  4  5  1  0
  4  6  1  0
  2  7  1  0
  7  8  1  0
  8  9  2  0
  9 10  1  0
 10 11  2  0
 11 12  1  0
 11 13  1  0
 13 14  1  0
 14 15  1  0
 15 16  1  0
 16 17  1  0
 17 18  1  0
 18 19  2  0
 13 20  2  0
 20  8  1  0
 18 14  1  0
M  END
>  <alias>  (165) 
None

>  <rmsd(smina/fragmenstein)>  (165) 
1.106

>  <smiles>  (165) 
O=C(C=C(Br)Br)Nc1ccc(Cl)c(N2CCNC2=O)c1

>  <gnina_score>  (165) 
5.057

>  <inspiration_score>  (165) 
None

>  <energy_score>  (165) 
-40.471159

>  <distance_score>  (165) 
1.522041

>  <gnina_score_min>  (165) 
5.264

>  <inchikey>  (165) 
MLSDTMIFUASVSL-UHFFFAOYSA-N

>  <exports>  (165) 
['/opt/xchem-fragalysis-2/maxwin/BulkDock/OUTPUTS/openbind_a71ev2a_c2_elabs_1LOUU54.sdf', '/opt/xchem-fragalysis-2/maxwin/BulkDock/OUTPUTS/openbind_a71ev2a_c2_elabs_1LSYIDY.sdf']

>  <name>  (165) 
P544405

>  <ref_pdb>  (165) 
A0884a

>  <subsites>  (165) 
None

>  <HIPPO Pose ID>  (165) 
544405

>  <ref_mols>  (165) 
A0884a

>  <HIPPO Compound ID>  (165) 
382344

>  <tags>  (165) 
openbind_a71ev2a_c2_elabs,syndirella_product,openbind_a71ev2a_c2_elabs_fragonly_scored_top80percent,openbind_a71ev2a_c2_elabs_scored,BulkDock Fragalysis export,openbind_a71ev2a_c2_elabs_scored_top80percent,openbind_a71ev2a_c2_elabs_activefrags_only_scored_5.2plus,syndirella_placed

>  <smina_score_min>  (165) 
-6.237

$$$$
P544407
     RDKit          3D

 20 21  0  0  0  0  0  0  0  0999 V2000
    8.0650   15.7688   26.4188 O   0  0  0  0  0  0  0  0  0  0  0  0
    7.2014   15.0107   26.6081 C   0  0  0  0  0  0  0  0  0  0  0  0
    6.0415   15.3704   27.4550 C   0  0  0  0  0  0  0  0  0  0  0  0
    5.7524   14.7764   28.6200 C   0  0  0  0  0  0  0  0  0  0  0  0
    4.2776   15.3496   29.6292 Br  0  0  0  0  0  0  0  0  0  0  0  0
    6.7313   13.3699   29.3756 Br  0  0  0  0  0  0  0  0  0  0  0  0
    6.9654   13.5986   26.0310 N   0  0  0  0  0  0  0  0  0  0  0  0
    7.7653   12.8143   25.2016 C   0  0  0  0  0  0  0  0  0  0  0  0
    8.7608   13.4039   24.4291 C   0  0  0  0  0  0  0  0  0  0  0  0
    9.5793   12.6154   23.6209 C   0  0  0  0  0  0  0  0  0  0  0  0
   10.5936   13.1965   22.8442 N   0  0  0  0  0  0  0  0  0  0  0  0
   10.2929   14.1944   21.8364 C   0  0  0  0  0  0  0  0  0  0  0  0
   11.6665   14.6996   21.4315 C   0  0  0  0  0  0  0  0  0  0  0  0
   12.4383   14.4895   22.6180 N   0  0  0  0  0  0  0  0  0  0  0  0
   11.7988   13.5954   23.4651 C   0  0  0  0  0  0  0  0  0  0  0  0
   12.2189   13.2630   24.5601 O   0  0  0  0  0  0  0  0  0  0  0  0
    9.4223   11.2277   23.6000 C   0  0  0  0  0  0  0  0  0  0  0  0
    8.4262   10.6304   24.3739 C   0  0  0  0  0  0  0  0  0  0  0  0
    7.5909   11.4261   25.1606 C   0  0  0  0  0  0  0  0  0  0  0  0
    6.4001   10.6872   26.1674 Cl  0  0  0  0  0  0  0  0  0  0  0  0
  1  2  2  0
  2  3  1  0
  3  4  2  3
  4  5  1  0
  4  6  1  0
  2  7  1  0
  7  8  1  0
  8  9  2  0
  9 10  1  0
 10 11  1  0
 11 12  1  0
 12 13  1  0
 13 14  1  0
 14 15  1  0
 15 16  2  0
 10 17  2  0
 17 18  1  0
 18 19  2  0
 19 20  1  0
 19  8  1  0
 15 11  1  0
M  END
>  <alias>  (166) 
None

>  <rmsd(smina/fragmenstein)>  (166) 
0.522

>  <smiles>  (166) 
O=C(C=C(Br)Br)Nc1cc(N2CCNC2=O)ccc1Cl

>  <gnina_score>  (166) 
5.243

>  <inspiration_score>  (166) 
None

>  <energy_score>  (166) 
-31.089098

>  <distance_score>  (166) 
1.902656

>  <gnina_score_min>  (166) 
5.381

>  <inchikey>  (166) 
VKGFSAKYJVJQOB-UHFFFAOYSA-N

>  <exports>  (166) 
['/opt/xchem-fragalysis-2/maxwin/BulkDock/OUTPUTS/openbind_a71ev2a_c2_elabs_1LOUU54.sdf', '/opt/xchem-fragalysis-2/maxwin/BulkDock/OUTPUTS/openbind_a71ev2a_c2_elabs_1LSYIDY.sdf']

>  <name>  (166) 
P544407

>  <ref_pdb>  (166) 
A0884a

>  <subsites>  (166) 
None

>  <HIPPO Pose ID>  (166) 
544407

>  <ref_mols>  (166) 
A0884a

>  <HIPPO Compound ID>  (166) 
382349

>  <tags>  (166) 
openbind_a71ev2a_c2_elabs,syndirella_product,openbind_a71ev2a_c2_elabs_fragonly_scored_top80percent,openbind_a71ev2a_c2_elabs_scored,BulkDock Fragalysis export,openbind_a71ev2a_c2_elabs_scored_top80percent,openbind_a71ev2a_c2_elabs_activefrags_only_scored_5.2plus,syndirella_placed

>  <smina_score_min>  (166) 
-6.457

$$$$
P544412
     RDKit          3D

 20 21  0  0  0  0  0  0  0  0999 V2000
    9.4583   14.8180   21.7929 O   0  0  0  0  0  0  0  0  0  0  0  0
   10.4074   14.3621   22.3968 C   0  0  0  0  0  0  0  0  0  0  0  0
   11.6617   14.9428   22.3915 N   0  0  0  0  0  0  0  0  0  0  0  0
   12.5897   13.9595   22.8204 C   0  0  0  0  0  0  0  0  0  0  0  0
   11.7639   13.1554   23.7947 C   0  0  0  0  0  0  0  0  0  0  0  0
   10.4635   13.2029   23.1763 N   0  0  0  0  0  0  0  0  0  0  0  0
    9.3555   12.5563   23.7446 C   0  0  0  0  0  0  0  0  0  0  0  0
    8.2529   13.2978   24.1747 C   0  0  0  0  0  0  0  0  0  0  0  0
    7.2294   12.6826   24.8963 C   0  0  0  0  0  0  0  0  0  0  0  0
    6.1918   13.4794   25.3622 N   0  0  0  0  0  0  0  0  0  0  0  0
    4.9819   13.1312   26.3036 C   0  0  0  0  0  0  0  0  0  0  0  0
    4.7300   12.1405   26.8839 O   0  0  0  0  0  0  0  0  0  0  0  0
    4.1091   14.4220   26.4275 C   0  0  0  0  0  0  0  0  0  0  0  0
    2.4584   13.9810   27.4022 Br  0  0  0  0  0  0  0  0  0  0  0  0
    5.1837   15.7073   27.4464 Br  0  0  0  0  0  0  0  0  0  0  0  0
    3.6717   15.0733   24.6378 Br  0  0  0  0  0  0  0  0  0  0  0  0
    7.2698   11.3083   25.1318 C   0  0  0  0  0  0  0  0  0  0  0  0
    8.3155   10.5483   24.6111 C   0  0  0  0  0  0  0  0  0  0  0  0
    9.3574   11.1756   23.9425 C   0  0  0  0  0  0  0  0  0  0  0  0
   10.3647   10.4223   23.4871 F   0  0  0  0  0  0  0  0  0  0  0  0
  1  2  2  0
  2  3  1  0
  3  4  1  0
  4  5  1  0
  5  6  1  0
  6  7  1  0
  7  8  2  0
  8  9  1  0
  9 10  1  0
 10 11  1  0
 11 12  2  0
 11 13  1  0
 13 14  1  0
 13 15  1  0
 13 16  1  0
  9 17  2  0
 17 18  1  0
 18 19  2  0
 19 20  1  0
  6  2  1  0
 19  7  1  0
M  END
>  <alias>  (167) 
None

>  <rmsd(smina/fragmenstein)>  (167) 
0.668

>  <smiles>  (167) 
O=C1NCCN1c1cc(NC(=O)C(Br)(Br)Br)ccc1F

>  <gnina_score>  (167) 
5.405

>  <inspiration_score>  (167) 
None

>  <energy_score>  (167) 
-29.104983

>  <distance_score>  (167) 
1.735574

>  <gnina_score_min>  (167) 
5.269

>  <inchikey>  (167) 
HKRAEEICXWQOAH-UHFFFAOYSA-N

>  <exports>  (167) 
['/opt/xchem-fragalysis-2/maxwin/BulkDock/OUTPUTS/openbind_a71ev2a_c2_elabs_1LOUU54.sdf', '/opt/xchem-fragalysis-2/maxwin/BulkDock/OUTPUTS/openbind_a71ev2a_c2_elabs_1LSYIDY.sdf']

>  <name>  (167) 
P544412

>  <ref_pdb>  (167) 
A0884a

>  <subsites>  (167) 
None

>  <HIPPO Pose ID>  (167) 
544412

>  <ref_mols>  (167) 
A0884a

>  <HIPPO Compound ID>  (167) 
382361

>  <tags>  (167) 
openbind_a71ev2a_c2_elabs,syndirella_product,openbind_a71ev2a_c2_elabs_fragonly_scored_top80percent,openbind_a71ev2a_c2_elabs_scored,BulkDock Fragalysis export,openbind_a71ev2a_c2_elabs_scored_top80percent,openbind_a71ev2a_c2_elabs_activefrags_only_scored_5.2plus,syndirella_placed

>  <smina_score_min>  (167) 
-6.577

$$$$
P544415
     RDKit          3D

 20 21  0  0  0  0  0  0  0  0999 V2000
    3.3236   13.8176   26.6078 C   0  0  0  0  0  0  0  0  0  0  0  0
    4.3742   14.0769   27.6739 C   0  0  0  0  0  0  0  0  0  0  0  0
    5.0006   12.7944   28.2256 C   0  0  2  0  0  0  0  0  0  0  0  0
    6.2651   13.2141   29.4301 Cl  0  0  0  0  0  0  0  0  0  0  0  0
    5.6474   11.8257   27.2118 C   0  0  0  0  0  0  0  0  0  0  0  0
    5.4004   10.6808   27.2140 O   0  0  0  0  0  0  0  0  0  0  0  0
    6.6735   12.6357   26.3626 N   0  0  0  0  0  0  0  0  0  0  0  0
    7.5059   12.2300   25.3151 C   0  0  0  0  0  0  0  0  0  0  0  0
    7.7094   10.8772   25.0444 C   0  0  0  0  0  0  0  0  0  0  0  0
    8.7036   10.4836   24.1469 C   0  0  0  0  0  0  0  0  0  0  0  0
    9.5060   11.4389   23.5291 C   0  0  0  0  0  0  0  0  0  0  0  0
    9.2786   12.7993   23.7543 C   0  0  0  0  0  0  0  0  0  0  0  0
   10.1633   13.7575   23.2112 N   0  0  0  0  0  0  0  0  0  0  0  0
    9.9794   14.2951   21.8800 C   0  0  0  0  0  0  0  0  0  0  0  0
   11.3373   14.8758   21.5114 C   0  0  0  0  0  0  0  0  0  0  0  0
   12.2297   14.3372   22.4940 N   0  0  0  0  0  0  0  0  0  0  0  0
   11.5304   13.7406   23.5274 C   0  0  0  0  0  0  0  0  0  0  0  0
   12.0407   13.3160   24.5509 O   0  0  0  0  0  0  0  0  0  0  0  0
    8.2311   13.2081   24.6042 C   0  0  0  0  0  0  0  0  0  0  0  0
    7.9321   14.6708   24.7874 C   0  0  0  0  0  0  0  0  0  0  0  0
  1  2  1  0
  2  3  1  0
  3  4  1  1
  3  5  1  0
  5  6  2  0
  5  7  1  0
  7  8  1  0
  8  9  2  0
  9 10  1  0
 10 11  2  0
 11 12  1  0
 12 13  1  0
 13 14  1  0
 14 15  1  0
 15 16  1  0
 16 17  1  0
 17 18  2  0
 12 19  2  0
 19 20  1  0
 19  8  1  0
 17 13  1  0
M  END
>  <alias>  (168) 
None

>  <rmsd(smina/fragmenstein)>  (168) 
0.852

>  <smiles>  (168) 
CC[C@H](Cl)C(=O)Nc1cccc(N2CCNC2=O)c1C

>  <gnina_score>  (168) 
4.988

>  <inspiration_score>  (168) 
None

>  <energy_score>  (168) 
-42.318634

>  <distance_score>  (168) 
1.129228

>  <gnina_score_min>  (168) 
5.237

>  <inchikey>  (168) 
NNJNJVDLYBQXHK-JTQLQIEISA-N

>  <exports>  (168) 
['/opt/xchem-fragalysis-2/maxwin/BulkDock/OUTPUTS/openbind_a71ev2a_c2_elabs_1LOUU54.sdf', '/opt/xchem-fragalysis-2/maxwin/BulkDock/OUTPUTS/openbind_a71ev2a_c2_elabs_1LSYIDY.sdf']

>  <name>  (168) 
P544415

>  <ref_pdb>  (168) 
A0884a

>  <subsites>  (168) 
None

>  <HIPPO Pose ID>  (168) 
544415

>  <ref_mols>  (168) 
A0884a

>  <HIPPO Compound ID>  (168) 
382364

>  <tags>  (168) 
openbind_a71ev2a_c2_elabs,syndirella_product,openbind_a71ev2a_c2_elabs_fragonly_scored_top80percent,openbind_a71ev2a_c2_elabs_scored,BulkDock Fragalysis export,openbind_a71ev2a_c2_elabs_scored_top80percent,openbind_a71ev2a_c2_elabs_activefrags_only_scored_5.2plus,syndirella_placed

>  <smina_score_min>  (168) 
-6.367

$$$$
P544419
     RDKit          3D

 20 20  0  0  0  0  0  0  0  0999 V2000
    6.0051   15.8546   28.8304 C   0  0  0  0  0  0  0  0  0  0  0  0
    5.0639   15.5437   27.6714 C   0  0  0  0  0  0  0  0  0  0  0  0
    5.3006   14.1951   26.9812 C   0  0  2  0  0  0  0  0  0  0  0  0
    5.1511   12.8306   28.1384 Cl  0  0  0  0  0  0  0  0  0  0  0  0
    6.6417   14.1207   26.2190 C   0  0  0  0  0  0  0  0  0  0  0  0
    7.2961   15.0662   25.9957 O   0  0  0  0  0  0  0  0  0  0  0  0
    6.8250   12.6332   25.7711 N   0  0  0  0  0  0  0  0  0  0  0  0
    7.7564   12.0579   24.9183 C   0  0  0  0  0  0  0  0  0  0  0  0
    7.8960   10.6783   24.8893 C   0  0  0  0  0  0  0  0  0  0  0  0
    8.8633   10.1059   24.0624 C   0  0  0  0  0  0  0  0  0  0  0  0
    9.6431   10.8885   23.2170 C   0  0  0  0  0  0  0  0  0  0  0  0
    9.4487   12.2577   23.1928 C   0  0  0  0  0  0  0  0  0  0  0  0
   10.1444   13.0662   22.3032 N   0  0  0  0  0  0  0  0  0  0  0  0
    9.9316   14.5378   21.9167 C   0  0  0  0  0  0  0  0  0  0  0  0
    9.0955   15.2826   22.2230 O   0  0  0  0  0  0  0  0  0  0  0  0
   11.0200   14.9448   21.1518 N   0  0  0  0  0  0  0  0  0  0  0  0
   12.1755   15.4203   21.8717 C   0  0  0  0  0  0  0  0  0  0  0  0
   11.0396   14.9120   19.7040 C   0  0  0  0  0  0  0  0  0  0  0  0
   10.0369   15.8911   19.1015 C   0  0  0  0  0  0  0  0  0  0  0  0
    8.5348   12.8434   24.0756 C   0  0  0  0  0  0  0  0  0  0  0  0
  1  2  1  0
  2  3  1  0
  3  4  1  1
  3  5  1  0
  5  6  2  0
  5  7  1  0
  7  8  1  0
  8  9  2  0
  9 10  1  0
 10 11  2  0
 11 12  1  0
 12 13  1  0
 13 14  1  0
 14 15  2  0
 14 16  1  0
 16 17  1  0
 16 18  1  0
 18 19  1  0
 12 20  2  0
 20  8  1  0
M  END
>  <alias>  (169) 
None

>  <rmsd(smina/fragmenstein)>  (169) 
0.862

>  <smiles>  (169) 
CC[C@H](Cl)C(=O)Nc1cccc(NC(=O)N(C)CC)c1

>  <gnina_score>  (169) 
5.379

>  <inspiration_score>  (169) 
None

>  <energy_score>  (169) 
-20.50436

>  <distance_score>  (169) 
1.981971

>  <gnina_score_min>  (169) 
5.424

>  <inchikey>  (169) 
JNZVJAPVMIKVBO-LBPRGKRZSA-N

>  <exports>  (169) 
['/opt/xchem-fragalysis-2/maxwin/BulkDock/OUTPUTS/openbind_a71ev2a_c2_elabs_1LOUU54.sdf', '/opt/xchem-fragalysis-2/maxwin/BulkDock/OUTPUTS/openbind_a71ev2a_c2_elabs_1LSYIDY.sdf']

>  <name>  (169) 
P544419

>  <ref_pdb>  (169) 
A0884a

>  <subsites>  (169) 
None

>  <HIPPO Pose ID>  (169) 
544419

>  <ref_mols>  (169) 
A0884a

>  <HIPPO Compound ID>  (169) 
382367

>  <tags>  (169) 
openbind_a71ev2a_c2_elabs,syndirella_product,openbind_a71ev2a_c2_elabs_fragonly_scored_top80percent,openbind_a71ev2a_c2_elabs_scored,BulkDock Fragalysis export,openbind_a71ev2a_c2_elabs_scored_top80percent,openbind_a71ev2a_c2_elabs_activefrags_only_scored_5.2plus,syndirella_placed

>  <smina_score_min>  (169) 
-5.339

$$$$
P544425
     RDKit          3D

 20 21  0  0  0  0  0  0  0  0999 V2000
   10.6043   14.2173   21.4325 O   0  0  0  0  0  0  0  0  0  0  0  0
   11.1025   14.0964   22.5322 C   0  0  0  0  0  0  0  0  0  0  0  0
   12.4689   14.1251   22.7756 N   0  0  0  0  0  0  0  0  0  0  0  0
   12.7037   13.4782   24.0208 C   0  0  0  0  0  0  0  0  0  0  0  0
   11.4830   13.8979   24.7847 C   0  0  0  0  0  0  0  0  0  0  0  0
   10.4516   13.8924   23.7657 N   0  0  0  0  0  0  0  0  0  0  0  0
    9.4335   12.9354   23.9521 C   0  0  0  0  0  0  0  0  0  0  0  0
    9.5188   11.6526   23.4032 C   0  0  0  0  0  0  0  0  0  0  0  0
    8.6838   10.6457   23.8849 C   0  0  0  0  0  0  0  0  0  0  0  0
    7.7471   10.9436   24.8722 C   0  0  0  0  0  0  0  0  0  0  0  0
    6.9723    9.9654   25.3575 F   0  0  0  0  0  0  0  0  0  0  0  0
    7.6451   12.2229   25.4133 C   0  0  0  0  0  0  0  0  0  0  0  0
    6.7885   12.4481   26.4883 N   0  0  0  0  0  0  0  0  0  0  0  0
    6.6173   13.7129   27.4104 C   0  0  0  0  0  0  0  0  0  0  0  0
    7.2269   14.7166   27.4449 O   0  0  0  0  0  0  0  0  0  0  0  0
    5.4566   13.4100   28.4100 C   0  0  0  0  0  0  0  0  0  0  0  0
    3.8103   13.2574   27.3730 Br  0  0  0  0  0  0  0  0  0  0  0  0
    5.8855   11.7210   29.3296 Br  0  0  0  0  0  0  0  0  0  0  0  0
    5.3200   14.8557   29.7249 Br  0  0  0  0  0  0  0  0  0  0  0  0
    8.4880   13.2196   24.9430 C   0  0  0  0  0  0  0  0  0  0  0  0
  1  2  2  0
  2  3  1  0
  3  4  1  0
  4  5  1  0
  5  6  1  0
  6  7  1  0
  7  8  2  0
  8  9  1  0
  9 10  2  0
 10 11  1  0
 10 12  1  0
 12 13  1  0
 13 14  1  0
 14 15  2  0
 14 16  1  0
 16 17  1  0
 16 18  1  0
 16 19  1  0
 12 20  2  0
  6  2  1  0
 20  7  1  0
M  END
>  <alias>  (170) 
None

>  <rmsd(smina/fragmenstein)>  (170) 
1.329

>  <smiles>  (170) 
O=C1NCCN1c1ccc(F)c(NC(=O)C(Br)(Br)Br)c1

>  <gnina_score>  (170) 
5.248

>  <inspiration_score>  (170) 
None

>  <energy_score>  (170) 
-5.337473

>  <distance_score>  (170) 
1.550655

>  <gnina_score_min>  (170) 
5.407

>  <inchikey>  (170) 
ACXGULXONNVTFA-UHFFFAOYSA-N

>  <exports>  (170) 
['/opt/xchem-fragalysis-2/maxwin/BulkDock/OUTPUTS/openbind_a71ev2a_c2_elabs_1LOUU54.sdf', '/opt/xchem-fragalysis-2/maxwin/BulkDock/OUTPUTS/openbind_a71ev2a_c2_elabs_1LSYIDY.sdf']

>  <name>  (170) 
P544425

>  <ref_pdb>  (170) 
A0884a

>  <subsites>  (170) 
None

>  <HIPPO Pose ID>  (170) 
544425

>  <ref_mols>  (170) 
A0884a

>  <HIPPO Compound ID>  (170) 
382379

>  <tags>  (170) 
openbind_a71ev2a_c2_elabs,syndirella_product,openbind_a71ev2a_c2_elabs_fragonly_scored_top80percent,openbind_a71ev2a_c2_elabs_scored,BulkDock Fragalysis export,openbind_a71ev2a_c2_elabs_scored_top80percent,openbind_a71ev2a_c2_elabs_activefrags_only_scored_5.2plus,syndirella_placed

>  <smina_score_min>  (170) 
-6.34

$$$$
P544432
     RDKit          3D

 20 21  0  0  0  0  0  0  0  0999 V2000
    9.0302   14.3188   21.5756 O   0  0  0  0  0  0  0  0  0  0  0  0
   10.0992   14.1658   22.1509 C   0  0  0  0  0  0  0  0  0  0  0  0
   11.1082   15.0031   21.8211 N   0  0  0  0  0  0  0  0  0  0  0  0
   12.3838   15.0599   22.4512 C   0  0  0  0  0  0  0  0  0  0  0  0
   12.7117   13.7367   23.0657 C   0  0  0  0  0  0  0  0  0  0  0  0
   11.5535   13.2739   23.8914 C   0  0  0  0  0  0  0  0  0  0  0  0
   10.3476   13.1991   23.0989 N   0  0  0  0  0  0  0  0  0  0  0  0
    9.2822   12.4838   23.6921 C   0  0  0  0  0  0  0  0  0  0  0  0
    9.3646   11.0979   23.8155 C   0  0  0  0  0  0  0  0  0  0  0  0
    8.3864   10.4129   24.5280 C   0  0  0  0  0  0  0  0  0  0  0  0
    7.3486   11.1090   25.1510 C   0  0  0  0  0  0  0  0  0  0  0  0
    7.2450   12.4892   24.9925 C   0  0  0  0  0  0  0  0  0  0  0  0
    6.2152   13.2264   25.5629 N   0  0  0  0  0  0  0  0  0  0  0  0
    5.0716   12.7881   26.5477 C   0  0  0  0  0  0  0  0  0  0  0  0
    4.8799   11.7584   27.0806 O   0  0  0  0  0  0  0  0  0  0  0  0
    4.1820   14.0468   26.8073 C   0  0  0  0  0  0  0  0  0  0  0  0
    5.2937   15.2919   27.8382 Br  0  0  0  0  0  0  0  0  0  0  0  0
    3.6261   14.8045   25.0937 Br  0  0  0  0  0  0  0  0  0  0  0  0
    2.6029   13.5070   27.8458 Br  0  0  0  0  0  0  0  0  0  0  0  0
    8.1982   13.1723   24.2420 C   0  0  0  0  0  0  0  0  0  0  0  0
  1  2  2  0
  2  3  1  0
  3  4  1  0
  4  5  1  0
  5  6  1  0
  6  7  1  0
  7  8  1  0
  8  9  2  0
  9 10  1  0
 10 11  2  0
 11 12  1  0
 12 13  1  0
 13 14  1  0
 14 15  2  0
 14 16  1  0
 16 17  1  0
 16 18  1  0
 16 19  1  0
 12 20  2  0
  7  2  1  0
 20  8  1  0
M  END
>  <alias>  (171) 
None

>  <rmsd(smina/fragmenstein)>  (171) 
0.628

>  <smiles>  (171) 
O=C1NCCCN1c1cccc(NC(=O)C(Br)(Br)Br)c1

>  <gnina_score>  (171) 
5.276

>  <inspiration_score>  (171) 
None

>  <energy_score>  (171) 
-12.427356

>  <distance_score>  (171) 
1.770429

>  <gnina_score_min>  (171) 
5.298

>  <inchikey>  (171) 
IFZLKCIAWMIWPP-UHFFFAOYSA-N

>  <exports>  (171) 
['/opt/xchem-fragalysis-2/maxwin/BulkDock/OUTPUTS/openbind_a71ev2a_c2_elabs_1LOUU54.sdf', '/opt/xchem-fragalysis-2/maxwin/BulkDock/OUTPUTS/openbind_a71ev2a_c2_elabs_1LSYIDY.sdf']

>  <name>  (171) 
P544432

>  <ref_pdb>  (171) 
A0884a

>  <subsites>  (171) 
None

>  <HIPPO Pose ID>  (171) 
544432

>  <ref_mols>  (171) 
A0884a

>  <HIPPO Compound ID>  (171) 
382395

>  <tags>  (171) 
openbind_a71ev2a_c2_elabs,syndirella_product,openbind_a71ev2a_c2_elabs_fragonly_scored_top80percent,openbind_a71ev2a_c2_elabs_scored,BulkDock Fragalysis export,openbind_a71ev2a_c2_elabs_scored_top80percent,openbind_a71ev2a_c2_elabs_activefrags_only_scored_5.2plus,syndirella_placed

>  <smina_score_min>  (171) 
-6.352

$$$$
P544435
     RDKit          3D

 20 21  0  0  0  0  0  0  0  0999 V2000
    6.3419   10.8475   26.1192 C   0  0  0  0  0  0  0  0  0  0  0  0
    7.3792   11.5028   25.2646 C   0  0  0  0  0  0  0  0  0  0  0  0
    8.3357   10.6562   24.6603 C   0  0  0  0  0  0  0  0  0  0  0  0
    9.3731   11.1631   23.8864 C   0  0  0  0  0  0  0  0  0  0  0  0
    9.4361   12.5280   23.6601 C   0  0  0  0  0  0  0  0  0  0  0  0
   10.5569   13.0643   23.0077 N   0  0  0  0  0  0  0  0  0  0  0  0
   11.7787   13.2602   23.7568 C   0  0  0  0  0  0  0  0  0  0  0  0
   12.3504   14.5420   23.1961 C   0  0  0  0  0  0  0  0  0  0  0  0
   11.6308   14.7791   22.0036 N   0  0  0  0  0  0  0  0  0  0  0  0
   10.4566   14.0675   22.0428 C   0  0  0  0  0  0  0  0  0  0  0  0
    9.4902   14.3707   21.3710 O   0  0  0  0  0  0  0  0  0  0  0  0
    8.4378   13.3672   24.1657 C   0  0  0  0  0  0  0  0  0  0  0  0
    7.4335   12.8815   25.0161 C   0  0  0  0  0  0  0  0  0  0  0  0
    6.5810   13.8730   25.5307 N   0  0  0  0  0  0  0  0  0  0  0  0
    5.6206   13.8490   26.7850 C   0  0  0  0  0  0  0  0  0  0  0  0
    5.3487   12.9703   27.5195 O   0  0  0  0  0  0  0  0  0  0  0  0
    5.0368   15.2871   26.9502 C   0  0  0  0  0  0  0  0  0  0  0  0
    3.6870   15.2703   28.3814 Br  0  0  0  0  0  0  0  0  0  0  0  0
    6.5489   16.4197   27.4694 Br  0  0  0  0  0  0  0  0  0  0  0  0
    4.2082   15.8136   25.2632 Br  0  0  0  0  0  0  0  0  0  0  0  0
  1  2  1  0
  2  3  2  0
  3  4  1  0
  4  5  2  0
  5  6  1  0
  6  7  1  0
  7  8  1  0
  8  9  1  0
  9 10  1  0
 10 11  2  0
  5 12  1  0
 12 13  2  0
 13 14  1  0
 14 15  1  0
 15 16  2  0
 15 17  1  0
 17 18  1  0
 17 19  1  0
 17 20  1  0
 13  2  1  0
 10  6  1  0
M  END
>  <alias>  (172) 
None

>  <rmsd(smina/fragmenstein)>  (172) 
0.937

>  <smiles>  (172) 
Cc1ccc(N2CCNC2=O)cc1NC(=O)C(Br)(Br)Br

>  <gnina_score>  (172) 
5.302

>  <inspiration_score>  (172) 
None

>  <energy_score>  (172) 
-22.130524

>  <distance_score>  (172) 
1.845099

>  <gnina_score_min>  (172) 
5.227

>  <inchikey>  (172) 
XYWOZBDDMSDDFV-UHFFFAOYSA-N

>  <exports>  (172) 
['/opt/xchem-fragalysis-2/maxwin/BulkDock/OUTPUTS/openbind_a71ev2a_c2_elabs_1LOUU54.sdf', '/opt/xchem-fragalysis-2/maxwin/BulkDock/OUTPUTS/openbind_a71ev2a_c2_elabs_1LSYIDY.sdf']

>  <name>  (172) 
P544435

>  <ref_pdb>  (172) 
A0884a

>  <subsites>  (172) 
None

>  <HIPPO Pose ID>  (172) 
544435

>  <ref_mols>  (172) 
A0884a

>  <HIPPO Compound ID>  (172) 
382405

>  <tags>  (172) 
openbind_a71ev2a_c2_elabs,syndirella_product,openbind_a71ev2a_c2_elabs_fragonly_scored_top80percent,openbind_a71ev2a_c2_elabs_scored,BulkDock Fragalysis export,openbind_a71ev2a_c2_elabs_scored_top80percent,openbind_a71ev2a_c2_elabs_activefrags_only_scored_5.2plus,syndirella_placed

>  <smina_score_min>  (172) 
-6.232

$$$$
P544436
     RDKit          3D

 20 21  0  0  0  0  0  0  0  0999 V2000
    9.5049   14.3100   21.4801 O   0  0  0  0  0  0  0  0  0  0  0  0
   10.4007   13.9538   22.2203 C   0  0  0  0  0  0  0  0  0  0  0  0
   11.5917   14.6328   22.3149 N   0  0  0  0  0  0  0  0  0  0  0  0
   12.2367   14.2983   23.5260 C   0  0  0  0  0  0  0  0  0  0  0  0
   11.5424   13.0527   24.0086 C   0  0  0  0  0  0  0  0  0  0  0  0
   10.3870   12.9119   23.1529 N   0  0  0  0  0  0  0  0  0  0  0  0
    9.1993   12.4063   23.7294 C   0  0  0  0  0  0  0  0  0  0  0  0
    8.2235   13.3070   24.1793 C   0  0  0  0  0  0  0  0  0  0  0  0
    7.1556   12.8624   24.9598 C   0  0  0  0  0  0  0  0  0  0  0  0
    6.2092   13.7873   25.3870 N   0  0  0  0  0  0  0  0  0  0  0  0
    4.9106   13.5929   26.2571 C   0  0  0  0  0  0  0  0  0  0  0  0
    4.4960   12.6369   26.8027 O   0  0  0  0  0  0  0  0  0  0  0  0
    4.2023   14.9842   26.3394 C   0  0  0  0  0  0  0  0  0  0  0  0
    5.4082   16.1541   27.3507 Br  0  0  0  0  0  0  0  0  0  0  0  0
    3.8855   15.6200   24.5183 Br  0  0  0  0  0  0  0  0  0  0  0  0
    2.4954   14.7760   27.2902 Br  0  0  0  0  0  0  0  0  0  0  0  0
    7.0543   11.5137   25.2901 C   0  0  0  0  0  0  0  0  0  0  0  0
    7.9723   10.6019   24.7755 C   0  0  0  0  0  0  0  0  0  0  0  0
    9.0311   11.0393   23.9848 C   0  0  0  0  0  0  0  0  0  0  0  0
   10.0221    9.8273   23.2849 Cl  0  0  0  0  0  0  0  0  0  0  0  0
  1  2  2  0
  2  3  1  0
  3  4  1  0
  4  5  1  0
  5  6  1  0
  6  7  1  0
  7  8  2  0
  8  9  1  0
  9 10  1  0
 10 11  1  0
 11 12  2  0
 11 13  1  0
 13 14  1  0
 13 15  1  0
 13 16  1  0
  9 17  2  0
 17 18  1  0
 18 19  2  0
 19 20  1  0
  6  2  1  0
 19  7  1  0
M  END
>  <alias>  (173) 
None

>  <rmsd(smina/fragmenstein)>  (173) 
0.761

>  <smiles>  (173) 
O=C1NCCN1c1cc(NC(=O)C(Br)(Br)Br)ccc1Cl

>  <gnina_score>  (173) 
5.651

>  <inspiration_score>  (173) 
None

>  <energy_score>  (173) 
-7.648323

>  <distance_score>  (173) 
1.861309

>  <gnina_score_min>  (173) 
5.46

>  <inchikey>  (173) 
YMFCJHRXLJTTNS-UHFFFAOYSA-N

>  <exports>  (173) 
['/opt/xchem-fragalysis-2/maxwin/BulkDock/OUTPUTS/openbind_a71ev2a_c2_elabs_1LOUU54.sdf', '/opt/xchem-fragalysis-2/maxwin/BulkDock/OUTPUTS/openbind_a71ev2a_c2_elabs_1LSYIDY.sdf']

>  <name>  (173) 
P544436

>  <ref_pdb>  (173) 
A0884a

>  <subsites>  (173) 
None

>  <HIPPO Pose ID>  (173) 
544436

>  <ref_mols>  (173) 
A0884a

>  <HIPPO Compound ID>  (173) 
382407

>  <tags>  (173) 
openbind_a71ev2a_c2_elabs,syndirella_product,openbind_a71ev2a_c2_elabs_fragonly_scored_top80percent,openbind_a71ev2a_c2_elabs_scored,BulkDock Fragalysis export,openbind_a71ev2a_c2_elabs_scored_top80percent,openbind_a71ev2a_c2_elabs_activefrags_only_scored_5.2plus,syndirella_placed

>  <smina_score_min>  (173) 
-6.249

$$$$
P544448
     RDKit          3D

 20 21  0  0  0  0  0  0  0  0999 V2000
    5.6771   12.7983   29.6717 C   0  0  0  0  0  0  0  0  0  0  0  0
    5.0408   13.4015   28.4268 C   0  0  0  0  0  0  0  0  0  0  0  0
    4.4548   12.3494   27.4878 C   0  0  2  0  0  0  0  0  0  0  0  0
    3.4954   11.6432   28.1580 F   0  0  0  0  0  0  0  0  0  0  0  0
    5.5441   11.4301   26.9003 C   0  0  0  0  0  0  0  0  0  0  0  0
    5.7953   10.3755   27.3409 O   0  0  0  0  0  0  0  0  0  0  0  0
    6.2197   12.2287   25.7416 N   0  0  0  0  0  0  0  0  0  0  0  0
    7.2363   11.8637   24.8680 C   0  0  0  0  0  0  0  0  0  0  0  0
    7.7831   10.5876   24.8159 C   0  0  0  0  0  0  0  0  0  0  0  0
    8.8816   10.3322   23.9855 C   0  0  0  0  0  0  0  0  0  0  0  0
    9.5217   11.3830   23.3291 C   0  0  0  0  0  0  0  0  0  0  0  0
    9.0276   12.6784   23.4821 C   0  0  0  0  0  0  0  0  0  0  0  0
    9.9343   13.7539   23.6420 N   0  0  0  0  0  0  0  0  0  0  0  0
   11.0032   14.0531   22.7891 C   0  0  0  0  0  0  0  0  0  0  0  0
   11.1068   13.9048   21.5903 O   0  0  0  0  0  0  0  0  0  0  0  0
   12.0188   14.6120   23.5389 N   0  0  0  0  0  0  0  0  0  0  0  0
   11.8058   14.4092   24.9307 C   0  0  0  0  0  0  0  0  0  0  0  0
   10.3902   13.8938   25.0209 C   0  0  1  0  0  0  0  0  0  0  0  0
    9.4481   14.6915   25.9364 C   0  0  0  0  0  0  0  0  0  0  0  0
    7.7948   12.8799   24.1061 C   0  0  0  0  0  0  0  0  0  0  0  0
  1  2  1  0
  2  3  1  0
  3  4  1  1
  3  5  1  0
  5  6  2  0
  5  7  1  0
  7  8  1  0
  8  9  2  0
  9 10  1  0
 10 11  2  0
 11 12  1  0
 12 13  1  0
 13 14  1  0
 14 15  2  0
 14 16  1  0
 16 17  1  0
 17 18  1  0
 18 19  1  1
 12 20  2  0
 20  8  1  0
 18 13  1  0
M  END
>  <alias>  (174) 
None

>  <rmsd(smina/fragmenstein)>  (174) 
1.58

>  <smiles>  (174) 
CC[C@H](F)C(=O)Nc1cccc(N2C(=O)NC[C@H]2C)c1

>  <gnina_score>  (174) 
4.93

>  <inspiration_score>  (174) 
None

>  <energy_score>  (174) 
-3.418531

>  <distance_score>  (174) 
1.333687

>  <gnina_score_min>  (174) 
5.259

>  <inchikey>  (174) 
FPWCAOOIJQVCQE-SKDRFNHKSA-N

>  <exports>  (174) 
['/opt/xchem-fragalysis-2/maxwin/BulkDock/OUTPUTS/openbind_a71ev2a_c2_elabs_1LOUU54.sdf', '/opt/xchem-fragalysis-2/maxwin/BulkDock/OUTPUTS/openbind_a71ev2a_c2_elabs_1LSYIDY.sdf']

>  <name>  (174) 
P544448

>  <ref_pdb>  (174) 
A0884a

>  <subsites>  (174) 
None

>  <HIPPO Pose ID>  (174) 
544448

>  <ref_mols>  (174) 
A0884a

>  <HIPPO Compound ID>  (174) 
382422

>  <tags>  (174) 
openbind_a71ev2a_c2_elabs,syndirella_product,openbind_a71ev2a_c2_elabs_fragonly_scored_top80percent,openbind_a71ev2a_c2_elabs_scored,BulkDock Fragalysis export,openbind_a71ev2a_c2_elabs_scored_top80percent,openbind_a71ev2a_c2_elabs_activefrags_only_scored_5.2plus,syndirella_placed

>  <smina_score_min>  (174) 
-6.676

$$$$
P544460
     RDKit          3D

 20 21  0  0  0  0  0  0  0  0999 V2000
    3.5198   14.3792   27.0368 C   0  0  0  0  0  0  0  0  0  0  0  0
    4.7393   13.9089   27.8041 C   0  0  0  0  0  0  0  0  0  0  0  0
    4.3763   13.6429   29.0903 F   0  0  0  0  0  0  0  0  0  0  0  0
    5.6239   14.9515   27.8729 F   0  0  0  0  0  0  0  0  0  0  0  0
    5.3651   12.6816   27.1071 C   0  0  0  0  0  0  0  0  0  0  0  0
    4.9213   11.5978   27.1758 O   0  0  0  0  0  0  0  0  0  0  0  0
    6.5715   13.2341   26.2706 N   0  0  0  0  0  0  0  0  0  0  0  0
    7.4934   12.5670   25.4584 C   0  0  0  0  0  0  0  0  0  0  0  0
    8.4567   13.3628   24.8299 C   0  0  0  0  0  0  0  0  0  0  0  0
    9.3923   12.8015   23.9589 C   0  0  0  0  0  0  0  0  0  0  0  0
   10.2929   13.6775   23.3237 N   0  0  0  0  0  0  0  0  0  0  0  0
   10.5917   13.5404   21.9311 C   0  0  0  0  0  0  0  0  0  0  0  0
   11.7505   14.4776   21.6933 C   0  0  0  0  0  0  0  0  0  0  0  0
   12.4037   14.4224   22.9601 N   0  0  0  0  0  0  0  0  0  0  0  0
   11.5055   14.0405   23.9560 C   0  0  0  0  0  0  0  0  0  0  0  0
   11.7496   14.0090   25.1489 O   0  0  0  0  0  0  0  0  0  0  0  0
    9.3761   11.4258   23.7100 C   0  0  0  0  0  0  0  0  0  0  0  0
    8.4507   10.6196   24.3659 C   0  0  0  0  0  0  0  0  0  0  0  0
    7.5145   11.1901   25.2278 C   0  0  0  0  0  0  0  0  0  0  0  0
    6.6538   10.3660   25.8317 F   0  0  0  0  0  0  0  0  0  0  0  0
  1  2  1  0
  2  3  1  0
  2  4  1  0
  2  5  1  0
  5  6  2  0
  5  7  1  0
  7  8  1  0
  8  9  2  0
  9 10  1  0
 10 11  1  0
 11 12  1  0
 12 13  1  0
 13 14  1  0
 14 15  1  0
 15 16  2  0
 10 17  2  0
 17 18  1  0
 18 19  2  0
 19 20  1  0
 19  8  1  0
 15 11  1  0
M  END
>  <alias>  (175) 
None

>  <rmsd(smina/fragmenstein)>  (175) 
1.65

>  <smiles>  (175) 
CC(F)(F)C(=O)Nc1cc(N2CCNC2=O)ccc1F

>  <gnina_score>  (175) 
4.806

>  <inspiration_score>  (175) 
None

>  <energy_score>  (175) 
-12.730435

>  <distance_score>  (175) 
1.238619

>  <gnina_score_min>  (175) 
5.23

>  <inchikey>  (175) 
YYKZRLVBDDQULF-UHFFFAOYSA-N

>  <exports>  (175) 
['/opt/xchem-fragalysis-2/maxwin/BulkDock/OUTPUTS/openbind_a71ev2a_c2_elabs_1LOUU54.sdf', '/opt/xchem-fragalysis-2/maxwin/BulkDock/OUTPUTS/openbind_a71ev2a_c2_elabs_1LSYIDY.sdf']

>  <name>  (175) 
P544460

>  <ref_pdb>  (175) 
A0884a

>  <subsites>  (175) 
None

>  <HIPPO Pose ID>  (175) 
544460

>  <ref_mols>  (175) 
A0884a

>  <HIPPO Compound ID>  (175) 
382441

>  <tags>  (175) 
openbind_a71ev2a_c2_elabs,syndirella_product,openbind_a71ev2a_c2_elabs_fragonly_scored_top80percent,openbind_a71ev2a_c2_elabs_scored,BulkDock Fragalysis export,openbind_a71ev2a_c2_elabs_scored_top80percent,openbind_a71ev2a_c2_elabs_activefrags_only_scored_5.2plus,syndirella_placed

>  <smina_score_min>  (175) 
-6.973

$$$$
P544467
     RDKit          3D

 20 21  0  0  0  0  0  0  0  0999 V2000
    2.9810   14.6084   25.1587 C   0  0  0  0  0  0  0  0  0  0  0  0
    4.1742   15.3102   25.7905 C   0  0  0  0  0  0  0  0  0  0  0  0
    4.7592   14.5238   26.9641 C   0  0  2  0  0  0  0  0  0  0  0  0
    6.0736   15.4730   27.7429 Cl  0  0  0  0  0  0  0  0  0  0  0  0
    5.3301   13.1415   26.5940 C   0  0  0  0  0  0  0  0  0  0  0  0
    4.8706   12.1438   27.0077 O   0  0  0  0  0  0  0  0  0  0  0  0
    6.5325   13.3768   25.6166 N   0  0  0  0  0  0  0  0  0  0  0  0
    7.4371   12.4659   25.0493 C   0  0  0  0  0  0  0  0  0  0  0  0
    8.4615   13.0582   24.2945 C   0  0  0  0  0  0  0  0  0  0  0  0
    9.4670   12.2880   23.7038 C   0  0  0  0  0  0  0  0  0  0  0  0
   10.5738   12.9021   23.0920 N   0  0  0  0  0  0  0  0  0  0  0  0
   11.7365   13.1927   23.9043 C   0  0  0  0  0  0  0  0  0  0  0  0
   12.2875   14.4786   23.3360 C   0  0  0  0  0  0  0  0  0  0  0  0
   11.5368   14.7283   22.1656 N   0  0  0  0  0  0  0  0  0  0  0  0
   10.4176   13.9348   22.1616 C   0  0  0  0  0  0  0  0  0  0  0  0
    9.4435   14.1927   21.4808 O   0  0  0  0  0  0  0  0  0  0  0  0
    9.4192   10.9037   23.7939 C   0  0  0  0  0  0  0  0  0  0  0  0
    8.3898   10.3013   24.5137 C   0  0  0  0  0  0  0  0  0  0  0  0
    7.4241   11.0728   25.1688 C   0  0  0  0  0  0  0  0  0  0  0  0
    6.4976   10.4372   25.9365 O   0  0  0  0  0  0  0  0  0  0  0  0
  1  2  1  0
  2  3  1  0
  3  4  1  6
  3  5  1  0
  5  6  2  0
  5  7  1  0
  7  8  1  0
  8  9  2  0
  9 10  1  0
 10 11  1  0
 11 12  1  0
 12 13  1  0
 13 14  1  0
 14 15  1  0
 15 16  2  0
 10 17  2  0
 17 18  1  0
 18 19  2  0
 19 20  1  0
 19  8  1  0
 15 11  1  0
M  END
>  <alias>  (176) 
None

>  <rmsd(smina/fragmenstein)>  (176) 
0.594

>  <smiles>  (176) 
CC[C@H](Cl)C(=O)Nc1cc(N2CCNC2=O)ccc1O

>  <gnina_score>  (176) 
5.189

>  <inspiration_score>  (176) 
None

>  <energy_score>  (176) 
-21.538192

>  <distance_score>  (176) 
1.614899

>  <gnina_score_min>  (176) 
5.238

>  <inchikey>  (176) 
CBFUDKZKBRHNBF-VIFPVBQESA-N

>  <exports>  (176) 
['/opt/xchem-fragalysis-2/maxwin/BulkDock/OUTPUTS/openbind_a71ev2a_c2_elabs_1LOUU54.sdf', '/opt/xchem-fragalysis-2/maxwin/BulkDock/OUTPUTS/openbind_a71ev2a_c2_elabs_1LSYIDY.sdf']

>  <name>  (176) 
P544467

>  <ref_pdb>  (176) 
A0884a

>  <subsites>  (176) 
None

>  <HIPPO Pose ID>  (176) 
544467

>  <ref_mols>  (176) 
A0884a

>  <HIPPO Compound ID>  (176) 
382455

>  <tags>  (176) 
openbind_a71ev2a_c2_elabs,syndirella_product,openbind_a71ev2a_c2_elabs_fragonly_scored_top80percent,openbind_a71ev2a_c2_elabs_scored,BulkDock Fragalysis export,openbind_a71ev2a_c2_elabs_scored_top80percent,openbind_a71ev2a_c2_elabs_activefrags_only_scored_5.2plus,syndirella_placed

>  <smina_score_min>  (176) 
-6.399

$$$$
P544470
     RDKit          3D

 20 21  0  0  0  0  0  0  0  0999 V2000
    5.1537   15.8670   28.2847 C   0  0  0  0  0  0  0  0  0  0  0  0
    5.1409   16.2266   26.8033 C   0  0  0  0  0  0  0  0  0  0  0  0
    4.3799   15.2415   25.9085 C   0  0  2  0  0  0  0  0  0  0  0  0
    2.6392   15.1898   26.3311 Cl  0  0  0  0  0  0  0  0  0  0  0  0
    4.9778   13.8168   25.9635 C   0  0  0  0  0  0  0  0  0  0  0  0
    4.4824   12.9236   26.5402 O   0  0  0  0  0  0  0  0  0  0  0  0
    6.3245   13.8846   25.1555 N   0  0  0  0  0  0  0  0  0  0  0  0
    7.2497   12.8687   24.8295 C   0  0  0  0  0  0  0  0  0  0  0  0
    8.3025   13.3258   24.0158 C   0  0  0  0  0  0  0  0  0  0  0  0
    9.3527   12.4901   23.6189 C   0  0  0  0  0  0  0  0  0  0  0  0
   10.5044   13.0270   23.0240 N   0  0  0  0  0  0  0  0  0  0  0  0
   11.6899   13.1928   23.8357 C   0  0  0  0  0  0  0  0  0  0  0  0
   12.3173   14.4638   23.3191 C   0  0  0  0  0  0  0  0  0  0  0  0
   11.6556   14.7383   22.1008 N   0  0  0  0  0  0  0  0  0  0  0  0
   10.4686   14.0481   22.0710 C   0  0  0  0  0  0  0  0  0  0  0  0
    9.5402   14.3769   21.3583 O   0  0  0  0  0  0  0  0  0  0  0  0
    9.3067   11.1377   23.9142 C   0  0  0  0  0  0  0  0  0  0  0  0
    8.2586   10.6561   24.6898 C   0  0  0  0  0  0  0  0  0  0  0  0
    7.2758   11.5198   25.2110 C   0  0  0  0  0  0  0  0  0  0  0  0
    6.2486   10.8004   26.3853 Cl  0  0  0  0  0  0  0  0  0  0  0  0
  1  2  1  0
  2  3  1  0
  3  4  1  1
  3  5  1  0
  5  6  2  0
  5  7  1  0
  7  8  1  0
  8  9  2  0
  9 10  1  0
 10 11  1  0
 11 12  1  0
 12 13  1  0
 13 14  1  0
 14 15  1  0
 15 16  2  0
 10 17  2  0
 17 18  1  0
 18 19  2  0
 19 20  1  0
 19  8  1  0
 15 11  1  0
M  END
>  <alias>  (177) 
None

>  <rmsd(smina/fragmenstein)>  (177) 
0.759

>  <smiles>  (177) 
CC[C@H](Cl)C(=O)Nc1cc(N2CCNC2=O)ccc1Cl

>  <gnina_score>  (177) 
5.365

>  <inspiration_score>  (177) 
None

>  <energy_score>  (177) 
-17.874859

>  <distance_score>  (177) 
1.934607

>  <gnina_score_min>  (177) 
5.374

>  <inchikey>  (177) 
FLSYPKGBYCLMAL-VIFPVBQESA-N

>  <exports>  (177) 
['/opt/xchem-fragalysis-2/maxwin/BulkDock/OUTPUTS/openbind_a71ev2a_c2_elabs_1LOUU54.sdf', '/opt/xchem-fragalysis-2/maxwin/BulkDock/OUTPUTS/openbind_a71ev2a_c2_elabs_1LSYIDY.sdf']

>  <name>  (177) 
P544470

>  <ref_pdb>  (177) 
A0884a

>  <subsites>  (177) 
None

>  <HIPPO Pose ID>  (177) 
544470

>  <ref_mols>  (177) 
A0884a

>  <HIPPO Compound ID>  (177) 
382456

>  <tags>  (177) 
openbind_a71ev2a_c2_elabs,syndirella_product,openbind_a71ev2a_c2_elabs_fragonly_scored_top80percent,openbind_a71ev2a_c2_elabs_scored,BulkDock Fragalysis export,openbind_a71ev2a_c2_elabs_scored_top80percent,openbind_a71ev2a_c2_elabs_activefrags_only_scored_5.2plus,syndirella_placed

>  <smina_score_min>  (177) 
-5.976

$$$$
P544471
     RDKit          3D

 20 21  0  0  0  0  0  0  0  0999 V2000
    2.2929   13.5513   27.3648 C   0  0  0  0  0  0  0  0  0  0  0  0
    3.5105   14.2840   27.9120 C   0  0  0  0  0  0  0  0  0  0  0  0
    4.6346   14.4237   26.8826 C   0  0  1  0  0  0  0  0  0  0  0  0
    5.8624   15.5717   27.5303 Cl  0  0  0  0  0  0  0  0  0  0  0  0
    5.3706   13.1021   26.5701 C   0  0  0  0  0  0  0  0  0  0  0  0
    5.1120   12.0767   27.0758 O   0  0  0  0  0  0  0  0  0  0  0  0
    6.4316   13.4527   25.4710 N   0  0  0  0  0  0  0  0  0  0  0  0
    7.4125   12.6566   24.8691 C   0  0  0  0  0  0  0  0  0  0  0  0
    8.3518   13.3230   24.0705 C   0  0  0  0  0  0  0  0  0  0  0  0
    9.4190   12.6282   23.4960 C   0  0  0  0  0  0  0  0  0  0  0  0
   10.4250   13.2935   22.7798 N   0  0  0  0  0  0  0  0  0  0  0  0
   10.1746   14.3286   21.8028 C   0  0  0  0  0  0  0  0  0  0  0  0
   11.5678   14.8083   21.4254 C   0  0  0  0  0  0  0  0  0  0  0  0
   12.3737   14.4047   22.5387 N   0  0  0  0  0  0  0  0  0  0  0  0
   11.6907   13.5196   23.3550 C   0  0  0  0  0  0  0  0  0  0  0  0
   12.1218   13.0836   24.4092 O   0  0  0  0  0  0  0  0  0  0  0  0
    9.5097   11.2449   23.6527 C   0  0  0  0  0  0  0  0  0  0  0  0
    8.5497   10.5664   24.3963 C   0  0  0  0  0  0  0  0  0  0  0  0
    7.5251   11.2729   25.0225 C   0  0  0  0  0  0  0  0  0  0  0  0
    6.6522   10.5712   25.7525 F   0  0  0  0  0  0  0  0  0  0  0  0
  1  2  1  0
  2  3  1  0
  3  4  1  1
  3  5  1  0
  5  6  2  0
  5  7  1  0
  7  8  1  0
  8  9  2  0
  9 10  1  0
 10 11  1  0
 11 12  1  0
 12 13  1  0
 13 14  1  0
 14 15  1  0
 15 16  2  0
 10 17  2  0
 17 18  1  0
 18 19  2  0
 19 20  1  0
 19  8  1  0
 15 11  1  0
M  END
>  <alias>  (178) 
None

>  <rmsd(smina/fragmenstein)>  (178) 
1.039

>  <smiles>  (178) 
CC[C@@H](Cl)C(=O)Nc1cc(N2CCNC2=O)ccc1F

>  <gnina_score>  (178) 
5.058

>  <inspiration_score>  (178) 
None

>  <energy_score>  (178) 
-21.79715

>  <distance_score>  (178) 
1.26388

>  <gnina_score_min>  (178) 
5.278

>  <inchikey>  (178) 
ZOWCASVBJPHBGQ-SECBINFHSA-N

>  <exports>  (178) 
['/opt/xchem-fragalysis-2/maxwin/BulkDock/OUTPUTS/openbind_a71ev2a_c2_elabs_1LOUU54.sdf', '/opt/xchem-fragalysis-2/maxwin/BulkDock/OUTPUTS/openbind_a71ev2a_c2_elabs_1LSYIDY.sdf']

>  <name>  (178) 
P544471

>  <ref_pdb>  (178) 
A0884a

>  <subsites>  (178) 
None

>  <HIPPO Pose ID>  (178) 
544471

>  <ref_mols>  (178) 
A0884a

>  <HIPPO Compound ID>  (178) 
382457

>  <tags>  (178) 
openbind_a71ev2a_c2_elabs,syndirella_product,openbind_a71ev2a_c2_elabs_fragonly_scored_top80percent,openbind_a71ev2a_c2_elabs_scored,BulkDock Fragalysis export,openbind_a71ev2a_c2_elabs_scored_top80percent,openbind_a71ev2a_c2_elabs_activefrags_only_scored_5.2plus,syndirella_placed

>  <smina_score_min>  (178) 
-6.348

$$$$
P544473
     RDKit          3D

 20 21  0  0  0  0  0  0  0  0999 V2000
    2.8817   15.1626   25.9465 C   0  0  0  0  0  0  0  0  0  0  0  0
    4.1042   15.7497   26.6403 C   0  0  0  0  0  0  0  0  0  0  0  0
    4.6633   14.8187   27.7175 C   0  0  2  0  0  0  0  0  0  0  0  0
    6.0000   15.6303   28.5988 Cl  0  0  0  0  0  0  0  0  0  0  0  0
    5.1776   13.4797   27.1535 C   0  0  0  0  0  0  0  0  0  0  0  0
    4.5838   12.4788   27.3012 O   0  0  0  0  0  0  0  0  0  0  0  0
    6.4766   13.7753   26.3343 N   0  0  0  0  0  0  0  0  0  0  0  0
    7.3209   12.9163   25.6410 C   0  0  0  0  0  0  0  0  0  0  0  0
    7.0784   11.5495   25.5728 C   0  0  0  0  0  0  0  0  0  0  0  0
    7.9147   10.7382   24.8123 C   0  0  0  0  0  0  0  0  0  0  0  0
    8.9750   11.2864   24.0861 C   0  0  0  0  0  0  0  0  0  0  0  0
    9.8902   10.1427   23.1892 Cl  0  0  0  0  0  0  0  0  0  0  0  0
    9.2600   12.6617   24.1840 C   0  0  0  0  0  0  0  0  0  0  0  0
   10.2833   13.3410   23.4929 N   0  0  0  0  0  0  0  0  0  0  0  0
   10.5293   13.1938   22.0984 C   0  0  0  0  0  0  0  0  0  0  0  0
   11.6459   14.1693   21.7932 C   0  0  0  0  0  0  0  0  0  0  0  0
   12.2741   14.3084   23.0662 N   0  0  0  0  0  0  0  0  0  0  0  0
   11.3982   13.9467   24.0858 C   0  0  0  0  0  0  0  0  0  0  0  0
   11.6023   14.1304   25.2722 O   0  0  0  0  0  0  0  0  0  0  0  0
    8.4245   13.4600   24.9774 C   0  0  0  0  0  0  0  0  0  0  0  0
  1  2  1  0
  2  3  1  0
  3  4  1  6
  3  5  1  0
  5  6  2  0
  5  7  1  0
  7  8  1  0
  8  9  2  0
  9 10  1  0
 10 11  2  0
 11 12  1  0
 11 13  1  0
 13 14  1  0
 14 15  1  0
 15 16  1  0
 16 17  1  0
 17 18  1  0
 18 19  2  0
 13 20  2  0
 20  8  1  0
 18 14  1  0
M  END
>  <alias>  (179) 
None

>  <rmsd(smina/fragmenstein)>  (179) 
0.863

>  <smiles>  (179) 
CC[C@H](Cl)C(=O)Nc1ccc(Cl)c(N2CCNC2=O)c1

>  <gnina_score>  (179) 
5.058

>  <inspiration_score>  (179) 
None

>  <energy_score>  (179) 
-43.643398

>  <distance_score>  (179) 
1.535026

>  <gnina_score_min>  (179) 
5.253

>  <inchikey>  (179) 
UXFQWQZTQDWYRH-VIFPVBQESA-N

>  <exports>  (179) 
['/opt/xchem-fragalysis-2/maxwin/BulkDock/OUTPUTS/openbind_a71ev2a_c2_elabs_1LOUU54.sdf', '/opt/xchem-fragalysis-2/maxwin/BulkDock/OUTPUTS/openbind_a71ev2a_c2_elabs_1LSYIDY.sdf']

>  <name>  (179) 
P544473

>  <ref_pdb>  (179) 
A0884a

>  <subsites>  (179) 
None

>  <HIPPO Pose ID>  (179) 
544473

>  <ref_mols>  (179) 
A0884a

>  <HIPPO Compound ID>  (179) 
382461

>  <tags>  (179) 
openbind_a71ev2a_c2_elabs,syndirella_product,openbind_a71ev2a_c2_elabs_fragonly_scored_top80percent,openbind_a71ev2a_c2_elabs_scored,BulkDock Fragalysis export,openbind_a71ev2a_c2_elabs_scored_top80percent,openbind_a71ev2a_c2_elabs_activefrags_only_scored_5.2plus,syndirella_placed

>  <smina_score_min>  (179) 
-6.019

$$$$
P544510
     RDKit          3D

 20 21  0  0  0  0  0  0  0  0999 V2000
    3.2873   10.9876   29.4941 C   0  0  0  0  0  0  0  0  0  0  0  0
    4.2501   11.7195   28.6216 C   0  0  0  0  0  0  0  0  0  0  0  0
    5.0651   11.1295   27.7393 C   0  0  0  0  0  0  0  0  0  0  0  0
    5.0657    9.7887   27.5835 F   0  0  0  0  0  0  0  0  0  0  0  0
    6.0276   11.8932   26.8798 C   0  0  0  0  0  0  0  0  0  0  0  0
    6.2126   13.0387   27.0132 O   0  0  0  0  0  0  0  0  0  0  0  0
    6.7167   10.8658   25.9432 N   0  0  0  0  0  0  0  0  0  0  0  0
    7.6728   11.0490   24.9493 C   0  0  0  0  0  0  0  0  0  0  0  0
    8.2853    9.9381   24.3940 C   0  0  0  0  0  0  0  0  0  0  0  0
    9.3026   10.0651   23.4510 C   0  0  0  0  0  0  0  0  0  0  0  0
    9.7575   11.3282   23.0996 C   0  0  0  0  0  0  0  0  0  0  0  0
    9.1908   12.4514   23.6900 C   0  0  0  0  0  0  0  0  0  0  0  0
    9.9178   13.6655   23.7657 N   0  0  0  0  0  0  0  0  0  0  0  0
   10.9080   14.0750   22.8554 C   0  0  0  0  0  0  0  0  0  0  0  0
   10.9892   13.8960   21.6578 O   0  0  0  0  0  0  0  0  0  0  0  0
   11.8925   14.7543   23.5479 N   0  0  0  0  0  0  0  0  0  0  0  0
   11.7818   14.5082   24.9434 C   0  0  0  0  0  0  0  0  0  0  0  0
   10.3891   13.9540   25.1080 C   0  0  1  0  0  0  0  0  0  0  0  0
    9.4312   14.7817   25.9737 C   0  0  0  0  0  0  0  0  0  0  0  0
    8.0883   12.3054   24.5471 C   0  0  0  0  0  0  0  0  0  0  0  0
  1  2  1  0
  2  3  2  0
  3  4  1  0
  3  5  1  0
  5  6  2  0
  5  7  1  0
  7  8  1  0
  8  9  2  0
  9 10  1  0
 10 11  2  0
 11 12  1  0
 12 13  1  0
 13 14  1  0
 14 15  2  0
 14 16  1  0
 16 17  1  0
 17 18  1  0
 18 19  1  6
 12 20  2  0
 20  8  1  0
 18 13  1  0
M  END
>  <alias>  (180) 
None

>  <rmsd(smina/fragmenstein)>  (180) 
1.724

>  <smiles>  (180) 
C/C=C(\F)C(=O)Nc1cccc(N2C(=O)NC[C@H]2C)c1

>  <gnina_score>  (180) 
4.908

>  <inspiration_score>  (180) 
None

>  <energy_score>  (180) 
-18.197911

>  <distance_score>  (180) 
1.146757

>  <gnina_score_min>  (180) 
5.265

>  <inchikey>  (180) 
PGRFTEKMCULQFZ-AFPZMQCXSA-N

>  <exports>  (180) 
['/opt/xchem-fragalysis-2/maxwin/BulkDock/OUTPUTS/openbind_a71ev2a_c2_elabs_1LOUU54.sdf', '/opt/xchem-fragalysis-2/maxwin/BulkDock/OUTPUTS/openbind_a71ev2a_c2_elabs_1LSYIDY.sdf']

>  <name>  (180) 
P544510

>  <ref_pdb>  (180) 
A0884a

>  <subsites>  (180) 
None

>  <HIPPO Pose ID>  (180) 
544510

>  <ref_mols>  (180) 
A0884a

>  <HIPPO Compound ID>  (180) 
382519

>  <tags>  (180) 
openbind_a71ev2a_c2_elabs,syndirella_product,openbind_a71ev2a_c2_elabs_fragonly_scored_top80percent,openbind_a71ev2a_c2_elabs_scored,BulkDock Fragalysis export,openbind_a71ev2a_c2_elabs_scored_top80percent,openbind_a71ev2a_c2_elabs_activefrags_only_scored_5.2plus,syndirella_placed

>  <smina_score_min>  (180) 
-6.637

$$$$
P544513
     RDKit          3D

 20 21  0  0  0  0  0  0  0  0999 V2000
    3.5949   14.6896   25.0335 C   0  0  0  0  0  0  0  0  0  0  0  0
    4.2080   14.3261   26.3952 C   0  0  0  0  0  0  0  0  0  0  0  0
    3.0512   13.9732   27.3550 C   0  0  0  0  0  0  0  0  0  0  0  0
    4.9644   15.5261   26.9873 C   0  0  0  0  0  0  0  0  0  0  0  0
    5.1498   13.0857   26.2765 C   0  0  0  0  0  0  0  0  0  0  0  0
    4.9642   12.1049   26.8901 O   0  0  0  0  0  0  0  0  0  0  0  0
    6.2901   13.4507   25.2723 N   0  0  0  0  0  0  0  0  0  0  0  0
    7.3387   12.6748   24.7686 C   0  0  0  0  0  0  0  0  0  0  0  0
    8.2849   13.3418   23.9791 C   0  0  0  0  0  0  0  0  0  0  0  0
    9.4008   12.6641   23.4831 C   0  0  0  0  0  0  0  0  0  0  0  0
   10.4160   13.3374   22.7901 N   0  0  0  0  0  0  0  0  0  0  0  0
   10.1869   14.3350   21.7733 C   0  0  0  0  0  0  0  0  0  0  0  0
   11.5940   14.7737   21.3979 C   0  0  0  0  0  0  0  0  0  0  0  0
   12.3590   14.4643   22.5686 N   0  0  0  0  0  0  0  0  0  0  0  0
   11.6706   13.5770   23.3828 C   0  0  0  0  0  0  0  0  0  0  0  0
   12.0904   13.1592   24.4481 O   0  0  0  0  0  0  0  0  0  0  0  0
    9.5268   11.2910   23.6928 C   0  0  0  0  0  0  0  0  0  0  0  0
    8.5617   10.6086   24.4253 C   0  0  0  0  0  0  0  0  0  0  0  0
    7.4967   11.3043   24.9914 C   0  0  0  0  0  0  0  0  0  0  0  0
    6.6224   10.6000   25.7172 F   0  0  0  0  0  0  0  0  0  0  0  0
  1  2  1  0
  2  3  1  0
  2  4  1  0
  2  5  1  0
  5  6  2  0
  5  7  1  0
  7  8  1  0
  8  9  2  0
  9 10  1  0
 10 11  1  0
 11 12  1  0
 12 13  1  0
 13 14  1  0
 14 15  1  0
 15 16  2  0
 10 17  2  0
 17 18  1  0
 18 19  2  0
 19 20  1  0
 19  8  1  0
 15 11  1  0
M  END
>  <alias>  (181) 
None

>  <rmsd(smina/fragmenstein)>  (181) 
0.795

>  <smiles>  (181) 
CC(C)(C)C(=O)Nc1cc(N2CCNC2=O)ccc1F

>  <gnina_score>  (181) 
5.055

>  <inspiration_score>  (181) 
None

>  <energy_score>  (181) 
-30.300849

>  <distance_score>  (181) 
1.336019

>  <gnina_score_min>  (181) 
5.254

>  <inchikey>  (181) 
NCCDEGXQKHOLBH-UHFFFAOYSA-N

>  <exports>  (181) 
['/opt/xchem-fragalysis-2/maxwin/BulkDock/OUTPUTS/openbind_a71ev2a_c2_elabs_1LOUU54.sdf', '/opt/xchem-fragalysis-2/maxwin/BulkDock/OUTPUTS/openbind_a71ev2a_c2_elabs_1LSYIDY.sdf']

>  <name>  (181) 
P544513

>  <ref_pdb>  (181) 
A0884a

>  <subsites>  (181) 
None

>  <HIPPO Pose ID>  (181) 
544513

>  <ref_mols>  (181) 
A0884a

>  <HIPPO Compound ID>  (181) 
382524

>  <tags>  (181) 
openbind_a71ev2a_c2_elabs,syndirella_product,openbind_a71ev2a_c2_elabs_fragonly_scored_top80percent,openbind_a71ev2a_c2_elabs_scored,BulkDock Fragalysis export,openbind_a71ev2a_c2_elabs_scored_top80percent,openbind_a71ev2a_c2_elabs_activefrags_only_scored_5.2plus,syndirella_placed

>  <smina_score_min>  (181) 
-6.679

$$$$
P544517
     RDKit          3D

 20 21  0  0  0  0  0  0  0  0999 V2000
    3.0402   13.8489   27.5582 C   0  0  0  0  0  0  0  0  0  0  0  0
    4.1782   14.2123   26.5804 C   0  0  0  0  0  0  0  0  0  0  0  0
    3.5377   14.6429   25.2511 C   0  0  0  0  0  0  0  0  0  0  0  0
    4.9794   15.3710   27.1955 C   0  0  0  0  0  0  0  0  0  0  0  0
    5.0852   12.9548   26.3878 C   0  0  0  0  0  0  0  0  0  0  0  0
    4.8633   11.9403   26.9304 O   0  0  0  0  0  0  0  0  0  0  0  0
    6.2415   13.3500   25.4173 N   0  0  0  0  0  0  0  0  0  0  0  0
    7.2609   12.5808   24.8674 C   0  0  0  0  0  0  0  0  0  0  0  0
    7.3762   11.2143   25.1082 C   0  0  0  0  0  0  0  0  0  0  0  0
    8.4214   10.5010   24.5248 C   0  0  0  0  0  0  0  0  0  0  0  0
    9.3918   11.1676   23.7855 C   0  0  0  0  0  0  0  0  0  0  0  0
   10.4050   10.4503   23.2911 F   0  0  0  0  0  0  0  0  0  0  0  0
    9.3117   12.5418   23.5586 C   0  0  0  0  0  0  0  0  0  0  0  0
   10.3435   13.2554   22.9225 N   0  0  0  0  0  0  0  0  0  0  0  0
   11.7377   12.9813   23.0971 C   0  0  0  0  0  0  0  0  0  0  0  0
   12.3274   14.3682   23.1657 C   0  0  0  0  0  0  0  0  0  0  0  0
   11.4729   15.1057   22.3032 N   0  0  0  0  0  0  0  0  0  0  0  0
   10.2343   14.4912   22.2919 C   0  0  0  0  0  0  0  0  0  0  0  0
    9.2367   15.0215   21.8501 O   0  0  0  0  0  0  0  0  0  0  0  0
    8.2018   13.2291   24.0626 C   0  0  0  0  0  0  0  0  0  0  0  0
  1  2  1  0
  2  3  1  0
  2  4  1  0
  2  5  1  0
  5  6  2  0
  5  7  1  0
  7  8  1  0
  8  9  2  0
  9 10  1  0
 10 11  2  0
 11 12  1  0
 11 13  1  0
 13 14  1  0
 14 15  1  0
 15 16  1  0
 16 17  1  0
 17 18  1  0
 18 19  2  0
 13 20  2  0
 20  8  1  0
 18 14  1  0
M  END
>  <alias>  (182) 
None

>  <rmsd(smina/fragmenstein)>  (182) 
0.753

>  <smiles>  (182) 
CC(C)(C)C(=O)Nc1ccc(F)c(N2CCNC2=O)c1

>  <gnina_score>  (182) 
5.29

>  <inspiration_score>  (182) 
None

>  <energy_score>  (182) 
-40.269303

>  <distance_score>  (182) 
1.734026

>  <gnina_score_min>  (182) 
5.235

>  <inchikey>  (182) 
OLEUONBZHTYASS-UHFFFAOYSA-N

>  <exports>  (182) 
['/opt/xchem-fragalysis-2/maxwin/BulkDock/OUTPUTS/openbind_a71ev2a_c2_elabs_1LOUU54.sdf', '/opt/xchem-fragalysis-2/maxwin/BulkDock/OUTPUTS/openbind_a71ev2a_c2_elabs_1LSYIDY.sdf']

>  <name>  (182) 
P544517

>  <ref_pdb>  (182) 
A0884a

>  <subsites>  (182) 
None

>  <HIPPO Pose ID>  (182) 
544517

>  <ref_mols>  (182) 
A0884a

>  <HIPPO Compound ID>  (182) 
382532

>  <tags>  (182) 
openbind_a71ev2a_c2_elabs,syndirella_product,openbind_a71ev2a_c2_elabs_fragonly_scored_top80percent,openbind_a71ev2a_c2_elabs_scored,BulkDock Fragalysis export,openbind_a71ev2a_c2_elabs_scored_top80percent,openbind_a71ev2a_c2_elabs_activefrags_only_scored_5.2plus,syndirella_placed

>  <smina_score_min>  (182) 
-6.323

$$$$
P544546
     RDKit          3D

 20 21  0  0  0  0  0  0  0  0999 V2000
    5.1197   15.1897   27.5235 C   0  0  0  0  0  0  0  0  0  0  0  0
    4.2391   14.0985   26.8944 C   0  0  0  0  0  0  0  0  0  0  0  0
    3.1503   13.7147   27.9194 C   0  0  0  0  0  0  0  0  0  0  0  0
    3.5340   14.6289   25.6357 C   0  0  0  0  0  0  0  0  0  0  0  0
    5.0837   12.8252   26.5713 C   0  0  0  0  0  0  0  0  0  0  0  0
    4.8399   11.7829   27.0475 O   0  0  0  0  0  0  0  0  0  0  0  0
    6.1833   13.2337   25.5426 N   0  0  0  0  0  0  0  0  0  0  0  0
    7.2206   12.4928   24.9885 C   0  0  0  0  0  0  0  0  0  0  0  0
    7.3349   11.1169   25.1709 C   0  0  0  0  0  0  0  0  0  0  0  0
    8.3745   10.4178   24.5544 C   0  0  0  0  0  0  0  0  0  0  0  0
    9.3501   11.0979   23.8329 C   0  0  0  0  0  0  0  0  0  0  0  0
    9.2612   12.4815   23.6881 C   0  0  0  0  0  0  0  0  0  0  0  0
   10.3297   13.1959   23.0953 N   0  0  0  0  0  0  0  0  0  0  0  0
   11.5418   13.2500   23.8816 C   0  0  0  0  0  0  0  0  0  0  0  0
   12.7008   13.7239   23.0627 C   0  0  0  0  0  0  0  0  0  0  0  0
   12.3746   15.0546   22.4648 C   0  0  0  0  0  0  0  0  0  0  0  0
   11.1003   15.0061   21.8315 N   0  0  0  0  0  0  0  0  0  0  0  0
   10.0876   14.1702   22.1540 C   0  0  0  0  0  0  0  0  0  0  0  0
    9.0214   14.3327   21.5759 O   0  0  0  0  0  0  0  0  0  0  0  0
    8.1684   13.1691   24.2224 C   0  0  0  0  0  0  0  0  0  0  0  0
  1  2  1  0
  2  3  1  0
  2  4  1  0
  2  5  1  0
  5  6  2  0
  5  7  1  0
  7  8  1  0
  8  9  2  0
  9 10  1  0
 10 11  2  0
 11 12  1  0
 12 13  1  0
 13 14  1  0
 14 15  1  0
 15 16  1  0
 16 17  1  0
 17 18  1  0
 18 19  2  0
 12 20  2  0
 20  8  1  0
 18 13  1  0
M  END
>  <alias>  (183) 
None

>  <rmsd(smina/fragmenstein)>  (183) 
0.525

>  <smiles>  (183) 
CC(C)(C)C(=O)Nc1cccc(N2CCCNC2=O)c1

>  <gnina_score>  (183) 
5.192

>  <inspiration_score>  (183) 
None

>  <energy_score>  (183) 
-45.863191

>  <distance_score>  (183) 
1.775797

>  <gnina_score_min>  (183) 
5.228

>  <inchikey>  (183) 
JVMUGUCEQBHRSP-UHFFFAOYSA-N

>  <exports>  (183) 
['/opt/xchem-fragalysis-2/maxwin/BulkDock/OUTPUTS/openbind_a71ev2a_c2_elabs_1LOUU54.sdf', '/opt/xchem-fragalysis-2/maxwin/BulkDock/OUTPUTS/openbind_a71ev2a_c2_elabs_1LSYIDY.sdf']

>  <name>  (183) 
P544546

>  <ref_pdb>  (183) 
A0884a

>  <subsites>  (183) 
None

>  <HIPPO Pose ID>  (183) 
544546

>  <ref_mols>  (183) 
A0884a

>  <HIPPO Compound ID>  (183) 
382566

>  <tags>  (183) 
openbind_a71ev2a_c2_elabs,syndirella_product,openbind_a71ev2a_c2_elabs_fragonly_scored_top80percent,openbind_a71ev2a_c2_elabs_scored,BulkDock Fragalysis export,openbind_a71ev2a_c2_elabs_scored_top80percent,openbind_a71ev2a_c2_elabs_activefrags_only_scored_5.2plus,syndirella_placed

>  <smina_score_min>  (183) 
-6.256

$$$$
P544550
     RDKit          3D

 20 20  0  0  0  0  0  0  0  0999 V2000
   12.9552   15.4034   21.7686 C   0  0  0  0  0  0  0  0  0  0  0  0
   12.1657   14.4772   20.9021 C   0  0  0  0  0  0  0  0  0  0  0  0
   11.4021   13.5731   21.7036 N   0  0  0  0  0  0  0  0  0  0  0  0
   10.7100   13.7749   22.9873 C   0  0  0  0  0  0  0  0  0  0  0  0
   10.6889   14.7035   23.6912 O   0  0  0  0  0  0  0  0  0  0  0  0
    9.9777   12.5046   23.0747 N   0  0  0  0  0  0  0  0  0  0  0  0
    8.9951   12.0866   23.9552 C   0  0  0  0  0  0  0  0  0  0  0  0
    8.2050   13.0414   24.6107 C   0  0  0  0  0  0  0  0  0  0  0  0
    7.1465   12.6467   25.4268 C   0  0  0  0  0  0  0  0  0  0  0  0
    6.3207   13.6280   25.9694 N   0  0  0  0  0  0  0  0  0  0  0  0
    5.1104   13.5218   26.7572 C   0  0  0  0  0  0  0  0  0  0  0  0
    4.5524   12.5595   27.2111 O   0  0  0  0  0  0  0  0  0  0  0  0
    4.4961   14.9418   26.9965 C   0  0  0  0  0  0  0  0  0  0  0  0
    3.2359   14.8054   27.8773 C   0  0  0  0  0  0  0  0  0  0  0  0
    5.4922   15.8529   27.7332 C   0  0  0  0  0  0  0  0  0  0  0  0
    4.0719   15.5752   25.6608 C   0  0  0  0  0  0  0  0  0  0  0  0
    6.9199   11.2935   25.6289 C   0  0  0  0  0  0  0  0  0  0  0  0
    7.7250   10.3514   24.9853 C   0  0  0  0  0  0  0  0  0  0  0  0
    8.7700   10.7296   24.1414 C   0  0  0  0  0  0  0  0  0  0  0  0
    9.6354    9.6966   23.4916 C   0  0  0  0  0  0  0  0  0  0  0  0
  1  2  1  0
  2  3  1  0
  3  4  1  0
  4  5  2  0
  4  6  1  0
  6  7  1  0
  7  8  2  0
  8  9  1  0
  9 10  1  0
 10 11  1  0
 11 12  2  0
 11 13  1  0
 13 14  1  0
 13 15  1  0
 13 16  1  0
  9 17  2  0
 17 18  1  0
 18 19  2  0
 19 20  1  0
 19  7  1  0
M  END
>  <alias>  (184) 
None

>  <rmsd(smina/fragmenstein)>  (184) 
1.022

>  <smiles>  (184) 
CCNC(=O)Nc1cc(NC(=O)C(C)(C)C)ccc1C

>  <gnina_score>  (184) 
5.171

>  <inspiration_score>  (184) 
None

>  <energy_score>  (184) 
-35.922739

>  <distance_score>  (184) 
1.758805

>  <gnina_score_min>  (184) 
5.224

>  <inchikey>  (184) 
HYKQXEYHVZDQFR-UHFFFAOYSA-N

>  <exports>  (184) 
['/opt/xchem-fragalysis-2/maxwin/BulkDock/OUTPUTS/openbind_a71ev2a_c2_elabs_1LOUU54.sdf', '/opt/xchem-fragalysis-2/maxwin/BulkDock/OUTPUTS/openbind_a71ev2a_c2_elabs_1LSYIDY.sdf']

>  <name>  (184) 
P544550

>  <ref_pdb>  (184) 
A0884a

>  <subsites>  (184) 
None

>  <HIPPO Pose ID>  (184) 
544550

>  <ref_mols>  (184) 
A0884a

>  <HIPPO Compound ID>  (184) 
382572

>  <tags>  (184) 
openbind_a71ev2a_c2_elabs,syndirella_product,openbind_a71ev2a_c2_elabs_fragonly_scored_top80percent,openbind_a71ev2a_c2_elabs_scored,BulkDock Fragalysis export,openbind_a71ev2a_c2_elabs_scored_top80percent,openbind_a71ev2a_c2_elabs_activefrags_only_scored_5.2plus,syndirella_placed

>  <smina_score_min>  (184) 
-5.917

$$$$
P544559
     RDKit          3D

 20 22  0  0  0  0  0  0  0  0999 V2000
    6.4800   10.6869   25.9480 C   0  0  0  0  0  0  0  0  0  0  0  0
    7.3977   11.5972   25.2028 C   0  0  0  0  0  0  0  0  0  0  0  0
    8.4149   10.9927   24.4211 C   0  0  0  0  0  0  0  0  0  0  0  0
    9.3616   11.7579   23.7432 C   0  0  0  0  0  0  0  0  0  0  0  0
    9.3017   13.1422   23.8559 C   0  0  0  0  0  0  0  0  0  0  0  0
   10.4459   13.9388   23.6924 N   0  0  0  0  0  0  0  0  0  0  0  0
   11.4730   13.8120   24.7011 C   0  0  0  0  0  0  0  0  0  0  0  0
   12.6980   13.4895   23.9015 C   0  0  0  0  0  0  0  0  0  0  0  0
   12.4476   14.2042   22.6958 N   0  0  0  0  0  0  0  0  0  0  0  0
   11.0774   14.1732   22.4616 C   0  0  0  0  0  0  0  0  0  0  0  0
   10.5714   14.3370   21.3709 O   0  0  0  0  0  0  0  0  0  0  0  0
    8.2444   13.7434   24.5357 C   0  0  0  0  0  0  0  0  0  0  0  0
    7.2924   12.9944   25.2338 C   0  0  0  0  0  0  0  0  0  0  0  0
    6.3470   13.7915   25.9013 N   0  0  0  0  0  0  0  0  0  0  0  0
    5.3562   13.4386   27.0313 C   0  0  0  0  0  0  0  0  0  0  0  0
    5.2218   12.4515   27.6387 O   0  0  0  0  0  0  0  0  0  0  0  0
    4.4607   14.6215   27.3086 C   0  0  0  0  0  0  0  0  0  0  0  0
    5.0016   15.6576   28.2620 C   0  0  0  0  0  0  0  0  0  0  0  0
    3.5537   15.1003   26.1826 C   0  0  0  0  0  0  0  0  0  0  0  0
    2.9603   14.3688   27.3474 C   0  0  0  0  0  0  0  0  0  0  0  0
  1  2  1  0
  2  3  2  0
  3  4  1  0
  4  5  2  0
  5  6  1  0
  6  7  1  0
  7  8  1  0
  8  9  1  0
  9 10  1  0
 10 11  2  0
  5 12  1  0
 12 13  2  0
 13 14  1  0
 14 15  1  0
 15 16  2  0
 15 17  1  0
 17 18  1  0
 17 19  1  0
 19 20  1  0
 13  2  1  0
 20 17  1  0
 10  6  1  0
M  END
>  <alias>  (185) 
None

>  <rmsd(smina/fragmenstein)>  (185) 
1.626

>  <smiles>  (185) 
Cc1ccc(N2CCNC2=O)cc1NC(=O)C1(C)CC1

>  <gnina_score>  (185) 
5.103

>  <inspiration_score>  (185) 
None

>  <energy_score>  (185) 
-15.244304

>  <distance_score>  (185) 
1.696666

>  <gnina_score_min>  (185) 
5.294

>  <inchikey>  (185) 
CJRGEYLOQVKJMC-UHFFFAOYSA-N

>  <exports>  (185) 
['/opt/xchem-fragalysis-2/maxwin/BulkDock/OUTPUTS/openbind_a71ev2a_c2_elabs_1LOUU54.sdf', '/opt/xchem-fragalysis-2/maxwin/BulkDock/OUTPUTS/openbind_a71ev2a_c2_elabs_1LSYIDY.sdf']

>  <name>  (185) 
P544559

>  <ref_pdb>  (185) 
A0884a

>  <subsites>  (185) 
None

>  <HIPPO Pose ID>  (185) 
544559

>  <ref_mols>  (185) 
A0884a

>  <HIPPO Compound ID>  (185) 
382590

>  <tags>  (185) 
openbind_a71ev2a_c2_elabs,syndirella_product,openbind_a71ev2a_c2_elabs_fragonly_scored_top80percent,openbind_a71ev2a_c2_elabs_scored,BulkDock Fragalysis export,openbind_a71ev2a_c2_elabs_scored_top80percent,openbind_a71ev2a_c2_elabs_activefrags_only_scored_5.2plus,syndirella_placed

>  <smina_score_min>  (185) 
-6.459

$$$$
P544560
     RDKit          3D

 20 22  0  0  0  0  0  0  0  0999 V2000
    5.0776   15.3368   27.6426 C   0  0  0  0  0  0  0  0  0  0  0  0
    4.4550   14.3362   26.6999 C   0  0  0  0  0  0  0  0  0  0  0  0
    5.2736   13.1017   26.4037 C   0  0  0  0  0  0  0  0  0  0  0  0
    5.0875   12.1180   27.0013 O   0  0  0  0  0  0  0  0  0  0  0  0
    6.2991   13.4206   25.2974 N   0  0  0  0  0  0  0  0  0  0  0  0
    7.3426   12.6487   24.7755 C   0  0  0  0  0  0  0  0  0  0  0  0
    8.2786   13.3187   23.9757 C   0  0  0  0  0  0  0  0  0  0  0  0
    9.3944   12.6461   23.4719 C   0  0  0  0  0  0  0  0  0  0  0  0
   10.4042   13.3229   22.7721 N   0  0  0  0  0  0  0  0  0  0  0  0
   10.1673   14.3536   21.7885 C   0  0  0  0  0  0  0  0  0  0  0  0
   11.5661   14.8206   21.4149 C   0  0  0  0  0  0  0  0  0  0  0  0
   12.3708   14.3981   22.5222 N   0  0  0  0  0  0  0  0  0  0  0  0
   11.6784   13.5194   23.3371 C   0  0  0  0  0  0  0  0  0  0  0  0
   12.1098   13.0701   24.3857 O   0  0  0  0  0  0  0  0  0  0  0  0
    9.5250   11.2729   23.6801 C   0  0  0  0  0  0  0  0  0  0  0  0
    8.5666   10.5864   24.4178 C   0  0  0  0  0  0  0  0  0  0  0  0
    7.5048   11.2783   24.9939 C   0  0  0  0  0  0  0  0  0  0  0  0
    6.6342   10.5706   25.7210 F   0  0  0  0  0  0  0  0  0  0  0  0
    2.9429   14.1909   26.7657 C   0  0  0  0  0  0  0  0  0  0  0  0
    3.5667   14.8691   25.5839 C   0  0  0  0  0  0  0  0  0  0  0  0
  1  2  1  0
  2  3  1  0
  3  4  2  0
  3  5  1  0
  5  6  1  0
  6  7  2  0
  7  8  1  0
  8  9  1  0
  9 10  1  0
 10 11  1  0
 11 12  1  0
 12 13  1  0
 13 14  2  0
  8 15  2  0
 15 16  1  0
 16 17  2  0
 17 18  1  0
  2 19  1  0
 19 20  1  0
 20  2  1  0
 17  6  1  0
 13  9  1  0
M  END
>  <alias>  (186) 
None

>  <rmsd(smina/fragmenstein)>  (186) 
1.135

>  <smiles>  (186) 
CC1(C(=O)Nc2cc(N3CCNC3=O)ccc2F)CC1

>  <gnina_score>  (186) 
5.059

>  <inspiration_score>  (186) 
None

>  <energy_score>  (186) 
-28.278121

>  <distance_score>  (186) 
1.290785

>  <gnina_score_min>  (186) 
5.288

>  <inchikey>  (186) 
FGFGETRIUSQSBI-UHFFFAOYSA-N

>  <exports>  (186) 
['/opt/xchem-fragalysis-2/maxwin/BulkDock/OUTPUTS/openbind_a71ev2a_c2_elabs_1LOUU54.sdf', '/opt/xchem-fragalysis-2/maxwin/BulkDock/OUTPUTS/openbind_a71ev2a_c2_elabs_1LSYIDY.sdf']

>  <name>  (186) 
P544560

>  <ref_pdb>  (186) 
A0884a

>  <subsites>  (186) 
None

>  <HIPPO Pose ID>  (186) 
544560

>  <ref_mols>  (186) 
A0884a

>  <HIPPO Compound ID>  (186) 
382596

>  <tags>  (186) 
openbind_a71ev2a_c2_elabs,syndirella_product,openbind_a71ev2a_c2_elabs_fragonly_scored_top80percent,openbind_a71ev2a_c2_elabs_scored,BulkDock Fragalysis export,openbind_a71ev2a_c2_elabs_scored_top80percent,openbind_a71ev2a_c2_elabs_activefrags_only_scored_5.2plus,syndirella_placed

>  <smina_score_min>  (186) 
-6.726

$$$$
P544562
     RDKit          3D

 20 22  0  0  0  0  0  0  0  0999 V2000
   12.1997   14.7628   20.7912 C   0  0  0  0  0  0  0  0  0  0  0  0
   11.6879   14.2599   22.0320 N   0  0  0  0  0  0  0  0  0  0  0  0
   12.3851   14.3796   23.2623 C   0  0  0  0  0  0  0  0  0  0  0  0
   11.6032   13.4689   24.1761 C   0  0  0  0  0  0  0  0  0  0  0  0
   10.2724   13.5295   23.6194 N   0  0  0  0  0  0  0  0  0  0  0  0
    9.2822   12.6381   24.0433 C   0  0  0  0  0  0  0  0  0  0  0  0
    9.3789   11.2668   23.8201 C   0  0  0  0  0  0  0  0  0  0  0  0
    8.4465   10.4174   24.4079 C   0  0  0  0  0  0  0  0  0  0  0  0
    7.4198   10.9350   25.2060 C   0  0  0  0  0  0  0  0  0  0  0  0
    7.2980   12.3118   25.3797 C   0  0  0  0  0  0  0  0  0  0  0  0
    6.2842   12.8869   26.1398 N   0  0  0  0  0  0  0  0  0  0  0  0
    5.2738   12.2459   27.1076 C   0  0  0  0  0  0  0  0  0  0  0  0
    5.0792   11.1260   27.3643 O   0  0  0  0  0  0  0  0  0  0  0  0
    4.4550   13.3249   27.7770 C   0  0  0  0  0  0  0  0  0  0  0  0
    3.2320   13.7956   27.0290 C   0  0  0  0  0  0  0  0  0  0  0  0
    4.3503   13.2797   29.2945 C   0  0  0  0  0  0  0  0  0  0  0  0
    5.1879   14.3389   28.6461 C   0  0  0  0  0  0  0  0  0  0  0  0
    8.2261   13.1635   24.7849 C   0  0  0  0  0  0  0  0  0  0  0  0
   10.3786   13.8951   22.2654 C   0  0  0  0  0  0  0  0  0  0  0  0
    9.4823   13.9246   21.4449 O   0  0  0  0  0  0  0  0  0  0  0  0
  1  2  1  0
  2  3  1  0
  3  4  1  0
  4  5  1  0
  5  6  1  0
  6  7  2  0
  7  8  1  0
  8  9  2  0
  9 10  1  0
 10 11  1  0
 11 12  1  0
 12 13  2  0
 12 14  1  0
 14 15  1  0
 14 16  1  0
 16 17  1  0
 10 18  2  0
  5 19  1  0
 19 20  2  0
 19  2  1  0
 18  6  1  0
 17 14  1  0
M  END
>  <alias>  (187) 
None

>  <rmsd(smina/fragmenstein)>  (187) 
0.693

>  <smiles>  (187) 
CN1CCN(c2cccc(NC(=O)C3(C)CC3)c2)C1=O

>  <gnina_score>  (187) 
5.186

>  <inspiration_score>  (187) 
None

>  <energy_score>  (187) 
-33.927614

>  <distance_score>  (187) 
1.609455

>  <gnina_score_min>  (187) 
5.259

>  <inchikey>  (187) 
UIFBJYFPROMHOX-UHFFFAOYSA-N

>  <exports>  (187) 
['/opt/xchem-fragalysis-2/maxwin/BulkDock/OUTPUTS/openbind_a71ev2a_c2_elabs_1LOUU54.sdf', '/opt/xchem-fragalysis-2/maxwin/BulkDock/OUTPUTS/openbind_a71ev2a_c2_elabs_1LSYIDY.sdf']

>  <name>  (187) 
P544562

>  <ref_pdb>  (187) 
A0884a

>  <subsites>  (187) 
None

>  <HIPPO Pose ID>  (187) 
544562

>  <ref_mols>  (187) 
A0884a

>  <HIPPO Compound ID>  (187) 
382601

>  <tags>  (187) 
openbind_a71ev2a_c2_elabs,syndirella_product,openbind_a71ev2a_c2_elabs_fragonly_scored_top80percent,openbind_a71ev2a_c2_elabs_scored,BulkDock Fragalysis export,openbind_a71ev2a_c2_elabs_scored_top80percent,openbind_a71ev2a_c2_elabs_activefrags_only_scored_5.2plus,syndirella_placed

>  <smina_score_min>  (187) 
-6.138

$$$$
P544565
     RDKit          3D

 20 22  0  0  0  0  0  0  0  0999 V2000
    7.9288   14.5673   24.6394 C   0  0  0  0  0  0  0  0  0  0  0  0
    8.1757   13.0840   24.5989 C   0  0  0  0  0  0  0  0  0  0  0  0
    7.3593   12.1860   25.3151 C   0  0  0  0  0  0  0  0  0  0  0  0
    6.4210   12.6863   26.2263 N   0  0  0  0  0  0  0  0  0  0  0  0
    5.4661   11.9509   27.1839 C   0  0  0  0  0  0  0  0  0  0  0  0
    5.3621   10.8153   27.4224 O   0  0  0  0  0  0  0  0  0  0  0  0
    4.6364   12.9646   27.9386 C   0  0  0  0  0  0  0  0  0  0  0  0
    5.3094   13.6199   29.1205 C   0  0  0  0  0  0  0  0  0  0  0  0
    3.6369   13.7904   27.1415 C   0  0  0  0  0  0  0  0  0  0  0  0
    3.1423   12.7184   28.0651 C   0  0  0  0  0  0  0  0  0  0  0  0
    7.5549   10.8137   25.1676 C   0  0  0  0  0  0  0  0  0  0  0  0
    8.5714   10.3285   24.3428 C   0  0  0  0  0  0  0  0  0  0  0  0
    9.4533   11.2046   23.7252 C   0  0  0  0  0  0  0  0  0  0  0  0
    9.2846   12.5777   23.8869 C   0  0  0  0  0  0  0  0  0  0  0  0
   10.2945   13.4583   23.4645 N   0  0  0  0  0  0  0  0  0  0  0  0
   11.6245   13.4244   24.0183 C   0  0  0  0  0  0  0  0  0  0  0  0
   12.3425   14.4657   23.1857 C   0  0  0  0  0  0  0  0  0  0  0  0
   11.6524   14.4280   21.9510 N   0  0  0  0  0  0  0  0  0  0  0  0
   10.3703   13.9616   22.1612 C   0  0  0  0  0  0  0  0  0  0  0  0
    9.4845   14.0524   21.3368 O   0  0  0  0  0  0  0  0  0  0  0  0
  1  2  1  0
  2  3  2  0
  3  4  1  0
  4  5  1  0
  5  6  2  0
  5  7  1  0
  7  8  1  0
  7  9  1  0
  9 10  1  0
  3 11  1  0
 11 12  2  0
 12 13  1  0
 13 14  2  0
 14 15  1  0
 15 16  1  0
 16 17  1  0
 17 18  1  0
 18 19  1  0
 19 20  2  0
 14  2  1  0
 19 15  1  0
 10  7  1  0
M  END
>  <alias>  (188) 
None

>  <rmsd(smina/fragmenstein)>  (188) 
0.661

>  <smiles>  (188) 
Cc1c(NC(=O)C2(C)CC2)cccc1N1CCNC1=O

>  <gnina_score>  (188) 
5.246

>  <inspiration_score>  (188) 
None

>  <energy_score>  (188) 
-21.632306

>  <distance_score>  (188) 
1.585517

>  <gnina_score_min>  (188) 
5.334

>  <inchikey>  (188) 
QVMCOFOXIFUIQI-UHFFFAOYSA-N

>  <exports>  (188) 
['/opt/xchem-fragalysis-2/maxwin/BulkDock/OUTPUTS/openbind_a71ev2a_c2_elabs_1LOUU54.sdf', '/opt/xchem-fragalysis-2/maxwin/BulkDock/OUTPUTS/openbind_a71ev2a_c2_elabs_1LSYIDY.sdf']

>  <name>  (188) 
P544565

>  <ref_pdb>  (188) 
A0884a

>  <subsites>  (188) 
None

>  <HIPPO Pose ID>  (188) 
544565

>  <ref_mols>  (188) 
A0884a

>  <HIPPO Compound ID>  (188) 
382607

>  <tags>  (188) 
openbind_a71ev2a_c2_elabs,syndirella_product,openbind_a71ev2a_c2_elabs_fragonly_scored_top80percent,openbind_a71ev2a_c2_elabs_scored,BulkDock Fragalysis export,openbind_a71ev2a_c2_elabs_scored_top80percent,openbind_a71ev2a_c2_elabs_activefrags_only_scored_5.2plus,syndirella_placed

>  <smina_score_min>  (188) 
-6.52

$$$$
P544571
     RDKit          3D

 20 21  0  0  0  0  0  0  0  0999 V2000
    4.2935   15.3797   29.4928 C   0  0  0  0  0  0  0  0  0  0  0  0
    5.3919   14.8131   28.6459 C   0  0  0  0  0  0  0  0  0  0  0  0
    5.9439   13.2548   29.1614 Cl  0  0  0  0  0  0  0  0  0  0  0  0
    5.9174   15.4758   27.6051 C   0  0  0  0  0  0  0  0  0  0  0  0
    7.0373   15.0569   26.7150 C   0  0  0  0  0  0  0  0  0  0  0  0
    7.8722   15.8183   26.4310 O   0  0  0  0  0  0  0  0  0  0  0  0
    6.7974   13.6108   26.2347 N   0  0  0  0  0  0  0  0  0  0  0  0
    7.5596   12.7974   25.4077 C   0  0  0  0  0  0  0  0  0  0  0  0
    7.2977   11.4310   25.3942 C   0  0  0  0  0  0  0  0  0  0  0  0
    8.1057   10.5902   24.6392 C   0  0  0  0  0  0  0  0  0  0  0  0
    9.1262   11.1141   23.8423 C   0  0  0  0  0  0  0  0  0  0  0  0
    9.9913    9.9688   22.9107 Cl  0  0  0  0  0  0  0  0  0  0  0  0
    9.3658   12.4963   23.8056 C   0  0  0  0  0  0  0  0  0  0  0  0
   10.3737   13.0634   22.9822 N   0  0  0  0  0  0  0  0  0  0  0  0
   10.0515   14.0827   21.9967 C   0  0  0  0  0  0  0  0  0  0  0  0
   11.4054   14.6311   21.5734 C   0  0  0  0  0  0  0  0  0  0  0  0
   12.2310   14.3376   22.7019 N   0  0  0  0  0  0  0  0  0  0  0  0
   11.6028   13.4536   23.5640 C   0  0  0  0  0  0  0  0  0  0  0  0
   12.0502   13.1327   24.6512 O   0  0  0  0  0  0  0  0  0  0  0  0
    8.5875   13.3262   24.6209 C   0  0  0  0  0  0  0  0  0  0  0  0
  1  2  1  0
  2  3  1  0
  2  4  2  0
  4  5  1  0
  5  6  2  0
  5  7  1  0
  7  8  1  0
  8  9  2  0
  9 10  1  0
 10 11  2  0
 11 12  1  0
 11 13  1  0
 13 14  1  0
 14 15  1  0
 15 16  1  0
 16 17  1  0
 17 18  1  0
 18 19  2  0
 13 20  2  0
 20  8  1  0
 18 14  1  0
M  END
>  <alias>  (189) 
None

>  <rmsd(smina/fragmenstein)>  (189) 
0.765

>  <smiles>  (189) 
C/C(Cl)=C/C(=O)Nc1ccc(Cl)c(N2CCNC2=O)c1

>  <gnina_score>  (189) 
5.228

>  <inspiration_score>  (189) 
None

>  <energy_score>  (189) 
-47.850176

>  <distance_score>  (189) 
1.930334

>  <gnina_score_min>  (189) 
5.262

>  <inchikey>  (189) 
SKCRKWIBJUOQMQ-VURMDHGXSA-N

>  <exports>  (189) 
['/opt/xchem-fragalysis-2/maxwin/BulkDock/OUTPUTS/openbind_a71ev2a_c2_elabs_1LOUU54.sdf', '/opt/xchem-fragalysis-2/maxwin/BulkDock/OUTPUTS/openbind_a71ev2a_c2_elabs_1LSYIDY.sdf']

>  <name>  (189) 
P544571

>  <ref_pdb>  (189) 
A0884a

>  <subsites>  (189) 
None

>  <HIPPO Pose ID>  (189) 
544571

>  <ref_mols>  (189) 
A0884a

>  <HIPPO Compound ID>  (189) 
382615

>  <tags>  (189) 
openbind_a71ev2a_c2_elabs,syndirella_product,openbind_a71ev2a_c2_elabs_fragonly_scored_top80percent,openbind_a71ev2a_c2_elabs_scored,BulkDock Fragalysis export,openbind_a71ev2a_c2_elabs_scored_top80percent,openbind_a71ev2a_c2_elabs_activefrags_only_scored_5.2plus,syndirella_placed

>  <smina_score_min>  (189) 
-6.069

$$$$
P544582
     RDKit          3D

 20 21  0  0  0  0  0  0  0  0999 V2000
    3.4284   10.9131   29.3238 C   0  0  0  0  0  0  0  0  0  0  0  0
    4.6226   11.2482   28.4842 C   0  0  0  0  0  0  0  0  0  0  0  0
    6.0525   10.3960   28.9240 Cl  0  0  0  0  0  0  0  0  0  0  0  0
    4.5900   12.1666   27.5109 C   0  0  0  0  0  0  0  0  0  0  0  0
    5.7038   12.6379   26.6436 C   0  0  0  0  0  0  0  0  0  0  0  0
    5.9039   13.7838   26.5483 O   0  0  0  0  0  0  0  0  0  0  0  0
    6.3618   11.4399   25.9149 N   0  0  0  0  0  0  0  0  0  0  0  0
    7.4293   11.4008   25.0201 C   0  0  0  0  0  0  0  0  0  0  0  0
    7.9923   10.1927   24.6359 C   0  0  0  0  0  0  0  0  0  0  0  0
    9.0627   10.1543   23.7335 C   0  0  0  0  0  0  0  0  0  0  0  0
    9.6284   11.3374   23.2684 C   0  0  0  0  0  0  0  0  0  0  0  0
    9.1183   12.5502   23.7144 C   0  0  0  0  0  0  0  0  0  0  0  0
    9.9343   13.7045   23.7763 N   0  0  0  0  0  0  0  0  0  0  0  0
   10.9568   14.0299   22.8735 C   0  0  0  0  0  0  0  0  0  0  0  0
   11.0517   13.8033   21.6863 O   0  0  0  0  0  0  0  0  0  0  0  0
   11.9584   14.6866   23.5597 N   0  0  0  0  0  0  0  0  0  0  0  0
   11.8053   14.5252   24.9625 C   0  0  0  0  0  0  0  0  0  0  0  0
   10.4124   13.9742   25.1217 C   0  0  1  0  0  0  0  0  0  0  0  0
    9.4713   14.7887   26.0207 C   0  0  0  0  0  0  0  0  0  0  0  0
    7.9619   12.5695   24.5046 C   0  0  0  0  0  0  0  0  0  0  0  0
  1  2  1  0
  2  3  1  0
  2  4  2  0
  4  5  1  0
  5  6  2  0
  5  7  1  0
  7  8  1  0
  8  9  2  0
  9 10  1  0
 10 11  2  0
 11 12  1  0
 12 13  1  0
 13 14  1  0
 14 15  2  0
 14 16  1  0
 16 17  1  0
 17 18  1  0
 18 19  1  6
 12 20  2  0
 20  8  1  0
 18 13  1  0
M  END
>  <alias>  (190) 
None

>  <rmsd(smina/fragmenstein)>  (190) 
1.539

>  <smiles>  (190) 
C/C(Cl)=C/C(=O)Nc1cccc(N2C(=O)NC[C@H]2C)c1

>  <gnina_score>  (190) 
4.984

>  <inspiration_score>  (190) 
None

>  <energy_score>  (190) 
-1.509074

>  <distance_score>  (190) 
1.116836

>  <gnina_score_min>  (190) 
5.321

>  <inchikey>  (190) 
QCHGFMJOEPIEJQ-ABRRARGCSA-N

>  <exports>  (190) 
['/opt/xchem-fragalysis-2/maxwin/BulkDock/OUTPUTS/openbind_a71ev2a_c2_elabs_1LOUU54.sdf', '/opt/xchem-fragalysis-2/maxwin/BulkDock/OUTPUTS/openbind_a71ev2a_c2_elabs_1LSYIDY.sdf']

>  <name>  (190) 
P544582

>  <ref_pdb>  (190) 
A0884a

>  <subsites>  (190) 
None

>  <HIPPO Pose ID>  (190) 
544582

>  <ref_mols>  (190) 
A0884a

>  <HIPPO Compound ID>  (190) 
382628

>  <tags>  (190) 
openbind_a71ev2a_c2_elabs,syndirella_product,openbind_a71ev2a_c2_elabs_fragonly_scored_top80percent,openbind_a71ev2a_c2_elabs_scored,BulkDock Fragalysis export,openbind_a71ev2a_c2_elabs_scored_top80percent,openbind_a71ev2a_c2_elabs_activefrags_only_scored_5.2plus,syndirella_placed

>  <smina_score_min>  (190) 
-6.863

$$$$
P544586
     RDKit          3D

 20 21  0  0  0  0  0  0  0  0999 V2000
    3.6352   15.0959   28.4892 C   0  0  0  0  0  0  0  0  0  0  0  0
    3.7594   15.6955   27.1229 C   0  0  0  0  0  0  0  0  0  0  0  0
    2.9696   17.2389   26.9586 Cl  0  0  0  0  0  0  0  0  0  0  0  0
    4.4129   15.2029   26.0594 C   0  0  0  0  0  0  0  0  0  0  0  0
    5.0701   13.8631   26.0564 C   0  0  0  0  0  0  0  0  0  0  0  0
    4.7006   12.9734   26.7157 O   0  0  0  0  0  0  0  0  0  0  0  0
    6.2446   13.9451   25.0419 N   0  0  0  0  0  0  0  0  0  0  0  0
    7.2403   12.9961   24.7105 C   0  0  0  0  0  0  0  0  0  0  0  0
    8.2335   13.5271   23.8598 C   0  0  0  0  0  0  0  0  0  0  0  0
    9.3435   12.7828   23.4539 C   0  0  0  0  0  0  0  0  0  0  0  0
   10.4030   13.3717   22.7454 N   0  0  0  0  0  0  0  0  0  0  0  0
   10.2467   14.3869   21.7290 C   0  0  0  0  0  0  0  0  0  0  0  0
   11.6764   14.7723   21.3825 C   0  0  0  0  0  0  0  0  0  0  0  0
   12.4262   14.3477   22.5246 N   0  0  0  0  0  0  0  0  0  0  0  0
   11.6690   13.5302   23.3449 C   0  0  0  0  0  0  0  0  0  0  0  0
   12.0454   13.1048   24.4240 O   0  0  0  0  0  0  0  0  0  0  0  0
    9.4187   11.4381   23.7908 C   0  0  0  0  0  0  0  0  0  0  0  0
    8.4243   10.8727   24.5823 C   0  0  0  0  0  0  0  0  0  0  0  0
    7.3701   11.6516   25.0931 C   0  0  0  0  0  0  0  0  0  0  0  0
    6.3599   10.8261   26.2083 Cl  0  0  0  0  0  0  0  0  0  0  0  0
  1  2  1  0
  2  3  1  0
  2  4  2  0
  4  5  1  0
  5  6  2  0
  5  7  1  0
  7  8  1  0
  8  9  2  0
  9 10  1  0
 10 11  1  0
 11 12  1  0
 12 13  1  0
 13 14  1  0
 14 15  1  0
 15 16  2  0
 10 17  2  0
 17 18  1  0
 18 19  2  0
 19 20  1  0
 19  8  1  0
 15 11  1  0
M  END
>  <alias>  (191) 
None

>  <rmsd(smina/fragmenstein)>  (191) 
0.939

>  <smiles>  (191) 
C/C(Cl)=C\C(=O)Nc1cc(N2CCNC2=O)ccc1Cl

>  <gnina_score>  (191) 
5.081

>  <inspiration_score>  (191) 
None

>  <energy_score>  (191) 
-27.549737

>  <distance_score>  (191) 
1.631726

>  <gnina_score_min>  (191) 
5.258

>  <inchikey>  (191) 
WOVSCUGFLNWZAC-SOFGYWHQSA-N

>  <exports>  (191) 
['/opt/xchem-fragalysis-2/maxwin/BulkDock/OUTPUTS/openbind_a71ev2a_c2_elabs_1LOUU54.sdf', '/opt/xchem-fragalysis-2/maxwin/BulkDock/OUTPUTS/openbind_a71ev2a_c2_elabs_1LSYIDY.sdf']

>  <name>  (191) 
P544586

>  <ref_pdb>  (191) 
A0884a

>  <subsites>  (191) 
None

>  <HIPPO Pose ID>  (191) 
544586

>  <ref_mols>  (191) 
A0884a

>  <HIPPO Compound ID>  (191) 
382636

>  <tags>  (191) 
openbind_a71ev2a_c2_elabs,syndirella_product,openbind_a71ev2a_c2_elabs_fragonly_scored_top80percent,openbind_a71ev2a_c2_elabs_scored,BulkDock Fragalysis export,openbind_a71ev2a_c2_elabs_scored_top80percent,openbind_a71ev2a_c2_elabs_activefrags_only_scored_5.2plus,syndirella_placed

>  <smina_score_min>  (191) 
-6.644

$$$$
P544591
     RDKit          3D

 20 21  0  0  0  0  0  0  0  0999 V2000
    9.0960    9.5441   23.8871 C   0  0  0  0  0  0  0  0  0  0  0  0
    8.8205   10.9812   24.1243 C   0  0  0  0  0  0  0  0  0  0  0  0
    7.7441   11.4220   24.9044 C   0  0  0  0  0  0  0  0  0  0  0  0
    7.4675   12.7856   25.0003 C   0  0  0  0  0  0  0  0  0  0  0  0
    6.4087   13.2721   25.7602 N   0  0  0  0  0  0  0  0  0  0  0  0
    5.4424   12.5365   26.7362 C   0  0  0  0  0  0  0  0  0  0  0  0
    5.3419   11.3986   26.9891 O   0  0  0  0  0  0  0  0  0  0  0  0
    4.5217   13.6270   27.3074 C   0  0  0  0  0  0  0  0  0  0  0  0
    5.1335   14.9075   27.3758 O   0  0  0  0  0  0  0  0  0  0  0  0
    8.2624   13.7034   24.3129 C   0  0  0  0  0  0  0  0  0  0  0  0
    9.3670   13.2581   23.5905 C   0  0  0  0  0  0  0  0  0  0  0  0
   10.1893   14.1749   22.8945 N   0  0  0  0  0  0  0  0  0  0  0  0
    9.6665   14.5684   21.5858 C   0  0  0  0  0  0  0  0  0  0  0  0
   10.6308   15.3538   20.7436 C   0  0  0  0  0  0  0  0  0  0  0  0
   11.9921   14.7569   20.9160 C   0  0  0  0  0  0  0  0  0  0  0  0
   12.6977   14.3807   19.9863 O   0  0  0  0  0  0  0  0  0  0  0  0
   12.3780   14.6808   22.2222 N   0  0  0  0  0  0  0  0  0  0  0  0
   11.5523   14.1488   23.1678 C   0  0  0  0  0  0  0  0  0  0  0  0
   12.0314   13.6606   24.1929 O   0  0  0  0  0  0  0  0  0  0  0  0
    9.6403   11.9012   23.4884 C   0  0  0  0  0  0  0  0  0  0  0  0
  1  2  1  0
  2  3  2  0
  3  4  1  0
  4  5  1  0
  5  6  1  0
  6  7  2  0
  6  8  1  0
  8  9  1  0
  4 10  2  0
 10 11  1  0
 11 12  1  0
 12 13  1  0
 13 14  1  0
 14 15  1  0
 15 16  2  0
 15 17  1  0
 17 18  1  0
 18 19  2  0
 11 20  2  0
 20  2  1  0
 18 12  1  0
M  END
>  <alias>  (192) 
None

>  <rmsd(smina/fragmenstein)>  (192) 
0.575

>  <smiles>  (192) 
Cc1cc(NC(=O)CO)cc(N2CCC(=O)NC2=O)c1

>  <gnina_score>  (192) 
5.171

>  <inspiration_score>  (192) 
None

>  <energy_score>  (192) 
-33.303837

>  <distance_score>  (192) 
1.313207

>  <gnina_score_min>  (192) 
5.273

>  <inchikey>  (192) 
POQXJFZEDFZIHU-UHFFFAOYSA-N

>  <exports>  (192) 
['/opt/xchem-fragalysis-2/maxwin/BulkDock/OUTPUTS/openbind_a71ev2a_c2_elabs_1LOUU54.sdf', '/opt/xchem-fragalysis-2/maxwin/BulkDock/OUTPUTS/openbind_a71ev2a_c2_elabs_1LSYIDY.sdf']

>  <name>  (192) 
P544591

>  <ref_pdb>  (192) 
A0884a

>  <subsites>  (192) 
None

>  <HIPPO Pose ID>  (192) 
544591

>  <ref_mols>  (192) 
A0884a

>  <HIPPO Compound ID>  (192) 
382644

>  <tags>  (192) 
openbind_a71ev2a_c2_elabs,syndirella_product,openbind_a71ev2a_c2_elabs_fragonly_scored_top80percent,openbind_a71ev2a_c2_elabs_scored,BulkDock Fragalysis export,openbind_a71ev2a_c2_elabs_scored_top80percent,openbind_a71ev2a_c2_elabs_activefrags_only_scored_5.2plus,syndirella_placed

>  <smina_score_min>  (192) 
-6.814

$$$$
P544593
     RDKit          3D

 20 21  0  0  0  0  0  0  0  0999 V2000
    7.0360   13.6293   29.3185 C   0  0  0  0  0  0  0  0  0  0  0  0
    5.4351   14.4635   29.4567 S   0  0  0  0  0  0  0  0  0  0  0  0
    5.1968   15.2841   27.5840 S   0  0  0  0  0  0  0  0  0  0  0  0
    4.3200   13.9849   26.6547 C   0  0  0  0  0  0  0  0  0  0  0  0
    5.2079   12.7678   26.4207 C   0  0  0  0  0  0  0  0  0  0  0  0
    4.9886   11.7193   26.8959 O   0  0  0  0  0  0  0  0  0  0  0  0
    6.3621   13.2284   25.4755 N   0  0  0  0  0  0  0  0  0  0  0  0
    7.3812   12.4992   24.8745 C   0  0  0  0  0  0  0  0  0  0  0  0
    7.5091   11.1230   25.0435 C   0  0  0  0  0  0  0  0  0  0  0  0
    8.5575   10.4454   24.4220 C   0  0  0  0  0  0  0  0  0  0  0  0
    9.5268   11.1501   23.7129 C   0  0  0  0  0  0  0  0  0  0  0  0
    9.4216   12.5327   23.5727 C   0  0  0  0  0  0  0  0  0  0  0  0
   10.4591   13.2595   22.9665 N   0  0  0  0  0  0  0  0  0  0  0  0
   10.2959   14.4220   22.2142 C   0  0  0  0  0  0  0  0  0  0  0  0
    9.2816   14.8532   21.7082 O   0  0  0  0  0  0  0  0  0  0  0  0
   11.5212   15.0469   22.0998 N   0  0  0  0  0  0  0  0  0  0  0  0
   12.5353   14.1216   22.4698 C   0  0  0  0  0  0  0  0  0  0  0  0
   11.8079   13.2561   23.4876 C   0  0  1  0  0  0  0  0  0  0  0  0
   11.8817   13.8873   24.8701 C   0  0  0  0  0  0  0  0  0  0  0  0
    8.3128   13.1947   24.1042 C   0  0  0  0  0  0  0  0  0  0  0  0
  1  2  1  0
  2  3  1  0
  3  4  1  0
  4  5  1  0
  5  6  2  0
  5  7  1  0
  7  8  1  0
  8  9  2  0
  9 10  1  0
 10 11  2  0
 11 12  1  0
 12 13  1  0
 13 14  1  0
 14 15  2  0
 14 16  1  0
 16 17  1  0
 17 18  1  0
 18 19  1  1
 12 20  2  0
 20  8  1  0
 18 13  1  0
M  END
>  <alias>  (193) 
None

>  <rmsd(smina/fragmenstein)>  (193) 
0.589

>  <smiles>  (193) 
CSSCC(=O)Nc1cccc(N2C(=O)NC[C@H]2C)c1

>  <gnina_score>  (193) 
5.275

>  <inspiration_score>  (193) 
None

>  <energy_score>  (193) 
-41.865679

>  <distance_score>  (193) 
1.670737

>  <gnina_score_min>  (193) 
5.276

>  <inchikey>  (193) 
JZOXSPAPEKLHAY-SECBINFHSA-N

>  <exports>  (193) 
['/opt/xchem-fragalysis-2/maxwin/BulkDock/OUTPUTS/openbind_a71ev2a_c2_elabs_1LOUU54.sdf', '/opt/xchem-fragalysis-2/maxwin/BulkDock/OUTPUTS/openbind_a71ev2a_c2_elabs_1LSYIDY.sdf']

>  <name>  (193) 
P544593

>  <ref_pdb>  (193) 
A0884a

>  <subsites>  (193) 
None

>  <HIPPO Pose ID>  (193) 
544593

>  <ref_mols>  (193) 
A0884a

>  <HIPPO Compound ID>  (193) 
382647

>  <tags>  (193) 
openbind_a71ev2a_c2_elabs,syndirella_product,openbind_a71ev2a_c2_elabs_fragonly_scored_top80percent,openbind_a71ev2a_c2_elabs_scored,BulkDock Fragalysis export,openbind_a71ev2a_c2_elabs_scored_top80percent,openbind_a71ev2a_c2_elabs_activefrags_only_scored_5.2plus,syndirella_placed

>  <smina_score_min>  (193) 
-6.139

$$$$
P544601
     RDKit          3D

 20 21  0  0  0  0  0  0  0  0999 V2000
    9.9349   10.1478   23.1406 C   0  0  0  0  0  0  0  0  0  0  0  0
    9.0763   11.0848   23.9284 C   0  0  0  0  0  0  0  0  0  0  0  0
    8.0757   10.5181   24.7276 C   0  0  0  0  0  0  0  0  0  0  0  0
    7.1517   11.3143   25.4020 C   0  0  0  0  0  0  0  0  0  0  0  0
    7.2042   12.6962   25.2703 C   0  0  0  0  0  0  0  0  0  0  0  0
    6.2506   13.5276   25.8491 N   0  0  0  0  0  0  0  0  0  0  0  0
    5.0383   13.1898   26.7723 C   0  0  0  0  0  0  0  0  0  0  0  0
    4.7058   12.1706   27.2469 O   0  0  0  0  0  0  0  0  0  0  0  0
    4.2706   14.5034   27.0032 C   0  0  0  0  0  0  0  0  0  0  0  0
    3.3599   14.3943   28.0888 O   0  0  0  0  0  0  0  0  0  0  0  0
    8.2256   13.2763   24.5186 C   0  0  0  0  0  0  0  0  0  0  0  0
    9.1850   12.4822   23.8706 C   0  0  0  0  0  0  0  0  0  0  0  0
   10.2562   13.1276   23.1886 N   0  0  0  0  0  0  0  0  0  0  0  0
   11.4547   13.3733   23.9630 C   0  0  0  0  0  0  0  0  0  0  0  0
   12.5923   13.7142   23.0402 C   0  0  0  0  0  0  0  0  0  0  0  0
   12.2129   14.8442   22.1472 C   0  0  0  0  0  0  0  0  0  0  0  0
   13.0106   15.4678   21.4615 O   0  0  0  0  0  0  0  0  0  0  0  0
   10.8820   15.0770   22.0604 N   0  0  0  0  0  0  0  0  0  0  0  0
    9.9511   14.1076   22.2542 C   0  0  0  0  0  0  0  0  0  0  0  0
    8.9137   14.1512   21.6081 O   0  0  0  0  0  0  0  0  0  0  0  0
  1  2  1  0
  2  3  2  0
  3  4  1  0
  4  5  2  0
  5  6  1  0
  6  7  1  0
  7  8  2  0
  7  9  1  0
  9 10  1  0
  5 11  1  0
 11 12  2  0
 12 13  1  0
 13 14  1  0
 14 15  1  0
 15 16  1  0
 16 17  2  0
 16 18  1  0
 18 19  1  0
 19 20  2  0
 12  2  1  0
 19 13  1  0
M  END
>  <alias>  (194) 
None

>  <rmsd(smina/fragmenstein)>  (194) 
0.928

>  <smiles>  (194) 
Cc1ccc(NC(=O)CO)cc1N1CCC(=O)NC1=O

>  <gnina_score>  (194) 
5.292

>  <inspiration_score>  (194) 
None

>  <energy_score>  (194) 
-52.827996

>  <distance_score>  (194) 
1.866346

>  <gnina_score_min>  (194) 
5.219

>  <inchikey>  (194) 
KFGAAMNPBPVUSV-UHFFFAOYSA-N

>  <exports>  (194) 
['/opt/xchem-fragalysis-2/maxwin/BulkDock/OUTPUTS/openbind_a71ev2a_c2_elabs_1LOUU54.sdf', '/opt/xchem-fragalysis-2/maxwin/BulkDock/OUTPUTS/openbind_a71ev2a_c2_elabs_1LSYIDY.sdf']

>  <name>  (194) 
P544601

>  <ref_pdb>  (194) 
A0884a

>  <subsites>  (194) 
None

>  <HIPPO Pose ID>  (194) 
544601

>  <ref_mols>  (194) 
A0884a

>  <HIPPO Compound ID>  (194) 
382667

>  <tags>  (194) 
openbind_a71ev2a_c2_elabs,syndirella_product,openbind_a71ev2a_c2_elabs_fragonly_scored_top80percent,openbind_a71ev2a_c2_elabs_scored,BulkDock Fragalysis export,openbind_a71ev2a_c2_elabs_scored_top80percent,openbind_a71ev2a_c2_elabs_activefrags_only_scored_5.2plus,syndirella_placed

>  <smina_score_min>  (194) 
-7.003

$$$$
P544637
     RDKit          3D

 20 22  0  0  0  0  0  0  0  0999 V2000
    4.9631   12.0265   26.8639 O   0  0  0  0  0  0  0  0  0  0  0  0
    5.2243   13.0515   26.3706 C   0  0  0  0  0  0  0  0  0  0  0  0
    6.3221   13.4197   25.3463 N   0  0  0  0  0  0  0  0  0  0  0  0
    7.3551   12.6476   24.8044 C   0  0  0  0  0  0  0  0  0  0  0  0
    8.2865   13.3236   24.0041 C   0  0  0  0  0  0  0  0  0  0  0  0
    9.3956   12.6525   23.4837 C   0  0  0  0  0  0  0  0  0  0  0  0
   10.4029   13.3337   22.7869 N   0  0  0  0  0  0  0  0  0  0  0  0
   10.1618   14.3351   21.7769 C   0  0  0  0  0  0  0  0  0  0  0  0
   11.5636   14.7875   21.3976 C   0  0  0  0  0  0  0  0  0  0  0  0
   12.3384   14.4728   22.5607 N   0  0  0  0  0  0  0  0  0  0  0  0
   11.6592   13.5782   23.3744 C   0  0  0  0  0  0  0  0  0  0  0  0
   12.0871   13.1574   24.4353 O   0  0  0  0  0  0  0  0  0  0  0  0
    9.5268   11.2776   23.6764 C   0  0  0  0  0  0  0  0  0  0  0  0
    8.5744   10.5864   24.4164 C   0  0  0  0  0  0  0  0  0  0  0  0
    7.5192   11.2750   25.0090 C   0  0  0  0  0  0  0  0  0  0  0  0
    6.6642   10.5625   25.7491 F   0  0  0  0  0  0  0  0  0  0  0  0
    4.4285   14.2823   26.6640 C   0  0  0  0  0  0  0  0  0  0  0  0
    4.6204   15.5913   26.4135 C   0  0  0  0  0  0  0  0  0  0  0  0
    3.3203   15.9924   27.0804 C   0  0  0  0  0  0  0  0  0  0  0  0
    3.1490   14.4992   27.4281 C   0  0  0  0  0  0  0  0  0  0  0  0
  1  2  2  0
  2  3  1  0
  3  4  1  0
  4  5  2  0
  5  6  1  0
  6  7  1  0
  7  8  1  0
  8  9  1  0
  9 10  1  0
 10 11  1  0
 11 12  2  0
  6 13  2  0
 13 14  1  0
 14 15  2  0
 15 16  1  0
  2 17  1  0
 17 18  2  0
 18 19  1  0
 19 20  1  0
 15  4  1  0
 20 17  1  0
 11  7  1  0
M  END
>  <alias>  (195) 
None

>  <rmsd(smina/fragmenstein)>  (195) 
1.011

>  <smiles>  (195) 
O=C(Nc1cc(N2CCNC2=O)ccc1F)C1=CCC1

>  <gnina_score>  (195) 
5.06

>  <inspiration_score>  (195) 
None

>  <energy_score>  (195) 
-15.123498

>  <distance_score>  (195) 
1.281478

>  <gnina_score_min>  (195) 
5.258

>  <inchikey>  (195) 
SDIHHDGGDBBKKQ-UHFFFAOYSA-N

>  <exports>  (195) 
['/opt/xchem-fragalysis-2/maxwin/BulkDock/OUTPUTS/openbind_a71ev2a_c2_elabs_1LOUU54.sdf', '/opt/xchem-fragalysis-2/maxwin/BulkDock/OUTPUTS/openbind_a71ev2a_c2_elabs_1LSYIDY.sdf']

>  <name>  (195) 
P544637

>  <ref_pdb>  (195) 
A0884a

>  <subsites>  (195) 
None

>  <HIPPO Pose ID>  (195) 
544637

>  <ref_mols>  (195) 
A0884a

>  <HIPPO Compound ID>  (195) 
382716

>  <tags>  (195) 
openbind_a71ev2a_c2_elabs,syndirella_product,openbind_a71ev2a_c2_elabs_fragonly_scored_top80percent,openbind_a71ev2a_c2_elabs_scored,BulkDock Fragalysis export,openbind_a71ev2a_c2_elabs_scored_top80percent,openbind_a71ev2a_c2_elabs_activefrags_only_scored_5.2plus,syndirella_placed

>  <smina_score_min>  (195) 
-6.769

$$$$
P544651
     RDKit          3D

 20 21  0  0  0  0  0  0  0  0999 V2000
    3.5178   14.7688   24.8883 C   0  0  0  0  0  0  0  0  0  0  0  0
    4.1193   14.4517   26.2535 C   0  0  0  0  0  0  0  0  0  0  0  0
    4.8670   15.6465   26.8366 C   0  0  0  0  0  0  0  0  0  0  0  0
    3.0508   14.2284   27.0940 F   0  0  0  0  0  0  0  0  0  0  0  0
    5.0205   13.1800   26.2030 C   0  0  0  0  0  0  0  0  0  0  0  0
    4.7407   12.2062   26.7947 O   0  0  0  0  0  0  0  0  0  0  0  0
    6.2390   13.4833   25.2686 N   0  0  0  0  0  0  0  0  0  0  0  0
    7.2604   12.6540   24.8203 C   0  0  0  0  0  0  0  0  0  0  0  0
    7.2896   11.2922   25.1211 C   0  0  0  0  0  0  0  0  0  0  0  0
    8.3138   10.4932   24.6158 C   0  0  0  0  0  0  0  0  0  0  0  0
    9.3535   11.0713   23.9030 C   0  0  0  0  0  0  0  0  0  0  0  0
   10.3546   10.2887   23.4855 F   0  0  0  0  0  0  0  0  0  0  0  0
    9.3606   12.4390   23.6371 C   0  0  0  0  0  0  0  0  0  0  0  0
   10.4855   13.0434   23.0506 N   0  0  0  0  0  0  0  0  0  0  0  0
   11.6976   13.1792   23.8214 C   0  0  0  0  0  0  0  0  0  0  0  0
   12.2953   14.4761   23.3333 C   0  0  0  0  0  0  0  0  0  0  0  0
   11.5883   14.7924   22.1497 N   0  0  0  0  0  0  0  0  0  0  0  0
   10.4136   14.0809   22.1244 C   0  0  0  0  0  0  0  0  0  0  0  0
    9.4677   14.4040   21.4324 O   0  0  0  0  0  0  0  0  0  0  0  0
    8.2772   13.2196   24.0496 C   0  0  0  0  0  0  0  0  0  0  0  0
  1  2  1  0
  2  3  1  0
  2  4  1  0
  2  5  1  0
  5  6  2  0
  5  7  1  0
  7  8  1  0
  8  9  2  0
  9 10  1  0
 10 11  2  0
 11 12  1  0
 11 13  1  0
 13 14  1  0
 14 15  1  0
 15 16  1  0
 16 17  1  0
 17 18  1  0
 18 19  2  0
 13 20  2  0
 20  8  1  0
 18 14  1  0
M  END
>  <alias>  (196) 
None

>  <rmsd(smina/fragmenstein)>  (196) 
0.458

>  <smiles>  (196) 
CC(C)(F)C(=O)Nc1ccc(F)c(N2CCNC2=O)c1

>  <gnina_score>  (196) 
5.352

>  <inspiration_score>  (196) 
None

>  <energy_score>  (196) 
-14.172939

>  <distance_score>  (196) 
1.753557

>  <gnina_score_min>  (196) 
5.26

>  <inchikey>  (196) 
ZBCAFDYYAQXEPB-UHFFFAOYSA-N

>  <exports>  (196) 
['/opt/xchem-fragalysis-2/maxwin/BulkDock/OUTPUTS/openbind_a71ev2a_c2_elabs_1LOUU54.sdf', '/opt/xchem-fragalysis-2/maxwin/BulkDock/OUTPUTS/openbind_a71ev2a_c2_elabs_1LSYIDY.sdf']

>  <name>  (196) 
P544651

>  <ref_pdb>  (196) 
A0884a

>  <subsites>  (196) 
None

>  <HIPPO Pose ID>  (196) 
544651

>  <ref_mols>  (196) 
A0884a

>  <HIPPO Compound ID>  (196) 
382766

>  <tags>  (196) 
openbind_a71ev2a_c2_elabs,syndirella_product,openbind_a71ev2a_c2_elabs_fragonly_scored_top80percent,openbind_a71ev2a_c2_elabs_scored,BulkDock Fragalysis export,openbind_a71ev2a_c2_elabs_scored_top80percent,openbind_a71ev2a_c2_elabs_activefrags_only_scored_5.2plus,syndirella_placed

>  <smina_score_min>  (196) 
-6.352

$$$$
P544667
     RDKit          3D

 20 21  0  0  0  0  0  0  0  0999 V2000
    3.3497   10.4852   28.9725 C   0  0  0  0  0  0  0  0  0  0  0  0
    3.5617   11.7564   28.6038 C   0  0  0  0  0  0  0  0  0  0  0  0
    4.5945   12.3140   27.6560 C   0  0  1  0  0  0  0  0  0  0  0  0
    5.5240   13.5791   28.5374 Cl  0  0  0  0  0  0  0  0  0  0  0  0
    5.6615   11.3681   27.0103 C   0  0  0  0  0  0  0  0  0  0  0  0
    5.9352   10.3095   27.4299 O   0  0  0  0  0  0  0  0  0  0  0  0
    6.2817   12.1796   25.8233 N   0  0  0  0  0  0  0  0  0  0  0  0
    7.2561   11.8226   24.8984 C   0  0  0  0  0  0  0  0  0  0  0  0
    7.8064   10.5505   24.8144 C   0  0  0  0  0  0  0  0  0  0  0  0
    8.8938   10.3136   23.9637 C   0  0  0  0  0  0  0  0  0  0  0  0
    9.5192   11.3778   23.3149 C   0  0  0  0  0  0  0  0  0  0  0  0
    9.0189   12.6675   23.4925 C   0  0  0  0  0  0  0  0  0  0  0  0
    9.9213   13.7489   23.6464 N   0  0  0  0  0  0  0  0  0  0  0  0
   10.9882   14.0497   22.7908 C   0  0  0  0  0  0  0  0  0  0  0  0
   11.0906   13.8970   21.5922 O   0  0  0  0  0  0  0  0  0  0  0  0
   12.0054   14.6113   23.5369 N   0  0  0  0  0  0  0  0  0  0  0  0
   11.7980   14.4071   24.9292 C   0  0  0  0  0  0  0  0  0  0  0  0
   10.3813   13.8943   25.0240 C   0  0  1  0  0  0  0  0  0  0  0  0
    9.4437   14.6966   25.9399 C   0  0  0  0  0  0  0  0  0  0  0  0
    7.7934   12.8518   24.1377 C   0  0  0  0  0  0  0  0  0  0  0  0
  1  2  2  0
  2  3  1  0
  3  4  1  1
  3  5  1  0
  5  6  2  0
  5  7  1  0
  7  8  1  0
  8  9  2  0
  9 10  1  0
 10 11  2  0
 11 12  1  0
 12 13  1  0
 13 14  1  0
 14 15  2  0
 14 16  1  0
 16 17  1  0
 17 18  1  0
 18 19  1  1
 12 20  2  0
 20  8  1  0
 18 13  1  0
M  END
>  <alias>  (197) 
None

>  <rmsd(smina/fragmenstein)>  (197) 
1.615

>  <smiles>  (197) 
C=C[C@@H](Cl)C(=O)Nc1cccc(N2C(=O)NC[C@H]2C)c1

>  <gnina_score>  (197) 
4.941

>  <inspiration_score>  (197) 
None

>  <energy_score>  (197) 
-14.49013

>  <distance_score>  (197) 
1.341549

>  <gnina_score_min>  (197) 
5.367

>  <inchikey>  (197) 
JRQNHFDFMBSBAP-BXKDBHETSA-N

>  <exports>  (197) 
['/opt/xchem-fragalysis-2/maxwin/BulkDock/OUTPUTS/openbind_a71ev2a_c2_elabs_1LOUU54.sdf', '/opt/xchem-fragalysis-2/maxwin/BulkDock/OUTPUTS/openbind_a71ev2a_c2_elabs_1LSYIDY.sdf']

>  <name>  (197) 
P544667

>  <ref_pdb>  (197) 
A0884a

>  <subsites>  (197) 
None

>  <HIPPO Pose ID>  (197) 
544667

>  <ref_mols>  (197) 
A0884a

>  <HIPPO Compound ID>  (197) 
382782

>  <tags>  (197) 
openbind_a71ev2a_c2_elabs,syndirella_product,openbind_a71ev2a_c2_elabs_fragonly_scored_top80percent,openbind_a71ev2a_c2_elabs_scored,BulkDock Fragalysis export,openbind_a71ev2a_c2_elabs_scored_top80percent,openbind_a71ev2a_c2_elabs_activefrags_only_scored_5.2plus,syndirella_placed

>  <smina_score_min>  (197) 
-6.639

$$$$
P544670
     RDKit          3D

 20 21  0  0  0  0  0  0  0  0999 V2000
    5.0983   13.5676   29.2516 C   0  0  0  0  0  0  0  0  0  0  0  0
    4.9593   13.1616   27.7920 C   0  0  0  0  0  0  0  0  0  0  0  0
    3.7470   13.8142   27.1398 C   0  0  0  0  0  0  0  0  0  0  0  0
    4.7501   11.8026   27.7584 F   0  0  0  0  0  0  0  0  0  0  0  0
    6.2251   13.5518   27.0021 C   0  0  0  0  0  0  0  0  0  0  0  0
    6.7208   14.6109   27.0483 O   0  0  0  0  0  0  0  0  0  0  0  0
    6.5717   12.3117   26.1220 N   0  0  0  0  0  0  0  0  0  0  0  0
    7.6151   12.1035   25.2272 C   0  0  0  0  0  0  0  0  0  0  0  0
    8.4427   13.1391   24.8169 C   0  0  0  0  0  0  0  0  0  0  0  0
    9.4651   12.8948   23.8940 C   0  0  0  0  0  0  0  0  0  0  0  0
   10.4521   13.8959   23.7602 N   0  0  0  0  0  0  0  0  0  0  0  0
   11.4595   13.8840   24.8050 C   0  0  0  0  0  0  0  0  0  0  0  0
   12.7000   13.4715   24.0698 C   0  0  0  0  0  0  0  0  0  0  0  0
   12.5017   14.1481   22.8338 N   0  0  0  0  0  0  0  0  0  0  0  0
   11.1429   14.1226   22.5488 C   0  0  0  0  0  0  0  0  0  0  0  0
   10.6812   14.2652   21.4353 O   0  0  0  0  0  0  0  0  0  0  0  0
    9.6453   11.6144   23.3600 C   0  0  0  0  0  0  0  0  0  0  0  0
    8.8507   10.5637   23.8106 C   0  0  0  0  0  0  0  0  0  0  0  0
    7.8470   10.8207   24.7388 C   0  0  0  0  0  0  0  0  0  0  0  0
    7.1014    9.8061   25.1918 F   0  0  0  0  0  0  0  0  0  0  0  0
  1  2  1  0
  2  3  1  0
  2  4  1  0
  2  5  1  0
  5  6  2  0
  5  7  1  0
  7  8  1  0
  8  9  2  0
  9 10  1  0
 10 11  1  0
 11 12  1  0
 12 13  1  0
 13 14  1  0
 14 15  1  0
 15 16  2  0
 10 17  2  0
 17 18  1  0
 18 19  2  0
 19 20  1  0
 19  8  1  0
 15 11  1  0
M  END
>  <alias>  (198) 
None

>  <rmsd(smina/fragmenstein)>  (198) 
1.214

>  <smiles>  (198) 
CC(C)(F)C(=O)Nc1cc(N2CCNC2=O)ccc1F

>  <gnina_score>  (198) 
5.078

>  <inspiration_score>  (198) 
None

>  <energy_score>  (198) 
-15.662904

>  <distance_score>  (198) 
1.401548

>  <gnina_score_min>  (198) 
5.361

>  <inchikey>  (198) 
OKFFNSVIBYLXBS-UHFFFAOYSA-N

>  <exports>  (198) 
['/opt/xchem-fragalysis-2/maxwin/BulkDock/OUTPUTS/openbind_a71ev2a_c2_elabs_1LOUU54.sdf', '/opt/xchem-fragalysis-2/maxwin/BulkDock/OUTPUTS/openbind_a71ev2a_c2_elabs_1LSYIDY.sdf']

>  <name>  (198) 
P544670

>  <ref_pdb>  (198) 
A0884a

>  <subsites>  (198) 
None

>  <HIPPO Pose ID>  (198) 
544670

>  <ref_mols>  (198) 
A0884a

>  <HIPPO Compound ID>  (198) 
382786

>  <tags>  (198) 
openbind_a71ev2a_c2_elabs,syndirella_product,openbind_a71ev2a_c2_elabs_fragonly_scored_top80percent,openbind_a71ev2a_c2_elabs_scored,BulkDock Fragalysis export,openbind_a71ev2a_c2_elabs_scored_top80percent,openbind_a71ev2a_c2_elabs_activefrags_only_scored_5.2plus,syndirella_placed

>  <smina_score_min>  (198) 
-6.384

$$$$
P544672
     RDKit          3D

 20 21  0  0  0  0  0  0  0  0999 V2000
    2.6116   12.4738   27.9186 C   0  0  0  0  0  0  0  0  0  0  0  0
    3.8972   12.8349   27.7065 C   0  0  0  0  0  0  0  0  0  0  0  0
    5.0187   12.0280   28.2631 C   0  0  2  0  0  0  0  0  0  0  0  0
    6.1677   13.0501   29.1565 Cl  0  0  0  0  0  0  0  0  0  0  0  0
    5.7451   11.1911   27.1456 C   0  0  0  0  0  0  0  0  0  0  0  0
    5.3905   10.1153   26.8523 O   0  0  0  0  0  0  0  0  0  0  0  0
    6.9165   12.0753   26.5600 N   0  0  0  0  0  0  0  0  0  0  0  0
    7.7762   11.8435   25.4792 C   0  0  0  0  0  0  0  0  0  0  0  0
    7.8732   10.5676   24.9585 C   0  0  0  0  0  0  0  0  0  0  0  0
    8.8549   10.2518   24.0253 C   0  0  0  0  0  0  0  0  0  0  0  0
    9.7592   11.2104   23.5888 C   0  0  0  0  0  0  0  0  0  0  0  0
    9.6634   12.4999   24.1132 C   0  0  0  0  0  0  0  0  0  0  0  0
   10.3995   13.5783   23.5571 N   0  0  0  0  0  0  0  0  0  0  0  0
   11.7671   13.6222   23.1307 C   0  0  0  0  0  0  0  0  0  0  0  0
   11.7698   14.4357   21.8421 C   0  0  0  0  0  0  0  0  0  0  0  0
   10.4796   15.0551   21.8464 N   0  0  0  0  0  0  0  0  0  0  0  0
    9.9232   15.8472   20.7854 C   0  0  0  0  0  0  0  0  0  0  0  0
    9.6719   14.4247   22.7508 C   0  0  0  0  0  0  0  0  0  0  0  0
    8.4606   14.5188   22.8536 O   0  0  0  0  0  0  0  0  0  0  0  0
    8.6427   12.8135   25.0346 C   0  0  0  0  0  0  0  0  0  0  0  0
  1  2  2  0
  2  3  1  0
  3  4  1  6
  3  5  1  0
  5  6  2  0
  5  7  1  0
  7  8  1  0
  8  9  2  0
  9 10  1  0
 10 11  2  0
 11 12  1  0
 12 13  1  0
 13 14  1  0
 14 15  1  0
 15 16  1  0
 16 17  1  0
 16 18  1  0
 18 19  2  0
 12 20  2  0
 20  8  1  0
 18 13  1  0
M  END
>  <alias>  (199) 
None

>  <rmsd(smina/fragmenstein)>  (199) 
0.844

>  <smiles>  (199) 
C=C[C@H](Cl)C(=O)Nc1cccc(N2CCN(C)C2=O)c1

>  <gnina_score>  (199) 
5.243

>  <inspiration_score>  (199) 
None

>  <energy_score>  (199) 
-6.742145

>  <distance_score>  (199) 
1.824842

>  <gnina_score_min>  (199) 
5.288

>  <inchikey>  (199) 
QTVORWFBZDXFER-LBPRGKRZSA-N

>  <exports>  (199) 
['/opt/xchem-fragalysis-2/maxwin/BulkDock/OUTPUTS/openbind_a71ev2a_c2_elabs_1LOUU54.sdf', '/opt/xchem-fragalysis-2/maxwin/BulkDock/OUTPUTS/openbind_a71ev2a_c2_elabs_1LSYIDY.sdf']

>  <name>  (199) 
P544672

>  <ref_pdb>  (199) 
A0884a

>  <subsites>  (199) 
None

>  <HIPPO Pose ID>  (199) 
544672

>  <ref_mols>  (199) 
A0884a

>  <HIPPO Compound ID>  (199) 
382790

>  <tags>  (199) 
openbind_a71ev2a_c2_elabs,syndirella_product,openbind_a71ev2a_c2_elabs_fragonly_scored_top80percent,openbind_a71ev2a_c2_elabs_scored,BulkDock Fragalysis export,openbind_a71ev2a_c2_elabs_scored_top80percent,openbind_a71ev2a_c2_elabs_activefrags_only_scored_5.2plus,syndirella_placed

>  <smina_score_min>  (199) 
-6.614

$$$$
P544675
     RDKit          3D

 20 21  0  0  0  0  0  0  0  0999 V2000
    6.0247   15.1475   29.2046 C   0  0  0  0  0  0  0  0  0  0  0  0
    5.2472   15.7664   28.3039 C   0  0  0  0  0  0  0  0  0  0  0  0
    4.5324   15.1499   27.1271 C   0  0  2  0  0  0  0  0  0  0  0  0
    2.7822   15.1069   27.4996 Cl  0  0  0  0  0  0  0  0  0  0  0  0
    5.0240   13.7286   26.7178 C   0  0  0  0  0  0  0  0  0  0  0  0
    4.3948   12.7468   26.8526 O   0  0  0  0  0  0  0  0  0  0  0  0
    6.4606   13.9435   26.1084 N   0  0  0  0  0  0  0  0  0  0  0  0
    7.3332   13.0318   25.4794 C   0  0  0  0  0  0  0  0  0  0  0  0
    8.3935   13.6542   24.8018 C   0  0  0  0  0  0  0  0  0  0  0  0
    9.3063   12.9346   24.0295 C   0  0  0  0  0  0  0  0  0  0  0  0
   10.2852   13.6731   23.3464 N   0  0  0  0  0  0  0  0  0  0  0  0
   10.5708   13.4329   21.9672 C   0  0  0  0  0  0  0  0  0  0  0  0
   11.7764   14.2990   21.6771 C   0  0  0  0  0  0  0  0  0  0  0  0
   12.4150   14.3305   22.9553 N   0  0  0  0  0  0  0  0  0  0  0  0
   11.4967   14.0464   23.9634 C   0  0  0  0  0  0  0  0  0  0  0  0
   11.7290   14.1053   25.1581 O   0  0  0  0  0  0  0  0  0  0  0  0
    9.1761   11.5534   23.9127 C   0  0  0  0  0  0  0  0  0  0  0  0
    8.1833   10.9043   24.6456 C   0  0  0  0  0  0  0  0  0  0  0  0
    7.2759   11.6317   25.4411 C   0  0  0  0  0  0  0  0  0  0  0  0
    6.2462   10.6899   26.4424 Cl  0  0  0  0  0  0  0  0  0  0  0  0
  1  2  2  0
  2  3  1  0
  3  4  1  1
  3  5  1  0
  5  6  2  0
  5  7  1  0
  7  8  1  0
  8  9  2  0
  9 10  1  0
 10 11  1  0
 11 12  1  0
 12 13  1  0
 13 14  1  0
 14 15  1  0
 15 16  2  0
 10 17  2  0
 17 18  1  0
 18 19  2  0
 19 20  1  0
 19  8  1  0
 15 11  1  0
M  END
>  <alias>  (200) 
None

>  <rmsd(smina/fragmenstein)>  (200) 
0.97

>  <smiles>  (200) 
C=C[C@H](Cl)C(=O)Nc1cc(N2CCNC2=O)ccc1Cl

>  <gnina_score>  (200) 
4.992

>  <inspiration_score>  (200) 
None

>  <energy_score>  (200) 
-10.797609

>  <distance_score>  (200) 
1.613649

>  <gnina_score_min>  (200) 
5.217

>  <inchikey>  (200) 
LYNGNOSJVJIODG-VIFPVBQESA-N

>  <exports>  (200) 
['/opt/xchem-fragalysis-2/maxwin/BulkDock/OUTPUTS/openbind_a71ev2a_c2_elabs_1LOUU54.sdf', '/opt/xchem-fragalysis-2/maxwin/BulkDock/OUTPUTS/openbind_a71ev2a_c2_elabs_1LSYIDY.sdf']

>  <name>  (200) 
P544675

>  <ref_pdb>  (200) 
A0884a

>  <subsites>  (200) 
None

>  <HIPPO Pose ID>  (200) 
544675

>  <ref_mols>  (200) 
A0884a

>  <HIPPO Compound ID>  (200) 
382794

>  <tags>  (200) 
openbind_a71ev2a_c2_elabs,syndirella_product,openbind_a71ev2a_c2_elabs_fragonly_scored_top80percent,openbind_a71ev2a_c2_elabs_scored,BulkDock Fragalysis export,openbind_a71ev2a_c2_elabs_scored_top80percent,openbind_a71ev2a_c2_elabs_activefrags_only_scored_5.2plus,syndirella_placed

>  <smina_score_min>  (200) 
-5.933

$$$$
P544678
     RDKit          3D

 20 21  0  0  0  0  0  0  0  0999 V2000
    3.8672   15.8821   24.6151 C   0  0  0  0  0  0  0  0  0  0  0  0
    3.7608   14.6938   25.2284 C   0  0  0  0  0  0  0  0  0  0  0  0
    4.3524   14.2503   26.5440 C   0  0  2  0  0  0  0  0  0  0  0  0
    5.3221   15.4910   27.3814 Cl  0  0  0  0  0  0  0  0  0  0  0  0
    5.2435   12.9986   26.3586 C   0  0  0  0  0  0  0  0  0  0  0  0
    5.0045   11.9737   26.8776 O   0  0  0  0  0  0  0  0  0  0  0  0
    6.4143   13.4011   25.3988 N   0  0  0  0  0  0  0  0  0  0  0  0
    7.4301   12.6266   24.8334 C   0  0  0  0  0  0  0  0  0  0  0  0
    8.3716   13.3105   24.0542 C   0  0  0  0  0  0  0  0  0  0  0  0
    9.4517   12.6314   23.4877 C   0  0  0  0  0  0  0  0  0  0  0  0
   10.4531   13.3126   22.7832 N   0  0  0  0  0  0  0  0  0  0  0  0
   10.1963   14.3272   21.7877 C   0  0  0  0  0  0  0  0  0  0  0  0
   11.5905   14.7980   21.4048 C   0  0  0  0  0  0  0  0  0  0  0  0
   12.3778   14.4679   22.5564 N   0  0  0  0  0  0  0  0  0  0  0  0
   11.7100   13.5620   23.3657 C   0  0  0  0  0  0  0  0  0  0  0  0
   12.1478   13.1302   24.4188 O   0  0  0  0  0  0  0  0  0  0  0  0
    9.5554   11.2483   23.6336 C   0  0  0  0  0  0  0  0  0  0  0  0
    8.5993   10.5536   24.3659 C   0  0  0  0  0  0  0  0  0  0  0  0
    7.5615   11.2441   24.9862 C   0  0  0  0  0  0  0  0  0  0  0  0
    6.6938   10.5270   25.7069 F   0  0  0  0  0  0  0  0  0  0  0  0
  1  2  2  0
  2  3  1  0
  3  4  1  6
  3  5  1  0
  5  6  2  0
  5  7  1  0
  7  8  1  0
  8  9  2  0
  9 10  1  0
 10 11  1  0
 11 12  1  0
 12 13  1  0
 13 14  1  0
 14 15  1  0
 15 16  2  0
 10 17  2  0
 17 18  1  0
 18 19  2  0
 19 20  1  0
 19  8  1  0
 15 11  1  0
M  END
>  <alias>  (201) 
None

>  <rmsd(smina/fragmenstein)>  (201) 
0.918

>  <smiles>  (201) 
C=C[C@H](Cl)C(=O)Nc1cc(N2CCNC2=O)ccc1F

>  <gnina_score>  (201) 
5.103

>  <inspiration_score>  (201) 
None

>  <energy_score>  (201) 
-19.768099

>  <distance_score>  (201) 
1.270611

>  <gnina_score_min>  (201) 
5.239

>  <inchikey>  (201) 
YLALFGMKMHWHGN-VIFPVBQESA-N

>  <exports>  (201) 
['/opt/xchem-fragalysis-2/maxwin/BulkDock/OUTPUTS/openbind_a71ev2a_c2_elabs_1LOUU54.sdf', '/opt/xchem-fragalysis-2/maxwin/BulkDock/OUTPUTS/openbind_a71ev2a_c2_elabs_1LSYIDY.sdf']

>  <name>  (201) 
P544678

>  <ref_pdb>  (201) 
A0884a

>  <subsites>  (201) 
None

>  <HIPPO Pose ID>  (201) 
544678

>  <ref_mols>  (201) 
A0884a

>  <HIPPO Compound ID>  (201) 
382795

>  <tags>  (201) 
openbind_a71ev2a_c2_elabs,syndirella_product,openbind_a71ev2a_c2_elabs_fragonly_scored_top80percent,openbind_a71ev2a_c2_elabs_scored,BulkDock Fragalysis export,openbind_a71ev2a_c2_elabs_scored_top80percent,openbind_a71ev2a_c2_elabs_activefrags_only_scored_5.2plus,syndirella_placed

>  <smina_score_min>  (201) 
-6.577

$$$$
P544688
     RDKit          3D

 20 21  0  0  0  0  0  0  0  0999 V2000
    4.0310   14.2440   29.9924 C   0  0  0  0  0  0  0  0  0  0  0  0
    3.6563   14.1699   28.8540 C   0  0  0  0  0  0  0  0  0  0  0  0
    3.1928   14.0777   27.4597 C   0  0  0  0  0  0  0  0  0  0  0  0
    4.3371   14.2498   26.4670 C   0  0  0  0  0  0  0  0  0  0  0  0
    5.1996   12.9962   26.3364 C   0  0  0  0  0  0  0  0  0  0  0  0
    4.9612   11.9718   26.8487 O   0  0  0  0  0  0  0  0  0  0  0  0
    6.3716   13.4043   25.3865 N   0  0  0  0  0  0  0  0  0  0  0  0
    7.3943   12.6330   24.8224 C   0  0  0  0  0  0  0  0  0  0  0  0
    8.3218   13.3150   24.0234 C   0  0  0  0  0  0  0  0  0  0  0  0
    9.4182   12.6435   23.4777 C   0  0  0  0  0  0  0  0  0  0  0  0
   10.4203   13.3284   22.7775 N   0  0  0  0  0  0  0  0  0  0  0  0
   10.1698   14.3389   21.7771 C   0  0  0  0  0  0  0  0  0  0  0  0
   11.5667   14.8037   21.3955 C   0  0  0  0  0  0  0  0  0  0  0  0
   12.3533   14.4692   22.5463 N   0  0  0  0  0  0  0  0  0  0  0  0
   11.6813   13.5669   23.3561 C   0  0  0  0  0  0  0  0  0  0  0  0
   12.1186   13.1324   24.4084 O   0  0  0  0  0  0  0  0  0  0  0  0
    9.5419   11.2649   23.6479 C   0  0  0  0  0  0  0  0  0  0  0  0
    8.5951   10.5695   24.3909 C   0  0  0  0  0  0  0  0  0  0  0  0
    7.5516   11.2564   25.0057 C   0  0  0  0  0  0  0  0  0  0  0  0
    6.7031   10.5389   25.7482 F   0  0  0  0  0  0  0  0  0  0  0  0
  1  2  3  0
  2  3  1  0
  3  4  1  0
  4  5  1  0
  5  6  2  0
  5  7  1  0
  7  8  1  0
  8  9  2  0
  9 10  1  0
 10 11  1  0
 11 12  1  0
 12 13  1  0
 13 14  1  0
 14 15  1  0
 15 16  2  0
 10 17  2  0
 17 18  1  0
 18 19  2  0
 19 20  1  0
 19  8  1  0
 15 11  1  0
M  END
>  <alias>  (202) 
None

>  <rmsd(smina/fragmenstein)>  (202) 
0.804

>  <smiles>  (202) 
C#CCCC(=O)Nc1cc(N2CCNC2=O)ccc1F

>  <gnina_score>  (202) 
5.034

>  <inspiration_score>  (202) 
None

>  <energy_score>  (202) 
-18.615139

>  <distance_score>  (202) 
1.286273

>  <gnina_score_min>  (202) 
5.243

>  <inchikey>  (202) 
VNDCDZZZCVZTQG-UHFFFAOYSA-N

>  <exports>  (202) 
['/opt/xchem-fragalysis-2/maxwin/BulkDock/OUTPUTS/openbind_a71ev2a_c2_elabs_1LOUU54.sdf', '/opt/xchem-fragalysis-2/maxwin/BulkDock/OUTPUTS/openbind_a71ev2a_c2_elabs_1LSYIDY.sdf']

>  <name>  (202) 
P544688

>  <ref_pdb>  (202) 
A0884a

>  <subsites>  (202) 
None

>  <HIPPO Pose ID>  (202) 
544688

>  <ref_mols>  (202) 
A0884a

>  <HIPPO Compound ID>  (202) 
382817

>  <tags>  (202) 
openbind_a71ev2a_c2_elabs,syndirella_product,openbind_a71ev2a_c2_elabs_fragonly_scored_top80percent,openbind_a71ev2a_c2_elabs_scored,BulkDock Fragalysis export,openbind_a71ev2a_c2_elabs_scored_top80percent,openbind_a71ev2a_c2_elabs_activefrags_only_scored_5.2plus,syndirella_placed

>  <smina_score_min>  (202) 
-6.128

$$$$
P544689
     RDKit          3D

 20 21  0  0  0  0  0  0  0  0999 V2000
    5.4949   15.7353   29.4297 C   0  0  0  0  0  0  0  0  0  0  0  0
    5.4299   15.9786   28.2557 C   0  0  0  0  0  0  0  0  0  0  0  0
    5.3458   16.2730   26.8162 C   0  0  0  0  0  0  0  0  0  0  0  0
    4.4562   15.2816   26.0746 C   0  0  0  0  0  0  0  0  0  0  0  0
    5.0254   13.8664   26.0701 C   0  0  0  0  0  0  0  0  0  0  0  0
    4.5503   12.9898   26.6839 O   0  0  0  0  0  0  0  0  0  0  0  0
    6.2655   13.8800   25.1164 N   0  0  0  0  0  0  0  0  0  0  0  0
    7.1988   12.8653   24.8120 C   0  0  0  0  0  0  0  0  0  0  0  0
    8.2420   13.3151   23.9794 C   0  0  0  0  0  0  0  0  0  0  0  0
    9.3078   12.4868   23.6105 C   0  0  0  0  0  0  0  0  0  0  0  0
   10.4665   13.0288   23.0338 N   0  0  0  0  0  0  0  0  0  0  0  0
   11.6504   13.1506   23.8530 C   0  0  0  0  0  0  0  0  0  0  0  0
   12.3062   14.4181   23.3684 C   0  0  0  0  0  0  0  0  0  0  0  0
   11.6597   14.7301   22.1514 N   0  0  0  0  0  0  0  0  0  0  0  0
   10.4613   14.0599   22.0926 C   0  0  0  0  0  0  0  0  0  0  0  0
    9.5536   14.4120   21.3652 O   0  0  0  0  0  0  0  0  0  0  0  0
    9.2780   11.1410   23.9369 C   0  0  0  0  0  0  0  0  0  0  0  0
    8.2329   10.6632   24.7179 C   0  0  0  0  0  0  0  0  0  0  0  0
    7.2409   11.5255   25.2233 C   0  0  0  0  0  0  0  0  0  0  0  0
    6.2150   10.8070   26.3983 Cl  0  0  0  0  0  0  0  0  0  0  0  0
  1  2  3  0
  2  3  1  0
  3  4  1  0
  4  5  1  0
  5  6  2  0
  5  7  1  0
  7  8  1  0
  8  9  2  0
  9 10  1  0
 10 11  1  0
 11 12  1  0
 12 13  1  0
 13 14  1  0
 14 15  1  0
 15 16  2  0
 10 17  2  0
 17 18  1  0
 18 19  2  0
 19 20  1  0
 19  8  1  0
 15 11  1  0
M  END
>  <alias>  (203) 
None

>  <rmsd(smina/fragmenstein)>  (203) 
0.879

>  <smiles>  (203) 
C#CCCC(=O)Nc1cc(N2CCNC2=O)ccc1Cl

>  <gnina_score>  (203) 
5.345

>  <inspiration_score>  (203) 
None

>  <energy_score>  (203) 
-4.936365

>  <distance_score>  (203) 
1.926628

>  <gnina_score_min>  (203) 
5.353

>  <inchikey>  (203) 
PEIFNWLZAOUXFE-UHFFFAOYSA-N

>  <exports>  (203) 
['/opt/xchem-fragalysis-2/maxwin/BulkDock/OUTPUTS/openbind_a71ev2a_c2_elabs_1LOUU54.sdf', '/opt/xchem-fragalysis-2/maxwin/BulkDock/OUTPUTS/openbind_a71ev2a_c2_elabs_1LSYIDY.sdf']

>  <name>  (203) 
P544689

>  <ref_pdb>  (203) 
A0884a

>  <subsites>  (203) 
None

>  <HIPPO Pose ID>  (203) 
544689

>  <ref_mols>  (203) 
A0884a

>  <HIPPO Compound ID>  (203) 
382818

>  <tags>  (203) 
openbind_a71ev2a_c2_elabs,syndirella_product,openbind_a71ev2a_c2_elabs_fragonly_scored_top80percent,openbind_a71ev2a_c2_elabs_scored,BulkDock Fragalysis export,openbind_a71ev2a_c2_elabs_scored_top80percent,openbind_a71ev2a_c2_elabs_activefrags_only_scored_5.2plus,syndirella_placed

>  <smina_score_min>  (203) 
-5.641

$$$$
P544691
     RDKit          3D

 20 21  0  0  0  0  0  0  0  0999 V2000
    4.2851   12.4533   30.9092 C   0  0  0  0  0  0  0  0  0  0  0  0
    3.8754   12.6930   29.8063 C   0  0  0  0  0  0  0  0  0  0  0  0
    3.3686   12.9868   28.4556 C   0  0  0  0  0  0  0  0  0  0  0  0
    4.4895   13.3842   27.5018 C   0  0  0  0  0  0  0  0  0  0  0  0
    5.3082   12.1875   27.0215 C   0  0  0  0  0  0  0  0  0  0  0  0
    5.0461   11.0717   27.2526 O   0  0  0  0  0  0  0  0  0  0  0  0
    6.4739   12.7987   26.1862 N   0  0  0  0  0  0  0  0  0  0  0  0
    7.4558   12.1807   25.4203 C   0  0  0  0  0  0  0  0  0  0  0  0
    7.5247   10.8074   25.2446 C   0  0  0  0  0  0  0  0  0  0  0  0
    8.5335   10.2643   24.4445 C   0  0  0  0  0  0  0  0  0  0  0  0
    9.4948   11.0774   23.8444 C   0  0  0  0  0  0  0  0  0  0  0  0
    9.4348   12.4560   24.0216 C   0  0  0  0  0  0  0  0  0  0  0  0
   10.3238   13.3500   23.3841 N   0  0  0  0  0  0  0  0  0  0  0  0
   11.6050   13.0116   22.8351 C   0  0  0  0  0  0  0  0  0  0  0  0
   11.9854   14.2056   21.9663 C   0  0  0  0  0  0  0  0  0  0  0  0
   10.6919   14.7008   21.6082 N   0  0  0  0  0  0  0  0  0  0  0  0
   10.4222   15.6674   20.5798 C   0  0  0  0  0  0  0  0  0  0  0  0
    9.7655   14.3420   22.5657 C   0  0  0  0  0  0  0  0  0  0  0  0
    8.6296   14.7710   22.6456 O   0  0  0  0  0  0  0  0  0  0  0  0
    8.4031   12.9937   24.8047 C   0  0  0  0  0  0  0  0  0  0  0  0
  1  2  3  0
  2  3  1  0
  3  4  1  0
  4  5  1  0
  5  6  2  0
  5  7  1  0
  7  8  1  0
  8  9  2  0
  9 10  1  0
 10 11  2  0
 11 12  1  0
 12 13  1  0
 13 14  1  0
 14 15  1  0
 15 16  1  0
 16 17  1  0
 16 18  1  0
 18 19  2  0
 12 20  2  0
 20  8  1  0
 18 13  1  0
M  END
>  <alias>  (204) 
None

>  <rmsd(smina/fragmenstein)>  (204) 
0.891

>  <smiles>  (204) 
C#CCCC(=O)Nc1cccc(N2CCN(C)C2=O)c1

>  <gnina_score>  (204) 
5.059

>  <inspiration_score>  (204) 
None

>  <energy_score>  (204) 
-17.869872

>  <distance_score>  (204) 
1.608243

>  <gnina_score_min>  (204) 
5.257

>  <inchikey>  (204) 
WVLWPEMBVAGPJY-UHFFFAOYSA-N

>  <exports>  (204) 
['/opt/xchem-fragalysis-2/maxwin/BulkDock/OUTPUTS/openbind_a71ev2a_c2_elabs_1LOUU54.sdf', '/opt/xchem-fragalysis-2/maxwin/BulkDock/OUTPUTS/openbind_a71ev2a_c2_elabs_1LSYIDY.sdf']

>  <name>  (204) 
P544691

>  <ref_pdb>  (204) 
A0884a

>  <subsites>  (204) 
None

>  <HIPPO Pose ID>  (204) 
544691

>  <ref_mols>  (204) 
A0884a

>  <HIPPO Compound ID>  (204) 
382822

>  <tags>  (204) 
openbind_a71ev2a_c2_elabs,syndirella_product,openbind_a71ev2a_c2_elabs_fragonly_scored_top80percent,openbind_a71ev2a_c2_elabs_scored,BulkDock Fragalysis export,openbind_a71ev2a_c2_elabs_scored_top80percent,openbind_a71ev2a_c2_elabs_activefrags_only_scored_5.2plus,syndirella_placed

>  <smina_score_min>  (204) 
-6.112

$$$$
P544693
     RDKit          3D

 20 21  0  0  0  0  0  0  0  0999 V2000
    2.5240    9.6811   29.8547 C   0  0  0  0  0  0  0  0  0  0  0  0
    3.2790   10.4493   29.3240 C   0  0  0  0  0  0  0  0  0  0  0  0
    4.1998   11.3913   28.6681 C   0  0  0  0  0  0  0  0  0  0  0  0
    5.2707   10.6406   27.8859 C   0  0  0  0  0  0  0  0  0  0  0  0
    6.1275   11.6001   27.0732 C   0  0  0  0  0  0  0  0  0  0  0  0
    6.2409   12.7369   27.3224 O   0  0  0  0  0  0  0  0  0  0  0  0
    6.8356   10.7269   25.9903 N   0  0  0  0  0  0  0  0  0  0  0  0
    7.7279   11.0890   24.9667 C   0  0  0  0  0  0  0  0  0  0  0  0
    8.3402    9.9850   24.3649 C   0  0  0  0  0  0  0  0  0  0  0  0
    9.3339   10.1015   23.4030 C   0  0  0  0  0  0  0  0  0  0  0  0
    9.7857   11.3589   23.0614 C   0  0  0  0  0  0  0  0  0  0  0  0
    9.2286   12.4832   23.6645 C   0  0  0  0  0  0  0  0  0  0  0  0
   10.0129   13.6639   23.7152 N   0  0  0  0  0  0  0  0  0  0  0  0
   10.5340   13.9193   25.0324 C   0  0  0  0  0  0  0  0  0  0  0  0
   11.9156   14.4459   24.8532 C   0  0  0  0  0  0  0  0  0  0  0  0
   12.0071   14.6984   23.4584 N   0  0  0  0  0  0  0  0  0  0  0  0
   10.9767   14.0751   22.7805 C   0  0  0  0  0  0  0  0  0  0  0  0
   11.0011   13.9413   21.5745 O   0  0  0  0  0  0  0  0  0  0  0  0
    8.1129   12.3655   24.5471 C   0  0  0  0  0  0  0  0  0  0  0  0
    7.3788   13.6172   24.9454 C   0  0  0  0  0  0  0  0  0  0  0  0
  1  2  3  0
  2  3  1  0
  3  4  1  0
  4  5  1  0
  5  6  2  0
  5  7  1  0
  7  8  1  0
  8  9  2  0
  9 10  1  0
 10 11  2  0
 11 12  1  0
 12 13  1  0
 13 14  1  0
 14 15  1  0
 15 16  1  0
 16 17  1  0
 17 18  2  0
 12 19  2  0
 19 20  1  0
 19  8  1  0
 17 13  1  0
M  END
>  <alias>  (205) 
None

>  <rmsd(smina/fragmenstein)>  (205) 
2.021

>  <smiles>  (205) 
C#CCCC(=O)Nc1cccc(N2CCNC2=O)c1C

>  <gnina_score>  (205) 
4.984

>  <inspiration_score>  (205) 
None

>  <energy_score>  (205) 
-31.472895

>  <distance_score>  (205) 
1.186463

>  <gnina_score_min>  (205) 
5.28

>  <inchikey>  (205) 
APZKFZZGANQJGV-UHFFFAOYSA-N

>  <exports>  (205) 
['/opt/xchem-fragalysis-2/maxwin/BulkDock/OUTPUTS/openbind_a71ev2a_c2_elabs_1LOUU54.sdf', '/opt/xchem-fragalysis-2/maxwin/BulkDock/OUTPUTS/openbind_a71ev2a_c2_elabs_1LSYIDY.sdf']

>  <name>  (205) 
P544693

>  <ref_pdb>  (205) 
A0884a

>  <subsites>  (205) 
None

>  <HIPPO Pose ID>  (205) 
544693

>  <ref_mols>  (205) 
A0884a

>  <HIPPO Compound ID>  (205) 
382827

>  <tags>  (205) 
openbind_a71ev2a_c2_elabs,syndirella_product,openbind_a71ev2a_c2_elabs_fragonly_scored_top80percent,openbind_a71ev2a_c2_elabs_scored,BulkDock Fragalysis export,openbind_a71ev2a_c2_elabs_scored_top80percent,openbind_a71ev2a_c2_elabs_activefrags_only_scored_5.2plus,syndirella_placed

>  <smina_score_min>  (205) 
-5.996

$$$$
P544695
     RDKit          3D

 20 21  0  0  0  0  0  0  0  0999 V2000
    5.0272   15.6189   29.8036 C   0  0  0  0  0  0  0  0  0  0  0  0
    5.0200   15.8895   28.6338 C   0  0  0  0  0  0  0  0  0  0  0  0
    5.0117   16.2204   27.2004 C   0  0  0  0  0  0  0  0  0  0  0  0
    4.2744   15.1719   26.3749 C   0  0  0  0  0  0  0  0  0  0  0  0
    5.0026   13.8313   26.3254 C   0  0  0  0  0  0  0  0  0  0  0  0
    4.6349   12.8847   26.9090 O   0  0  0  0  0  0  0  0  0  0  0  0
    6.2432   14.0291   25.3983 N   0  0  0  0  0  0  0  0  0  0  0  0
    7.1880   13.1130   24.9462 C   0  0  0  0  0  0  0  0  0  0  0  0
    7.1086   11.7593   25.2615 C   0  0  0  0  0  0  0  0  0  0  0  0
    8.0381   10.8706   24.7291 C   0  0  0  0  0  0  0  0  0  0  0  0
    9.0642   11.3354   23.9034 C   0  0  0  0  0  0  0  0  0  0  0  0
   10.0237   10.1269   23.1577 Cl  0  0  0  0  0  0  0  0  0  0  0  0
    9.1938   12.7071   23.6246 C   0  0  0  0  0  0  0  0  0  0  0  0
   10.2738   13.2217   22.8624 N   0  0  0  0  0  0  0  0  0  0  0  0
   10.1094   14.2164   21.8188 C   0  0  0  0  0  0  0  0  0  0  0  0
   11.5337   14.6244   21.4728 C   0  0  0  0  0  0  0  0  0  0  0  0
   12.2565   14.3033   22.6645 N   0  0  0  0  0  0  0  0  0  0  0  0
   11.5085   13.4867   23.4979 C   0  0  0  0  0  0  0  0  0  0  0  0
   11.8671   13.1495   24.6132 O   0  0  0  0  0  0  0  0  0  0  0  0
    8.2282   13.5814   24.1373 C   0  0  0  0  0  0  0  0  0  0  0  0
  1  2  3  0
  2  3  1  0
  3  4  1  0
  4  5  1  0
  5  6  2  0
  5  7  1  0
  7  8  1  0
  8  9  2  0
  9 10  1  0
 10 11  2  0
 11 12  1  0
 11 13  1  0
 13 14  1  0
 14 15  1  0
 15 16  1  0
 16 17  1  0
 17 18  1  0
 18 19  2  0
 13 20  2  0
 20  8  1  0
 18 14  1  0
M  END
>  <alias>  (206) 
None

>  <rmsd(smina/fragmenstein)>  (206) 
0.942

>  <smiles>  (206) 
C#CCCC(=O)Nc1ccc(Cl)c(N2CCNC2=O)c1

>  <gnina_score>  (206) 
5.208

>  <inspiration_score>  (206) 
None

>  <energy_score>  (206) 
-19.875023

>  <distance_score>  (206) 
1.638797

>  <gnina_score_min>  (206) 
5.223

>  <inchikey>  (206) 
UXOCODUDHCPLKN-UHFFFAOYSA-N

>  <exports>  (206) 
['/opt/xchem-fragalysis-2/maxwin/BulkDock/OUTPUTS/openbind_a71ev2a_c2_elabs_1LOUU54.sdf', '/opt/xchem-fragalysis-2/maxwin/BulkDock/OUTPUTS/openbind_a71ev2a_c2_elabs_1LSYIDY.sdf']

>  <name>  (206) 
P544695

>  <ref_pdb>  (206) 
A0884a

>  <subsites>  (206) 
None

>  <HIPPO Pose ID>  (206) 
544695

>  <ref_mols>  (206) 
A0884a

>  <HIPPO Compound ID>  (206) 
382830

>  <tags>  (206) 
openbind_a71ev2a_c2_elabs,syndirella_product,openbind_a71ev2a_c2_elabs_fragonly_scored_top80percent,openbind_a71ev2a_c2_elabs_scored,BulkDock Fragalysis export,openbind_a71ev2a_c2_elabs_scored_top80percent,openbind_a71ev2a_c2_elabs_activefrags_only_scored_5.2plus,syndirella_placed

>  <smina_score_min>  (206) 
-5.586

$$$$
P544711
     RDKit          3D

 20 21  0  0  0  0  0  0  0  0999 V2000
    3.9554   15.4872   25.5808 C   0  0  0  0  0  0  0  0  0  0  0  0
    4.4509   14.8700   26.6664 C   0  0  0  0  0  0  0  0  0  0  0  0
    4.3445   15.3743   28.0648 C   0  0  0  0  0  0  0  0  0  0  0  0
    5.6361   15.7747   28.5085 O   0  0  0  0  0  0  0  0  0  0  0  0
    5.0937   13.5323   26.5053 C   0  0  0  0  0  0  0  0  0  0  0  0
    4.7015   12.5775   27.0533 O   0  0  0  0  0  0  0  0  0  0  0  0
    6.3205   13.7253   25.5748 N   0  0  0  0  0  0  0  0  0  0  0  0
    7.2259   12.7989   25.0715 C   0  0  0  0  0  0  0  0  0  0  0  0
    7.0956   11.4372   25.3247 C   0  0  0  0  0  0  0  0  0  0  0  0
    7.9946   10.5375   24.7584 C   0  0  0  0  0  0  0  0  0  0  0  0
    9.0528   10.9934   23.9765 C   0  0  0  0  0  0  0  0  0  0  0  0
   10.0299    9.7961   23.2350 Cl  0  0  0  0  0  0  0  0  0  0  0  0
    9.2376   12.3668   23.7763 C   0  0  0  0  0  0  0  0  0  0  0  0
   10.4110   12.8796   23.1748 N   0  0  0  0  0  0  0  0  0  0  0  0
   11.5713   13.0742   24.0143 C   0  0  0  0  0  0  0  0  0  0  0  0
   12.2347   14.3196   23.4851 C   0  0  0  0  0  0  0  0  0  0  0  0
   11.5565   14.6160   22.2831 N   0  0  0  0  0  0  0  0  0  0  0  0
   10.3798   13.9089   22.2273 C   0  0  0  0  0  0  0  0  0  0  0  0
    9.4602   14.2364   21.5031 O   0  0  0  0  0  0  0  0  0  0  0  0
    8.2907   13.2613   24.2946 C   0  0  0  0  0  0  0  0  0  0  0  0
  1  2  2  0
  2  3  1  0
  3  4  1  0
  2  5  1  0
  5  6  2  0
  5  7  1  0
  7  8  1  0
  8  9  2  0
  9 10  1  0
 10 11  2  0
 11 12  1  0
 11 13  1  0
 13 14  1  0
 14 15  1  0
 15 16  1  0
 16 17  1  0
 17 18  1  0
 18 19  2  0
 13 20  2  0
 20  8  1  0
 18 14  1  0
M  END
>  <alias>  (207) 
None

>  <rmsd(smina/fragmenstein)>  (207) 
1.092

>  <smiles>  (207) 
C=C(CO)C(=O)Nc1ccc(Cl)c(N2CCNC2=O)c1

>  <gnina_score>  (207) 
5.411

>  <inspiration_score>  (207) 
None

>  <energy_score>  (207) 
-24.198445

>  <distance_score>  (207) 
1.784283

>  <gnina_score_min>  (207) 
5.276

>  <inchikey>  (207) 
CISVALKCTQTCAJ-UHFFFAOYSA-N

>  <exports>  (207) 
['/opt/xchem-fragalysis-2/maxwin/BulkDock/OUTPUTS/openbind_a71ev2a_c2_elabs_1LOUU54.sdf', '/opt/xchem-fragalysis-2/maxwin/BulkDock/OUTPUTS/openbind_a71ev2a_c2_elabs_1LSYIDY.sdf']

>  <name>  (207) 
P544711

>  <ref_pdb>  (207) 
A0884a

>  <subsites>  (207) 
None

>  <HIPPO Pose ID>  (207) 
544711

>  <ref_mols>  (207) 
A0884a

>  <HIPPO Compound ID>  (207) 
382871

>  <tags>  (207) 
openbind_a71ev2a_c2_elabs,syndirella_product,openbind_a71ev2a_c2_elabs_fragonly_scored_top80percent,openbind_a71ev2a_c2_elabs_scored,BulkDock Fragalysis export,openbind_a71ev2a_c2_elabs_scored_top80percent,openbind_a71ev2a_c2_elabs_activefrags_only_scored_5.2plus,syndirella_placed

>  <smina_score_min>  (207) 
-6.253

$$$$
P544720
     RDKit          3D

 20 21  0  0  0  0  0  0  0  0999 V2000
    9.2161   15.0075   21.8098 O   0  0  0  0  0  0  0  0  0  0  0  0
   10.2537   14.5204   22.2067 C   0  0  0  0  0  0  0  0  0  0  0  0
   11.4608   15.1930   22.1828 N   0  0  0  0  0  0  0  0  0  0  0  0
   12.3651   14.5030   23.0332 C   0  0  0  0  0  0  0  0  0  0  0  0
   11.8537   13.0845   22.9774 C   0  0  0  0  0  0  0  0  0  0  0  0
   10.4419   13.2820   22.8137 N   0  0  0  0  0  0  0  0  0  0  0  0
    9.4569   12.5097   23.4466 C   0  0  0  0  0  0  0  0  0  0  0  0
    9.6195   11.1346   23.5923 C   0  0  0  0  0  0  0  0  0  0  0  0
    8.6938   10.3982   24.3228 C   0  0  0  0  0  0  0  0  0  0  0  0
    7.6282   11.0363   24.9490 C   0  0  0  0  0  0  0  0  0  0  0  0
    6.7929   10.2795   25.6656 F   0  0  0  0  0  0  0  0  0  0  0  0
    7.4157   12.4024   24.7776 C   0  0  0  0  0  0  0  0  0  0  0  0
    6.3459   13.1110   25.3295 N   0  0  0  0  0  0  0  0  0  0  0  0
    5.2882   12.6828   26.4123 C   0  0  0  0  0  0  0  0  0  0  0  0
    5.1161   11.6467   26.9401 O   0  0  0  0  0  0  0  0  0  0  0  0
    4.4148   13.9322   26.6873 C   0  0  0  0  0  0  0  0  0  0  0  0
    3.0824   13.6636   26.6171 F   0  0  0  0  0  0  0  0  0  0  0  0
    4.6457   14.4477   27.9263 F   0  0  0  0  0  0  0  0  0  0  0  0
    4.6606   14.9400   25.8027 F   0  0  0  0  0  0  0  0  0  0  0  0
    8.3201   13.1238   23.9927 C   0  0  0  0  0  0  0  0  0  0  0  0
  1  2  2  0
  2  3  1  0
  3  4  1  0
  4  5  1  0
  5  6  1  0
  6  7  1  0
  7  8  2  0
  8  9  1  0
  9 10  2  0
 10 11  1  0
 10 12  1  0
 12 13  1  0
 13 14  1  0
 14 15  2  0
 14 16  1  0
 16 17  1  0
 16 18  1  0
 16 19  1  0
 12 20  2  0
  6  2  1  0
 20  7  1  0
M  END
>  <alias>  (208) 
None

>  <rmsd(smina/fragmenstein)>  (208) 
0.815

>  <smiles>  (208) 
O=C1NCCN1c1ccc(F)c(NC(=O)C(F)(F)F)c1

>  <gnina_score>  (208) 
5.153

>  <inspiration_score>  (208) 
None

>  <energy_score>  (208) 
-13.24743

>  <distance_score>  (208) 
1.664161

>  <gnina_score_min>  (208) 
5.227

>  <inchikey>  (208) 
JMLRPKHKLHQDBR-UHFFFAOYSA-N

>  <exports>  (208) 
['/opt/xchem-fragalysis-2/maxwin/BulkDock/OUTPUTS/openbind_a71ev2a_c2_elabs_1LOUU54.sdf', '/opt/xchem-fragalysis-2/maxwin/BulkDock/OUTPUTS/openbind_a71ev2a_c2_elabs_1LSYIDY.sdf']

>  <name>  (208) 
P544720

>  <ref_pdb>  (208) 
A0884a

>  <subsites>  (208) 
None

>  <HIPPO Pose ID>  (208) 
544720

>  <ref_mols>  (208) 
A0884a

>  <HIPPO Compound ID>  (208) 
382899

>  <tags>  (208) 
openbind_a71ev2a_c2_elabs,syndirella_product,openbind_a71ev2a_c2_elabs_fragonly_scored_top80percent,openbind_a71ev2a_c2_elabs_scored,BulkDock Fragalysis export,openbind_a71ev2a_c2_elabs_scored_top80percent,openbind_a71ev2a_c2_elabs_activefrags_only_scored_5.2plus,syndirella_placed

>  <smina_score_min>  (208) 
-6.322

$$$$
P544721
     RDKit          3D

 20 21  0  0  0  0  0  0  0  0999 V2000
    9.5315   14.4558   21.3458 O   0  0  0  0  0  0  0  0  0  0  0  0
   10.4469   14.1077   22.0651 C   0  0  0  0  0  0  0  0  0  0  0  0
   11.6498   14.7711   22.1060 N   0  0  0  0  0  0  0  0  0  0  0  0
   12.3115   14.4556   23.3146 C   0  0  0  0  0  0  0  0  0  0  0  0
   11.6675   13.1790   23.7949 C   0  0  0  0  0  0  0  0  0  0  0  0
   10.4583   13.0830   23.0110 N   0  0  0  0  0  0  0  0  0  0  0  0
    9.3109   12.5193   23.5861 C   0  0  0  0  0  0  0  0  0  0  0  0
    9.3158   11.1804   23.9406 C   0  0  0  0  0  0  0  0  0  0  0  0
    8.2745   10.6860   24.7150 C   0  0  0  0  0  0  0  0  0  0  0  0
    7.2478   11.5263   25.1821 C   0  0  0  0  0  0  0  0  0  0  0  0
    6.2273   10.8055   26.3598 Cl  0  0  0  0  0  0  0  0  0  0  0  0
    7.1594   12.8484   24.7234 C   0  0  0  0  0  0  0  0  0  0  0  0
    6.1561   13.8168   24.9442 N   0  0  0  0  0  0  0  0  0  0  0  0
    4.8884   13.7820   25.8831 C   0  0  0  0  0  0  0  0  0  0  0  0
    4.4566   12.9128   26.5475 O   0  0  0  0  0  0  0  0  0  0  0  0
    4.2377   15.1843   25.7766 C   0  0  0  0  0  0  0  0  0  0  0  0
    4.6192   15.9908   26.8049 F   0  0  0  0  0  0  0  0  0  0  0  0
    4.5974   15.8245   24.6284 F   0  0  0  0  0  0  0  0  0  0  0  0
    2.8784   15.1424   25.7933 F   0  0  0  0  0  0  0  0  0  0  0  0
    8.2054   13.3159   23.9051 C   0  0  0  0  0  0  0  0  0  0  0  0
  1  2  2  0
  2  3  1  0
  3  4  1  0
  4  5  1  0
  5  6  1  0
  6  7  1  0
  7  8  2  0
  8  9  1  0
  9 10  2  0
 10 11  1  0
 10 12  1  0
 12 13  1  0
 13 14  1  0
 14 15  2  0
 14 16  1  0
 16 17  1  0
 16 18  1  0
 16 19  1  0
 12 20  2  0
  6  2  1  0
 20  7  1  0
M  END
>  <alias>  (209) 
None

>  <rmsd(smina/fragmenstein)>  (209) 
1.046

>  <smiles>  (209) 
O=C1NCCN1c1ccc(Cl)c(NC(=O)C(F)(F)F)c1

>  <gnina_score>  (209) 
5.193

>  <inspiration_score>  (209) 
None

>  <energy_score>  (209) 
-9.489155

>  <distance_score>  (209) 
1.97051

>  <gnina_score_min>  (209) 
5.286

>  <inchikey>  (209) 
UWRUGDPNMFAKQV-UHFFFAOYSA-N

>  <exports>  (209) 
['/opt/xchem-fragalysis-2/maxwin/BulkDock/OUTPUTS/openbind_a71ev2a_c2_elabs_1LOUU54.sdf', '/opt/xchem-fragalysis-2/maxwin/BulkDock/OUTPUTS/openbind_a71ev2a_c2_elabs_1LSYIDY.sdf']

>  <name>  (209) 
P544721

>  <ref_pdb>  (209) 
A0884a

>  <subsites>  (209) 
None

>  <HIPPO Pose ID>  (209) 
544721

>  <ref_mols>  (209) 
A0884a

>  <HIPPO Compound ID>  (209) 
382900

>  <tags>  (209) 
openbind_a71ev2a_c2_elabs,syndirella_product,openbind_a71ev2a_c2_elabs_fragonly_scored_top80percent,openbind_a71ev2a_c2_elabs_scored,BulkDock Fragalysis export,openbind_a71ev2a_c2_elabs_scored_top80percent,openbind_a71ev2a_c2_elabs_activefrags_only_scored_5.2plus,syndirella_placed

>  <smina_score_min>  (209) 
-6.864

$$$$
P544728
     RDKit          3D

 20 21  0  0  0  0  0  0  0  0999 V2000
    9.9164   10.1000   23.2069 C   0  0  0  0  0  0  0  0  0  0  0  0
    9.0705   11.0987   23.9363 C   0  0  0  0  0  0  0  0  0  0  0  0
    8.0469   10.5984   24.7499 C   0  0  0  0  0  0  0  0  0  0  0  0
    7.1114   11.4512   25.3299 C   0  0  0  0  0  0  0  0  0  0  0  0
    7.1582   12.8136   25.0575 C   0  0  0  0  0  0  0  0  0  0  0  0
    6.1734   13.6847   25.5111 N   0  0  0  0  0  0  0  0  0  0  0  0
    4.9805   13.4453   26.4962 C   0  0  0  0  0  0  0  0  0  0  0  0
    4.6059   12.4592   27.0108 O   0  0  0  0  0  0  0  0  0  0  0  0
    4.3065   14.8258   26.7538 C   0  0  0  0  0  0  0  0  0  0  0  0
    5.2598   15.7742   27.4851 C   0  0  0  0  0  0  0  0  0  0  0  0
    3.0253   14.6462   27.5747 C   0  0  0  0  0  0  0  0  0  0  0  0
    3.8517   15.5390   25.1687 Cl  0  0  0  0  0  0  0  0  0  0  0  0
    8.2015   13.3295   24.2876 C   0  0  0  0  0  0  0  0  0  0  0  0
    9.1992   12.4894   23.7767 C   0  0  0  0  0  0  0  0  0  0  0  0
   10.3384   13.0569   23.1645 N   0  0  0  0  0  0  0  0  0  0  0  0
   11.6033   13.0339   23.8588 C   0  0  0  0  0  0  0  0  0  0  0  0
   12.4879   13.8401   22.9430 C   0  0  0  0  0  0  0  0  0  0  0  0
   11.5824   14.8215   22.4697 N   0  0  0  0  0  0  0  0  0  0  0  0
   10.3249   14.2424   22.4073 C   0  0  0  0  0  0  0  0  0  0  0  0
    9.4078   14.7277   21.7766 O   0  0  0  0  0  0  0  0  0  0  0  0
  1  2  1  0
  2  3  2  0
  3  4  1  0
  4  5  2  0
  5  6  1  0
  6  7  1  0
  7  8  2  0
  7  9  1  0
  9 10  1  0
  9 11  1  0
  9 12  1  0
  5 13  1  0
 13 14  2  0
 14 15  1  0
 15 16  1  0
 16 17  1  0
 17 18  1  0
 18 19  1  0
 19 20  2  0
 14  2  1  0
 19 15  1  0
M  END
>  <alias>  (210) 
None

>  <rmsd(smina/fragmenstein)>  (210) 
0.654

>  <smiles>  (210) 
Cc1ccc(NC(=O)C(C)(C)Cl)cc1N1CCNC1=O

>  <gnina_score>  (210) 
5.351

>  <inspiration_score>  (210) 
None

>  <energy_score>  (210) 
-43.856117

>  <distance_score>  (210) 
1.801123

>  <gnina_score_min>  (210) 
5.267

>  <inchikey>  (210) 
JFAXQKCFKPDVJV-UHFFFAOYSA-N

>  <exports>  (210) 
['/opt/xchem-fragalysis-2/maxwin/BulkDock/OUTPUTS/openbind_a71ev2a_c2_elabs_1LOUU54.sdf', '/opt/xchem-fragalysis-2/maxwin/BulkDock/OUTPUTS/openbind_a71ev2a_c2_elabs_1LSYIDY.sdf']

>  <name>  (210) 
P544728

>  <ref_pdb>  (210) 
A0884a

>  <subsites>  (210) 
None

>  <HIPPO Pose ID>  (210) 
544728

>  <ref_mols>  (210) 
A0884a

>  <HIPPO Compound ID>  (210) 
382915

>  <tags>  (210) 
openbind_a71ev2a_c2_elabs,syndirella_product,openbind_a71ev2a_c2_elabs_fragonly_scored_top80percent,openbind_a71ev2a_c2_elabs_scored,BulkDock Fragalysis export,openbind_a71ev2a_c2_elabs_scored_top80percent,openbind_a71ev2a_c2_elabs_activefrags_only_scored_5.2plus,syndirella_placed

>  <smina_score_min>  (210) 
-6.446

$$$$
P544757
     RDKit          3D

 20 21  0  0  0  0  0  0  0  0999 V2000
    9.5117   14.3597   21.4810 O   0  0  0  0  0  0  0  0  0  0  0  0
   10.3917   13.9877   22.2321 C   0  0  0  0  0  0  0  0  0  0  0  0
   11.5903   14.6507   22.3504 N   0  0  0  0  0  0  0  0  0  0  0  0
   12.2238   14.2836   23.5590 C   0  0  0  0  0  0  0  0  0  0  0  0
   11.5100   13.0383   24.0107 C   0  0  0  0  0  0  0  0  0  0  0  0
   10.3542   12.9365   23.1519 N   0  0  0  0  0  0  0  0  0  0  0  0
    9.1624   12.4207   23.7100 C   0  0  0  0  0  0  0  0  0  0  0  0
    8.1569   13.3088   24.1189 C   0  0  0  0  0  0  0  0  0  0  0  0
    7.0872   12.8572   24.8938 C   0  0  0  0  0  0  0  0  0  0  0  0
    6.0904   13.7553   25.2589 N   0  0  0  0  0  0  0  0  0  0  0  0
    4.8390   13.5669   26.1952 C   0  0  0  0  0  0  0  0  0  0  0  0
    4.5126   12.6489   26.8546 O   0  0  0  0  0  0  0  0  0  0  0  0
    4.0523   14.9031   26.1443 C   0  0  0  0  0  0  0  0  0  0  0  0
    2.7112   14.7173   26.0157 F   0  0  0  0  0  0  0  0  0  0  0  0
    4.2404   15.6369   27.2757 F   0  0  0  0  0  0  0  0  0  0  0  0
    4.4439   15.6921   25.1054 F   0  0  0  0  0  0  0  0  0  0  0  0
    7.0192   11.5160   25.2642 C   0  0  0  0  0  0  0  0  0  0  0  0
    7.9621   10.6128   24.7821 C   0  0  0  0  0  0  0  0  0  0  0  0
    9.0177   11.0555   23.9915 C   0  0  0  0  0  0  0  0  0  0  0  0
   10.0268    9.8477   23.3093 Cl  0  0  0  0  0  0  0  0  0  0  0  0
  1  2  2  0
  2  3  1  0
  3  4  1  0
  4  5  1  0
  5  6  1  0
  6  7  1  0
  7  8  2  0
  8  9  1  0
  9 10  1  0
 10 11  1  0
 11 12  2  0
 11 13  1  0
 13 14  1  0
 13 15  1  0
 13 16  1  0
  9 17  2  0
 17 18  1  0
 18 19  2  0
 19 20  1  0
  6  2  1  0
 19  7  1  0
M  END
>  <alias>  (211) 
None

>  <rmsd(smina/fragmenstein)>  (211) 
0.91

>  <smiles>  (211) 
O=C1NCCN1c1cc(NC(=O)C(F)(F)F)ccc1Cl

>  <gnina_score>  (211) 
5.44

>  <inspiration_score>  (211) 
None

>  <energy_score>  (211) 
-38.308579

>  <distance_score>  (211) 
1.881581

>  <gnina_score_min>  (211) 
5.284

>  <inchikey>  (211) 
MMJWKNPIPNBDJR-UHFFFAOYSA-N

>  <exports>  (211) 
['/opt/xchem-fragalysis-2/maxwin/BulkDock/OUTPUTS/openbind_a71ev2a_c2_elabs_1LOUU54.sdf', '/opt/xchem-fragalysis-2/maxwin/BulkDock/OUTPUTS/openbind_a71ev2a_c2_elabs_1LSYIDY.sdf']

>  <name>  (211) 
P544757

>  <ref_pdb>  (211) 
A0884a

>  <subsites>  (211) 
None

>  <HIPPO Pose ID>  (211) 
544757

>  <ref_mols>  (211) 
A0884a

>  <HIPPO Compound ID>  (211) 
382952

>  <tags>  (211) 
openbind_a71ev2a_c2_elabs,syndirella_product,openbind_a71ev2a_c2_elabs_fragonly_scored_top80percent,openbind_a71ev2a_c2_elabs_scored,BulkDock Fragalysis export,openbind_a71ev2a_c2_elabs_scored_top80percent,openbind_a71ev2a_c2_elabs_activefrags_only_scored_5.2plus,syndirella_placed

>  <smina_score_min>  (211) 
-6.332

$$$$
P544776
     RDKit          3D

 20 21  0  0  0  0  0  0  0  0999 V2000
    3.5477   15.1272   24.6780 C   0  0  0  0  0  0  0  0  0  0  0  0
    4.1986   15.0083   26.0523 C   0  0  2  0  0  0  0  0  0  0  0  0
    5.1847   16.0253   26.2733 O   0  0  0  0  0  0  0  0  0  0  0  0
    4.5431   17.3317   26.3750 N   0  0  0  0  0  0  0  0  0  0  0  0
    4.9325   13.6593   26.1596 C   0  0  0  0  0  0  0  0  0  0  0  0
    4.5127   12.7490   26.7694 O   0  0  0  0  0  0  0  0  0  0  0  0
    6.2350   13.7888   25.2942 N   0  0  0  0  0  0  0  0  0  0  0  0
    7.1995   12.8226   24.9418 C   0  0  0  0  0  0  0  0  0  0  0  0
    8.2409   13.3555   24.1572 C   0  0  0  0  0  0  0  0  0  0  0  0
    9.3228   12.5821   23.7248 C   0  0  0  0  0  0  0  0  0  0  0  0
   10.4432   13.1840   23.1351 N   0  0  0  0  0  0  0  0  0  0  0  0
   11.7278   13.1439   23.7919 C   0  0  0  0  0  0  0  0  0  0  0  0
   12.5825   13.9385   22.8372 C   0  0  0  0  0  0  0  0  0  0  0  0
   11.6705   14.9233   22.3811 N   0  0  0  0  0  0  0  0  0  0  0  0
   10.4121   14.3505   22.3576 C   0  0  0  0  0  0  0  0  0  0  0  0
    9.4801   14.8180   21.7358 O   0  0  0  0  0  0  0  0  0  0  0  0
    9.3135   11.2140   23.9502 C   0  0  0  0  0  0  0  0  0  0  0  0
    8.2774   10.6574   24.6928 C   0  0  0  0  0  0  0  0  0  0  0  0
    7.2644   11.4595   25.2509 C   0  0  0  0  0  0  0  0  0  0  0  0
    6.2445   10.6505   26.3680 Cl  0  0  0  0  0  0  0  0  0  0  0  0
  2  1  1  6
  2  3  1  0
  3  4  1  0
  2  5  1  0
  5  6  2  0
  5  7  1  0
  7  8  1  0
  8  9  2  0
  9 10  1  0
 10 11  1  0
 11 12  1  0
 12 13  1  0
 13 14  1  0
 14 15  1  0
 15 16  2  0
 10 17  2  0
 17 18  1  0
 18 19  2  0
 19 20  1  0
 19  8  1  0
 15 11  1  0
M  END
>  <alias>  (212) 
None

>  <rmsd(smina/fragmenstein)>  (212) 
1.019

>  <smiles>  (212) 
C[C@H](ON)C(=O)Nc1cc(N2CCNC2=O)ccc1Cl

>  <gnina_score>  (212) 
5.286

>  <inspiration_score>  (212) 
None

>  <energy_score>  (212) 
-44.368808

>  <distance_score>  (212) 
1.876463

>  <gnina_score_min>  (212) 
5.293

>  <inchikey>  (212) 
PVSUJYCTKXVDAG-ZETCQYMHSA-N

>  <exports>  (212) 
['/opt/xchem-fragalysis-2/maxwin/BulkDock/OUTPUTS/openbind_a71ev2a_c2_elabs_1LOUU54.sdf', '/opt/xchem-fragalysis-2/maxwin/BulkDock/OUTPUTS/openbind_a71ev2a_c2_elabs_1LSYIDY.sdf']

>  <name>  (212) 
P544776

>  <ref_pdb>  (212) 
A0884a

>  <subsites>  (212) 
None

>  <HIPPO Pose ID>  (212) 
544776

>  <ref_mols>  (212) 
A0884a

>  <HIPPO Compound ID>  (212) 
382975

>  <tags>  (212) 
openbind_a71ev2a_c2_elabs,syndirella_product,openbind_a71ev2a_c2_elabs_fragonly_scored_top80percent,openbind_a71ev2a_c2_elabs_scored,BulkDock Fragalysis export,openbind_a71ev2a_c2_elabs_scored_top80percent,openbind_a71ev2a_c2_elabs_activefrags_only_scored_5.2plus,syndirella_placed

>  <smina_score_min>  (212) 
-6.755

$$$$
P544779
     RDKit          3D

 20 21  0  0  0  0  0  0  0  0999 V2000
    5.4475   14.1355   29.5393 C   0  0  0  0  0  0  0  0  0  0  0  0
    5.4471   13.1808   28.3429 C   0  0  0  0  0  0  0  0  0  0  0  0
    4.1050   13.2513   27.6158 C   0  0  0  0  0  0  0  0  0  0  0  0
    5.6951   11.5052   28.9667 Cl  0  0  0  0  0  0  0  0  0  0  0  0
    6.6039   13.5312   27.3631 C   0  0  0  0  0  0  0  0  0  0  0  0
    7.1336   14.5766   27.3820 O   0  0  0  0  0  0  0  0  0  0  0  0
    6.7843   12.3220   26.3880 N   0  0  0  0  0  0  0  0  0  0  0  0
    7.6828   12.1309   25.3440 C   0  0  0  0  0  0  0  0  0  0  0  0
    8.4978   13.1586   24.8931 C   0  0  0  0  0  0  0  0  0  0  0  0
    9.4622   12.9120   23.9110 C   0  0  0  0  0  0  0  0  0  0  0  0
   10.4615   13.8952   23.7528 N   0  0  0  0  0  0  0  0  0  0  0  0
   11.4793   13.8912   24.7871 C   0  0  0  0  0  0  0  0  0  0  0  0
   12.7105   13.4781   24.0371 C   0  0  0  0  0  0  0  0  0  0  0  0
   12.4957   14.1466   22.7994 N   0  0  0  0  0  0  0  0  0  0  0  0
   11.1336   14.1173   22.5322 C   0  0  0  0  0  0  0  0  0  0  0  0
   10.6552   14.2550   21.4253 O   0  0  0  0  0  0  0  0  0  0  0  0
    9.5894   11.6380   23.3492 C   0  0  0  0  0  0  0  0  0  0  0  0
    8.7840   10.6001   23.8133 C   0  0  0  0  0  0  0  0  0  0  0  0
    7.8342   10.8598   24.7970 C   0  0  0  0  0  0  0  0  0  0  0  0
    7.0848    9.8543   25.2645 F   0  0  0  0  0  0  0  0  0  0  0  0
  1  2  1  0
  2  3  1  0
  2  4  1  0
  2  5  1  0
  5  6  2  0
  5  7  1  0
  7  8  1  0
  8  9  2  0
  9 10  1  0
 10 11  1  0
 11 12  1  0
 12 13  1  0
 13 14  1  0
 14 15  1  0
 15 16  2  0
 10 17  2  0
 17 18  1  0
 18 19  2  0
 19 20  1  0
 19  8  1  0
 15 11  1  0
M  END
>  <alias>  (213) 
None

>  <rmsd(smina/fragmenstein)>  (213) 
1.34

>  <smiles>  (213) 
CC(C)(Cl)C(=O)Nc1cc(N2CCNC2=O)ccc1F

>  <gnina_score>  (213) 
5.175

>  <inspiration_score>  (213) 
None

>  <energy_score>  (213) 
-31.639883

>  <distance_score>  (213) 
1.473325

>  <gnina_score_min>  (213) 
5.415

>  <inchikey>  (213) 
JPUNBWMZZMGPKE-UHFFFAOYSA-N

>  <exports>  (213) 
['/opt/xchem-fragalysis-2/maxwin/BulkDock/OUTPUTS/openbind_a71ev2a_c2_elabs_1LOUU54.sdf', '/opt/xchem-fragalysis-2/maxwin/BulkDock/OUTPUTS/openbind_a71ev2a_c2_elabs_1LSYIDY.sdf']

>  <name>  (213) 
P544779

>  <ref_pdb>  (213) 
A0884a

>  <subsites>  (213) 
None

>  <HIPPO Pose ID>  (213) 
544779

>  <ref_mols>  (213) 
A0884a

>  <HIPPO Compound ID>  (213) 
382978

>  <tags>  (213) 
openbind_a71ev2a_c2_elabs,syndirella_product,openbind_a71ev2a_c2_elabs_fragonly_scored_top80percent,openbind_a71ev2a_c2_elabs_scored,BulkDock Fragalysis export,openbind_a71ev2a_c2_elabs_scored_top80percent,openbind_a71ev2a_c2_elabs_activefrags_only_scored_5.2plus,syndirella_placed

>  <smina_score_min>  (213) 
-6.416

$$$$
P544780
     RDKit          3D

 20 21  0  0  0  0  0  0  0  0999 V2000
    5.1262   16.2143   26.8485 C   0  0  0  0  0  0  0  0  0  0  0  0
    4.2487   15.2174   26.0890 C   0  0  0  0  0  0  0  0  0  0  0  0
    3.9234   15.7031   24.6752 C   0  0  0  0  0  0  0  0  0  0  0  0
    2.6722   15.1092   26.9874 Cl  0  0  0  0  0  0  0  0  0  0  0  0
    4.8952   13.7874   26.0775 C   0  0  0  0  0  0  0  0  0  0  0  0
    4.3868   12.8603   26.5864 O   0  0  0  0  0  0  0  0  0  0  0  0
    6.2599   13.9035   25.3059 N   0  0  0  0  0  0  0  0  0  0  0  0
    7.1920   12.9092   24.9386 C   0  0  0  0  0  0  0  0  0  0  0  0
    8.2378   13.4094   24.1412 C   0  0  0  0  0  0  0  0  0  0  0  0
    9.3038   12.6088   23.7189 C   0  0  0  0  0  0  0  0  0  0  0  0
   10.4371   13.1855   23.1285 N   0  0  0  0  0  0  0  0  0  0  0  0
   11.7135   13.1326   23.8011 C   0  0  0  0  0  0  0  0  0  0  0  0
   12.5881   13.9178   22.8582 C   0  0  0  0  0  0  0  0  0  0  0  0
   11.6930   14.9114   22.3879 N   0  0  0  0  0  0  0  0  0  0  0  0
   10.4290   14.3523   22.3496 C   0  0  0  0  0  0  0  0  0  0  0  0
    9.5079   14.8311   21.7196 O   0  0  0  0  0  0  0  0  0  0  0  0
    9.2724   11.2445   23.9678 C   0  0  0  0  0  0  0  0  0  0  0  0
    8.2298   10.7182   24.7236 C   0  0  0  0  0  0  0  0  0  0  0  0
    7.2338   11.5488   25.2714 C   0  0  0  0  0  0  0  0  0  0  0  0
    6.2186   10.7835   26.4267 Cl  0  0  0  0  0  0  0  0  0  0  0  0
  1  2  1  0
  2  3  1  0
  2  4  1  0
  2  5  1  0
  5  6  2  0
  5  7  1  0
  7  8  1  0
  8  9  2  0
  9 10  1  0
 10 11  1  0
 11 12  1  0
 12 13  1  0
 13 14  1  0
 14 15  1  0
 15 16  2  0
 10 17  2  0
 17 18  1  0
 18 19  2  0
 19 20  1  0
 19  8  1  0
 15 11  1  0
M  END
>  <alias>  (214) 
None

>  <rmsd(smina/fragmenstein)>  (214) 
0.915

>  <smiles>  (214) 
CC(C)(Cl)C(=O)Nc1cc(N2CCNC2=O)ccc1Cl

>  <gnina_score>  (214) 
5.355

>  <inspiration_score>  (214) 
None

>  <energy_score>  (214) 
-6.687794

>  <distance_score>  (214) 
1.929999

>  <gnina_score_min>  (214) 
5.308

>  <inchikey>  (214) 
BSXPNMHJSHJPFJ-UHFFFAOYSA-N

>  <exports>  (214) 
['/opt/xchem-fragalysis-2/maxwin/BulkDock/OUTPUTS/openbind_a71ev2a_c2_elabs_1LOUU54.sdf', '/opt/xchem-fragalysis-2/maxwin/BulkDock/OUTPUTS/openbind_a71ev2a_c2_elabs_1LSYIDY.sdf']

>  <name>  (214) 
P544780

>  <ref_pdb>  (214) 
A0884a

>  <subsites>  (214) 
None

>  <HIPPO Pose ID>  (214) 
544780

>  <ref_mols>  (214) 
A0884a

>  <HIPPO Compound ID>  (214) 
382979

>  <tags>  (214) 
openbind_a71ev2a_c2_elabs,syndirella_product,openbind_a71ev2a_c2_elabs_fragonly_scored_top80percent,openbind_a71ev2a_c2_elabs_scored,BulkDock Fragalysis export,openbind_a71ev2a_c2_elabs_scored_top80percent,openbind_a71ev2a_c2_elabs_activefrags_only_scored_5.2plus,syndirella_placed

>  <smina_score_min>  (214) 
-6.461

$$$$
P544783
     RDKit          3D

 20 21  0  0  0  0  0  0  0  0999 V2000
    6.0698   12.7704   29.4893 C   0  0  0  0  0  0  0  0  0  0  0  0
    5.4680   13.6552   28.3937 C   0  0  0  0  0  0  0  0  0  0  0  0
    5.0138   14.9917   28.9839 C   0  0  0  0  0  0  0  0  0  0  0  0
    4.0265   12.8208   27.7103 Cl  0  0  0  0  0  0  0  0  0  0  0  0
    6.5298   13.8804   27.2786 C   0  0  0  0  0  0  0  0  0  0  0  0
    7.1338   14.8810   27.1886 O   0  0  0  0  0  0  0  0  0  0  0  0
    6.6545   12.5460   26.4722 N   0  0  0  0  0  0  0  0  0  0  0  0
    7.5710   12.1616   25.5014 C   0  0  0  0  0  0  0  0  0  0  0  0
    7.5937   10.8286   25.0903 C   0  0  0  0  0  0  0  0  0  0  0  0
    8.5383   10.4067   24.1547 C   0  0  0  0  0  0  0  0  0  0  0  0
    9.4324   11.3198   23.6160 C   0  0  0  0  0  0  0  0  0  0  0  0
   10.3138   10.8912   22.7102 F   0  0  0  0  0  0  0  0  0  0  0  0
    9.4280   12.6493   24.0316 C   0  0  0  0  0  0  0  0  0  0  0  0
   10.3668   13.5881   23.5739 N   0  0  0  0  0  0  0  0  0  0  0  0
   11.7151   13.5900   24.0895 C   0  0  0  0  0  0  0  0  0  0  0  0
   12.4172   14.5352   23.1361 C   0  0  0  0  0  0  0  0  0  0  0  0
   11.7099   14.3549   21.9269 N   0  0  0  0  0  0  0  0  0  0  0  0
   10.4304   13.9335   22.2158 C   0  0  0  0  0  0  0  0  0  0  0  0
    9.5201   13.9562   21.4124 O   0  0  0  0  0  0  0  0  0  0  0  0
    8.4861   13.0712   24.9693 C   0  0  0  0  0  0  0  0  0  0  0  0
  1  2  1  0
  2  3  1  0
  2  4  1  0
  2  5  1  0
  5  6  2  0
  5  7  1  0
  7  8  1  0
  8  9  2  0
  9 10  1  0
 10 11  2  0
 11 12  1  0
 11 13  1  0
 13 14  1  0
 14 15  1  0
 15 16  1  0
 16 17  1  0
 17 18  1  0
 18 19  2  0
 13 20  2  0
 20  8  1  0
 18 14  1  0
M  END
>  <alias>  (215) 
None

>  <rmsd(smina/fragmenstein)>  (215) 
0.816

>  <smiles>  (215) 
CC(C)(Cl)C(=O)Nc1ccc(F)c(N2CCNC2=O)c1

>  <gnina_score>  (215) 
5.356

>  <inspiration_score>  (215) 
None

>  <energy_score>  (215) 
-15.978408

>  <distance_score>  (215) 
1.735354

>  <gnina_score_min>  (215) 
5.309

>  <inchikey>  (215) 
ALHLLYGIAMTIPE-UHFFFAOYSA-N

>  <exports>  (215) 
['/opt/xchem-fragalysis-2/maxwin/BulkDock/OUTPUTS/openbind_a71ev2a_c2_elabs_1LOUU54.sdf', '/opt/xchem-fragalysis-2/maxwin/BulkDock/OUTPUTS/openbind_a71ev2a_c2_elabs_1LSYIDY.sdf']

>  <name>  (215) 
P544783

>  <ref_pdb>  (215) 
A0884a

>  <subsites>  (215) 
None

>  <HIPPO Pose ID>  (215) 
544783

>  <ref_mols>  (215) 
A0884a

>  <HIPPO Compound ID>  (215) 
382986

>  <tags>  (215) 
openbind_a71ev2a_c2_elabs,syndirella_product,openbind_a71ev2a_c2_elabs_fragonly_scored_top80percent,openbind_a71ev2a_c2_elabs_scored,BulkDock Fragalysis export,openbind_a71ev2a_c2_elabs_scored_top80percent,openbind_a71ev2a_c2_elabs_activefrags_only_scored_5.2plus,syndirella_placed

>  <smina_score_min>  (215) 
-6.247

$$$$
P544785
     RDKit          3D

 20 20  0  0  0  0  0  0  0  0999 V2000
    7.3649   14.3385   23.2247 C   0  0  0  0  0  0  0  0  0  0  0  0
    8.0102   13.0756   23.7276 C   0  0  0  0  0  0  0  0  0  0  0  0
    7.3622   12.3741   24.7775 C   0  0  0  0  0  0  0  0  0  0  0  0
    6.4392   13.0556   25.5753 N   0  0  0  0  0  0  0  0  0  0  0  0
    5.5040   12.5374   26.7062 C   0  0  0  0  0  0  0  0  0  0  0  0
    5.3081   11.4484   27.0891 O   0  0  0  0  0  0  0  0  0  0  0  0
    4.8701   13.8132   27.3298 C   0  0  2  0  0  0  0  0  0  0  0  0
    3.5522   13.4642   28.0122 C   0  0  0  0  0  0  0  0  0  0  0  0
    4.5937   14.8580   26.3863 O   0  0  0  0  0  0  0  0  0  0  0  0
    5.7391   15.7619   26.2937 N   0  0  0  0  0  0  0  0  0  0  0  0
    7.6737   11.0424   25.0339 C   0  0  0  0  0  0  0  0  0  0  0  0
    8.6960   10.4314   24.3229 C   0  0  0  0  0  0  0  0  0  0  0  0
    9.4717   11.1807   23.4454 C   0  0  0  0  0  0  0  0  0  0  0  0
    9.1656   12.5188   23.1522 C   0  0  0  0  0  0  0  0  0  0  0  0
   10.1091   13.1503   22.3160 N   0  0  0  0  0  0  0  0  0  0  0  0
   10.1554   14.6007   21.7638 C   0  0  0  0  0  0  0  0  0  0  0  0
    9.3822   15.4677   21.8537 O   0  0  0  0  0  0  0  0  0  0  0  0
   11.4075   14.7539   21.1726 N   0  0  0  0  0  0  0  0  0  0  0  0
   12.5125   15.1499   22.0034 C   0  0  0  0  0  0  0  0  0  0  0  0
   11.6263   14.5306   19.7718 C   0  0  0  0  0  0  0  0  0  0  0  0
  1  2  1  0
  2  3  2  0
  3  4  1  0
  4  5  1  0
  5  6  2  0
  5  7  1  0
  7  8  1  6
  7  9  1  0
  9 10  1  0
  3 11  1  0
 11 12  2  0
 12 13  1  0
 13 14  2  0
 14 15  1  0
 15 16  1  0
 16 17  2  0
 16 18  1  0
 18 19  1  0
 18 20  1  0
 14  2  1  0
M  END
>  <alias>  (216) 
None

>  <rmsd(smina/fragmenstein)>  (216) 
1.634

>  <smiles>  (216) 
Cc1c(NC(=O)[C@H](C)ON)cccc1NC(=O)N(C)C

>  <gnina_score>  (216) 
5.258

>  <inspiration_score>  (216) 
None

>  <energy_score>  (216) 
-14.04714

>  <distance_score>  (216) 
1.771244

>  <gnina_score_min>  (216) 
5.284

>  <inchikey>  (216) 
FAUQUUPTUDPICK-VIFPVBQESA-N

>  <exports>  (216) 
['/opt/xchem-fragalysis-2/maxwin/BulkDock/OUTPUTS/openbind_a71ev2a_c2_elabs_1LOUU54.sdf', '/opt/xchem-fragalysis-2/maxwin/BulkDock/OUTPUTS/openbind_a71ev2a_c2_elabs_1LSYIDY.sdf']

>  <name>  (216) 
P544785

>  <ref_pdb>  (216) 
A0884a

>  <subsites>  (216) 
None

>  <HIPPO Pose ID>  (216) 
544785

>  <ref_mols>  (216) 
A0884a

>  <HIPPO Compound ID>  (216) 
382989

>  <tags>  (216) 
openbind_a71ev2a_c2_elabs,syndirella_product,openbind_a71ev2a_c2_elabs_fragonly_scored_top80percent,openbind_a71ev2a_c2_elabs_scored,BulkDock Fragalysis export,openbind_a71ev2a_c2_elabs_scored_top80percent,openbind_a71ev2a_c2_elabs_activefrags_only_scored_5.2plus,syndirella_placed

>  <smina_score_min>  (216) 
-5.938

$$$$
P544786
     RDKit          3D

 20 21  0  0  0  0  0  0  0  0999 V2000
    5.2491   11.6816   27.3541 O   0  0  0  0  0  0  0  0  0  0  0  0
    5.3866   12.7644   26.9319 C   0  0  0  0  0  0  0  0  0  0  0  0
    4.6060   13.9607   27.4682 C   0  0  0  0  0  0  0  0  0  0  0  0
    3.2892   14.1245   26.7398 C   0  0  0  0  0  0  0  0  0  0  0  0
    1.8963   13.0586   27.6027 Br  0  0  0  0  0  0  0  0  0  0  0  0
    6.3263   13.2985   25.8063 N   0  0  0  0  0  0  0  0  0  0  0  0
    7.3140   12.6495   25.0699 C   0  0  0  0  0  0  0  0  0  0  0  0
    7.4831   11.2640   25.1224 C   0  0  0  0  0  0  0  0  0  0  0  0
    8.5189   10.6641   24.4056 C   0  0  0  0  0  0  0  0  0  0  0  0
    9.4023   11.4554   23.6805 C   0  0  0  0  0  0  0  0  0  0  0  0
   10.3762   10.8541   22.9924 F   0  0  0  0  0  0  0  0  0  0  0  0
    9.2462   12.8427   23.6195 C   0  0  0  0  0  0  0  0  0  0  0  0
   10.1840   13.6589   22.9309 N   0  0  0  0  0  0  0  0  0  0  0  0
    9.7182   14.3761   21.7454 C   0  0  0  0  0  0  0  0  0  0  0  0
   10.7627   15.2241   21.0429 C   0  0  0  0  0  0  0  0  0  0  0  0
   12.1426   14.6587   21.2566 C   0  0  0  0  0  0  0  0  0  0  0  0
   12.3682   14.4219   22.6517 N   0  0  0  0  0  0  0  0  0  0  0  0
   11.4669   13.7655   23.4344 C   0  0  0  0  0  0  0  0  0  0  0  0
   11.8134   13.3674   24.5450 O   0  0  0  0  0  0  0  0  0  0  0  0
    8.1744   13.4328   24.2919 C   0  0  0  0  0  0  0  0  0  0  0  0
  1  2  2  0
  2  3  1  0
  3  4  1  0
  4  5  1  0
  2  6  1  0
  6  7  1  0
  7  8  2  0
  8  9  1  0
  9 10  2  0
 10 11  1  0
 10 12  1  0
 12 13  1  0
 13 14  1  0
 14 15  1  0
 15 16  1  0
 16 17  1  0
 17 18  1  0
 18 19  2  0
 12 20  2  0
 20  7  1  0
 18 13  1  0
M  END
>  <alias>  (217) 
None

>  <rmsd(smina/fragmenstein)>  (217) 
0.291

>  <smiles>  (217) 
O=C(CCBr)Nc1ccc(F)c(N2CCCNC2=O)c1

>  <gnina_score>  (217) 
5.258

>  <inspiration_score>  (217) 
None

>  <energy_score>  (217) 
-17.241795

>  <distance_score>  (217) 
1.235753

>  <gnina_score_min>  (217) 
5.297

>  <inchikey>  (217) 
VBZXAPZMZIDPLI-UHFFFAOYSA-N

>  <exports>  (217) 
['/opt/xchem-fragalysis-2/maxwin/BulkDock/OUTPUTS/openbind_a71ev2a_c2_elabs_1LOUU54.sdf', '/opt/xchem-fragalysis-2/maxwin/BulkDock/OUTPUTS/openbind_a71ev2a_c2_elabs_1LSYIDY.sdf']

>  <name>  (217) 
P544786

>  <ref_pdb>  (217) 
A0884a

>  <subsites>  (217) 
None

>  <HIPPO Pose ID>  (217) 
544786

>  <ref_mols>  (217) 
A0884a

>  <HIPPO Compound ID>  (217) 
382991

>  <tags>  (217) 
openbind_a71ev2a_c2_elabs,syndirella_product,openbind_a71ev2a_c2_elabs_fragonly_scored_top80percent,openbind_a71ev2a_c2_elabs_scored,BulkDock Fragalysis export,openbind_a71ev2a_c2_elabs_scored_top80percent,openbind_a71ev2a_c2_elabs_activefrags_only_scored_5.2plus,syndirella_placed

>  <smina_score_min>  (217) 
-6.326

$$$$
P544790
     RDKit          3D

 20 21  0  0  0  0  0  0  0  0999 V2000
    4.4985   16.0907   26.3518 C   0  0  0  0  0  0  0  0  0  0  0  0
    4.6995   15.1190   27.0284 C   0  0  0  0  0  0  0  0  0  0  0  0
    4.9932   13.9361   27.8516 C   0  0  0  0  0  0  0  0  0  0  0  0
    5.4913   12.7331   27.0449 C   0  0  0  0  0  0  0  0  0  0  0  0
    5.0169   11.6666   27.1543 O   0  0  0  0  0  0  0  0  0  0  0  0
    6.6995   13.2205   26.1789 N   0  0  0  0  0  0  0  0  0  0  0  0
    7.5863   12.5039   25.3822 C   0  0  0  0  0  0  0  0  0  0  0  0
    7.4731   11.1248   25.2068 C   0  0  0  0  0  0  0  0  0  0  0  0
    8.3653   10.4562   24.3681 C   0  0  0  0  0  0  0  0  0  0  0  0
    9.3577   11.1644   23.7074 C   0  0  0  0  0  0  0  0  0  0  0  0
   10.1878   10.4992   22.8982 F   0  0  0  0  0  0  0  0  0  0  0  0
    9.5221   12.5313   23.9238 C   0  0  0  0  0  0  0  0  0  0  0  0
   10.6278   13.1795   23.3510 N   0  0  0  0  0  0  0  0  0  0  0  0
   11.5189   13.9360   24.0578 C   0  0  0  0  0  0  0  0  0  0  0  0
   11.5971   14.0699   25.2737 O   0  0  0  0  0  0  0  0  0  0  0  0
   12.3880   14.6850   23.0680 C   0  0  0  0  0  0  0  0  0  0  0  0
   11.7368   14.3986   21.8470 N   0  0  0  0  0  0  0  0  0  0  0  0
   10.5651   13.7414   22.1134 C   0  0  0  0  0  0  0  0  0  0  0  0
    9.5935   13.8606   21.3905 O   0  0  0  0  0  0  0  0  0  0  0  0
    8.6207   13.2050   24.7525 C   0  0  0  0  0  0  0  0  0  0  0  0
  1  2  3  0
  2  3  1  0
  3  4  1  0
  4  5  2  0
  4  6  1  0
  6  7  1  0
  7  8  2  0
  8  9  1  0
  9 10  2  0
 10 11  1  0
 10 12  1  0
 12 13  1  0
 13 14  1  0
 14 15  2  0
 14 16  1  0
 16 17  1  0
 17 18  1  0
 18 19  2  0
 12 20  2  0
 20  7  1  0
 18 13  1  0
M  END
>  <alias>  (218) 
None

>  <rmsd(smina/fragmenstein)>  (218) 
1.036

>  <smiles>  (218) 
C#CCC(=O)Nc1ccc(F)c(N2C(=O)CNC2=O)c1

>  <gnina_score>  (218) 
5.303

>  <inspiration_score>  (218) 
None

>  <energy_score>  (218) 
-28.056451

>  <distance_score>  (218) 
1.563946

>  <gnina_score_min>  (218) 
5.237

>  <inchikey>  (218) 
JCKFBAFASWHLMZ-UHFFFAOYSA-N

>  <exports>  (218) 
['/opt/xchem-fragalysis-2/maxwin/BulkDock/OUTPUTS/openbind_a71ev2a_c2_elabs_1LOUU54.sdf', '/opt/xchem-fragalysis-2/maxwin/BulkDock/OUTPUTS/openbind_a71ev2a_c2_elabs_1LSYIDY.sdf']

>  <name>  (218) 
P544790

>  <ref_pdb>  (218) 
A0884a

>  <subsites>  (218) 
None

>  <HIPPO Pose ID>  (218) 
544790

>  <ref_mols>  (218) 
A0884a

>  <HIPPO Compound ID>  (218) 
382996

>  <tags>  (218) 
openbind_a71ev2a_c2_elabs,syndirella_product,openbind_a71ev2a_c2_elabs_fragonly_scored_top80percent,openbind_a71ev2a_c2_elabs_scored,BulkDock Fragalysis export,openbind_a71ev2a_c2_elabs_scored_top80percent,openbind_a71ev2a_c2_elabs_activefrags_only_scored_5.2plus,syndirella_placed

>  <smina_score_min>  (218) 
-6.452

$$$$
P544792
     RDKit          3D

 20 21  0  0  0  0  0  0  0  0999 V2000
    3.1135   14.3993   26.1890 C   0  0  0  0  0  0  0  0  0  0  0  0
    3.8533   13.8121   26.9307 C   0  0  0  0  0  0  0  0  0  0  0  0
    4.7755   13.0988   27.8250 C   0  0  0  0  0  0  0  0  0  0  0  0
    5.5425   11.9911   27.1036 C   0  0  0  0  0  0  0  0  0  0  0  0
    5.4072   10.8559   27.3594 O   0  0  0  0  0  0  0  0  0  0  0  0
    6.4827   12.6908   26.0698 N   0  0  0  0  0  0  0  0  0  0  0  0
    7.4772   12.1588   25.2414 C   0  0  0  0  0  0  0  0  0  0  0  0
    7.6000   10.7786   25.1044 C   0  0  0  0  0  0  0  0  0  0  0  0
    8.5824   10.2372   24.2798 C   0  0  0  0  0  0  0  0  0  0  0  0
    9.4886   11.0599   23.6305 C   0  0  0  0  0  0  0  0  0  0  0  0
    9.4195   12.4427   23.8009 C   0  0  0  0  0  0  0  0  0  0  0  0
   10.4974   13.1806   23.2770 N   0  0  0  0  0  0  0  0  0  0  0  0
   11.4057   13.8541   24.0458 C   0  0  0  0  0  0  0  0  0  0  0  0
   11.4943   13.8842   25.2670 O   0  0  0  0  0  0  0  0  0  0  0  0
   12.2978   14.6579   23.1232 C   0  0  0  0  0  0  0  0  0  0  0  0
   11.6500   14.4820   21.8797 N   0  0  0  0  0  0  0  0  0  0  0  0
   10.4747   13.8033   22.0675 C   0  0  0  0  0  0  0  0  0  0  0  0
    9.5464   13.9182   21.2907 O   0  0  0  0  0  0  0  0  0  0  0  0
    8.3606   13.0113   24.5455 C   0  0  0  0  0  0  0  0  0  0  0  0
    8.1838   14.4999   24.5995 C   0  0  0  0  0  0  0  0  0  0  0  0
  1  2  3  0
  2  3  1  0
  3  4  1  0
  4  5  2  0
  4  6  1  0
  6  7  1  0
  7  8  2  0
  8  9  1  0
  9 10  2  0
 10 11  1  0
 11 12  1  0
 12 13  1  0
 13 14  2  0
 13 15  1  0
 15 16  1  0
 16 17  1  0
 17 18  2  0
 11 19  2  0
 19 20  1  0
 19  7  1  0
 17 12  1  0
M  END
>  <alias>  (219) 
None

>  <rmsd(smina/fragmenstein)>  (219) 
0.567

>  <smiles>  (219) 
C#CCC(=O)Nc1cccc(N2C(=O)CNC2=O)c1C

>  <gnina_score>  (219) 
5.227

>  <inspiration_score>  (219) 
None

>  <energy_score>  (219) 
-39.210502

>  <distance_score>  (219) 
1.534791

>  <gnina_score_min>  (219) 
5.315

>  <inchikey>  (219) 
JQEZSOWGWIQBOB-UHFFFAOYSA-N

>  <exports>  (219) 
['/opt/xchem-fragalysis-2/maxwin/BulkDock/OUTPUTS/openbind_a71ev2a_c2_elabs_1LOUU54.sdf', '/opt/xchem-fragalysis-2/maxwin/BulkDock/OUTPUTS/openbind_a71ev2a_c2_elabs_1LSYIDY.sdf']

>  <name>  (219) 
P544792

>  <ref_pdb>  (219) 
A0884a

>  <subsites>  (219) 
None

>  <HIPPO Pose ID>  (219) 
544792

>  <ref_mols>  (219) 
A0884a

>  <HIPPO Compound ID>  (219) 
383000

>  <tags>  (219) 
openbind_a71ev2a_c2_elabs,syndirella_product,openbind_a71ev2a_c2_elabs_fragonly_scored_top80percent,openbind_a71ev2a_c2_elabs_scored,BulkDock Fragalysis export,openbind_a71ev2a_c2_elabs_scored_top80percent,openbind_a71ev2a_c2_elabs_activefrags_only_scored_5.2plus,syndirella_placed

>  <smina_score_min>  (219) 
-6.336

$$$$
P544798
     RDKit          3D

 20 21  0  0  0  0  0  0  0  0999 V2000
    5.2833   11.8260   27.0794 O   0  0  0  0  0  0  0  0  0  0  0  0
    5.6701   12.8812   26.7554 C   0  0  0  0  0  0  0  0  0  0  0  0
    5.0795   14.1759   27.2943 C   0  0  0  0  0  0  0  0  0  0  0  0
    5.8650   14.6834   28.4901 C   0  0  0  0  0  0  0  0  0  0  0  0
    7.3988   15.4554   28.0027 Cl  0  0  0  0  0  0  0  0  0  0  0  0
    6.8035   13.2795   25.7671 N   0  0  0  0  0  0  0  0  0  0  0  0
    7.7182   12.4908   25.0762 C   0  0  0  0  0  0  0  0  0  0  0  0
    7.6279   11.1034   25.0299 C   0  0  0  0  0  0  0  0  0  0  0  0
    8.5564   10.3747   24.2799 C   0  0  0  0  0  0  0  0  0  0  0  0
    9.5807   11.0197   23.5864 C   0  0  0  0  0  0  0  0  0  0  0  0
    9.7002   12.4054   23.6692 C   0  0  0  0  0  0  0  0  0  0  0  0
   10.7659   13.0579   23.0195 N   0  0  0  0  0  0  0  0  0  0  0  0
   11.7753   13.6368   23.7441 C   0  0  0  0  0  0  0  0  0  0  0  0
   12.0764   13.4140   24.9099 O   0  0  0  0  0  0  0  0  0  0  0  0
   12.4167   14.7233   22.9105 C   0  0  0  0  0  0  0  0  0  0  0  0
   11.6078   14.7029   21.7527 N   0  0  0  0  0  0  0  0  0  0  0  0
   10.5230   13.9010   21.9765 C   0  0  0  0  0  0  0  0  0  0  0  0
    9.4821   14.0652   21.3672 O   0  0  0  0  0  0  0  0  0  0  0  0
    8.7609   13.1318   24.4049 C   0  0  0  0  0  0  0  0  0  0  0  0
    8.8750   14.4681   24.4999 F   0  0  0  0  0  0  0  0  0  0  0  0
  1  2  2  0
  2  3  1  0
  3  4  1  0
  4  5  1  0
  2  6  1  0
  6  7  1  0
  7  8  2  0
  8  9  1  0
  9 10  2  0
 10 11  1  0
 11 12  1  0
 12 13  1  0
 13 14  2  0
 13 15  1  0
 15 16  1  0
 16 17  1  0
 17 18  2  0
 11 19  2  0
 19 20  1  0
 19  7  1  0
 17 12  1  0
M  END
>  <alias>  (220) 
None

>  <rmsd(smina/fragmenstein)>  (220) 
0.698

>  <smiles>  (220) 
O=C(CCCl)Nc1cccc(N2C(=O)CNC2=O)c1F

>  <gnina_score>  (220) 
5.254

>  <inspiration_score>  (220) 
None

>  <energy_score>  (220) 
-32.970957

>  <distance_score>  (220) 
1.575724

>  <gnina_score_min>  (220) 
5.284

>  <inchikey>  (220) 
NZCXBRZAHKJPCL-UHFFFAOYSA-N

>  <exports>  (220) 
['/opt/xchem-fragalysis-2/maxwin/BulkDock/OUTPUTS/openbind_a71ev2a_c2_elabs_1LOUU54.sdf', '/opt/xchem-fragalysis-2/maxwin/BulkDock/OUTPUTS/openbind_a71ev2a_c2_elabs_1LSYIDY.sdf']

>  <name>  (220) 
P544798

>  <ref_pdb>  (220) 
A0884a

>  <subsites>  (220) 
None

>  <HIPPO Pose ID>  (220) 
544798

>  <ref_mols>  (220) 
A0884a

>  <HIPPO Compound ID>  (220) 
383013

>  <tags>  (220) 
openbind_a71ev2a_c2_elabs,syndirella_product,openbind_a71ev2a_c2_elabs_fragonly_scored_top80percent,openbind_a71ev2a_c2_elabs_scored,BulkDock Fragalysis export,openbind_a71ev2a_c2_elabs_scored_top80percent,openbind_a71ev2a_c2_elabs_activefrags_only_scored_5.2plus,syndirella_placed

>  <smina_score_min>  (220) 
-6.217

$$$$
P544800
     RDKit          3D

 20 21  0  0  0  0  0  0  0  0999 V2000
    8.1973   14.5083   24.5566 C   0  0  0  0  0  0  0  0  0  0  0  0
    8.3613   13.0183   24.5160 C   0  0  0  0  0  0  0  0  0  0  0  0
    7.4731   12.1805   25.2234 C   0  0  0  0  0  0  0  0  0  0  0  0
    6.4864   12.7355   26.0466 N   0  0  0  0  0  0  0  0  0  0  0  0
    5.4284   12.0487   26.9612 C   0  0  0  0  0  0  0  0  0  0  0  0
    5.2723   10.9195   27.2237 O   0  0  0  0  0  0  0  0  0  0  0  0
    4.5845   13.1519   27.5721 C   0  0  0  0  0  0  0  0  0  0  0  0
    5.2940   13.6954   28.7960 C   0  0  0  0  0  0  0  0  0  0  0  0
    4.3228   14.9739   29.5576 Cl  0  0  0  0  0  0  0  0  0  0  0  0
    7.5954   10.7977   25.1146 C   0  0  0  0  0  0  0  0  0  0  0  0
    8.5767   10.2401   24.2994 C   0  0  0  0  0  0  0  0  0  0  0  0
    9.4879   11.0492   23.6395 C   0  0  0  0  0  0  0  0  0  0  0  0
    9.4227   12.4347   23.7871 C   0  0  0  0  0  0  0  0  0  0  0  0
   10.5087   13.1612   23.2624 N   0  0  0  0  0  0  0  0  0  0  0  0
   11.4168   13.8318   24.0350 C   0  0  0  0  0  0  0  0  0  0  0  0
   11.5005   13.8625   25.2566 O   0  0  0  0  0  0  0  0  0  0  0  0
   12.3103   14.6397   23.1176 C   0  0  0  0  0  0  0  0  0  0  0  0
   11.6651   14.4670   21.8725 N   0  0  0  0  0  0  0  0  0  0  0  0
   10.4864   13.7939   22.0579 C   0  0  0  0  0  0  0  0  0  0  0  0
    9.5560   13.9227   21.2857 O   0  0  0  0  0  0  0  0  0  0  0  0
  1  2  1  0
  2  3  2  0
  3  4  1  0
  4  5  1  0
  5  6  2  0
  5  7  1  0
  7  8  1  0
  8  9  1  0
  3 10  1  0
 10 11  2  0
 11 12  1  0
 12 13  2  0
 13 14  1  0
 14 15  1  0
 15 16  2  0
 15 17  1  0
 17 18  1  0
 18 19  1  0
 19 20  2  0
 13  2  1  0
 19 14  1  0
M  END
>  <alias>  (221) 
None

>  <rmsd(smina/fragmenstein)>  (221) 
0.952

>  <smiles>  (221) 
Cc1c(NC(=O)CCCl)cccc1N1C(=O)CNC1=O

>  <gnina_score>  (221) 
5.129

>  <inspiration_score>  (221) 
None

>  <energy_score>  (221) 
-18.631965

>  <distance_score>  (221) 
1.534298

>  <gnina_score_min>  (221) 
5.233

>  <inchikey>  (221) 
XNURFUOWPKLEAG-UHFFFAOYSA-N

>  <exports>  (221) 
['/opt/xchem-fragalysis-2/maxwin/BulkDock/OUTPUTS/openbind_a71ev2a_c2_elabs_1LOUU54.sdf', '/opt/xchem-fragalysis-2/maxwin/BulkDock/OUTPUTS/openbind_a71ev2a_c2_elabs_1LSYIDY.sdf']

>  <name>  (221) 
P544800

>  <ref_pdb>  (221) 
A0884a

>  <subsites>  (221) 
None

>  <HIPPO Pose ID>  (221) 
544800

>  <ref_mols>  (221) 
A0884a

>  <HIPPO Compound ID>  (221) 
383015

>  <tags>  (221) 
openbind_a71ev2a_c2_elabs,syndirella_product,openbind_a71ev2a_c2_elabs_fragonly_scored_top80percent,openbind_a71ev2a_c2_elabs_scored,BulkDock Fragalysis export,openbind_a71ev2a_c2_elabs_scored_top80percent,openbind_a71ev2a_c2_elabs_activefrags_only_scored_5.2plus,syndirella_placed

>  <smina_score_min>  (221) 
-6.198

$$$$
P544807
     RDKit          3D

 20 21  0  0  0  0  0  0  0  0999 V2000
    4.8983   11.8714   27.0313 O   0  0  0  0  0  0  0  0  0  0  0  0
    5.1499   12.9078   26.5548 C   0  0  0  0  0  0  0  0  0  0  0  0
    4.3634   14.1403   26.8654 C   0  0  0  0  0  0  0  0  0  0  0  0
    3.4160   14.0787   27.8106 C   0  0  0  0  0  0  0  0  0  0  0  0
    2.2630   15.6858   28.3234 I   0  0  0  0  0  0  0  0  0  0  0  0
    6.2367   13.3012   25.5209 N   0  0  0  0  0  0  0  0  0  0  0  0
    7.2594   12.5473   24.9540 C   0  0  0  0  0  0  0  0  0  0  0  0
    7.3491   11.1677   25.1347 C   0  0  0  0  0  0  0  0  0  0  0  0
    8.3747   10.4466   24.5209 C   0  0  0  0  0  0  0  0  0  0  0  0
    9.3593   11.1079   23.7959 C   0  0  0  0  0  0  0  0  0  0  0  0
    9.2943   12.4958   23.6484 C   0  0  0  0  0  0  0  0  0  0  0  0
   10.3973   13.1686   23.0657 N   0  0  0  0  0  0  0  0  0  0  0  0
   11.4756   13.3838   23.8970 C   0  0  0  0  0  0  0  0  0  0  0  0
   11.4509   13.3816   25.1254 O   0  0  0  0  0  0  0  0  0  0  0  0
   12.7149   13.7252   23.1580 C   0  0  0  0  0  0  0  0  0  0  0  0
   12.4415   15.0037   22.4376 C   0  0  0  0  0  0  0  0  0  0  0  0
   11.2325   14.8739   21.6897 N   0  0  0  0  0  0  0  0  0  0  0  0
   10.1943   14.0744   22.0498 C   0  0  0  0  0  0  0  0  0  0  0  0
    9.1326   14.2420   21.4627 O   0  0  0  0  0  0  0  0  0  0  0  0
    8.2180   13.2086   24.1867 C   0  0  0  0  0  0  0  0  0  0  0  0
  1  2  2  0
  2  3  1  0
  3  4  2  0
  4  5  1  0
  2  6  1  0
  6  7  1  0
  7  8  2  0
  8  9  1  0
  9 10  2  0
 10 11  1  0
 11 12  1  0
 12 13  1  0
 13 14  2  0
 13 15  1  0
 15 16  1  0
 16 17  1  0
 17 18  1  0
 18 19  2  0
 11 20  2  0
 20  7  1  0
 18 12  1  0
M  END
>  <alias>  (222) 
None

>  <rmsd(smina/fragmenstein)>  (222) 
1.011

>  <smiles>  (222) 
O=C(/C=C/I)Nc1cccc(N2C(=O)CCNC2=O)c1

>  <gnina_score>  (222) 
5.136

>  <inspiration_score>  (222) 
None

>  <energy_score>  (222) 
-57.685431

>  <distance_score>  (222) 
1.759147

>  <gnina_score_min>  (222) 
5.311

>  <inchikey>  (222) 
IIGQKVIIHZAXGE-GQCTYLIASA-N

>  <exports>  (222) 
['/opt/xchem-fragalysis-2/maxwin/BulkDock/OUTPUTS/openbind_a71ev2a_c2_elabs_1LOUU54.sdf', '/opt/xchem-fragalysis-2/maxwin/BulkDock/OUTPUTS/openbind_a71ev2a_c2_elabs_1LSYIDY.sdf']

>  <name>  (222) 
P544807

>  <ref_pdb>  (222) 
A0884a

>  <subsites>  (222) 
None

>  <HIPPO Pose ID>  (222) 
544807

>  <ref_mols>  (222) 
A0884a

>  <HIPPO Compound ID>  (222) 
383026

>  <tags>  (222) 
openbind_a71ev2a_c2_elabs,syndirella_product,openbind_a71ev2a_c2_elabs_fragonly_scored_top80percent,openbind_a71ev2a_c2_elabs_scored,BulkDock Fragalysis export,openbind_a71ev2a_c2_elabs_scored_top80percent,openbind_a71ev2a_c2_elabs_activefrags_only_scored_5.2plus,syndirella_placed

>  <smina_score_min>  (222) 
-6.652

$$$$
P544809
     RDKit          3D

 20 21  0  0  0  0  0  0  0  0999 V2000
    8.1667   14.4997   24.5379 C   0  0  0  0  0  0  0  0  0  0  0  0
    8.3491   13.0115   24.4999 C   0  0  0  0  0  0  0  0  0  0  0  0
    7.4688   12.1622   25.2037 C   0  0  0  0  0  0  0  0  0  0  0  0
    6.4625   12.7008   26.0127 N   0  0  0  0  0  0  0  0  0  0  0  0
    5.4876   12.0102   27.0006 C   0  0  0  0  0  0  0  0  0  0  0  0
    5.3226   10.8782   27.2338 O   0  0  0  0  0  0  0  0  0  0  0  0
    4.6721   13.0825   27.6465 C   0  0  0  0  0  0  0  0  0  0  0  0
    3.8039   12.7395   28.6075 C   0  0  0  0  0  0  0  0  0  0  0  0
    2.6146   14.1033   29.5561 I   0  0  0  0  0  0  0  0  0  0  0  0
    7.6093   10.7807   25.0958 C   0  0  0  0  0  0  0  0  0  0  0  0
    8.5995   10.2347   24.2845 C   0  0  0  0  0  0  0  0  0  0  0  0
    9.5024   11.0553   23.6284 C   0  0  0  0  0  0  0  0  0  0  0  0
    9.4203   12.4398   23.7762 C   0  0  0  0  0  0  0  0  0  0  0  0
   10.5021   13.1764   23.2584 N   0  0  0  0  0  0  0  0  0  0  0  0
   11.4029   13.8498   24.0367 C   0  0  0  0  0  0  0  0  0  0  0  0
   11.4757   13.8835   25.2588 O   0  0  0  0  0  0  0  0  0  0  0  0
   12.3031   14.6546   23.1232 C   0  0  0  0  0  0  0  0  0  0  0  0
   11.6617   14.4860   21.8750 N   0  0  0  0  0  0  0  0  0  0  0  0
   10.4847   13.8079   22.0534 C   0  0  0  0  0  0  0  0  0  0  0  0
    9.5586   13.9297   21.2747 O   0  0  0  0  0  0  0  0  0  0  0  0
  1  2  1  0
  2  3  2  0
  3  4  1  0
  4  5  1  0
  5  6  2  0
  5  7  1  0
  7  8  2  0
  8  9  1  0
  3 10  1  0
 10 11  2  0
 11 12  1  0
 12 13  2  0
 13 14  1  0
 14 15  1  0
 15 16  2  0
 15 17  1  0
 17 18  1  0
 18 19  1  0
 19 20  2  0
 13  2  1  0
 19 14  1  0
M  END
>  <alias>  (223) 
None

>  <rmsd(smina/fragmenstein)>  (223) 
0.548

>  <smiles>  (223) 
Cc1c(NC(=O)/C=C/I)cccc1N1C(=O)CNC1=O

>  <gnina_score>  (223) 
5.169

>  <inspiration_score>  (223) 
None

>  <energy_score>  (223) 
-45.571366

>  <distance_score>  (223) 
1.527754

>  <gnina_score_min>  (223) 
5.228

>  <inchikey>  (223) 
IFVGTLLOFUBBIM-AATRIKPKSA-N

>  <exports>  (223) 
['/opt/xchem-fragalysis-2/maxwin/BulkDock/OUTPUTS/openbind_a71ev2a_c2_elabs_1LOUU54.sdf', '/opt/xchem-fragalysis-2/maxwin/BulkDock/OUTPUTS/openbind_a71ev2a_c2_elabs_1LSYIDY.sdf']

>  <name>  (223) 
P544809

>  <ref_pdb>  (223) 
A0884a

>  <subsites>  (223) 
None

>  <HIPPO Pose ID>  (223) 
544809

>  <ref_mols>  (223) 
A0884a

>  <HIPPO Compound ID>  (223) 
383027

>  <tags>  (223) 
openbind_a71ev2a_c2_elabs,syndirella_product,openbind_a71ev2a_c2_elabs_fragonly_scored_top80percent,openbind_a71ev2a_c2_elabs_scored,BulkDock Fragalysis export,openbind_a71ev2a_c2_elabs_scored_top80percent,openbind_a71ev2a_c2_elabs_activefrags_only_scored_5.2plus,syndirella_placed

>  <smina_score_min>  (223) 
-6.492

$$$$
P544812
     RDKit          3D

 20 21  0  0  0  0  0  0  0  0999 V2000
    5.1425   11.8838   26.8717 O   0  0  0  0  0  0  0  0  0  0  0  0
    5.5682   12.9294   26.5790 C   0  0  0  0  0  0  0  0  0  0  0  0
    4.8431   14.1861   26.9135 C   0  0  0  0  0  0  0  0  0  0  0  0
    5.3176   15.2407   27.5902 C   0  0  0  0  0  0  0  0  0  0  0  0
    7.1769   15.4611   28.4088 I   0  0  0  0  0  0  0  0  0  0  0  0
    6.8222   13.3064   25.7593 N   0  0  0  0  0  0  0  0  0  0  0  0
    7.7287   12.5037   25.0736 C   0  0  0  0  0  0  0  0  0  0  0  0
    7.6363   11.1162   25.0404 C   0  0  0  0  0  0  0  0  0  0  0  0
    8.5604   10.3799   24.2918 C   0  0  0  0  0  0  0  0  0  0  0  0
    9.5859   11.0168   23.5915 C   0  0  0  0  0  0  0  0  0  0  0  0
    9.7098   12.4026   23.6647 C   0  0  0  0  0  0  0  0  0  0  0  0
   10.7726   13.0520   23.0062 N   0  0  0  0  0  0  0  0  0  0  0  0
   11.7965   13.6177   23.7220 C   0  0  0  0  0  0  0  0  0  0  0  0
   12.1200   13.3764   24.8786 O   0  0  0  0  0  0  0  0  0  0  0  0
   12.4222   14.7199   22.8959 C   0  0  0  0  0  0  0  0  0  0  0  0
   11.6004   14.7110   21.7475 N   0  0  0  0  0  0  0  0  0  0  0  0
   10.5191   13.9057   21.9737 C   0  0  0  0  0  0  0  0  0  0  0  0
    9.4721   14.0744   21.3762 O   0  0  0  0  0  0  0  0  0  0  0  0
    8.7722   13.1360   24.3955 C   0  0  0  0  0  0  0  0  0  0  0  0
    8.8896   14.4730   24.4800 F   0  0  0  0  0  0  0  0  0  0  0  0
  1  2  2  0
  2  3  1  0
  3  4  2  0
  4  5  1  0
  2  6  1  0
  6  7  1  0
  7  8  2  0
  8  9  1  0
  9 10  2  0
 10 11  1  0
 11 12  1  0
 12 13  1  0
 13 14  2  0
 13 15  1  0
 15 16  1  0
 16 17  1  0
 17 18  2  0
 11 19  2  0
 19 20  1  0
 19  7  1  0
 17 12  1  0
M  END
>  <alias>  (224) 
None

>  <rmsd(smina/fragmenstein)>  (224) 
0.756

>  <smiles>  (224) 
O=C(/C=C\I)Nc1cccc(N2C(=O)CNC2=O)c1F

>  <gnina_score>  (224) 
5.345

>  <inspiration_score>  (224) 
None

>  <energy_score>  (224) 
-5.258381

>  <distance_score>  (224) 
1.593325

>  <gnina_score_min>  (224) 
5.365

>  <inchikey>  (224) 
KIQJPGPNBMJRAF-PLNGDYQASA-N

>  <exports>  (224) 
['/opt/xchem-fragalysis-2/maxwin/BulkDock/OUTPUTS/openbind_a71ev2a_c2_elabs_1LOUU54.sdf', '/opt/xchem-fragalysis-2/maxwin/BulkDock/OUTPUTS/openbind_a71ev2a_c2_elabs_1LSYIDY.sdf']

>  <name>  (224) 
P544812

>  <ref_pdb>  (224) 
A0884a

>  <subsites>  (224) 
None

>  <HIPPO Pose ID>  (224) 
544812

>  <ref_mols>  (224) 
A0884a

>  <HIPPO Compound ID>  (224) 
383029

>  <tags>  (224) 
openbind_a71ev2a_c2_elabs,syndirella_product,openbind_a71ev2a_c2_elabs_fragonly_scored_top80percent,openbind_a71ev2a_c2_elabs_scored,BulkDock Fragalysis export,openbind_a71ev2a_c2_elabs_scored_top80percent,openbind_a71ev2a_c2_elabs_activefrags_only_scored_5.2plus,syndirella_placed

>  <smina_score_min>  (224) 
-6.56

$$$$
P544814
     RDKit          3D

 20 21  0  0  0  0  0  0  0  0999 V2000
    4.9121   10.6838   27.5095 O   0  0  0  0  0  0  0  0  0  0  0  0
    5.0507   11.8244   27.3137 C   0  0  0  0  0  0  0  0  0  0  0  0
    4.2319   12.8184   28.0709 C   0  0  0  0  0  0  0  0  0  0  0  0
    3.6108   13.9297   27.6543 C   0  0  0  0  0  0  0  0  0  0  0  0
    3.5335   14.7104   25.7754 I   0  0  0  0  0  0  0  0  0  0  0  0
    6.0618   12.5692   26.4204 N   0  0  0  0  0  0  0  0  0  0  0  0
    7.0201   12.0802   25.5380 C   0  0  0  0  0  0  0  0  0  0  0  0
    7.2205   10.7297   25.2932 C   0  0  0  0  0  0  0  0  0  0  0  0
    8.2625   10.3230   24.4527 C   0  0  0  0  0  0  0  0  0  0  0  0
    9.1583   11.2513   23.9392 C   0  0  0  0  0  0  0  0  0  0  0  0
   10.2328   10.7885   23.2952 F   0  0  0  0  0  0  0  0  0  0  0  0
    9.0294   12.5982   24.2724 C   0  0  0  0  0  0  0  0  0  0  0  0
   10.1428   13.4601   24.2483 N   0  0  0  0  0  0  0  0  0  0  0  0
   10.4309   14.2891   25.3063 C   0  0  0  0  0  0  0  0  0  0  0  0
    9.7064   14.7455   26.1856 O   0  0  0  0  0  0  0  0  0  0  0  0
   11.8858   14.6208   25.2629 C   0  0  0  0  0  0  0  0  0  0  0  0
   12.2970   13.9765   24.0686 N   0  0  0  0  0  0  0  0  0  0  0  0
   11.2320   13.3993   23.4278 C   0  0  0  0  0  0  0  0  0  0  0  0
   11.3259   13.0193   22.2807 O   0  0  0  0  0  0  0  0  0  0  0  0
    7.8830   13.0089   24.9663 C   0  0  0  0  0  0  0  0  0  0  0  0
  1  2  2  0
  2  3  1  0
  3  4  2  0
  4  5  1  0
  2  6  1  0
  6  7  1  0
  7  8  2  0
  8  9  1  0
  9 10  2  0
 10 11  1  0
 10 12  1  0
 12 13  1  0
 13 14  1  0
 14 15  2  0
 14 16  1  0
 16 17  1  0
 17 18  1  0
 18 19  2  0
 12 20  2  0
 20  7  1  0
 18 13  1  0
M  END
>  <alias>  (225) 
None

>  <rmsd(smina/fragmenstein)>  (225) 
1.847

>  <smiles>  (225) 
O=C(/C=C\I)Nc1ccc(F)c(N2C(=O)CNC2=O)c1

>  <gnina_score>  (225) 
4.984

>  <inspiration_score>  (225) 
None

>  <energy_score>  (225) 
-29.29872

>  <distance_score>  (225) 
1.421576

>  <gnina_score_min>  (225) 
5.385

>  <inchikey>  (225) 
JRVILPYQQOPAPM-ARJAWSKDSA-N

>  <exports>  (225) 
['/opt/xchem-fragalysis-2/maxwin/BulkDock/OUTPUTS/openbind_a71ev2a_c2_elabs_1LOUU54.sdf', '/opt/xchem-fragalysis-2/maxwin/BulkDock/OUTPUTS/openbind_a71ev2a_c2_elabs_1LSYIDY.sdf']

>  <name>  (225) 
P544814

>  <ref_pdb>  (225) 
A0884a

>  <subsites>  (225) 
None

>  <HIPPO Pose ID>  (225) 
544814

>  <ref_mols>  (225) 
A0884a

>  <HIPPO Compound ID>  (225) 
383031

>  <tags>  (225) 
openbind_a71ev2a_c2_elabs,syndirella_product,openbind_a71ev2a_c2_elabs_fragonly_scored_top80percent,openbind_a71ev2a_c2_elabs_scored,BulkDock Fragalysis export,openbind_a71ev2a_c2_elabs_scored_top80percent,openbind_a71ev2a_c2_elabs_activefrags_only_scored_5.2plus,syndirella_placed

>  <smina_score_min>  (225) 
-6.642

$$$$
P544816
     RDKit          3D

 20 21  0  0  0  0  0  0  0  0999 V2000
    9.8552   16.3318   20.7980 C   0  0  0  0  0  0  0  0  0  0  0  0
   10.6626   15.0843   21.1393 C   0  0  0  0  0  0  0  0  0  0  0  0
   11.4872   14.6215   19.9482 C   0  0  0  0  0  0  0  0  0  0  0  0
   11.5273   15.1784   22.2939 N   0  0  0  0  0  0  0  0  0  0  0  0
   11.2687   14.1825   23.2185 C   0  0  0  0  0  0  0  0  0  0  0  0
   11.7438   14.1673   24.3452 O   0  0  0  0  0  0  0  0  0  0  0  0
   10.3292   13.3302   22.7010 N   0  0  0  0  0  0  0  0  0  0  0  0
    9.5500   12.5141   23.5467 C   0  0  0  0  0  0  0  0  0  0  0  0
    9.5510   11.1351   23.3523 C   0  0  0  0  0  0  0  0  0  0  0  0
    8.6916   10.3338   24.0975 C   0  0  0  0  0  0  0  0  0  0  0  0
    7.8093   10.9064   25.0147 C   0  0  0  0  0  0  0  0  0  0  0  0
    7.8283   12.2835   25.2287 C   0  0  0  0  0  0  0  0  0  0  0  0
    6.9642   12.8339   26.1668 N   0  0  0  0  0  0  0  0  0  0  0  0
    6.9056   14.2753   26.7695 C   0  0  0  0  0  0  0  0  0  0  0  0
    7.5276   15.2327   26.5080 O   0  0  0  0  0  0  0  0  0  0  0  0
    5.7579   14.2972   27.7636 C   0  0  0  0  0  0  0  0  0  0  0  0
    6.1170   13.0010   29.1697 Br  0  0  0  0  0  0  0  0  0  0  0  0
    8.7063   13.0855   24.5054 C   0  0  0  0  0  0  0  0  0  0  0  0
    9.7112   14.0134   21.6745 C   0  0  0  0  0  0  0  0  0  0  0  0
    8.5581   13.8586   21.2780 O   0  0  0  0  0  0  0  0  0  0  0  0
  1  2  1  0
  2  3  1  0
  2  4  1  0
  4  5  1  0
  5  6  2  0
  5  7  1  0
  7  8  1  0
  8  9  2  0
  9 10  1  0
 10 11  2  0
 11 12  1  0
 12 13  1  0
 13 14  1  0
 14 15  2  0
 14 16  1  0
 16 17  1  0
 12 18  2  0
  7 19  1  0
 19 20  2  0
 19  2  1  0
 18  8  1  0
M  END
>  <alias>  (226) 
None

>  <rmsd(smina/fragmenstein)>  (226) 
0.976

>  <smiles>  (226) 
CC1(C)NC(=O)N(c2cccc(NC(=O)CBr)c2)C1=O

>  <gnina_score>  (226) 
5.039

>  <inspiration_score>  (226) 
None

>  <energy_score>  (226) 
-14.539359

>  <distance_score>  (226) 
1.486296

>  <gnina_score_min>  (226) 
5.232

>  <inchikey>  (226) 
HOYJHVLIEOEWKW-UHFFFAOYSA-N

>  <exports>  (226) 
['/opt/xchem-fragalysis-2/maxwin/BulkDock/OUTPUTS/openbind_a71ev2a_c2_elabs_1LOUU54.sdf', '/opt/xchem-fragalysis-2/maxwin/BulkDock/OUTPUTS/openbind_a71ev2a_c2_elabs_1LSYIDY.sdf']

>  <name>  (226) 
P544816

>  <ref_pdb>  (226) 
A0884a

>  <subsites>  (226) 
None

>  <HIPPO Pose ID>  (226) 
544816

>  <ref_mols>  (226) 
A0884a

>  <HIPPO Compound ID>  (226) 
383034

>  <tags>  (226) 
openbind_a71ev2a_c2_elabs,syndirella_product,openbind_a71ev2a_c2_elabs_fragonly_scored_top80percent,openbind_a71ev2a_c2_elabs_scored,BulkDock Fragalysis export,openbind_a71ev2a_c2_elabs_scored_top80percent,openbind_a71ev2a_c2_elabs_activefrags_only_scored_5.2plus,syndirella_placed

>  <smina_score_min>  (226) 
-6.882

$$$$
P544817
     RDKit          3D

 20 21  0  0  0  0  0  0  0  0999 V2000
   12.0694   16.0807   25.5679 O   0  0  0  0  0  0  0  0  0  0  0  0
   11.7559   15.1134   24.8639 C   0  0  0  0  0  0  0  0  0  0  0  0
   10.8913   14.1430   25.5016 C   0  0  0  0  0  0  0  0  0  0  0  0
   11.0895   12.9083   24.7035 C   0  0  0  0  0  0  0  0  0  0  0  0
   10.5946   13.0707   23.3624 N   0  0  0  0  0  0  0  0  0  0  0  0
    9.2826   12.5179   23.2450 C   0  0  0  0  0  0  0  0  0  0  0  0
    8.2131   13.3840   23.5008 C   0  0  0  0  0  0  0  0  0  0  0  0
    7.1752   12.9505   24.3313 C   0  0  0  0  0  0  0  0  0  0  0  0
    6.2406   13.8873   24.7593 N   0  0  0  0  0  0  0  0  0  0  0  0
    5.0864   13.7640   25.8094 C   0  0  0  0  0  0  0  0  0  0  0  0
    4.7040   12.8334   26.4118 O   0  0  0  0  0  0  0  0  0  0  0  0
    4.4933   15.1530   25.9762 C   0  0  0  0  0  0  0  0  0  0  0  0
    5.6282   16.0826   27.2524 Br  0  0  0  0  0  0  0  0  0  0  0  0
    7.1461   11.6296   24.7951 C   0  0  0  0  0  0  0  0  0  0  0  0
    8.1062   10.7134   24.3725 C   0  0  0  0  0  0  0  0  0  0  0  0
    9.1536   11.1526   23.5801 C   0  0  0  0  0  0  0  0  0  0  0  0
   10.1691   10.3080   23.3594 F   0  0  0  0  0  0  0  0  0  0  0  0
   11.0573   14.2125   22.7227 C   0  0  0  0  0  0  0  0  0  0  0  0
   10.7067   14.6105   21.6229 O   0  0  0  0  0  0  0  0  0  0  0  0
   11.9239   14.9678   23.4986 N   0  0  0  0  0  0  0  0  0  0  0  0
  1  2  2  0
  2  3  1  0
  3  4  1  0
  4  5  1  0
  5  6  1  0
  6  7  2  0
  7  8  1  0
  8  9  1  0
  9 10  1  0
 10 11  2  0
 10 12  1  0
 12 13  1  0
  8 14  2  0
 14 15  1  0
 15 16  2  0
 16 17  1  0
  5 18  1  0
 18 19  2  0
 18 20  1  0
 20  2  1  0
 16  6  1  0
M  END
>  <alias>  (227) 
None

>  <rmsd(smina/fragmenstein)>  (227) 
0.382

>  <smiles>  (227) 
O=C1CCN(c2cc(NC(=O)CBr)ccc2F)C(=O)N1

>  <gnina_score>  (227) 
5.41

>  <inspiration_score>  (227) 
None

>  <energy_score>  (227) 
-11.997221

>  <distance_score>  (227) 
1.738363

>  <gnina_score_min>  (227) 
5.522

>  <inchikey>  (227) 
ZDTFNRFYHCYPNK-UHFFFAOYSA-N

>  <exports>  (227) 
['/opt/xchem-fragalysis-2/maxwin/BulkDock/OUTPUTS/openbind_a71ev2a_c2_elabs_1LOUU54.sdf', '/opt/xchem-fragalysis-2/maxwin/BulkDock/OUTPUTS/openbind_a71ev2a_c2_elabs_1LSYIDY.sdf']

>  <name>  (227) 
P544817

>  <ref_pdb>  (227) 
A0884a

>  <subsites>  (227) 
None

>  <HIPPO Pose ID>  (227) 
544817

>  <ref_mols>  (227) 
A0884a

>  <HIPPO Compound ID>  (227) 
383035

>  <tags>  (227) 
openbind_a71ev2a_c2_elabs,syndirella_product,openbind_a71ev2a_c2_elabs_fragonly_scored_top80percent,BulkDock Fragalysis export,openbind_a71ev2a_c2_elabs_scored,openbind_a71ev2a_c2_elabs_scored_top80percent,openbind_a71ev2a_c2_elabs_activefrags_only_scored_5.2plus,openbind_a71ev2a_c2_elabs_activefrags_only_scored_5.5plus,syndirella_placed

>  <smina_score_min>  (227) 
-4.625

$$$$
P544820
     RDKit          3D

 20 21  0  0  0  0  0  0  0  0999 V2000
   12.7261   14.5358   20.0609 O   0  0  0  0  0  0  0  0  0  0  0  0
   12.1003   14.8219   21.0695 C   0  0  0  0  0  0  0  0  0  0  0  0
   12.6248   14.8423   22.4622 C   0  0  0  0  0  0  0  0  0  0  0  0
   11.8895   13.7393   23.1730 C   0  0  0  0  0  0  0  0  0  0  0  0
   10.4542   13.9837   23.0928 N   0  0  0  0  0  0  0  0  0  0  0  0
    9.5805   13.1442   23.8206 C   0  0  0  0  0  0  0  0  0  0  0  0
    9.6964   11.7735   23.7200 C   0  0  0  0  0  0  0  0  0  0  0  0
    8.7316   10.9801   24.3107 C   0  0  0  0  0  0  0  0  0  0  0  0
    8.8669    9.3222   24.0462 Cl  0  0  0  0  0  0  0  0  0  0  0  0
    7.6711   11.5099   25.0394 C   0  0  0  0  0  0  0  0  0  0  0  0
    7.5406   12.8896   25.1148 C   0  0  0  0  0  0  0  0  0  0  0  0
    6.4767   13.4996   25.7690 N   0  0  0  0  0  0  0  0  0  0  0  0
    5.3395   12.8852   26.6472 C   0  0  0  0  0  0  0  0  0  0  0  0
    5.0856   11.7667   26.8862 O   0  0  0  0  0  0  0  0  0  0  0  0
    4.4898   14.0453   27.1371 C   0  0  0  0  0  0  0  0  0  0  0  0
    5.5269   15.0192   28.4591 Br  0  0  0  0  0  0  0  0  0  0  0  0
    8.4845   13.7035   24.4876 C   0  0  0  0  0  0  0  0  0  0  0  0
    9.9445   14.4367   21.8846 C   0  0  0  0  0  0  0  0  0  0  0  0
    8.7960   14.2296   21.5128 O   0  0  0  0  0  0  0  0  0  0  0  0
   10.7735   15.0937   21.0450 N   0  0  0  0  0  0  0  0  0  0  0  0
  1  2  2  0
  2  3  1  0
  3  4  1  0
  4  5  1  0
  5  6  1  0
  6  7  2  0
  7  8  1  0
  8  9  1  0
  8 10  2  0
 10 11  1  0
 11 12  1  0
 12 13  1  0
 13 14  2  0
 13 15  1  0
 15 16  1  0
 11 17  2  0
  5 18  1  0
 18 19  2  0
 18 20  1  0
 20  2  1  0
 17  6  1  0
M  END
>  <alias>  (228) 
None

>  <rmsd(smina/fragmenstein)>  (228) 
0.694

>  <smiles>  (228) 
O=C1CCN(c2cc(Cl)cc(NC(=O)CBr)c2)C(=O)N1

>  <gnina_score>  (228) 
5.322

>  <inspiration_score>  (228) 
None

>  <energy_score>  (228) 
-37.863179

>  <distance_score>  (228) 
1.99272

>  <gnina_score_min>  (228) 
5.46

>  <inchikey>  (228) 
PUTJZJBWEQUCLB-UHFFFAOYSA-N

>  <exports>  (228) 
['/opt/xchem-fragalysis-2/maxwin/BulkDock/OUTPUTS/openbind_a71ev2a_c2_elabs_1LOUU54.sdf', '/opt/xchem-fragalysis-2/maxwin/BulkDock/OUTPUTS/openbind_a71ev2a_c2_elabs_1LSYIDY.sdf']

>  <name>  (228) 
P544820

>  <ref_pdb>  (228) 
A0884a

>  <subsites>  (228) 
None

>  <HIPPO Pose ID>  (228) 
544820

>  <ref_mols>  (228) 
A0884a

>  <HIPPO Compound ID>  (228) 
383039

>  <tags>  (228) 
openbind_a71ev2a_c2_elabs,syndirella_product,openbind_a71ev2a_c2_elabs_fragonly_scored_top80percent,openbind_a71ev2a_c2_elabs_scored,BulkDock Fragalysis export,openbind_a71ev2a_c2_elabs_scored_top80percent,openbind_a71ev2a_c2_elabs_activefrags_only_scored_5.2plus,syndirella_placed

>  <smina_score_min>  (228) 
-6.579

$$$$
P544821
     RDKit          3D

 20 21  0  0  0  0  0  0  0  0999 V2000
   12.0694   16.0872   25.5812 O   0  0  0  0  0  0  0  0  0  0  0  0
   11.7581   15.1211   24.8747 C   0  0  0  0  0  0  0  0  0  0  0  0
   10.8814   14.1539   25.5011 C   0  0  0  0  0  0  0  0  0  0  0  0
   11.1018   12.9151   24.7172 C   0  0  0  0  0  0  0  0  0  0  0  0
   10.6516   13.0558   23.3568 N   0  0  0  0  0  0  0  0  0  0  0  0
    9.3741   12.4542   23.1868 C   0  0  0  0  0  0  0  0  0  0  0  0
    9.3399   11.0672   23.4216 C   0  0  0  0  0  0  0  0  0  0  0  0
    8.3469   10.5340   24.2323 C   0  0  0  0  0  0  0  0  0  0  0  0
    7.3645   11.3692   24.7593 C   0  0  0  0  0  0  0  0  0  0  0  0
    6.4995   10.8196   25.6171 F   0  0  0  0  0  0  0  0  0  0  0  0
    7.2850   12.7169   24.3857 C   0  0  0  0  0  0  0  0  0  0  0  0
    6.3354   13.6212   24.8701 N   0  0  0  0  0  0  0  0  0  0  0  0
    5.2269   13.4432   25.9610 C   0  0  0  0  0  0  0  0  0  0  0  0
    4.8961   12.4910   26.5587 O   0  0  0  0  0  0  0  0  0  0  0  0
    4.5828   14.8046   26.1552 C   0  0  0  0  0  0  0  0  0  0  0  0
    5.8102   15.8569   27.2358 Br  0  0  0  0  0  0  0  0  0  0  0  0
    8.2690   13.2430   23.5381 C   0  0  0  0  0  0  0  0  0  0  0  0
   11.1010   14.2051   22.7216 C   0  0  0  0  0  0  0  0  0  0  0  0
   10.7692   14.5877   21.6106 O   0  0  0  0  0  0  0  0  0  0  0  0
   11.9385   14.9782   23.5101 N   0  0  0  0  0  0  0  0  0  0  0  0
  1  2  2  0
  2  3  1  0
  3  4  1  0
  4  5  1  0
  5  6  1  0
  6  7  2  0
  7  8  1  0
  8  9  2  0
  9 10  1  0
  9 11  1  0
 11 12  1  0
 12 13  1  0
 13 14  2  0
 13 15  1  0
 15 16  1  0
 11 17  2  0
  5 18  1  0
 18 19  2  0
 18 20  1  0
 20  2  1  0
 17  6  1  0
M  END
>  <alias>  (229) 
None

>  <rmsd(smina/fragmenstein)>  (229) 
0.56

>  <smiles>  (229) 
O=C1CCN(c2ccc(F)c(NC(=O)CBr)c2)C(=O)N1

>  <gnina_score>  (229) 
5.35

>  <inspiration_score>  (229) 
None

>  <energy_score>  (229) 
-0.761636

>  <distance_score>  (229) 
1.558409

>  <gnina_score_min>  (229) 
5.57

>  <inchikey>  (229) 
YTIYPLAFGSKPOV-UHFFFAOYSA-N

>  <exports>  (229) 
['/opt/xchem-fragalysis-2/maxwin/BulkDock/OUTPUTS/openbind_a71ev2a_c2_elabs_1LOUU54.sdf', '/opt/xchem-fragalysis-2/maxwin/BulkDock/OUTPUTS/openbind_a71ev2a_c2_elabs_1LSYIDY.sdf']

>  <name>  (229) 
P544821

>  <ref_pdb>  (229) 
A0884a

>  <subsites>  (229) 
None

>  <HIPPO Pose ID>  (229) 
544821

>  <ref_mols>  (229) 
A0884a

>  <HIPPO Compound ID>  (229) 
383040

>  <tags>  (229) 
openbind_a71ev2a_c2_elabs,syndirella_product,openbind_a71ev2a_c2_elabs_fragonly_scored_top80percent,BulkDock Fragalysis export,openbind_a71ev2a_c2_elabs_scored,openbind_a71ev2a_c2_elabs_scored_top80percent,openbind_a71ev2a_c2_elabs_activefrags_only_scored_5.2plus,openbind_a71ev2a_c2_elabs_activefrags_only_scored_5.5plus,syndirella_placed

>  <smina_score_min>  (229) 
-4.722

$$$$
P544823
     RDKit          3D

 20 21  0  0  0  0  0  0  0  0999 V2000
    3.5347   14.7325   28.0853 C   0  0  0  0  0  0  0  0  0  0  0  0
    4.6506   14.6133   27.3626 C   0  0  0  0  0  0  0  0  0  0  0  0
    5.3352   15.7119   26.9796 F   0  0  0  0  0  0  0  0  0  0  0  0
    5.2283   13.2938   26.9453 C   0  0  0  0  0  0  0  0  0  0  0  0
    4.7730   12.2679   27.2745 O   0  0  0  0  0  0  0  0  0  0  0  0
    6.4920   13.6090   26.0976 N   0  0  0  0  0  0  0  0  0  0  0  0
    7.3664   12.7580   25.4279 C   0  0  0  0  0  0  0  0  0  0  0  0
    7.1736   11.3819   25.4134 C   0  0  0  0  0  0  0  0  0  0  0  0
    8.0330   10.5680   24.6813 C   0  0  0  0  0  0  0  0  0  0  0  0
    9.0870   11.1112   23.9380 C   0  0  0  0  0  0  0  0  0  0  0  0
    9.9140   10.1554   23.1359 C   0  0  0  0  0  0  0  0  0  0  0  0
    9.3437   12.4917   24.0327 C   0  0  0  0  0  0  0  0  0  0  0  0
   10.5104   13.0467   23.4582 N   0  0  0  0  0  0  0  0  0  0  0  0
   11.4036   13.8008   24.1731 C   0  0  0  0  0  0  0  0  0  0  0  0
   11.4485   13.9860   25.3840 O   0  0  0  0  0  0  0  0  0  0  0  0
   12.3366   14.4915   23.2015 C   0  0  0  0  0  0  0  0  0  0  0  0
   11.7195   14.1921   21.9677 N   0  0  0  0  0  0  0  0  0  0  0  0
   10.4995   13.6184   22.2208 C   0  0  0  0  0  0  0  0  0  0  0  0
    9.5530   13.8127   21.4808 O   0  0  0  0  0  0  0  0  0  0  0  0
    8.4622   13.3082   24.7580 C   0  0  0  0  0  0  0  0  0  0  0  0
  1  2  2  0
  2  3  1  0
  2  4  1  0
  4  5  2  0
  4  6  1  0
  6  7  1  0
  7  8  2  0
  8  9  1  0
  9 10  2  0
 10 11  1  0
 10 12  1  0
 12 13  1  0
 13 14  1  0
 14 15  2  0
 14 16  1  0
 16 17  1  0
 17 18  1  0
 18 19  2  0
 12 20  2  0
 20  7  1  0
 18 13  1  0
M  END
>  <alias>  (230) 
None

>  <rmsd(smina/fragmenstein)>  (230) 
1.433

>  <smiles>  (230) 
C=C(F)C(=O)Nc1ccc(C)c(N2C(=O)CNC2=O)c1

>  <gnina_score>  (230) 
5.225

>  <inspiration_score>  (230) 
None

>  <energy_score>  (230) 
-42.953722

>  <distance_score>  (230) 
1.72839

>  <gnina_score_min>  (230) 
5.233

>  <inchikey>  (230) 
AMUCCZUPEVXCRN-UHFFFAOYSA-N

>  <exports>  (230) 
['/opt/xchem-fragalysis-2/maxwin/BulkDock/OUTPUTS/openbind_a71ev2a_c2_elabs_1LOUU54.sdf', '/opt/xchem-fragalysis-2/maxwin/BulkDock/OUTPUTS/openbind_a71ev2a_c2_elabs_1LSYIDY.sdf']

>  <name>  (230) 
P544823

>  <ref_pdb>  (230) 
A0884a

>  <subsites>  (230) 
None

>  <HIPPO Pose ID>  (230) 
544823

>  <ref_mols>  (230) 
A0884a

>  <HIPPO Compound ID>  (230) 
383045

>  <tags>  (230) 
openbind_a71ev2a_c2_elabs,syndirella_product,openbind_a71ev2a_c2_elabs_fragonly_scored_top80percent,openbind_a71ev2a_c2_elabs_scored,BulkDock Fragalysis export,openbind_a71ev2a_c2_elabs_scored_top80percent,openbind_a71ev2a_c2_elabs_activefrags_only_scored_5.2plus,syndirella_placed

>  <smina_score_min>  (230) 
-6.725

$$$$
P544829
     RDKit          3D

 20 21  0  0  0  0  0  0  0  0999 V2000
    5.0072   11.7966   27.0666 O   0  0  0  0  0  0  0  0  0  0  0  0
    5.2436   12.8677   26.6702 C   0  0  0  0  0  0  0  0  0  0  0  0
    4.3610   14.0249   26.9814 C   0  0  0  0  0  0  0  0  0  0  0  0
    4.7159   15.1635   27.5918 C   0  0  0  0  0  0  0  0  0  0  0  0
    6.5635   15.6679   28.3044 I   0  0  0  0  0  0  0  0  0  0  0  0
    6.3698   13.3642   25.7354 N   0  0  0  0  0  0  0  0  0  0  0  0
    7.3473   12.6565   25.0435 C   0  0  0  0  0  0  0  0  0  0  0  0
    7.4744   11.2698   25.1295 C   0  0  0  0  0  0  0  0  0  0  0  0
    8.4919   10.6246   24.4253 C   0  0  0  0  0  0  0  0  0  0  0  0
    9.3958   11.3706   23.6765 C   0  0  0  0  0  0  0  0  0  0  0  0
   10.3419   10.7210   22.9926 F   0  0  0  0  0  0  0  0  0  0  0  0
    9.2831   12.7599   23.5863 C   0  0  0  0  0  0  0  0  0  0  0  0
   10.2348   13.5266   22.8593 N   0  0  0  0  0  0  0  0  0  0  0  0
    9.7422   14.3662   21.7673 C   0  0  0  0  0  0  0  0  0  0  0  0
   10.7948   15.1724   21.0246 C   0  0  0  0  0  0  0  0  0  0  0  0
   12.1770   14.6234   21.2581 C   0  0  0  0  0  0  0  0  0  0  0  0
   12.3851   14.3932   22.6550 N   0  0  0  0  0  0  0  0  0  0  0  0
   11.4921   13.6990   23.4154 C   0  0  0  0  0  0  0  0  0  0  0  0
   11.8254   13.3082   24.5318 O   0  0  0  0  0  0  0  0  0  0  0  0
    8.2372   13.3953   24.2568 C   0  0  0  0  0  0  0  0  0  0  0  0
  1  2  2  0
  2  3  1  0
  3  4  2  0
  4  5  1  0
  2  6  1  0
  6  7  1  0
  7  8  2  0
  8  9  1  0
  9 10  2  0
 10 11  1  0
 10 12  1  0
 12 13  1  0
 13 14  1  0
 14 15  1  0
 15 16  1  0
 16 17  1  0
 17 18  1  0
 18 19  2  0
 12 20  2  0
 20  7  1  0
 18 13  1  0
M  END
>  <alias>  (231) 
None

>  <rmsd(smina/fragmenstein)>  (231) 
0.426

>  <smiles>  (231) 
O=C(/C=C\I)Nc1ccc(F)c(N2CCCNC2=O)c1

>  <gnina_score>  (231) 
5.306

>  <inspiration_score>  (231) 
None

>  <energy_score>  (231) 
-35.932777

>  <distance_score>  (231) 
1.241805

>  <gnina_score_min>  (231) 
5.347

>  <inchikey>  (231) 
FLNAVMNJKFDZLD-PLNGDYQASA-N

>  <exports>  (231) 
['/opt/xchem-fragalysis-2/maxwin/BulkDock/OUTPUTS/openbind_a71ev2a_c2_elabs_1LOUU54.sdf', '/opt/xchem-fragalysis-2/maxwin/BulkDock/OUTPUTS/openbind_a71ev2a_c2_elabs_1LSYIDY.sdf']

>  <name>  (231) 
P544829

>  <ref_pdb>  (231) 
A0884a

>  <subsites>  (231) 
None

>  <HIPPO Pose ID>  (231) 
544829

>  <ref_mols>  (231) 
A0884a

>  <HIPPO Compound ID>  (231) 
383051

>  <tags>  (231) 
openbind_a71ev2a_c2_elabs,syndirella_product,openbind_a71ev2a_c2_elabs_fragonly_scored_top80percent,openbind_a71ev2a_c2_elabs_scored,BulkDock Fragalysis export,openbind_a71ev2a_c2_elabs_scored_top80percent,openbind_a71ev2a_c2_elabs_activefrags_only_scored_5.2plus,syndirella_placed

>  <smina_score_min>  (231) 
-6.659

$$$$
P544831
     RDKit          3D

 20 21  0  0  0  0  0  0  0  0999 V2000
    4.2143   16.2450   25.8861 C   0  0  0  0  0  0  0  0  0  0  0  0
    4.2907   15.0843   26.4622 C   0  0  0  0  0  0  0  0  0  0  0  0
    4.3593   13.9196   27.0345 C   0  0  0  0  0  0  0  0  0  0  0  0
    5.2410   12.7908   26.6100 C   0  0  0  0  0  0  0  0  0  0  0  0
    5.1041   11.7420   27.1088 O   0  0  0  0  0  0  0  0  0  0  0  0
    6.2333   13.2611   25.5153 N   0  0  0  0  0  0  0  0  0  0  0  0
    7.2851   12.5888   24.8995 C   0  0  0  0  0  0  0  0  0  0  0  0
    7.4703   11.2160   25.0692 C   0  0  0  0  0  0  0  0  0  0  0  0
    8.5249   10.5775   24.4230 C   0  0  0  0  0  0  0  0  0  0  0  0
    9.4194   11.3211   23.6639 C   0  0  0  0  0  0  0  0  0  0  0  0
   10.4011   10.6670   23.0386 F   0  0  0  0  0  0  0  0  0  0  0  0
    9.2629   12.7012   23.4951 C   0  0  0  0  0  0  0  0  0  0  0  0
   10.2253   13.4500   22.7538 N   0  0  0  0  0  0  0  0  0  0  0  0
    9.7547   14.4316   21.7833 C   0  0  0  0  0  0  0  0  0  0  0  0
   10.8202   14.9008   20.8120 C   0  0  0  0  0  0  0  0  0  0  0  0
   12.0965   15.2033   21.5518 C   0  0  0  0  0  0  0  0  0  0  0  0
   12.4250   14.2152   22.5365 N   0  0  0  0  0  0  0  0  0  0  0  0
   11.5080   13.5332   23.2747 C   0  0  0  0  0  0  0  0  0  0  0  0
   11.8572   13.0651   24.3576 O   0  0  0  0  0  0  0  0  0  0  0  0
    8.1615   13.3240   24.0900 C   0  0  0  0  0  0  0  0  0  0  0  0
  1  2  2  0
  2  3  2  0
  3  4  1  0
  4  5  2  0
  4  6  1  0
  6  7  1  0
  7  8  2  0
  8  9  1  0
  9 10  2  0
 10 11  1  0
 10 12  1  0
 12 13  1  0
 13 14  1  0
 14 15  1  0
 15 16  1  0
 16 17  1  0
 17 18  1  0
 18 19  2  0
 12 20  2  0
 20  7  1  0
 18 13  1  0
M  END
>  <alias>  (232) 
None

>  <rmsd(smina/fragmenstein)>  (232) 
0.245

>  <smiles>  (232) 
C=C=CC(=O)Nc1ccc(F)c(N2CCCNC2=O)c1

>  <gnina_score>  (232) 
5.294

>  <inspiration_score>  (232) 
None

>  <energy_score>  (232) 
-30.461596

>  <distance_score>  (232) 
1.230037

>  <gnina_score_min>  (232) 
5.267

>  <inchikey>  (232) 
WRHAEUALSTWSNH-UHFFFAOYSA-N

>  <exports>  (232) 
['/opt/xchem-fragalysis-2/maxwin/BulkDock/OUTPUTS/openbind_a71ev2a_c2_elabs_1LOUU54.sdf', '/opt/xchem-fragalysis-2/maxwin/BulkDock/OUTPUTS/openbind_a71ev2a_c2_elabs_1LSYIDY.sdf']

>  <name>  (232) 
P544831

>  <ref_pdb>  (232) 
A0884a

>  <subsites>  (232) 
None

>  <HIPPO Pose ID>  (232) 
544831

>  <ref_mols>  (232) 
A0884a

>  <HIPPO Compound ID>  (232) 
383053

>  <tags>  (232) 
openbind_a71ev2a_c2_elabs,syndirella_product,openbind_a71ev2a_c2_elabs_fragonly_scored_top80percent,openbind_a71ev2a_c2_elabs_scored,BulkDock Fragalysis export,openbind_a71ev2a_c2_elabs_scored_top80percent,openbind_a71ev2a_c2_elabs_activefrags_only_scored_5.2plus,syndirella_placed

>  <smina_score_min>  (232) 
-6.456

$$$$
P544837
     RDKit          3D

 20 21  0  0  0  0  0  0  0  0999 V2000
    2.3324   14.4997   28.3855 N   0  0  0  0  0  0  0  0  0  0  0  0
    3.0720   13.2996   28.0055 O   0  0  0  0  0  0  0  0  0  0  0  0
    4.1940   13.6905   27.2154 C   0  0  0  0  0  0  0  0  0  0  0  0
    5.0676   12.4713   26.8799 C   0  0  0  0  0  0  0  0  0  0  0  0
    4.8598   11.3873   27.2734 O   0  0  0  0  0  0  0  0  0  0  0  0
    6.2045   13.0111   25.9514 N   0  0  0  0  0  0  0  0  0  0  0  0
    7.2135   12.3356   25.2744 C   0  0  0  0  0  0  0  0  0  0  0  0
    7.3313   10.9506   25.3015 C   0  0  0  0  0  0  0  0  0  0  0  0
    8.3497   10.3331   24.5765 C   0  0  0  0  0  0  0  0  0  0  0  0
    9.2748   11.0959   23.8759 C   0  0  0  0  0  0  0  0  0  0  0  0
   10.2320   10.4522   23.1980 F   0  0  0  0  0  0  0  0  0  0  0  0
    9.1876   12.4887   23.8517 C   0  0  0  0  0  0  0  0  0  0  0  0
   10.1487   13.2955   23.1821 N   0  0  0  0  0  0  0  0  0  0  0  0
   11.5261   12.8921   23.1664 C   0  0  0  0  0  0  0  0  0  0  0  0
   12.4064   14.1132   23.2283 C   0  0  0  0  0  0  0  0  0  0  0  0
   12.1675   14.8638   21.9462 C   0  0  0  0  0  0  0  0  0  0  0  0
   10.7595   15.0990   21.8129 N   0  0  0  0  0  0  0  0  0  0  0  0
    9.7800   14.4006   22.4482 C   0  0  0  0  0  0  0  0  0  0  0  0
    8.6245   14.7945   22.3644 O   0  0  0  0  0  0  0  0  0  0  0  0
    8.1282   13.0938   24.5414 C   0  0  0  0  0  0  0  0  0  0  0  0
  1  2  1  0
  2  3  1  0
  3  4  1  0
  4  5  2  0
  4  6  1  0
  6  7  1  0
  7  8  2  0
  8  9  1  0
  9 10  2  0
 10 11  1  0
 10 12  1  0
 12 13  1  0
 13 14  1  0
 14 15  1  0
 15 16  1  0
 16 17  1  0
 17 18  1  0
 18 19  2  0
 12 20  2  0
 20  7  1  0
 18 13  1  0
M  END
>  <alias>  (233) 
None

>  <rmsd(smina/fragmenstein)>  (233) 
1.742

>  <smiles>  (233) 
NOCC(=O)Nc1ccc(F)c(N2CCCNC2=O)c1

>  <gnina_score>  (233) 
5.101

>  <inspiration_score>  (233) 
None

>  <energy_score>  (233) 
-52.712096

>  <distance_score>  (233) 
1.706427

>  <gnina_score_min>  (233) 
5.34

>  <inchikey>  (233) 
HXPBDPOESCSXHQ-UHFFFAOYSA-N

>  <exports>  (233) 
['/opt/xchem-fragalysis-2/maxwin/BulkDock/OUTPUTS/openbind_a71ev2a_c2_elabs_1LOUU54.sdf', '/opt/xchem-fragalysis-2/maxwin/BulkDock/OUTPUTS/openbind_a71ev2a_c2_elabs_1LSYIDY.sdf']

>  <name>  (233) 
P544837

>  <ref_pdb>  (233) 
A0884a

>  <subsites>  (233) 
None

>  <HIPPO Pose ID>  (233) 
544837

>  <ref_mols>  (233) 
A0884a

>  <HIPPO Compound ID>  (233) 
383061

>  <tags>  (233) 
openbind_a71ev2a_c2_elabs,syndirella_product,openbind_a71ev2a_c2_elabs_fragonly_scored_top80percent,openbind_a71ev2a_c2_elabs_scored,BulkDock Fragalysis export,openbind_a71ev2a_c2_elabs_scored_top80percent,openbind_a71ev2a_c2_elabs_activefrags_only_scored_5.2plus,syndirella_placed

>  <smina_score_min>  (233) 
-6.659

$$$$
P544845
     RDKit          3D

 20 21  0  0  0  0  0  0  0  0999 V2000
    9.8798   10.3200   23.2182 C   0  0  0  0  0  0  0  0  0  0  0  0
    8.9129   11.1095   24.0415 C   0  0  0  0  0  0  0  0  0  0  0  0
    7.9384   10.3494   24.7119 C   0  0  0  0  0  0  0  0  0  0  0  0
    6.9397   10.9307   25.4934 C   0  0  0  0  0  0  0  0  0  0  0  0
    6.8491   12.3054   25.5560 C   0  0  0  0  0  0  0  0  0  0  0  0
    5.8501   12.9683   26.2614 N   0  0  0  0  0  0  0  0  0  0  0  0
    4.7862   12.4235   27.2627 C   0  0  0  0  0  0  0  0  0  0  0  0
    4.5410   11.3257   27.5850 O   0  0  0  0  0  0  0  0  0  0  0  0
    4.0174   13.6511   27.7845 C   0  0  0  0  0  0  0  0  0  0  0  0
    3.1726   13.2783   29.0029 C   0  0  0  0  0  0  0  0  0  0  0  0
    3.1253   14.2357   26.6903 C   0  0  0  0  0  0  0  0  0  0  0  0
    7.8276   13.0698   24.9296 C   0  0  0  0  0  0  0  0  0  0  0  0
    8.9443   12.4902   24.2942 C   0  0  0  0  0  0  0  0  0  0  0  0
   10.1266   13.2727   24.2587 N   0  0  0  0  0  0  0  0  0  0  0  0
   10.4262   14.1839   25.2471 C   0  0  0  0  0  0  0  0  0  0  0  0
    9.7156   14.7151   26.0963 O   0  0  0  0  0  0  0  0  0  0  0  0
   11.8776   14.5216   25.1548 C   0  0  0  0  0  0  0  0  0  0  0  0
   12.2953   13.7536   24.0446 N   0  0  0  0  0  0  0  0  0  0  0  0
   11.1975   13.2143   23.4204 C   0  0  0  0  0  0  0  0  0  0  0  0
   11.2599   12.9148   22.2481 O   0  0  0  0  0  0  0  0  0  0  0  0
  1  2  1  0
  2  3  2  0
  3  4  1  0
  4  5  2  0
  5  6  1  0
  6  7  1  0
  7  8  2  0
  7  9  1  0
  9 10  1  0
  9 11  1  0
  5 12  1  0
 12 13  2  0
 13 14  1  0
 14 15  1  0
 15 16  2  0
 15 17  1  0
 17 18  1  0
 18 19  1  0
 19 20  2  0
 13  2  1  0
 19 14  1  0
M  END
>  <alias>  (234) 
None

>  <rmsd(smina/fragmenstein)>  (234) 
2.29

>  <smiles>  (234) 
Cc1ccc(NC(=O)C(C)C)cc1N1C(=O)CNC1=O

>  <gnina_score>  (234) 
4.973

>  <inspiration_score>  (234) 
None

>  <energy_score>  (234) 
-32.707035

>  <distance_score>  (234) 
1.541662

>  <gnina_score_min>  (234) 
5.269

>  <inchikey>  (234) 
IOLRHJLHTAHOIK-UHFFFAOYSA-N

>  <exports>  (234) 
['/opt/xchem-fragalysis-2/maxwin/BulkDock/OUTPUTS/openbind_a71ev2a_c2_elabs_1LOUU54.sdf', '/opt/xchem-fragalysis-2/maxwin/BulkDock/OUTPUTS/openbind_a71ev2a_c2_elabs_1LSYIDY.sdf']

>  <name>  (234) 
P544845

>  <ref_pdb>  (234) 
A0884a

>  <subsites>  (234) 
None

>  <HIPPO Pose ID>  (234) 
544845

>  <ref_mols>  (234) 
A0884a

>  <HIPPO Compound ID>  (234) 
383070

>  <tags>  (234) 
openbind_a71ev2a_c2_elabs,syndirella_product,openbind_a71ev2a_c2_elabs_fragonly_scored_top80percent,openbind_a71ev2a_c2_elabs_scored,BulkDock Fragalysis export,openbind_a71ev2a_c2_elabs_scored_top80percent,openbind_a71ev2a_c2_elabs_activefrags_only_scored_5.2plus,syndirella_placed

>  <smina_score_min>  (234) 
-6.584

$$$$
P544849
     RDKit          3D

 20 21  0  0  0  0  0  0  0  0999 V2000
    8.2084   14.5183   24.5964 C   0  0  0  0  0  0  0  0  0  0  0  0
    8.3634   13.0272   24.5599 C   0  0  0  0  0  0  0  0  0  0  0  0
    7.4610   12.1998   25.2619 C   0  0  0  0  0  0  0  0  0  0  0  0
    6.4886   12.7700   26.0914 N   0  0  0  0  0  0  0  0  0  0  0  0
    5.4985   12.1042   27.0969 C   0  0  0  0  0  0  0  0  0  0  0  0
    5.2951   10.9746   27.3248 O   0  0  0  0  0  0  0  0  0  0  0  0
    4.7677   13.2592   27.8077 C   0  0  0  0  0  0  0  0  0  0  0  0
    3.8233   13.9895   26.8545 C   0  0  0  0  0  0  0  0  0  0  0  0
    3.9884   12.7390   29.0160 C   0  0  0  0  0  0  0  0  0  0  0  0
    7.5528   10.8170   25.1338 C   0  0  0  0  0  0  0  0  0  0  0  0
    8.5284   10.2499   24.3170 C   0  0  0  0  0  0  0  0  0  0  0  0
    9.4552   11.0485   23.6639 C   0  0  0  0  0  0  0  0  0  0  0  0
    9.4127   12.4340   23.8219 C   0  0  0  0  0  0  0  0  0  0  0  0
   10.5054   13.1503   23.2961 N   0  0  0  0  0  0  0  0  0  0  0  0
   11.4043   13.8370   24.0648 C   0  0  0  0  0  0  0  0  0  0  0  0
   11.4756   13.8921   25.2862 O   0  0  0  0  0  0  0  0  0  0  0  0
   12.3090   14.6250   23.1411 C   0  0  0  0  0  0  0  0  0  0  0  0
   11.6767   14.4291   21.8929 N   0  0  0  0  0  0  0  0  0  0  0  0
   10.4918   13.7675   22.0832 C   0  0  0  0  0  0  0  0  0  0  0  0
    9.5644   13.8991   21.3078 O   0  0  0  0  0  0  0  0  0  0  0  0
  1  2  1  0
  2  3  2  0
  3  4  1  0
  4  5  1  0
  5  6  2  0
  5  7  1  0
  7  8  1  0
  7  9  1  0
  3 10  1  0
 10 11  2  0
 11 12  1  0
 12 13  2  0
 13 14  1  0
 14 15  1  0
 15 16  2  0
 15 17  1  0
 17 18  1  0
 18 19  1  0
 19 20  2  0
 13  2  1  0
 19 14  1  0
M  END
>  <alias>  (235) 
None

>  <rmsd(smina/fragmenstein)>  (235) 
0.681

>  <smiles>  (235) 
Cc1c(NC(=O)C(C)C)cccc1N1C(=O)CNC1=O

>  <gnina_score>  (235) 
5.158

>  <inspiration_score>  (235) 
None

>  <energy_score>  (235) 
-36.377942

>  <distance_score>  (235) 
1.531572

>  <gnina_score_min>  (235) 
5.256

>  <inchikey>  (235) 
JCMOIFHZZHKOIA-UHFFFAOYSA-N

>  <exports>  (235) 
['/opt/xchem-fragalysis-2/maxwin/BulkDock/OUTPUTS/openbind_a71ev2a_c2_elabs_1LOUU54.sdf', '/opt/xchem-fragalysis-2/maxwin/BulkDock/OUTPUTS/openbind_a71ev2a_c2_elabs_1LSYIDY.sdf']

>  <name>  (235) 
P544849

>  <ref_pdb>  (235) 
A0884a

>  <subsites>  (235) 
None

>  <HIPPO Pose ID>  (235) 
544849

>  <ref_mols>  (235) 
A0884a

>  <HIPPO Compound ID>  (235) 
383077

>  <tags>  (235) 
openbind_a71ev2a_c2_elabs,syndirella_product,openbind_a71ev2a_c2_elabs_fragonly_scored_top80percent,openbind_a71ev2a_c2_elabs_scored,BulkDock Fragalysis export,openbind_a71ev2a_c2_elabs_scored_top80percent,openbind_a71ev2a_c2_elabs_activefrags_only_scored_5.2plus,syndirella_placed

>  <smina_score_min>  (235) 
-6.611

$$$$
P544854
     RDKit          3D

 20 21  0  0  0  0  0  0  0  0999 V2000
    4.6135    9.9180   28.7401 C   0  0  0  0  0  0  0  0  0  0  0  0
    4.6252   11.1287   28.2689 C   0  0  0  0  0  0  0  0  0  0  0  0
    4.6310   12.3453   27.8076 C   0  0  0  0  0  0  0  0  0  0  0  0
    5.6368   12.9128   26.8580 C   0  0  0  0  0  0  0  0  0  0  0  0
    5.6676   14.0655   26.6735 O   0  0  0  0  0  0  0  0  0  0  0  0
    6.5307   11.7796   26.2898 N   0  0  0  0  0  0  0  0  0  0  0  0
    7.5589   11.8206   25.3291 C   0  0  0  0  0  0  0  0  0  0  0  0
    7.9026   10.5350   24.8684 C   0  0  0  0  0  0  0  0  0  0  0  0
    8.8949   10.3323   23.9224 C   0  0  0  0  0  0  0  0  0  0  0  0
    9.5605   11.4282   23.4224 C   0  0  0  0  0  0  0  0  0  0  0  0
   10.4664   11.2303   22.4648 F   0  0  0  0  0  0  0  0  0  0  0  0
    9.2837   12.7238   23.8679 C   0  0  0  0  0  0  0  0  0  0  0  0
   10.0753   13.7986   23.3754 N   0  0  0  0  0  0  0  0  0  0  0  0
    9.8912   14.2744   22.0158 C   0  0  0  0  0  0  0  0  0  0  0  0
   11.2334   14.8660   21.6129 C   0  0  0  0  0  0  0  0  0  0  0  0
   12.1319   14.4090   22.6272 N   0  0  0  0  0  0  0  0  0  0  0  0
   11.4546   13.8037   23.6668 C   0  0  0  0  0  0  0  0  0  0  0  0
   11.9855   13.3716   24.6774 O   0  0  0  0  0  0  0  0  0  0  0  0
    8.2794   12.9372   24.8488 C   0  0  0  0  0  0  0  0  0  0  0  0
    8.0643   14.3273   25.3717 C   0  0  0  0  0  0  0  0  0  0  0  0
  1  2  2  0
  2  3  2  0
  3  4  1  0
  4  5  2  0
  4  6  1  0
  6  7  1  0
  7  8  2  0
  8  9  1  0
  9 10  2  0
 10 11  1  0
 10 12  1  0
 12 13  1  0
 13 14  1  0
 14 15  1  0
 15 16  1  0
 16 17  1  0
 17 18  2  0
 12 19  2  0
 19 20  1  0
 19  7  1  0
 17 13  1  0
M  END
>  <alias>  (236) 
None

>  <rmsd(smina/fragmenstein)>  (236) 
0.51

>  <smiles>  (236) 
C=C=CC(=O)Nc1ccc(F)c(N2CCNC2=O)c1C

>  <gnina_score>  (236) 
5.16

>  <inspiration_score>  (236) 
None

>  <energy_score>  (236) 
-29.567399

>  <distance_score>  (236) 
0.968125

>  <gnina_score_min>  (236) 
5.212

>  <inchikey>  (236) 
IQLCCLULHZLFJP-UHFFFAOYSA-N

>  <exports>  (236) 
['/opt/xchem-fragalysis-2/maxwin/BulkDock/OUTPUTS/openbind_a71ev2a_c2_elabs_1LOUU54.sdf', '/opt/xchem-fragalysis-2/maxwin/BulkDock/OUTPUTS/openbind_a71ev2a_c2_elabs_1LSYIDY.sdf']

>  <name>  (236) 
P544854

>  <ref_pdb>  (236) 
A0884a

>  <subsites>  (236) 
None

>  <HIPPO Pose ID>  (236) 
544854

>  <ref_mols>  (236) 
A0884a

>  <HIPPO Compound ID>  (236) 
383084

>  <tags>  (236) 
openbind_a71ev2a_c2_elabs,syndirella_product,openbind_a71ev2a_c2_elabs_fragonly_scored_top80percent,openbind_a71ev2a_c2_elabs_scored,BulkDock Fragalysis export,openbind_a71ev2a_c2_elabs_scored_top80percent,openbind_a71ev2a_c2_elabs_activefrags_only_scored_5.2plus,syndirella_placed

>  <smina_score_min>  (236) 
-6.325

$$$$
P544860
     RDKit          3D

 20 21  0  0  0  0  0  0  0  0999 V2000
    7.2268   15.5395   26.1836 O   0  0  0  0  0  0  0  0  0  0  0  0
    6.4866   14.6470   26.3354 C   0  0  0  0  0  0  0  0  0  0  0  0
    5.1935   14.7786   27.1181 C   0  0  0  0  0  0  0  0  0  0  0  0
    5.4613   14.4404   28.5702 C   0  0  0  0  0  0  0  0  0  0  0  0
    3.9310   14.3130   29.4683 Cl  0  0  0  0  0  0  0  0  0  0  0  0
    6.5911   13.1588   25.8786 N   0  0  0  0  0  0  0  0  0  0  0  0
    7.5433   12.5219   25.0945 C   0  0  0  0  0  0  0  0  0  0  0  0
    7.5705   11.1269   25.0554 C   0  0  0  0  0  0  0  0  0  0  0  0
    8.5353   10.4807   24.2858 C   0  0  0  0  0  0  0  0  0  0  0  0
    9.4443   11.2277   23.5455 C   0  0  0  0  0  0  0  0  0  0  0  0
   10.2932   10.5712   22.7509 F   0  0  0  0  0  0  0  0  0  0  0  0
    9.4131   12.6241   23.5582 C   0  0  0  0  0  0  0  0  0  0  0  0
   10.3447   13.3732   22.7862 N   0  0  0  0  0  0  0  0  0  0  0  0
    9.8164   14.3674   21.8587 C   0  0  0  0  0  0  0  0  0  0  0  0
   10.8385   14.8752   20.8611 C   0  0  0  0  0  0  0  0  0  0  0  0
   12.1280   15.2061   21.5645 C   0  0  0  0  0  0  0  0  0  0  0  0
   12.4967   14.2504   22.5670 N   0  0  0  0  0  0  0  0  0  0  0  0
   11.6188   13.5205   23.3064 C   0  0  0  0  0  0  0  0  0  0  0  0
   11.9965   13.0556   24.3803 O   0  0  0  0  0  0  0  0  0  0  0  0
    8.4582   13.2678   24.3469 C   0  0  0  0  0  0  0  0  0  0  0  0
  1  2  2  0
  2  3  1  0
  3  4  1  0
  4  5  1  0
  2  6  1  0
  6  7  1  0
  7  8  2  0
  8  9  1  0
  9 10  2  0
 10 11  1  0
 10 12  1  0
 12 13  1  0
 13 14  1  0
 14 15  1  0
 15 16  1  0
 16 17  1  0
 17 18  1  0
 18 19  2  0
 12 20  2  0
 20  7  1  0
 18 13  1  0
M  END
>  <alias>  (237) 
None

>  <rmsd(smina/fragmenstein)>  (237) 
0.635

>  <smiles>  (237) 
O=C(CCCl)Nc1ccc(F)c(N2CCCNC2=O)c1

>  <gnina_score>  (237) 
5.19

>  <inspiration_score>  (237) 
None

>  <energy_score>  (237) 
-17.289158

>  <distance_score>  (237) 
1.627276

>  <gnina_score_min>  (237) 
5.241

>  <inchikey>  (237) 
JOQHWEKMLRXGFY-UHFFFAOYSA-N

>  <exports>  (237) 
['/opt/xchem-fragalysis-2/maxwin/BulkDock/OUTPUTS/openbind_a71ev2a_c2_elabs_1LOUU54.sdf', '/opt/xchem-fragalysis-2/maxwin/BulkDock/OUTPUTS/openbind_a71ev2a_c2_elabs_1LSYIDY.sdf']

>  <name>  (237) 
P544860

>  <ref_pdb>  (237) 
A0884a

>  <subsites>  (237) 
None

>  <HIPPO Pose ID>  (237) 
544860

>  <ref_mols>  (237) 
A0884a

>  <HIPPO Compound ID>  (237) 
383096

>  <tags>  (237) 
openbind_a71ev2a_c2_elabs,syndirella_product,openbind_a71ev2a_c2_elabs_fragonly_scored_top80percent,openbind_a71ev2a_c2_elabs_scored,BulkDock Fragalysis export,openbind_a71ev2a_c2_elabs_scored_top80percent,openbind_a71ev2a_c2_elabs_activefrags_only_scored_5.2plus,syndirella_placed

>  <smina_score_min>  (237) 
-6.137

$$$$
P544864
     RDKit          3D

 20 21  0  0  0  0  0  0  0  0999 V2000
    4.2962   16.7499   27.1979 C   0  0  0  0  0  0  0  0  0  0  0  0
    5.1049   15.4534   27.2613 C   0  0  0  0  0  0  0  0  0  0  0  0
    5.3629   15.0698   28.7200 C   0  0  0  0  0  0  0  0  0  0  0  0
    4.3646   14.3358   26.5113 C   0  0  0  0  0  0  0  0  0  0  0  0
    5.2117   13.0791   26.3330 C   0  0  0  0  0  0  0  0  0  0  0  0
    5.0326   12.0974   26.9441 O   0  0  0  0  0  0  0  0  0  0  0  0
    6.2642   13.4042   25.2288 N   0  0  0  0  0  0  0  0  0  0  0  0
    7.3310   12.6439   24.7398 C   0  0  0  0  0  0  0  0  0  0  0  0
    8.2709   13.3158   23.9475 C   0  0  0  0  0  0  0  0  0  0  0  0
    9.3992   12.6482   23.4668 C   0  0  0  0  0  0  0  0  0  0  0  0
   10.4133   13.3260   22.7755 N   0  0  0  0  0  0  0  0  0  0  0  0
   10.1856   14.3493   21.7842 C   0  0  0  0  0  0  0  0  0  0  0  0
   11.5896   14.8043   21.4156 C   0  0  0  0  0  0  0  0  0  0  0  0
   12.3785   14.4071   22.5416 N   0  0  0  0  0  0  0  0  0  0  0  0
   11.6787   13.5340   23.3570 C   0  0  0  0  0  0  0  0  0  0  0  0
   12.0957   13.1010   24.4175 O   0  0  0  0  0  0  0  0  0  0  0  0
    9.5382   11.2779   23.6886 C   0  0  0  0  0  0  0  0  0  0  0  0
    8.5775   10.5896   24.4205 C   0  0  0  0  0  0  0  0  0  0  0  0
    7.5039   11.2778   24.9770 C   0  0  0  0  0  0  0  0  0  0  0  0
    6.6296   10.5696   25.6993 F   0  0  0  0  0  0  0  0  0  0  0  0
  1  2  1  0
  2  3  1  0
  2  4  1  0
  4  5  1  0
  5  6  2  0
  5  7  1  0
  7  8  1  0
  8  9  2  0
  9 10  1  0
 10 11  1  0
 11 12  1  0
 12 13  1  0
 13 14  1  0
 14 15  1  0
 15 16  2  0
 10 17  2  0
 17 18  1  0
 18 19  2  0
 19 20  1  0
 19  8  1  0
 15 11  1  0
M  END
>  <alias>  (238) 
None

>  <rmsd(smina/fragmenstein)>  (238) 
1.06

>  <smiles>  (238) 
CC(C)CC(=O)Nc1cc(N2CCNC2=O)ccc1F

>  <gnina_score>  (238) 
5.012

>  <inspiration_score>  (238) 
None

>  <energy_score>  (238) 
-19.642492

>  <distance_score>  (238) 
1.312963

>  <gnina_score_min>  (238) 
5.23

>  <inchikey>  (238) 
YBIARAYNOXMHJB-UHFFFAOYSA-N

>  <exports>  (238) 
['/opt/xchem-fragalysis-2/maxwin/BulkDock/OUTPUTS/openbind_a71ev2a_c2_elabs_1LOUU54.sdf', '/opt/xchem-fragalysis-2/maxwin/BulkDock/OUTPUTS/openbind_a71ev2a_c2_elabs_1LSYIDY.sdf']

>  <name>  (238) 
P544864

>  <ref_pdb>  (238) 
A0884a

>  <subsites>  (238) 
None

>  <HIPPO Pose ID>  (238) 
544864

>  <ref_mols>  (238) 
A0884a

>  <HIPPO Compound ID>  (238) 
383102

>  <tags>  (238) 
openbind_a71ev2a_c2_elabs,syndirella_product,openbind_a71ev2a_c2_elabs_fragonly_scored_top80percent,openbind_a71ev2a_c2_elabs_scored,BulkDock Fragalysis export,openbind_a71ev2a_c2_elabs_scored_top80percent,openbind_a71ev2a_c2_elabs_activefrags_only_scored_5.2plus,syndirella_placed

>  <smina_score_min>  (238) 
-6.505

$$$$
P544875
     RDKit          3D

 20 21  0  0  0  0  0  0  0  0999 V2000
    3.2311   14.8933   28.9853 C   0  0  0  0  0  0  0  0  0  0  0  0
    4.0254   13.8776   28.2946 C   0  0  0  0  0  0  0  0  0  0  0  0
    4.6768   13.0442   27.7239 C   0  0  0  0  0  0  0  0  0  0  0  0
    5.4698   12.0521   27.0211 C   0  0  0  0  0  0  0  0  0  0  0  0
    5.2606   10.9237   27.2201 O   0  0  0  0  0  0  0  0  0  0  0  0
    6.4669   12.7282   26.0644 N   0  0  0  0  0  0  0  0  0  0  0  0
    7.4557   12.1758   25.2425 C   0  0  0  0  0  0  0  0  0  0  0  0
    7.5767   10.7935   25.1224 C   0  0  0  0  0  0  0  0  0  0  0  0
    8.5599   10.2404   24.3061 C   0  0  0  0  0  0  0  0  0  0  0  0
    9.4719   11.0529   23.6518 C   0  0  0  0  0  0  0  0  0  0  0  0
    9.4070   12.4375   23.8083 C   0  0  0  0  0  0  0  0  0  0  0  0
   10.4959   13.1646   23.2921 N   0  0  0  0  0  0  0  0  0  0  0  0
   11.3915   13.8483   24.0671 C   0  0  0  0  0  0  0  0  0  0  0  0
   11.4526   13.9075   25.2887 O   0  0  0  0  0  0  0  0  0  0  0  0
   12.3064   14.6290   23.1474 C   0  0  0  0  0  0  0  0  0  0  0  0
   11.6790   14.4383   21.8955 N   0  0  0  0  0  0  0  0  0  0  0  0
   10.4922   13.7782   22.0778 C   0  0  0  0  0  0  0  0  0  0  0  0
    9.5713   13.9059   21.2939 O   0  0  0  0  0  0  0  0  0  0  0  0
    8.3460   13.0171   24.5408 C   0  0  0  0  0  0  0  0  0  0  0  0
    8.1787   14.5071   24.5832 C   0  0  0  0  0  0  0  0  0  0  0  0
  1  2  1  0
  2  3  3  0
  3  4  1  0
  4  5  2  0
  4  6  1  0
  6  7  1  0
  7  8  2  0
  8  9  1  0
  9 10  2  0
 10 11  1  0
 11 12  1  0
 12 13  1  0
 13 14  2  0
 13 15  1  0
 15 16  1  0
 16 17  1  0
 17 18  2  0
 11 19  2  0
 19 20  1  0
 19  7  1  0
 17 12  1  0
M  END
>  <alias>  (239) 
None

>  <rmsd(smina/fragmenstein)>  (239) 
0.583

>  <smiles>  (239) 
CC#CC(=O)Nc1cccc(N2C(=O)CNC2=O)c1C

>  <gnina_score>  (239) 
5.131

>  <inspiration_score>  (239) 
None

>  <energy_score>  (239) 
-31.5012

>  <distance_score>  (239) 
1.515724

>  <gnina_score_min>  (239) 
5.22

>  <inchikey>  (239) 
QALDGAWUEOLZIX-UHFFFAOYSA-N

>  <exports>  (239) 
['/opt/xchem-fragalysis-2/maxwin/BulkDock/OUTPUTS/openbind_a71ev2a_c2_elabs_1LOUU54.sdf', '/opt/xchem-fragalysis-2/maxwin/BulkDock/OUTPUTS/openbind_a71ev2a_c2_elabs_1LSYIDY.sdf']

>  <name>  (239) 
P544875

>  <ref_pdb>  (239) 
A0884a

>  <subsites>  (239) 
None

>  <HIPPO Pose ID>  (239) 
544875

>  <ref_mols>  (239) 
A0884a

>  <HIPPO Compound ID>  (239) 
383123

>  <tags>  (239) 
openbind_a71ev2a_c2_elabs,syndirella_product,openbind_a71ev2a_c2_elabs_fragonly_scored_top80percent,openbind_a71ev2a_c2_elabs_scored,BulkDock Fragalysis export,openbind_a71ev2a_c2_elabs_scored_top80percent,openbind_a71ev2a_c2_elabs_activefrags_only_scored_5.2plus,syndirella_placed

>  <smina_score_min>  (239) 
-6.47

$$$$
P544882
     RDKit          3D

 20 21  0  0  0  0  0  0  0  0999 V2000
    7.6728   14.7395   24.6078 C   0  0  0  0  0  0  0  0  0  0  0  0
    8.0168   13.2757   24.5294 C   0  0  0  0  0  0  0  0  0  0  0  0
    7.3059   12.3180   25.2942 C   0  0  0  0  0  0  0  0  0  0  0  0
    6.3812   12.7522   26.2539 N   0  0  0  0  0  0  0  0  0  0  0  0
    5.5196   11.9395   27.2717 C   0  0  0  0  0  0  0  0  0  0  0  0
    5.5107   10.7951   27.5124 O   0  0  0  0  0  0  0  0  0  0  0  0
    4.6996   12.9899   28.0223 C   0  0  0  0  0  0  0  0  0  0  0  0
    3.9550   12.4261   29.2292 C   0  0  0  0  0  0  0  0  0  0  0  0
    2.0102   11.6942   28.7153 I   0  0  0  0  0  0  0  0  0  0  0  0
    7.5912   10.9569   25.1528 C   0  0  0  0  0  0  0  0  0  0  0  0
    8.6078   10.5367   24.2979 C   0  0  0  0  0  0  0  0  0  0  0  0
    9.3798   11.4802   23.6368 C   0  0  0  0  0  0  0  0  0  0  0  0
   10.3632   11.0503   22.8415 F   0  0  0  0  0  0  0  0  0  0  0  0
    9.1220   12.8496   23.7597 C   0  0  0  0  0  0  0  0  0  0  0  0
   10.0307   13.8006   23.2241 N   0  0  0  0  0  0  0  0  0  0  0  0
    9.9019   14.2931   21.8681 C   0  0  0  0  0  0  0  0  0  0  0  0
   11.2774   14.8490   21.5266 C   0  0  0  0  0  0  0  0  0  0  0  0
   12.1317   14.3153   22.5439 N   0  0  0  0  0  0  0  0  0  0  0  0
   11.3945   13.7496   23.5674 C   0  0  0  0  0  0  0  0  0  0  0  0
   11.8689   13.3336   24.6124 O   0  0  0  0  0  0  0  0  0  0  0  0
  1  2  1  0
  2  3  2  0
  3  4  1  0
  4  5  1  0
  5  6  2  0
  5  7  1  0
  7  8  1  0
  8  9  1  0
  3 10  1  0
 10 11  2  0
 11 12  1  0
 12 13  1  0
 12 14  2  0
 14 15  1  0
 15 16  1  0
 16 17  1  0
 17 18  1  0
 18 19  1  0
 19 20  2  0
 14  2  1  0
 19 15  1  0
M  END
>  <alias>  (240) 
None

>  <rmsd(smina/fragmenstein)>  (240) 
0.256

>  <smiles>  (240) 
Cc1c(NC(=O)CCI)ccc(F)c1N1CCNC1=O

>  <gnina_score>  (240) 
5.226

>  <inspiration_score>  (240) 
None

>  <energy_score>  (240) 
-22.155798

>  <distance_score>  (240) 
1.212161

>  <gnina_score_min>  (240) 
5.241

>  <inchikey>  (240) 
LMSACDABMYINLJ-UHFFFAOYSA-N

>  <exports>  (240) 
['/opt/xchem-fragalysis-2/maxwin/BulkDock/OUTPUTS/openbind_a71ev2a_c2_elabs_1LOUU54.sdf', '/opt/xchem-fragalysis-2/maxwin/BulkDock/OUTPUTS/openbind_a71ev2a_c2_elabs_1LSYIDY.sdf']

>  <name>  (240) 
P544882

>  <ref_pdb>  (240) 
A0884a

>  <subsites>  (240) 
None

>  <HIPPO Pose ID>  (240) 
544882

>  <ref_mols>  (240) 
A0884a

>  <HIPPO Compound ID>  (240) 
383133

>  <tags>  (240) 
openbind_a71ev2a_c2_elabs,syndirella_product,openbind_a71ev2a_c2_elabs_fragonly_scored_top80percent,openbind_a71ev2a_c2_elabs_scored,BulkDock Fragalysis export,openbind_a71ev2a_c2_elabs_scored_top80percent,openbind_a71ev2a_c2_elabs_activefrags_only_scored_5.2plus,syndirella_placed

>  <smina_score_min>  (240) 
-5.785

$$$$
P544885
     RDKit          3D

 20 21  0  0  0  0  0  0  0  0999 V2000
    7.8540   14.5200   24.4807 C   0  0  0  0  0  0  0  0  0  0  0  0
    8.1618   13.0578   24.3282 C   0  0  0  0  0  0  0  0  0  0  0  0
    7.4216   12.0891   25.0449 C   0  0  0  0  0  0  0  0  0  0  0  0
    6.3456   12.4718   25.8500 N   0  0  0  0  0  0  0  0  0  0  0  0
    5.5938   11.6931   26.9697 C   0  0  0  0  0  0  0  0  0  0  0  0
    5.8104   10.6443   27.4396 O   0  0  0  0  0  0  0  0  0  0  0  0
    4.4883   12.6050   27.4760 C   0  0  0  0  0  0  0  0  0  0  0  0
    5.0484   13.5600   28.5202 C   0  0  0  0  0  0  0  0  0  0  0  0
    3.5057   14.8198   29.2863 I   0  0  0  0  0  0  0  0  0  0  0  0
    7.7663   10.7397   24.9656 C   0  0  0  0  0  0  0  0  0  0  0  0
    8.8230   10.3287   24.1620 C   0  0  0  0  0  0  0  0  0  0  0  0
    9.5696   11.2697   23.4691 C   0  0  0  0  0  0  0  0  0  0  0  0
    9.2606   12.6330   23.5441 C   0  0  0  0  0  0  0  0  0  0  0  0
   10.1417   13.5204   22.8524 N   0  0  0  0  0  0  0  0  0  0  0  0
    9.6081   14.4176   21.8324 C   0  0  0  0  0  0  0  0  0  0  0  0
   10.6322   14.8814   20.8138 C   0  0  0  0  0  0  0  0  0  0  0  0
   11.9406   15.2219   21.4785 C   0  0  0  0  0  0  0  0  0  0  0  0
   12.3165   14.3096   22.5170 N   0  0  0  0  0  0  0  0  0  0  0  0
   11.4437   13.6359   23.3107 C   0  0  0  0  0  0  0  0  0  0  0  0
   11.8554   13.1777   24.3762 O   0  0  0  0  0  0  0  0  0  0  0  0
  1  2  1  0
  2  3  2  0
  3  4  1  0
  4  5  1  0
  5  6  2  0
  5  7  1  0
  7  8  1  0
  8  9  1  0
  3 10  1  0
 10 11  2  0
 11 12  1  0
 12 13  2  0
 13 14  1  0
 14 15  1  0
 15 16  1  0
 16 17  1  0
 17 18  1  0
 18 19  1  0
 19 20  2  0
 13  2  1  0
 19 14  1  0
M  END
>  <alias>  (241) 
None

>  <rmsd(smina/fragmenstein)>  (241) 
0.968

>  <smiles>  (241) 
Cc1c(NC(=O)CCI)cccc1N1CCCNC1=O

>  <gnina_score>  (241) 
5.153

>  <inspiration_score>  (241) 
None

>  <energy_score>  (241) 
-32.294072

>  <distance_score>  (241) 
1.113222

>  <gnina_score_min>  (241) 
5.261

>  <inchikey>  (241) 
VINGHQFUHPZEBQ-UHFFFAOYSA-N

>  <exports>  (241) 
['/opt/xchem-fragalysis-2/maxwin/BulkDock/OUTPUTS/openbind_a71ev2a_c2_elabs_1LOUU54.sdf', '/opt/xchem-fragalysis-2/maxwin/BulkDock/OUTPUTS/openbind_a71ev2a_c2_elabs_1LSYIDY.sdf']

>  <name>  (241) 
P544885

>  <ref_pdb>  (241) 
A0884a

>  <subsites>  (241) 
None

>  <HIPPO Pose ID>  (241) 
544885

>  <ref_mols>  (241) 
A0884a

>  <HIPPO Compound ID>  (241) 
383138

>  <tags>  (241) 
openbind_a71ev2a_c2_elabs,syndirella_product,openbind_a71ev2a_c2_elabs_fragonly_scored_top80percent,openbind_a71ev2a_c2_elabs_scored,BulkDock Fragalysis export,openbind_a71ev2a_c2_elabs_scored_top80percent,openbind_a71ev2a_c2_elabs_activefrags_only_scored_5.2plus,syndirella_placed

>  <smina_score_min>  (241) 
-6.364

$$$$
P544886
     RDKit          3D

 20 21  0  0  0  0  0  0  0  0999 V2000
    5.0855   11.9064   26.7302 O   0  0  0  0  0  0  0  0  0  0  0  0
    5.4593   12.9621   26.3930 C   0  0  0  0  0  0  0  0  0  0  0  0
    4.7662   14.2738   26.7551 C   0  0  0  0  0  0  0  0  0  0  0  0
    3.6685   14.0915   27.7975 C   0  0  0  0  0  0  0  0  0  0  0  0
    4.4884   13.8825   29.7753 I   0  0  0  0  0  0  0  0  0  0  0  0
    6.6558   13.3651   25.4777 N   0  0  0  0  0  0  0  0  0  0  0  0
    7.6498   12.5846   24.8943 C   0  0  0  0  0  0  0  0  0  0  0  0
    7.6316   11.1940   24.9533 C   0  0  0  0  0  0  0  0  0  0  0  0
    8.6329   10.4635   24.3114 C   0  0  0  0  0  0  0  0  0  0  0  0
    9.6795   11.1164   23.6580 C   0  0  0  0  0  0  0  0  0  0  0  0
    9.7321   12.5111   23.6341 C   0  0  0  0  0  0  0  0  0  0  0  0
   10.8195   13.1711   23.0365 N   0  0  0  0  0  0  0  0  0  0  0  0
   10.6983   14.1506   22.0920 C   0  0  0  0  0  0  0  0  0  0  0  0
    9.6892   14.4657   21.4827 O   0  0  0  0  0  0  0  0  0  0  0  0
   12.0379   14.8026   21.8678 C   0  0  0  0  0  0  0  0  0  0  0  0
   12.7899   14.1983   22.9094 N   0  0  0  0  0  0  0  0  0  0  0  0
   12.0505   13.2866   23.6186 C   0  0  0  0  0  0  0  0  0  0  0  0
   12.4625   12.7736   24.6444 O   0  0  0  0  0  0  0  0  0  0  0  0
    8.6956   13.2324   24.2301 C   0  0  0  0  0  0  0  0  0  0  0  0
    8.7390   14.5749   24.2553 F   0  0  0  0  0  0  0  0  0  0  0  0
  1  2  2  0
  2  3  1  0
  3  4  1  0
  4  5  1  0
  2  6  1  0
  6  7  1  0
  7  8  2  0
  8  9  1  0
  9 10  2  0
 10 11  1  0
 11 12  1  0
 12 13  1  0
 13 14  2  0
 13 15  1  0
 15 16  1  0
 16 17  1  0
 17 18  2  0
 11 19  2  0
 19 20  1  0
 19  7  1  0
 17 12  1  0
M  END
>  <alias>  (242) 
None

>  <rmsd(smina/fragmenstein)>  (242) 
1.054

>  <smiles>  (242) 
O=C(CCI)Nc1cccc(N2C(=O)CNC2=O)c1F

>  <gnina_score>  (242) 
5.152

>  <inspiration_score>  (242) 
None

>  <energy_score>  (242) 
-36.24093

>  <distance_score>  (242) 
1.596797

>  <gnina_score_min>  (242) 
5.25

>  <inchikey>  (242) 
NTSMEUJMNMAJHD-UHFFFAOYSA-N

>  <exports>  (242) 
['/opt/xchem-fragalysis-2/maxwin/BulkDock/OUTPUTS/openbind_a71ev2a_c2_elabs_1LOUU54.sdf', '/opt/xchem-fragalysis-2/maxwin/BulkDock/OUTPUTS/openbind_a71ev2a_c2_elabs_1LSYIDY.sdf']

>  <name>  (242) 
P544886

>  <ref_pdb>  (242) 
A0884a

>  <subsites>  (242) 
None

>  <HIPPO Pose ID>  (242) 
544886

>  <ref_mols>  (242) 
A0884a

>  <HIPPO Compound ID>  (242) 
383139

>  <tags>  (242) 
openbind_a71ev2a_c2_elabs,syndirella_product,openbind_a71ev2a_c2_elabs_fragonly_scored_top80percent,openbind_a71ev2a_c2_elabs_scored,BulkDock Fragalysis export,openbind_a71ev2a_c2_elabs_scored_top80percent,openbind_a71ev2a_c2_elabs_activefrags_only_scored_5.2plus,syndirella_placed

>  <smina_score_min>  (242) 
-6.334

$$$$
P544887
     RDKit          3D

 20 21  0  0  0  0  0  0  0  0999 V2000
    2.8063   15.8205   27.9818 C   0  0  0  0  0  0  0  0  0  0  0  0
    3.6533   14.7189   27.5252 C   0  0  0  0  0  0  0  0  0  0  0  0
    4.3501   13.8169   27.1436 C   0  0  0  0  0  0  0  0  0  0  0  0
    5.2005   12.7429   26.6642 C   0  0  0  0  0  0  0  0  0  0  0  0
    5.0011   11.6586   27.0416 O   0  0  0  0  0  0  0  0  0  0  0  0
    6.2390   13.2752   25.6612 N   0  0  0  0  0  0  0  0  0  0  0  0
    7.2782   12.6233   25.0041 C   0  0  0  0  0  0  0  0  0  0  0  0
    7.4694   11.2434   25.1056 C   0  0  0  0  0  0  0  0  0  0  0  0
    8.5269   10.6389   24.4270 C   0  0  0  0  0  0  0  0  0  0  0  0
    9.4157   11.4215   23.7000 C   0  0  0  0  0  0  0  0  0  0  0  0
   10.4077   10.8112   23.0470 F   0  0  0  0  0  0  0  0  0  0  0  0
    9.2467   12.8048   23.5990 C   0  0  0  0  0  0  0  0  0  0  0  0
   10.1914   13.6080   22.9037 N   0  0  0  0  0  0  0  0  0  0  0  0
    9.7203   14.3831   21.7568 C   0  0  0  0  0  0  0  0  0  0  0  0
   10.7710   15.2210   21.0504 C   0  0  0  0  0  0  0  0  0  0  0  0
   12.1504   14.6552   21.2609 C   0  0  0  0  0  0  0  0  0  0  0  0
   12.3707   14.3890   22.6500 N   0  0  0  0  0  0  0  0  0  0  0  0
   11.4691   13.7236   23.4225 C   0  0  0  0  0  0  0  0  0  0  0  0
   11.8097   13.3152   24.5312 O   0  0  0  0  0  0  0  0  0  0  0  0
    8.1503   13.3971   24.2292 C   0  0  0  0  0  0  0  0  0  0  0  0
  1  2  1  0
  2  3  3  0
  3  4  1  0
  4  5  2  0
  4  6  1  0
  6  7  1  0
  7  8  2  0
  8  9  1  0
  9 10  2  0
 10 11  1  0
 10 12  1  0
 12 13  1  0
 13 14  1  0
 14 15  1  0
 15 16  1  0
 16 17  1  0
 17 18  1  0
 18 19  2  0
 12 20  2  0
 20  7  1  0
 18 13  1  0
M  END
>  <alias>  (243) 
None

>  <rmsd(smina/fragmenstein)>  (243) 
0.389

>  <smiles>  (243) 
CC#CC(=O)Nc1ccc(F)c(N2CCCNC2=O)c1

>  <gnina_score>  (243) 
5.178

>  <inspiration_score>  (243) 
None

>  <energy_score>  (243) 
-9.301518

>  <distance_score>  (243) 
1.231879

>  <gnina_score_min>  (243) 
5.23

>  <inchikey>  (243) 
CISYZOBOUJUOJX-UHFFFAOYSA-N

>  <exports>  (243) 
['/opt/xchem-fragalysis-2/maxwin/BulkDock/OUTPUTS/openbind_a71ev2a_c2_elabs_1LOUU54.sdf', '/opt/xchem-fragalysis-2/maxwin/BulkDock/OUTPUTS/openbind_a71ev2a_c2_elabs_1LSYIDY.sdf']

>  <name>  (243) 
P544887

>  <ref_pdb>  (243) 
A0884a

>  <subsites>  (243) 
None

>  <HIPPO Pose ID>  (243) 
544887

>  <ref_mols>  (243) 
A0884a

>  <HIPPO Compound ID>  (243) 
383141

>  <tags>  (243) 
openbind_a71ev2a_c2_elabs,syndirella_product,openbind_a71ev2a_c2_elabs_fragonly_scored_top80percent,openbind_a71ev2a_c2_elabs_scored,BulkDock Fragalysis export,openbind_a71ev2a_c2_elabs_scored_top80percent,openbind_a71ev2a_c2_elabs_activefrags_only_scored_5.2plus,syndirella_placed

>  <smina_score_min>  (243) 
-6.595

$$$$
P544890
     RDKit          3D

 20 21  0  0  0  0  0  0  0  0999 V2000
   11.8437   15.1751   25.1574 O   0  0  0  0  0  0  0  0  0  0  0  0
   11.7675   14.4810   24.1465 C   0  0  0  0  0  0  0  0  0  0  0  0
   11.9409   13.0124   24.2399 C   0  0  0  0  0  0  0  0  0  0  0  0
   11.2850   12.4026   23.0325 C   0  0  0  0  0  0  0  0  0  0  0  0
   10.0312   13.0428   22.8104 N   0  0  0  0  0  0  0  0  0  0  0  0
    8.8881   12.5404   23.5145 C   0  0  0  0  0  0  0  0  0  0  0  0
    8.8440   11.1954   23.9383 C   0  0  0  0  0  0  0  0  0  0  0  0
    7.8816   10.7480   24.8357 C   0  0  0  0  0  0  0  0  0  0  0  0
    6.9124   11.6239   25.2964 C   0  0  0  0  0  0  0  0  0  0  0  0
    6.8499   12.9168   24.7804 C   0  0  0  0  0  0  0  0  0  0  0  0
    5.7734   13.7473   25.0749 N   0  0  0  0  0  0  0  0  0  0  0  0
    4.6092   13.5711   26.0956 C   0  0  0  0  0  0  0  0  0  0  0  0
    4.4222   12.7369   26.8975 O   0  0  0  0  0  0  0  0  0  0  0  0
    3.5632   14.6641   25.8512 C   0  0  0  0  0  0  0  0  0  0  0  0
    4.0781   16.0634   25.5554 C   0  0  0  0  0  0  0  0  0  0  0  0
    4.3453   16.2823   23.7670 S   0  0  0  0  0  0  0  0  0  0  0  0
    7.8355   13.3751   23.8950 C   0  0  0  0  0  0  0  0  0  0  0  0
   10.2262   14.3711   22.4398 C   0  0  0  0  0  0  0  0  0  0  0  0
    9.4220   15.0677   21.8439 O   0  0  0  0  0  0  0  0  0  0  0  0
   11.4031   14.9180   22.9063 N   0  0  0  0  0  0  0  0  0  0  0  0
  1  2  2  0
  2  3  1  0
  3  4  1  0
  4  5  1  0
  5  6  1  0
  6  7  2  0
  7  8  1  0
  8  9  2  0
  9 10  1  0
 10 11  1  0
 11 12  1  0
 12 13  2  0
 12 14  1  0
 14 15  1  0
 15 16  1  0
 10 17  2  0
  5 18  1  0
 18 19  2  0
 18 20  1  0
 20  2  1  0
 17  6  1  0
M  END
>  <alias>  (244) 
None

>  <rmsd(smina/fragmenstein)>  (244) 
0.991

>  <smiles>  (244) 
O=C1CCN(c2cccc(NC(=O)CCS)c2)C(=O)N1

>  <gnina_score>  (244) 
4.896

>  <inspiration_score>  (244) 
None

>  <energy_score>  (244) 
-15.085241

>  <distance_score>  (244) 
1.985876

>  <gnina_score_min>  (244) 
5.283

>  <inchikey>  (244) 
WWKVHNSJPRDAQR-UHFFFAOYSA-N

>  <exports>  (244) 
['/opt/xchem-fragalysis-2/maxwin/BulkDock/OUTPUTS/openbind_a71ev2a_c2_elabs_1LOUU54.sdf', '/opt/xchem-fragalysis-2/maxwin/BulkDock/OUTPUTS/openbind_a71ev2a_c2_elabs_1LSYIDY.sdf']

>  <name>  (244) 
P544890

>  <ref_pdb>  (244) 
A0884a

>  <subsites>  (244) 
None

>  <HIPPO Pose ID>  (244) 
544890

>  <ref_mols>  (244) 
A0884a

>  <HIPPO Compound ID>  (244) 
383146

>  <tags>  (244) 
openbind_a71ev2a_c2_elabs,syndirella_product,openbind_a71ev2a_c2_elabs_fragonly_scored_top80percent,openbind_a71ev2a_c2_elabs_scored,BulkDock Fragalysis export,openbind_a71ev2a_c2_elabs_scored_top80percent,openbind_a71ev2a_c2_elabs_activefrags_only_scored_5.2plus,syndirella_placed

>  <smina_score_min>  (244) 
-4.918

$$$$
P544906
     RDKit          3D

 20 21  0  0  0  0  0  0  0  0999 V2000
    7.8719   14.6305   24.4782 C   0  0  0  0  0  0  0  0  0  0  0  0
    8.1516   13.1527   24.4929 C   0  0  0  0  0  0  0  0  0  0  0  0
    7.3097   12.2810   25.2275 C   0  0  0  0  0  0  0  0  0  0  0  0
    6.3059   12.8006   26.0549 N   0  0  0  0  0  0  0  0  0  0  0  0
    5.4223   12.1028   27.1373 C   0  0  0  0  0  0  0  0  0  0  0  0
    5.3481   10.9749   27.4442 O   0  0  0  0  0  0  0  0  0  0  0  0
    4.6740   13.1989   27.8785 C   0  0  0  0  0  0  0  0  0  0  0  0
    3.4139   14.0438   26.6770 Br  0  0  0  0  0  0  0  0  0  0  0  0
    7.5069   10.9006   25.1646 C   0  0  0  0  0  0  0  0  0  0  0  0
    8.5507   10.3766   24.4111 C   0  0  0  0  0  0  0  0  0  0  0  0
    9.4475   11.2313   23.7946 C   0  0  0  0  0  0  0  0  0  0  0  0
   10.4570   10.6944   23.1065 F   0  0  0  0  0  0  0  0  0  0  0  0
    9.2963   12.6175   23.8519 C   0  0  0  0  0  0  0  0  0  0  0  0
   10.3109   13.4357   23.3065 N   0  0  0  0  0  0  0  0  0  0  0  0
   11.6448   13.3594   23.6148 C   0  0  0  0  0  0  0  0  0  0  0  0
   12.1644   12.8139   24.5782 O   0  0  0  0  0  0  0  0  0  0  0  0
   12.4261   14.0928   22.5470 C   0  0  0  0  0  0  0  0  0  0  0  0
   11.3770   14.7624   21.8670 N   0  0  0  0  0  0  0  0  0  0  0  0
   10.1847   14.1583   22.1626 C   0  0  0  0  0  0  0  0  0  0  0  0
    9.2192   14.2569   21.4317 O   0  0  0  0  0  0  0  0  0  0  0  0
  1  2  1  0
  2  3  2  0
  3  4  1  0
  4  5  1  0
  5  6  2  0
  5  7  1  0
  7  8  1  0
  3  9  1  0
  9 10  2  0
 10 11  1  0
 11 12  1  0
 11 13  2  0
 13 14  1  0
 14 15  1  0
 15 16  2  0
 15 17  1  0
 17 18  1  0
 18 19  1  0
 19 20  2  0
 13  2  1  0
 19 14  1  0
M  END
>  <alias>  (245) 
None

>  <rmsd(smina/fragmenstein)>  (245) 
0.653

>  <smiles>  (245) 
Cc1c(NC(=O)CBr)ccc(F)c1N1C(=O)CNC1=O

>  <gnina_score>  (245) 
5.331

>  <inspiration_score>  (245) 
None

>  <energy_score>  (245) 
-37.839685

>  <distance_score>  (245) 
1.652095

>  <gnina_score_min>  (245) 
5.247

>  <inchikey>  (245) 
ALLRCGFRAFXMIP-UHFFFAOYSA-N

>  <exports>  (245) 
['/opt/xchem-fragalysis-2/maxwin/BulkDock/OUTPUTS/openbind_a71ev2a_c2_elabs_1LOUU54.sdf', '/opt/xchem-fragalysis-2/maxwin/BulkDock/OUTPUTS/openbind_a71ev2a_c2_elabs_1LSYIDY.sdf']

>  <name>  (245) 
P544906

>  <ref_pdb>  (245) 
A0884a

>  <subsites>  (245) 
None

>  <HIPPO Pose ID>  (245) 
544906

>  <ref_mols>  (245) 
A0884a

>  <HIPPO Compound ID>  (245) 
383175

>  <tags>  (245) 
openbind_a71ev2a_c2_elabs,syndirella_product,openbind_a71ev2a_c2_elabs_fragonly_scored_top80percent,openbind_a71ev2a_c2_elabs_scored,BulkDock Fragalysis export,openbind_a71ev2a_c2_elabs_scored_top80percent,openbind_a71ev2a_c2_elabs_activefrags_only_scored_5.2plus,syndirella_placed

>  <smina_score_min>  (245) 
-6.642

$$$$
P544918
     RDKit          3D

 20 21  0  0  0  0  0  0  0  0999 V2000
    3.6603   13.6634   27.3708 C   0  0  0  0  0  0  0  0  0  0  0  0
    4.3171   12.6388   27.9239 C   0  0  0  0  0  0  0  0  0  0  0  0
    4.1214   12.3541   29.2292 F   0  0  0  0  0  0  0  0  0  0  0  0
    5.1939   11.6584   27.2006 C   0  0  0  0  0  0  0  0  0  0  0  0
    5.1149   10.5133   27.4130 O   0  0  0  0  0  0  0  0  0  0  0  0
    6.0913   12.4347   26.2062 N   0  0  0  0  0  0  0  0  0  0  0  0
    7.1058   11.9880   25.3673 C   0  0  0  0  0  0  0  0  0  0  0  0
    7.3980   10.6503   25.1528 C   0  0  0  0  0  0  0  0  0  0  0  0
    8.4587   10.2969   24.3073 C   0  0  0  0  0  0  0  0  0  0  0  0
    9.3016   11.2682   23.7699 C   0  0  0  0  0  0  0  0  0  0  0  0
    9.0888   12.6035   24.1101 C   0  0  0  0  0  0  0  0  0  0  0  0
   10.1560   13.5188   24.0932 N   0  0  0  0  0  0  0  0  0  0  0  0
   10.4387   14.2829   25.2037 C   0  0  0  0  0  0  0  0  0  0  0  0
    9.7368   14.6346   26.1452 O   0  0  0  0  0  0  0  0  0  0  0  0
   11.8871   14.6388   25.1702 C   0  0  0  0  0  0  0  0  0  0  0  0
   12.2405   14.2468   23.8559 N   0  0  0  0  0  0  0  0  0  0  0  0
   11.2524   13.4990   23.2839 C   0  0  0  0  0  0  0  0  0  0  0  0
   11.4354   12.9377   22.2265 O   0  0  0  0  0  0  0  0  0  0  0  0
    7.9133   12.9522   24.7808 C   0  0  0  0  0  0  0  0  0  0  0  0
    7.5940   14.2461   24.9595 F   0  0  0  0  0  0  0  0  0  0  0  0
  1  2  2  0
  2  3  1  0
  2  4  1  0
  4  5  2  0
  4  6  1  0
  6  7  1  0
  7  8  2  0
  8  9  1  0
  9 10  2  0
 10 11  1  0
 11 12  1  0
 12 13  1  0
 13 14  2  0
 13 15  1  0
 15 16  1  0
 16 17  1  0
 17 18  2  0
 11 19  2  0
 19 20  1  0
 19  7  1  0
 17 12  1  0
M  END
>  <alias>  (246) 
None

>  <rmsd(smina/fragmenstein)>  (246) 
1.866

>  <smiles>  (246) 
C=C(F)C(=O)Nc1cccc(N2C(=O)CNC2=O)c1F

>  <gnina_score>  (246) 
4.803

>  <inspiration_score>  (246) 
None

>  <energy_score>  (246) 
-30.954513

>  <distance_score>  (246) 
1.354156

>  <gnina_score_min>  (246) 
5.205

>  <inchikey>  (246) 
NHRWIPHYOWPKQK-UHFFFAOYSA-N

>  <exports>  (246) 
['/opt/xchem-fragalysis-2/maxwin/BulkDock/OUTPUTS/openbind_a71ev2a_c2_elabs_1LOUU54.sdf', '/opt/xchem-fragalysis-2/maxwin/BulkDock/OUTPUTS/openbind_a71ev2a_c2_elabs_1LSYIDY.sdf']

>  <name>  (246) 
P544918

>  <ref_pdb>  (246) 
A0884a

>  <subsites>  (246) 
None

>  <HIPPO Pose ID>  (246) 
544918

>  <ref_mols>  (246) 
A0884a

>  <HIPPO Compound ID>  (246) 
383193

>  <tags>  (246) 
openbind_a71ev2a_c2_elabs,syndirella_product,openbind_a71ev2a_c2_elabs_fragonly_scored_top80percent,openbind_a71ev2a_c2_elabs_scored,BulkDock Fragalysis export,openbind_a71ev2a_c2_elabs_scored_top80percent,openbind_a71ev2a_c2_elabs_activefrags_only_scored_5.2plus,syndirella_placed

>  <smina_score_min>  (246) 
-7.185

$$$$
P544927
     RDKit          3D

 20 21  0  0  0  0  0  0  0  0999 V2000
    8.0640   14.5732   24.4702 C   0  0  0  0  0  0  0  0  0  0  0  0
    8.2352   13.0836   24.5099 C   0  0  0  0  0  0  0  0  0  0  0  0
    7.3213   12.2749   25.2240 C   0  0  0  0  0  0  0  0  0  0  0  0
    6.2864   12.8575   25.9628 N   0  0  0  0  0  0  0  0  0  0  0  0
    5.2921   12.2236   26.9934 C   0  0  0  0  0  0  0  0  0  0  0  0
    5.1441   11.1078   27.3164 O   0  0  0  0  0  0  0  0  0  0  0  0
    4.4781   13.4057   27.5361 C   0  0  0  0  0  0  0  0  0  0  0  0
    2.7060   12.7435   28.5128 I   0  0  0  0  0  0  0  0  0  0  0  0
    7.4408   10.8852   25.1833 C   0  0  0  0  0  0  0  0  0  0  0  0
    8.4435   10.2902   24.4264 C   0  0  0  0  0  0  0  0  0  0  0  0
    9.3706   11.0774   23.7704 C   0  0  0  0  0  0  0  0  0  0  0  0
   10.3518   10.4713   23.0969 F   0  0  0  0  0  0  0  0  0  0  0  0
    9.3183   12.4684   23.8430 C   0  0  0  0  0  0  0  0  0  0  0  0
   10.4222   13.1670   23.3156 N   0  0  0  0  0  0  0  0  0  0  0  0
   11.3429   13.8205   24.0850 C   0  0  0  0  0  0  0  0  0  0  0  0
   11.4105   13.8659   25.3072 O   0  0  0  0  0  0  0  0  0  0  0  0
   12.2717   14.5867   23.1662 C   0  0  0  0  0  0  0  0  0  0  0  0
   11.6346   14.4098   21.9172 N   0  0  0  0  0  0  0  0  0  0  0  0
   10.4370   13.7693   22.0969 C   0  0  0  0  0  0  0  0  0  0  0  0
    9.5194   13.9018   21.3102 O   0  0  0  0  0  0  0  0  0  0  0  0
  1  2  1  0
  2  3  2  0
  3  4  1  0
  4  5  1  0
  5  6  2  0
  5  7  1  0
  7  8  1  0
  3  9  1  0
  9 10  2  0
 10 11  1  0
 11 12  1  0
 11 13  2  0
 13 14  1  0
 14 15  1  0
 15 16  2  0
 15 17  1  0
 17 18  1  0
 18 19  1  0
 19 20  2  0
 13  2  1  0
 19 14  1  0
M  END
>  <alias>  (247) 
None

>  <rmsd(smina/fragmenstein)>  (247) 
0.533

>  <smiles>  (247) 
Cc1c(NC(=O)CI)ccc(F)c1N1C(=O)CNC1=O

>  <gnina_score>  (247) 
5.49

>  <inspiration_score>  (247) 
None

>  <energy_score>  (247) 
-21.486527

>  <distance_score>  (247) 
1.580739

>  <gnina_score_min>  (247) 
5.382

>  <inchikey>  (247) 
UUTWRBZSFJZVDW-UHFFFAOYSA-N

>  <exports>  (247) 
['/opt/xchem-fragalysis-2/maxwin/BulkDock/OUTPUTS/openbind_a71ev2a_c2_elabs_1LOUU54.sdf', '/opt/xchem-fragalysis-2/maxwin/BulkDock/OUTPUTS/openbind_a71ev2a_c2_elabs_1LSYIDY.sdf']

>  <name>  (247) 
P544927

>  <ref_pdb>  (247) 
A0884a

>  <subsites>  (247) 
None

>  <HIPPO Pose ID>  (247) 
544927

>  <ref_mols>  (247) 
A0884a

>  <HIPPO Compound ID>  (247) 
383204

>  <tags>  (247) 
openbind_a71ev2a_c2_elabs,syndirella_product,openbind_a71ev2a_c2_elabs_fragonly_scored_top80percent,openbind_a71ev2a_c2_elabs_scored,BulkDock Fragalysis export,openbind_a71ev2a_c2_elabs_scored_top80percent,openbind_a71ev2a_c2_elabs_activefrags_only_scored_5.2plus,syndirella_placed

>  <smina_score_min>  (247) 
-6.269

$$$$
P544930
     RDKit          3D

 20 21  0  0  0  0  0  0  0  0999 V2000
   12.0693   16.0816   25.5776 O   0  0  0  0  0  0  0  0  0  0  0  0
   11.7600   15.1140   24.8727 C   0  0  0  0  0  0  0  0  0  0  0  0
   10.8881   14.1439   25.4998 C   0  0  0  0  0  0  0  0  0  0  0  0
   11.0974   12.9094   24.7039 C   0  0  0  0  0  0  0  0  0  0  0  0
   10.6280   13.0659   23.3502 N   0  0  0  0  0  0  0  0  0  0  0  0
    9.3231   12.5135   23.2100 C   0  0  0  0  0  0  0  0  0  0  0  0
    9.2238   11.1386   23.4874 C   0  0  0  0  0  0  0  0  0  0  0  0
    8.1907   10.6915   24.2931 C   0  0  0  0  0  0  0  0  0  0  0  0
    8.1631    9.4115   24.6771 F   0  0  0  0  0  0  0  0  0  0  0  0
    7.2236   11.5687   24.7692 C   0  0  0  0  0  0  0  0  0  0  0  0
    7.2306   12.8996   24.3494 C   0  0  0  0  0  0  0  0  0  0  0  0
    6.3056   13.8211   24.8306 N   0  0  0  0  0  0  0  0  0  0  0  0
    5.1664   13.6572   25.8907 C   0  0  0  0  0  0  0  0  0  0  0  0
    4.7890   12.7035   26.4582 O   0  0  0  0  0  0  0  0  0  0  0  0
    4.5797   15.0404   26.1197 C   0  0  0  0  0  0  0  0  0  0  0  0
    5.7928   15.9616   27.3284 Br  0  0  0  0  0  0  0  0  0  0  0  0
    8.2505   13.3631   23.5144 C   0  0  0  0  0  0  0  0  0  0  0  0
   11.0906   14.2149   22.7212 C   0  0  0  0  0  0  0  0  0  0  0  0
   10.7513   14.6169   21.6188 O   0  0  0  0  0  0  0  0  0  0  0  0
   11.9439   14.9696   23.5093 N   0  0  0  0  0  0  0  0  0  0  0  0
  1  2  2  0
  2  3  1  0
  3  4  1  0
  4  5  1  0
  5  6  1  0
  6  7  2  0
  7  8  1  0
  8  9  1  0
  8 10  2  0
 10 11  1  0
 11 12  1  0
 12 13  1  0
 13 14  2  0
 13 15  1  0
 15 16  1  0
 11 17  2  0
  5 18  1  0
 18 19  2  0
 18 20  1  0
 20  2  1  0
 17  6  1  0
M  END
>  <alias>  (248) 
None

>  <rmsd(smina/fragmenstein)>  (248) 
0.443

>  <smiles>  (248) 
O=C1CCN(c2cc(F)cc(NC(=O)CBr)c2)C(=O)N1

>  <gnina_score>  (248) 
5.392

>  <inspiration_score>  (248) 
None

>  <energy_score>  (248) 
-2.317989

>  <distance_score>  (248) 
1.66528

>  <gnina_score_min>  (248) 
5.495

>  <inchikey>  (248) 
AECQYAIKXOTKFF-UHFFFAOYSA-N

>  <exports>  (248) 
['/opt/xchem-fragalysis-2/maxwin/BulkDock/OUTPUTS/openbind_a71ev2a_c2_elabs_1LOUU54.sdf', '/opt/xchem-fragalysis-2/maxwin/BulkDock/OUTPUTS/openbind_a71ev2a_c2_elabs_1LSYIDY.sdf']

>  <name>  (248) 
P544930

>  <ref_pdb>  (248) 
A0884a

>  <subsites>  (248) 
None

>  <HIPPO Pose ID>  (248) 
544930

>  <ref_mols>  (248) 
A0884a

>  <HIPPO Compound ID>  (248) 
383207

>  <tags>  (248) 
openbind_a71ev2a_c2_elabs,syndirella_product,openbind_a71ev2a_c2_elabs_fragonly_scored_top80percent,openbind_a71ev2a_c2_elabs_scored,BulkDock Fragalysis export,openbind_a71ev2a_c2_elabs_scored_top80percent,openbind_a71ev2a_c2_elabs_activefrags_only_scored_5.2plus,syndirella_placed

>  <smina_score_min>  (248) 
-4.029

$$$$
P544932
     RDKit          3D

 20 21  0  0  0  0  0  0  0  0999 V2000
    3.3053   16.8890   27.7671 C   0  0  0  0  0  0  0  0  0  0  0  0
    3.9564   15.6187   27.4478 C   0  0  0  0  0  0  0  0  0  0  0  0
    4.4944   14.5806   27.1695 C   0  0  0  0  0  0  0  0  0  0  0  0
    5.1658   13.3469   26.8049 C   0  0  0  0  0  0  0  0  0  0  0  0
    4.7260   12.3330   27.1772 O   0  0  0  0  0  0  0  0  0  0  0  0
    6.4280   13.6427   25.9716 N   0  0  0  0  0  0  0  0  0  0  0  0
    7.3320   12.7779   25.3617 C   0  0  0  0  0  0  0  0  0  0  0  0
    7.1556   11.3995   25.3894 C   0  0  0  0  0  0  0  0  0  0  0  0
    8.0281   10.5729   24.6868 C   0  0  0  0  0  0  0  0  0  0  0  0
    9.0840   11.1054   23.9389 C   0  0  0  0  0  0  0  0  0  0  0  0
    9.9152   10.1409   23.1518 C   0  0  0  0  0  0  0  0  0  0  0  0
    9.3326   12.4886   24.0066 C   0  0  0  0  0  0  0  0  0  0  0  0
   10.5073   13.0353   23.4414 N   0  0  0  0  0  0  0  0  0  0  0  0
   11.3914   13.7871   24.1703 C   0  0  0  0  0  0  0  0  0  0  0  0
   11.4152   13.9737   25.3813 O   0  0  0  0  0  0  0  0  0  0  0  0
   12.3386   14.4780   23.2139 C   0  0  0  0  0  0  0  0  0  0  0  0
   11.7344   14.1880   21.9712 N   0  0  0  0  0  0  0  0  0  0  0  0
   10.5085   13.6198   22.2100 C   0  0  0  0  0  0  0  0  0  0  0  0
    9.5685   13.8274   21.4650 O   0  0  0  0  0  0  0  0  0  0  0  0
    8.4343   13.3179   24.6952 C   0  0  0  0  0  0  0  0  0  0  0  0
  1  2  1  0
  2  3  3  0
  3  4  1  0
  4  5  2  0
  4  6  1  0
  6  7  1  0
  7  8  2  0
  8  9  1  0
  9 10  2  0
 10 11  1  0
 10 12  1  0
 12 13  1  0
 13 14  1  0
 14 15  2  0
 14 16  1  0
 16 17  1  0
 17 18  1  0
 18 19  2  0
 12 20  2  0
 20  7  1  0
 18 13  1  0
M  END
>  <alias>  (249) 
None

>  <rmsd(smina/fragmenstein)>  (249) 
1.353

>  <smiles>  (249) 
CC#CC(=O)Nc1ccc(C)c(N2C(=O)CNC2=O)c1

>  <gnina_score>  (249) 
5.234

>  <inspiration_score>  (249) 
None

>  <energy_score>  (249) 
-2.422805

>  <distance_score>  (249) 
1.734029

>  <gnina_score_min>  (249) 
5.272

>  <inchikey>  (249) 
LJUZSDFGVPTQGV-UHFFFAOYSA-N

>  <exports>  (249) 
['/opt/xchem-fragalysis-2/maxwin/BulkDock/OUTPUTS/openbind_a71ev2a_c2_elabs_1LOUU54.sdf', '/opt/xchem-fragalysis-2/maxwin/BulkDock/OUTPUTS/openbind_a71ev2a_c2_elabs_1LSYIDY.sdf']

>  <name>  (249) 
P544932

>  <ref_pdb>  (249) 
A0884a

>  <subsites>  (249) 
None

>  <HIPPO Pose ID>  (249) 
544932

>  <ref_mols>  (249) 
A0884a

>  <HIPPO Compound ID>  (249) 
383209

>  <tags>  (249) 
openbind_a71ev2a_c2_elabs,syndirella_product,openbind_a71ev2a_c2_elabs_fragonly_scored_top80percent,openbind_a71ev2a_c2_elabs_scored,BulkDock Fragalysis export,openbind_a71ev2a_c2_elabs_scored_top80percent,openbind_a71ev2a_c2_elabs_activefrags_only_scored_5.2plus,syndirella_placed

>  <smina_score_min>  (249) 
-6.841

$$$$
P544935
     RDKit          3D

 20 21  0  0  0  0  0  0  0  0999 V2000
    8.2223   14.3306   24.9650 C   0  0  0  0  0  0  0  0  0  0  0  0
    8.3478   12.8999   24.5386 C   0  0  0  0  0  0  0  0  0  0  0  0
    7.5649   11.8783   25.1107 C   0  0  0  0  0  0  0  0  0  0  0  0
    6.4629   12.0295   25.9687 N   0  0  0  0  0  0  0  0  0  0  0  0
    5.5273   13.2567   26.2108 C   0  0  0  0  0  0  0  0  0  0  0  0
    5.5827   14.3465   25.7894 O   0  0  0  0  0  0  0  0  0  0  0  0
    4.4951   12.8355   27.2427 C   0  0  0  0  0  0  0  0  0  0  0  0
    4.9780   13.2600   28.6187 C   0  0  0  0  0  0  0  0  0  0  0  0
    3.8530   12.6246   29.8962 S   0  0  0  0  0  0  0  0  0  0  0  0
    7.8944   10.5394   24.8514 C   0  0  0  0  0  0  0  0  0  0  0  0
    8.9268   10.1978   23.9880 C   0  0  0  0  0  0  0  0  0  0  0  0
    9.6480   11.1962   23.3661 C   0  0  0  0  0  0  0  0  0  0  0  0
    9.3711   12.5397   23.6256 C   0  0  0  0  0  0  0  0  0  0  0  0
   10.1955   13.4798   22.9472 N   0  0  0  0  0  0  0  0  0  0  0  0
    9.5789   14.3687   21.9705 C   0  0  0  0  0  0  0  0  0  0  0  0
   10.5383   14.8764   20.9121 C   0  0  0  0  0  0  0  0  0  0  0  0
   11.8819   15.2267   21.4995 C   0  0  0  0  0  0  0  0  0  0  0  0
   12.3242   14.3367   22.5323 N   0  0  0  0  0  0  0  0  0  0  0  0
   11.5075   13.6254   23.3514 C   0  0  0  0  0  0  0  0  0  0  0  0
   11.9754   13.1537   24.3871 O   0  0  0  0  0  0  0  0  0  0  0  0
  1  2  1  0
  2  3  2  0
  3  4  1  0
  4  5  1  0
  5  6  2  0
  5  7  1  0
  7  8  1  0
  8  9  1  0
  3 10  1  0
 10 11  2  0
 11 12  1  0
 12 13  2  0
 13 14  1  0
 14 15  1  0
 15 16  1  0
 16 17  1  0
 17 18  1  0
 18 19  1  0
 19 20  2  0
 13  2  1  0
 19 14  1  0
M  END
>  <alias>  (250) 
None

>  <rmsd(smina/fragmenstein)>  (250) 
0.866

>  <smiles>  (250) 
Cc1c(NC(=O)CCS)cccc1N1CCCNC1=O

>  <gnina_score>  (250) 
5.101

>  <inspiration_score>  (250) 
None

>  <energy_score>  (250) 
-42.388821

>  <distance_score>  (250) 
1.013176

>  <gnina_score_min>  (250) 
5.218

>  <inchikey>  (250) 
VOYWSCOPABRJQC-UHFFFAOYSA-N

>  <exports>  (250) 
['/opt/xchem-fragalysis-2/maxwin/BulkDock/OUTPUTS/openbind_a71ev2a_c2_elabs_1LOUU54.sdf', '/opt/xchem-fragalysis-2/maxwin/BulkDock/OUTPUTS/openbind_a71ev2a_c2_elabs_1LSYIDY.sdf']

>  <name>  (250) 
P544935

>  <ref_pdb>  (250) 
A0884a

>  <subsites>  (250) 
None

>  <HIPPO Pose ID>  (250) 
544935

>  <ref_mols>  (250) 
A0884a

>  <HIPPO Compound ID>  (250) 
383213

>  <tags>  (250) 
openbind_a71ev2a_c2_elabs,syndirella_product,openbind_a71ev2a_c2_elabs_fragonly_scored_top80percent,openbind_a71ev2a_c2_elabs_scored,BulkDock Fragalysis export,openbind_a71ev2a_c2_elabs_scored_top80percent,openbind_a71ev2a_c2_elabs_activefrags_only_scored_5.2plus,syndirella_placed

>  <smina_score_min>  (250) 
-6.275

$$$$
P544936
     RDKit          3D

 20 21  0  0  0  0  0  0  0  0999 V2000
    5.0589   11.8953   26.8324 O   0  0  0  0  0  0  0  0  0  0  0  0
    5.4448   12.9424   26.4803 C   0  0  0  0  0  0  0  0  0  0  0  0
    4.7075   14.2385   26.7921 C   0  0  0  0  0  0  0  0  0  0  0  0
    3.5453   14.4767   25.8394 C   0  0  0  0  0  0  0  0  0  0  0  0
    4.0815   14.8684   24.1492 S   0  0  0  0  0  0  0  0  0  0  0  0
    6.7045   13.3261   25.6483 N   0  0  0  0  0  0  0  0  0  0  0  0
    7.6556   12.5220   25.0247 C   0  0  0  0  0  0  0  0  0  0  0  0
    7.5940   11.1321   25.0431 C   0  0  0  0  0  0  0  0  0  0  0  0
    8.5418   10.3875   24.3327 C   0  0  0  0  0  0  0  0  0  0  0  0
    9.5676   11.0186   23.6275 C   0  0  0  0  0  0  0  0  0  0  0  0
    9.6642   12.4082   23.6525 C   0  0  0  0  0  0  0  0  0  0  0  0
   10.7299   13.0532   22.9935 N   0  0  0  0  0  0  0  0  0  0  0  0
   11.7742   13.5799   23.7089 C   0  0  0  0  0  0  0  0  0  0  0  0
   12.1097   13.2970   24.8522 O   0  0  0  0  0  0  0  0  0  0  0  0
   12.4053   14.6971   22.9076 C   0  0  0  0  0  0  0  0  0  0  0  0
   11.5789   14.7224   21.7630 N   0  0  0  0  0  0  0  0  0  0  0  0
   10.4892   13.9241   21.9727 C   0  0  0  0  0  0  0  0  0  0  0  0
    9.4493   14.1034   21.3667 O   0  0  0  0  0  0  0  0  0  0  0  0
    8.6992   13.1494   24.3411 C   0  0  0  0  0  0  0  0  0  0  0  0
    8.7947   14.4897   24.3870 F   0  0  0  0  0  0  0  0  0  0  0  0
  1  2  2  0
  2  3  1  0
  3  4  1  0
  4  5  1  0
  2  6  1  0
  6  7  1  0
  7  8  2  0
  8  9  1  0
  9 10  2  0
 10 11  1  0
 11 12  1  0
 12 13  1  0
 13 14  2  0
 13 15  1  0
 15 16  1  0
 16 17  1  0
 17 18  2  0
 11 19  2  0
 19 20  1  0
 19  7  1  0
 17 12  1  0
M  END
>  <alias>  (251) 
None

>  <rmsd(smina/fragmenstein)>  (251) 
0.582

>  <smiles>  (251) 
O=C(CCS)Nc1cccc(N2C(=O)CNC2=O)c1F

>  <gnina_score>  (251) 
5.415

>  <inspiration_score>  (251) 
None

>  <energy_score>  (251) 
-25.269605

>  <distance_score>  (251) 
1.623003

>  <gnina_score_min>  (251) 
5.333

>  <inchikey>  (251) 
XIKJZDFZWGMMNW-UHFFFAOYSA-N

>  <exports>  (251) 
['/opt/xchem-fragalysis-2/maxwin/BulkDock/OUTPUTS/openbind_a71ev2a_c2_elabs_1LOUU54.sdf', '/opt/xchem-fragalysis-2/maxwin/BulkDock/OUTPUTS/openbind_a71ev2a_c2_elabs_1LSYIDY.sdf']

>  <name>  (251) 
P544936

>  <ref_pdb>  (251) 
A0884a

>  <subsites>  (251) 
None

>  <HIPPO Pose ID>  (251) 
544936

>  <ref_mols>  (251) 
A0884a

>  <HIPPO Compound ID>  (251) 
383214

>  <tags>  (251) 
openbind_a71ev2a_c2_elabs,syndirella_product,openbind_a71ev2a_c2_elabs_fragonly_scored_top80percent,openbind_a71ev2a_c2_elabs_scored,BulkDock Fragalysis export,openbind_a71ev2a_c2_elabs_scored_top80percent,openbind_a71ev2a_c2_elabs_activefrags_only_scored_5.2plus,syndirella_placed

>  <smina_score_min>  (251) 
-6.364

$$$$
P544937
     RDKit          3D

 20 21  0  0  0  0  0  0  0  0999 V2000
    9.9704   10.3442   23.0618 C   0  0  0  0  0  0  0  0  0  0  0  0
    9.0593   11.2573   23.8158 C   0  0  0  0  0  0  0  0  0  0  0  0
    8.1438   10.6371   24.6784 C   0  0  0  0  0  0  0  0  0  0  0  0
    7.1721   11.3745   25.3446 C   0  0  0  0  0  0  0  0  0  0  0  0
    7.0909   12.7463   25.1417 C   0  0  0  0  0  0  0  0  0  0  0  0
    6.0715   13.5018   25.7157 N   0  0  0  0  0  0  0  0  0  0  0  0
    4.9975   13.1120   26.7858 C   0  0  0  0  0  0  0  0  0  0  0  0
    4.7635   12.0771   27.2847 O   0  0  0  0  0  0  0  0  0  0  0  0
    4.2255   14.4018   27.0910 C   0  0  0  0  0  0  0  0  0  0  0  0
    2.6089   14.0419   27.8415 S   0  0  0  0  0  0  0  0  0  0  0  0
    8.0173   13.3823   24.3096 C   0  0  0  0  0  0  0  0  0  0  0  0
    9.0265   12.6557   23.6573 C   0  0  0  0  0  0  0  0  0  0  0  0
    9.9696   13.3483   22.8269 N   0  0  0  0  0  0  0  0  0  0  0  0
    9.4533   14.3414   21.8919 C   0  0  0  0  0  0  0  0  0  0  0  0
   10.4419   14.8072   20.8446 C   0  0  0  0  0  0  0  0  0  0  0  0
   11.8603   14.5530   21.2379 C   0  0  0  0  0  0  0  0  0  0  0  0
   12.7730   14.5535   20.4156 O   0  0  0  0  0  0  0  0  0  0  0  0
   12.0788   14.3368   22.5638 N   0  0  0  0  0  0  0  0  0  0  0  0
   11.2545   13.5586   23.3330 C   0  0  0  0  0  0  0  0  0  0  0  0
   11.6797   13.0992   24.3911 O   0  0  0  0  0  0  0  0  0  0  0  0
  1  2  1  0
  2  3  2  0
  3  4  1  0
  4  5  2  0
  5  6  1  0
  6  7  1  0
  7  8  2  0
  7  9  1  0
  9 10  1  0
  5 11  1  0
 11 12  2  0
 12 13  1  0
 13 14  1  0
 14 15  1  0
 15 16  1  0
 16 17  2  0
 16 18  1  0
 18 19  1  0
 19 20  2  0
 12  2  1  0
 19 13  1  0
M  END
>  <alias>  (252) 
None

>  <rmsd(smina/fragmenstein)>  (252) 
0.556

>  <smiles>  (252) 
Cc1ccc(NC(=O)CS)cc1N1CCC(=O)NC1=O

>  <gnina_score>  (252) 
5.27

>  <inspiration_score>  (252) 
None

>  <energy_score>  (252) 
-37.443473

>  <distance_score>  (252) 
1.413029

>  <gnina_score_min>  (252) 
5.254

>  <inchikey>  (252) 
VRCHDDOCEFZNLV-UHFFFAOYSA-N

>  <exports>  (252) 
['/opt/xchem-fragalysis-2/maxwin/BulkDock/OUTPUTS/openbind_a71ev2a_c2_elabs_1LOUU54.sdf', '/opt/xchem-fragalysis-2/maxwin/BulkDock/OUTPUTS/openbind_a71ev2a_c2_elabs_1LSYIDY.sdf']

>  <name>  (252) 
P544937

>  <ref_pdb>  (252) 
A0884a

>  <subsites>  (252) 
None

>  <HIPPO Pose ID>  (252) 
544937

>  <ref_mols>  (252) 
A0884a

>  <HIPPO Compound ID>  (252) 
383220

>  <tags>  (252) 
openbind_a71ev2a_c2_elabs,syndirella_product,openbind_a71ev2a_c2_elabs_fragonly_scored_top80percent,openbind_a71ev2a_c2_elabs_scored,BulkDock Fragalysis export,openbind_a71ev2a_c2_elabs_scored_top80percent,openbind_a71ev2a_c2_elabs_activefrags_only_scored_5.2plus,syndirella_placed

>  <smina_score_min>  (252) 
-6.647

$$$$
P544938
     RDKit          3D

 20 21  0  0  0  0  0  0  0  0999 V2000
   13.0386   15.5596   21.6834 O   0  0  0  0  0  0  0  0  0  0  0  0
   12.1636   14.8652   22.1760 C   0  0  0  0  0  0  0  0  0  0  0  0
   12.3301   14.0420   23.4119 C   0  0  0  0  0  0  0  0  0  0  0  0
   11.4637   12.8251   23.2380 C   0  0  0  0  0  0  0  0  0  0  0  0
   10.0916   13.2239   23.1176 N   0  0  0  0  0  0  0  0  0  0  0  0
    9.0575   12.5395   23.8202 C   0  0  0  0  0  0  0  0  0  0  0  0
    8.0644   13.3272   24.4273 C   0  0  0  0  0  0  0  0  0  0  0  0
    7.0746   12.7622   25.2358 C   0  0  0  0  0  0  0  0  0  0  0  0
    6.1325   13.6055   25.8140 N   0  0  0  0  0  0  0  0  0  0  0  0
    4.9479   13.2898   26.7843 C   0  0  0  0  0  0  0  0  0  0  0  0
    4.5428   12.2631   27.1791 O   0  0  0  0  0  0  0  0  0  0  0  0
    4.3270   14.6319   27.1650 C   0  0  0  0  0  0  0  0  0  0  0  0
    5.3921   15.4718   28.3718 S   0  0  0  0  0  0  0  0  0  0  0  0
    7.0558   11.3891   25.4407 C   0  0  0  0  0  0  0  0  0  0  0  0
    7.9973   10.5857   24.8042 C   0  0  0  0  0  0  0  0  0  0  0  0
    8.9871   11.1466   23.9942 C   0  0  0  0  0  0  0  0  0  0  0  0
    9.9581   10.0146   23.1434 Cl  0  0  0  0  0  0  0  0  0  0  0  0
    9.8283   14.2158   22.1940 C   0  0  0  0  0  0  0  0  0  0  0  0
    8.7120   14.5514   21.8294 O   0  0  0  0  0  0  0  0  0  0  0  0
   10.9016   14.8674   21.6724 N   0  0  0  0  0  0  0  0  0  0  0  0
  1  2  2  0
  2  3  1  0
  3  4  1  0
  4  5  1  0
  5  6  1  0
  6  7  2  0
  7  8  1  0
  8  9  1  0
  9 10  1  0
 10 11  2  0
 10 12  1  0
 12 13  1  0
  8 14  2  0
 14 15  1  0
 15 16  2  0
 16 17  1  0
  5 18  1  0
 18 19  2  0
 18 20  1  0
 20  2  1  0
 16  6  1  0
M  END
>  <alias>  (253) 
None

>  <rmsd(smina/fragmenstein)>  (253) 
0.767

>  <smiles>  (253) 
O=C1CCN(c2cc(NC(=O)CS)ccc2Cl)C(=O)N1

>  <gnina_score>  (253) 
5.616

>  <inspiration_score>  (253) 
None

>  <energy_score>  (253) 
-40.352376

>  <distance_score>  (253) 
1.985785

>  <gnina_score_min>  (253) 
5.614

>  <inchikey>  (253) 
ZSKORGIKAUSBJM-UHFFFAOYSA-N

>  <exports>  (253) 
['/opt/xchem-fragalysis-2/maxwin/BulkDock/OUTPUTS/openbind_a71ev2a_c2_elabs_1LOUU54.sdf', '/opt/xchem-fragalysis-2/maxwin/BulkDock/OUTPUTS/openbind_a71ev2a_c2_elabs_1LSYIDY.sdf']

>  <name>  (253) 
P544938

>  <ref_pdb>  (253) 
A0884a

>  <subsites>  (253) 
None

>  <HIPPO Pose ID>  (253) 
544938

>  <ref_mols>  (253) 
A0884a

>  <HIPPO Compound ID>  (253) 
383222

>  <tags>  (253) 
openbind_a71ev2a_c2_elabs,syndirella_product,openbind_a71ev2a_c2_elabs_fragonly_scored_top80percent,BulkDock Fragalysis export,openbind_a71ev2a_c2_elabs_scored,openbind_a71ev2a_c2_elabs_scored_top80percent,openbind_a71ev2a_c2_elabs_activefrags_only_scored_5.2plus,openbind_a71ev2a_c2_elabs_activefrags_only_scored_5.5plus,syndirella_placed

>  <smina_score_min>  (253) 
-7.143

$$$$
P544940
     RDKit          3D

 20 21  0  0  0  0  0  0  0  0999 V2000
    8.2086   14.4926   24.6520 C   0  0  0  0  0  0  0  0  0  0  0  0
    8.4265   13.0151   24.5048 C   0  0  0  0  0  0  0  0  0  0  0  0
    7.5979   12.1046   25.1968 C   0  0  0  0  0  0  0  0  0  0  0  0
    6.6183   12.5780   26.0779 N   0  0  0  0  0  0  0  0  0  0  0  0
    5.5793   11.8061   26.9439 C   0  0  0  0  0  0  0  0  0  0  0  0
    5.4361   10.6565   27.1109 O   0  0  0  0  0  0  0  0  0  0  0  0
    4.7372   12.8445   27.6870 C   0  0  0  0  0  0  0  0  0  0  0  0
    4.2223   14.2352   26.6406 S   0  0  0  0  0  0  0  0  0  0  0  0
    7.7727   10.7347   25.0158 C   0  0  0  0  0  0  0  0  0  0  0  0
    8.7690   10.2573   24.1688 C   0  0  0  0  0  0  0  0  0  0  0  0
    9.6334   11.1383   23.5367 C   0  0  0  0  0  0  0  0  0  0  0  0
    9.4960   12.5147   23.7229 C   0  0  0  0  0  0  0  0  0  0  0  0
   10.4692   13.3564   23.1040 N   0  0  0  0  0  0  0  0  0  0  0  0
   10.1205   14.0411   21.9557 C   0  0  0  0  0  0  0  0  0  0  0  0
    9.0110   13.9703   21.4331 O   0  0  0  0  0  0  0  0  0  0  0  0
   11.1165   14.9898   21.3747 C   0  0  0  0  0  0  0  0  0  0  0  0
   12.4930   14.4864   21.6341 C   0  0  0  0  0  0  0  0  0  0  0  0
   12.6348   14.2174   23.0325 N   0  0  0  0  0  0  0  0  0  0  0  0
   11.6806   13.5542   23.7440 C   0  0  0  0  0  0  0  0  0  0  0  0
   11.9320   13.2296   24.9012 O   0  0  0  0  0  0  0  0  0  0  0  0
  1  2  1  0
  2  3  2  0
  3  4  1  0
  4  5  1  0
  5  6  2  0
  5  7  1  0
  7  8  1  0
  3  9  1  0
  9 10  2  0
 10 11  1  0
 11 12  2  0
 12 13  1  0
 13 14  1  0
 14 15  2  0
 14 16  1  0
 16 17  1  0
 17 18  1  0
 18 19  1  0
 19 20  2  0
 12  2  1  0
 19 13  1  0
M  END
>  <alias>  (254) 
None

>  <rmsd(smina/fragmenstein)>  (254) 
0.476

>  <smiles>  (254) 
Cc1c(NC(=O)CS)cccc1N1C(=O)CCNC1=O

>  <gnina_score>  (254) 
5.171

>  <inspiration_score>  (254) 
None

>  <energy_score>  (254) 
-39.765551

>  <distance_score>  (254) 
1.699244

>  <gnina_score_min>  (254) 
5.253

>  <inchikey>  (254) 
DTTBQBUXSYIEGW-UHFFFAOYSA-N

>  <exports>  (254) 
['/opt/xchem-fragalysis-2/maxwin/BulkDock/OUTPUTS/openbind_a71ev2a_c2_elabs_1LOUU54.sdf', '/opt/xchem-fragalysis-2/maxwin/BulkDock/OUTPUTS/openbind_a71ev2a_c2_elabs_1LSYIDY.sdf']

>  <name>  (254) 
P544940

>  <ref_pdb>  (254) 
A0884a

>  <subsites>  (254) 
None

>  <HIPPO Pose ID>  (254) 
544940

>  <ref_mols>  (254) 
A0884a

>  <HIPPO Compound ID>  (254) 
383224

>  <tags>  (254) 
openbind_a71ev2a_c2_elabs,syndirella_product,openbind_a71ev2a_c2_elabs_fragonly_scored_top80percent,openbind_a71ev2a_c2_elabs_scored,BulkDock Fragalysis export,openbind_a71ev2a_c2_elabs_scored_top80percent,openbind_a71ev2a_c2_elabs_activefrags_only_scored_5.2plus,syndirella_placed

>  <smina_score_min>  (254) 
-7.037

$$$$
P544941
     RDKit          3D

 20 21  0  0  0  0  0  0  0  0999 V2000
    8.9848    9.5742   23.9508 C   0  0  0  0  0  0  0  0  0  0  0  0
    8.7450   11.0217   24.1647 C   0  0  0  0  0  0  0  0  0  0  0  0
    7.6762   11.5043   24.9331 C   0  0  0  0  0  0  0  0  0  0  0  0
    7.4389   12.8768   25.0069 C   0  0  0  0  0  0  0  0  0  0  0  0
    6.4100   13.4200   25.7705 N   0  0  0  0  0  0  0  0  0  0  0  0
    5.4052   12.7356   26.7511 C   0  0  0  0  0  0  0  0  0  0  0  0
    5.2434   11.6031   27.0035 O   0  0  0  0  0  0  0  0  0  0  0  0
    4.6305   13.8556   27.4392 C   0  0  0  0  0  0  0  0  0  0  0  0
    3.1329   14.5752   26.1420 I   0  0  0  0  0  0  0  0  0  0  0  0
    8.2595   13.7585   24.3035 C   0  0  0  0  0  0  0  0  0  0  0  0
    9.3525   13.2734   23.5902 C   0  0  0  0  0  0  0  0  0  0  0  0
   10.1926   14.1630   22.8821 N   0  0  0  0  0  0  0  0  0  0  0  0
    9.6724   14.5653   21.5755 C   0  0  0  0  0  0  0  0  0  0  0  0
   10.6418   15.3503   20.7392 C   0  0  0  0  0  0  0  0  0  0  0  0
   11.9999   14.7460   20.9103 C   0  0  0  0  0  0  0  0  0  0  0  0
   12.7052   14.3740   19.9788 O   0  0  0  0  0  0  0  0  0  0  0  0
   12.3836   14.6603   22.2168 N   0  0  0  0  0  0  0  0  0  0  0  0
   11.5539   14.1259   23.1579 C   0  0  0  0  0  0  0  0  0  0  0  0
   12.0276   13.6311   24.1820 O   0  0  0  0  0  0  0  0  0  0  0  0
    9.5932   11.9090   23.5157 C   0  0  0  0  0  0  0  0  0  0  0  0
  1  2  1  0
  2  3  2  0
  3  4  1  0
  4  5  1  0
  5  6  1  0
  6  7  2  0
  6  8  1  0
  8  9  1  0
  4 10  2  0
 10 11  1  0
 11 12  1  0
 12 13  1  0
 13 14  1  0
 14 15  1  0
 15 16  2  0
 15 17  1  0
 17 18  1  0
 18 19  2  0
 11 20  2  0
 20  2  1  0
 18 12  1  0
M  END
>  <alias>  (255) 
None

>  <rmsd(smina/fragmenstein)>  (255) 
0.668

>  <smiles>  (255) 
Cc1cc(NC(=O)CI)cc(N2CCC(=O)NC2=O)c1

>  <gnina_score>  (255) 
5.365

>  <inspiration_score>  (255) 
None

>  <energy_score>  (255) 
-10.427698

>  <distance_score>  (255) 
1.34245

>  <gnina_score_min>  (255) 
5.502

>  <inchikey>  (255) 
BZHCDTSNZCIMDD-UHFFFAOYSA-N

>  <exports>  (255) 
['/opt/xchem-fragalysis-2/maxwin/BulkDock/OUTPUTS/openbind_a71ev2a_c2_elabs_1LOUU54.sdf', '/opt/xchem-fragalysis-2/maxwin/BulkDock/OUTPUTS/openbind_a71ev2a_c2_elabs_1LSYIDY.sdf']

>  <name>  (255) 
P544941

>  <ref_pdb>  (255) 
A0884a

>  <subsites>  (255) 
None

>  <HIPPO Pose ID>  (255) 
544941

>  <ref_mols>  (255) 
A0884a

>  <HIPPO Compound ID>  (255) 
383226

>  <tags>  (255) 
openbind_a71ev2a_c2_elabs,syndirella_product,openbind_a71ev2a_c2_elabs_fragonly_scored_top80percent,BulkDock Fragalysis export,openbind_a71ev2a_c2_elabs_scored,openbind_a71ev2a_c2_elabs_scored_top80percent,openbind_a71ev2a_c2_elabs_activefrags_only_scored_5.2plus,openbind_a71ev2a_c2_elabs_activefrags_only_scored_5.5plus,syndirella_placed

>  <smina_score_min>  (255) 
-6.748

$$$$
P544944
     RDKit          3D

 20 21  0  0  0  0  0  0  0  0999 V2000
   13.0531   15.5307   21.4071 O   0  0  0  0  0  0  0  0  0  0  0  0
   12.2639   14.9093   22.1044 C   0  0  0  0  0  0  0  0  0  0  0  0
   12.6460   13.7385   22.9398 C   0  0  0  0  0  0  0  0  0  0  0  0
   11.5390   13.3557   23.8769 C   0  0  0  0  0  0  0  0  0  0  0  0
   10.3034   13.2219   23.1407 N   0  0  0  0  0  0  0  0  0  0  0  0
    9.2627   12.4914   23.7644 C   0  0  0  0  0  0  0  0  0  0  0  0
    8.1875   13.1701   24.3478 C   0  0  0  0  0  0  0  0  0  0  0  0
    7.2370   12.4747   25.0966 C   0  0  0  0  0  0  0  0  0  0  0  0
    6.2357   13.2118   25.7170 N   0  0  0  0  0  0  0  0  0  0  0  0
    5.1228   12.7678   26.7191 C   0  0  0  0  0  0  0  0  0  0  0  0
    4.8361   11.7015   27.1112 O   0  0  0  0  0  0  0  0  0  0  0  0
    4.3718   14.0309   27.1302 C   0  0  0  0  0  0  0  0  0  0  0  0
    5.5120   15.0144   28.6201 I   0  0  0  0  0  0  0  0  0  0  0  0
    7.3256   11.0891   25.2149 C   0  0  0  0  0  0  0  0  0  0  0  0
    8.3541   10.4030   24.5677 C   0  0  0  0  0  0  0  0  0  0  0  0
    9.3260   11.1047   23.8695 C   0  0  0  0  0  0  0  0  0  0  0  0
   10.3267   10.4235   23.3032 F   0  0  0  0  0  0  0  0  0  0  0  0
    9.9980   14.2335   22.2544 C   0  0  0  0  0  0  0  0  0  0  0  0
    8.9518   14.3069   21.6254 O   0  0  0  0  0  0  0  0  0  0  0  0
   10.9413   15.1902   22.0808 N   0  0  0  0  0  0  0  0  0  0  0  0
  1  2  2  0
  2  3  1  0
  3  4  1  0
  4  5  1  0
  5  6  1  0
  6  7  2  0
  7  8  1  0
  8  9  1  0
  9 10  1  0
 10 11  2  0
 10 12  1  0
 12 13  1  0
  8 14  2  0
 14 15  1  0
 15 16  2  0
 16 17  1  0
  5 18  1  0
 18 19  2  0
 18 20  1  0
 20  2  1  0
 16  6  1  0
M  END
>  <alias>  (256) 
None

>  <rmsd(smina/fragmenstein)>  (256) 
1.317

>  <smiles>  (256) 
O=C1CCN(c2cc(NC(=O)CI)ccc2F)C(=O)N1

>  <gnina_score>  (256) 
5.461

>  <inspiration_score>  (256) 
None

>  <energy_score>  (256) 
-10.023493

>  <distance_score>  (256) 
1.751822

>  <gnina_score_min>  (256) 
5.317

>  <inchikey>  (256) 
LCVQJYIXIUPTMA-UHFFFAOYSA-N

>  <exports>  (256) 
['/opt/xchem-fragalysis-2/maxwin/BulkDock/OUTPUTS/openbind_a71ev2a_c2_elabs_1LOUU54.sdf', '/opt/xchem-fragalysis-2/maxwin/BulkDock/OUTPUTS/openbind_a71ev2a_c2_elabs_1LSYIDY.sdf']

>  <name>  (256) 
P544944

>  <ref_pdb>  (256) 
A0884a

>  <subsites>  (256) 
None

>  <HIPPO Pose ID>  (256) 
544944

>  <ref_mols>  (256) 
A0884a

>  <HIPPO Compound ID>  (256) 
383229

>  <tags>  (256) 
openbind_a71ev2a_c2_elabs,syndirella_product,openbind_a71ev2a_c2_elabs_fragonly_scored_top80percent,openbind_a71ev2a_c2_elabs_scored,BulkDock Fragalysis export,openbind_a71ev2a_c2_elabs_scored_top80percent,openbind_a71ev2a_c2_elabs_activefrags_only_scored_5.2plus,syndirella_placed

>  <smina_score_min>  (256) 
-6.757

$$$$
P544951
     RDKit          3D

 20 21  0  0  0  0  0  0  0  0999 V2000
    4.9977   11.6717   27.0343 O   0  0  0  0  0  0  0  0  0  0  0  0
    5.1942   12.7548   26.6521 C   0  0  0  0  0  0  0  0  0  0  0  0
    4.3393   13.8193   27.1316 C   0  0  0  0  0  0  0  0  0  0  0  0
    3.6275   14.7001   27.5291 C   0  0  0  0  0  0  0  0  0  0  0  0
    2.4966   16.1005   28.1601 Br  0  0  0  0  0  0  0  0  0  0  0  0
    6.2322   13.2856   25.6476 N   0  0  0  0  0  0  0  0  0  0  0  0
    7.2740   12.6338   24.9946 C   0  0  0  0  0  0  0  0  0  0  0  0
    7.4663   11.2541   25.1005 C   0  0  0  0  0  0  0  0  0  0  0  0
    8.5261   10.6487   24.4265 C   0  0  0  0  0  0  0  0  0  0  0  0
    9.4166   11.4304   23.7009 C   0  0  0  0  0  0  0  0  0  0  0  0
   10.4122   10.8193   23.0544 F   0  0  0  0  0  0  0  0  0  0  0  0
    9.2462   12.8132   23.5955 C   0  0  0  0  0  0  0  0  0  0  0  0
   10.1927   13.6164   22.9032 N   0  0  0  0  0  0  0  0  0  0  0  0
    9.7266   14.3844   21.7495 C   0  0  0  0  0  0  0  0  0  0  0  0
   10.7786   15.2255   21.0494 C   0  0  0  0  0  0  0  0  0  0  0  0
   12.1568   14.6570   21.2600 C   0  0  0  0  0  0  0  0  0  0  0  0
   12.3755   14.3871   22.6488 N   0  0  0  0  0  0  0  0  0  0  0  0
   11.4711   13.7258   23.4212 C   0  0  0  0  0  0  0  0  0  0  0  0
   11.8087   13.3162   24.5305 O   0  0  0  0  0  0  0  0  0  0  0  0
    8.1471   13.4063   24.2201 C   0  0  0  0  0  0  0  0  0  0  0  0
  1  2  2  0
  2  3  1  0
  3  4  3  0
  4  5  1  0
  2  6  1  0
  6  7  1  0
  7  8  2  0
  8  9  1  0
  9 10  2  0
 10 11  1  0
 10 12  1  0
 12 13  1  0
 13 14  1  0
 14 15  1  0
 15 16  1  0
 16 17  1  0
 17 18  1  0
 18 19  2  0
 12 20  2  0
 20  7  1  0
 18 13  1  0
M  END
>  <alias>  (257) 
None

>  <rmsd(smina/fragmenstein)>  (257) 
0.385

>  <smiles>  (257) 
O=C(C#CBr)Nc1ccc(F)c(N2CCCNC2=O)c1

>  <gnina_score>  (257) 
5.159

>  <inspiration_score>  (257) 
None

>  <energy_score>  (257) 
-32.10551

>  <distance_score>  (257) 
1.236755

>  <gnina_score_min>  (257) 
5.22

>  <inchikey>  (257) 
IOAYAXSKJBJDMO-UHFFFAOYSA-N

>  <exports>  (257) 
['/opt/xchem-fragalysis-2/maxwin/BulkDock/OUTPUTS/openbind_a71ev2a_c2_elabs_1LOUU54.sdf', '/opt/xchem-fragalysis-2/maxwin/BulkDock/OUTPUTS/openbind_a71ev2a_c2_elabs_1LSYIDY.sdf']

>  <name>  (257) 
P544951

>  <ref_pdb>  (257) 
A0884a

>  <subsites>  (257) 
None

>  <HIPPO Pose ID>  (257) 
544951

>  <ref_mols>  (257) 
A0884a

>  <HIPPO Compound ID>  (257) 
383239

>  <tags>  (257) 
openbind_a71ev2a_c2_elabs,syndirella_product,openbind_a71ev2a_c2_elabs_fragonly_scored_top80percent,openbind_a71ev2a_c2_elabs_scored,BulkDock Fragalysis export,openbind_a71ev2a_c2_elabs_scored_top80percent,openbind_a71ev2a_c2_elabs_activefrags_only_scored_5.2plus,syndirella_placed

>  <smina_score_min>  (257) 
-6.593

$$$$
P544955
     RDKit          3D

 20 21  0  0  0  0  0  0  0  0999 V2000
    5.1374   10.5520   27.4478 O   0  0  0  0  0  0  0  0  0  0  0  0
    5.1788   11.6919   27.1788 C   0  0  0  0  0  0  0  0  0  0  0  0
    6.0659   12.4564   26.1399 N   0  0  0  0  0  0  0  0  0  0  0  0
    7.0998   12.0025   25.3294 C   0  0  0  0  0  0  0  0  0  0  0  0
    7.3916   10.6626   25.1295 C   0  0  0  0  0  0  0  0  0  0  0  0
    8.4633   10.3021   24.3009 C   0  0  0  0  0  0  0  0  0  0  0  0
    9.3141   11.2687   23.7665 C   0  0  0  0  0  0  0  0  0  0  0  0
    9.1002   12.6063   24.0963 C   0  0  0  0  0  0  0  0  0  0  0  0
   10.1665   13.5212   24.0853 N   0  0  0  0  0  0  0  0  0  0  0  0
   10.4425   14.2808   25.2007 C   0  0  0  0  0  0  0  0  0  0  0  0
    9.7302   14.6286   26.1358 O   0  0  0  0  0  0  0  0  0  0  0  0
   11.8911   14.6359   25.1779 C   0  0  0  0  0  0  0  0  0  0  0  0
   12.2472   14.2601   23.8581 N   0  0  0  0  0  0  0  0  0  0  0  0
   11.2669   13.5049   23.2823 C   0  0  0  0  0  0  0  0  0  0  0  0
   11.4578   12.9428   22.2265 O   0  0  0  0  0  0  0  0  0  0  0  0
    7.9192   12.9611   24.7522 C   0  0  0  0  0  0  0  0  0  0  0  0
    7.5995   14.2562   24.9214 F   0  0  0  0  0  0  0  0  0  0  0  0
    4.2741   12.7603   27.8310 C   0  0  0  0  0  0  0  0  0  0  0  0
    2.7773   12.0251   28.4461 Cl  0  0  0  0  0  0  0  0  0  0  0  0
    5.1912   13.5276   29.1416 Cl  0  0  0  0  0  0  0  0  0  0  0  0
  1  2  2  0
  2  3  1  0
  3  4  1  0
  4  5  2  0
  5  6  1  0
  6  7  2  0
  7  8  1  0
  8  9  1  0
  9 10  1  0
 10 11  2  0
 10 12  1  0
 12 13  1  0
 13 14  1  0
 14 15  2  0
  8 16  2  0
 16 17  1  0
  2 18  1  0
 18 19  1  0
 18 20  1  0
 16  4  1  0
 14  9  1  0
M  END
>  <alias>  (258) 
None

>  <rmsd(smina/fragmenstein)>  (258) 
1.847

>  <smiles>  (258) 
O=C(Nc1cccc(N2C(=O)CNC2=O)c1F)C(Cl)Cl

>  <gnina_score>  (258) 
4.861

>  <inspiration_score>  (258) 
None

>  <energy_score>  (258) 
-21.740702

>  <distance_score>  (258) 
1.356864

>  <gnina_score_min>  (258) 
5.242

>  <inchikey>  (258) 
DVFLXPSYTIBUAF-UHFFFAOYSA-N

>  <exports>  (258) 
['/opt/xchem-fragalysis-2/maxwin/BulkDock/OUTPUTS/openbind_a71ev2a_c2_elabs_1LOUU54.sdf', '/opt/xchem-fragalysis-2/maxwin/BulkDock/OUTPUTS/openbind_a71ev2a_c2_elabs_1LSYIDY.sdf']

>  <name>  (258) 
P544955

>  <ref_pdb>  (258) 
A0884a

>  <subsites>  (258) 
None

>  <HIPPO Pose ID>  (258) 
544955

>  <ref_mols>  (258) 
A0884a

>  <HIPPO Compound ID>  (258) 
383247

>  <tags>  (258) 
openbind_a71ev2a_c2_elabs,syndirella_product,openbind_a71ev2a_c2_elabs_fragonly_scored_top80percent,openbind_a71ev2a_c2_elabs_scored,BulkDock Fragalysis export,openbind_a71ev2a_c2_elabs_scored_top80percent,openbind_a71ev2a_c2_elabs_activefrags_only_scored_5.2plus,syndirella_placed

>  <smina_score_min>  (258) 
-7.123

$$$$
P544957
     RDKit          3D

 20 21  0  0  0  0  0  0  0  0999 V2000
    8.2001   14.5054   24.5122 C   0  0  0  0  0  0  0  0  0  0  0  0
    8.3692   13.0157   24.4851 C   0  0  0  0  0  0  0  0  0  0  0  0
    7.4733   12.1820   25.1857 C   0  0  0  0  0  0  0  0  0  0  0  0
    6.4649   12.7421   25.9738 N   0  0  0  0  0  0  0  0  0  0  0  0
    5.4154   12.0597   26.9220 C   0  0  0  0  0  0  0  0  0  0  0  0
    5.1952   10.9241   27.1191 O   0  0  0  0  0  0  0  0  0  0  0  0
    4.5909   13.2123   27.5336 C   0  0  0  0  0  0  0  0  0  0  0  0
    5.6112   14.0789   28.7007 Cl  0  0  0  0  0  0  0  0  0  0  0  0
    3.1193   12.5987   28.3192 Cl  0  0  0  0  0  0  0  0  0  0  0  0
    7.5976   10.7986   25.0911 C   0  0  0  0  0  0  0  0  0  0  0  0
    8.5888   10.2359   24.2924 C   0  0  0  0  0  0  0  0  0  0  0  0
    9.5051   11.0413   23.6355 C   0  0  0  0  0  0  0  0  0  0  0  0
    9.4376   12.4277   23.7720 C   0  0  0  0  0  0  0  0  0  0  0  0
   10.5272   13.1511   23.2513 N   0  0  0  0  0  0  0  0  0  0  0  0
   11.4216   13.8311   24.0317 C   0  0  0  0  0  0  0  0  0  0  0  0
   11.4858   13.8715   25.2539 O   0  0  0  0  0  0  0  0  0  0  0  0
   12.3207   14.6395   23.1211 C   0  0  0  0  0  0  0  0  0  0  0  0
   11.6859   14.4645   21.8704 N   0  0  0  0  0  0  0  0  0  0  0  0
   10.5071   13.7899   22.0501 C   0  0  0  0  0  0  0  0  0  0  0  0
    9.5769   13.9249   21.2781 O   0  0  0  0  0  0  0  0  0  0  0  0
  1  2  1  0
  2  3  2  0
  3  4  1  0
  4  5  1  0
  5  6  2  0
  5  7  1  0
  7  8  1  0
  7  9  1  0
  3 10  1  0
 10 11  2  0
 11 12  1  0
 12 13  2  0
 13 14  1  0
 14 15  1  0
 15 16  2  0
 15 17  1  0
 17 18  1  0
 18 19  1  0
 19 20  2  0
 13  2  1  0
 19 14  1  0
M  END
>  <alias>  (259) 
None

>  <rmsd(smina/fragmenstein)>  (259) 
0.942

>  <smiles>  (259) 
Cc1c(NC(=O)C(Cl)Cl)cccc1N1C(=O)CNC1=O

>  <gnina_score>  (259) 
5.194

>  <inspiration_score>  (259) 
None

>  <energy_score>  (259) 
-19.315585

>  <distance_score>  (259) 
1.531183

>  <gnina_score_min>  (259) 
5.282

>  <inchikey>  (259) 
BOLLFENHSUYFLE-UHFFFAOYSA-N

>  <exports>  (259) 
['/opt/xchem-fragalysis-2/maxwin/BulkDock/OUTPUTS/openbind_a71ev2a_c2_elabs_1LOUU54.sdf', '/opt/xchem-fragalysis-2/maxwin/BulkDock/OUTPUTS/openbind_a71ev2a_c2_elabs_1LSYIDY.sdf']

>  <name>  (259) 
P544957

>  <ref_pdb>  (259) 
A0884a

>  <subsites>  (259) 
None

>  <HIPPO Pose ID>  (259) 
544957

>  <ref_mols>  (259) 
A0884a

>  <HIPPO Compound ID>  (259) 
383249

>  <tags>  (259) 
openbind_a71ev2a_c2_elabs,syndirella_product,openbind_a71ev2a_c2_elabs_fragonly_scored_top80percent,openbind_a71ev2a_c2_elabs_scored,BulkDock Fragalysis export,openbind_a71ev2a_c2_elabs_scored_top80percent,openbind_a71ev2a_c2_elabs_activefrags_only_scored_5.2plus,syndirella_placed

>  <smina_score_min>  (259) 
-6.532

$$$$
P544959
     RDKit          3D

 20 21  0  0  0  0  0  0  0  0999 V2000
    9.9180   10.1422   23.1531 C   0  0  0  0  0  0  0  0  0  0  0  0
    9.0871   11.1102   23.9363 C   0  0  0  0  0  0  0  0  0  0  0  0
    8.0299   10.5816   24.6849 C   0  0  0  0  0  0  0  0  0  0  0  0
    7.1534   11.4126   25.3773 C   0  0  0  0  0  0  0  0  0  0  0  0
    7.3269   12.7915   25.3385 C   0  0  0  0  0  0  0  0  0  0  0  0
    6.4124   13.6575   25.9334 N   0  0  0  0  0  0  0  0  0  0  0  0
    5.2125   13.3670   26.8559 C   0  0  0  0  0  0  0  0  0  0  0  0
    4.7532   12.3527   27.2021 O   0  0  0  0  0  0  0  0  0  0  0  0
    4.6132   14.5951   27.3317 C   0  0  0  0  0  0  0  0  0  0  0  0
    4.1183   15.6152   27.7252 C   0  0  0  0  0  0  0  0  0  0  0  0
    3.3378   17.2396   28.3505 Br  0  0  0  0  0  0  0  0  0  0  0  0
    8.4302   13.3281   24.6713 C   0  0  0  0  0  0  0  0  0  0  0  0
    9.3331   12.4941   23.9938 C   0  0  0  0  0  0  0  0  0  0  0  0
   10.5065   13.0401   23.4241 N   0  0  0  0  0  0  0  0  0  0  0  0
   11.3939   13.7865   24.1549 C   0  0  0  0  0  0  0  0  0  0  0  0
   11.4249   13.9577   25.3682 O   0  0  0  0  0  0  0  0  0  0  0  0
   12.3316   14.4929   23.2004 C   0  0  0  0  0  0  0  0  0  0  0  0
   11.7188   14.2163   21.9589 N   0  0  0  0  0  0  0  0  0  0  0  0
   10.4988   13.6360   22.1980 C   0  0  0  0  0  0  0  0  0  0  0  0
    9.5541   13.8397   21.4580 O   0  0  0  0  0  0  0  0  0  0  0  0
  1  2  1  0
  2  3  2  0
  3  4  1  0
  4  5  2  0
  5  6  1  0
  6  7  1  0
  7  8  2  0
  7  9  1  0
  9 10  3  0
 10 11  1  0
  5 12  1  0
 12 13  2  0
 13 14  1  0
 14 15  1  0
 15 16  2  0
 15 17  1  0
 17 18  1  0
 18 19  1  0
 19 20  2  0
 13  2  1  0
 19 14  1  0
M  END
>  <alias>  (260) 
None

>  <rmsd(smina/fragmenstein)>  (260) 
1.369

>  <smiles>  (260) 
Cc1ccc(NC(=O)C#CBr)cc1N1C(=O)CNC1=O

>  <gnina_score>  (260) 
5.225

>  <inspiration_score>  (260) 
None

>  <energy_score>  (260) 
-6.0727

>  <distance_score>  (260) 
1.732064

>  <gnina_score_min>  (260) 
5.274

>  <inchikey>  (260) 
NSKMCQUBHBQGCK-UHFFFAOYSA-N

>  <exports>  (260) 
['/opt/xchem-fragalysis-2/maxwin/BulkDock/OUTPUTS/openbind_a71ev2a_c2_elabs_1LOUU54.sdf', '/opt/xchem-fragalysis-2/maxwin/BulkDock/OUTPUTS/openbind_a71ev2a_c2_elabs_1LSYIDY.sdf']

>  <name>  (260) 
P544959

>  <ref_pdb>  (260) 
A0884a

>  <subsites>  (260) 
None

>  <HIPPO Pose ID>  (260) 
544959

>  <ref_mols>  (260) 
A0884a

>  <HIPPO Compound ID>  (260) 
383252

>  <tags>  (260) 
openbind_a71ev2a_c2_elabs,syndirella_product,openbind_a71ev2a_c2_elabs_fragonly_scored_top80percent,openbind_a71ev2a_c2_elabs_scored,BulkDock Fragalysis export,openbind_a71ev2a_c2_elabs_scored_top80percent,openbind_a71ev2a_c2_elabs_activefrags_only_scored_5.2plus,syndirella_placed

>  <smina_score_min>  (260) 
-6.65

$$$$
P544962
     RDKit          3D

 20 21  0  0  0  0  0  0  0  0999 V2000
    3.9150   13.8341   28.1495 C   0  0  0  0  0  0  0  0  0  0  0  0
    5.0719   13.9741   27.4840 C   0  0  0  0  0  0  0  0  0  0  0  0
    5.9177   15.6403   27.3865 Br  0  0  0  0  0  0  0  0  0  0  0  0
    5.6898   12.7368   26.8503 C   0  0  0  0  0  0  0  0  0  0  0  0
    5.3088   11.6641   27.1176 O   0  0  0  0  0  0  0  0  0  0  0  0
    6.8139   13.1921   25.8842 N   0  0  0  0  0  0  0  0  0  0  0  0
    7.7301   12.4461   25.1472 C   0  0  0  0  0  0  0  0  0  0  0  0
    7.6418   11.0611   25.0388 C   0  0  0  0  0  0  0  0  0  0  0  0
    8.5627   10.3669   24.2491 C   0  0  0  0  0  0  0  0  0  0  0  0
    9.5752   11.0437   23.5719 C   0  0  0  0  0  0  0  0  0  0  0  0
    9.6975   12.4244   23.7183 C   0  0  0  0  0  0  0  0  0  0  0  0
   10.7612   13.0923   23.0846 N   0  0  0  0  0  0  0  0  0  0  0  0
   11.7410   13.7213   23.8058 C   0  0  0  0  0  0  0  0  0  0  0  0
   12.0082   13.5710   24.9918 O   0  0  0  0  0  0  0  0  0  0  0  0
   12.4113   14.7501   22.9216 C   0  0  0  0  0  0  0  0  0  0  0  0
   11.6195   14.6738   21.7543 N   0  0  0  0  0  0  0  0  0  0  0  0
   10.5313   13.8823   21.9988 C   0  0  0  0  0  0  0  0  0  0  0  0
    9.4971   14.0191   21.3723 O   0  0  0  0  0  0  0  0  0  0  0  0
    8.7666   13.1188   24.4954 C   0  0  0  0  0  0  0  0  0  0  0  0
    8.8803   14.4500   24.6462 F   0  0  0  0  0  0  0  0  0  0  0  0
  1  2  2  0
  2  3  1  0
  2  4  1  0
  4  5  2  0
  4  6  1  0
  6  7  1  0
  7  8  2  0
  8  9  1  0
  9 10  2  0
 10 11  1  0
 11 12  1  0
 12 13  1  0
 13 14  2  0
 13 15  1  0
 15 16  1  0
 16 17  1  0
 17 18  2  0
 11 19  2  0
 19 20  1  0
 19  7  1  0
 17 12  1  0
M  END
>  <alias>  (261) 
None

>  <rmsd(smina/fragmenstein)>  (261) 
0.66

>  <smiles>  (261) 
C=C(Br)C(=O)Nc1cccc(N2C(=O)CNC2=O)c1F

>  <gnina_score>  (261) 
5.261

>  <inspiration_score>  (261) 
None

>  <energy_score>  (261) 
-39.82518

>  <distance_score>  (261) 
1.549211

>  <gnina_score_min>  (261) 
5.312

>  <inchikey>  (261) 
MASWZFUXZSCAGV-UHFFFAOYSA-N

>  <exports>  (261) 
['/opt/xchem-fragalysis-2/maxwin/BulkDock/OUTPUTS/openbind_a71ev2a_c2_elabs_1LOUU54.sdf', '/opt/xchem-fragalysis-2/maxwin/BulkDock/OUTPUTS/openbind_a71ev2a_c2_elabs_1LSYIDY.sdf']

>  <name>  (261) 
P544962

>  <ref_pdb>  (261) 
A0884a

>  <subsites>  (261) 
None

>  <HIPPO Pose ID>  (261) 
544962

>  <ref_mols>  (261) 
A0884a

>  <HIPPO Compound ID>  (261) 
383256

>  <tags>  (261) 
openbind_a71ev2a_c2_elabs,syndirella_product,openbind_a71ev2a_c2_elabs_fragonly_scored_top80percent,openbind_a71ev2a_c2_elabs_scored,BulkDock Fragalysis export,openbind_a71ev2a_c2_elabs_scored_top80percent,openbind_a71ev2a_c2_elabs_activefrags_only_scored_5.2plus,syndirella_placed

>  <smina_score_min>  (261) 
-6.629

$$$$
P544968
     RDKit          3D

 20 21  0  0  0  0  0  0  0  0999 V2000
    9.1165    9.5445   23.8692 C   0  0  0  0  0  0  0  0  0  0  0  0
    8.8321   10.9808   24.1005 C   0  0  0  0  0  0  0  0  0  0  0  0
    7.7580   11.4190   24.8852 C   0  0  0  0  0  0  0  0  0  0  0  0
    7.4882   12.7833   24.9965 C   0  0  0  0  0  0  0  0  0  0  0  0
    6.4430   13.2705   25.7746 N   0  0  0  0  0  0  0  0  0  0  0  0
    5.4487   12.5317   26.6911 C   0  0  0  0  0  0  0  0  0  0  0  0
    5.3957   11.4092   26.9991 O   0  0  0  0  0  0  0  0  0  0  0  0
    4.4535   13.5273   27.2636 C   0  0  0  0  0  0  0  0  0  0  0  0
    4.5992   14.7274   27.0903 O   0  0  0  0  0  0  0  0  0  0  0  0
    8.2827   13.7038   24.3128 C   0  0  0  0  0  0  0  0  0  0  0  0
    9.3761   13.2602   23.5731 C   0  0  0  0  0  0  0  0  0  0  0  0
   10.1923   14.1801   22.8748 N   0  0  0  0  0  0  0  0  0  0  0  0
    9.6612   14.5799   21.5702 C   0  0  0  0  0  0  0  0  0  0  0  0
   10.6179   15.3733   20.7263 C   0  0  0  0  0  0  0  0  0  0  0  0
   11.9853   14.7883   20.8948 C   0  0  0  0  0  0  0  0  0  0  0  0
   12.6993   14.4298   19.9640 O   0  0  0  0  0  0  0  0  0  0  0  0
   12.3745   14.7057   22.1999 N   0  0  0  0  0  0  0  0  0  0  0  0
   11.5558   14.1576   23.1419 C   0  0  0  0  0  0  0  0  0  0  0  0
   12.0430   13.6566   24.1570 O   0  0  0  0  0  0  0  0  0  0  0  0
    9.6470   11.9034   23.4621 C   0  0  0  0  0  0  0  0  0  0  0  0
  1  2  1  0
  2  3  2  0
  3  4  1  0
  4  5  1  0
  5  6  1  0
  6  7  2  0
  6  8  1  0
  8  9  2  0
  4 10  2  0
 10 11  1  0
 11 12  1  0
 12 13  1  0
 13 14  1  0
 14 15  1  0
 15 16  2  0
 15 17  1  0
 17 18  1  0
 18 19  2  0
 11 20  2  0
 20  2  1  0
 18 12  1  0
M  END
>  <alias>  (262) 
None

>  <rmsd(smina/fragmenstein)>  (262) 
0.574

>  <smiles>  (262) 
Cc1cc(NC(=O)C=O)cc(N2CCC(=O)NC2=O)c1

>  <gnina_score>  (262) 
5.201

>  <inspiration_score>  (262) 
None

>  <energy_score>  (262) 
-18.215289

>  <distance_score>  (262) 
1.305041

>  <gnina_score_min>  (262) 
5.311

>  <inchikey>  (262) 
RUHOLWCWMWHZJG-UHFFFAOYSA-N

>  <exports>  (262) 
['/opt/xchem-fragalysis-2/maxwin/BulkDock/OUTPUTS/openbind_a71ev2a_c2_elabs_1LOUU54.sdf', '/opt/xchem-fragalysis-2/maxwin/BulkDock/OUTPUTS/openbind_a71ev2a_c2_elabs_1LSYIDY.sdf']

>  <name>  (262) 
P544968

>  <ref_pdb>  (262) 
A0884a

>  <subsites>  (262) 
None

>  <HIPPO Pose ID>  (262) 
544968

>  <ref_mols>  (262) 
A0884a

>  <HIPPO Compound ID>  (262) 
383265

>  <tags>  (262) 
openbind_a71ev2a_c2_elabs,syndirella_product,openbind_a71ev2a_c2_elabs_fragonly_scored_top80percent,openbind_a71ev2a_c2_elabs_scored,BulkDock Fragalysis export,openbind_a71ev2a_c2_elabs_scored_top80percent,openbind_a71ev2a_c2_elabs_activefrags_only_scored_5.2plus,syndirella_placed

>  <smina_score_min>  (262) 
-6.785

$$$$
P544969
     RDKit          3D

 20 21  0  0  0  0  0  0  0  0999 V2000
    4.8575   14.1510   27.3920 O   0  0  0  0  0  0  0  0  0  0  0  0
    4.8228   12.9421   27.5626 C   0  0  0  0  0  0  0  0  0  0  0  0
    5.7600   12.0254   26.7941 C   0  0  0  0  0  0  0  0  0  0  0  0
    5.7970   10.8876   27.0388 O   0  0  0  0  0  0  0  0  0  0  0  0
    6.5595   12.8532   25.7708 N   0  0  0  0  0  0  0  0  0  0  0  0
    7.6042   12.4846   24.9278 C   0  0  0  0  0  0  0  0  0  0  0  0
    7.9830   11.1515   24.7573 C   0  0  0  0  0  0  0  0  0  0  0  0
    9.0551   10.8550   23.9189 C   0  0  0  0  0  0  0  0  0  0  0  0
    9.5397    9.2624   23.5830 Cl  0  0  0  0  0  0  0  0  0  0  0  0
    9.7715   11.8567   23.2955 C   0  0  0  0  0  0  0  0  0  0  0  0
    9.3916   13.1791   23.4625 C   0  0  0  0  0  0  0  0  0  0  0  0
   10.1361   14.1895   22.8078 N   0  0  0  0  0  0  0  0  0  0  0  0
    9.5646   14.6492   21.5323 C   0  0  0  0  0  0  0  0  0  0  0  0
   10.5120   15.4422   20.6630 C   0  0  0  0  0  0  0  0  0  0  0  0
   11.8821   14.8820   20.9055 C   0  0  0  0  0  0  0  0  0  0  0  0
   12.5624   14.3405   20.0413 O   0  0  0  0  0  0  0  0  0  0  0  0
   12.2494   15.0071   22.2199 N   0  0  0  0  0  0  0  0  0  0  0  0
   11.5069   14.2520   23.0826 C   0  0  0  0  0  0  0  0  0  0  0  0
   12.0130   13.7215   24.0721 O   0  0  0  0  0  0  0  0  0  0  0  0
    8.2884   13.4987   24.2500 C   0  0  0  0  0  0  0  0  0  0  0  0
  1  2  2  0
  2  3  1  0
  3  4  2  0
  3  5  1  0
  5  6  1  0
  6  7  2  0
  7  8  1  0
  8  9  1  0
  8 10  2  0
 10 11  1  0
 11 12  1  0
 12 13  1  0
 13 14  1  0
 14 15  1  0
 15 16  2  0
 15 17  1  0
 17 18  1  0
 18 19  2  0
 11 20  2  0
 20  6  1  0
 18 12  1  0
M  END
>  <alias>  (263) 
None

>  <rmsd(smina/fragmenstein)>  (263) 
0.39

>  <smiles>  (263) 
O=CC(=O)Nc1cc(Cl)cc(N2CCC(=O)NC2=O)c1

>  <gnina_score>  (263) 
5.275

>  <inspiration_score>  (263) 
None

>  <energy_score>  (263) 
-1.897943

>  <distance_score>  (263) 
1.233008

>  <gnina_score_min>  (263) 
5.458

>  <inchikey>  (263) 
UXSPJYAHJVFSNU-UHFFFAOYSA-N

>  <exports>  (263) 
['/opt/xchem-fragalysis-2/maxwin/BulkDock/OUTPUTS/openbind_a71ev2a_c2_elabs_1LOUU54.sdf', '/opt/xchem-fragalysis-2/maxwin/BulkDock/OUTPUTS/openbind_a71ev2a_c2_elabs_1LSYIDY.sdf']

>  <name>  (263) 
P544969

>  <ref_pdb>  (263) 
A0884a

>  <subsites>  (263) 
None

>  <HIPPO Pose ID>  (263) 
544969

>  <ref_mols>  (263) 
A0884a

>  <HIPPO Compound ID>  (263) 
383266

>  <tags>  (263) 
openbind_a71ev2a_c2_elabs,syndirella_product,openbind_a71ev2a_c2_elabs_fragonly_scored_top80percent,openbind_a71ev2a_c2_elabs_scored,BulkDock Fragalysis export,openbind_a71ev2a_c2_elabs_scored_top80percent,openbind_a71ev2a_c2_elabs_activefrags_only_scored_5.2plus,syndirella_placed

>  <smina_score_min>  (263) 
-7.209

$$$$
P544972
     RDKit          3D

 20 21  0  0  0  0  0  0  0  0999 V2000
    4.7623   15.5662   27.0522 O   0  0  0  0  0  0  0  0  0  0  0  0
    4.3119   14.4610   27.3119 C   0  0  0  0  0  0  0  0  0  0  0  0
    5.0536   13.2073   26.8794 C   0  0  0  0  0  0  0  0  0  0  0  0
    4.7242   12.1635   27.2814 O   0  0  0  0  0  0  0  0  0  0  0  0
    6.2275   13.5997   25.9566 N   0  0  0  0  0  0  0  0  0  0  0  0
    7.1522   12.8064   25.2828 C   0  0  0  0  0  0  0  0  0  0  0  0
    7.1580   11.4219   25.4193 C   0  0  0  0  0  0  0  0  0  0  0  0
    8.0940   10.6636   24.7244 C   0  0  0  0  0  0  0  0  0  0  0  0
    9.0281   11.2802   23.8907 C   0  0  0  0  0  0  0  0  0  0  0  0
   10.0192   10.2207   22.9880 Cl  0  0  0  0  0  0  0  0  0  0  0  0
    9.0440   12.6765   23.7423 C   0  0  0  0  0  0  0  0  0  0  0  0
    9.9812   13.3464   22.8859 N   0  0  0  0  0  0  0  0  0  0  0  0
    9.4552   14.3200   21.9385 C   0  0  0  0  0  0  0  0  0  0  0  0
   10.4407   14.7950   20.8927 C   0  0  0  0  0  0  0  0  0  0  0  0
   11.8598   14.5011   21.2565 C   0  0  0  0  0  0  0  0  0  0  0  0
   12.7516   14.4642   20.4131 O   0  0  0  0  0  0  0  0  0  0  0  0
   12.0980   14.3033   22.5822 N   0  0  0  0  0  0  0  0  0  0  0  0
   11.2687   13.5611   23.3791 C   0  0  0  0  0  0  0  0  0  0  0  0
   11.6809   13.1352   24.4561 O   0  0  0  0  0  0  0  0  0  0  0  0
    8.0907   13.4279   24.4492 C   0  0  0  0  0  0  0  0  0  0  0  0
  1  2  2  0
  2  3  1  0
  3  4  2  0
  3  5  1  0
  5  6  1  0
  6  7  2  0
  7  8  1  0
  8  9  2  0
  9 10  1  0
  9 11  1  0
 11 12  1  0
 12 13  1  0
 13 14  1  0
 14 15  1  0
 15 16  2  0
 15 17  1  0
 17 18  1  0
 18 19  2  0
 11 20  2  0
 20  6  1  0
 18 12  1  0
M  END
>  <alias>  (264) 
None

>  <rmsd(smina/fragmenstein)>  (264) 
0.538

>  <smiles>  (264) 
O=CC(=O)Nc1ccc(Cl)c(N2CCC(=O)NC2=O)c1

>  <gnina_score>  (264) 
5.358

>  <inspiration_score>  (264) 
None

>  <energy_score>  (264) 
-10.459286

>  <distance_score>  (264) 
1.418661

>  <gnina_score_min>  (264) 
5.262

>  <inchikey>  (264) 
TYYDXCCCOWLAMX-UHFFFAOYSA-N

>  <exports>  (264) 
['/opt/xchem-fragalysis-2/maxwin/BulkDock/OUTPUTS/openbind_a71ev2a_c2_elabs_1LOUU54.sdf', '/opt/xchem-fragalysis-2/maxwin/BulkDock/OUTPUTS/openbind_a71ev2a_c2_elabs_1LSYIDY.sdf']

>  <name>  (264) 
P544972

>  <ref_pdb>  (264) 
A0884a

>  <subsites>  (264) 
None

>  <HIPPO Pose ID>  (264) 
544972

>  <ref_mols>  (264) 
A0884a

>  <HIPPO Compound ID>  (264) 
383270

>  <tags>  (264) 
openbind_a71ev2a_c2_elabs,syndirella_product,openbind_a71ev2a_c2_elabs_fragonly_scored_top80percent,openbind_a71ev2a_c2_elabs_scored,BulkDock Fragalysis export,openbind_a71ev2a_c2_elabs_scored_top80percent,openbind_a71ev2a_c2_elabs_activefrags_only_scored_5.2plus,syndirella_placed

>  <smina_score_min>  (264) 
-6.651

$$$$
P544973
     RDKit          3D

 20 21  0  0  0  0  0  0  0  0999 V2000
    4.9206   13.8940   27.5364 O   0  0  0  0  0  0  0  0  0  0  0  0
    4.9171   12.6776   27.6454 C   0  0  0  0  0  0  0  0  0  0  0  0
    5.8415   11.8206   26.7968 C   0  0  0  0  0  0  0  0  0  0  0  0
    5.8230   10.6614   26.9012 O   0  0  0  0  0  0  0  0  0  0  0  0
    6.6777   12.7264   25.8753 N   0  0  0  0  0  0  0  0  0  0  0  0
    7.7008   12.4128   24.9852 C   0  0  0  0  0  0  0  0  0  0  0  0
    8.0944   11.0940   24.7306 C   0  0  0  0  0  0  0  0  0  0  0  0
    9.1542   10.8661   23.8571 C   0  0  0  0  0  0  0  0  0  0  0  0
    9.7808    9.1817   23.3665 Br  0  0  0  0  0  0  0  0  0  0  0  0
    9.8323   11.9137   23.2756 C   0  0  0  0  0  0  0  0  0  0  0  0
    9.4430   13.2167   23.5299 C   0  0  0  0  0  0  0  0  0  0  0  0
   10.1703   14.2531   22.8968 N   0  0  0  0  0  0  0  0  0  0  0  0
    9.6486   14.6072   21.5736 C   0  0  0  0  0  0  0  0  0  0  0  0
   10.5973   15.4029   20.7244 C   0  0  0  0  0  0  0  0  0  0  0  0
   11.9655   14.8244   20.9076 C   0  0  0  0  0  0  0  0  0  0  0  0
   12.6646   14.4145   19.9877 O   0  0  0  0  0  0  0  0  0  0  0  0
   12.3566   14.7969   22.2140 N   0  0  0  0  0  0  0  0  0  0  0  0
   11.5385   14.2828   23.1747 C   0  0  0  0  0  0  0  0  0  0  0  0
   12.0191   13.8252   24.2132 O   0  0  0  0  0  0  0  0  0  0  0  0
    8.3581   13.4777   24.3575 C   0  0  0  0  0  0  0  0  0  0  0  0
  1  2  2  0
  2  3  1  0
  3  4  2  0
  3  5  1  0
  5  6  1  0
  6  7  2  0
  7  8  1  0
  8  9  1  0
  8 10  2  0
 10 11  1  0
 11 12  1  0
 12 13  1  0
 13 14  1  0
 14 15  1  0
 15 16  2  0
 15 17  1  0
 17 18  1  0
 18 19  2  0
 11 20  2  0
 20  6  1  0
 18 12  1  0
M  END
>  <alias>  (265) 
None

>  <rmsd(smina/fragmenstein)>  (265) 
0.212

>  <smiles>  (265) 
O=CC(=O)Nc1cc(Br)cc(N2CCC(=O)NC2=O)c1

>  <gnina_score>  (265) 
5.448

>  <inspiration_score>  (265) 
None

>  <energy_score>  (265) 
-21.117748

>  <distance_score>  (265) 
1.228174

>  <gnina_score_min>  (265) 
5.476

>  <inchikey>  (265) 
RBHRNUGEHWDODE-UHFFFAOYSA-N

>  <exports>  (265) 
['/opt/xchem-fragalysis-2/maxwin/BulkDock/OUTPUTS/openbind_a71ev2a_c2_elabs_1LOUU54.sdf', '/opt/xchem-fragalysis-2/maxwin/BulkDock/OUTPUTS/openbind_a71ev2a_c2_elabs_1LSYIDY.sdf']

>  <name>  (265) 
P544973

>  <ref_pdb>  (265) 
A0884a

>  <subsites>  (265) 
None

>  <HIPPO Pose ID>  (265) 
544973

>  <ref_mols>  (265) 
A0884a

>  <HIPPO Compound ID>  (265) 
383271

>  <tags>  (265) 
openbind_a71ev2a_c2_elabs,syndirella_product,openbind_a71ev2a_c2_elabs_fragonly_scored_top80percent,openbind_a71ev2a_c2_elabs_scored,BulkDock Fragalysis export,openbind_a71ev2a_c2_elabs_scored_top80percent,openbind_a71ev2a_c2_elabs_activefrags_only_scored_5.2plus,syndirella_placed

>  <smina_score_min>  (265) 
-6.466

$$$$
P544975
     RDKit          3D

 20 21  0  0  0  0  0  0  0  0999 V2000
    3.2191   12.2399   28.7868 C   0  0  0  0  0  0  0  0  0  0  0  0
    4.1368   12.8282   27.7291 C   0  0  0  0  0  0  0  0  0  0  0  0
    5.1025   11.7900   27.1633 C   0  0  0  0  0  0  0  0  0  0  0  0
    5.1667   10.6816   27.5289 O   0  0  0  0  0  0  0  0  0  0  0  0
    5.9057   12.5355   26.0561 N   0  0  0  0  0  0  0  0  0  0  0  0
    6.9760   12.1074   25.2702 C   0  0  0  0  0  0  0  0  0  0  0  0
    7.3092   10.7570   25.1919 C   0  0  0  0  0  0  0  0  0  0  0  0
    8.4017   10.3484   24.4296 C   0  0  0  0  0  0  0  0  0  0  0  0
    9.2555   11.2951   23.8898 C   0  0  0  0  0  0  0  0  0  0  0  0
   10.4052   10.8616   23.3670 F   0  0  0  0  0  0  0  0  0  0  0  0
    9.0068   12.6584   24.0726 C   0  0  0  0  0  0  0  0  0  0  0  0
   10.1056   13.5488   24.1119 N   0  0  0  0  0  0  0  0  0  0  0  0
   10.3706   14.2809   25.2499 C   0  0  0  0  0  0  0  0  0  0  0  0
    9.6156   14.6389   26.1482 O   0  0  0  0  0  0  0  0  0  0  0  0
   11.8300   14.6239   25.2729 C   0  0  0  0  0  0  0  0  0  0  0  0
   12.2778   14.0287   24.0634 N   0  0  0  0  0  0  0  0  0  0  0  0
   11.2387   13.4922   23.3523 C   0  0  0  0  0  0  0  0  0  0  0  0
   11.3918   13.1273   22.2055 O   0  0  0  0  0  0  0  0  0  0  0  0
    7.7605   13.0594   24.5997 C   0  0  0  0  0  0  0  0  0  0  0  0
    7.2866   14.4874   24.4666 C   0  0  0  0  0  0  0  0  0  0  0  0
  1  2  1  0
  2  3  1  0
  3  4  2  0
  3  5  1  0
  5  6  1  0
  6  7  2  0
  7  8  1  0
  8  9  2  0
  9 10  1  0
  9 11  1  0
 11 12  1  0
 12 13  1  0
 13 14  2  0
 13 15  1  0
 15 16  1  0
 16 17  1  0
 17 18  2  0
 11 19  2  0
 19 20  1  0
 19  6  1  0
 17 12  1  0
M  END
>  <alias>  (266) 
None

>  <rmsd(smina/fragmenstein)>  (266) 
2.078

>  <smiles>  (266) 
CCC(=O)Nc1ccc(F)c(N2C(=O)CNC2=O)c1C

>  <gnina_score>  (266) 
5.01

>  <inspiration_score>  (266) 
None

>  <energy_score>  (266) 
-31.26749

>  <distance_score>  (266) 
1.389065

>  <gnina_score_min>  (266) 
5.237

>  <inchikey>  (266) 
JKCYVIOYIHBUSA-UHFFFAOYSA-N

>  <exports>  (266) 
['/opt/xchem-fragalysis-2/maxwin/BulkDock/OUTPUTS/openbind_a71ev2a_c2_elabs_1LOUU54.sdf', '/opt/xchem-fragalysis-2/maxwin/BulkDock/OUTPUTS/openbind_a71ev2a_c2_elabs_1LSYIDY.sdf']

>  <name>  (266) 
P544975

>  <ref_pdb>  (266) 
A0884a

>  <subsites>  (266) 
None

>  <HIPPO Pose ID>  (266) 
544975

>  <ref_mols>  (266) 
A0884a

>  <HIPPO Compound ID>  (266) 
383276

>  <tags>  (266) 
openbind_a71ev2a_c2_elabs,syndirella_product,openbind_a71ev2a_c2_elabs_fragonly_scored_top80percent,openbind_a71ev2a_c2_elabs_scored,BulkDock Fragalysis export,openbind_a71ev2a_c2_elabs_scored_top80percent,openbind_a71ev2a_c2_elabs_activefrags_only_scored_5.2plus,syndirella_placed

>  <smina_score_min>  (266) 
-6.398

$$$$
P544979
     RDKit          3D

 20 21  0  0  0  0  0  0  0  0999 V2000
    3.6749   12.1322   28.7422 C   0  0  0  0  0  0  0  0  0  0  0  0
    4.4459   12.6624   27.7792 C   0  0  0  0  0  0  0  0  0  0  0  0
    4.2462   14.4564   27.2920 Br  0  0  0  0  0  0  0  0  0  0  0  0
    5.4650   11.7578   27.1003 C   0  0  0  0  0  0  0  0  0  0  0  0
    5.5160   10.6171   27.3512 O   0  0  0  0  0  0  0  0  0  0  0  0
    6.3157   12.6107   26.1246 N   0  0  0  0  0  0  0  0  0  0  0  0
    7.3108   12.2308   25.2145 C   0  0  0  0  0  0  0  0  0  0  0  0
    7.6547   10.8829   25.0837 C   0  0  0  0  0  0  0  0  0  0  0  0
    8.6957   10.4967   24.2470 C   0  0  0  0  0  0  0  0  0  0  0  0
    9.4292   11.4634   23.5735 C   0  0  0  0  0  0  0  0  0  0  0  0
    9.1031   12.8265   23.6838 C   0  0  0  0  0  0  0  0  0  0  0  0
    9.9478   13.7831   23.0258 N   0  0  0  0  0  0  0  0  0  0  0  0
    9.4799   14.2808   21.7312 C   0  0  0  0  0  0  0  0  0  0  0  0
   10.3671   15.3443   21.1079 C   0  0  0  0  0  0  0  0  0  0  0  0
   11.8362   15.1058   21.4096 C   0  0  0  0  0  0  0  0  0  0  0  0
   12.0751   13.8550   22.0847 N   0  0  0  0  0  0  0  0  0  0  0  0
   11.3257   13.6227   23.2164 C   0  0  0  0  0  0  0  0  0  0  0  0
   11.8350   13.2374   24.2651 O   0  0  0  0  0  0  0  0  0  0  0  0
    7.9942   13.2190   24.4640 C   0  0  0  0  0  0  0  0  0  0  0  0
    7.6148   14.6687   24.6100 C   0  0  0  0  0  0  0  0  0  0  0  0
  1  2  2  0
  2  3  1  0
  2  4  1  0
  4  5  2  0
  4  6  1  0
  6  7  1  0
  7  8  2  0
  8  9  1  0
  9 10  2  0
 10 11  1  0
 11 12  1  0
 12 13  1  0
 13 14  1  0
 14 15  1  0
 15 16  1  0
 16 17  1  0
 17 18  2  0
 11 19  2  0
 19 20  1  0
 19  7  1  0
 17 12  1  0
M  END
>  <alias>  (267) 
None

>  <rmsd(smina/fragmenstein)>  (267) 
0.426

>  <smiles>  (267) 
C=C(Br)C(=O)Nc1cccc(N2CCCNC2=O)c1C

>  <gnina_score>  (267) 
5.221

>  <inspiration_score>  (267) 
None

>  <energy_score>  (267) 
-16.17329

>  <distance_score>  (267) 
1.205246

>  <gnina_score_min>  (267) 
5.285

>  <inchikey>  (267) 
AOJPMDJWQLVJBW-UHFFFAOYSA-N

>  <exports>  (267) 
['/opt/xchem-fragalysis-2/maxwin/BulkDock/OUTPUTS/openbind_a71ev2a_c2_elabs_1LOUU54.sdf', '/opt/xchem-fragalysis-2/maxwin/BulkDock/OUTPUTS/openbind_a71ev2a_c2_elabs_1LSYIDY.sdf']

>  <name>  (267) 
P544979

>  <ref_pdb>  (267) 
A0884a

>  <subsites>  (267) 
None

>  <HIPPO Pose ID>  (267) 
544979

>  <ref_mols>  (267) 
A0884a

>  <HIPPO Compound ID>  (267) 
383284

>  <tags>  (267) 
openbind_a71ev2a_c2_elabs,syndirella_product,openbind_a71ev2a_c2_elabs_fragonly_scored_top80percent,openbind_a71ev2a_c2_elabs_scored,BulkDock Fragalysis export,openbind_a71ev2a_c2_elabs_scored_top80percent,openbind_a71ev2a_c2_elabs_activefrags_only_scored_5.2plus,syndirella_placed

>  <smina_score_min>  (267) 
-6.951

$$$$
P544983
     RDKit          3D

 20 21  0  0  0  0  0  0  0  0999 V2000
    6.1206   16.6997   27.9181 C   0  0  0  0  0  0  0  0  0  0  0  0
    5.5408   15.5160   28.1578 C   0  0  0  0  0  0  0  0  0  0  0  0
    4.6415   14.8072   27.1854 C   0  0  0  0  0  0  0  0  0  0  0  0
    5.2160   13.4335   26.8212 C   0  0  0  0  0  0  0  0  0  0  0  0
    4.7574   12.4233   27.1986 O   0  0  0  0  0  0  0  0  0  0  0  0
    6.4295   13.7031   25.8741 N   0  0  0  0  0  0  0  0  0  0  0  0
    7.3419   12.8217   25.3020 C   0  0  0  0  0  0  0  0  0  0  0  0
    7.1625   11.4451   25.3669 C   0  0  0  0  0  0  0  0  0  0  0  0
    8.0352   10.5985   24.6883 C   0  0  0  0  0  0  0  0  0  0  0  0
    9.0958   11.1102   23.9315 C   0  0  0  0  0  0  0  0  0  0  0  0
    9.9183   10.1280   23.1576 C   0  0  0  0  0  0  0  0  0  0  0  0
    9.3478   12.4937   23.9662 C   0  0  0  0  0  0  0  0  0  0  0  0
   10.5204   13.0304   23.3848 N   0  0  0  0  0  0  0  0  0  0  0  0
   11.4238   13.7562   24.1175 C   0  0  0  0  0  0  0  0  0  0  0  0
   11.4800   13.8959   25.3340 O   0  0  0  0  0  0  0  0  0  0  0  0
   12.3419   14.4921   23.1670 C   0  0  0  0  0  0  0  0  0  0  0  0
   11.7141   14.2380   21.9289 N   0  0  0  0  0  0  0  0  0  0  0  0
   10.4974   13.6523   22.1714 C   0  0  0  0  0  0  0  0  0  0  0  0
    9.5452   13.8703   21.4452 O   0  0  0  0  0  0  0  0  0  0  0  0
    8.4471   13.3424   24.6268 C   0  0  0  0  0  0  0  0  0  0  0  0
  1  2  2  0
  2  3  1  0
  3  4  1  0
  4  5  2  0
  4  6  1  0
  6  7  1  0
  7  8  2  0
  8  9  1  0
  9 10  2  0
 10 11  1  0
 10 12  1  0
 12 13  1  0
 13 14  1  0
 14 15  2  0
 14 16  1  0
 16 17  1  0
 17 18  1  0
 18 19  2  0
 12 20  2  0
 20  7  1  0
 18 13  1  0
M  END
>  <alias>  (268) 
None

>  <rmsd(smina/fragmenstein)>  (268) 
0.962

>  <smiles>  (268) 
C=CCC(=O)Nc1ccc(C)c(N2C(=O)CNC2=O)c1

>  <gnina_score>  (268) 
5.291

>  <inspiration_score>  (268) 
None

>  <energy_score>  (268) 
-32.437583

>  <distance_score>  (268) 
1.768693

>  <gnina_score_min>  (268) 
5.267

>  <inchikey>  (268) 
HVGKVVJANUKQAF-UHFFFAOYSA-N

>  <exports>  (268) 
['/opt/xchem-fragalysis-2/maxwin/BulkDock/OUTPUTS/openbind_a71ev2a_c2_elabs_1LOUU54.sdf', '/opt/xchem-fragalysis-2/maxwin/BulkDock/OUTPUTS/openbind_a71ev2a_c2_elabs_1LSYIDY.sdf']

>  <name>  (268) 
P544983

>  <ref_pdb>  (268) 
A0884a

>  <subsites>  (268) 
None

>  <HIPPO Pose ID>  (268) 
544983

>  <ref_mols>  (268) 
A0884a

>  <HIPPO Compound ID>  (268) 
383291

>  <tags>  (268) 
openbind_a71ev2a_c2_elabs,syndirella_product,openbind_a71ev2a_c2_elabs_fragonly_scored_top80percent,openbind_a71ev2a_c2_elabs_scored,BulkDock Fragalysis export,openbind_a71ev2a_c2_elabs_scored_top80percent,openbind_a71ev2a_c2_elabs_activefrags_only_scored_5.2plus,syndirella_placed

>  <smina_score_min>  (268) 
-6.291

$$$$
P544985
     RDKit          3D

 20 21  0  0  0  0  0  0  0  0999 V2000
    9.9146   10.1456   23.1427 C   0  0  0  0  0  0  0  0  0  0  0  0
    9.0879   11.1124   23.9319 C   0  0  0  0  0  0  0  0  0  0  0  0
    8.0349   10.5815   24.6857 C   0  0  0  0  0  0  0  0  0  0  0  0
    7.1725   11.4086   25.4002 C   0  0  0  0  0  0  0  0  0  0  0  0
    7.3560   12.7859   25.3771 C   0  0  0  0  0  0  0  0  0  0  0  0
    6.4753   13.6488   26.0214 N   0  0  0  0  0  0  0  0  0  0  0  0
    5.2221   13.3439   26.9158 C   0  0  0  0  0  0  0  0  0  0  0  0
    4.7037   12.3220   27.1764 O   0  0  0  0  0  0  0  0  0  0  0  0
    4.6853   14.6853   27.4415 C   0  0  0  0  0  0  0  0  0  0  0  0
    5.9671   15.5371   28.3310 Cl  0  0  0  0  0  0  0  0  0  0  0  0
    4.0886   15.6555   26.0870 Cl  0  0  0  0  0  0  0  0  0  0  0  0
    8.4494   13.3254   24.6961 C   0  0  0  0  0  0  0  0  0  0  0  0
    9.3393   12.4952   23.9974 C   0  0  0  0  0  0  0  0  0  0  0  0
   10.5087   13.0425   23.4204 N   0  0  0  0  0  0  0  0  0  0  0  0
   11.4076   13.7810   24.1451 C   0  0  0  0  0  0  0  0  0  0  0  0
   11.4572   13.9414   25.3592 O   0  0  0  0  0  0  0  0  0  0  0  0
   12.3347   14.4937   23.1848 C   0  0  0  0  0  0  0  0  0  0  0  0
   11.7109   14.2200   21.9484 N   0  0  0  0  0  0  0  0  0  0  0  0
   10.4929   13.6391   22.1946 C   0  0  0  0  0  0  0  0  0  0  0  0
    9.5440   13.8420   21.4598 O   0  0  0  0  0  0  0  0  0  0  0  0
  1  2  1  0
  2  3  2  0
  3  4  1  0
  4  5  2  0
  5  6  1  0
  6  7  1  0
  7  8  2  0
  7  9  1  0
  9 10  1  0
  9 11  1  0
  5 12  1  0
 12 13  2  0
 13 14  1  0
 14 15  1  0
 15 16  2  0
 15 17  1  0
 17 18  1  0
 18 19  1  0
 19 20  2  0
 13  2  1  0
 19 14  1  0
M  END
>  <alias>  (269) 
None

>  <rmsd(smina/fragmenstein)>  (269) 
1.015

>  <smiles>  (269) 
Cc1ccc(NC(=O)C(Cl)Cl)cc1N1C(=O)CNC1=O

>  <gnina_score>  (269) 
5.352

>  <inspiration_score>  (269) 
None

>  <energy_score>  (269) 
-37.252124

>  <distance_score>  (269) 
1.741921

>  <gnina_score_min>  (269) 
5.294

>  <inchikey>  (269) 
BZTNURPOFKHPMW-UHFFFAOYSA-N

>  <exports>  (269) 
['/opt/xchem-fragalysis-2/maxwin/BulkDock/OUTPUTS/openbind_a71ev2a_c2_elabs_1LOUU54.sdf', '/opt/xchem-fragalysis-2/maxwin/BulkDock/OUTPUTS/openbind_a71ev2a_c2_elabs_1LSYIDY.sdf']

>  <name>  (269) 
P544985

>  <ref_pdb>  (269) 
A0884a

>  <subsites>  (269) 
None

>  <HIPPO Pose ID>  (269) 
544985

>  <ref_mols>  (269) 
A0884a

>  <HIPPO Compound ID>  (269) 
383295

>  <tags>  (269) 
openbind_a71ev2a_c2_elabs,syndirella_product,openbind_a71ev2a_c2_elabs_fragonly_scored_top80percent,openbind_a71ev2a_c2_elabs_scored,BulkDock Fragalysis export,openbind_a71ev2a_c2_elabs_scored_top80percent,openbind_a71ev2a_c2_elabs_activefrags_only_scored_5.2plus,syndirella_placed

>  <smina_score_min>  (269) 
-6.722

$$$$
P544997
     RDKit          3D

 20 21  0  0  0  0  0  0  0  0999 V2000
    4.1972   14.5676   29.4750 C   0  0  0  0  0  0  0  0  0  0  0  0
    4.0466   13.8790   28.3360 C   0  0  0  0  0  0  0  0  0  0  0  0
    4.8791   14.0835   27.1012 C   0  0  0  0  0  0  0  0  0  0  0  0
    5.5596   12.7770   26.6470 C   0  0  0  0  0  0  0  0  0  0  0  0
    5.1823   11.7074   26.9394 O   0  0  0  0  0  0  0  0  0  0  0  0
    6.7312   13.2159   25.7105 N   0  0  0  0  0  0  0  0  0  0  0  0
    7.6926   12.4564   25.0494 C   0  0  0  0  0  0  0  0  0  0  0  0
    7.6475   11.0656   25.0256 C   0  0  0  0  0  0  0  0  0  0  0  0
    8.5942   10.3538   24.2836 C   0  0  0  0  0  0  0  0  0  0  0  0
    9.6031   11.0175   23.5869 C   0  0  0  0  0  0  0  0  0  0  0  0
    9.6858   12.4067   23.6532 C   0  0  0  0  0  0  0  0  0  0  0  0
   10.7341   13.0763   22.9927 N   0  0  0  0  0  0  0  0  0  0  0  0
   11.7907   13.5980   23.6939 C   0  0  0  0  0  0  0  0  0  0  0  0
   12.1515   13.3024   24.8269 O   0  0  0  0  0  0  0  0  0  0  0  0
   12.4031   14.7245   22.8888 C   0  0  0  0  0  0  0  0  0  0  0  0
   11.5492   14.7623   21.7645 N   0  0  0  0  0  0  0  0  0  0  0  0
   10.4709   13.9515   21.9814 C   0  0  0  0  0  0  0  0  0  0  0  0
    9.4207   14.1203   21.3905 O   0  0  0  0  0  0  0  0  0  0  0  0
    8.7200   13.1179   24.3731 C   0  0  0  0  0  0  0  0  0  0  0  0
    8.8001   14.4575   24.4573 F   0  0  0  0  0  0  0  0  0  0  0  0
  1  2  2  0
  2  3  1  0
  3  4  1  0
  4  5  2  0
  4  6  1  0
  6  7  1  0
  7  8  2  0
  8  9  1  0
  9 10  2  0
 10 11  1  0
 11 12  1  0
 12 13  1  0
 13 14  2  0
 13 15  1  0
 15 16  1  0
 16 17  1  0
 17 18  2  0
 11 19  2  0
 19 20  1  0
 19  7  1  0
 17 12  1  0
M  END
>  <alias>  (270) 
None

>  <rmsd(smina/fragmenstein)>  (270) 
0.748

>  <smiles>  (270) 
C=CCC(=O)Nc1cccc(N2C(=O)CNC2=O)c1F

>  <gnina_score>  (270) 
5.236

>  <inspiration_score>  (270) 
None

>  <energy_score>  (270) 
-12.576429

>  <distance_score>  (270) 
1.585429

>  <gnina_score_min>  (270) 
5.261

>  <inchikey>  (270) 
BFZRCTQHYWYWNY-UHFFFAOYSA-N

>  <exports>  (270) 
['/opt/xchem-fragalysis-2/maxwin/BulkDock/OUTPUTS/openbind_a71ev2a_c2_elabs_1LOUU54.sdf', '/opt/xchem-fragalysis-2/maxwin/BulkDock/OUTPUTS/openbind_a71ev2a_c2_elabs_1LSYIDY.sdf']

>  <name>  (270) 
P544997

>  <ref_pdb>  (270) 
A0884a

>  <subsites>  (270) 
None

>  <HIPPO Pose ID>  (270) 
544997

>  <ref_mols>  (270) 
A0884a

>  <HIPPO Compound ID>  (270) 
383330

>  <tags>  (270) 
openbind_a71ev2a_c2_elabs,syndirella_product,openbind_a71ev2a_c2_elabs_fragonly_scored_top80percent,openbind_a71ev2a_c2_elabs_scored,BulkDock Fragalysis export,openbind_a71ev2a_c2_elabs_scored_top80percent,openbind_a71ev2a_c2_elabs_activefrags_only_scored_5.2plus,syndirella_placed

>  <smina_score_min>  (270) 
-6.156

$$$$
P544999
     RDKit          3D

 20 21  0  0  0  0  0  0  0  0999 V2000
    6.4502   13.7088   29.3145 C   0  0  0  0  0  0  0  0  0  0  0  0
    5.2796   13.9602   28.7130 C   0  0  0  0  0  0  0  0  0  0  0  0
    4.6273   13.1707   27.6110 C   0  0  0  0  0  0  0  0  0  0  0  0
    5.4709   12.0384   27.0060 C   0  0  0  0  0  0  0  0  0  0  0  0
    5.2809   10.9051   27.2295 O   0  0  0  0  0  0  0  0  0  0  0  0
    6.5440   12.7248   26.1045 N   0  0  0  0  0  0  0  0  0  0  0  0
    7.5041   12.1689   25.2524 C   0  0  0  0  0  0  0  0  0  0  0  0
    7.6063   10.7876   25.1164 C   0  0  0  0  0  0  0  0  0  0  0  0
    8.5733   10.2333   24.2818 C   0  0  0  0  0  0  0  0  0  0  0  0
    9.4859   11.0426   23.6231 C   0  0  0  0  0  0  0  0  0  0  0  0
    9.4376   12.4259   23.7938 C   0  0  0  0  0  0  0  0  0  0  0  0
   10.5228   13.1516   23.2655 N   0  0  0  0  0  0  0  0  0  0  0  0
   11.4293   13.8278   24.0348 C   0  0  0  0  0  0  0  0  0  0  0  0
   11.5173   13.8585   25.2559 O   0  0  0  0  0  0  0  0  0  0  0  0
   12.3150   14.6411   23.1151 C   0  0  0  0  0  0  0  0  0  0  0  0
   11.6684   14.4634   21.8714 N   0  0  0  0  0  0  0  0  0  0  0  0
   10.4925   13.7863   22.0622 C   0  0  0  0  0  0  0  0  0  0  0  0
    9.5575   13.9167   21.2956 O   0  0  0  0  0  0  0  0  0  0  0  0
    8.3935   13.0078   24.5481 C   0  0  0  0  0  0  0  0  0  0  0  0
    8.2445   14.4981   24.6158 C   0  0  0  0  0  0  0  0  0  0  0  0
  1  2  2  0
  2  3  1  0
  3  4  1  0
  4  5  2  0
  4  6  1  0
  6  7  1  0
  7  8  2  0
  8  9  1  0
  9 10  2  0
 10 11  1  0
 11 12  1  0
 12 13  1  0
 13 14  2  0
 13 15  1  0
 15 16  1  0
 16 17  1  0
 17 18  2  0
 11 19  2  0
 19 20  1  0
 19  7  1  0
 17 12  1  0
M  END
>  <alias>  (271) 
None

>  <rmsd(smina/fragmenstein)>  (271) 
0.671

>  <smiles>  (271) 
C=CCC(=O)Nc1cccc(N2C(=O)CNC2=O)c1C

>  <gnina_score>  (271) 
5.17

>  <inspiration_score>  (271) 
None

>  <energy_score>  (271) 
-22.385487

>  <distance_score>  (271) 
1.530807

>  <gnina_score_min>  (271) 
5.248

>  <inchikey>  (271) 
SIKKSXPRAWKJJH-UHFFFAOYSA-N

>  <exports>  (271) 
['/opt/xchem-fragalysis-2/maxwin/BulkDock/OUTPUTS/openbind_a71ev2a_c2_elabs_1LOUU54.sdf', '/opt/xchem-fragalysis-2/maxwin/BulkDock/OUTPUTS/openbind_a71ev2a_c2_elabs_1LSYIDY.sdf']

>  <name>  (271) 
P544999

>  <ref_pdb>  (271) 
A0884a

>  <subsites>  (271) 
None

>  <HIPPO Pose ID>  (271) 
544999

>  <ref_mols>  (271) 
A0884a

>  <HIPPO Compound ID>  (271) 
383332

>  <tags>  (271) 
openbind_a71ev2a_c2_elabs,syndirella_product,openbind_a71ev2a_c2_elabs_fragonly_scored_top80percent,openbind_a71ev2a_c2_elabs_scored,BulkDock Fragalysis export,openbind_a71ev2a_c2_elabs_scored_top80percent,openbind_a71ev2a_c2_elabs_activefrags_only_scored_5.2plus,syndirella_placed

>  <smina_score_min>  (271) 
-6.201

$$$$
P545000
     RDKit          3D

 20 21  0  0  0  0  0  0  0  0999 V2000
    2.2091   14.1022   26.8276 C   0  0  0  0  0  0  0  0  0  0  0  0
    3.4583   14.0087   26.3543 C   0  0  0  0  0  0  0  0  0  0  0  0
    4.6661   13.7764   27.2112 C   0  0  0  0  0  0  0  0  0  0  0  0
    5.4612   12.5625   26.7121 C   0  0  0  0  0  0  0  0  0  0  0  0
    5.2936   11.4752   27.1143 O   0  0  0  0  0  0  0  0  0  0  0  0
    6.4563   13.1007   25.6354 N   0  0  0  0  0  0  0  0  0  0  0  0
    7.4674   12.4512   24.9363 C   0  0  0  0  0  0  0  0  0  0  0  0
    7.6696   11.0762   25.0231 C   0  0  0  0  0  0  0  0  0  0  0  0
    8.7087   10.4812   24.3043 C   0  0  0  0  0  0  0  0  0  0  0  0
    9.5807   11.2624   23.5474 C   0  0  0  0  0  0  0  0  0  0  0  0
    9.3859   12.6415   23.4625 C   0  0  0  0  0  0  0  0  0  0  0  0
   10.2724   13.4512   22.6945 N   0  0  0  0  0  0  0  0  0  0  0  0
    9.7302   14.2074   21.6507 C   0  0  0  0  0  0  0  0  0  0  0  0
    8.5360   14.1842   21.3322 O   0  0  0  0  0  0  0  0  0  0  0  0
   10.6683   15.1364   20.9210 C   0  0  0  0  0  0  0  0  0  0  0  0
   12.0981   14.7049   21.0949 C   0  0  0  0  0  0  0  0  0  0  0  0
   12.3685   14.4647   22.4762 N   0  0  0  0  0  0  0  0  0  0  0  0
   11.5576   13.6410   23.1918 C   0  0  0  0  0  0  0  0  0  0  0  0
   11.9974   13.2016   24.2497 O   0  0  0  0  0  0  0  0  0  0  0  0
    8.3050   13.2260   24.1326 C   0  0  0  0  0  0  0  0  0  0  0  0
  1  2  2  0
  2  3  1  0
  3  4  1  0
  4  5  2  0
  4  6  1  0
  6  7  1  0
  7  8  2  0
  8  9  1  0
  9 10  2  0
 10 11  1  0
 11 12  1  0
 12 13  1  0
 13 14  2  0
 13 15  1  0
 15 16  1  0
 16 17  1  0
 17 18  1  0
 18 19  2  0
 11 20  2  0
 20  7  1  0
 18 12  1  0
M  END
>  <alias>  (272) 
None

>  <rmsd(smina/fragmenstein)>  (272) 
0.62

>  <smiles>  (272) 
C=CCC(=O)Nc1cccc(N2C(=O)CCNC2=O)c1

>  <gnina_score>  (272) 
5.064

>  <inspiration_score>  (272) 
None

>  <energy_score>  (272) 
-38.37634

>  <distance_score>  (272) 
1.364543

>  <gnina_score_min>  (272) 
5.202

>  <inchikey>  (272) 
VGUWTMUMOCTYRQ-UHFFFAOYSA-N

>  <exports>  (272) 
['/opt/xchem-fragalysis-2/maxwin/BulkDock/OUTPUTS/openbind_a71ev2a_c2_elabs_1LOUU54.sdf', '/opt/xchem-fragalysis-2/maxwin/BulkDock/OUTPUTS/openbind_a71ev2a_c2_elabs_1LSYIDY.sdf']

>  <name>  (272) 
P545000

>  <ref_pdb>  (272) 
A0884a

>  <subsites>  (272) 
None

>  <HIPPO Pose ID>  (272) 
545000

>  <ref_mols>  (272) 
A0884a

>  <HIPPO Compound ID>  (272) 
383333

>  <tags>  (272) 
openbind_a71ev2a_c2_elabs,syndirella_product,openbind_a71ev2a_c2_elabs_fragonly_scored_top80percent,openbind_a71ev2a_c2_elabs_scored,BulkDock Fragalysis export,openbind_a71ev2a_c2_elabs_scored_top80percent,openbind_a71ev2a_c2_elabs_activefrags_only_scored_5.2plus,syndirella_placed

>  <smina_score_min>  (272) 
-6.87

$$$$
P545002
     RDKit          3D

 20 21  0  0  0  0  0  0  0  0999 V2000
    3.9600   13.9642   26.8341 C   0  0  0  0  0  0  0  0  0  0  0  0
    4.6708   13.1239   27.6003 C   0  0  0  0  0  0  0  0  0  0  0  0
    4.6142   13.1727   29.4626 Br  0  0  0  0  0  0  0  0  0  0  0  0
    5.4980   12.0375   26.9685 C   0  0  0  0  0  0  0  0  0  0  0  0
    5.3654   10.9124   27.2548 O   0  0  0  0  0  0  0  0  0  0  0  0
    6.4563   12.7101   25.9482 N   0  0  0  0  0  0  0  0  0  0  0  0
    7.4791   12.1636   25.1668 C   0  0  0  0  0  0  0  0  0  0  0  0
    7.6157   10.7814   25.0703 C   0  0  0  0  0  0  0  0  0  0  0  0
    8.6130   10.2284   24.2731 C   0  0  0  0  0  0  0  0  0  0  0  0
    9.5230   11.0427   23.6184 C   0  0  0  0  0  0  0  0  0  0  0  0
    9.4427   12.4284   23.7541 C   0  0  0  0  0  0  0  0  0  0  0  0
   10.5218   13.1629   23.2264 N   0  0  0  0  0  0  0  0  0  0  0  0
   11.4328   13.8236   24.0038 C   0  0  0  0  0  0  0  0  0  0  0  0
   11.5298   13.8239   25.2247 O   0  0  0  0  0  0  0  0  0  0  0  0
   12.3078   14.6625   23.0973 C   0  0  0  0  0  0  0  0  0  0  0  0
   11.6515   14.5122   21.8549 N   0  0  0  0  0  0  0  0  0  0  0  0
   10.4837   13.8185   22.0346 C   0  0  0  0  0  0  0  0  0  0  0  0
    9.5485   13.9451   21.2678 O   0  0  0  0  0  0  0  0  0  0  0  0
    8.3681   13.0067   24.4668 C   0  0  0  0  0  0  0  0  0  0  0  0
    8.1825   14.4948   24.4931 C   0  0  0  0  0  0  0  0  0  0  0  0
  1  2  2  0
  2  3  1  0
  2  4  1  0
  4  5  2  0
  4  6  1  0
  6  7  1  0
  7  8  2  0
  8  9  1  0
  9 10  2  0
 10 11  1  0
 11 12  1  0
 12 13  1  0
 13 14  2  0
 13 15  1  0
 15 16  1  0
 16 17  1  0
 17 18  2  0
 11 19  2  0
 19 20  1  0
 19  7  1  0
 17 12  1  0
M  END
>  <alias>  (273) 
None

>  <rmsd(smina/fragmenstein)>  (273) 
0.552

>  <smiles>  (273) 
C=C(Br)C(=O)Nc1cccc(N2C(=O)CNC2=O)c1C

>  <gnina_score>  (273) 
5.222

>  <inspiration_score>  (273) 
None

>  <energy_score>  (273) 
-21.466735

>  <distance_score>  (273) 
1.5292

>  <gnina_score_min>  (273) 
5.266

>  <inchikey>  (273) 
FKXVUIULOOUBAO-UHFFFAOYSA-N

>  <exports>  (273) 
['/opt/xchem-fragalysis-2/maxwin/BulkDock/OUTPUTS/openbind_a71ev2a_c2_elabs_1LOUU54.sdf', '/opt/xchem-fragalysis-2/maxwin/BulkDock/OUTPUTS/openbind_a71ev2a_c2_elabs_1LSYIDY.sdf']

>  <name>  (273) 
P545002

>  <ref_pdb>  (273) 
A0884a

>  <subsites>  (273) 
None

>  <HIPPO Pose ID>  (273) 
545002

>  <ref_mols>  (273) 
A0884a

>  <HIPPO Compound ID>  (273) 
383336

>  <tags>  (273) 
openbind_a71ev2a_c2_elabs,syndirella_product,openbind_a71ev2a_c2_elabs_fragonly_scored_top80percent,openbind_a71ev2a_c2_elabs_scored,BulkDock Fragalysis export,openbind_a71ev2a_c2_elabs_scored_top80percent,openbind_a71ev2a_c2_elabs_activefrags_only_scored_5.2plus,syndirella_placed

>  <smina_score_min>  (273) 
-6.547

$$$$
P545006
     RDKit          3D

 20 21  0  0  0  0  0  0  0  0999 V2000
   12.0669   16.0805   25.5814 O   0  0  0  0  0  0  0  0  0  0  0  0
   11.7583   15.1166   24.8702 C   0  0  0  0  0  0  0  0  0  0  0  0
   10.8773   14.1486   25.4886 C   0  0  0  0  0  0  0  0  0  0  0  0
   11.1046   12.9115   24.7039 C   0  0  0  0  0  0  0  0  0  0  0  0
   10.6506   13.0565   23.3449 N   0  0  0  0  0  0  0  0  0  0  0  0
    9.3517   12.4942   23.1909 C   0  0  0  0  0  0  0  0  0  0  0  0
    9.2402   11.1322   23.5362 C   0  0  0  0  0  0  0  0  0  0  0  0
    8.1860   10.7111   24.3364 C   0  0  0  0  0  0  0  0  0  0  0  0
    7.2037   11.6265   24.7130 C   0  0  0  0  0  0  0  0  0  0  0  0
    7.2041   12.9221   24.1832 C   0  0  0  0  0  0  0  0  0  0  0  0
    6.1786   13.8189   24.4610 N   0  0  0  0  0  0  0  0  0  0  0  0
    4.9988   13.7286   25.4904 C   0  0  0  0  0  0  0  0  0  0  0  0
    4.7637   12.9197   26.3085 O   0  0  0  0  0  0  0  0  0  0  0  0
    4.1505   14.9930   25.2627 C   0  0  1  0  0  0  0  0  0  0  0  0
    4.5794   15.7142   24.1848 F   0  0  0  0  0  0  0  0  0  0  0  0
    2.4549   14.5357   25.0222 Cl  0  0  0  0  0  0  0  0  0  0  0  0
    8.2626   13.3499   23.3820 C   0  0  0  0  0  0  0  0  0  0  0  0
   11.1170   14.2021   22.7117 C   0  0  0  0  0  0  0  0  0  0  0  0
   10.8029   14.5871   21.5960 O   0  0  0  0  0  0  0  0  0  0  0  0
   11.9494   14.9732   23.5076 N   0  0  0  0  0  0  0  0  0  0  0  0
  1  2  2  0
  2  3  1  0
  3  4  1  0
  4  5  1  0
  5  6  1  0
  6  7  2  0
  7  8  1  0
  8  9  2  0
  9 10  1  0
 10 11  1  0
 11 12  1  0
 12 13  2  0
 12 14  1  0
 14 15  1  6
 14 16  1  0
 10 17  2  0
  5 18  1  0
 18 19  2  0
 18 20  1  0
 20  2  1  0
 17  6  1  0
M  END
>  <alias>  (274) 
None

>  <rmsd(smina/fragmenstein)>  (274) 
0.503

>  <smiles>  (274) 
O=C1CCN(c2cccc(NC(=O)[C@@H](F)Cl)c2)C(=O)N1

>  <gnina_score>  (274) 
5.116

>  <inspiration_score>  (274) 
None

>  <energy_score>  (274) 
-8.494315

>  <distance_score>  (274) 
1.807437

>  <gnina_score_min>  (274) 
5.323

>  <inchikey>  (274) 
QZUPLRFYXSKWEF-SNVBAGLBSA-N

>  <exports>  (274) 
['/opt/xchem-fragalysis-2/maxwin/BulkDock/OUTPUTS/openbind_a71ev2a_c2_elabs_1LOUU54.sdf', '/opt/xchem-fragalysis-2/maxwin/BulkDock/OUTPUTS/openbind_a71ev2a_c2_elabs_1LSYIDY.sdf']

>  <name>  (274) 
P545006

>  <ref_pdb>  (274) 
A0884a

>  <subsites>  (274) 
None

>  <HIPPO Pose ID>  (274) 
545006

>  <ref_mols>  (274) 
A0884a

>  <HIPPO Compound ID>  (274) 
383343

>  <tags>  (274) 
openbind_a71ev2a_c2_elabs,syndirella_product,openbind_a71ev2a_c2_elabs_fragonly_scored_top80percent,openbind_a71ev2a_c2_elabs_scored,BulkDock Fragalysis export,openbind_a71ev2a_c2_elabs_scored_top80percent,openbind_a71ev2a_c2_elabs_activefrags_only_scored_5.2plus,syndirella_placed

>  <smina_score_min>  (274) 
-4.709

$$$$
P545013
     RDKit          3D

 20 21  0  0  0  0  0  0  0  0999 V2000
    3.5243   13.5752   28.2003 C   0  0  0  0  0  0  0  0  0  0  0  0
    4.5031   12.7388   27.8311 C   0  0  0  0  0  0  0  0  0  0  0  0
    4.5175   11.1156   28.4207 Cl  0  0  0  0  0  0  0  0  0  0  0  0
    5.6141   13.2326   26.9287 C   0  0  0  0  0  0  0  0  0  0  0  0
    5.7753   14.3736   26.7339 O   0  0  0  0  0  0  0  0  0  0  0  0
    6.4033   11.9999   26.4048 N   0  0  0  0  0  0  0  0  0  0  0  0
    7.4644   11.9179   25.4834 C   0  0  0  0  0  0  0  0  0  0  0  0
    7.6803   10.6060   25.0241 C   0  0  0  0  0  0  0  0  0  0  0  0
    8.6586   10.3079   24.0847 C   0  0  0  0  0  0  0  0  0  0  0  0
    9.4458   11.3238   23.5946 C   0  0  0  0  0  0  0  0  0  0  0  0
   10.3730   11.0198   22.6843 F   0  0  0  0  0  0  0  0  0  0  0  0
    9.3167   12.6294   24.0721 C   0  0  0  0  0  0  0  0  0  0  0  0
   10.2443   13.6104   23.6461 N   0  0  0  0  0  0  0  0  0  0  0  0
   11.5827   13.6160   24.1984 C   0  0  0  0  0  0  0  0  0  0  0  0
   12.3370   14.5105   23.2379 C   0  0  0  0  0  0  0  0  0  0  0  0
   11.6530   14.3180   22.0181 N   0  0  0  0  0  0  0  0  0  0  0  0
   10.3597   13.9243   22.2799 C   0  0  0  0  0  0  0  0  0  0  0  0
    9.4808   13.9235   21.4416 O   0  0  0  0  0  0  0  0  0  0  0  0
    8.3200   12.9465   25.0341 C   0  0  0  0  0  0  0  0  0  0  0  0
    8.2370   14.3543   25.5506 C   0  0  0  0  0  0  0  0  0  0  0  0
  1  2  2  0
  2  3  1  0
  2  4  1  0
  4  5  2  0
  4  6  1  0
  6  7  1  0
  7  8  2  0
  8  9  1  0
  9 10  2  0
 10 11  1  0
 10 12  1  0
 12 13  1  0
 13 14  1  0
 14 15  1  0
 15 16  1  0
 16 17  1  0
 17 18  2  0
 12 19  2  0
 19 20  1  0
 19  7  1  0
 17 13  1  0
M  END
>  <alias>  (275) 
None

>  <rmsd(smina/fragmenstein)>  (275) 
0.68

>  <smiles>  (275) 
C=C(Cl)C(=O)Nc1ccc(F)c(N2CCNC2=O)c1C

>  <gnina_score>  (275) 
5.392

>  <inspiration_score>  (275) 
None

>  <energy_score>  (275) 
-29.243463

>  <distance_score>  (275) 
1.5205

>  <gnina_score_min>  (275) 
5.345

>  <inchikey>  (275) 
FGPXQQWBADLYKM-UHFFFAOYSA-N

>  <exports>  (275) 
['/opt/xchem-fragalysis-2/maxwin/BulkDock/OUTPUTS/openbind_a71ev2a_c2_elabs_1LOUU54.sdf', '/opt/xchem-fragalysis-2/maxwin/BulkDock/OUTPUTS/openbind_a71ev2a_c2_elabs_1LSYIDY.sdf']

>  <name>  (275) 
P545013

>  <ref_pdb>  (275) 
A0884a

>  <subsites>  (275) 
None

>  <HIPPO Pose ID>  (275) 
545013

>  <ref_mols>  (275) 
A0884a

>  <HIPPO Compound ID>  (275) 
383351

>  <tags>  (275) 
openbind_a71ev2a_c2_elabs,syndirella_product,openbind_a71ev2a_c2_elabs_fragonly_scored_top80percent,openbind_a71ev2a_c2_elabs_scored,BulkDock Fragalysis export,openbind_a71ev2a_c2_elabs_scored_top80percent,openbind_a71ev2a_c2_elabs_activefrags_only_scored_5.2plus,syndirella_placed

>  <smina_score_min>  (275) 
-6.55

$$$$
P545017
     RDKit          3D

 20 21  0  0  0  0  0  0  0  0999 V2000
    3.6696   13.8441   28.5140 C   0  0  0  0  0  0  0  0  0  0  0  0
    4.4608   12.8859   28.0141 C   0  0  0  0  0  0  0  0  0  0  0  0
    4.2255   11.2417   28.4855 Cl  0  0  0  0  0  0  0  0  0  0  0  0
    5.5855   13.2548   27.0696 C   0  0  0  0  0  0  0  0  0  0  0  0
    5.9280   14.3644   26.9424 O   0  0  0  0  0  0  0  0  0  0  0  0
    6.0916   11.9606   26.3782 N   0  0  0  0  0  0  0  0  0  0  0  0
    7.1454   11.7628   25.4941 C   0  0  0  0  0  0  0  0  0  0  0  0
    7.4242   10.4716   25.0716 C   0  0  0  0  0  0  0  0  0  0  0  0
    8.4793   10.2292   24.1956 C   0  0  0  0  0  0  0  0  0  0  0  0
    9.2965   11.2682   23.7896 C   0  0  0  0  0  0  0  0  0  0  0  0
   10.3681   10.9499   23.0632 F   0  0  0  0  0  0  0  0  0  0  0  0
    9.0968   12.5577   24.2797 C   0  0  0  0  0  0  0  0  0  0  0  0
   10.1365   13.5059   24.2367 N   0  0  0  0  0  0  0  0  0  0  0  0
   10.4368   14.3020   25.3148 C   0  0  0  0  0  0  0  0  0  0  0  0
    9.7360   14.7046   26.2359 O   0  0  0  0  0  0  0  0  0  0  0  0
   11.8868   14.6542   25.2459 C   0  0  0  0  0  0  0  0  0  0  0  0
   12.2135   14.2264   23.9340 N   0  0  0  0  0  0  0  0  0  0  0  0
   11.1711   13.5682   23.3449 C   0  0  0  0  0  0  0  0  0  0  0  0
   11.2423   13.2108   22.1884 O   0  0  0  0  0  0  0  0  0  0  0  0
    7.9633   12.8041   25.0726 C   0  0  0  0  0  0  0  0  0  0  0  0
  1  2  2  0
  2  3  1  0
  2  4  1  0
  4  5  2  0
  4  6  1  0
  6  7  1  0
  7  8  2  0
  8  9  1  0
  9 10  2  0
 10 11  1  0
 10 12  1  0
 12 13  1  0
 13 14  1  0
 14 15  2  0
 14 16  1  0
 16 17  1  0
 17 18  1  0
 18 19  2  0
 12 20  2  0
 20  7  1  0
 18 13  1  0
M  END
>  <alias>  (276) 
None

>  <rmsd(smina/fragmenstein)>  (276) 
2.175

>  <smiles>  (276) 
C=C(Cl)C(=O)Nc1ccc(F)c(N2C(=O)CNC2=O)c1

>  <gnina_score>  (276) 
4.843

>  <inspiration_score>  (276) 
None

>  <energy_score>  (276) 
-31.701678

>  <distance_score>  (276) 
1.271942

>  <gnina_score_min>  (276) 
5.21

>  <inchikey>  (276) 
ADLRVBGSNZLVQE-UHFFFAOYSA-N

>  <exports>  (276) 
['/opt/xchem-fragalysis-2/maxwin/BulkDock/OUTPUTS/openbind_a71ev2a_c2_elabs_1LOUU54.sdf', '/opt/xchem-fragalysis-2/maxwin/BulkDock/OUTPUTS/openbind_a71ev2a_c2_elabs_1LSYIDY.sdf']

>  <name>  (276) 
P545017

>  <ref_pdb>  (276) 
A0884a

>  <subsites>  (276) 
None

>  <HIPPO Pose ID>  (276) 
545017

>  <ref_mols>  (276) 
A0884a

>  <HIPPO Compound ID>  (276) 
383359

>  <tags>  (276) 
openbind_a71ev2a_c2_elabs,syndirella_product,openbind_a71ev2a_c2_elabs_fragonly_scored_top80percent,openbind_a71ev2a_c2_elabs_scored,BulkDock Fragalysis export,openbind_a71ev2a_c2_elabs_scored_top80percent,openbind_a71ev2a_c2_elabs_activefrags_only_scored_5.2plus,syndirella_placed

>  <smina_score_min>  (276) 
-6.496

$$$$
P545018
     RDKit          3D

 20 21  0  0  0  0  0  0  0  0999 V2000
    4.6404   13.0842   29.1563 C   0  0  0  0  0  0  0  0  0  0  0  0
    5.0893   12.1760   28.0250 C   0  0  0  0  0  0  0  0  0  0  0  0
    6.3353   12.7046   27.3213 C   0  0  0  0  0  0  0  0  0  0  0  0
    6.8759   13.7039   27.5987 O   0  0  0  0  0  0  0  0  0  0  0  0
    6.6781   11.6370   26.2335 N   0  0  0  0  0  0  0  0  0  0  0  0
    7.6676   11.6351   25.2400 C   0  0  0  0  0  0  0  0  0  0  0  0
    8.0102   10.3494   24.8017 C   0  0  0  0  0  0  0  0  0  0  0  0
    9.0329   10.1326   23.8886 C   0  0  0  0  0  0  0  0  0  0  0  0
    9.6847   11.2155   23.3394 C   0  0  0  0  0  0  0  0  0  0  0  0
    9.3032   12.5169   23.6818 C   0  0  0  0  0  0  0  0  0  0  0  0
    9.8333   13.5629   22.8703 N   0  0  0  0  0  0  0  0  0  0  0  0
   11.2150   13.7655   22.8491 C   0  0  0  0  0  0  0  0  0  0  0  0
   12.0205   13.2019   23.5944 O   0  0  0  0  0  0  0  0  0  0  0  0
   11.7251   14.8389   21.9355 C   0  0  0  0  0  0  0  0  0  0  0  0
   10.8017   15.0511   20.7690 C   0  0  0  0  0  0  0  0  0  0  0  0
    9.4422   15.1448   21.1917 N   0  0  0  0  0  0  0  0  0  0  0  0
    8.9294   14.1719   21.9940 C   0  0  0  0  0  0  0  0  0  0  0  0
    7.7437   13.8660   21.8602 O   0  0  0  0  0  0  0  0  0  0  0  0
    8.2968   12.7509   24.6598 C   0  0  0  0  0  0  0  0  0  0  0  0
    7.9171   14.1575   25.0366 C   0  0  0  0  0  0  0  0  0  0  0  0
  1  2  1  0
  2  3  1  0
  3  4  2  0
  3  5  1  0
  5  6  1  0
  6  7  2  0
  7  8  1  0
  8  9  2  0
  9 10  1  0
 10 11  1  0
 11 12  1  0
 12 13  2  0
 12 14  1  0
 14 15  1  0
 15 16  1  0
 16 17  1  0
 17 18  2  0
 10 19  2  0
 19 20  1  0
 19  6  1  0
 17 11  1  0
M  END
>  <alias>  (277) 
None

>  <rmsd(smina/fragmenstein)>  (277) 
0.65

>  <smiles>  (277) 
CCC(=O)Nc1cccc(N2C(=O)CCNC2=O)c1C

>  <gnina_score>  (277) 
5.24

>  <inspiration_score>  (277) 
None

>  <energy_score>  (277) 
-14.385088

>  <distance_score>  (277) 
1.270466

>  <gnina_score_min>  (277) 
5.291

>  <inchikey>  (277) 
WBQZYFCRIWVPFN-UHFFFAOYSA-N

>  <exports>  (277) 
['/opt/xchem-fragalysis-2/maxwin/BulkDock/OUTPUTS/openbind_a71ev2a_c2_elabs_1LOUU54.sdf', '/opt/xchem-fragalysis-2/maxwin/BulkDock/OUTPUTS/openbind_a71ev2a_c2_elabs_1LSYIDY.sdf']

>  <name>  (277) 
P545018

>  <ref_pdb>  (277) 
A0884a

>  <subsites>  (277) 
None

>  <HIPPO Pose ID>  (277) 
545018

>  <ref_mols>  (277) 
A0884a

>  <HIPPO Compound ID>  (277) 
383361

>  <tags>  (277) 
openbind_a71ev2a_c2_elabs,syndirella_product,openbind_a71ev2a_c2_elabs_fragonly_scored_top80percent,openbind_a71ev2a_c2_elabs_scored,BulkDock Fragalysis export,openbind_a71ev2a_c2_elabs_scored_top80percent,openbind_a71ev2a_c2_elabs_activefrags_only_scored_5.2plus,syndirella_placed

>  <smina_score_min>  (277) 
-7.014

$$$$
P545019
     RDKit          3D

 20 21  0  0  0  0  0  0  0  0999 V2000
    4.0143   12.1324   28.5407 C   0  0  0  0  0  0  0  0  0  0  0  0
    4.8436   12.8326   27.4783 C   0  0  0  0  0  0  0  0  0  0  0  0
    5.7923   11.8755   26.7613 C   0  0  0  0  0  0  0  0  0  0  0  0
    5.8276   10.7220   26.9455 O   0  0  0  0  0  0  0  0  0  0  0  0
    6.6138   12.7666   25.7825 N   0  0  0  0  0  0  0  0  0  0  0  0
    7.6687   12.4424   24.9355 C   0  0  0  0  0  0  0  0  0  0  0  0
    8.0766   11.1213   24.7212 C   0  0  0  0  0  0  0  0  0  0  0  0
    9.1492   10.8820   23.8670 C   0  0  0  0  0  0  0  0  0  0  0  0
    9.7690    9.1919   23.3876 Br  0  0  0  0  0  0  0  0  0  0  0  0
    9.8380   11.9224   23.2838 C   0  0  0  0  0  0  0  0  0  0  0  0
    9.4397   13.2281   23.5074 C   0  0  0  0  0  0  0  0  0  0  0  0
   10.1746   14.2577   22.8725 N   0  0  0  0  0  0  0  0  0  0  0  0
    9.6569   14.6144   21.5491 C   0  0  0  0  0  0  0  0  0  0  0  0
   10.6086   15.4120   20.7053 C   0  0  0  0  0  0  0  0  0  0  0  0
   11.9780   14.8361   20.8919 C   0  0  0  0  0  0  0  0  0  0  0  0
   12.6845   14.4340   19.9731 O   0  0  0  0  0  0  0  0  0  0  0  0
   12.3631   14.8019   22.2000 N   0  0  0  0  0  0  0  0  0  0  0  0
   11.5405   14.2895   23.1575 C   0  0  0  0  0  0  0  0  0  0  0  0
   12.0170   13.8364   24.2001 O   0  0  0  0  0  0  0  0  0  0  0  0
    8.3313   13.4982   24.2990 C   0  0  0  0  0  0  0  0  0  0  0  0
  1  2  1  0
  2  3  1  0
  3  4  2  0
  3  5  1  0
  5  6  1  0
  6  7  2  0
  7  8  1  0
  8  9  1  0
  8 10  2  0
 10 11  1  0
 11 12  1  0
 12 13  1  0
 13 14  1  0
 14 15  1  0
 15 16  2  0
 15 17  1  0
 17 18  1  0
 18 19  2  0
 11 20  2  0
 20  6  1  0
 18 12  1  0
M  END
>  <alias>  (278) 
None

>  <rmsd(smina/fragmenstein)>  (278) 
0.243

>  <smiles>  (278) 
CCC(=O)Nc1cc(Br)cc(N2CCC(=O)NC2=O)c1

>  <gnina_score>  (278) 
5.533

>  <inspiration_score>  (278) 
None

>  <energy_score>  (278) 
-29.255117

>  <distance_score>  (278) 
1.245799

>  <gnina_score_min>  (278) 
5.54

>  <inchikey>  (278) 
WWALDMVJOKWBGB-UHFFFAOYSA-N

>  <exports>  (278) 
['/opt/xchem-fragalysis-2/maxwin/BulkDock/OUTPUTS/openbind_a71ev2a_c2_elabs_1LOUU54.sdf', '/opt/xchem-fragalysis-2/maxwin/BulkDock/OUTPUTS/openbind_a71ev2a_c2_elabs_1LSYIDY.sdf']

>  <name>  (278) 
P545019

>  <ref_pdb>  (278) 
A0884a

>  <subsites>  (278) 
None

>  <HIPPO Pose ID>  (278) 
545019

>  <ref_mols>  (278) 
A0884a

>  <HIPPO Compound ID>  (278) 
383362

>  <tags>  (278) 
openbind_a71ev2a_c2_elabs,syndirella_product,openbind_a71ev2a_c2_elabs_fragonly_scored_top80percent,BulkDock Fragalysis export,openbind_a71ev2a_c2_elabs_scored,openbind_a71ev2a_c2_elabs_scored_top80percent,openbind_a71ev2a_c2_elabs_activefrags_only_scored_5.2plus,openbind_a71ev2a_c2_elabs_activefrags_only_scored_5.5plus,syndirella_placed

>  <smina_score_min>  (278) 
-6.484

$$$$
P545020
     RDKit          3D

 20 21  0  0  0  0  0  0  0  0999 V2000
    6.1398   14.5821   29.2573 C   0  0  0  0  0  0  0  0  0  0  0  0
    5.8669   15.2792   27.9372 C   0  0  0  0  0  0  0  0  0  0  0  0
    6.9668   14.9961   26.9234 C   0  0  0  0  0  0  0  0  0  0  0  0
    7.8023   15.7709   26.6608 O   0  0  0  0  0  0  0  0  0  0  0  0
    6.7167   13.5568   26.3784 N   0  0  0  0  0  0  0  0  0  0  0  0
    7.4694   12.7794   25.5069 C   0  0  0  0  0  0  0  0  0  0  0  0
    7.2786   11.4018   25.4804 C   0  0  0  0  0  0  0  0  0  0  0  0
    8.1044   10.6147   24.6836 C   0  0  0  0  0  0  0  0  0  0  0  0
    9.0718   11.2008   23.8623 C   0  0  0  0  0  0  0  0  0  0  0  0
    9.9769   10.1198   22.8971 Cl  0  0  0  0  0  0  0  0  0  0  0  0
    9.2193   12.5945   23.8210 C   0  0  0  0  0  0  0  0  0  0  0  0
   10.1214   13.2533   22.9211 N   0  0  0  0  0  0  0  0  0  0  0  0
    9.5298   14.2452   22.0276 C   0  0  0  0  0  0  0  0  0  0  0  0
   10.4539   14.7565   20.9438 C   0  0  0  0  0  0  0  0  0  0  0  0
   11.8946   14.5248   21.2670 C   0  0  0  0  0  0  0  0  0  0  0  0
   12.7664   14.5319   20.4014 O   0  0  0  0  0  0  0  0  0  0  0  0
   12.1767   14.3259   22.5849 N   0  0  0  0  0  0  0  0  0  0  0  0
   11.4009   13.5420   23.3981 C   0  0  0  0  0  0  0  0  0  0  0  0
   11.8582   13.1325   24.4630 O   0  0  0  0  0  0  0  0  0  0  0  0
    8.4253   13.3699   24.6769 C   0  0  0  0  0  0  0  0  0  0  0  0
  1  2  1  0
  2  3  1  0
  3  4  2  0
  3  5  1  0
  5  6  1  0
  6  7  2  0
  7  8  1  0
  8  9  2  0
  9 10  1  0
  9 11  1  0
 11 12  1  0
 12 13  1  0
 13 14  1  0
 14 15  1  0
 15 16  2  0
 15 17  1  0
 17 18  1  0
 18 19  2  0
 11 20  2  0
 20  6  1  0
 18 12  1  0
M  END
>  <alias>  (279) 
None

>  <rmsd(smina/fragmenstein)>  (279) 
0.816

>  <smiles>  (279) 
CCC(=O)Nc1ccc(Cl)c(N2CCC(=O)NC2=O)c1

>  <gnina_score>  (279) 
5.372

>  <inspiration_score>  (279) 
None

>  <energy_score>  (279) 
-16.820678

>  <distance_score>  (279) 
1.899424

>  <gnina_score_min>  (279) 
5.343

>  <inchikey>  (279) 
ISLSUNDXCAIUHX-UHFFFAOYSA-N

>  <exports>  (279) 
['/opt/xchem-fragalysis-2/maxwin/BulkDock/OUTPUTS/openbind_a71ev2a_c2_elabs_1LOUU54.sdf', '/opt/xchem-fragalysis-2/maxwin/BulkDock/OUTPUTS/openbind_a71ev2a_c2_elabs_1LSYIDY.sdf']

>  <name>  (279) 
P545020

>  <ref_pdb>  (279) 
A0884a

>  <subsites>  (279) 
None

>  <HIPPO Pose ID>  (279) 
545020

>  <ref_mols>  (279) 
A0884a

>  <HIPPO Compound ID>  (279) 
383363

>  <tags>  (279) 
openbind_a71ev2a_c2_elabs,syndirella_product,openbind_a71ev2a_c2_elabs_fragonly_scored_top80percent,openbind_a71ev2a_c2_elabs_scored,BulkDock Fragalysis export,openbind_a71ev2a_c2_elabs_scored_top80percent,openbind_a71ev2a_c2_elabs_activefrags_only_scored_5.2plus,syndirella_placed

>  <smina_score_min>  (279) 
-6.726

$$$$
P545021
     RDKit          3D

 20 21  0  0  0  0  0  0  0  0999 V2000
    3.6299   14.7547   25.7678 C   0  0  0  0  0  0  0  0  0  0  0  0
    4.2739   14.0950   26.7388 C   0  0  0  0  0  0  0  0  0  0  0  0
    4.0455   14.4980   28.3971 Cl  0  0  0  0  0  0  0  0  0  0  0  0
    5.1548   12.9145   26.4468 C   0  0  0  0  0  0  0  0  0  0  0  0
    4.9990   11.8815   26.9723 O   0  0  0  0  0  0  0  0  0  0  0  0
    6.1921   13.3531   25.3755 N   0  0  0  0  0  0  0  0  0  0  0  0
    7.2672   12.6638   24.8237 C   0  0  0  0  0  0  0  0  0  0  0  0
    7.4469   11.2968   25.0411 C   0  0  0  0  0  0  0  0  0  0  0  0
    8.5157   10.6386   24.4395 C   0  0  0  0  0  0  0  0  0  0  0  0
    9.4305   11.3596   23.6821 C   0  0  0  0  0  0  0  0  0  0  0  0
   10.4279   10.6869   23.1031 F   0  0  0  0  0  0  0  0  0  0  0  0
    9.2815   12.7350   23.4712 C   0  0  0  0  0  0  0  0  0  0  0  0
   10.2617   13.4671   22.7363 N   0  0  0  0  0  0  0  0  0  0  0  0
    9.8145   14.4426   21.7473 C   0  0  0  0  0  0  0  0  0  0  0  0
   10.9009   14.8980   20.7929 C   0  0  0  0  0  0  0  0  0  0  0  0
   12.1535   15.2150   21.5648 C   0  0  0  0  0  0  0  0  0  0  0  0
   12.4674   14.2221   22.5495 N   0  0  0  0  0  0  0  0  0  0  0  0
   11.5372   13.5449   23.2760 C   0  0  0  0  0  0  0  0  0  0  0  0
   11.8685   13.0782   24.3650 O   0  0  0  0  0  0  0  0  0  0  0  0
    8.1659   13.3745   24.0188 C   0  0  0  0  0  0  0  0  0  0  0  0
  1  2  2  0
  2  3  1  0
  2  4  1  0
  4  5  2  0
  4  6  1  0
  6  7  1  0
  7  8  2  0
  8  9  1  0
  9 10  2  0
 10 11  1  0
 10 12  1  0
 12 13  1  0
 13 14  1  0
 14 15  1  0
 15 16  1  0
 16 17  1  0
 17 18  1  0
 18 19  2  0
 12 20  2  0
 20  7  1  0
 18 13  1  0
M  END
>  <alias>  (280) 
None

>  <rmsd(smina/fragmenstein)>  (280) 
0.237

>  <smiles>  (280) 
C=C(Cl)C(=O)Nc1ccc(F)c(N2CCCNC2=O)c1

>  <gnina_score>  (280) 
5.282

>  <inspiration_score>  (280) 
None

>  <energy_score>  (280) 
-26.90702

>  <distance_score>  (280) 
1.296159

>  <gnina_score_min>  (280) 
5.302

>  <inchikey>  (280) 
FCVFFYLGAKDGDF-UHFFFAOYSA-N

>  <exports>  (280) 
['/opt/xchem-fragalysis-2/maxwin/BulkDock/OUTPUTS/openbind_a71ev2a_c2_elabs_1LOUU54.sdf', '/opt/xchem-fragalysis-2/maxwin/BulkDock/OUTPUTS/openbind_a71ev2a_c2_elabs_1LSYIDY.sdf']

>  <name>  (280) 
P545021

>  <ref_pdb>  (280) 
A0884a

>  <subsites>  (280) 
None

>  <HIPPO Pose ID>  (280) 
545021

>  <ref_mols>  (280) 
A0884a

>  <HIPPO Compound ID>  (280) 
383366

>  <tags>  (280) 
openbind_a71ev2a_c2_elabs,syndirella_product,openbind_a71ev2a_c2_elabs_fragonly_scored_top80percent,openbind_a71ev2a_c2_elabs_scored,BulkDock Fragalysis export,openbind_a71ev2a_c2_elabs_scored_top80percent,openbind_a71ev2a_c2_elabs_activefrags_only_scored_5.2plus,syndirella_placed

>  <smina_score_min>  (280) 
-6.293

$$$$
P545049
     RDKit          3D

 20 21  0  0  0  0  0  0  0  0999 V2000
    5.1124   11.7419   26.8409 O   0  0  0  0  0  0  0  0  0  0  0  0
    5.5362   12.8083   26.5939 C   0  0  0  0  0  0  0  0  0  0  0  0
    6.7517   13.2359   25.6992 N   0  0  0  0  0  0  0  0  0  0  0  0
    7.7017   12.4639   25.0379 C   0  0  0  0  0  0  0  0  0  0  0  0
    7.6432   11.0740   25.0131 C   0  0  0  0  0  0  0  0  0  0  0  0
    8.5882   10.3546   24.2760 C   0  0  0  0  0  0  0  0  0  0  0  0
    9.6034   11.0102   23.5806 C   0  0  0  0  0  0  0  0  0  0  0  0
    9.6957   12.3986   23.6455 C   0  0  0  0  0  0  0  0  0  0  0  0
   10.7473   13.0623   22.9849 N   0  0  0  0  0  0  0  0  0  0  0  0
   11.7981   13.5865   23.6925 C   0  0  0  0  0  0  0  0  0  0  0  0
   12.1485   13.2919   24.8282 O   0  0  0  0  0  0  0  0  0  0  0  0
   12.4120   14.7153   22.8935 C   0  0  0  0  0  0  0  0  0  0  0  0
   11.5669   14.7502   21.7619 N   0  0  0  0  0  0  0  0  0  0  0  0
   10.4868   13.9409   21.9762 C   0  0  0  0  0  0  0  0  0  0  0  0
    9.4365   14.1169   21.3870 O   0  0  0  0  0  0  0  0  0  0  0  0
    8.7367   13.1166   24.3660 C   0  0  0  0  0  0  0  0  0  0  0  0
    8.8229   14.4559   24.4469 F   0  0  0  0  0  0  0  0  0  0  0  0
    4.8520   14.1084   27.0659 C   0  0  1  0  0  0  0  0  0  0  0  0
    3.7570   13.8664   27.8418 F   0  0  0  0  0  0  0  0  0  0  0  0
    6.0173   15.0653   28.0127 Cl  0  0  0  0  0  0  0  0  0  0  0  0
  1  2  2  0
  2  3  1  0
  3  4  1  0
  4  5  2  0
  5  6  1  0
  6  7  2  0
  7  8  1  0
  8  9  1  0
  9 10  1  0
 10 11  2  0
 10 12  1  0
 12 13  1  0
 13 14  1  0
 14 15  2  0
  8 16  2  0
 16 17  1  0
  2 18  1  0
 18 19  1  1
 18 20  1  0
 16  4  1  0
 14  9  1  0
M  END
>  <alias>  (281) 
None

>  <rmsd(smina/fragmenstein)>  (281) 
0.693

>  <smiles>  (281) 
O=C(Nc1cccc(N2C(=O)CNC2=O)c1F)[C@@H](F)Cl

>  <gnina_score>  (281) 
5.235

>  <inspiration_score>  (281) 
None

>  <energy_score>  (281) 
-30.039699

>  <distance_score>  (281) 
1.586086

>  <gnina_score_min>  (281) 
5.248

>  <inchikey>  (281) 
CNPNQQAGOPGKHG-SECBINFHSA-N

>  <exports>  (281) 
['/opt/xchem-fragalysis-2/maxwin/BulkDock/OUTPUTS/openbind_a71ev2a_c2_elabs_1LOUU54.sdf', '/opt/xchem-fragalysis-2/maxwin/BulkDock/OUTPUTS/openbind_a71ev2a_c2_elabs_1LSYIDY.sdf']

>  <name>  (281) 
P545049

>  <ref_pdb>  (281) 
A0884a

>  <subsites>  (281) 
None

>  <HIPPO Pose ID>  (281) 
545049

>  <ref_mols>  (281) 
A0884a

>  <HIPPO Compound ID>  (281) 
383390

>  <tags>  (281) 
openbind_a71ev2a_c2_elabs,syndirella_product,openbind_a71ev2a_c2_elabs_fragonly_scored_top80percent,openbind_a71ev2a_c2_elabs_scored,BulkDock Fragalysis export,openbind_a71ev2a_c2_elabs_scored_top80percent,openbind_a71ev2a_c2_elabs_activefrags_only_scored_5.2plus,syndirella_placed

>  <smina_score_min>  (281) 
-6.497

$$$$
P545056
     RDKit          3D

 20 21  0  0  0  0  0  0  0  0999 V2000
    4.9508   15.3924   28.0062 C   0  0  0  0  0  0  0  0  0  0  0  0
    4.2271   14.4969   27.0177 C   0  0  0  0  0  0  0  0  0  0  0  0
    5.0060   13.2159   26.7495 C   0  0  0  0  0  0  0  0  0  0  0  0
    4.7257   12.1871   27.2327 O   0  0  0  0  0  0  0  0  0  0  0  0
    6.1764   13.5968   25.7911 N   0  0  0  0  0  0  0  0  0  0  0  0
    7.1425   12.7998   25.1834 C   0  0  0  0  0  0  0  0  0  0  0  0
    7.1751   11.4230   25.3617 C   0  0  0  0  0  0  0  0  0  0  0  0
    8.1238   10.6634   24.6842 C   0  0  0  0  0  0  0  0  0  0  0  0
    9.0556   11.2640   23.8233 C   0  0  0  0  0  0  0  0  0  0  0  0
    9.9522   10.3350   23.0707 C   0  0  0  0  0  0  0  0  0  0  0  0
    9.0605   12.6639   23.6781 C   0  0  0  0  0  0  0  0  0  0  0  0
   10.0050   13.3395   22.8364 N   0  0  0  0  0  0  0  0  0  0  0  0
    9.4866   14.3276   21.8966 C   0  0  0  0  0  0  0  0  0  0  0  0
   10.4754   14.7981   20.8513 C   0  0  0  0  0  0  0  0  0  0  0  0
   11.8877   14.4807   21.2196 C   0  0  0  0  0  0  0  0  0  0  0  0
   12.7771   14.3936   20.3772 O   0  0  0  0  0  0  0  0  0  0  0  0
   12.1167   14.3152   22.5515 N   0  0  0  0  0  0  0  0  0  0  0  0
   11.2910   13.5562   23.3387 C   0  0  0  0  0  0  0  0  0  0  0  0
   11.7148   13.1123   24.4038 O   0  0  0  0  0  0  0  0  0  0  0  0
    8.0855   13.4141   24.3540 C   0  0  0  0  0  0  0  0  0  0  0  0
  1  2  1  0
  2  3  1  0
  3  4  2  0
  3  5  1  0
  5  6  1  0
  6  7  2  0
  7  8  1  0
  8  9  2  0
  9 10  1  0
  9 11  1  0
 11 12  1  0
 12 13  1  0
 13 14  1  0
 14 15  1  0
 15 16  2  0
 15 17  1  0
 17 18  1  0
 18 19  2  0
 11 20  2  0
 20  6  1  0
 18 12  1  0
M  END
>  <alias>  (282) 
None

>  <rmsd(smina/fragmenstein)>  (282) 
0.737

>  <smiles>  (282) 
CCC(=O)Nc1ccc(C)c(N2CCC(=O)NC2=O)c1

>  <gnina_score>  (282) 
5.277

>  <inspiration_score>  (282) 
None

>  <energy_score>  (282) 
-32.711504

>  <distance_score>  (282) 
1.426237

>  <gnina_score_min>  (282) 
5.288

>  <inchikey>  (282) 
LCQYAEOBZGRTML-UHFFFAOYSA-N

>  <exports>  (282) 
['/opt/xchem-fragalysis-2/maxwin/BulkDock/OUTPUTS/openbind_a71ev2a_c2_elabs_1LOUU54.sdf', '/opt/xchem-fragalysis-2/maxwin/BulkDock/OUTPUTS/openbind_a71ev2a_c2_elabs_1LSYIDY.sdf']

>  <name>  (282) 
P545056

>  <ref_pdb>  (282) 
A0884a

>  <subsites>  (282) 
None

>  <HIPPO Pose ID>  (282) 
545056

>  <ref_mols>  (282) 
A0884a

>  <HIPPO Compound ID>  (282) 
383396

>  <tags>  (282) 
openbind_a71ev2a_c2_elabs,syndirella_product,openbind_a71ev2a_c2_elabs_fragonly_scored_top80percent,openbind_a71ev2a_c2_elabs_scored,BulkDock Fragalysis export,openbind_a71ev2a_c2_elabs_scored_top80percent,openbind_a71ev2a_c2_elabs_activefrags_only_scored_5.2plus,syndirella_placed

>  <smina_score_min>  (282) 
-6.841

$$$$
P545058
     RDKit          3D

 20 21  0  0  0  0  0  0  0  0999 V2000
    5.1631   14.6221   28.2110 C   0  0  0  0  0  0  0  0  0  0  0  0
    4.4351   13.7623   27.1942 C   0  0  0  0  0  0  0  0  0  0  0  0
    5.3366   12.6697   26.6347 C   0  0  0  0  0  0  0  0  0  0  0  0
    5.2213   11.5416   26.9226 O   0  0  0  0  0  0  0  0  0  0  0  0
    6.3325   13.3658   25.6594 N   0  0  0  0  0  0  0  0  0  0  0  0
    7.4060   12.8472   24.9431 C   0  0  0  0  0  0  0  0  0  0  0  0
    7.6810   11.4821   24.9048 C   0  0  0  0  0  0  0  0  0  0  0  0
    8.7633   11.0341   24.1518 C   0  0  0  0  0  0  0  0  0  0  0  0
    9.0672    9.3839   23.9315 Cl  0  0  0  0  0  0  0  0  0  0  0  0
    9.6081   11.9132   23.5024 C   0  0  0  0  0  0  0  0  0  0  0  0
    9.3361   13.2715   23.5512 C   0  0  0  0  0  0  0  0  0  0  0  0
   10.1743   14.1695   22.8498 N   0  0  0  0  0  0  0  0  0  0  0  0
    9.6569   14.5911   21.5464 C   0  0  0  0  0  0  0  0  0  0  0  0
   10.6296   15.3789   20.7156 C   0  0  0  0  0  0  0  0  0  0  0  0
   11.9900   14.7804   20.8917 C   0  0  0  0  0  0  0  0  0  0  0  0
   12.7055   14.4132   19.9654 O   0  0  0  0  0  0  0  0  0  0  0  0
   12.3667   14.6862   22.1999 N   0  0  0  0  0  0  0  0  0  0  0  0
   11.5351   14.1430   23.1327 C   0  0  0  0  0  0  0  0  0  0  0  0
   12.0033   13.6430   24.1575 O   0  0  0  0  0  0  0  0  0  0  0  0
    8.2161   13.7393   24.2367 C   0  0  0  0  0  0  0  0  0  0  0  0
  1  2  1  0
  2  3  1  0
  3  4  2  0
  3  5  1  0
  5  6  1  0
  6  7  2  0
  7  8  1  0
  8  9  1  0
  8 10  2  0
 10 11  1  0
 11 12  1  0
 12 13  1  0
 13 14  1  0
 14 15  1  0
 15 16  2  0
 15 17  1  0
 17 18  1  0
 18 19  2  0
 11 20  2  0
 20  6  1  0
 18 12  1  0
M  END
>  <alias>  (283) 
None

>  <rmsd(smina/fragmenstein)>  (283) 
0.68

>  <smiles>  (283) 
CCC(=O)Nc1cc(Cl)cc(N2CCC(=O)NC2=O)c1

>  <gnina_score>  (283) 
5.086

>  <inspiration_score>  (283) 
None

>  <energy_score>  (283) 
-26.493942

>  <distance_score>  (283) 
1.353572

>  <gnina_score_min>  (283) 
5.419

>  <inchikey>  (283) 
VVKPXRSRAAOJBM-UHFFFAOYSA-N

>  <exports>  (283) 
['/opt/xchem-fragalysis-2/maxwin/BulkDock/OUTPUTS/openbind_a71ev2a_c2_elabs_1LOUU54.sdf', '/opt/xchem-fragalysis-2/maxwin/BulkDock/OUTPUTS/openbind_a71ev2a_c2_elabs_1LSYIDY.sdf']

>  <name>  (283) 
P545058

>  <ref_pdb>  (283) 
A0884a

>  <subsites>  (283) 
None

>  <HIPPO Pose ID>  (283) 
545058

>  <ref_mols>  (283) 
A0884a

>  <HIPPO Compound ID>  (283) 
383398

>  <tags>  (283) 
openbind_a71ev2a_c2_elabs,syndirella_product,openbind_a71ev2a_c2_elabs_fragonly_scored_top80percent,openbind_a71ev2a_c2_elabs_scored,BulkDock Fragalysis export,openbind_a71ev2a_c2_elabs_scored_top80percent,openbind_a71ev2a_c2_elabs_activefrags_only_scored_5.2plus,syndirella_placed

>  <smina_score_min>  (283) 
-6.735

$$$$
P545059
     RDKit          3D

 20 21  0  0  0  0  0  0  0  0999 V2000
    3.3582   13.1082   28.0685 C   0  0  0  0  0  0  0  0  0  0  0  0
    4.4085   13.6498   27.1142 C   0  0  0  0  0  0  0  0  0  0  0  0
    5.3847   12.5696   26.6561 C   0  0  0  0  0  0  0  0  0  0  0  0
    5.3181   11.4445   26.9697 O   0  0  0  0  0  0  0  0  0  0  0  0
    6.4137   13.3047   25.7424 N   0  0  0  0  0  0  0  0  0  0  0  0
    7.4690   12.8040   24.9856 C   0  0  0  0  0  0  0  0  0  0  0  0
    7.7422   11.4391   24.9025 C   0  0  0  0  0  0  0  0  0  0  0  0
    8.8164   10.9893   24.1241 C   0  0  0  0  0  0  0  0  0  0  0  0
    9.0862    9.5497   23.8947 C   0  0  0  0  0  0  0  0  0  0  0  0
    9.6402   11.9023   23.4821 C   0  0  0  0  0  0  0  0  0  0  0  0
    9.3714   13.2606   23.5744 C   0  0  0  0  0  0  0  0  0  0  0  0
   10.1976   14.1729   22.8781 N   0  0  0  0  0  0  0  0  0  0  0  0
    9.6765   14.5743   21.5714 C   0  0  0  0  0  0  0  0  0  0  0  0
   10.6430   15.3621   20.7346 C   0  0  0  0  0  0  0  0  0  0  0  0
   12.0018   14.7595   20.9061 C   0  0  0  0  0  0  0  0  0  0  0  0
   12.7012   14.3716   19.9763 O   0  0  0  0  0  0  0  0  0  0  0  0
   12.3871   14.6837   22.2126 N   0  0  0  0  0  0  0  0  0  0  0  0
   11.5601   14.1483   23.1552 C   0  0  0  0  0  0  0  0  0  0  0  0
   12.0359   13.6582   24.1809 O   0  0  0  0  0  0  0  0  0  0  0  0
    8.2670   13.7137   24.2914 C   0  0  0  0  0  0  0  0  0  0  0  0
  1  2  1  0
  2  3  1  0
  3  4  2  0
  3  5  1  0
  5  6  1  0
  6  7  2  0
  7  8  1  0
  8  9  1  0
  8 10  2  0
 10 11  1  0
 11 12  1  0
 12 13  1  0
 13 14  1  0
 14 15  1  0
 15 16  2  0
 15 17  1  0
 17 18  1  0
 18 19  2  0
 11 20  2  0
 20  6  1  0
 18 12  1  0
M  END
>  <alias>  (284) 
None

>  <rmsd(smina/fragmenstein)>  (284) 
0.656

>  <smiles>  (284) 
CCC(=O)Nc1cc(C)cc(N2CCC(=O)NC2=O)c1

>  <gnina_score>  (284) 
5.298

>  <inspiration_score>  (284) 
None

>  <energy_score>  (284) 
-15.523568

>  <distance_score>  (284) 
1.328614

>  <gnina_score_min>  (284) 
5.41

>  <inchikey>  (284) 
SJEWYGGWEWWOPO-UHFFFAOYSA-N

>  <exports>  (284) 
['/opt/xchem-fragalysis-2/maxwin/BulkDock/OUTPUTS/openbind_a71ev2a_c2_elabs_1LOUU54.sdf', '/opt/xchem-fragalysis-2/maxwin/BulkDock/OUTPUTS/openbind_a71ev2a_c2_elabs_1LSYIDY.sdf']

>  <name>  (284) 
P545059

>  <ref_pdb>  (284) 
A0884a

>  <subsites>  (284) 
None

>  <HIPPO Pose ID>  (284) 
545059

>  <ref_mols>  (284) 
A0884a

>  <HIPPO Compound ID>  (284) 
383399

>  <tags>  (284) 
openbind_a71ev2a_c2_elabs,syndirella_product,openbind_a71ev2a_c2_elabs_fragonly_scored_top80percent,openbind_a71ev2a_c2_elabs_scored,BulkDock Fragalysis export,openbind_a71ev2a_c2_elabs_scored_top80percent,openbind_a71ev2a_c2_elabs_activefrags_only_scored_5.2plus,syndirella_placed

>  <smina_score_min>  (284) 
-6.835

$$$$
P545068
     RDKit          3D

 20 21  0  0  0  0  0  0  0  0999 V2000
    3.8993   16.5369   27.0181 C   0  0  0  0  0  0  0  0  0  0  0  0
    4.7706   15.2915   27.1873 C   0  0  0  0  0  0  0  0  0  0  0  0
    4.9007   14.9427   28.6715 C   0  0  0  0  0  0  0  0  0  0  0  0
    4.1763   14.1218   26.3887 C   0  0  0  0  0  0  0  0  0  0  0  0
    5.1193   12.9247   26.3013 C   0  0  0  0  0  0  0  0  0  0  0  0
    4.9685   11.9470   26.9265 O   0  0  0  0  0  0  0  0  0  0  0  0
    6.2385   13.3132   25.2902 N   0  0  0  0  0  0  0  0  0  0  0  0
    7.3021   12.5706   24.7928 C   0  0  0  0  0  0  0  0  0  0  0  0
    7.4358   11.2062   25.0360 C   0  0  0  0  0  0  0  0  0  0  0  0
    8.5056   10.5074   24.4773 C   0  0  0  0  0  0  0  0  0  0  0  0
    9.4940   11.1860   23.7679 C   0  0  0  0  0  0  0  0  0  0  0  0
    9.3893   12.5617   23.5657 C   0  0  0  0  0  0  0  0  0  0  0  0
   10.4446   13.2726   22.9703 N   0  0  0  0  0  0  0  0  0  0  0  0
   10.3126   14.4254   22.1965 C   0  0  0  0  0  0  0  0  0  0  0  0
    9.3167   14.8671   21.6634 O   0  0  0  0  0  0  0  0  0  0  0  0
   11.5505   15.0279   22.0909 N   0  0  0  0  0  0  0  0  0  0  0  0
   12.5408   14.0868   22.4826 C   0  0  0  0  0  0  0  0  0  0  0  0
   11.7879   13.2466   23.5021 C   0  0  1  0  0  0  0  0  0  0  0  0
   11.8647   13.8930   24.8774 C   0  0  0  0  0  0  0  0  0  0  0  0
    8.2570   13.2367   24.0251 C   0  0  0  0  0  0  0  0  0  0  0  0
  1  2  1  0
  2  3  1  0
  2  4  1  0
  4  5  1  0
  5  6  2  0
  5  7  1  0
  7  8  1  0
  8  9  2  0
  9 10  1  0
 10 11  2  0
 11 12  1  0
 12 13  1  0
 13 14  1  0
 14 15  2  0
 14 16  1  0
 16 17  1  0
 17 18  1  0
 18 19  1  1
 12 20  2  0
 20  8  1  0
 18 13  1  0
M  END
>  <alias>  (285) 
None

>  <rmsd(smina/fragmenstein)>  (285) 
1.154

>  <smiles>  (285) 
CC(C)CC(=O)Nc1cccc(N2C(=O)NC[C@H]2C)c1

>  <gnina_score>  (285) 
5.261

>  <inspiration_score>  (285) 
None

>  <energy_score>  (285) 
-31.380519

>  <distance_score>  (285) 
1.727615

>  <gnina_score_min>  (285) 
5.348

>  <inchikey>  (285) 
HAQBFLUFPPTIDR-LLVKDONJSA-N

>  <exports>  (285) 
['/opt/xchem-fragalysis-2/maxwin/BulkDock/OUTPUTS/openbind_a71ev2a_c2_elabs_1LOUU54.sdf', '/opt/xchem-fragalysis-2/maxwin/BulkDock/OUTPUTS/openbind_a71ev2a_c2_elabs_1LSYIDY.sdf']

>  <name>  (285) 
P545068

>  <ref_pdb>  (285) 
A0884a

>  <subsites>  (285) 
None

>  <HIPPO Pose ID>  (285) 
545068

>  <ref_mols>  (285) 
A0884a

>  <HIPPO Compound ID>  (285) 
383407

>  <tags>  (285) 
openbind_a71ev2a_c2_elabs,syndirella_product,openbind_a71ev2a_c2_elabs_fragonly_scored_top80percent,openbind_a71ev2a_c2_elabs_scored,BulkDock Fragalysis export,openbind_a71ev2a_c2_elabs_scored_top80percent,openbind_a71ev2a_c2_elabs_activefrags_only_scored_5.2plus,syndirella_placed

>  <smina_score_min>  (285) 
-6.645

$$$$
P545070
     RDKit          3D

 20 21  0  0  0  0  0  0  0  0999 V2000
    3.3446   14.4901   25.8742 C   0  0  0  0  0  0  0  0  0  0  0  0
    4.3195   14.1064   26.9720 C   0  0  0  0  0  0  0  0  0  0  0  0
    5.1614   12.8905   26.6014 C   0  0  0  0  0  0  0  0  0  0  0  0
    5.0105   11.8380   27.0902 O   0  0  0  0  0  0  0  0  0  0  0  0
    6.1747   13.3637   25.5157 N   0  0  0  0  0  0  0  0  0  0  0  0
    7.2275   12.6868   24.9060 C   0  0  0  0  0  0  0  0  0  0  0  0
    7.4365   11.3194   25.0926 C   0  0  0  0  0  0  0  0  0  0  0  0
    8.5086   10.6913   24.4596 C   0  0  0  0  0  0  0  0  0  0  0  0
    9.3909   11.4406   23.6896 C   0  0  0  0  0  0  0  0  0  0  0  0
   10.3957   10.8055   23.0810 F   0  0  0  0  0  0  0  0  0  0  0  0
    9.1959   12.8106   23.4902 C   0  0  0  0  0  0  0  0  0  0  0  0
   10.1036   13.5651   22.6939 N   0  0  0  0  0  0  0  0  0  0  0  0
    9.5695   14.4745   21.6902 C   0  0  0  0  0  0  0  0  0  0  0  0
   10.5676   14.9187   20.6424 C   0  0  0  0  0  0  0  0  0  0  0  0
   11.9709   14.5465   20.9994 C   0  0  0  0  0  0  0  0  0  0  0  0
   12.8360   14.3604   20.1485 O   0  0  0  0  0  0  0  0  0  0  0  0
   12.2263   14.4649   22.3350 N   0  0  0  0  0  0  0  0  0  0  0  0
   11.4039   13.7406   23.1533 C   0  0  0  0  0  0  0  0  0  0  0  0
   11.8321   13.3066   24.2222 O   0  0  0  0  0  0  0  0  0  0  0  0
    8.0873   13.4218   24.0817 C   0  0  0  0  0  0  0  0  0  0  0  0
  1  2  1  0
  2  3  1  0
  3  4  2  0
  3  5  1  0
  5  6  1  0
  6  7  2  0
  7  8  1  0
  8  9  2  0
  9 10  1  0
  9 11  1  0
 11 12  1  0
 12 13  1  0
 13 14  1  0
 14 15  1  0
 15 16  2  0
 15 17  1  0
 17 18  1  0
 18 19  2  0
 11 20  2  0
 20  6  1  0
 18 12  1  0
M  END
>  <alias>  (286) 
None

>  <rmsd(smina/fragmenstein)>  (286) 
0.389

>  <smiles>  (286) 
CCC(=O)Nc1ccc(F)c(N2CCC(=O)NC2=O)c1

>  <gnina_score>  (286) 
5.278

>  <inspiration_score>  (286) 
None

>  <energy_score>  (286) 
-49.795455

>  <distance_score>  (286) 
1.306484

>  <gnina_score_min>  (286) 
5.273

>  <inchikey>  (286) 
FYZBQZALZNMJNJ-UHFFFAOYSA-N

>  <exports>  (286) 
['/opt/xchem-fragalysis-2/maxwin/BulkDock/OUTPUTS/openbind_a71ev2a_c2_elabs_1LOUU54.sdf', '/opt/xchem-fragalysis-2/maxwin/BulkDock/OUTPUTS/openbind_a71ev2a_c2_elabs_1LSYIDY.sdf']

>  <name>  (286) 
P545070

>  <ref_pdb>  (286) 
A0884a

>  <subsites>  (286) 
None

>  <HIPPO Pose ID>  (286) 
545070

>  <ref_mols>  (286) 
A0884a

>  <HIPPO Compound ID>  (286) 
383411

>  <tags>  (286) 
openbind_a71ev2a_c2_elabs,syndirella_product,openbind_a71ev2a_c2_elabs_fragonly_scored_top80percent,openbind_a71ev2a_c2_elabs_scored,BulkDock Fragalysis export,openbind_a71ev2a_c2_elabs_scored_top80percent,openbind_a71ev2a_c2_elabs_activefrags_only_scored_5.2plus,syndirella_placed

>  <smina_score_min>  (286) 
-6.828

$$$$
P545072
     RDKit          3D

 20 21  0  0  0  0  0  0  0  0999 V2000
    5.2175   15.6819   27.6172 C   0  0  0  0  0  0  0  0  0  0  0  0
    4.5012   14.6820   27.0826 C   0  0  0  0  0  0  0  0  0  0  0  0
    2.6561   14.8111   26.8247 Br  0  0  0  0  0  0  0  0  0  0  0  0
    5.1458   13.3639   26.7380 C   0  0  0  0  0  0  0  0  0  0  0  0
    4.6875   12.3459   27.0885 O   0  0  0  0  0  0  0  0  0  0  0  0
    6.3786   13.6569   25.8336 N   0  0  0  0  0  0  0  0  0  0  0  0
    7.3166   12.7924   25.2770 C   0  0  0  0  0  0  0  0  0  0  0  0
    7.1705   11.4128   25.3670 C   0  0  0  0  0  0  0  0  0  0  0  0
    8.0523   10.5755   24.6901 C   0  0  0  0  0  0  0  0  0  0  0  0
    9.0995   11.0986   23.9236 C   0  0  0  0  0  0  0  0  0  0  0  0
    9.9298   10.1227   23.1504 C   0  0  0  0  0  0  0  0  0  0  0  0
    9.3273   12.4865   23.9426 C   0  0  0  0  0  0  0  0  0  0  0  0
   10.4959   13.0339   23.3624 N   0  0  0  0  0  0  0  0  0  0  0  0
   11.4020   13.7470   24.1042 C   0  0  0  0  0  0  0  0  0  0  0  0
   11.4609   13.8664   25.3228 O   0  0  0  0  0  0  0  0  0  0  0  0
   12.3189   14.4978   23.1641 C   0  0  0  0  0  0  0  0  0  0  0  0
   11.6822   14.2717   21.9250 N   0  0  0  0  0  0  0  0  0  0  0  0
   10.4696   13.6739   22.1587 C   0  0  0  0  0  0  0  0  0  0  0  0
    9.5167   13.8910   21.4332 O   0  0  0  0  0  0  0  0  0  0  0  0
    8.4076   13.3272   24.5889 C   0  0  0  0  0  0  0  0  0  0  0  0
  1  2  2  0
  2  3  1  0
  2  4  1  0
  4  5  2  0
  4  6  1  0
  6  7  1  0
  7  8  2  0
  8  9  1  0
  9 10  2  0
 10 11  1  0
 10 12  1  0
 12 13  1  0
 13 14  1  0
 14 15  2  0
 14 16  1  0
 16 17  1  0
 17 18  1  0
 18 19  2  0
 12 20  2  0
 20  7  1  0
 18 13  1  0
M  END
>  <alias>  (287) 
None

>  <rmsd(smina/fragmenstein)>  (287) 
1.332

>  <smiles>  (287) 
C=C(Br)C(=O)Nc1ccc(C)c(N2C(=O)CNC2=O)c1

>  <gnina_score>  (287) 
5.331

>  <inspiration_score>  (287) 
None

>  <energy_score>  (287) 
-41.34725

>  <distance_score>  (287) 
1.760819

>  <gnina_score_min>  (287) 
5.297

>  <inchikey>  (287) 
ZERQJXOLNMELCV-UHFFFAOYSA-N

>  <exports>  (287) 
['/opt/xchem-fragalysis-2/maxwin/BulkDock/OUTPUTS/openbind_a71ev2a_c2_elabs_1LOUU54.sdf', '/opt/xchem-fragalysis-2/maxwin/BulkDock/OUTPUTS/openbind_a71ev2a_c2_elabs_1LSYIDY.sdf']

>  <name>  (287) 
P545072

>  <ref_pdb>  (287) 
A0884a

>  <subsites>  (287) 
None

>  <HIPPO Pose ID>  (287) 
545072

>  <ref_mols>  (287) 
A0884a

>  <HIPPO Compound ID>  (287) 
383414

>  <tags>  (287) 
openbind_a71ev2a_c2_elabs,syndirella_product,openbind_a71ev2a_c2_elabs_fragonly_scored_top80percent,openbind_a71ev2a_c2_elabs_scored,BulkDock Fragalysis export,openbind_a71ev2a_c2_elabs_scored_top80percent,openbind_a71ev2a_c2_elabs_activefrags_only_scored_5.2plus,syndirella_placed

>  <smina_score_min>  (287) 
-6.746

$$$$
P545074
     RDKit          3D

 20 21  0  0  0  0  0  0  0  0999 V2000
    4.9053   15.8213   27.8249 C   0  0  0  0  0  0  0  0  0  0  0  0
    5.3282   14.5970   27.4742 C   0  0  0  0  0  0  0  0  0  0  0  0
    4.4603   13.0658   28.1105 Br  0  0  0  0  0  0  0  0  0  0  0  0
    6.5367   14.4980   26.5564 C   0  0  0  0  0  0  0  0  0  0  0  0
    7.2139   15.4266   26.3453 O   0  0  0  0  0  0  0  0  0  0  0  0
    6.6167   13.0495   26.0058 N   0  0  0  0  0  0  0  0  0  0  0  0
    7.5647   12.4461   25.1891 C   0  0  0  0  0  0  0  0  0  0  0  0
    7.5904   11.0539   25.0898 C   0  0  0  0  0  0  0  0  0  0  0  0
    8.5395   10.4394   24.2750 C   0  0  0  0  0  0  0  0  0  0  0  0
    9.4336   11.2147   23.5471 C   0  0  0  0  0  0  0  0  0  0  0  0
   10.2673   10.5941   22.7082 F   0  0  0  0  0  0  0  0  0  0  0  0
    9.4073   12.6069   23.6264 C   0  0  0  0  0  0  0  0  0  0  0  0
   10.3208   13.3855   22.8658 N   0  0  0  0  0  0  0  0  0  0  0  0
    9.7483   14.3112   21.8879 C   0  0  0  0  0  0  0  0  0  0  0  0
   10.7532   15.0675   21.0295 C   0  0  0  0  0  0  0  0  0  0  0  0
   12.1665   14.6106   21.2841 C   0  0  0  0  0  0  0  0  0  0  0  0
   12.3900   14.4290   22.6861 N   0  0  0  0  0  0  0  0  0  0  0  0
   11.5495   13.6699   23.4478 C   0  0  0  0  0  0  0  0  0  0  0  0
   11.9053   13.2952   24.5623 O   0  0  0  0  0  0  0  0  0  0  0  0
    8.4715   13.2201   24.4618 C   0  0  0  0  0  0  0  0  0  0  0  0
  1  2  2  0
  2  3  1  0
  2  4  1  0
  4  5  2  0
  4  6  1  0
  6  7  1  0
  7  8  2  0
  8  9  1  0
  9 10  2  0
 10 11  1  0
 10 12  1  0
 12 13  1  0
 13 14  1  0
 14 15  1  0
 15 16  1  0
 16 17  1  0
 17 18  1  0
 18 19  2  0
 12 20  2  0
 20  7  1  0
 18 13  1  0
M  END
>  <alias>  (288) 
None

>  <rmsd(smina/fragmenstein)>  (288) 
0.592

>  <smiles>  (288) 
C=C(Br)C(=O)Nc1ccc(F)c(N2CCCNC2=O)c1

>  <gnina_score>  (288) 
5.244

>  <inspiration_score>  (288) 
None

>  <energy_score>  (288) 
-28.694648

>  <distance_score>  (288) 
1.542622

>  <gnina_score_min>  (288) 
5.276

>  <inchikey>  (288) 
HKDGJBALZJMBEV-UHFFFAOYSA-N

>  <exports>  (288) 
['/opt/xchem-fragalysis-2/maxwin/BulkDock/OUTPUTS/openbind_a71ev2a_c2_elabs_1LOUU54.sdf', '/opt/xchem-fragalysis-2/maxwin/BulkDock/OUTPUTS/openbind_a71ev2a_c2_elabs_1LSYIDY.sdf']

>  <name>  (288) 
P545074

>  <ref_pdb>  (288) 
A0884a

>  <subsites>  (288) 
None

>  <HIPPO Pose ID>  (288) 
545074

>  <ref_mols>  (288) 
A0884a

>  <HIPPO Compound ID>  (288) 
383416

>  <tags>  (288) 
openbind_a71ev2a_c2_elabs,syndirella_product,openbind_a71ev2a_c2_elabs_fragonly_scored_top80percent,openbind_a71ev2a_c2_elabs_scored,BulkDock Fragalysis export,openbind_a71ev2a_c2_elabs_scored_top80percent,openbind_a71ev2a_c2_elabs_activefrags_only_scored_5.2plus,syndirella_placed

>  <smina_score_min>  (288) 
-6.668

$$$$
P545076
     RDKit          3D

 20 21  0  0  0  0  0  0  0  0999 V2000
    2.5752   15.6935   25.9230 C   0  0  0  0  0  0  0  0  0  0  0  0
    3.5478   14.5774   25.7280 C   0  0  0  0  0  0  0  0  0  0  0  0
    4.2112   13.9828   26.7319 C   0  0  0  0  0  0  0  0  0  0  0  0
    5.1411   12.8477   26.4806 C   0  0  0  0  0  0  0  0  0  0  0  0
    4.9931   11.8099   26.9936 O   0  0  0  0  0  0  0  0  0  0  0  0
    6.2331   13.3342   25.4968 N   0  0  0  0  0  0  0  0  0  0  0  0
    7.2765   12.6410   24.8895 C   0  0  0  0  0  0  0  0  0  0  0  0
    7.4648   11.2726   25.0884 C   0  0  0  0  0  0  0  0  0  0  0  0
    8.5165   10.6217   24.4486 C   0  0  0  0  0  0  0  0  0  0  0  0
    9.4113   11.3516   23.6758 C   0  0  0  0  0  0  0  0  0  0  0  0
   10.3966   10.6887   23.0651 F   0  0  0  0  0  0  0  0  0  0  0  0
    9.2536   12.7283   23.4823 C   0  0  0  0  0  0  0  0  0  0  0  0
   10.2185   13.4701   22.7365 N   0  0  0  0  0  0  0  0  0  0  0  0
    9.7500   14.4422   21.7552 C   0  0  0  0  0  0  0  0  0  0  0  0
   10.8160   14.8981   20.7783 C   0  0  0  0  0  0  0  0  0  0  0  0
   12.0962   15.2013   21.5108 C   0  0  0  0  0  0  0  0  0  0  0  0
   12.4170   14.2360   22.5193 N   0  0  0  0  0  0  0  0  0  0  0  0
   11.5001   13.5556   23.2586 C   0  0  0  0  0  0  0  0  0  0  0  0
   11.8495   13.0996   24.3464 O   0  0  0  0  0  0  0  0  0  0  0  0
    8.1498   13.3597   24.0625 C   0  0  0  0  0  0  0  0  0  0  0  0
  1  2  1  0
  2  3  2  0
  3  4  1  0
  4  5  2  0
  4  6  1  0
  6  7  1  0
  7  8  2  0
  8  9  1  0
  9 10  2  0
 10 11  1  0
 10 12  1  0
 12 13  1  0
 13 14  1  0
 14 15  1  0
 15 16  1  0
 16 17  1  0
 17 18  1  0
 18 19  2  0
 12 20  2  0
 20  7  1  0
 18 13  1  0
M  END
>  <alias>  (289) 
None

>  <rmsd(smina/fragmenstein)>  (289) 
0.781

>  <smiles>  (289) 
C/C=C/C(=O)Nc1ccc(F)c(N2CCCNC2=O)c1

>  <gnina_score>  (289) 
5.29

>  <inspiration_score>  (289) 
None

>  <energy_score>  (289) 
-6.02881

>  <distance_score>  (289) 
1.277511

>  <gnina_score_min>  (289) 
5.251

>  <inchikey>  (289) 
LHJKQEMJOVJACF-DUXPYHPUSA-N

>  <exports>  (289) 
['/opt/xchem-fragalysis-2/maxwin/BulkDock/OUTPUTS/openbind_a71ev2a_c2_elabs_1LOUU54.sdf', '/opt/xchem-fragalysis-2/maxwin/BulkDock/OUTPUTS/openbind_a71ev2a_c2_elabs_1LSYIDY.sdf']

>  <name>  (289) 
P545076

>  <ref_pdb>  (289) 
A0884a

>  <subsites>  (289) 
None

>  <HIPPO Pose ID>  (289) 
545076

>  <ref_mols>  (289) 
A0884a

>  <HIPPO Compound ID>  (289) 
383419

>  <tags>  (289) 
openbind_a71ev2a_c2_elabs,syndirella_product,openbind_a71ev2a_c2_elabs_fragonly_scored_top80percent,openbind_a71ev2a_c2_elabs_scored,BulkDock Fragalysis export,openbind_a71ev2a_c2_elabs_scored_top80percent,openbind_a71ev2a_c2_elabs_activefrags_only_scored_5.2plus,syndirella_placed

>  <smina_score_min>  (289) 
-6.477

$$$$
P545083
     RDKit          3D

 20 21  0  0  0  0  0  0  0  0999 V2000
    3.2268   15.0939   28.7987 C   0  0  0  0  0  0  0  0  0  0  0  0
    3.9373   13.9154   28.2186 C   0  0  0  0  0  0  0  0  0  0  0  0
    4.8889   14.0061   27.2757 C   0  0  0  0  0  0  0  0  0  0  0  0
    5.5354   12.7647   26.7390 C   0  0  0  0  0  0  0  0  0  0  0  0
    5.1426   11.6942   26.9910 O   0  0  0  0  0  0  0  0  0  0  0  0
    6.7021   13.2170   25.8232 N   0  0  0  0  0  0  0  0  0  0  0  0
    7.6500   12.4685   25.1297 C   0  0  0  0  0  0  0  0  0  0  0  0
    7.5945   11.0784   25.0660 C   0  0  0  0  0  0  0  0  0  0  0  0
    8.5340   10.3791   24.3030 C   0  0  0  0  0  0  0  0  0  0  0  0
    9.5437   11.0554   23.6215 C   0  0  0  0  0  0  0  0  0  0  0  0
    9.6403   12.4420   23.7331 C   0  0  0  0  0  0  0  0  0  0  0  0
   10.7208   13.1025   23.1215 N   0  0  0  0  0  0  0  0  0  0  0  0
   11.6652   13.7613   23.8623 C   0  0  0  0  0  0  0  0  0  0  0  0
   11.8648   13.6748   25.0676 O   0  0  0  0  0  0  0  0  0  0  0  0
   12.3957   14.7328   22.9623 C   0  0  0  0  0  0  0  0  0  0  0  0
   11.6455   14.6258   21.7700 N   0  0  0  0  0  0  0  0  0  0  0  0
   10.5348   13.8622   22.0068 C   0  0  0  0  0  0  0  0  0  0  0  0
    9.5202   14.0033   21.3498 O   0  0  0  0  0  0  0  0  0  0  0  0
    8.6816   13.1420   24.4706 C   0  0  0  0  0  0  0  0  0  0  0  0
    8.7648   14.4797   24.5785 F   0  0  0  0  0  0  0  0  0  0  0  0
  1  2  1  0
  2  3  2  0
  3  4  1  0
  4  5  2  0
  4  6  1  0
  6  7  1  0
  7  8  2  0
  8  9  1  0
  9 10  2  0
 10 11  1  0
 11 12  1  0
 12 13  1  0
 13 14  2  0
 13 15  1  0
 15 16  1  0
 16 17  1  0
 17 18  2  0
 11 19  2  0
 19 20  1  0
 19  7  1  0
 17 12  1  0
M  END
>  <alias>  (290) 
None

>  <rmsd(smina/fragmenstein)>  (290) 
0.712

>  <smiles>  (290) 
C/C=C/C(=O)Nc1cccc(N2C(=O)CNC2=O)c1F

>  <gnina_score>  (290) 
5.24

>  <inspiration_score>  (290) 
None

>  <energy_score>  (290) 
-48.70499

>  <distance_score>  (290) 
1.561842

>  <gnina_score_min>  (290) 
5.228

>  <inchikey>  (290) 
CVLPJCGGHKRZEG-DUXPYHPUSA-N

>  <exports>  (290) 
['/opt/xchem-fragalysis-2/maxwin/BulkDock/OUTPUTS/openbind_a71ev2a_c2_elabs_1LOUU54.sdf', '/opt/xchem-fragalysis-2/maxwin/BulkDock/OUTPUTS/openbind_a71ev2a_c2_elabs_1LSYIDY.sdf']

>  <name>  (290) 
P545083

>  <ref_pdb>  (290) 
A0884a

>  <subsites>  (290) 
None

>  <HIPPO Pose ID>  (290) 
545083

>  <ref_mols>  (290) 
A0884a

>  <HIPPO Compound ID>  (290) 
383426

>  <tags>  (290) 
openbind_a71ev2a_c2_elabs,syndirella_product,openbind_a71ev2a_c2_elabs_fragonly_scored_top80percent,openbind_a71ev2a_c2_elabs_scored,BulkDock Fragalysis export,openbind_a71ev2a_c2_elabs_scored_top80percent,openbind_a71ev2a_c2_elabs_activefrags_only_scored_5.2plus,syndirella_placed

>  <smina_score_min>  (290) 
-6.456

$$$$
P545089
     RDKit          3D

 20 21  0  0  0  0  0  0  0  0999 V2000
    6.2687   14.5525   28.5385 C   0  0  0  0  0  0  0  0  0  0  0  0
    4.9027   14.0596   28.1812 C   0  0  0  0  0  0  0  0  0  0  0  0
    4.5853   12.9179   27.5498 C   0  0  0  0  0  0  0  0  0  0  0  0
    5.5691   11.9236   27.0385 C   0  0  0  0  0  0  0  0  0  0  0  0
    5.5764   10.8176   27.4072 O   0  0  0  0  0  0  0  0  0  0  0  0
    6.4583   12.6378   25.9960 N   0  0  0  0  0  0  0  0  0  0  0  0
    7.4430   12.1348   25.1524 C   0  0  0  0  0  0  0  0  0  0  0  0
    7.7686   10.7856   25.0958 C   0  0  0  0  0  0  0  0  0  0  0  0
    8.8045   10.3516   24.2632 C   0  0  0  0  0  0  0  0  0  0  0  0
    9.5335   11.2643   23.5042 C   0  0  0  0  0  0  0  0  0  0  0  0
    9.1821   12.6128   23.5232 C   0  0  0  0  0  0  0  0  0  0  0  0
    9.8150   13.5453   22.6510 N   0  0  0  0  0  0  0  0  0  0  0  0
   11.2028   13.7011   22.7161 C   0  0  0  0  0  0  0  0  0  0  0  0
   11.9351   13.1539   23.5442 O   0  0  0  0  0  0  0  0  0  0  0  0
   11.8050   14.7425   21.8171 C   0  0  0  0  0  0  0  0  0  0  0  0
   10.9283   14.9934   20.6237 C   0  0  0  0  0  0  0  0  0  0  0  0
    9.5852   15.2316   21.0407 N   0  0  0  0  0  0  0  0  0  0  0  0
    8.9739   14.3146   21.8406 C   0  0  0  0  0  0  0  0  0  0  0  0
    7.7517   14.1944   21.7622 O   0  0  0  0  0  0  0  0  0  0  0  0
    8.1286   13.0378   24.3449 C   0  0  0  0  0  0  0  0  0  0  0  0
  1  2  1  0
  2  3  2  0
  3  4  1  0
  4  5  2  0
  4  6  1  0
  6  7  1  0
  7  8  2  0
  8  9  1  0
  9 10  2  0
 10 11  1  0
 11 12  1  0
 12 13  1  0
 13 14  2  0
 13 15  1  0
 15 16  1  0
 16 17  1  0
 17 18  1  0
 18 19  2  0
 11 20  2  0
 20  7  1  0
 18 12  1  0
M  END
>  <alias>  (291) 
None

>  <rmsd(smina/fragmenstein)>  (291) 
0.889

>  <smiles>  (291) 
C/C=C\C(=O)Nc1cccc(N2C(=O)CCNC2=O)c1

>  <gnina_score>  (291) 
5.135

>  <inspiration_score>  (291) 
None

>  <energy_score>  (291) 
-26.189305

>  <distance_score>  (291) 
1.383158

>  <gnina_score_min>  (291) 
5.311

>  <inchikey>  (291) 
KJPJLTVSGXWAPN-RQOWECAXSA-N

>  <exports>  (291) 
['/opt/xchem-fragalysis-2/maxwin/BulkDock/OUTPUTS/openbind_a71ev2a_c2_elabs_1LOUU54.sdf', '/opt/xchem-fragalysis-2/maxwin/BulkDock/OUTPUTS/openbind_a71ev2a_c2_elabs_1LSYIDY.sdf']

>  <name>  (291) 
P545089

>  <ref_pdb>  (291) 
A0884a

>  <subsites>  (291) 
None

>  <HIPPO Pose ID>  (291) 
545089

>  <ref_mols>  (291) 
A0884a

>  <HIPPO Compound ID>  (291) 
383429

>  <tags>  (291) 
openbind_a71ev2a_c2_elabs,syndirella_product,openbind_a71ev2a_c2_elabs_fragonly_scored_top80percent,openbind_a71ev2a_c2_elabs_scored,BulkDock Fragalysis export,openbind_a71ev2a_c2_elabs_scored_top80percent,openbind_a71ev2a_c2_elabs_activefrags_only_scored_5.2plus,syndirella_placed

>  <smina_score_min>  (291) 
-7.364

$$$$
P545092
     RDKit          3D

 20 21  0  0  0  0  0  0  0  0999 V2000
    9.8974   10.1300   23.1754 C   0  0  0  0  0  0  0  0  0  0  0  0
    9.0824   11.1303   23.9351 C   0  0  0  0  0  0  0  0  0  0  0  0
    8.0111   10.6449   24.6955 C   0  0  0  0  0  0  0  0  0  0  0  0
    7.1498   11.5136   25.3643 C   0  0  0  0  0  0  0  0  0  0  0  0
    7.3539   12.8860   25.2875 C   0  0  0  0  0  0  0  0  0  0  0  0
    6.4772   13.7986   25.8661 N   0  0  0  0  0  0  0  0  0  0  0  0
    5.1866   13.5657   26.7205 C   0  0  0  0  0  0  0  0  0  0  0  0
    4.6286   12.5726   26.9980 O   0  0  0  0  0  0  0  0  0  0  0  0
    4.6937   14.9326   27.1670 C   0  0  0  0  0  0  0  0  0  0  0  0
    5.4664   15.3737   28.3265 C   0  0  0  0  0  0  0  0  0  0  0  0
    6.1018   15.7317   29.2294 N   0  0  0  0  0  0  0  0  0  0  0  0
    8.4680   13.3788   24.6082 C   0  0  0  0  0  0  0  0  0  0  0  0
    9.3546   12.5094   23.9564 C   0  0  0  0  0  0  0  0  0  0  0  0
   10.5366   13.0258   23.3762 N   0  0  0  0  0  0  0  0  0  0  0  0
   11.4358   13.7545   24.1117 C   0  0  0  0  0  0  0  0  0  0  0  0
   11.4761   13.9059   25.3272 O   0  0  0  0  0  0  0  0  0  0  0  0
   12.3614   14.4841   23.1648 C   0  0  0  0  0  0  0  0  0  0  0  0
   11.7426   14.2244   21.9227 N   0  0  0  0  0  0  0  0  0  0  0  0
   10.5207   13.6483   22.1630 C   0  0  0  0  0  0  0  0  0  0  0  0
    9.5694   13.8778   21.4382 O   0  0  0  0  0  0  0  0  0  0  0  0
  1  2  1  0
  2  3  2  0
  3  4  1  0
  4  5  2  0
  5  6  1  0
  6  7  1  0
  7  8  2  0
  7  9  1  0
  9 10  1  0
 10 11  3  0
  5 12  1  0
 12 13  2  0
 13 14  1  0
 14 15  1  0
 15 16  2  0
 15 17  1  0
 17 18  1  0
 18 19  1  0
 19 20  2  0
 13  2  1  0
 19 14  1  0
M  END
>  <alias>  (292) 
None

>  <rmsd(smina/fragmenstein)>  (292) 
0.961

>  <smiles>  (292) 
Cc1ccc(NC(=O)CC#N)cc1N1C(=O)CNC1=O

>  <gnina_score>  (292) 
5.211

>  <inspiration_score>  (292) 
None

>  <energy_score>  (292) 
-25.128454

>  <distance_score>  (292) 
1.795528

>  <gnina_score_min>  (292) 
5.224

>  <inchikey>  (292) 
ZQJXHVULBJZFDY-UHFFFAOYSA-N

>  <exports>  (292) 
['/opt/xchem-fragalysis-2/maxwin/BulkDock/OUTPUTS/openbind_a71ev2a_c2_elabs_1LOUU54.sdf', '/opt/xchem-fragalysis-2/maxwin/BulkDock/OUTPUTS/openbind_a71ev2a_c2_elabs_1LSYIDY.sdf']

>  <name>  (292) 
P545092

>  <ref_pdb>  (292) 
A0884a

>  <subsites>  (292) 
None

>  <HIPPO Pose ID>  (292) 
545092

>  <ref_mols>  (292) 
A0884a

>  <HIPPO Compound ID>  (292) 
383432

>  <tags>  (292) 
openbind_a71ev2a_c2_elabs,syndirella_product,openbind_a71ev2a_c2_elabs_fragonly_scored_top80percent,openbind_a71ev2a_c2_elabs_scored,BulkDock Fragalysis export,openbind_a71ev2a_c2_elabs_scored_top80percent,openbind_a71ev2a_c2_elabs_activefrags_only_scored_5.2plus,syndirella_placed

>  <smina_score_min>  (292) 
-6.313

$$$$
P545106
     RDKit          3D

 20 21  0  0  0  0  0  0  0  0999 V2000
    4.9536   11.7007   27.0124 O   0  0  0  0  0  0  0  0  0  0  0  0
    5.1093   12.7713   26.5673 C   0  0  0  0  0  0  0  0  0  0  0  0
    4.1980   13.9554   26.8663 C   0  0  0  0  0  0  0  0  0  0  0  0
    3.0911   13.5518   27.8341 C   0  0  0  0  0  0  0  0  0  0  0  0
    1.7313   15.1677   28.1517 I   0  0  0  0  0  0  0  0  0  0  0  0
    6.1567   13.2945   25.5377 N   0  0  0  0  0  0  0  0  0  0  0  0
    7.2388   12.6524   24.9452 C   0  0  0  0  0  0  0  0  0  0  0  0
    7.4525   11.2803   25.0949 C   0  0  0  0  0  0  0  0  0  0  0  0
    8.5318   10.6747   24.4540 C   0  0  0  0  0  0  0  0  0  0  0  0
    9.4262   11.4531   23.7296 C   0  0  0  0  0  0  0  0  0  0  0  0
   10.4451   10.8426   23.1196 F   0  0  0  0  0  0  0  0  0  0  0  0
    9.2393   12.8309   23.5888 C   0  0  0  0  0  0  0  0  0  0  0  0
   10.1895   13.6332   22.8992 N   0  0  0  0  0  0  0  0  0  0  0  0
    9.7299   14.3924   21.7371 C   0  0  0  0  0  0  0  0  0  0  0  0
   10.7870   15.2262   21.0363 C   0  0  0  0  0  0  0  0  0  0  0  0
   12.1614   14.6504   21.2521 C   0  0  0  0  0  0  0  0  0  0  0  0
   12.3764   14.3946   22.6438 N   0  0  0  0  0  0  0  0  0  0  0  0
   11.4690   13.7362   23.4166 C   0  0  0  0  0  0  0  0  0  0  0  0
   11.8066   13.3276   24.5261 O   0  0  0  0  0  0  0  0  0  0  0  0
    8.1148   13.4199   24.1701 C   0  0  0  0  0  0  0  0  0  0  0  0
  1  2  2  0
  2  3  1  0
  3  4  1  0
  4  5  1  0
  2  6  1  0
  6  7  1  0
  7  8  2  0
  8  9  1  0
  9 10  2  0
 10 11  1  0
 10 12  1  0
 12 13  1  0
 13 14  1  0
 14 15  1  0
 15 16  1  0
 16 17  1  0
 17 18  1  0
 18 19  2  0
 12 20  2  0
 20  7  1  0
 18 13  1  0
M  END
>  <alias>  (293) 
None

>  <rmsd(smina/fragmenstein)>  (293) 
0.424

>  <smiles>  (293) 
O=C(CCI)Nc1ccc(F)c(N2CCCNC2=O)c1

>  <gnina_score>  (293) 
5.167

>  <inspiration_score>  (293) 
None

>  <energy_score>  (293) 
-13.134927

>  <distance_score>  (293) 
1.296478

>  <gnina_score_min>  (293) 
5.246

>  <inchikey>  (293) 
LTRHQGRQTUYTND-UHFFFAOYSA-N

>  <exports>  (293) 
['/opt/xchem-fragalysis-2/maxwin/BulkDock/OUTPUTS/openbind_a71ev2a_c2_elabs_1LOUU54.sdf', '/opt/xchem-fragalysis-2/maxwin/BulkDock/OUTPUTS/openbind_a71ev2a_c2_elabs_1LSYIDY.sdf']

>  <name>  (293) 
P545106

>  <ref_pdb>  (293) 
A0884a

>  <subsites>  (293) 
None

>  <HIPPO Pose ID>  (293) 
545106

>  <ref_mols>  (293) 
A0884a

>  <HIPPO Compound ID>  (293) 
383451

>  <tags>  (293) 
openbind_a71ev2a_c2_elabs,syndirella_product,openbind_a71ev2a_c2_elabs_fragonly_scored_top80percent,openbind_a71ev2a_c2_elabs_scored,BulkDock Fragalysis export,openbind_a71ev2a_c2_elabs_scored_top80percent,openbind_a71ev2a_c2_elabs_activefrags_only_scored_5.2plus,syndirella_placed

>  <smina_score_min>  (293) 
-6.365

$$$$
P545107
     RDKit          3D

 20 21  0  0  0  0  0  0  0  0999 V2000
    5.5507   13.8318   28.7288 C   0  0  0  0  0  0  0  0  0  0  0  0
    5.6644   14.6732   27.6883 C   0  0  0  0  0  0  0  0  0  0  0  0
    4.7530   15.8345   27.4399 C   0  0  0  0  0  0  0  0  0  0  0  0
    6.8066   14.5462   26.7240 C   0  0  0  0  0  0  0  0  0  0  0  0
    7.4742   15.4615   26.4437 O   0  0  0  0  0  0  0  0  0  0  0  0
    6.8124   13.0940   26.1798 N   0  0  0  0  0  0  0  0  0  0  0  0
    7.6707   12.4703   25.2821 C   0  0  0  0  0  0  0  0  0  0  0  0
    7.6142   11.0834   25.1326 C   0  0  0  0  0  0  0  0  0  0  0  0
    8.5050   10.4461   24.2688 C   0  0  0  0  0  0  0  0  0  0  0  0
    9.4093   11.1958   23.5262 C   0  0  0  0  0  0  0  0  0  0  0  0
   10.1859   10.5586   22.6446 F   0  0  0  0  0  0  0  0  0  0  0  0
    9.4520   12.5840   23.6436 C   0  0  0  0  0  0  0  0  0  0  0  0
   10.3627   13.3439   22.8605 N   0  0  0  0  0  0  0  0  0  0  0  0
    9.7707   14.2837   21.9073 C   0  0  0  0  0  0  0  0  0  0  0  0
   10.7591   15.0153   21.0088 C   0  0  0  0  0  0  0  0  0  0  0  0
   12.1807   14.5916   21.2767 C   0  0  0  0  0  0  0  0  0  0  0  0
   12.4044   14.4414   22.6822 N   0  0  0  0  0  0  0  0  0  0  0  0
   11.5805   13.6674   23.4496 C   0  0  0  0  0  0  0  0  0  0  0  0
   11.9426   13.3088   24.5670 O   0  0  0  0  0  0  0  0  0  0  0  0
    8.5885   13.2167   24.5407 C   0  0  0  0  0  0  0  0  0  0  0  0
  1  2  2  0
  2  3  1  0
  2  4  1  0
  4  5  2  0
  4  6  1  0
  6  7  1  0
  7  8  2  0
  8  9  1  0
  9 10  2  0
 10 11  1  0
 10 12  1  0
 12 13  1  0
 13 14  1  0
 14 15  1  0
 15 16  1  0
 16 17  1  0
 17 18  1  0
 18 19  2  0
 12 20  2  0
 20  7  1  0
 18 13  1  0
M  END
>  <alias>  (294) 
None

>  <rmsd(smina/fragmenstein)>  (294) 
0.658

>  <smiles>  (294) 
C=C(C)C(=O)Nc1ccc(F)c(N2CCCNC2=O)c1

>  <gnina_score>  (294) 
5.203

>  <inspiration_score>  (294) 
None

>  <energy_score>  (294) 
-7.323832

>  <distance_score>  (294) 
1.588241

>  <gnina_score_min>  (294) 
5.22

>  <inchikey>  (294) 
CGLQSULILYGJFJ-UHFFFAOYSA-N

>  <exports>  (294) 
['/opt/xchem-fragalysis-2/maxwin/BulkDock/OUTPUTS/openbind_a71ev2a_c2_elabs_1LOUU54.sdf', '/opt/xchem-fragalysis-2/maxwin/BulkDock/OUTPUTS/openbind_a71ev2a_c2_elabs_1LSYIDY.sdf']

>  <name>  (294) 
P545107

>  <ref_pdb>  (294) 
A0884a

>  <subsites>  (294) 
None

>  <HIPPO Pose ID>  (294) 
545107

>  <ref_mols>  (294) 
A0884a

>  <HIPPO Compound ID>  (294) 
383452

>  <tags>  (294) 
openbind_a71ev2a_c2_elabs,syndirella_product,openbind_a71ev2a_c2_elabs_fragonly_scored_top80percent,openbind_a71ev2a_c2_elabs_scored,BulkDock Fragalysis export,openbind_a71ev2a_c2_elabs_scored_top80percent,openbind_a71ev2a_c2_elabs_activefrags_only_scored_5.2plus,syndirella_placed

>  <smina_score_min>  (294) 
-6.757

$$$$
P545108
     RDKit          3D

 20 21  0  0  0  0  0  0  0  0999 V2000
    5.0863   14.1996   28.4504 C   0  0  0  0  0  0  0  0  0  0  0  0
    4.4603   13.1904   27.8226 C   0  0  0  0  0  0  0  0  0  0  0  0
    2.9780   12.9992   27.8305 C   0  0  0  0  0  0  0  0  0  0  0  0
    5.2608   12.1200   27.1394 C   0  0  0  0  0  0  0  0  0  0  0  0
    5.1037   10.9877   27.3743 O   0  0  0  0  0  0  0  0  0  0  0  0
    6.2146   12.8139   26.1360 N   0  0  0  0  0  0  0  0  0  0  0  0
    7.2082   12.2794   25.3086 C   0  0  0  0  0  0  0  0  0  0  0  0
    7.4013   10.8986   25.2326 C   0  0  0  0  0  0  0  0  0  0  0  0
    8.4423   10.3748   24.4690 C   0  0  0  0  0  0  0  0  0  0  0  0
    9.3466   11.2279   23.8604 C   0  0  0  0  0  0  0  0  0  0  0  0
   10.3873   10.6939   23.2151 F   0  0  0  0  0  0  0  0  0  0  0  0
    9.1980   12.6113   23.9487 C   0  0  0  0  0  0  0  0  0  0  0  0
   10.2294   13.4776   23.5297 N   0  0  0  0  0  0  0  0  0  0  0  0
   11.5666   13.3982   24.0627 C   0  0  0  0  0  0  0  0  0  0  0  0
   12.3093   14.4151   23.2221 C   0  0  0  0  0  0  0  0  0  0  0  0
   11.6092   14.3850   21.9937 N   0  0  0  0  0  0  0  0  0  0  0  0
   10.3189   13.9477   22.2122 C   0  0  0  0  0  0  0  0  0  0  0  0
    9.4336   14.0358   21.3868 O   0  0  0  0  0  0  0  0  0  0  0  0
    8.0597   13.1475   24.5900 C   0  0  0  0  0  0  0  0  0  0  0  0
    7.8078   14.6309   24.5569 C   0  0  0  0  0  0  0  0  0  0  0  0
  1  2  2  0
  2  3  1  0
  2  4  1  0
  4  5  2  0
  4  6  1  0
  6  7  1  0
  7  8  2  0
  8  9  1  0
  9 10  2  0
 10 11  1  0
 10 12  1  0
 12 13  1  0
 13 14  1  0
 14 15  1  0
 15 16  1  0
 16 17  1  0
 17 18  2  0
 12 19  2  0
 19 20  1  0
 19  7  1  0
 17 13  1  0
M  END
>  <alias>  (295) 
None

>  <rmsd(smina/fragmenstein)>  (295) 
0.696

>  <smiles>  (295) 
C=C(C)C(=O)Nc1ccc(F)c(N2CCNC2=O)c1C

>  <gnina_score>  (295) 
5.465

>  <inspiration_score>  (295) 
None

>  <energy_score>  (295) 
-30.880907

>  <distance_score>  (295) 
1.630216

>  <gnina_score_min>  (295) 
5.431

>  <inchikey>  (295) 
BBIFFLBYVVIHHG-UHFFFAOYSA-N

>  <exports>  (295) 
['/opt/xchem-fragalysis-2/maxwin/BulkDock/OUTPUTS/openbind_a71ev2a_c2_elabs_1LOUU54.sdf', '/opt/xchem-fragalysis-2/maxwin/BulkDock/OUTPUTS/openbind_a71ev2a_c2_elabs_1LSYIDY.sdf']

>  <name>  (295) 
P545108

>  <ref_pdb>  (295) 
A0884a

>  <subsites>  (295) 
None

>  <HIPPO Pose ID>  (295) 
545108

>  <ref_mols>  (295) 
A0884a

>  <HIPPO Compound ID>  (295) 
383453

>  <tags>  (295) 
openbind_a71ev2a_c2_elabs,syndirella_product,openbind_a71ev2a_c2_elabs_fragonly_scored_top80percent,openbind_a71ev2a_c2_elabs_scored,BulkDock Fragalysis export,openbind_a71ev2a_c2_elabs_scored_top80percent,openbind_a71ev2a_c2_elabs_activefrags_only_scored_5.2plus,syndirella_placed

>  <smina_score_min>  (295) 
-6.258

$$$$
P545109
     RDKit          3D

 20 21  0  0  0  0  0  0  0  0999 V2000
    5.3893   13.8904   28.5101 C   0  0  0  0  0  0  0  0  0  0  0  0
    5.6770   14.7130   27.4884 C   0  0  0  0  0  0  0  0  0  0  0  0
    4.8713   15.9213   27.1243 C   0  0  0  0  0  0  0  0  0  0  0  0
    6.9160   14.5103   26.6682 C   0  0  0  0  0  0  0  0  0  0  0  0
    7.6741   15.3793   26.4808 O   0  0  0  0  0  0  0  0  0  0  0  0
    6.9068   13.0513   26.1374 N   0  0  0  0  0  0  0  0  0  0  0  0
    7.7439   12.4172   25.2278 C   0  0  0  0  0  0  0  0  0  0  0  0
    7.7032   11.0325   25.0781 C   0  0  0  0  0  0  0  0  0  0  0  0
    8.6066   10.4029   24.2154 C   0  0  0  0  0  0  0  0  0  0  0  0
    9.5105   11.1530   23.4642 C   0  0  0  0  0  0  0  0  0  0  0  0
    9.5000   12.5420   23.5714 C   0  0  0  0  0  0  0  0  0  0  0  0
   10.3301   13.3438   22.7511 N   0  0  0  0  0  0  0  0  0  0  0  0
   11.6263   13.5854   23.1980 C   0  0  0  0  0  0  0  0  0  0  0  0
   12.1628   13.0307   24.1564 O   0  0  0  0  0  0  0  0  0  0  0  0
   12.3454   14.7067   22.5241 C   0  0  0  0  0  0  0  0  0  0  0  0
   11.9692   14.7074   21.0758 C   0  0  0  0  0  0  0  0  0  0  0  0
   10.5477   14.8654   20.9837 N   0  0  0  0  0  0  0  0  0  0  0  0
    9.7107   14.0909   21.7425 C   0  0  0  0  0  0  0  0  0  0  0  0
    8.5052   14.0905   21.4944 O   0  0  0  0  0  0  0  0  0  0  0  0
    8.6335   13.1683   24.4681 C   0  0  0  0  0  0  0  0  0  0  0  0
  1  2  2  0
  2  3  1  0
  2  4  1  0
  4  5  2  0
  4  6  1  0
  6  7  1  0
  7  8  2  0
  8  9  1  0
  9 10  2  0
 10 11  1  0
 11 12  1  0
 12 13  1  0
 13 14  2  0
 13 15  1  0
 15 16  1  0
 16 17  1  0
 17 18  1  0
 18 19  2  0
 11 20  2  0
 20  7  1  0
 18 12  1  0
M  END
>  <alias>  (296) 
None

>  <rmsd(smina/fragmenstein)>  (296) 
0.243

>  <smiles>  (296) 
C=C(C)C(=O)Nc1cccc(N2C(=O)CCNC2=O)c1

>  <gnina_score>  (296) 
5.182

>  <inspiration_score>  (296) 
None

>  <energy_score>  (296) 
-10.833518

>  <distance_score>  (296) 
1.772454

>  <gnina_score_min>  (296) 
5.253

>  <inchikey>  (296) 
YMOORLPWDXZSKJ-UHFFFAOYSA-N

>  <exports>  (296) 
['/opt/xchem-fragalysis-2/maxwin/BulkDock/OUTPUTS/openbind_a71ev2a_c2_elabs_1LOUU54.sdf', '/opt/xchem-fragalysis-2/maxwin/BulkDock/OUTPUTS/openbind_a71ev2a_c2_elabs_1LSYIDY.sdf']

>  <name>  (296) 
P545109

>  <ref_pdb>  (296) 
A0884a

>  <subsites>  (296) 
None

>  <HIPPO Pose ID>  (296) 
545109

>  <ref_mols>  (296) 
A0884a

>  <HIPPO Compound ID>  (296) 
383456

>  <tags>  (296) 
openbind_a71ev2a_c2_elabs,syndirella_product,openbind_a71ev2a_c2_elabs_fragonly_scored_top80percent,openbind_a71ev2a_c2_elabs_scored,BulkDock Fragalysis export,openbind_a71ev2a_c2_elabs_scored_top80percent,openbind_a71ev2a_c2_elabs_activefrags_only_scored_5.2plus,syndirella_placed

>  <smina_score_min>  (296) 
-7.123

$$$$
P545110
     RDKit          3D

 20 21  0  0  0  0  0  0  0  0999 V2000
    3.9924   13.9359   26.9322 C   0  0  0  0  0  0  0  0  0  0  0  0
    4.6991   13.0716   27.6788 C   0  0  0  0  0  0  0  0  0  0  0  0
    4.6763   13.0395   29.1731 C   0  0  0  0  0  0  0  0  0  0  0  0
    5.5185   12.0011   27.0208 C   0  0  0  0  0  0  0  0  0  0  0  0
    5.4074   10.8763   27.3121 O   0  0  0  0  0  0  0  0  0  0  0  0
    6.4507   12.6836   25.9892 N   0  0  0  0  0  0  0  0  0  0  0  0
    7.4726   12.1508   25.1963 C   0  0  0  0  0  0  0  0  0  0  0  0
    7.6116   10.7699   25.0831 C   0  0  0  0  0  0  0  0  0  0  0  0
    8.6052   10.2267   24.2745 C   0  0  0  0  0  0  0  0  0  0  0  0
    9.5097   11.0492   23.6233 C   0  0  0  0  0  0  0  0  0  0  0  0
    9.4282   12.4333   23.7758 C   0  0  0  0  0  0  0  0  0  0  0  0
   10.5066   13.1720   23.2549 N   0  0  0  0  0  0  0  0  0  0  0  0
   11.4155   13.8367   24.0307 C   0  0  0  0  0  0  0  0  0  0  0  0
   11.5027   13.8560   25.2520 O   0  0  0  0  0  0  0  0  0  0  0  0
   12.3070   14.6511   23.1174 C   0  0  0  0  0  0  0  0  0  0  0  0
   11.6613   14.4855   21.8715 N   0  0  0  0  0  0  0  0  0  0  0  0
   10.4842   13.8078   22.0523 C   0  0  0  0  0  0  0  0  0  0  0  0
    9.5569   13.9335   21.2761 O   0  0  0  0  0  0  0  0  0  0  0  0
    8.3571   13.0028   24.5008 C   0  0  0  0  0  0  0  0  0  0  0  0
    8.1720   14.4908   24.5425 C   0  0  0  0  0  0  0  0  0  0  0  0
  1  2  2  0
  2  3  1  0
  2  4  1  0
  4  5  2  0
  4  6  1  0
  6  7  1  0
  7  8  2  0
  8  9  1  0
  9 10  2  0
 10 11  1  0
 11 12  1  0
 12 13  1  0
 13 14  2  0
 13 15  1  0
 15 16  1  0
 16 17  1  0
 17 18  2  0
 11 19  2  0
 19 20  1  0
 19  7  1  0
 17 12  1  0
M  END
>  <alias>  (297) 
None

>  <rmsd(smina/fragmenstein)>  (297) 
0.5

>  <smiles>  (297) 
C=C(C)C(=O)Nc1cccc(N2C(=O)CNC2=O)c1C

>  <gnina_score>  (297) 
5.189

>  <inspiration_score>  (297) 
None

>  <energy_score>  (297) 
-33.039469

>  <distance_score>  (297) 
1.527723

>  <gnina_score_min>  (297) 
5.216

>  <inchikey>  (297) 
PMAKGQLQFGDILR-UHFFFAOYSA-N

>  <exports>  (297) 
['/opt/xchem-fragalysis-2/maxwin/BulkDock/OUTPUTS/openbind_a71ev2a_c2_elabs_1LOUU54.sdf', '/opt/xchem-fragalysis-2/maxwin/BulkDock/OUTPUTS/openbind_a71ev2a_c2_elabs_1LSYIDY.sdf']

>  <name>  (297) 
P545110

>  <ref_pdb>  (297) 
A0884a

>  <subsites>  (297) 
None

>  <HIPPO Pose ID>  (297) 
545110

>  <ref_mols>  (297) 
A0884a

>  <HIPPO Compound ID>  (297) 
383457

>  <tags>  (297) 
openbind_a71ev2a_c2_elabs,syndirella_product,openbind_a71ev2a_c2_elabs_fragonly_scored_top80percent,openbind_a71ev2a_c2_elabs_scored,BulkDock Fragalysis export,openbind_a71ev2a_c2_elabs_scored_top80percent,openbind_a71ev2a_c2_elabs_activefrags_only_scored_5.2plus,syndirella_placed

>  <smina_score_min>  (297) 
-6.519

$$$$
P545111
     RDKit          3D

 20 21  0  0  0  0  0  0  0  0999 V2000
    5.1828   14.0308   28.5804 C   0  0  0  0  0  0  0  0  0  0  0  0
    4.5755   13.0434   27.9015 C   0  0  0  0  0  0  0  0  0  0  0  0
    3.0942   12.8534   27.8597 C   0  0  0  0  0  0  0  0  0  0  0  0
    5.3992   11.9929   27.2149 C   0  0  0  0  0  0  0  0  0  0  0  0
    5.2627   10.8560   27.4399 O   0  0  0  0  0  0  0  0  0  0  0  0
    6.3846   12.7168   26.2644 N   0  0  0  0  0  0  0  0  0  0  0  0
    7.3133   12.2002   25.3514 C   0  0  0  0  0  0  0  0  0  0  0  0
    7.4838   10.8222   25.2171 C   0  0  0  0  0  0  0  0  0  0  0  0
    8.4752   10.3070   24.3819 C   0  0  0  0  0  0  0  0  0  0  0  0
    9.3445   11.1590   23.7197 C   0  0  0  0  0  0  0  0  0  0  0  0
    9.1959   12.5393   23.8566 C   0  0  0  0  0  0  0  0  0  0  0  0
   10.2524   13.3457   23.3777 N   0  0  0  0  0  0  0  0  0  0  0  0
   11.3621   13.5723   24.2736 C   0  0  0  0  0  0  0  0  0  0  0  0
   12.6355   13.6831   23.4824 C   0  0  0  0  0  0  0  0  0  0  0  0
   12.4754   14.8613   22.5568 C   0  0  0  0  0  0  0  0  0  0  0  0
   11.2618   14.7403   21.8137 N   0  0  0  0  0  0  0  0  0  0  0  0
   10.1727   14.0226   22.1843 C   0  0  0  0  0  0  0  0  0  0  0  0
    9.2025   14.0266   21.4416 O   0  0  0  0  0  0  0  0  0  0  0  0
    8.1323   13.0793   24.6123 C   0  0  0  0  0  0  0  0  0  0  0  0
    7.9231   14.5665   24.6707 C   0  0  0  0  0  0  0  0  0  0  0  0
  1  2  2  0
  2  3  1  0
  2  4  1  0
  4  5  2  0
  4  6  1  0
  6  7  1  0
  7  8  2  0
  8  9  1  0
  9 10  2  0
 10 11  1  0
 11 12  1  0
 12 13  1  0
 13 14  1  0
 14 15  1  0
 15 16  1  0
 16 17  1  0
 17 18  2  0
 11 19  2  0
 19 20  1  0
 19  7  1  0
 17 12  1  0
M  END
>  <alias>  (298) 
None

>  <rmsd(smina/fragmenstein)>  (298) 
0.442

>  <smiles>  (298) 
C=C(C)C(=O)Nc1cccc(N2CCCNC2=O)c1C

>  <gnina_score>  (298) 
5.311

>  <inspiration_score>  (298) 
None

>  <energy_score>  (298) 
-20.742673

>  <distance_score>  (298) 
1.661154

>  <gnina_score_min>  (298) 
5.336

>  <inchikey>  (298) 
UQQFQUKGVPPVNT-UHFFFAOYSA-N

>  <exports>  (298) 
['/opt/xchem-fragalysis-2/maxwin/BulkDock/OUTPUTS/openbind_a71ev2a_c2_elabs_1LOUU54.sdf', '/opt/xchem-fragalysis-2/maxwin/BulkDock/OUTPUTS/openbind_a71ev2a_c2_elabs_1LSYIDY.sdf']

>  <name>  (298) 
P545111

>  <ref_pdb>  (298) 
A0884a

>  <subsites>  (298) 
None

>  <HIPPO Pose ID>  (298) 
545111

>  <ref_mols>  (298) 
A0884a

>  <HIPPO Compound ID>  (298) 
383458

>  <tags>  (298) 
openbind_a71ev2a_c2_elabs,syndirella_product,openbind_a71ev2a_c2_elabs_fragonly_scored_top80percent,openbind_a71ev2a_c2_elabs_scored,BulkDock Fragalysis export,openbind_a71ev2a_c2_elabs_scored_top80percent,openbind_a71ev2a_c2_elabs_activefrags_only_scored_5.2plus,syndirella_placed

>  <smina_score_min>  (298) 
-6.372

$$$$
P545113
     RDKit          3D

 20 21  0  0  0  0  0  0  0  0999 V2000
    3.8220   13.8977   28.2809 C   0  0  0  0  0  0  0  0  0  0  0  0
    4.5208   13.0733   27.7558 C   0  0  0  0  0  0  0  0  0  0  0  0
    5.3681   12.0857   27.1132 C   0  0  0  0  0  0  0  0  0  0  0  0
    5.1582   10.9567   27.3085 O   0  0  0  0  0  0  0  0  0  0  0  0
    6.4424   12.7654   26.2459 N   0  0  0  0  0  0  0  0  0  0  0  0
    7.3990   12.2143   25.3851 C   0  0  0  0  0  0  0  0  0  0  0  0
    7.4791   10.8309   25.2228 C   0  0  0  0  0  0  0  0  0  0  0  0
    8.4317   10.2767   24.3734 C   0  0  0  0  0  0  0  0  0  0  0  0
    9.3393   11.0925   23.7259 C   0  0  0  0  0  0  0  0  0  0  0  0
   10.2648   10.5224   22.9489 F   0  0  0  0  0  0  0  0  0  0  0  0
    9.3293   12.4728   23.9173 C   0  0  0  0  0  0  0  0  0  0  0  0
   10.4262   13.1847   23.3962 N   0  0  0  0  0  0  0  0  0  0  0  0
   11.3403   13.8678   24.1459 C   0  0  0  0  0  0  0  0  0  0  0  0
   11.3987   13.9662   25.3651 O   0  0  0  0  0  0  0  0  0  0  0  0
   12.2844   14.5814   23.1994 C   0  0  0  0  0  0  0  0  0  0  0  0
   11.6623   14.3469   21.9520 N   0  0  0  0  0  0  0  0  0  0  0  0
   10.4562   13.7290   22.1510 C   0  0  0  0  0  0  0  0  0  0  0  0
    9.5412   13.8477   21.3592 O   0  0  0  0  0  0  0  0  0  0  0  0
    8.3021   13.0550   24.6942 C   0  0  0  0  0  0  0  0  0  0  0  0
    8.1781   14.5473   24.7814 C   0  0  0  0  0  0  0  0  0  0  0  0
  1  2  3  0
  2  3  1  0
  3  4  2  0
  3  5  1  0
  5  6  1  0
  6  7  2  0
  7  8  1  0
  8  9  2  0
  9 10  1  0
  9 11  1  0
 11 12  1  0
 12 13  1  0
 13 14  2  0
 13 15  1  0
 15 16  1  0
 16 17  1  0
 17 18  2  0
 11 19  2  0
 19 20  1  0
 19  6  1  0
 17 12  1  0
M  END
>  <alias>  (299) 
None

>  <rmsd(smina/fragmenstein)>  (299) 
0.439

>  <smiles>  (299) 
C#CC(=O)Nc1ccc(F)c(N2C(=O)CNC2=O)c1C

>  <gnina_score>  (299) 
5.389

>  <inspiration_score>  (299) 
None

>  <energy_score>  (299) 
-32.997487

>  <distance_score>  (299) 
1.547977

>  <gnina_score_min>  (299) 
5.316

>  <inchikey>  (299) 
WFHVSHABFZNMEA-UHFFFAOYSA-N

>  <exports>  (299) 
['/opt/xchem-fragalysis-2/maxwin/BulkDock/OUTPUTS/openbind_a71ev2a_c2_elabs_1LOUU54.sdf', '/opt/xchem-fragalysis-2/maxwin/BulkDock/OUTPUTS/openbind_a71ev2a_c2_elabs_1LSYIDY.sdf']

>  <name>  (299) 
P545113

>  <ref_pdb>  (299) 
A0884a

>  <subsites>  (299) 
None

>  <HIPPO Pose ID>  (299) 
545113

>  <ref_mols>  (299) 
A0884a

>  <HIPPO Compound ID>  (299) 
383464

>  <tags>  (299) 
openbind_a71ev2a_c2_elabs,syndirella_product,openbind_a71ev2a_c2_elabs_fragonly_scored_top80percent,openbind_a71ev2a_c2_elabs_scored,BulkDock Fragalysis export,openbind_a71ev2a_c2_elabs_scored_top80percent,openbind_a71ev2a_c2_elabs_activefrags_only_scored_5.2plus,syndirella_placed

>  <smina_score_min>  (299) 
-6.291

$$$$
P545115
     RDKit          3D

 20 21  0  0  0  0  0  0  0  0999 V2000
    3.2784   14.1903   26.8544 C   0  0  0  0  0  0  0  0  0  0  0  0
    4.3102   14.1745   26.2387 C   0  0  0  0  0  0  0  0  0  0  0  0
    5.5583   14.1709   25.4954 C   0  0  0  0  0  0  0  0  0  0  0  0
    5.9260   15.1638   25.0145 O   0  0  0  0  0  0  0  0  0  0  0  0
    6.1948   12.7724   25.5036 N   0  0  0  0  0  0  0  0  0  0  0  0
    7.3331   12.2939   24.8632 C   0  0  0  0  0  0  0  0  0  0  0  0
    7.6181   10.9355   24.9445 C   0  0  0  0  0  0  0  0  0  0  0  0
    8.7174   10.4329   24.2630 C   0  0  0  0  0  0  0  0  0  0  0  0
    8.9333    9.1149   24.2695 F   0  0  0  0  0  0  0  0  0  0  0  0
    9.5740   11.2625   23.5564 C   0  0  0  0  0  0  0  0  0  0  0  0
    9.3055   12.6284   23.4883 C   0  0  0  0  0  0  0  0  0  0  0  0
   10.1668   13.4671   22.7339 N   0  0  0  0  0  0  0  0  0  0  0  0
    9.5801   14.4259   21.8110 C   0  0  0  0  0  0  0  0  0  0  0  0
   10.5360   14.9217   20.7459 C   0  0  0  0  0  0  0  0  0  0  0  0
   11.9599   14.5923   21.0712 C   0  0  0  0  0  0  0  0  0  0  0  0
   12.8103   14.4322   20.1992 O   0  0  0  0  0  0  0  0  0  0  0  0
   12.2358   14.4943   22.4009 N   0  0  0  0  0  0  0  0  0  0  0  0
   11.4645   13.6861   23.1902 C   0  0  0  0  0  0  0  0  0  0  0  0
   11.9365   13.1883   24.2107 O   0  0  0  0  0  0  0  0  0  0  0  0
    8.1680   13.1377   24.1247 C   0  0  0  0  0  0  0  0  0  0  0  0
  1  2  3  0
  2  3  1  0
  3  4  2  0
  3  5  1  0
  5  6  1  0
  6  7  2  0
  7  8  1  0
  8  9  1  0
  8 10  2  0
 10 11  1  0
 11 12  1  0
 12 13  1  0
 13 14  1  0
 14 15  1  0
 15 16  2  0
 15 17  1  0
 17 18  1  0
 18 19  2  0
 11 20  2  0
 20  6  1  0
 18 12  1  0
M  END
>  <alias>  (300) 
None

>  <rmsd(smina/fragmenstein)>  (300) 
0.705

>  <smiles>  (300) 
C#CC(=O)Nc1cc(F)cc(N2CCC(=O)NC2=O)c1

>  <gnina_score>  (300) 
5.197

>  <inspiration_score>  (300) 
None

>  <energy_score>  (300) 
-27.442608

>  <distance_score>  (300) 
1.540949

>  <gnina_score_min>  (300) 
5.267

>  <inchikey>  (300) 
CJNQYKGKBOPHRX-UHFFFAOYSA-N

>  <exports>  (300) 
['/opt/xchem-fragalysis-2/maxwin/BulkDock/OUTPUTS/openbind_a71ev2a_c2_elabs_1LOUU54.sdf', '/opt/xchem-fragalysis-2/maxwin/BulkDock/OUTPUTS/openbind_a71ev2a_c2_elabs_1LSYIDY.sdf']

>  <name>  (300) 
P545115

>  <ref_pdb>  (300) 
A0884a

>  <subsites>  (300) 
None

>  <HIPPO Pose ID>  (300) 
545115

>  <ref_mols>  (300) 
A0884a

>  <HIPPO Compound ID>  (300) 
383466

>  <tags>  (300) 
openbind_a71ev2a_c2_elabs,syndirella_product,openbind_a71ev2a_c2_elabs_fragonly_scored_top80percent,openbind_a71ev2a_c2_elabs_scored,BulkDock Fragalysis export,openbind_a71ev2a_c2_elabs_scored_top80percent,openbind_a71ev2a_c2_elabs_activefrags_only_scored_5.2plus,syndirella_placed

>  <smina_score_min>  (300) 
-6.936

$$$$
P545116
     RDKit          3D

 20 21  0  0  0  0  0  0  0  0999 V2000
    3.8359   13.4598   29.0426 C   0  0  0  0  0  0  0  0  0  0  0  0
    4.4917   12.7198   28.3600 C   0  0  0  0  0  0  0  0  0  0  0  0
    5.2864   11.8326   27.5306 C   0  0  0  0  0  0  0  0  0  0  0  0
    5.1619   10.6822   27.6633 O   0  0  0  0  0  0  0  0  0  0  0  0
    6.1883   12.6350   26.5767 N   0  0  0  0  0  0  0  0  0  0  0  0
    7.1693   12.2049   25.6755 C   0  0  0  0  0  0  0  0  0  0  0  0
    7.3179   10.8422   25.4024 C   0  0  0  0  0  0  0  0  0  0  0  0
    8.2996   10.3907   24.5237 C   0  0  0  0  0  0  0  0  0  0  0  0
    9.1550   11.2954   23.9192 C   0  0  0  0  0  0  0  0  0  0  0  0
    9.0367   12.6668   24.1973 C   0  0  0  0  0  0  0  0  0  0  0  0
    9.9629   13.5557   23.6104 N   0  0  0  0  0  0  0  0  0  0  0  0
   10.2876   13.4144   22.3063 C   0  0  0  0  0  0  0  0  0  0  0  0
    9.5698   13.6872   21.3632 O   0  0  0  0  0  0  0  0  0  0  0  0
   11.6286   13.1758   22.1862 N   0  0  0  0  0  0  0  0  0  0  0  0
   12.2452   13.9498   23.2007 C   0  0  1  0  0  0  0  0  0  0  0  0
   12.4366   15.3292   22.6249 C   0  0  0  0  0  0  0  0  0  0  0  0
   11.1279   13.9003   24.2491 C   0  0  0  0  0  0  0  0  0  0  0  0
   11.2610   14.2198   25.4253 O   0  0  0  0  0  0  0  0  0  0  0  0
    8.0105   13.1419   25.0397 C   0  0  0  0  0  0  0  0  0  0  0  0
    7.8350   14.6227   25.2505 C   0  0  0  0  0  0  0  0  0  0  0  0
  1  2  3  0
  2  3  1  0
  3  4  2  0
  3  5  1  0
  5  6  1  0
  6  7  2  0
  7  8  1  0
  8  9  2  0
  9 10  1  0
 10 11  1  0
 11 12  1  0
 12 13  2  0
 12 14  1  0
 14 15  1  0
 15 16  1  6
 15 17  1  0
 17 18  2  0
 10 19  2  0
 19 20  1  0
 19  6  1  0
 17 11  1  0
M  END
>  <alias>  (301) 
None

>  <rmsd(smina/fragmenstein)>  (301) 
0.889

>  <smiles>  (301) 
C#CC(=O)Nc1cccc(N2C(=O)N[C@@H](C)C2=O)c1C

>  <gnina_score>  (301) 
5.095

>  <inspiration_score>  (301) 
None

>  <energy_score>  (301) 
-11.959987

>  <distance_score>  (301) 
1.705362

>  <gnina_score_min>  (301) 
5.283

>  <inchikey>  (301) 
ZJLNVBDNFILMDN-VIFPVBQESA-N

>  <exports>  (301) 
['/opt/xchem-fragalysis-2/maxwin/BulkDock/OUTPUTS/openbind_a71ev2a_c2_elabs_1LOUU54.sdf', '/opt/xchem-fragalysis-2/maxwin/BulkDock/OUTPUTS/openbind_a71ev2a_c2_elabs_1LSYIDY.sdf']

>  <name>  (301) 
P545116

>  <ref_pdb>  (301) 
A0884a

>  <subsites>  (301) 
None

>  <HIPPO Pose ID>  (301) 
545116

>  <ref_mols>  (301) 
A0884a

>  <HIPPO Compound ID>  (301) 
383467

>  <tags>  (301) 
openbind_a71ev2a_c2_elabs,syndirella_product,openbind_a71ev2a_c2_elabs_fragonly_scored_top80percent,openbind_a71ev2a_c2_elabs_scored,BulkDock Fragalysis export,openbind_a71ev2a_c2_elabs_scored_top80percent,openbind_a71ev2a_c2_elabs_activefrags_only_scored_5.2plus,syndirella_placed

>  <smina_score_min>  (301) 
-6.335

$$$$
P545120
     RDKit          3D

 20 21  0  0  0  0  0  0  0  0999 V2000
    3.6039   14.6357   27.5059 C   0  0  0  0  0  0  0  0  0  0  0  0
    4.3242   13.7509   27.1291 C   0  0  0  0  0  0  0  0  0  0  0  0
    5.1985   12.6901   26.6634 C   0  0  0  0  0  0  0  0  0  0  0  0
    5.0389   11.6123   27.0764 O   0  0  0  0  0  0  0  0  0  0  0  0
    6.2031   13.2229   25.6265 N   0  0  0  0  0  0  0  0  0  0  0  0
    7.2506   12.5829   24.9706 C   0  0  0  0  0  0  0  0  0  0  0  0
    7.4824   11.2130   25.1120 C   0  0  0  0  0  0  0  0  0  0  0  0
    8.5461   10.6177   24.4367 C   0  0  0  0  0  0  0  0  0  0  0  0
    9.4034   11.4014   23.6754 C   0  0  0  0  0  0  0  0  0  0  0  0
   10.3995   10.7980   23.0228 F   0  0  0  0  0  0  0  0  0  0  0  0
    9.1915   12.7748   23.5267 C   0  0  0  0  0  0  0  0  0  0  0  0
   10.0857   13.5614   22.7483 N   0  0  0  0  0  0  0  0  0  0  0  0
    9.5381   14.4502   21.7354 C   0  0  0  0  0  0  0  0  0  0  0  0
   10.5400   14.9435   20.7123 C   0  0  0  0  0  0  0  0  0  0  0  0
   11.9385   14.5233   21.0372 C   0  0  0  0  0  0  0  0  0  0  0  0
   12.7813   14.3075   20.1721 O   0  0  0  0  0  0  0  0  0  0  0  0
   12.2119   14.4446   22.3692 N   0  0  0  0  0  0  0  0  0  0  0  0
   11.3909   13.7284   23.1939 C   0  0  0  0  0  0  0  0  0  0  0  0
   11.8244   13.2887   24.2582 O   0  0  0  0  0  0  0  0  0  0  0  0
    8.0848   13.3548   24.1523 C   0  0  0  0  0  0  0  0  0  0  0  0
  1  2  3  0
  2  3  1  0
  3  4  2  0
  3  5  1  0
  5  6  1  0
  6  7  2  0
  7  8  1  0
  8  9  2  0
  9 10  1  0
  9 11  1  0
 11 12  1  0
 12 13  1  0
 13 14  1  0
 14 15  1  0
 15 16  2  0
 15 17  1  0
 17 18  1  0
 18 19  2  0
 11 20  2  0
 20  6  1  0
 18 12  1  0
M  END
>  <alias>  (302) 
None

>  <rmsd(smina/fragmenstein)>  (302) 
0.389

>  <smiles>  (302) 
C#CC(=O)Nc1ccc(F)c(N2CCC(=O)NC2=O)c1

>  <gnina_score>  (302) 
5.228

>  <inspiration_score>  (302) 
None

>  <energy_score>  (302) 
-19.238951

>  <distance_score>  (302) 
1.227415

>  <gnina_score_min>  (302) 
5.251

>  <inchikey>  (302) 
OMCNYVGTAGCWQP-UHFFFAOYSA-N

>  <exports>  (302) 
['/opt/xchem-fragalysis-2/maxwin/BulkDock/OUTPUTS/openbind_a71ev2a_c2_elabs_1LOUU54.sdf', '/opt/xchem-fragalysis-2/maxwin/BulkDock/OUTPUTS/openbind_a71ev2a_c2_elabs_1LSYIDY.sdf']

>  <name>  (302) 
P545120

>  <ref_pdb>  (302) 
A0884a

>  <subsites>  (302) 
None

>  <HIPPO Pose ID>  (302) 
545120

>  <ref_mols>  (302) 
A0884a

>  <HIPPO Compound ID>  (302) 
383472

>  <tags>  (302) 
openbind_a71ev2a_c2_elabs,syndirella_product,openbind_a71ev2a_c2_elabs_fragonly_scored_top80percent,openbind_a71ev2a_c2_elabs_scored,BulkDock Fragalysis export,openbind_a71ev2a_c2_elabs_scored_top80percent,openbind_a71ev2a_c2_elabs_activefrags_only_scored_5.2plus,syndirella_placed

>  <smina_score_min>  (302) 
-6.807

$$$$
P545126
     RDKit          3D

 20 21  0  0  0  0  0  0  0  0999 V2000
    9.9260   10.1245   23.1553 C   0  0  0  0  0  0  0  0  0  0  0  0
    9.0950   11.1031   23.9244 C   0  0  0  0  0  0  0  0  0  0  0  0
    8.0483   10.5838   24.6945 C   0  0  0  0  0  0  0  0  0  0  0  0
    7.1666   11.4246   25.3678 C   0  0  0  0  0  0  0  0  0  0  0  0
    7.3109   12.8037   25.2684 C   0  0  0  0  0  0  0  0  0  0  0  0
    6.3765   13.6714   25.8254 N   0  0  0  0  0  0  0  0  0  0  0  0
    5.1514   13.3837   26.7543 C   0  0  0  0  0  0  0  0  0  0  0  0
    4.7018   12.3656   27.1255 O   0  0  0  0  0  0  0  0  0  0  0  0
    4.5494   14.7268   27.1829 C   0  0  1  0  0  0  0  0  0  0  0  0
    5.5007   15.6133   27.9623 C   0  0  0  0  0  0  0  0  0  0  0  0
    3.9093   15.6443   25.5889 Br  0  0  0  0  0  0  0  0  0  0  0  0
    8.3996   13.3352   24.5739 C   0  0  0  0  0  0  0  0  0  0  0  0
    9.3208   12.4913   23.9341 C   0  0  0  0  0  0  0  0  0  0  0  0
   10.4905   13.0362   23.3532 N   0  0  0  0  0  0  0  0  0  0  0  0
   11.4003   13.7418   24.0978 C   0  0  0  0  0  0  0  0  0  0  0  0
   11.4634   13.8503   25.3170 O   0  0  0  0  0  0  0  0  0  0  0  0
   12.3157   14.4989   23.1616 C   0  0  0  0  0  0  0  0  0  0  0  0
   11.6778   14.2804   21.9218 N   0  0  0  0  0  0  0  0  0  0  0  0
   10.4651   13.6814   22.1523 C   0  0  0  0  0  0  0  0  0  0  0  0
    9.5136   13.8987   21.4252 O   0  0  0  0  0  0  0  0  0  0  0  0
  1  2  1  0
  2  3  2  0
  3  4  1  0
  4  5  2  0
  5  6  1  0
  6  7  1  0
  7  8  2  0
  7  9  1  0
  9 10  1  6
  9 11  1  0
  5 12  1  0
 12 13  2  0
 13 14  1  0
 14 15  1  0
 15 16  2  0
 15 17  1  0
 17 18  1  0
 18 19  1  0
 19 20  2  0
 13  2  1  0
 19 14  1  0
M  END
>  <alias>  (303) 
None

>  <rmsd(smina/fragmenstein)>  (303) 
0.867

>  <smiles>  (303) 
Cc1ccc(NC(=O)[C@@H](C)Br)cc1N1C(=O)CNC1=O

>  <gnina_score>  (303) 
5.367

>  <inspiration_score>  (303) 
None

>  <energy_score>  (303) 
-14.470914

>  <distance_score>  (303) 
1.767631

>  <gnina_score_min>  (303) 
5.278

>  <inchikey>  (303) 
OZYWBBAAYCQRCN-MRVPVSSYSA-N

>  <exports>  (303) 
['/opt/xchem-fragalysis-2/maxwin/BulkDock/OUTPUTS/openbind_a71ev2a_c2_elabs_1LOUU54.sdf', '/opt/xchem-fragalysis-2/maxwin/BulkDock/OUTPUTS/openbind_a71ev2a_c2_elabs_1LSYIDY.sdf']

>  <name>  (303) 
P545126

>  <ref_pdb>  (303) 
A0884a

>  <subsites>  (303) 
None

>  <HIPPO Pose ID>  (303) 
545126

>  <ref_mols>  (303) 
A0884a

>  <HIPPO Compound ID>  (303) 
383479

>  <tags>  (303) 
openbind_a71ev2a_c2_elabs,syndirella_product,openbind_a71ev2a_c2_elabs_fragonly_scored_top80percent,openbind_a71ev2a_c2_elabs_scored,BulkDock Fragalysis export,openbind_a71ev2a_c2_elabs_scored_top80percent,openbind_a71ev2a_c2_elabs_activefrags_only_scored_5.2plus,syndirella_placed

>  <smina_score_min>  (303) 
-6.641

$$$$
P545140
     RDKit          3D

 20 21  0  0  0  0  0  0  0  0999 V2000
    5.0700   11.8258   26.8027 O   0  0  0  0  0  0  0  0  0  0  0  0
    5.4471   12.8811   26.4671 C   0  0  0  0  0  0  0  0  0  0  0  0
    4.6701   14.1549   26.7513 C   0  0  0  0  0  0  0  0  0  0  0  0
    3.8378   14.5316   25.5429 C   0  0  0  0  0  0  0  0  0  0  0  0
    2.6787   16.0302   25.9946 Br  0  0  0  0  0  0  0  0  0  0  0  0
    6.7092   13.2889   25.6510 N   0  0  0  0  0  0  0  0  0  0  0  0
    7.6746   12.5030   25.0255 C   0  0  0  0  0  0  0  0  0  0  0  0
    7.6201   11.1121   25.0298 C   0  0  0  0  0  0  0  0  0  0  0  0
    8.5697   10.3786   24.3118 C   0  0  0  0  0  0  0  0  0  0  0  0
    9.5913   11.0214   23.6129 C   0  0  0  0  0  0  0  0  0  0  0  0
    9.6831   12.4110   23.6534 C   0  0  0  0  0  0  0  0  0  0  0  0
   10.7391   13.0649   22.9890 N   0  0  0  0  0  0  0  0  0  0  0  0
   11.7966   13.5828   23.6919 C   0  0  0  0  0  0  0  0  0  0  0  0
   12.1528   13.2877   24.8263 O   0  0  0  0  0  0  0  0  0  0  0  0
   12.4128   14.7090   22.8897 C   0  0  0  0  0  0  0  0  0  0  0  0
   11.5682   14.7427   21.7584 N   0  0  0  0  0  0  0  0  0  0  0  0
   10.4837   13.9405   21.9760 C   0  0  0  0  0  0  0  0  0  0  0  0
    9.4351   14.1192   21.3849 O   0  0  0  0  0  0  0  0  0  0  0  0
    8.7153   13.1422   24.3496 C   0  0  0  0  0  0  0  0  0  0  0  0
    8.8007   14.4828   24.4049 F   0  0  0  0  0  0  0  0  0  0  0  0
  1  2  2  0
  2  3  1  0
  3  4  1  0
  4  5  1  0
  2  6  1  0
  6  7  1  0
  7  8  2  0
  8  9  1  0
  9 10  2  0
 10 11  1  0
 11 12  1  0
 12 13  1  0
 13 14  2  0
 13 15  1  0
 15 16  1  0
 16 17  1  0
 17 18  2  0
 11 19  2  0
 19 20  1  0
 19  7  1  0
 17 12  1  0
M  END
>  <alias>  (304) 
None

>  <rmsd(smina/fragmenstein)>  (304) 
0.655

>  <smiles>  (304) 
O=C(CCBr)Nc1cccc(N2C(=O)CNC2=O)c1F

>  <gnina_score>  (304) 
5.35

>  <inspiration_score>  (304) 
None

>  <energy_score>  (304) 
-15.147845

>  <distance_score>  (304) 
1.616286

>  <gnina_score_min>  (304) 
5.357

>  <inchikey>  (304) 
SHHJWPZXXJXKMX-UHFFFAOYSA-N

>  <exports>  (304) 
['/opt/xchem-fragalysis-2/maxwin/BulkDock/OUTPUTS/openbind_a71ev2a_c2_elabs_1LOUU54.sdf', '/opt/xchem-fragalysis-2/maxwin/BulkDock/OUTPUTS/openbind_a71ev2a_c2_elabs_1LSYIDY.sdf']

>  <name>  (304) 
P545140

>  <ref_pdb>  (304) 
A0884a

>  <subsites>  (304) 
None

>  <HIPPO Pose ID>  (304) 
545140

>  <ref_mols>  (304) 
A0884a

>  <HIPPO Compound ID>  (304) 
383494

>  <tags>  (304) 
openbind_a71ev2a_c2_elabs,syndirella_product,openbind_a71ev2a_c2_elabs_fragonly_scored_top80percent,openbind_a71ev2a_c2_elabs_scored,BulkDock Fragalysis export,openbind_a71ev2a_c2_elabs_scored_top80percent,openbind_a71ev2a_c2_elabs_activefrags_only_scored_5.2plus,syndirella_placed

>  <smina_score_min>  (304) 
-6.489

$$$$
P545142
     RDKit          3D

 20 21  0  0  0  0  0  0  0  0999 V2000
    3.6931   14.2351   27.7053 C   0  0  0  0  0  0  0  0  0  0  0  0
    4.4817   13.4591   27.2366 C   0  0  0  0  0  0  0  0  0  0  0  0
    5.4379   12.5313   26.6603 C   0  0  0  0  0  0  0  0  0  0  0  0
    5.4218   11.4210   27.0135 O   0  0  0  0  0  0  0  0  0  0  0  0
    6.3397   13.2386   25.6338 N   0  0  0  0  0  0  0  0  0  0  0  0
    7.4368   12.7683   24.9183 C   0  0  0  0  0  0  0  0  0  0  0  0
    7.7417   11.4087   24.8486 C   0  0  0  0  0  0  0  0  0  0  0  0
    8.8415   10.9777   24.0973 C   0  0  0  0  0  0  0  0  0  0  0  0
    9.1384    9.5429   23.8717 C   0  0  0  0  0  0  0  0  0  0  0  0
    9.6594   11.9053   23.4706 C   0  0  0  0  0  0  0  0  0  0  0  0
    9.3610   13.2587   23.5490 C   0  0  0  0  0  0  0  0  0  0  0  0
   10.1807   14.1805   22.8562 N   0  0  0  0  0  0  0  0  0  0  0  0
    9.6513   14.5904   21.5538 C   0  0  0  0  0  0  0  0  0  0  0  0
   10.6137   15.3776   20.7107 C   0  0  0  0  0  0  0  0  0  0  0  0
   11.9792   14.7890   20.8828 C   0  0  0  0  0  0  0  0  0  0  0  0
   12.6955   14.4292   19.9544 O   0  0  0  0  0  0  0  0  0  0  0  0
   12.3651   14.7078   22.1888 N   0  0  0  0  0  0  0  0  0  0  0  0
   11.5433   14.1617   23.1291 C   0  0  0  0  0  0  0  0  0  0  0  0
   12.0278   13.6665   24.1484 O   0  0  0  0  0  0  0  0  0  0  0  0
    8.2308   13.6922   24.2382 C   0  0  0  0  0  0  0  0  0  0  0  0
  1  2  3  0
  2  3  1  0
  3  4  2  0
  3  5  1  0
  5  6  1  0
  6  7  2  0
  7  8  1  0
  8  9  1  0
  8 10  2  0
 10 11  1  0
 11 12  1  0
 12 13  1  0
 13 14  1  0
 14 15  1  0
 15 16  2  0
 15 17  1  0
 17 18  1  0
 18 19  2  0
 11 20  2  0
 20  6  1  0
 18 12  1  0
M  END
>  <alias>  (305) 
None

>  <rmsd(smina/fragmenstein)>  (305) 
0.871

>  <smiles>  (305) 
C#CC(=O)Nc1cc(C)cc(N2CCC(=O)NC2=O)c1

>  <gnina_score>  (305) 
5.296

>  <inspiration_score>  (305) 
None

>  <energy_score>  (305) 
-8.21847

>  <distance_score>  (305) 
1.299669

>  <gnina_score_min>  (305) 
5.555

>  <inchikey>  (305) 
NFCKVRSNRGXNCM-UHFFFAOYSA-N

>  <exports>  (305) 
['/opt/xchem-fragalysis-2/maxwin/BulkDock/OUTPUTS/openbind_a71ev2a_c2_elabs_1LOUU54.sdf', '/opt/xchem-fragalysis-2/maxwin/BulkDock/OUTPUTS/openbind_a71ev2a_c2_elabs_1LSYIDY.sdf']

>  <name>  (305) 
P545142

>  <ref_pdb>  (305) 
A0884a

>  <subsites>  (305) 
None

>  <HIPPO Pose ID>  (305) 
545142

>  <ref_mols>  (305) 
A0884a

>  <HIPPO Compound ID>  (305) 
383497

>  <tags>  (305) 
openbind_a71ev2a_c2_elabs,syndirella_product,openbind_a71ev2a_c2_elabs_fragonly_scored_top80percent,BulkDock Fragalysis export,openbind_a71ev2a_c2_elabs_scored,openbind_a71ev2a_c2_elabs_scored_top80percent,openbind_a71ev2a_c2_elabs_activefrags_only_scored_5.2plus,openbind_a71ev2a_c2_elabs_activefrags_only_scored_5.5plus,syndirella_placed

>  <smina_score_min>  (305) 
-7.132

$$$$
P545143
     RDKit          3D

 20 21  0  0  0  0  0  0  0  0999 V2000
    3.7937   14.0524   27.8852 C   0  0  0  0  0  0  0  0  0  0  0  0
    4.5553   13.2918   27.3513 C   0  0  0  0  0  0  0  0  0  0  0  0
    5.4787   12.3821   26.6981 C   0  0  0  0  0  0  0  0  0  0  0  0
    5.3936   11.2426   26.9241 O   0  0  0  0  0  0  0  0  0  0  0  0
    6.4229   13.1435   25.7523 N   0  0  0  0  0  0  0  0  0  0  0  0
    7.4892   12.6902   24.9812 C   0  0  0  0  0  0  0  0  0  0  0  0
    7.8012   11.3350   24.8690 C   0  0  0  0  0  0  0  0  0  0  0  0
    8.8798   10.9545   24.0746 C   0  0  0  0  0  0  0  0  0  0  0  0
    9.2563    9.3298   23.7799 Cl  0  0  0  0  0  0  0  0  0  0  0  0
    9.6775   11.8896   23.4476 C   0  0  0  0  0  0  0  0  0  0  0  0
    9.3705   13.2356   23.5684 C   0  0  0  0  0  0  0  0  0  0  0  0
   10.1755   14.1812   22.8893 N   0  0  0  0  0  0  0  0  0  0  0  0
    9.6583   14.5750   21.5782 C   0  0  0  0  0  0  0  0  0  0  0  0
   10.6229   15.3678   20.7436 C   0  0  0  0  0  0  0  0  0  0  0  0
   11.9846   14.7722   20.9187 C   0  0  0  0  0  0  0  0  0  0  0  0
   12.6896   14.3947   19.9895 O   0  0  0  0  0  0  0  0  0  0  0  0
   12.3676   14.6980   22.2260 N   0  0  0  0  0  0  0  0  0  0  0  0
   11.5389   14.1702   23.1707 C   0  0  0  0  0  0  0  0  0  0  0  0
   12.0083   13.6906   24.2037 O   0  0  0  0  0  0  0  0  0  0  0  0
    8.2577   13.6405   24.3021 C   0  0  0  0  0  0  0  0  0  0  0  0
  1  2  3  0
  2  3  1  0
  3  4  2  0
  3  5  1  0
  5  6  1  0
  6  7  2  0
  7  8  1  0
  8  9  1  0
  8 10  2  0
 10 11  1  0
 11 12  1  0
 12 13  1  0
 13 14  1  0
 14 15  1  0
 15 16  2  0
 15 17  1  0
 17 18  1  0
 18 19  2  0
 11 20  2  0
 20  6  1  0
 18 12  1  0
M  END
>  <alias>  (306) 
None

>  <rmsd(smina/fragmenstein)>  (306) 
0.58

>  <smiles>  (306) 
C#CC(=O)Nc1cc(Cl)cc(N2CCC(=O)NC2=O)c1

>  <gnina_score>  (306) 
5.203

>  <inspiration_score>  (306) 
None

>  <energy_score>  (306) 
-9.340054

>  <distance_score>  (306) 
1.260454

>  <gnina_score_min>  (306) 
5.479

>  <inchikey>  (306) 
FQNMYIVNWLTOHE-UHFFFAOYSA-N

>  <exports>  (306) 
['/opt/xchem-fragalysis-2/maxwin/BulkDock/OUTPUTS/openbind_a71ev2a_c2_elabs_1LOUU54.sdf', '/opt/xchem-fragalysis-2/maxwin/BulkDock/OUTPUTS/openbind_a71ev2a_c2_elabs_1LSYIDY.sdf']

>  <name>  (306) 
P545143

>  <ref_pdb>  (306) 
A0884a

>  <subsites>  (306) 
None

>  <HIPPO Pose ID>  (306) 
545143

>  <ref_mols>  (306) 
A0884a

>  <HIPPO Compound ID>  (306) 
383503

>  <tags>  (306) 
openbind_a71ev2a_c2_elabs,syndirella_product,openbind_a71ev2a_c2_elabs_fragonly_scored_top80percent,openbind_a71ev2a_c2_elabs_scored,BulkDock Fragalysis export,openbind_a71ev2a_c2_elabs_scored_top80percent,openbind_a71ev2a_c2_elabs_activefrags_only_scored_5.2plus,syndirella_placed

>  <smina_score_min>  (306) 
-6.855

$$$$
P545145
     RDKit          3D

 20 21  0  0  0  0  0  0  0  0999 V2000
    3.5569   15.2835   27.3801 C   0  0  0  0  0  0  0  0  0  0  0  0
    4.2203   14.3185   27.1109 C   0  0  0  0  0  0  0  0  0  0  0  0
    5.0289   13.1614   26.7737 C   0  0  0  0  0  0  0  0  0  0  0  0
    4.7575   12.1313   27.2476 O   0  0  0  0  0  0  0  0  0  0  0  0
    6.1761   13.5521   25.8232 N   0  0  0  0  0  0  0  0  0  0  0  0
    7.1427   12.7663   25.2009 C   0  0  0  0  0  0  0  0  0  0  0  0
    7.1820   11.3875   25.3655 C   0  0  0  0  0  0  0  0  0  0  0  0
    8.1317   10.6385   24.6785 C   0  0  0  0  0  0  0  0  0  0  0  0
    9.0587   11.2508   23.8219 C   0  0  0  0  0  0  0  0  0  0  0  0
    9.9588   10.3315   23.0619 C   0  0  0  0  0  0  0  0  0  0  0  0
    9.0569   12.6517   23.6882 C   0  0  0  0  0  0  0  0  0  0  0  0
    9.9976   13.3359   22.8496 N   0  0  0  0  0  0  0  0  0  0  0  0
    9.4745   14.3230   21.9120 C   0  0  0  0  0  0  0  0  0  0  0  0
   10.4612   14.7985   20.8666 C   0  0  0  0  0  0  0  0  0  0  0  0
   11.8757   14.4885   21.2338 C   0  0  0  0  0  0  0  0  0  0  0  0
   12.7663   14.4107   20.3918 O   0  0  0  0  0  0  0  0  0  0  0  0
   12.1063   14.3183   22.5647 N   0  0  0  0  0  0  0  0  0  0  0  0
   11.2833   13.5558   23.3510 C   0  0  0  0  0  0  0  0  0  0  0  0
   11.7090   13.1111   24.4150 O   0  0  0  0  0  0  0  0  0  0  0  0
    8.0801   13.3922   24.3728 C   0  0  0  0  0  0  0  0  0  0  0  0
  1  2  3  0
  2  3  1  0
  3  4  2  0
  3  5  1  0
  5  6  1  0
  6  7  2  0
  7  8  1  0
  8  9  2  0
  9 10  1  0
  9 11  1  0
 11 12  1  0
 12 13  1  0
 13 14  1  0
 14 15  1  0
 15 16  2  0
 15 17  1  0
 17 18  1  0
 18 19  2  0
 11 20  2  0
 20  6  1  0
 18 12  1  0
M  END
>  <alias>  (307) 
None

>  <rmsd(smina/fragmenstein)>  (307) 
0.546

>  <smiles>  (307) 
C#CC(=O)Nc1ccc(C)c(N2CCC(=O)NC2=O)c1

>  <gnina_score>  (307) 
5.279

>  <inspiration_score>  (307) 
None

>  <energy_score>  (307) 
-30.287719

>  <distance_score>  (307) 
1.387161

>  <gnina_score_min>  (307) 
5.242

>  <inchikey>  (307) 
SBWUSZDOSLJCEW-UHFFFAOYSA-N

>  <exports>  (307) 
['/opt/xchem-fragalysis-2/maxwin/BulkDock/OUTPUTS/openbind_a71ev2a_c2_elabs_1LOUU54.sdf', '/opt/xchem-fragalysis-2/maxwin/BulkDock/OUTPUTS/openbind_a71ev2a_c2_elabs_1LSYIDY.sdf']

>  <name>  (307) 
P545145

>  <ref_pdb>  (307) 
A0884a

>  <subsites>  (307) 
None

>  <HIPPO Pose ID>  (307) 
545145

>  <ref_mols>  (307) 
A0884a

>  <HIPPO Compound ID>  (307) 
383505

>  <tags>  (307) 
openbind_a71ev2a_c2_elabs,syndirella_product,openbind_a71ev2a_c2_elabs_fragonly_scored_top80percent,openbind_a71ev2a_c2_elabs_scored,BulkDock Fragalysis export,openbind_a71ev2a_c2_elabs_scored_top80percent,openbind_a71ev2a_c2_elabs_activefrags_only_scored_5.2plus,syndirella_placed

>  <smina_score_min>  (307) 
-6.711

$$$$
P545146
     RDKit          3D

 20 21  0  0  0  0  0  0  0  0999 V2000
    3.4446   15.4218   27.2056 C   0  0  0  0  0  0  0  0  0  0  0  0
    4.1199   14.4539   26.9796 C   0  0  0  0  0  0  0  0  0  0  0  0
    4.9433   13.2933   26.6949 C   0  0  0  0  0  0  0  0  0  0  0  0
    4.6774   12.2791   27.2048 O   0  0  0  0  0  0  0  0  0  0  0  0
    6.0971   13.6601   25.7426 N   0  0  0  0  0  0  0  0  0  0  0  0
    7.0787   12.8621   25.1615 C   0  0  0  0  0  0  0  0  0  0  0  0
    7.1265   11.4887   25.3795 C   0  0  0  0  0  0  0  0  0  0  0  0
    8.0909   10.7213   24.7350 C   0  0  0  0  0  0  0  0  0  0  0  0
    9.0237   11.3216   23.8873 C   0  0  0  0  0  0  0  0  0  0  0  0
   10.0332   10.2447   23.0259 Cl  0  0  0  0  0  0  0  0  0  0  0  0
    9.0149   12.7110   23.6784 C   0  0  0  0  0  0  0  0  0  0  0  0
    9.9676   13.3704   22.8285 N   0  0  0  0  0  0  0  0  0  0  0  0
    9.4659   14.3502   21.8738 C   0  0  0  0  0  0  0  0  0  0  0  0
   10.4640   14.8008   20.8301 C   0  0  0  0  0  0  0  0  0  0  0  0
   11.8795   14.5250   21.2193 C   0  0  0  0  0  0  0  0  0  0  0  0
   12.7875   14.5251   20.3912 O   0  0  0  0  0  0  0  0  0  0  0  0
   12.0997   14.2996   22.5438 N   0  0  0  0  0  0  0  0  0  0  0  0
   11.2541   13.5654   23.3322 C   0  0  0  0  0  0  0  0  0  0  0  0
   11.6531   13.1387   24.4140 O   0  0  0  0  0  0  0  0  0  0  0  0
    8.0196   13.4668   24.3188 C   0  0  0  0  0  0  0  0  0  0  0  0
  1  2  3  0
  2  3  1  0
  3  4  2  0
  3  5  1  0
  5  6  1  0
  6  7  2  0
  7  8  1  0
  8  9  2  0
  9 10  1  0
  9 11  1  0
 11 12  1  0
 12 13  1  0
 13 14  1  0
 14 15  1  0
 15 16  2  0
 15 17  1  0
 17 18  1  0
 18 19  2  0
 11 20  2  0
 20  6  1  0
 18 12  1  0
M  END
>  <alias>  (308) 
None

>  <rmsd(smina/fragmenstein)>  (308) 
0.384

>  <smiles>  (308) 
C#CC(=O)Nc1ccc(Cl)c(N2CCC(=O)NC2=O)c1

>  <gnina_score>  (308) 
5.486

>  <inspiration_score>  (308) 
None

>  <energy_score>  (308) 
-33.54237

>  <distance_score>  (308) 
1.466161

>  <gnina_score_min>  (308) 
5.412

>  <inchikey>  (308) 
QDPSYOSFBWFEHQ-UHFFFAOYSA-N

>  <exports>  (308) 
['/opt/xchem-fragalysis-2/maxwin/BulkDock/OUTPUTS/openbind_a71ev2a_c2_elabs_1LOUU54.sdf', '/opt/xchem-fragalysis-2/maxwin/BulkDock/OUTPUTS/openbind_a71ev2a_c2_elabs_1LSYIDY.sdf']

>  <name>  (308) 
P545146

>  <ref_pdb>  (308) 
A0884a

>  <subsites>  (308) 
None

>  <HIPPO Pose ID>  (308) 
545146

>  <ref_mols>  (308) 
A0884a

>  <HIPPO Compound ID>  (308) 
383507

>  <tags>  (308) 
openbind_a71ev2a_c2_elabs,syndirella_product,openbind_a71ev2a_c2_elabs_fragonly_scored_top80percent,openbind_a71ev2a_c2_elabs_scored,BulkDock Fragalysis export,openbind_a71ev2a_c2_elabs_scored_top80percent,openbind_a71ev2a_c2_elabs_activefrags_only_scored_5.2plus,syndirella_placed

>  <smina_score_min>  (308) 
-6.601

$$$$
P545147
     RDKit          3D

 20 21  0  0  0  0  0  0  0  0999 V2000
    4.0188   13.2934   28.0811 C   0  0  0  0  0  0  0  0  0  0  0  0
    4.8147   12.6329   27.4695 C   0  0  0  0  0  0  0  0  0  0  0  0
    5.7794   11.8448   26.7241 C   0  0  0  0  0  0  0  0  0  0  0  0
    5.8108   10.6939   26.8949 O   0  0  0  0  0  0  0  0  0  0  0  0
    6.5999   12.7344   25.7773 N   0  0  0  0  0  0  0  0  0  0  0  0
    7.6632   12.4202   24.9360 C   0  0  0  0  0  0  0  0  0  0  0  0
    8.0774   11.1015   24.7154 C   0  0  0  0  0  0  0  0  0  0  0  0
    9.1532   10.8700   23.8633 C   0  0  0  0  0  0  0  0  0  0  0  0
    9.7808    9.1841   23.3804 Br  0  0  0  0  0  0  0  0  0  0  0  0
    9.8389   11.9152   23.2862 C   0  0  0  0  0  0  0  0  0  0  0  0
    9.4371   13.2187   23.5167 C   0  0  0  0  0  0  0  0  0  0  0  0
   10.1692   14.2519   22.8840 N   0  0  0  0  0  0  0  0  0  0  0  0
    9.6446   14.6132   21.5635 C   0  0  0  0  0  0  0  0  0  0  0  0
   10.5956   15.4031   20.7113 C   0  0  0  0  0  0  0  0  0  0  0  0
   11.9637   14.8254   20.8977 C   0  0  0  0  0  0  0  0  0  0  0  0
   12.6665   14.4134   19.9816 O   0  0  0  0  0  0  0  0  0  0  0  0
   12.3537   14.8030   22.2042 N   0  0  0  0  0  0  0  0  0  0  0  0
   11.5372   14.2807   23.1612 C   0  0  0  0  0  0  0  0  0  0  0  0
   12.0210   13.8169   24.1959 O   0  0  0  0  0  0  0  0  0  0  0  0
    8.3259   13.4815   24.3078 C   0  0  0  0  0  0  0  0  0  0  0  0
  1  2  3  0
  2  3  1  0
  3  4  2  0
  3  5  1  0
  5  6  1  0
  6  7  2  0
  7  8  1  0
  8  9  1  0
  8 10  2  0
 10 11  1  0
 11 12  1  0
 12 13  1  0
 13 14  1  0
 14 15  1  0
 15 16  2  0
 15 17  1  0
 17 18  1  0
 18 19  2  0
 11 20  2  0
 20  6  1  0
 18 12  1  0
M  END
>  <alias>  (309) 
None

>  <rmsd(smina/fragmenstein)>  (309) 
0.223

>  <smiles>  (309) 
C#CC(=O)Nc1cc(Br)cc(N2CCC(=O)NC2=O)c1

>  <gnina_score>  (309) 
5.56

>  <inspiration_score>  (309) 
None

>  <energy_score>  (309) 
-3.340982

>  <distance_score>  (309) 
1.228527

>  <gnina_score_min>  (309) 
5.567

>  <inchikey>  (309) 
BFYNBSGVKNSQLE-UHFFFAOYSA-N

>  <exports>  (309) 
['/opt/xchem-fragalysis-2/maxwin/BulkDock/OUTPUTS/openbind_a71ev2a_c2_elabs_1LOUU54.sdf', '/opt/xchem-fragalysis-2/maxwin/BulkDock/OUTPUTS/openbind_a71ev2a_c2_elabs_1LSYIDY.sdf']

>  <name>  (309) 
P545147

>  <ref_pdb>  (309) 
A0884a

>  <subsites>  (309) 
None

>  <HIPPO Pose ID>  (309) 
545147

>  <ref_mols>  (309) 
A0884a

>  <HIPPO Compound ID>  (309) 
383508

>  <tags>  (309) 
openbind_a71ev2a_c2_elabs,syndirella_product,openbind_a71ev2a_c2_elabs_fragonly_scored_top80percent,BulkDock Fragalysis export,openbind_a71ev2a_c2_elabs_scored,openbind_a71ev2a_c2_elabs_scored_top80percent,openbind_a71ev2a_c2_elabs_activefrags_only_scored_5.2plus,openbind_a71ev2a_c2_elabs_activefrags_only_scored_5.5plus,syndirella_placed

>  <smina_score_min>  (309) 
-6.48

$$$$
P545148
     RDKit          3D

 20 21  0  0  0  0  0  0  0  0999 V2000
    3.2669   14.4764   25.3976 C   0  0  0  0  0  0  0  0  0  0  0  0
    4.0746   14.1797   26.6555 C   0  0  1  0  0  0  0  0  0  0  0  0
    2.9237   13.8610   28.0464 S   0  0  0  0  0  0  0  0  0  0  0  0
    5.0263   12.9738   26.4568 C   0  0  0  0  0  0  0  0  0  0  0  0
    4.8623   11.9286   26.9616 O   0  0  0  0  0  0  0  0  0  0  0  0
    6.1619   13.4710   25.5033 N   0  0  0  0  0  0  0  0  0  0  0  0
    7.2251   12.7817   24.9293 C   0  0  0  0  0  0  0  0  0  0  0  0
    7.3967   11.4048   25.0884 C   0  0  0  0  0  0  0  0  0  0  0  0
    8.4763   10.7659   24.4764 C   0  0  0  0  0  0  0  0  0  0  0  0
    9.4033   11.5139   23.7583 C   0  0  0  0  0  0  0  0  0  0  0  0
   10.4195   10.8741   23.1729 F   0  0  0  0  0  0  0  0  0  0  0  0
    9.2496   12.8939   23.6008 C   0  0  0  0  0  0  0  0  0  0  0  0
   10.2124   13.6740   22.9050 N   0  0  0  0  0  0  0  0  0  0  0  0
    9.7681   14.3906   21.7094 C   0  0  0  0  0  0  0  0  0  0  0  0
   10.8256   15.2324   21.0224 C   0  0  0  0  0  0  0  0  0  0  0  0
   12.1960   14.6495   21.2434 C   0  0  0  0  0  0  0  0  0  0  0  0
   12.4080   14.4064   22.6393 N   0  0  0  0  0  0  0  0  0  0  0  0
   11.4928   13.7655   23.4184 C   0  0  0  0  0  0  0  0  0  0  0  0
   11.8251   13.3735   24.5354 O   0  0  0  0  0  0  0  0  0  0  0  0
    8.1366   13.5173   24.1668 C   0  0  0  0  0  0  0  0  0  0  0  0
  2  1  1  6
  2  3  1  0
  2  4  1  0
  4  5  2  0
  4  6  1  0
  6  7  1  0
  7  8  2  0
  8  9  1  0
  9 10  2  0
 10 11  1  0
 10 12  1  0
 12 13  1  0
 13 14  1  0
 14 15  1  0
 15 16  1  0
 16 17  1  0
 17 18  1  0
 18 19  2  0
 12 20  2  0
 20  7  1  0
 18 13  1  0
M  END
>  <alias>  (310) 
None

>  <rmsd(smina/fragmenstein)>  (310) 
0.538

>  <smiles>  (310) 
C[C@@H](S)C(=O)Nc1ccc(F)c(N2CCCNC2=O)c1

>  <gnina_score>  (310) 
5.229

>  <inspiration_score>  (310) 
None

>  <energy_score>  (310) 
-38.82153

>  <distance_score>  (310) 
1.380147

>  <gnina_score_min>  (310) 
5.31

>  <inchikey>  (310) 
XJLDDTYHFWVMMO-MRVPVSSYSA-N

>  <exports>  (310) 
['/opt/xchem-fragalysis-2/maxwin/BulkDock/OUTPUTS/openbind_a71ev2a_c2_elabs_1LOUU54.sdf', '/opt/xchem-fragalysis-2/maxwin/BulkDock/OUTPUTS/openbind_a71ev2a_c2_elabs_1LSYIDY.sdf']

>  <name>  (310) 
P545148

>  <ref_pdb>  (310) 
A0884a

>  <subsites>  (310) 
None

>  <HIPPO Pose ID>  (310) 
545148

>  <ref_mols>  (310) 
A0884a

>  <HIPPO Compound ID>  (310) 
383509

>  <tags>  (310) 
openbind_a71ev2a_c2_elabs,syndirella_product,openbind_a71ev2a_c2_elabs_fragonly_scored_top80percent,openbind_a71ev2a_c2_elabs_scored,BulkDock Fragalysis export,openbind_a71ev2a_c2_elabs_scored_top80percent,openbind_a71ev2a_c2_elabs_activefrags_only_scored_5.2plus,syndirella_placed

>  <smina_score_min>  (310) 
-6.667

$$$$
P545151
     RDKit          3D

 20 21  0  0  0  0  0  0  0  0999 V2000
    7.8841   14.6203   24.3556 C   0  0  0  0  0  0  0  0  0  0  0  0
    8.1109   13.1349   24.4185 C   0  0  0  0  0  0  0  0  0  0  0  0
    7.2195   12.3248   25.1671 C   0  0  0  0  0  0  0  0  0  0  0  0
    6.1884   12.9161   25.9068 N   0  0  0  0  0  0  0  0  0  0  0  0
    5.1564   12.2834   26.8903 C   0  0  0  0  0  0  0  0  0  0  0  0
    5.0626   11.1863   27.2889 O   0  0  0  0  0  0  0  0  0  0  0  0
    4.2544   13.4357   27.3899 C   0  0  2  0  0  0  0  0  0  0  0  0
    3.0541   12.9083   28.1691 C   0  0  0  0  0  0  0  0  0  0  0  0
    3.6574   14.4926   26.0226 S   0  0  0  0  0  0  0  0  0  0  0  0
    7.3837   10.9390   25.1935 C   0  0  0  0  0  0  0  0  0  0  0  0
    8.4331   10.3473   24.5025 C   0  0  0  0  0  0  0  0  0  0  0  0
    9.3721   11.1410   23.8694 C   0  0  0  0  0  0  0  0  0  0  0  0
   10.4117   10.5354   23.2865 F   0  0  0  0  0  0  0  0  0  0  0  0
    9.2560   12.5333   23.8415 C   0  0  0  0  0  0  0  0  0  0  0  0
   10.3421   13.2815   23.3465 N   0  0  0  0  0  0  0  0  0  0  0  0
   11.6646   13.2277   23.9155 C   0  0  0  0  0  0  0  0  0  0  0  0
   12.5025   13.9112   22.8590 C   0  0  0  0  0  0  0  0  0  0  0  0
   11.5822   14.8058   22.2519 N   0  0  0  0  0  0  0  0  0  0  0  0
   10.3338   14.2065   22.3063 C   0  0  0  0  0  0  0  0  0  0  0  0
    9.4491   14.4614   21.5164 O   0  0  0  0  0  0  0  0  0  0  0  0
  1  2  1  0
  2  3  2  0
  3  4  1  0
  4  5  1  0
  5  6  2  0
  5  7  1  0
  7  8  1  6
  7  9  1  0
  3 10  1  0
 10 11  2  0
 11 12  1  0
 12 13  1  0
 12 14  2  0
 14 15  1  0
 15 16  1  0
 16 17  1  0
 17 18  1  0
 18 19  1  0
 19 20  2  0
 14  2  1  0
 19 15  1  0
M  END
>  <alias>  (311) 
None

>  <rmsd(smina/fragmenstein)>  (311) 
0.648

>  <smiles>  (311) 
Cc1c(NC(=O)[C@H](C)S)ccc(F)c1N1CCNC1=O

>  <gnina_score>  (311) 
5.407

>  <inspiration_score>  (311) 
None

>  <energy_score>  (311) 
-31.11815

>  <distance_score>  (311) 
1.598252

>  <gnina_score_min>  (311) 
5.381

>  <inchikey>  (311) 
JMEWNRFQKNGRDJ-QMMMGPOBSA-N

>  <exports>  (311) 
['/opt/xchem-fragalysis-2/maxwin/BulkDock/OUTPUTS/openbind_a71ev2a_c2_elabs_1LOUU54.sdf', '/opt/xchem-fragalysis-2/maxwin/BulkDock/OUTPUTS/openbind_a71ev2a_c2_elabs_1LSYIDY.sdf']

>  <name>  (311) 
P545151

>  <ref_pdb>  (311) 
A0884a

>  <subsites>  (311) 
None

>  <HIPPO Pose ID>  (311) 
545151

>  <ref_mols>  (311) 
A0884a

>  <HIPPO Compound ID>  (311) 
383510

>  <tags>  (311) 
openbind_a71ev2a_c2_elabs,syndirella_product,openbind_a71ev2a_c2_elabs_fragonly_scored_top80percent,openbind_a71ev2a_c2_elabs_scored,BulkDock Fragalysis export,openbind_a71ev2a_c2_elabs_scored_top80percent,openbind_a71ev2a_c2_elabs_activefrags_only_scored_5.2plus,syndirella_placed

>  <smina_score_min>  (311) 
-6.301

$$$$
P545163
     RDKit          3D

 20 21  0  0  0  0  0  0  0  0999 V2000
    9.9131   10.1413   23.1454 C   0  0  0  0  0  0  0  0  0  0  0  0
    9.0950   11.1165   23.9333 C   0  0  0  0  0  0  0  0  0  0  0  0
    8.0306   10.5979   24.6804 C   0  0  0  0  0  0  0  0  0  0  0  0
    7.1716   11.4355   25.3870 C   0  0  0  0  0  0  0  0  0  0  0  0
    7.3777   12.8095   25.3727 C   0  0  0  0  0  0  0  0  0  0  0  0
    6.5024   13.6867   26.0055 N   0  0  0  0  0  0  0  0  0  0  0  0
    5.2724   13.4030   26.9310 C   0  0  0  0  0  0  0  0  0  0  0  0
    4.7684   12.3889   27.2342 O   0  0  0  0  0  0  0  0  0  0  0  0
    4.7645   14.7853   27.3899 C   0  0  1  0  0  0  0  0  0  0  0  0
    3.4425   14.6819   28.1397 C   0  0  0  0  0  0  0  0  0  0  0  0
    6.0259   15.5472   28.4803 S   0  0  0  0  0  0  0  0  0  0  0  0
    8.4841   13.3348   24.7030 C   0  0  0  0  0  0  0  0  0  0  0  0
    9.3635   12.4958   24.0025 C   0  0  0  0  0  0  0  0  0  0  0  0
   10.5328   13.0361   23.4184 N   0  0  0  0  0  0  0  0  0  0  0  0
   11.4333   13.7788   24.1372 C   0  0  0  0  0  0  0  0  0  0  0  0
   11.4903   13.9398   25.3510 O   0  0  0  0  0  0  0  0  0  0  0  0
   12.3489   14.4985   23.1713 C   0  0  0  0  0  0  0  0  0  0  0  0
   11.7218   14.2181   21.9383 N   0  0  0  0  0  0  0  0  0  0  0  0
   10.5070   13.6340   22.1932 C   0  0  0  0  0  0  0  0  0  0  0  0
    9.5522   13.8389   21.4663 O   0  0  0  0  0  0  0  0  0  0  0  0
  1  2  1  0
  2  3  2  0
  3  4  1  0
  4  5  2  0
  5  6  1  0
  6  7  1  0
  7  8  2  0
  7  9  1  0
  9 10  1  1
  9 11  1  0
  5 12  1  0
 12 13  2  0
 13 14  1  0
 14 15  1  0
 15 16  2  0
 15 17  1  0
 17 18  1  0
 18 19  1  0
 19 20  2  0
 13  2  1  0
 19 14  1  0
M  END
>  <alias>  (312) 
None

>  <rmsd(smina/fragmenstein)>  (312) 
1.006

>  <smiles>  (312) 
Cc1ccc(NC(=O)[C@@H](C)S)cc1N1C(=O)CNC1=O

>  <gnina_score>  (312) 
5.334

>  <inspiration_score>  (312) 
None

>  <energy_score>  (312) 
-43.505934

>  <distance_score>  (312) 
1.752833

>  <gnina_score_min>  (312) 
5.287

>  <inchikey>  (312) 
QYIFYIQWDSRGGF-MRVPVSSYSA-N

>  <exports>  (312) 
['/opt/xchem-fragalysis-2/maxwin/BulkDock/OUTPUTS/openbind_a71ev2a_c2_elabs_1LOUU54.sdf', '/opt/xchem-fragalysis-2/maxwin/BulkDock/OUTPUTS/openbind_a71ev2a_c2_elabs_1LSYIDY.sdf']

>  <name>  (312) 
P545163

>  <ref_pdb>  (312) 
A0884a

>  <subsites>  (312) 
None

>  <HIPPO Pose ID>  (312) 
545163

>  <ref_mols>  (312) 
A0884a

>  <HIPPO Compound ID>  (312) 
383531

>  <tags>  (312) 
openbind_a71ev2a_c2_elabs,syndirella_product,openbind_a71ev2a_c2_elabs_fragonly_scored_top80percent,openbind_a71ev2a_c2_elabs_scored,BulkDock Fragalysis export,openbind_a71ev2a_c2_elabs_scored_top80percent,openbind_a71ev2a_c2_elabs_activefrags_only_scored_5.2plus,syndirella_placed

>  <smina_score_min>  (312) 
-6.625

$$$$
P545166
     RDKit          3D

 20 21  0  0  0  0  0  0  0  0999 V2000
    3.5424   14.6951   25.3856 C   0  0  0  0  0  0  0  0  0  0  0  0
    4.2157   14.1938   26.6479 C   0  0  2  0  0  0  0  0  0  0  0  0
    5.2428   15.6247   27.4889 Br  0  0  0  0  0  0  0  0  0  0  0  0
    5.1519   13.0000   26.4302 C   0  0  0  0  0  0  0  0  0  0  0  0
    4.9460   11.9584   26.9274 O   0  0  0  0  0  0  0  0  0  0  0  0
    6.2936   13.4523   25.4661 N   0  0  0  0  0  0  0  0  0  0  0  0
    7.3140   12.7203   24.8695 C   0  0  0  0  0  0  0  0  0  0  0  0
    7.4454   11.3437   25.0564 C   0  0  0  0  0  0  0  0  0  0  0  0
    8.4873   10.6602   24.4328 C   0  0  0  0  0  0  0  0  0  0  0  0
    9.4144   11.3613   23.6698 C   0  0  0  0  0  0  0  0  0  0  0  0
   10.3821   10.6657   23.0669 F   0  0  0  0  0  0  0  0  0  0  0  0
    9.3043   12.7430   23.4796 C   0  0  0  0  0  0  0  0  0  0  0  0
   10.2899   13.4577   22.7364 N   0  0  0  0  0  0  0  0  0  0  0  0
    9.8465   14.4339   21.7454 C   0  0  0  0  0  0  0  0  0  0  0  0
   10.9366   14.8884   20.7949 C   0  0  0  0  0  0  0  0  0  0  0  0
   12.1814   15.2142   21.5751 C   0  0  0  0  0  0  0  0  0  0  0  0
   12.4918   14.2243   22.5646 N   0  0  0  0  0  0  0  0  0  0  0  0
   11.5610   13.5420   23.2850 C   0  0  0  0  0  0  0  0  0  0  0  0
   11.8863   13.0749   24.3756 O   0  0  0  0  0  0  0  0  0  0  0  0
    8.2260   13.4120   24.0639 C   0  0  0  0  0  0  0  0  0  0  0  0
  2  1  1  6
  2  3  1  0
  2  4  1  0
  4  5  2  0
  4  6  1  0
  6  7  1  0
  7  8  2  0
  8  9  1  0
  9 10  2  0
 10 11  1  0
 10 12  1  0
 12 13  1  0
 13 14  1  0
 14 15  1  0
 15 16  1  0
 16 17  1  0
 17 18  1  0
 18 19  2  0
 12 20  2  0
 20  7  1  0
 18 13  1  0
M  END
>  <alias>  (313) 
None

>  <rmsd(smina/fragmenstein)>  (313) 
0.941

>  <smiles>  (313) 
C[C@H](Br)C(=O)Nc1ccc(F)c(N2CCCNC2=O)c1

>  <gnina_score>  (313) 
5.325

>  <inspiration_score>  (313) 
None

>  <energy_score>  (313) 
-40.933431

>  <distance_score>  (313) 
1.318394

>  <gnina_score_min>  (313) 
5.243

>  <inchikey>  (313) 
VERZFEVEIGYLHB-QMMMGPOBSA-N

>  <exports>  (313) 
['/opt/xchem-fragalysis-2/maxwin/BulkDock/OUTPUTS/openbind_a71ev2a_c2_elabs_1LOUU54.sdf', '/opt/xchem-fragalysis-2/maxwin/BulkDock/OUTPUTS/openbind_a71ev2a_c2_elabs_1LSYIDY.sdf']

>  <name>  (313) 
P545166

>  <ref_pdb>  (313) 
A0884a

>  <subsites>  (313) 
None

>  <HIPPO Pose ID>  (313) 
545166

>  <ref_mols>  (313) 
A0884a

>  <HIPPO Compound ID>  (313) 
383533

>  <tags>  (313) 
openbind_a71ev2a_c2_elabs,syndirella_product,openbind_a71ev2a_c2_elabs_fragonly_scored_top80percent,openbind_a71ev2a_c2_elabs_scored,BulkDock Fragalysis export,openbind_a71ev2a_c2_elabs_scored_top80percent,openbind_a71ev2a_c2_elabs_activefrags_only_scored_5.2plus,syndirella_placed

>  <smina_score_min>  (313) 
-6.499

$$$$
P545177
     RDKit          3D

 20 21  0  0  0  0  0  0  0  0999 V2000
    3.7181   13.7364   28.2466 C   0  0  0  0  0  0  0  0  0  0  0  0
    4.7867   14.0193   27.2055 C   0  0  2  0  0  0  0  0  0  0  0  0
    3.9407   14.8490   25.6535 Br  0  0  0  0  0  0  0  0  0  0  0  0
    5.4815   12.7439   26.7105 C   0  0  0  0  0  0  0  0  0  0  0  0
    5.1233   11.6660   26.9991 O   0  0  0  0  0  0  0  0  0  0  0  0
    6.7096   13.2096   25.8616 N   0  0  0  0  0  0  0  0  0  0  0  0
    7.6491   12.4681   25.1481 C   0  0  0  0  0  0  0  0  0  0  0  0
    7.5931   11.0783   25.0753 C   0  0  0  0  0  0  0  0  0  0  0  0
    8.5281   10.3839   24.3023 C   0  0  0  0  0  0  0  0  0  0  0  0
    9.5343   11.0647   23.6204 C   0  0  0  0  0  0  0  0  0  0  0  0
    9.6321   12.4504   23.7414 C   0  0  0  0  0  0  0  0  0  0  0  0
   10.7145   13.1114   23.1345 N   0  0  0  0  0  0  0  0  0  0  0  0
   11.6529   13.7780   23.8756 C   0  0  0  0  0  0  0  0  0  0  0  0
   11.8425   13.7044   25.0835 O   0  0  0  0  0  0  0  0  0  0  0  0
   12.3937   14.7357   22.9689 C   0  0  0  0  0  0  0  0  0  0  0  0
   11.6506   14.6179   21.7730 N   0  0  0  0  0  0  0  0  0  0  0  0
   10.5368   13.8592   22.0106 C   0  0  0  0  0  0  0  0  0  0  0  0
    9.5260   13.9950   21.3469 O   0  0  0  0  0  0  0  0  0  0  0  0
    8.6769   13.1461   24.4874 C   0  0  0  0  0  0  0  0  0  0  0  0
    8.7615   14.4828   24.6054 F   0  0  0  0  0  0  0  0  0  0  0  0
  2  1  1  1
  2  3  1  0
  2  4  1  0
  4  5  2  0
  4  6  1  0
  6  7  1  0
  7  8  2  0
  8  9  1  0
  9 10  2  0
 10 11  1  0
 11 12  1  0
 12 13  1  0
 13 14  2  0
 13 15  1  0
 15 16  1  0
 16 17  1  0
 17 18  2  0
 11 19  2  0
 19 20  1  0
 19  7  1  0
 17 12  1  0
M  END
>  <alias>  (314) 
None

>  <rmsd(smina/fragmenstein)>  (314) 
0.778

>  <smiles>  (314) 
C[C@H](Br)C(=O)Nc1cccc(N2C(=O)CNC2=O)c1F

>  <gnina_score>  (314) 
5.326

>  <inspiration_score>  (314) 
None

>  <energy_score>  (314) 
-16.44923

>  <distance_score>  (314) 
1.57171

>  <gnina_score_min>  (314) 
5.311

>  <inchikey>  (314) 
WAGMKDRNRHCDOI-LURJTMIESA-N

>  <exports>  (314) 
['/opt/xchem-fragalysis-2/maxwin/BulkDock/OUTPUTS/openbind_a71ev2a_c2_elabs_1LOUU54.sdf', '/opt/xchem-fragalysis-2/maxwin/BulkDock/OUTPUTS/openbind_a71ev2a_c2_elabs_1LSYIDY.sdf']

>  <name>  (314) 
P545177

>  <ref_pdb>  (314) 
A0884a

>  <subsites>  (314) 
None

>  <HIPPO Pose ID>  (314) 
545177

>  <ref_mols>  (314) 
A0884a

>  <HIPPO Compound ID>  (314) 
383556

>  <tags>  (314) 
openbind_a71ev2a_c2_elabs,syndirella_product,openbind_a71ev2a_c2_elabs_fragonly_scored_top80percent,openbind_a71ev2a_c2_elabs_scored,BulkDock Fragalysis export,openbind_a71ev2a_c2_elabs_scored_top80percent,openbind_a71ev2a_c2_elabs_activefrags_only_scored_5.2plus,syndirella_placed

>  <smina_score_min>  (314) 
-6.731

$$$$
P545181
     RDKit          3D

 20 21  0  0  0  0  0  0  0  0999 V2000
    8.2423   14.5036   24.7367 C   0  0  0  0  0  0  0  0  0  0  0  0
    8.3905   13.0146   24.6368 C   0  0  0  0  0  0  0  0  0  0  0  0
    7.5073   12.1597   25.3288 C   0  0  0  0  0  0  0  0  0  0  0  0
    6.5749   12.6894   26.2275 N   0  0  0  0  0  0  0  0  0  0  0  0
    5.5669   11.9726   27.1839 C   0  0  0  0  0  0  0  0  0  0  0  0
    5.4215   10.8336   27.4175 O   0  0  0  0  0  0  0  0  0  0  0  0
    4.7923   13.0783   27.9163 C   0  0  2  0  0  0  0  0  0  0  0  0
    3.8360   12.5281   28.9603 C   0  0  0  0  0  0  0  0  0  0  0  0
    3.7621   14.0839   26.5983 Br  0  0  0  0  0  0  0  0  0  0  0  0
    7.5914   10.7833   25.1372 C   0  0  0  0  0  0  0  0  0  0  0  0
    8.5446   10.2489   24.2732 C   0  0  0  0  0  0  0  0  0  0  0  0
    9.4537   11.0730   23.6287 C   0  0  0  0  0  0  0  0  0  0  0  0
    9.4172   12.4506   23.8454 C   0  0  0  0  0  0  0  0  0  0  0  0
   10.4981   13.1842   23.3222 N   0  0  0  0  0  0  0  0  0  0  0  0
   11.4042   13.8723   24.0800 C   0  0  0  0  0  0  0  0  0  0  0  0
   11.4847   13.9350   25.3005 O   0  0  0  0  0  0  0  0  0  0  0  0
   12.3092   14.6435   23.1414 C   0  0  0  0  0  0  0  0  0  0  0  0
   11.6731   14.4332   21.8974 N   0  0  0  0  0  0  0  0  0  0  0  0
   10.4884   13.7749   22.0967 C   0  0  0  0  0  0  0  0  0  0  0  0
    9.5630   13.8879   21.3164 O   0  0  0  0  0  0  0  0  0  0  0  0
  1  2  1  0
  2  3  2  0
  3  4  1  0
  4  5  1  0
  5  6  2  0
  5  7  1  0
  7  8  1  1
  7  9  1  0
  3 10  1  0
 10 11  2  0
 11 12  1  0
 12 13  2  0
 13 14  1  0
 14 15  1  0
 15 16  2  0
 15 17  1  0
 17 18  1  0
 18 19  1  0
 19 20  2  0
 13  2  1  0
 19 14  1  0
M  END
>  <alias>  (315) 
None

>  <rmsd(smina/fragmenstein)>  (315) 
0.618

>  <smiles>  (315) 
Cc1c(NC(=O)[C@H](C)Br)cccc1N1C(=O)CNC1=O

>  <gnina_score>  (315) 
5.201

>  <inspiration_score>  (315) 
None

>  <energy_score>  (315) 
-37.734688

>  <distance_score>  (315) 
1.535137

>  <gnina_score_min>  (315) 
5.289

>  <inchikey>  (315) 
VNFPIWVUMYXLQS-QMMMGPOBSA-N

>  <exports>  (315) 
['/opt/xchem-fragalysis-2/maxwin/BulkDock/OUTPUTS/openbind_a71ev2a_c2_elabs_1LOUU54.sdf', '/opt/xchem-fragalysis-2/maxwin/BulkDock/OUTPUTS/openbind_a71ev2a_c2_elabs_1LSYIDY.sdf']

>  <name>  (315) 
P545181

>  <ref_pdb>  (315) 
A0884a

>  <subsites>  (315) 
None

>  <HIPPO Pose ID>  (315) 
545181

>  <ref_mols>  (315) 
A0884a

>  <HIPPO Compound ID>  (315) 
383558

>  <tags>  (315) 
openbind_a71ev2a_c2_elabs,syndirella_product,openbind_a71ev2a_c2_elabs_fragonly_scored_top80percent,openbind_a71ev2a_c2_elabs_scored,BulkDock Fragalysis export,openbind_a71ev2a_c2_elabs_scored_top80percent,openbind_a71ev2a_c2_elabs_activefrags_only_scored_5.2plus,syndirella_placed

>  <smina_score_min>  (315) 
-6.632

$$$$
P545183
     RDKit          3D

 20 21  0  0  0  0  0  0  0  0999 V2000
    5.3360   14.8011   27.8835 C   0  0  0  0  0  0  0  0  0  0  0  0
    4.4912   13.7611   27.1734 C   0  0  1  0  0  0  0  0  0  0  0  0
    3.5342   14.5731   25.6838 Br  0  0  0  0  0  0  0  0  0  0  0  0
    5.3059   12.5684   26.6597 C   0  0  0  0  0  0  0  0  0  0  0  0
    5.1816   11.4989   27.1228 O   0  0  0  0  0  0  0  0  0  0  0  0
    6.2873   13.0872   25.5635 N   0  0  0  0  0  0  0  0  0  0  0  0
    7.3338   12.4444   24.9115 C   0  0  0  0  0  0  0  0  0  0  0  0
    7.5775   11.0811   25.0558 C   0  0  0  0  0  0  0  0  0  0  0  0
    8.6431   10.4905   24.3731 C   0  0  0  0  0  0  0  0  0  0  0  0
    9.5084   11.2688   23.6066 C   0  0  0  0  0  0  0  0  0  0  0  0
    9.2748   12.6376   23.4660 C   0  0  0  0  0  0  0  0  0  0  0  0
   10.1599   13.4550   22.7060 N   0  0  0  0  0  0  0  0  0  0  0  0
   11.4772   13.5751   23.1501 C   0  0  0  0  0  0  0  0  0  0  0  0
   11.9729   12.9673   24.0985 O   0  0  0  0  0  0  0  0  0  0  0  0
   12.2819   14.6606   22.5162 C   0  0  0  0  0  0  0  0  0  0  0  0
   11.9331   14.7244   21.0645 C   0  0  0  0  0  0  0  0  0  0  0  0
   10.5241   14.9672   20.9495 N   0  0  0  0  0  0  0  0  0  0  0  0
    9.6252   14.2243   21.6678 C   0  0  0  0  0  0  0  0  0  0  0  0
    8.4371   14.2605   21.3499 O   0  0  0  0  0  0  0  0  0  0  0  0
    8.1608   13.2118   24.0912 C   0  0  0  0  0  0  0  0  0  0  0  0
  2  1  1  6
  2  3  1  0
  2  4  1  0
  4  5  2  0
  4  6  1  0
  6  7  1  0
  7  8  2  0
  8  9  1  0
  9 10  2  0
 10 11  1  0
 11 12  1  0
 12 13  1  0
 13 14  2  0
 13 15  1  0
 15 16  1  0
 16 17  1  0
 17 18  1  0
 18 19  2  0
 11 20  2  0
 20  7  1  0
 18 12  1  0
M  END
>  <alias>  (316) 
None

>  <rmsd(smina/fragmenstein)>  (316) 
0.332

>  <smiles>  (316) 
C[C@@H](Br)C(=O)Nc1cccc(N2C(=O)CCNC2=O)c1

>  <gnina_score>  (316) 
5.246

>  <inspiration_score>  (316) 
None

>  <energy_score>  (316) 
-14.410698

>  <distance_score>  (316) 
1.397836

>  <gnina_score_min>  (316) 
5.324

>  <inchikey>  (316) 
FLGATJJXUXIEJN-MRVPVSSYSA-N

>  <exports>  (316) 
['/opt/xchem-fragalysis-2/maxwin/BulkDock/OUTPUTS/openbind_a71ev2a_c2_elabs_1LOUU54.sdf', '/opt/xchem-fragalysis-2/maxwin/BulkDock/OUTPUTS/openbind_a71ev2a_c2_elabs_1LSYIDY.sdf']

>  <name>  (316) 
P545183

>  <ref_pdb>  (316) 
A0884a

>  <subsites>  (316) 
None

>  <HIPPO Pose ID>  (316) 
545183

>  <ref_mols>  (316) 
A0884a

>  <HIPPO Compound ID>  (316) 
383559

>  <tags>  (316) 
openbind_a71ev2a_c2_elabs,syndirella_product,openbind_a71ev2a_c2_elabs_fragonly_scored_top80percent,openbind_a71ev2a_c2_elabs_scored,BulkDock Fragalysis export,openbind_a71ev2a_c2_elabs_scored_top80percent,openbind_a71ev2a_c2_elabs_activefrags_only_scored_5.2plus,syndirella_placed

>  <smina_score_min>  (316) 
-7.279

$$$$
P545202
     RDKit          3D

 20 21  0  0  0  0  0  0  0  0999 V2000
    3.7545   13.9244   29.1811 C   0  0  0  0  0  0  0  0  0  0  0  0
    3.1949   13.9418   27.7655 C   0  0  0  0  0  0  0  0  0  0  0  0
    4.2761   14.1625   26.7087 C   0  0  0  0  0  0  0  0  0  0  0  0
    5.1473   12.9297   26.4658 C   0  0  0  0  0  0  0  0  0  0  0  0
    4.9882   11.8950   26.9886 O   0  0  0  0  0  0  0  0  0  0  0  0
    6.1880   13.3687   25.3886 N   0  0  0  0  0  0  0  0  0  0  0  0
    7.2586   12.6754   24.8317 C   0  0  0  0  0  0  0  0  0  0  0  0
    7.4354   11.3081   25.0495 C   0  0  0  0  0  0  0  0  0  0  0  0
    8.5029   10.6466   24.4485 C   0  0  0  0  0  0  0  0  0  0  0  0
    9.4192   11.3645   23.6897 C   0  0  0  0  0  0  0  0  0  0  0  0
   10.4163   10.6896   23.1120 F   0  0  0  0  0  0  0  0  0  0  0  0
    9.2719   12.7398   23.4765 C   0  0  0  0  0  0  0  0  0  0  0  0
   10.2520   13.4688   22.7382 N   0  0  0  0  0  0  0  0  0  0  0  0
    9.8031   14.4439   21.7492 C   0  0  0  0  0  0  0  0  0  0  0  0
   10.8875   14.8984   20.7923 C   0  0  0  0  0  0  0  0  0  0  0  0
   12.1436   15.2116   21.5601 C   0  0  0  0  0  0  0  0  0  0  0  0
   12.4588   14.2192   22.5446 N   0  0  0  0  0  0  0  0  0  0  0  0
   11.5291   13.5446   23.2742 C   0  0  0  0  0  0  0  0  0  0  0  0
   11.8634   13.0787   24.3626 O   0  0  0  0  0  0  0  0  0  0  0  0
    8.1581   13.3826   24.0246 C   0  0  0  0  0  0  0  0  0  0  0  0
  1  2  1  0
  2  3  1  0
  3  4  1  0
  4  5  2  0
  4  6  1  0
  6  7  1  0
  7  8  2  0
  8  9  1  0
  9 10  2  0
 10 11  1  0
 10 12  1  0
 12 13  1  0
 13 14  1  0
 14 15  1  0
 15 16  1  0
 16 17  1  0
 17 18  1  0
 18 19  2  0
 12 20  2  0
 20  7  1  0
 18 13  1  0
M  END
>  <alias>  (317) 
None

>  <rmsd(smina/fragmenstein)>  (317) 
0.741

>  <smiles>  (317) 
CCCC(=O)Nc1ccc(F)c(N2CCCNC2=O)c1

>  <gnina_score>  (317) 
5.253

>  <inspiration_score>  (317) 
None

>  <energy_score>  (317) 
-38.688047

>  <distance_score>  (317) 
1.31202

>  <gnina_score_min>  (317) 
5.277

>  <inchikey>  (317) 
FGVSHIWDGZNDBJ-UHFFFAOYSA-N

>  <exports>  (317) 
['/opt/xchem-fragalysis-2/maxwin/BulkDock/OUTPUTS/openbind_a71ev2a_c2_elabs_1LOUU54.sdf', '/opt/xchem-fragalysis-2/maxwin/BulkDock/OUTPUTS/openbind_a71ev2a_c2_elabs_1LSYIDY.sdf']

>  <name>  (317) 
P545202

>  <ref_pdb>  (317) 
A0884a

>  <subsites>  (317) 
None

>  <HIPPO Pose ID>  (317) 
545202

>  <ref_mols>  (317) 
A0884a

>  <HIPPO Compound ID>  (317) 
383578

>  <tags>  (317) 
openbind_a71ev2a_c2_elabs,syndirella_product,openbind_a71ev2a_c2_elabs_fragonly_scored_top80percent,openbind_a71ev2a_c2_elabs_scored,BulkDock Fragalysis export,openbind_a71ev2a_c2_elabs_scored_top80percent,openbind_a71ev2a_c2_elabs_activefrags_only_scored_5.2plus,syndirella_placed

>  <smina_score_min>  (317) 
-6.023

$$$$
P545213
     RDKit          3D

 20 21  0  0  0  0  0  0  0  0999 V2000
    2.1111   14.2826   26.1071 C   0  0  0  0  0  0  0  0  0  0  0  0
    3.5116   14.8434   25.9094 C   0  0  0  0  0  0  0  0  0  0  0  0
    4.4796   14.3569   26.9843 C   0  0  0  0  0  0  0  0  0  0  0  0
    5.1696   13.0446   26.6153 C   0  0  0  0  0  0  0  0  0  0  0  0
    4.9032   12.0180   27.1113 O   0  0  0  0  0  0  0  0  0  0  0  0
    6.2487   13.4006   25.5451 N   0  0  0  0  0  0  0  0  0  0  0  0
    7.2397   12.6135   24.9643 C   0  0  0  0  0  0  0  0  0  0  0  0
    7.2957   11.2322   25.1442 C   0  0  0  0  0  0  0  0  0  0  0  0
    8.3133   10.4877   24.5421 C   0  0  0  0  0  0  0  0  0  0  0  0
    9.3133   11.1253   23.8147 C   0  0  0  0  0  0  0  0  0  0  0  0
    9.2740   12.5132   23.6560 C   0  0  0  0  0  0  0  0  0  0  0  0
   10.3866   13.1673   23.0679 N   0  0  0  0  0  0  0  0  0  0  0  0
   11.4762   13.3507   23.8920 C   0  0  0  0  0  0  0  0  0  0  0  0
   11.4645   13.2934   25.1185 O   0  0  0  0  0  0  0  0  0  0  0  0
   12.7127   13.7136   23.1598 C   0  0  0  0  0  0  0  0  0  0  0  0
   12.4346   15.0005   22.4586 C   0  0  0  0  0  0  0  0  0  0  0  0
   11.2373   14.8674   21.6932 N   0  0  0  0  0  0  0  0  0  0  0  0
   10.1937   14.0743   22.0510 C   0  0  0  0  0  0  0  0  0  0  0  0
    9.1372   14.2457   21.4550 O   0  0  0  0  0  0  0  0  0  0  0  0
    8.2154   13.2503   24.1971 C   0  0  0  0  0  0  0  0  0  0  0  0
  1  2  1  0
  2  3  1  0
  3  4  1  0
  4  5  2  0
  4  6  1  0
  6  7  1  0
  7  8  2  0
  8  9  1  0
  9 10  2  0
 10 11  1  0
 11 12  1  0
 12 13  1  0
 13 14  2  0
 13 15  1  0
 15 16  1  0
 16 17  1  0
 17 18  1  0
 18 19  2  0
 11 20  2  0
 20  7  1  0
 18 12  1  0
M  END
>  <alias>  (318) 
None

>  <rmsd(smina/fragmenstein)>  (318) 
0.732

>  <smiles>  (318) 
CCCC(=O)Nc1cccc(N2C(=O)CCNC2=O)c1

>  <gnina_score>  (318) 
5.184

>  <inspiration_score>  (318) 
None

>  <energy_score>  (318) 
-26.957838

>  <distance_score>  (318) 
1.784489

>  <gnina_score_min>  (318) 
5.256

>  <inchikey>  (318) 
NWWQESZLGWEVOK-UHFFFAOYSA-N

>  <exports>  (318) 
['/opt/xchem-fragalysis-2/maxwin/BulkDock/OUTPUTS/openbind_a71ev2a_c2_elabs_1LOUU54.sdf', '/opt/xchem-fragalysis-2/maxwin/BulkDock/OUTPUTS/openbind_a71ev2a_c2_elabs_1LSYIDY.sdf']

>  <name>  (318) 
P545213

>  <ref_pdb>  (318) 
A0884a

>  <subsites>  (318) 
None

>  <HIPPO Pose ID>  (318) 
545213

>  <ref_mols>  (318) 
A0884a

>  <HIPPO Compound ID>  (318) 
383596

>  <tags>  (318) 
openbind_a71ev2a_c2_elabs,syndirella_product,openbind_a71ev2a_c2_elabs_fragonly_scored_top80percent,openbind_a71ev2a_c2_elabs_scored,BulkDock Fragalysis export,openbind_a71ev2a_c2_elabs_scored_top80percent,openbind_a71ev2a_c2_elabs_activefrags_only_scored_5.2plus,syndirella_placed

>  <smina_score_min>  (318) 
-6.357

$$$$
P545215
     RDKit          3D

 20 21  0  0  0  0  0  0  0  0999 V2000
    8.2781   14.5037   24.7337 C   0  0  0  0  0  0  0  0  0  0  0  0
    8.4095   13.0129   24.6374 C   0  0  0  0  0  0  0  0  0  0  0  0
    7.5122   12.1730   25.3302 C   0  0  0  0  0  0  0  0  0  0  0  0
    6.5912   12.7299   26.2228 N   0  0  0  0  0  0  0  0  0  0  0  0
    5.5393   12.0465   27.1504 C   0  0  0  0  0  0  0  0  0  0  0  0
    5.2331   10.9203   27.2494 O   0  0  0  0  0  0  0  0  0  0  0  0
    4.8302   13.1553   27.9505 C   0  0  2  0  0  0  0  0  0  0  0  0
    3.9432   14.0212   27.0667 C   0  0  0  0  0  0  0  0  0  0  0  0
    6.0475   14.1818   28.8489 S   0  0  0  0  0  0  0  0  0  0  0  0
    7.5773   10.7956   25.1465 C   0  0  0  0  0  0  0  0  0  0  0  0
    8.5286   10.2461   24.2894 C   0  0  0  0  0  0  0  0  0  0  0  0
    9.4508   11.0554   23.6428 C   0  0  0  0  0  0  0  0  0  0  0  0
    9.4309   12.4344   23.8510 C   0  0  0  0  0  0  0  0  0  0  0  0
   10.5188   13.1560   23.3233 N   0  0  0  0  0  0  0  0  0  0  0  0
   11.4175   13.8554   24.0805 C   0  0  0  0  0  0  0  0  0  0  0  0
   11.4914   13.9296   25.3006 O   0  0  0  0  0  0  0  0  0  0  0  0
   12.3184   14.6304   23.1419 C   0  0  0  0  0  0  0  0  0  0  0  0
   11.6833   14.4163   21.8979 N   0  0  0  0  0  0  0  0  0  0  0  0
   10.5008   13.7551   22.1016 C   0  0  0  0  0  0  0  0  0  0  0  0
    9.5691   13.8760   21.3293 O   0  0  0  0  0  0  0  0  0  0  0  0
  1  2  1  0
  2  3  2  0
  3  4  1  0
  4  5  1  0
  5  6  2  0
  5  7  1  0
  7  8  1  6
  7  9  1  0
  3 10  1  0
 10 11  2  0
 11 12  1  0
 12 13  2  0
 13 14  1  0
 14 15  1  0
 15 16  2  0
 15 17  1  0
 17 18  1  0
 18 19  1  0
 19 20  2  0
 13  2  1  0
 19 14  1  0
M  END
>  <alias>  (319) 
None

>  <rmsd(smina/fragmenstein)>  (319) 
0.702

>  <smiles>  (319) 
Cc1c(NC(=O)[C@H](C)S)cccc1N1C(=O)CNC1=O

>  <gnina_score>  (319) 
5.21

>  <inspiration_score>  (319) 
None

>  <energy_score>  (319) 
-55.029261

>  <distance_score>  (319) 
1.519761

>  <gnina_score_min>  (319) 
5.297

>  <inchikey>  (319) 
FTICLHKBQWWUKQ-QMMMGPOBSA-N

>  <exports>  (319) 
['/opt/xchem-fragalysis-2/maxwin/BulkDock/OUTPUTS/openbind_a71ev2a_c2_elabs_1LOUU54.sdf', '/opt/xchem-fragalysis-2/maxwin/BulkDock/OUTPUTS/openbind_a71ev2a_c2_elabs_1LSYIDY.sdf']

>  <name>  (319) 
P545215

>  <ref_pdb>  (319) 
A0884a

>  <subsites>  (319) 
None

>  <HIPPO Pose ID>  (319) 
545215

>  <ref_mols>  (319) 
A0884a

>  <HIPPO Compound ID>  (319) 
383599

>  <tags>  (319) 
openbind_a71ev2a_c2_elabs,syndirella_product,openbind_a71ev2a_c2_elabs_fragonly_scored_top80percent,openbind_a71ev2a_c2_elabs_scored,BulkDock Fragalysis export,openbind_a71ev2a_c2_elabs_scored_top80percent,openbind_a71ev2a_c2_elabs_activefrags_only_scored_5.2plus,syndirella_placed

>  <smina_score_min>  (319) 
-6.495

$$$$
P545217
     RDKit          3D

 20 21  0  0  0  0  0  0  0  0999 V2000
    3.5603   13.7660   28.0044 C   0  0  0  0  0  0  0  0  0  0  0  0
    4.3916   13.8624   26.9583 C   0  0  0  0  0  0  0  0  0  0  0  0
    5.2748   12.7100   26.5897 C   0  0  0  0  0  0  0  0  0  0  0  0
    5.1688   11.6562   27.0809 O   0  0  0  0  0  0  0  0  0  0  0  0
    6.2482   13.2141   25.4937 N   0  0  0  0  0  0  0  0  0  0  0  0
    7.3147   12.5741   24.8679 C   0  0  0  0  0  0  0  0  0  0  0  0
    7.5390   11.2090   25.0128 C   0  0  0  0  0  0  0  0  0  0  0  0
    8.6071   10.6225   24.3440 C   0  0  0  0  0  0  0  0  0  0  0  0
    8.7666    9.2969   24.4127 F   0  0  0  0  0  0  0  0  0  0  0  0
    9.4934   11.3786   23.5877 C   0  0  0  0  0  0  0  0  0  0  0  0
    9.2740   12.7486   23.4429 C   0  0  0  0  0  0  0  0  0  0  0  0
   10.1652   13.5255   22.6556 N   0  0  0  0  0  0  0  0  0  0  0  0
    9.6127   14.4756   21.6994 C   0  0  0  0  0  0  0  0  0  0  0  0
   10.5862   14.9166   20.6277 C   0  0  0  0  0  0  0  0  0  0  0  0
   11.9987   14.5808   20.9857 C   0  0  0  0  0  0  0  0  0  0  0  0
   12.8605   14.3898   20.1321 O   0  0  0  0  0  0  0  0  0  0  0  0
   12.2547   14.5096   22.3213 N   0  0  0  0  0  0  0  0  0  0  0  0
   11.4656   13.7245   23.1163 C   0  0  0  0  0  0  0  0  0  0  0  0
   11.9215   13.2360   24.1493 O   0  0  0  0  0  0  0  0  0  0  0  0
    8.1629   13.3359   24.0585 C   0  0  0  0  0  0  0  0  0  0  0  0
  1  2  2  0
  2  3  1  0
  3  4  2  0
  3  5  1  0
  5  6  1  0
  6  7  2  0
  7  8  1  0
  8  9  1  0
  8 10  2  0
 10 11  1  0
 11 12  1  0
 12 13  1  0
 13 14  1  0
 14 15  1  0
 15 16  2  0
 15 17  1  0
 17 18  1  0
 18 19  2  0
 11 20  2  0
 20  6  1  0
 18 12  1  0
M  END
>  <alias>  (320) 
None

>  <rmsd(smina/fragmenstein)>  (320) 
0.585

>  <smiles>  (320) 
C=CC(=O)Nc1cc(F)cc(N2CCC(=O)NC2=O)c1

>  <gnina_score>  (320) 
5.108

>  <inspiration_score>  (320) 
None

>  <energy_score>  (320) 
-32.923638

>  <distance_score>  (320) 
1.224492

>  <gnina_score_min>  (320) 
5.206

>  <inchikey>  (320) 
BYPUFTTWBQOJIA-UHFFFAOYSA-N

>  <exports>  (320) 
['/opt/xchem-fragalysis-2/maxwin/BulkDock/OUTPUTS/openbind_a71ev2a_c2_elabs_1LOUU54.sdf', '/opt/xchem-fragalysis-2/maxwin/BulkDock/OUTPUTS/openbind_a71ev2a_c2_elabs_1LSYIDY.sdf']

>  <name>  (320) 
P545217

>  <ref_pdb>  (320) 
A0884a

>  <subsites>  (320) 
None

>  <HIPPO Pose ID>  (320) 
545217

>  <ref_mols>  (320) 
A0884a

>  <HIPPO Compound ID>  (320) 
383601

>  <tags>  (320) 
openbind_a71ev2a_c2_elabs,syndirella_product,openbind_a71ev2a_c2_elabs_fragonly_scored_top80percent,openbind_a71ev2a_c2_elabs_scored,BulkDock Fragalysis export,openbind_a71ev2a_c2_elabs_scored_top80percent,openbind_a71ev2a_c2_elabs_activefrags_only_scored_5.2plus,syndirella_placed

>  <smina_score_min>  (320) 
-6.851

$$$$
P545231
     RDKit          3D

 20 21  0  0  0  0  0  0  0  0999 V2000
    4.6963   15.2018   27.2354 C   0  0  0  0  0  0  0  0  0  0  0  0
    4.2733   13.9572   26.9776 C   0  0  0  0  0  0  0  0  0  0  0  0
    5.1681   12.8195   26.6100 C   0  0  0  0  0  0  0  0  0  0  0  0
    5.0004   11.7567   27.0624 O   0  0  0  0  0  0  0  0  0  0  0  0
    6.1873   13.3109   25.5544 N   0  0  0  0  0  0  0  0  0  0  0  0
    7.2352   12.6415   24.9297 C   0  0  0  0  0  0  0  0  0  0  0  0
    7.4573   11.2758   25.1135 C   0  0  0  0  0  0  0  0  0  0  0  0
    8.5226   10.6552   24.4626 C   0  0  0  0  0  0  0  0  0  0  0  0
    9.3919   11.4119   23.6864 C   0  0  0  0  0  0  0  0  0  0  0  0
   10.3918   10.7850   23.0615 F   0  0  0  0  0  0  0  0  0  0  0  0
    9.1893   12.7819   23.4966 C   0  0  0  0  0  0  0  0  0  0  0  0
   10.0937   13.5443   22.7040 N   0  0  0  0  0  0  0  0  0  0  0  0
    9.5560   14.4596   21.7100 C   0  0  0  0  0  0  0  0  0  0  0  0
   10.5524   14.9138   20.6648 C   0  0  0  0  0  0  0  0  0  0  0  0
   11.9585   14.5447   21.0157 C   0  0  0  0  0  0  0  0  0  0  0  0
   12.8233   14.3804   20.1595 O   0  0  0  0  0  0  0  0  0  0  0  0
   12.2161   14.4480   22.3494 N   0  0  0  0  0  0  0  0  0  0  0  0
   11.3931   13.7217   23.1656 C   0  0  0  0  0  0  0  0  0  0  0  0
   11.8214   13.2892   24.2346 O   0  0  0  0  0  0  0  0  0  0  0  0
    8.0801   13.3839   24.0963 C   0  0  0  0  0  0  0  0  0  0  0  0
  1  2  2  0
  2  3  1  0
  3  4  2  0
  3  5  1  0
  5  6  1  0
  6  7  2  0
  7  8  1  0
  8  9  2  0
  9 10  1  0
  9 11  1  0
 11 12  1  0
 12 13  1  0
 13 14  1  0
 14 15  1  0
 15 16  2  0
 15 17  1  0
 17 18  1  0
 18 19  2  0
 11 20  2  0
 20  6  1  0
 18 12  1  0
M  END
>  <alias>  (321) 
None

>  <rmsd(smina/fragmenstein)>  (321) 
0.431

>  <smiles>  (321) 
C=CC(=O)Nc1ccc(F)c(N2CCC(=O)NC2=O)c1

>  <gnina_score>  (321) 
5.237

>  <inspiration_score>  (321) 
None

>  <energy_score>  (321) 
-10.987848

>  <distance_score>  (321) 
1.276257

>  <gnina_score_min>  (321) 
5.281

>  <inchikey>  (321) 
WPJKSJNYXKTCSJ-UHFFFAOYSA-N

>  <exports>  (321) 
['/opt/xchem-fragalysis-2/maxwin/BulkDock/OUTPUTS/openbind_a71ev2a_c2_elabs_1LOUU54.sdf', '/opt/xchem-fragalysis-2/maxwin/BulkDock/OUTPUTS/openbind_a71ev2a_c2_elabs_1LSYIDY.sdf']

>  <name>  (321) 
P545231

>  <ref_pdb>  (321) 
A0884a

>  <subsites>  (321) 
None

>  <HIPPO Pose ID>  (321) 
545231

>  <ref_mols>  (321) 
A0884a

>  <HIPPO Compound ID>  (321) 
383624

>  <tags>  (321) 
openbind_a71ev2a_c2_elabs,syndirella_product,openbind_a71ev2a_c2_elabs_fragonly_scored_top80percent,openbind_a71ev2a_c2_elabs_scored,BulkDock Fragalysis export,openbind_a71ev2a_c2_elabs_scored_top80percent,openbind_a71ev2a_c2_elabs_activefrags_only_scored_5.2plus,syndirella_placed

>  <smina_score_min>  (321) 
-6.829

$$$$
P545245
     RDKit          3D

 20 21  0  0  0  0  0  0  0  0999 V2000
    4.0572   13.6472   26.9548 C   0  0  0  0  0  0  0  0  0  0  0  0
    4.8559   12.7338   27.5224 C   0  0  0  0  0  0  0  0  0  0  0  0
    5.7904   11.8633   26.7511 C   0  0  0  0  0  0  0  0  0  0  0  0
    5.8113   10.7095   26.9174 O   0  0  0  0  0  0  0  0  0  0  0  0
    6.6189   12.7531   25.7971 N   0  0  0  0  0  0  0  0  0  0  0  0
    7.6734   12.4308   24.9484 C   0  0  0  0  0  0  0  0  0  0  0  0
    8.0792   11.1105   24.7247 C   0  0  0  0  0  0  0  0  0  0  0  0
    9.1508   10.8751   23.8680 C   0  0  0  0  0  0  0  0  0  0  0  0
    9.7726    9.1874   23.3827 Br  0  0  0  0  0  0  0  0  0  0  0  0
    9.8380   11.9180   23.2874 C   0  0  0  0  0  0  0  0  0  0  0  0
    9.4413   13.2228   23.5187 C   0  0  0  0  0  0  0  0  0  0  0  0
   10.1723   14.2544   22.8825 N   0  0  0  0  0  0  0  0  0  0  0  0
    9.6499   14.6085   21.5600 C   0  0  0  0  0  0  0  0  0  0  0  0
   10.5998   15.4015   20.7099 C   0  0  0  0  0  0  0  0  0  0  0  0
   11.9675   14.8218   20.8937 C   0  0  0  0  0  0  0  0  0  0  0  0
   12.6670   14.4114   19.9743 O   0  0  0  0  0  0  0  0  0  0  0  0
   12.3587   14.7962   22.2001 N   0  0  0  0  0  0  0  0  0  0  0  0
   11.5399   14.2849   23.1616 C   0  0  0  0  0  0  0  0  0  0  0  0
   12.0199   13.8331   24.2030 O   0  0  0  0  0  0  0  0  0  0  0  0
    8.3366   13.4895   24.3167 C   0  0  0  0  0  0  0  0  0  0  0  0
  1  2  2  0
  2  3  1  0
  3  4  2  0
  3  5  1  0
  5  6  1  0
  6  7  2  0
  7  8  1  0
  8  9  1  0
  8 10  2  0
 10 11  1  0
 11 12  1  0
 12 13  1  0
 13 14  1  0
 14 15  1  0
 15 16  2  0
 15 17  1  0
 17 18  1  0
 18 19  2  0
 11 20  2  0
 20  6  1  0
 18 12  1  0
M  END
>  <alias>  (322) 
None

>  <rmsd(smina/fragmenstein)>  (322) 
0.221

>  <smiles>  (322) 
C=CC(=O)Nc1cc(Br)cc(N2CCC(=O)NC2=O)c1

>  <gnina_score>  (322) 
5.561

>  <inspiration_score>  (322) 
None

>  <energy_score>  (322) 
-32.658308

>  <distance_score>  (322) 
1.233213

>  <gnina_score_min>  (322) 
5.581

>  <inchikey>  (322) 
DIOUQOIOPKYBHT-UHFFFAOYSA-N

>  <exports>  (322) 
['/opt/xchem-fragalysis-2/maxwin/BulkDock/OUTPUTS/openbind_a71ev2a_c2_elabs_1LOUU54.sdf', '/opt/xchem-fragalysis-2/maxwin/BulkDock/OUTPUTS/openbind_a71ev2a_c2_elabs_1LSYIDY.sdf']

>  <name>  (322) 
P545245

>  <ref_pdb>  (322) 
A0884a

>  <subsites>  (322) 
None

>  <HIPPO Pose ID>  (322) 
545245

>  <ref_mols>  (322) 
A0884a

>  <HIPPO Compound ID>  (322) 
383641

>  <tags>  (322) 
openbind_a71ev2a_c2_elabs,syndirella_product,openbind_a71ev2a_c2_elabs_fragonly_scored_top80percent,BulkDock Fragalysis export,openbind_a71ev2a_c2_elabs_scored,openbind_a71ev2a_c2_elabs_scored_top80percent,openbind_a71ev2a_c2_elabs_activefrags_only_scored_5.2plus,openbind_a71ev2a_c2_elabs_activefrags_only_scored_5.5plus,syndirella_placed

>  <smina_score_min>  (322) 
-6.509

$$$$
P545246
     RDKit          3D

 20 21  0  0  0  0  0  0  0  0999 V2000
    4.6753   15.8823   27.1171 C   0  0  0  0  0  0  0  0  0  0  0  0
    4.1509   14.6662   26.9161 C   0  0  0  0  0  0  0  0  0  0  0  0
    4.9448   13.4273   26.6616 C   0  0  0  0  0  0  0  0  0  0  0  0
    4.6759   12.4248   27.1969 O   0  0  0  0  0  0  0  0  0  0  0  0
    6.0341   13.7409   25.6060 N   0  0  0  0  0  0  0  0  0  0  0  0
    7.0421   12.9366   25.0803 C   0  0  0  0  0  0  0  0  0  0  0  0
    7.1039   11.5732   25.3501 C   0  0  0  0  0  0  0  0  0  0  0  0
    8.0830   10.7945   24.7422 C   0  0  0  0  0  0  0  0  0  0  0  0
    9.0204   11.3778   23.8863 C   0  0  0  0  0  0  0  0  0  0  0  0
   10.0392   10.2834   23.0572 Cl  0  0  0  0  0  0  0  0  0  0  0  0
    9.0037   12.7609   23.6351 C   0  0  0  0  0  0  0  0  0  0  0  0
    9.9678   13.4077   22.7874 N   0  0  0  0  0  0  0  0  0  0  0  0
    9.4828   14.3790   21.8132 C   0  0  0  0  0  0  0  0  0  0  0  0
   10.4958   14.8195   20.7788 C   0  0  0  0  0  0  0  0  0  0  0  0
   11.8996   14.4879   21.1643 C   0  0  0  0  0  0  0  0  0  0  0  0
   12.8012   14.4202   20.3324 O   0  0  0  0  0  0  0  0  0  0  0  0
   12.1160   14.2953   22.4950 N   0  0  0  0  0  0  0  0  0  0  0  0
   11.2563   13.5863   23.2913 C   0  0  0  0  0  0  0  0  0  0  0  0
   11.6465   13.1695   24.3806 O   0  0  0  0  0  0  0  0  0  0  0  0
    7.9874   13.5235   24.2306 C   0  0  0  0  0  0  0  0  0  0  0  0
  1  2  2  0
  2  3  1  0
  3  4  2  0
  3  5  1  0
  5  6  1  0
  6  7  2  0
  7  8  1  0
  8  9  2  0
  9 10  1  0
  9 11  1  0
 11 12  1  0
 12 13  1  0
 13 14  1  0
 14 15  1  0
 15 16  2  0
 15 17  1  0
 17 18  1  0
 18 19  2  0
 11 20  2  0
 20  6  1  0
 18 12  1  0
M  END
>  <alias>  (323) 
None

>  <rmsd(smina/fragmenstein)>  (323) 
0.443

>  <smiles>  (323) 
C=CC(=O)Nc1ccc(Cl)c(N2CCC(=O)NC2=O)c1

>  <gnina_score>  (323) 
5.503

>  <inspiration_score>  (323) 
None

>  <energy_score>  (323) 
-20.716899

>  <distance_score>  (323) 
1.527835

>  <gnina_score_min>  (323) 
5.4

>  <inchikey>  (323) 
RVKQZOBIOMQUEP-UHFFFAOYSA-N

>  <exports>  (323) 
['/opt/xchem-fragalysis-2/maxwin/BulkDock/OUTPUTS/openbind_a71ev2a_c2_elabs_1LOUU54.sdf', '/opt/xchem-fragalysis-2/maxwin/BulkDock/OUTPUTS/openbind_a71ev2a_c2_elabs_1LSYIDY.sdf']

>  <name>  (323) 
P545246

>  <ref_pdb>  (323) 
A0884a

>  <subsites>  (323) 
None

>  <HIPPO Pose ID>  (323) 
545246

>  <ref_mols>  (323) 
A0884a

>  <HIPPO Compound ID>  (323) 
383642

>  <tags>  (323) 
openbind_a71ev2a_c2_elabs,syndirella_product,openbind_a71ev2a_c2_elabs_fragonly_scored_top80percent,openbind_a71ev2a_c2_elabs_scored,BulkDock Fragalysis export,openbind_a71ev2a_c2_elabs_scored_top80percent,openbind_a71ev2a_c2_elabs_activefrags_only_scored_5.2plus,syndirella_placed

>  <smina_score_min>  (323) 
-6.701

$$$$
P545248
     RDKit          3D

 20 21  0  0  0  0  0  0  0  0999 V2000
    4.8725   15.6415   27.4522 C   0  0  0  0  0  0  0  0  0  0  0  0
    4.3041   14.4672   27.1484 C   0  0  0  0  0  0  0  0  0  0  0  0
    5.0633   13.2292   26.8041 C   0  0  0  0  0  0  0  0  0  0  0  0
    4.7812   12.2009   27.2802 O   0  0  0  0  0  0  0  0  0  0  0  0
    6.1432   13.5862   25.7528 N   0  0  0  0  0  0  0  0  0  0  0  0
    7.1265   12.7961   25.1618 C   0  0  0  0  0  0  0  0  0  0  0  0
    7.1734   11.4213   25.3532 C   0  0  0  0  0  0  0  0  0  0  0  0
    8.1298   10.6653   24.6830 C   0  0  0  0  0  0  0  0  0  0  0  0
    9.0586   11.2684   23.8207 C   0  0  0  0  0  0  0  0  0  0  0  0
    9.9574   10.3402   23.0692 C   0  0  0  0  0  0  0  0  0  0  0  0
    9.0531   12.6675   23.6662 C   0  0  0  0  0  0  0  0  0  0  0  0
    9.9988   13.3449   22.8266 N   0  0  0  0  0  0  0  0  0  0  0  0
    9.4824   14.3329   21.8859 C   0  0  0  0  0  0  0  0  0  0  0  0
   10.4705   14.7993   20.8382 C   0  0  0  0  0  0  0  0  0  0  0  0
   11.8859   14.4989   21.2088 C   0  0  0  0  0  0  0  0  0  0  0  0
   12.7823   14.4502   20.3700 O   0  0  0  0  0  0  0  0  0  0  0  0
   12.1161   14.3071   22.5372 N   0  0  0  0  0  0  0  0  0  0  0  0
   11.2846   13.5577   23.3281 C   0  0  0  0  0  0  0  0  0  0  0  0
   11.7054   13.1266   24.3998 O   0  0  0  0  0  0  0  0  0  0  0  0
    8.0655   13.4129   24.3290 C   0  0  0  0  0  0  0  0  0  0  0  0
  1  2  2  0
  2  3  1  0
  3  4  2  0
  3  5  1  0
  5  6  1  0
  6  7  2  0
  7  8  1  0
  8  9  2  0
  9 10  1  0
  9 11  1  0
 11 12  1  0
 12 13  1  0
 13 14  1  0
 14 15  1  0
 15 16  2  0
 15 17  1  0
 17 18  1  0
 18 19  2  0
 11 20  2  0
 20  6  1  0
 18 12  1  0
M  END
>  <alias>  (324) 
None

>  <rmsd(smina/fragmenstein)>  (324) 
0.567

>  <smiles>  (324) 
C=CC(=O)Nc1ccc(C)c(N2CCC(=O)NC2=O)c1

>  <gnina_score>  (324) 
5.276

>  <inspiration_score>  (324) 
None

>  <energy_score>  (324) 
-30.499452

>  <distance_score>  (324) 
1.411874

>  <gnina_score_min>  (324) 
5.25

>  <inchikey>  (324) 
LQGKVUOVTDTFDA-UHFFFAOYSA-N

>  <exports>  (324) 
['/opt/xchem-fragalysis-2/maxwin/BulkDock/OUTPUTS/openbind_a71ev2a_c2_elabs_1LOUU54.sdf', '/opt/xchem-fragalysis-2/maxwin/BulkDock/OUTPUTS/openbind_a71ev2a_c2_elabs_1LSYIDY.sdf']

>  <name>  (324) 
P545248

>  <ref_pdb>  (324) 
A0884a

>  <subsites>  (324) 
None

>  <HIPPO Pose ID>  (324) 
545248

>  <ref_mols>  (324) 
A0884a

>  <HIPPO Compound ID>  (324) 
383644

>  <tags>  (324) 
openbind_a71ev2a_c2_elabs,syndirella_product,openbind_a71ev2a_c2_elabs_fragonly_scored_top80percent,openbind_a71ev2a_c2_elabs_scored,BulkDock Fragalysis export,openbind_a71ev2a_c2_elabs_scored_top80percent,openbind_a71ev2a_c2_elabs_activefrags_only_scored_5.2plus,syndirella_placed

>  <smina_score_min>  (324) 
-6.742

$$$$
P545249
     RDKit          3D

 20 21  0  0  0  0  0  0  0  0999 V2000
    4.7434   15.2234   27.0075 C   0  0  0  0  0  0  0  0  0  0  0  0
    4.3516   13.9546   26.8308 C   0  0  0  0  0  0  0  0  0  0  0  0
    5.2672   12.8185   26.5105 C   0  0  0  0  0  0  0  0  0  0  0  0
    5.1262   11.7765   27.0165 O   0  0  0  0  0  0  0  0  0  0  0  0
    6.2668   13.2782   25.4214 N   0  0  0  0  0  0  0  0  0  0  0  0
    7.3285   12.5970   24.8171 C   0  0  0  0  0  0  0  0  0  0  0  0
    8.1558   13.3571   23.9800 C   0  0  0  0  0  0  0  0  0  0  0  0
    9.2896   12.7921   23.3879 C   0  0  0  0  0  0  0  0  0  0  0  0
   10.1740   13.5803   22.6077 N   0  0  0  0  0  0  0  0  0  0  0  0
    9.6198   14.5093   21.6321 C   0  0  0  0  0  0  0  0  0  0  0  0
   10.5974   14.9345   20.5572 C   0  0  0  0  0  0  0  0  0  0  0  0
   12.0057   14.5818   20.9158 C   0  0  0  0  0  0  0  0  0  0  0  0
   12.8626   14.3578   20.0662 O   0  0  0  0  0  0  0  0  0  0  0  0
   12.2681   14.5438   22.2514 N   0  0  0  0  0  0  0  0  0  0  0  0
   11.4762   13.7772   23.0607 C   0  0  0  0  0  0  0  0  0  0  0  0
   11.9344   13.3091   24.1021 O   0  0  0  0  0  0  0  0  0  0  0  0
    9.5509   11.4320   23.5623 C   0  0  0  0  0  0  0  0  0  0  0  0
    8.6965   10.6525   24.3365 C   0  0  0  0  0  0  0  0  0  0  0  0
    7.6143   11.2405   24.9880 C   0  0  0  0  0  0  0  0  0  0  0  0
    6.8510   10.4479   25.7460 F   0  0  0  0  0  0  0  0  0  0  0  0
  1  2  2  0
  2  3  1  0
  3  4  2  0
  3  5  1  0
  5  6  1  0
  6  7  2  0
  7  8  1  0
  8  9  1  0
  9 10  1  0
 10 11  1  0
 11 12  1  0
 12 13  2  0
 12 14  1  0
 14 15  1  0
 15 16  2  0
  8 17  2  0
 17 18  1  0
 18 19  2  0
 19 20  1  0
 19  6  1  0
 15  9  1  0
M  END
>  <alias>  (325) 
None

>  <rmsd(smina/fragmenstein)>  (325) 
0.557

>  <smiles>  (325) 
C=CC(=O)Nc1cc(N2CCC(=O)NC2=O)ccc1F

>  <gnina_score>  (325) 
5.272

>  <inspiration_score>  (325) 
None

>  <energy_score>  (325) 
-16.606547

>  <distance_score>  (325) 
1.254038

>  <gnina_score_min>  (325) 
5.24

>  <inchikey>  (325) 
CVTYUNOZLBJUAL-UHFFFAOYSA-N

>  <exports>  (325) 
['/opt/xchem-fragalysis-2/maxwin/BulkDock/OUTPUTS/openbind_a71ev2a_c2_elabs_1LOUU54.sdf', '/opt/xchem-fragalysis-2/maxwin/BulkDock/OUTPUTS/openbind_a71ev2a_c2_elabs_1LSYIDY.sdf']

>  <name>  (325) 
P545249

>  <ref_pdb>  (325) 
A0884a

>  <subsites>  (325) 
None

>  <HIPPO Pose ID>  (325) 
545249

>  <ref_mols>  (325) 
A0884a

>  <HIPPO Compound ID>  (325) 
383645

>  <tags>  (325) 
openbind_a71ev2a_c2_elabs,syndirella_product,openbind_a71ev2a_c2_elabs_fragonly_scored_top80percent,openbind_a71ev2a_c2_elabs_scored,BulkDock Fragalysis export,openbind_a71ev2a_c2_elabs_scored_top80percent,openbind_a71ev2a_c2_elabs_activefrags_only_scored_5.2plus,syndirella_placed

>  <smina_score_min>  (325) 
-7.057

$$$$
P545250
     RDKit          3D

 20 21  0  0  0  0  0  0  0  0999 V2000
    3.2394   14.1195   27.4492 C   0  0  0  0  0  0  0  0  0  0  0  0
    4.2333   14.2822   26.5656 C   0  0  0  0  0  0  0  0  0  0  0  0
    5.1775   13.1548   26.2762 C   0  0  0  0  0  0  0  0  0  0  0  0
    5.0419   12.0892   26.7354 O   0  0  0  0  0  0  0  0  0  0  0  0
    6.2710   13.7076   25.3241 N   0  0  0  0  0  0  0  0  0  0  0  0
    7.3290   13.0610   24.6900 C   0  0  0  0  0  0  0  0  0  0  0  0
    7.5587   11.6974   24.8425 C   0  0  0  0  0  0  0  0  0  0  0  0
    8.6409   11.1201   24.1859 C   0  0  0  0  0  0  0  0  0  0  0  0
    8.8344    9.4401   24.1477 Cl  0  0  0  0  0  0  0  0  0  0  0  0
    9.5452   11.8796   23.4671 C   0  0  0  0  0  0  0  0  0  0  0  0
    9.3082   13.2357   23.3040 C   0  0  0  0  0  0  0  0  0  0  0  0
   10.2156   13.9817   22.5256 N   0  0  0  0  0  0  0  0  0  0  0  0
    9.7200   14.8231   21.4506 C   0  0  0  0  0  0  0  0  0  0  0  0
   10.7066   14.9740   20.3161 C   0  0  0  0  0  0  0  0  0  0  0  0
   12.0981   14.6120   20.7328 C   0  0  0  0  0  0  0  0  0  0  0  0
   12.9294   14.2272   19.9158 O   0  0  0  0  0  0  0  0  0  0  0  0
   12.3656   14.7320   22.0616 N   0  0  0  0  0  0  0  0  0  0  0  0
   11.5411   14.0818   22.9346 C   0  0  0  0  0  0  0  0  0  0  0  0
   11.9809   13.6069   23.9805 O   0  0  0  0  0  0  0  0  0  0  0  0
    8.1772   13.8192   23.8785 C   0  0  0  0  0  0  0  0  0  0  0  0
  1  2  2  0
  2  3  1  0
  3  4  2  0
  3  5  1  0
  5  6  1  0
  6  7  2  0
  7  8  1  0
  8  9  1  0
  8 10  2  0
 10 11  1  0
 11 12  1  0
 12 13  1  0
 13 14  1  0
 14 15  1  0
 15 16  2  0
 15 17  1  0
 17 18  1  0
 18 19  2  0
 11 20  2  0
 20  6  1  0
 18 12  1  0
M  END
>  <alias>  (326) 
None

>  <rmsd(smina/fragmenstein)>  (326) 
0.986

>  <smiles>  (326) 
C=CC(=O)Nc1cc(Cl)cc(N2CCC(=O)NC2=O)c1

>  <gnina_score>  (326) 
5.199

>  <inspiration_score>  (326) 
None

>  <energy_score>  (326) 
-41.423595

>  <distance_score>  (326) 
1.506983

>  <gnina_score_min>  (326) 
5.423

>  <inchikey>  (326) 
LWNCYCMMMPOAMN-UHFFFAOYSA-N

>  <exports>  (326) 
['/opt/xchem-fragalysis-2/maxwin/BulkDock/OUTPUTS/openbind_a71ev2a_c2_elabs_1LOUU54.sdf', '/opt/xchem-fragalysis-2/maxwin/BulkDock/OUTPUTS/openbind_a71ev2a_c2_elabs_1LSYIDY.sdf']

>  <name>  (326) 
P545250

>  <ref_pdb>  (326) 
A0884a

>  <subsites>  (326) 
None

>  <HIPPO Pose ID>  (326) 
545250

>  <ref_mols>  (326) 
A0884a

>  <HIPPO Compound ID>  (326) 
383646

>  <tags>  (326) 
openbind_a71ev2a_c2_elabs,syndirella_product,openbind_a71ev2a_c2_elabs_fragonly_scored_top80percent,openbind_a71ev2a_c2_elabs_scored,BulkDock Fragalysis export,openbind_a71ev2a_c2_elabs_scored_top80percent,openbind_a71ev2a_c2_elabs_activefrags_only_scored_5.2plus,syndirella_placed

>  <smina_score_min>  (326) 
-6.546

$$$$
P545254
     RDKit          3D

 20 21  0  0  0  0  0  0  0  0999 V2000
    3.4381   14.6649   24.7250 C   0  0  0  0  0  0  0  0  0  0  0  0
    4.4251   15.3786   26.0662 S   0  0  0  0  0  0  0  0  0  0  0  0
    4.4577   13.9640   27.2034 C   0  0  0  0  0  0  0  0  0  0  0  0
    5.2276   12.7323   26.7152 C   0  0  0  0  0  0  0  0  0  0  0  0
    4.9594   11.6593   27.1025 O   0  0  0  0  0  0  0  0  0  0  0  0
    6.3821   13.2101   25.7848 N   0  0  0  0  0  0  0  0  0  0  0  0
    7.3453   12.4819   25.0932 C   0  0  0  0  0  0  0  0  0  0  0  0
    7.3967   11.0894   25.1504 C   0  0  0  0  0  0  0  0  0  0  0  0
    8.3899   10.3940   24.4581 C   0  0  0  0  0  0  0  0  0  0  0  0
    9.3593   11.0849   23.7414 C   0  0  0  0  0  0  0  0  0  0  0  0
    9.3177   12.4803   23.6934 C   0  0  0  0  0  0  0  0  0  0  0  0
   10.4025   13.1664   23.0957 N   0  0  0  0  0  0  0  0  0  0  0  0
   11.5012   13.3742   23.8999 C   0  0  0  0  0  0  0  0  0  0  0  0
   11.5146   13.3189   25.1257 O   0  0  0  0  0  0  0  0  0  0  0  0
   12.7167   13.7446   23.1372 C   0  0  0  0  0  0  0  0  0  0  0  0
   12.4104   15.0239   22.4342 C   0  0  0  0  0  0  0  0  0  0  0  0
   11.1931   14.8777   21.7016 N   0  0  0  0  0  0  0  0  0  0  0  0
   10.1706   14.0671   22.0825 C   0  0  0  0  0  0  0  0  0  0  0  0
    9.0988   14.2122   21.5078 O   0  0  0  0  0  0  0  0  0  0  0  0
    8.2946   13.1783   24.3451 C   0  0  0  0  0  0  0  0  0  0  0  0
  1  2  1  0
  2  3  1  0
  3  4  1  0
  4  5  2  0
  4  6  1  0
  6  7  1  0
  7  8  2  0
  8  9  1  0
  9 10  2  0
 10 11  1  0
 11 12  1  0
 12 13  1  0
 13 14  2  0
 13 15  1  0
 15 16  1  0
 16 17  1  0
 17 18  1  0
 18 19  2  0
 11 20  2  0
 20  7  1  0
 18 12  1  0
M  END
>  <alias>  (327) 
None

>  <rmsd(smina/fragmenstein)>  (327) 
0.595

>  <smiles>  (327) 
CSCC(=O)Nc1cccc(N2C(=O)CCNC2=O)c1

>  <gnina_score>  (327) 
5.237

>  <inspiration_score>  (327) 
None

>  <energy_score>  (327) 
-59.382431

>  <distance_score>  (327) 
1.712171

>  <gnina_score_min>  (327) 
5.248

>  <inchikey>  (327) 
KETMQVDABNNYKC-UHFFFAOYSA-N

>  <exports>  (327) 
['/opt/xchem-fragalysis-2/maxwin/BulkDock/OUTPUTS/openbind_a71ev2a_c2_elabs_1LOUU54.sdf', '/opt/xchem-fragalysis-2/maxwin/BulkDock/OUTPUTS/openbind_a71ev2a_c2_elabs_1LSYIDY.sdf']

>  <name>  (327) 
P545254

>  <ref_pdb>  (327) 
A0884a

>  <subsites>  (327) 
None

>  <HIPPO Pose ID>  (327) 
545254

>  <ref_mols>  (327) 
A0884a

>  <HIPPO Compound ID>  (327) 
383651

>  <tags>  (327) 
openbind_a71ev2a_c2_elabs,syndirella_product,openbind_a71ev2a_c2_elabs_fragonly_scored_top80percent,openbind_a71ev2a_c2_elabs_scored,BulkDock Fragalysis export,openbind_a71ev2a_c2_elabs_scored_top80percent,openbind_a71ev2a_c2_elabs_activefrags_only_scored_5.2plus,syndirella_placed

>  <smina_score_min>  (327) 
-6.175

$$$$
P545255
     RDKit          3D

 20 21  0  0  0  0  0  0  0  0999 V2000
    3.5541   17.5368   26.5631 C   0  0  0  0  0  0  0  0  0  0  0  0
    2.9344   16.2982   27.1879 C   0  0  0  0  0  0  0  0  0  0  0  0
    3.7474   15.1051   26.9210 C   0  0  0  0  0  0  0  0  0  0  0  0
    4.4202   14.1357   26.6916 C   0  0  0  0  0  0  0  0  0  0  0  0
    5.2569   12.9901   26.3861 C   0  0  0  0  0  0  0  0  0  0  0  0
    5.0716   11.9882   26.9518 O   0  0  0  0  0  0  0  0  0  0  0  0
    6.2949   13.3504   25.3066 N   0  0  0  0  0  0  0  0  0  0  0  0
    7.3539   12.6040   24.7789 C   0  0  0  0  0  0  0  0  0  0  0  0
    8.2829   13.2950   23.9892 C   0  0  0  0  0  0  0  0  0  0  0  0
    9.4026   12.6379   23.4732 C   0  0  0  0  0  0  0  0  0  0  0  0
   10.4032   13.3294   22.7762 N   0  0  0  0  0  0  0  0  0  0  0  0
   10.1547   14.3582   21.7944 C   0  0  0  0  0  0  0  0  0  0  0  0
   11.5491   14.8346   21.4160 C   0  0  0  0  0  0  0  0  0  0  0  0
   12.3619   14.4156   22.5189 N   0  0  0  0  0  0  0  0  0  0  0  0
   11.6800   13.5279   23.3329 C   0  0  0  0  0  0  0  0  0  0  0  0
   12.1216   13.0717   24.3743 O   0  0  0  0  0  0  0  0  0  0  0  0
    9.5462   11.2632   23.6622 C   0  0  0  0  0  0  0  0  0  0  0  0
    8.5974   10.5579   24.3926 C   0  0  0  0  0  0  0  0  0  0  0  0
    7.5308   11.2323   24.9782 C   0  0  0  0  0  0  0  0  0  0  0  0
    6.6685   10.5069   25.6972 F   0  0  0  0  0  0  0  0  0  0  0  0
  1  2  1  0
  2  3  1  0
  3  4  3  0
  4  5  1  0
  5  6  2  0
  5  7  1  0
  7  8  1  0
  8  9  2  0
  9 10  1  0
 10 11  1  0
 11 12  1  0
 12 13  1  0
 13 14  1  0
 14 15  1  0
 15 16  2  0
 10 17  2  0
 17 18  1  0
 18 19  2  0
 19 20  1  0
 19  8  1  0
 15 11  1  0
M  END
>  <alias>  (328) 
None

>  <rmsd(smina/fragmenstein)>  (328) 
1.063

>  <smiles>  (328) 
CCC#CC(=O)Nc1cc(N2CCNC2=O)ccc1F

>  <gnina_score>  (328) 
5.051

>  <inspiration_score>  (328) 
None

>  <energy_score>  (328) 
-37.105259

>  <distance_score>  (328) 
1.251404

>  <gnina_score_min>  (328) 
5.209

>  <inchikey>  (328) 
WPOOYPYRYKGHPC-UHFFFAOYSA-N

>  <exports>  (328) 
['/opt/xchem-fragalysis-2/maxwin/BulkDock/OUTPUTS/openbind_a71ev2a_c2_elabs_1LOUU54.sdf', '/opt/xchem-fragalysis-2/maxwin/BulkDock/OUTPUTS/openbind_a71ev2a_c2_elabs_1LSYIDY.sdf']

>  <name>  (328) 
P545255

>  <ref_pdb>  (328) 
A0884a

>  <subsites>  (328) 
None

>  <HIPPO Pose ID>  (328) 
545255

>  <ref_mols>  (328) 
A0884a

>  <HIPPO Compound ID>  (328) 
383654

>  <tags>  (328) 
openbind_a71ev2a_c2_elabs,syndirella_product,openbind_a71ev2a_c2_elabs_fragonly_scored_top80percent,openbind_a71ev2a_c2_elabs_scored,BulkDock Fragalysis export,openbind_a71ev2a_c2_elabs_scored_top80percent,openbind_a71ev2a_c2_elabs_activefrags_only_scored_5.2plus,syndirella_placed

>  <smina_score_min>  (328) 
-6.448

$$$$
P545256
     RDKit          3D

 20 21  0  0  0  0  0  0  0  0999 V2000
    3.7779   18.3136   27.2684 C   0  0  0  0  0  0  0  0  0  0  0  0
    3.1664   17.4311   26.1934 C   0  0  0  0  0  0  0  0  0  0  0  0
    3.8079   16.1112   26.1596 C   0  0  0  0  0  0  0  0  0  0  0  0
    4.3542   15.0415   26.1172 C   0  0  0  0  0  0  0  0  0  0  0  0
    5.0611   13.7774   26.0376 C   0  0  0  0  0  0  0  0  0  0  0  0
    4.7134   12.8888   26.7074 O   0  0  0  0  0  0  0  0  0  0  0  0
    6.2209   13.8725   25.0243 N   0  0  0  0  0  0  0  0  0  0  0  0
    7.2346   12.9427   24.6984 C   0  0  0  0  0  0  0  0  0  0  0  0
    8.2234   13.4908   23.8531 C   0  0  0  0  0  0  0  0  0  0  0  0
    9.3453   12.7629   23.4510 C   0  0  0  0  0  0  0  0  0  0  0  0
   10.4014   13.3657   22.7503 N   0  0  0  0  0  0  0  0  0  0  0  0
   10.2419   14.3812   21.7364 C   0  0  0  0  0  0  0  0  0  0  0  0
   11.6713   14.7691   21.3904 C   0  0  0  0  0  0  0  0  0  0  0  0
   12.4197   14.3526   22.5358 N   0  0  0  0  0  0  0  0  0  0  0  0
   11.6652   13.5297   23.3532 C   0  0  0  0  0  0  0  0  0  0  0  0
   12.0401   13.1048   24.4328 O   0  0  0  0  0  0  0  0  0  0  0  0
    9.4357   11.4180   23.7823 C   0  0  0  0  0  0  0  0  0  0  0  0
    8.4469   10.8369   24.5683 C   0  0  0  0  0  0  0  0  0  0  0  0
    7.3825   11.6002   25.0793 C   0  0  0  0  0  0  0  0  0  0  0  0
    6.3783   10.7577   26.1862 Cl  0  0  0  0  0  0  0  0  0  0  0  0
  1  2  1  0
  2  3  1  0
  3  4  3  0
  4  5  1  0
  5  6  2  0
  5  7  1  0
  7  8  1  0
  8  9  2  0
  9 10  1  0
 10 11  1  0
 11 12  1  0
 12 13  1  0
 13 14  1  0
 14 15  1  0
 15 16  2  0
 10 17  2  0
 17 18  1  0
 18 19  2  0
 19 20  1  0
 19  8  1  0
 15 11  1  0
M  END
>  <alias>  (329) 
None

>  <rmsd(smina/fragmenstein)>  (329) 
0.851

>  <smiles>  (329) 
CCC#CC(=O)Nc1cc(N2CCNC2=O)ccc1Cl

>  <gnina_score>  (329) 
5.148

>  <inspiration_score>  (329) 
None

>  <energy_score>  (329) 
-2.203207

>  <distance_score>  (329) 
1.587445

>  <gnina_score_min>  (329) 
5.216

>  <inchikey>  (329) 
SHCMFSGXIHFOFK-UHFFFAOYSA-N

>  <exports>  (329) 
['/opt/xchem-fragalysis-2/maxwin/BulkDock/OUTPUTS/openbind_a71ev2a_c2_elabs_1LOUU54.sdf', '/opt/xchem-fragalysis-2/maxwin/BulkDock/OUTPUTS/openbind_a71ev2a_c2_elabs_1LSYIDY.sdf']

>  <name>  (329) 
P545256

>  <ref_pdb>  (329) 
A0884a

>  <subsites>  (329) 
None

>  <HIPPO Pose ID>  (329) 
545256

>  <ref_mols>  (329) 
A0884a

>  <HIPPO Compound ID>  (329) 
383655

>  <tags>  (329) 
openbind_a71ev2a_c2_elabs,syndirella_product,openbind_a71ev2a_c2_elabs_fragonly_scored_top80percent,openbind_a71ev2a_c2_elabs_scored,BulkDock Fragalysis export,openbind_a71ev2a_c2_elabs_scored_top80percent,openbind_a71ev2a_c2_elabs_activefrags_only_scored_5.2plus,syndirella_placed

>  <smina_score_min>  (329) 
-6.447

$$$$
P545259
     RDKit          3D

 20 21  0  0  0  0  0  0  0  0999 V2000
    3.6393   14.5308   25.4885 C   0  0  0  0  0  0  0  0  0  0  0  0
    3.9947   13.6607   27.0444 S   0  0  0  0  0  0  0  0  0  0  0  0
    5.4531   14.6227   27.5776 C   0  0  0  0  0  0  0  0  0  0  0  0
    6.6289   14.5451   26.6014 C   0  0  0  0  0  0  0  0  0  0  0  0
    7.2774   15.4811   26.3304 O   0  0  0  0  0  0  0  0  0  0  0  0
    6.7760   13.0539   26.1673 N   0  0  0  0  0  0  0  0  0  0  0  0
    7.6578   12.4573   25.2736 C   0  0  0  0  0  0  0  0  0  0  0  0
    7.6330   11.0694   25.1216 C   0  0  0  0  0  0  0  0  0  0  0  0
    8.5353   10.4540   24.2550 C   0  0  0  0  0  0  0  0  0  0  0  0
    9.4261   11.2262   23.5199 C   0  0  0  0  0  0  0  0  0  0  0  0
   10.2160   10.6106   22.6355 F   0  0  0  0  0  0  0  0  0  0  0  0
    9.4439   12.6148   23.6462 C   0  0  0  0  0  0  0  0  0  0  0  0
   10.3494   13.3932   22.8768 N   0  0  0  0  0  0  0  0  0  0  0  0
    9.7607   14.2963   21.8875 C   0  0  0  0  0  0  0  0  0  0  0  0
   10.7561   15.0471   21.0131 C   0  0  0  0  0  0  0  0  0  0  0  0
   12.1726   14.6019   21.2733 C   0  0  0  0  0  0  0  0  0  0  0  0
   12.4008   14.4707   22.6815 N   0  0  0  0  0  0  0  0  0  0  0  0
   11.5694   13.7125   23.4579 C   0  0  0  0  0  0  0  0  0  0  0  0
   11.9298   13.3687   24.5805 O   0  0  0  0  0  0  0  0  0  0  0  0
    8.5621   13.2272   24.5389 C   0  0  0  0  0  0  0  0  0  0  0  0
  1  2  1  0
  2  3  1  0
  3  4  1  0
  4  5  2  0
  4  6  1  0
  6  7  1  0
  7  8  2  0
  8  9  1  0
  9 10  2  0
 10 11  1  0
 10 12  1  0
 12 13  1  0
 13 14  1  0
 14 15  1  0
 15 16  1  0
 16 17  1  0
 17 18  1  0
 18 19  2  0
 12 20  2  0
 20  7  1  0
 18 13  1  0
M  END
>  <alias>  (330) 
None

>  <rmsd(smina/fragmenstein)>  (330) 
0.578

>  <smiles>  (330) 
CSCC(=O)Nc1ccc(F)c(N2CCCNC2=O)c1

>  <gnina_score>  (330) 
5.238

>  <inspiration_score>  (330) 
None

>  <energy_score>  (330) 
-40.911574

>  <distance_score>  (330) 
1.561323

>  <gnina_score_min>  (330) 
5.298

>  <inchikey>  (330) 
TZRPACYADIMBGH-UHFFFAOYSA-N

>  <exports>  (330) 
['/opt/xchem-fragalysis-2/maxwin/BulkDock/OUTPUTS/openbind_a71ev2a_c2_elabs_1LOUU54.sdf', '/opt/xchem-fragalysis-2/maxwin/BulkDock/OUTPUTS/openbind_a71ev2a_c2_elabs_1LSYIDY.sdf']

>  <name>  (330) 
P545259

>  <ref_pdb>  (330) 
A0884a

>  <subsites>  (330) 
None

>  <HIPPO Pose ID>  (330) 
545259

>  <ref_mols>  (330) 
A0884a

>  <HIPPO Compound ID>  (330) 
383663

>  <tags>  (330) 
openbind_a71ev2a_c2_elabs,syndirella_product,openbind_a71ev2a_c2_elabs_fragonly_scored_top80percent,openbind_a71ev2a_c2_elabs_scored,BulkDock Fragalysis export,openbind_a71ev2a_c2_elabs_scored_top80percent,openbind_a71ev2a_c2_elabs_activefrags_only_scored_5.2plus,syndirella_placed

>  <smina_score_min>  (330) 
-6.429

$$$$
P545260
     RDKit          3D

 20 21  0  0  0  0  0  0  0  0999 V2000
    5.0252   13.0621   29.8518 C   0  0  0  0  0  0  0  0  0  0  0  0
    3.8628   12.6114   28.5349 S   0  0  0  0  0  0  0  0  0  0  0  0
    4.1118   14.0603   27.4465 C   0  0  0  0  0  0  0  0  0  0  0  0
    5.5015   14.0905   26.8076 C   0  0  0  0  0  0  0  0  0  0  0  0
    6.1444   15.0651   26.7411 O   0  0  0  0  0  0  0  0  0  0  0  0
    5.7633   12.6670   26.2296 N   0  0  0  0  0  0  0  0  0  0  0  0
    6.8680   12.1544   25.5627 C   0  0  0  0  0  0  0  0  0  0  0  0
    6.9754   10.7878   25.4089 C   0  0  0  0  0  0  0  0  0  0  0  0
    8.0027   10.2683   24.6323 C   0  0  0  0  0  0  0  0  0  0  0  0
    8.9677   11.0825   24.0208 C   0  0  0  0  0  0  0  0  0  0  0  0
    9.9464   10.3368   23.1731 C   0  0  0  0  0  0  0  0  0  0  0  0
    8.9826   12.4487   24.3546 C   0  0  0  0  0  0  0  0  0  0  0  0
   10.1417   13.2638   24.2934 N   0  0  0  0  0  0  0  0  0  0  0  0
   10.4534   14.1783   25.2726 C   0  0  0  0  0  0  0  0  0  0  0  0
    9.7721   14.6958   26.1507 O   0  0  0  0  0  0  0  0  0  0  0  0
   11.8959   14.5323   25.1430 C   0  0  0  0  0  0  0  0  0  0  0  0
   12.2897   13.7979   24.0021 N   0  0  0  0  0  0  0  0  0  0  0  0
   11.1774   13.2536   23.4090 C   0  0  0  0  0  0  0  0  0  0  0  0
   11.1988   12.9935   22.2254 O   0  0  0  0  0  0  0  0  0  0  0  0
    7.8665   12.9698   25.0454 C   0  0  0  0  0  0  0  0  0  0  0  0
  1  2  1  0
  2  3  1  0
  3  4  1  0
  4  5  2  0
  4  6  1  0
  6  7  1  0
  7  8  2  0
  8  9  1  0
  9 10  2  0
 10 11  1  0
 10 12  1  0
 12 13  1  0
 13 14  1  0
 14 15  2  0
 14 16  1  0
 16 17  1  0
 17 18  1  0
 18 19  2  0
 12 20  2  0
 20  7  1  0
 18 13  1  0
M  END
>  <alias>  (331) 
None

>  <rmsd(smina/fragmenstein)>  (331) 
2.023

>  <smiles>  (331) 
CSCC(=O)Nc1ccc(C)c(N2C(=O)CNC2=O)c1

>  <gnina_score>  (331) 
4.954

>  <inspiration_score>  (331) 
None

>  <energy_score>  (331) 
-45.468071

>  <distance_score>  (331) 
1.63701

>  <gnina_score_min>  (331) 
5.297

>  <inchikey>  (331) 
CKPCTKSEXQXKMO-UHFFFAOYSA-N

>  <exports>  (331) 
['/opt/xchem-fragalysis-2/maxwin/BulkDock/OUTPUTS/openbind_a71ev2a_c2_elabs_1LOUU54.sdf', '/opt/xchem-fragalysis-2/maxwin/BulkDock/OUTPUTS/openbind_a71ev2a_c2_elabs_1LSYIDY.sdf']

>  <name>  (331) 
P545260

>  <ref_pdb>  (331) 
A0884a

>  <subsites>  (331) 
None

>  <HIPPO Pose ID>  (331) 
545260

>  <ref_mols>  (331) 
A0884a

>  <HIPPO Compound ID>  (331) 
383664

>  <tags>  (331) 
openbind_a71ev2a_c2_elabs,syndirella_product,openbind_a71ev2a_c2_elabs_fragonly_scored_top80percent,openbind_a71ev2a_c2_elabs_scored,BulkDock Fragalysis export,openbind_a71ev2a_c2_elabs_scored_top80percent,openbind_a71ev2a_c2_elabs_activefrags_only_scored_5.2plus,syndirella_placed

>  <smina_score_min>  (331) 
-6.255

$$$$
P545267
     RDKit          3D

 20 21  0  0  0  0  0  0  0  0999 V2000
    5.9585   11.6737   29.9791 C   0  0  0  0  0  0  0  0  0  0  0  0
    4.8165   11.6073   28.5727 S   0  0  0  0  0  0  0  0  0  0  0  0
    5.1341   13.2686   27.8819 C   0  0  0  0  0  0  0  0  0  0  0  0
    6.5364   13.3829   27.2854 C   0  0  0  0  0  0  0  0  0  0  0  0
    7.2875   14.2323   27.5780 O   0  0  0  0  0  0  0  0  0  0  0  0
    6.6679   12.2331   26.2362 N   0  0  0  0  0  0  0  0  0  0  0  0
    7.6748   11.9660   25.3044 C   0  0  0  0  0  0  0  0  0  0  0  0
    7.7658   10.6245   24.9215 C   0  0  0  0  0  0  0  0  0  0  0  0
    8.7217   10.2041   24.0059 C   0  0  0  0  0  0  0  0  0  0  0  0
    9.6032   11.1168   23.4619 C   0  0  0  0  0  0  0  0  0  0  0  0
    9.5549   12.4560   23.8511 C   0  0  0  0  0  0  0  0  0  0  0  0
   10.5662   13.2737   23.3249 N   0  0  0  0  0  0  0  0  0  0  0  0
   11.5108   13.9428   24.0480 C   0  0  0  0  0  0  0  0  0  0  0  0
   11.6774   13.9556   25.2603 O   0  0  0  0  0  0  0  0  0  0  0  0
   12.3471   14.7506   23.0753 C   0  0  0  0  0  0  0  0  0  0  0  0
   11.6635   14.5401   21.8568 N   0  0  0  0  0  0  0  0  0  0  0  0
   10.5136   13.8371   22.0878 C   0  0  0  0  0  0  0  0  0  0  0  0
    9.5755   13.8791   21.3155 O   0  0  0  0  0  0  0  0  0  0  0  0
    8.5478   12.9106   24.7352 C   0  0  0  0  0  0  0  0  0  0  0  0
    8.3611   14.3844   24.9369 C   0  0  0  0  0  0  0  0  0  0  0  0
  1  2  1  0
  2  3  1  0
  3  4  1  0
  4  5  2  0
  4  6  1  0
  6  7  1  0
  7  8  2  0
  8  9  1  0
  9 10  2  0
 10 11  1  0
 11 12  1  0
 12 13  1  0
 13 14  2  0
 13 15  1  0
 15 16  1  0
 16 17  1  0
 17 18  2  0
 11 19  2  0
 19 20  1  0
 19  7  1  0
 17 12  1  0
M  END
>  <alias>  (332) 
None

>  <rmsd(smina/fragmenstein)>  (332) 
0.464

>  <smiles>  (332) 
CSCC(=O)Nc1cccc(N2C(=O)CNC2=O)c1C

>  <gnina_score>  (332) 
5.191

>  <inspiration_score>  (332) 
None

>  <energy_score>  (332) 
-49.316612

>  <distance_score>  (332) 
1.599913

>  <gnina_score_min>  (332) 
5.22

>  <inchikey>  (332) 
GUWLTKRWPKIALO-UHFFFAOYSA-N

>  <exports>  (332) 
['/opt/xchem-fragalysis-2/maxwin/BulkDock/OUTPUTS/openbind_a71ev2a_c2_elabs_1LOUU54.sdf', '/opt/xchem-fragalysis-2/maxwin/BulkDock/OUTPUTS/openbind_a71ev2a_c2_elabs_1LSYIDY.sdf']

>  <name>  (332) 
P545267

>  <ref_pdb>  (332) 
A0884a

>  <subsites>  (332) 
None

>  <HIPPO Pose ID>  (332) 
545267

>  <ref_mols>  (332) 
A0884a

>  <HIPPO Compound ID>  (332) 
383675

>  <tags>  (332) 
openbind_a71ev2a_c2_elabs,syndirella_product,openbind_a71ev2a_c2_elabs_fragonly_scored_top80percent,openbind_a71ev2a_c2_elabs_scored,BulkDock Fragalysis export,openbind_a71ev2a_c2_elabs_scored_top80percent,openbind_a71ev2a_c2_elabs_activefrags_only_scored_5.2plus,syndirella_placed

>  <smina_score_min>  (332) 
-6.103

$$$$
P545272
     RDKit          3D

 20 21  0  0  0  0  0  0  0  0999 V2000
    9.1378    9.5524   23.8677 C   0  0  0  0  0  0  0  0  0  0  0  0
    8.8478   10.9895   24.0912 C   0  0  0  0  0  0  0  0  0  0  0  0
    7.7547   11.4262   24.8497 C   0  0  0  0  0  0  0  0  0  0  0  0
    7.4648   12.7879   24.9297 C   0  0  0  0  0  0  0  0  0  0  0  0
    6.3825   13.2690   25.6586 N   0  0  0  0  0  0  0  0  0  0  0  0
    5.4423   12.5456   26.6730 C   0  0  0  0  0  0  0  0  0  0  0  0
    5.3899   11.4187   26.9884 O   0  0  0  0  0  0  0  0  0  0  0  0
    4.4973   13.6079   27.2246 C   0  0  0  0  0  0  0  0  0  0  0  0
    5.3624   14.6111   28.4633 S   0  0  0  0  0  0  0  0  0  0  0  0
    8.2615   13.7087   24.2496 C   0  0  0  0  0  0  0  0  0  0  0  0
    9.3790   13.2694   23.5450 C   0  0  0  0  0  0  0  0  0  0  0  0
   10.1921   14.1899   22.8425 N   0  0  0  0  0  0  0  0  0  0  0  0
    9.6587   14.5817   21.5356 C   0  0  0  0  0  0  0  0  0  0  0  0
   10.6159   15.3672   20.6850 C   0  0  0  0  0  0  0  0  0  0  0  0
   11.9811   14.7776   20.8550 C   0  0  0  0  0  0  0  0  0  0  0  0
   12.6920   14.4033   19.9286 O   0  0  0  0  0  0  0  0  0  0  0  0
   12.3737   14.7087   22.1605 N   0  0  0  0  0  0  0  0  0  0  0  0
   11.5544   14.1792   23.1123 C   0  0  0  0  0  0  0  0  0  0  0  0
   12.0405   13.7154   24.1453 O   0  0  0  0  0  0  0  0  0  0  0  0
    9.6676   11.9139   23.4600 C   0  0  0  0  0  0  0  0  0  0  0  0
  1  2  1  0
  2  3  2  0
  3  4  1  0
  4  5  1  0
  5  6  1  0
  6  7  2  0
  6  8  1  0
  8  9  1  0
  4 10  2  0
 10 11  1  0
 11 12  1  0
 12 13  1  0
 13 14  1  0
 14 15  1  0
 15 16  2  0
 15 17  1  0
 17 18  1  0
 18 19  2  0
 11 20  2  0
 20  2  1  0
 18 12  1  0
M  END
>  <alias>  (333) 
None

>  <rmsd(smina/fragmenstein)>  (333) 
0.629

>  <smiles>  (333) 
Cc1cc(NC(=O)CS)cc(N2CCC(=O)NC2=O)c1

>  <gnina_score>  (333) 
5.312

>  <inspiration_score>  (333) 
None

>  <energy_score>  (333) 
-21.796235

>  <distance_score>  (333) 
1.320238

>  <gnina_score_min>  (333) 
5.466

>  <inchikey>  (333) 
GSEFNMKAXIIQDY-UHFFFAOYSA-N

>  <exports>  (333) 
['/opt/xchem-fragalysis-2/maxwin/BulkDock/OUTPUTS/openbind_a71ev2a_c2_elabs_1LOUU54.sdf', '/opt/xchem-fragalysis-2/maxwin/BulkDock/OUTPUTS/openbind_a71ev2a_c2_elabs_1LSYIDY.sdf']

>  <name>  (333) 
P545272

>  <ref_pdb>  (333) 
A0884a

>  <subsites>  (333) 
None

>  <HIPPO Pose ID>  (333) 
545272

>  <ref_mols>  (333) 
A0884a

>  <HIPPO Compound ID>  (333) 
383680

>  <tags>  (333) 
openbind_a71ev2a_c2_elabs,syndirella_product,openbind_a71ev2a_c2_elabs_fragonly_scored_top80percent,openbind_a71ev2a_c2_elabs_scored,BulkDock Fragalysis export,openbind_a71ev2a_c2_elabs_scored_top80percent,openbind_a71ev2a_c2_elabs_activefrags_only_scored_5.2plus,syndirella_placed

>  <smina_score_min>  (333) 
-6.784

$$$$
P545285
     RDKit          3D

 20 22  0  0  0  0  0  0  0  0999 V2000
    5.5353   11.5141   27.6849 O   0  0  0  0  0  0  0  0  0  0  0  0
    5.4958   12.5727   27.0780 C   0  0  0  0  0  0  0  0  0  0  0  0
    4.6302   13.6056   27.4140 N   0  0  0  0  0  0  0  0  0  0  0  0
    4.6221   14.6141   26.3919 C   0  0  0  0  0  0  0  0  0  0  0  0
    5.9143   14.3630   25.6311 C   0  0  0  0  0  0  0  0  0  0  0  0
    6.2560   12.9953   25.9781 N   0  0  0  0  0  0  0  0  0  0  0  0
    7.1953   12.2247   25.2677 C   0  0  0  0  0  0  0  0  0  0  0  0
    7.2597   10.8446   25.4291 C   0  0  0  0  0  0  0  0  0  0  0  0
    8.1613   10.0890   24.6919 C   0  0  0  0  0  0  0  0  0  0  0  0
    9.0320   10.6870   23.8031 C   0  0  0  0  0  0  0  0  0  0  0  0
   10.0417    9.6529   22.8947 Cl  0  0  0  0  0  0  0  0  0  0  0  0
    8.9856   12.0637   23.6250 C   0  0  0  0  0  0  0  0  0  0  0  0
    9.8305   12.7012   22.7288 N   0  0  0  0  0  0  0  0  0  0  0  0
    9.8280   14.1473   22.2113 C   0  0  0  0  0  0  0  0  0  0  0  0
    9.0732   15.0115   22.3946 O   0  0  0  0  0  0  0  0  0  0  0  0
   11.0669   14.4355   21.4250 C   0  0  0  0  0  0  0  0  0  0  0  0
   10.8721   14.5868   20.0075 O   0  0  0  0  0  0  0  0  0  0  0  0
   12.1891   15.2469   22.0056 C   0  0  0  0  0  0  0  0  0  0  0  0
   12.3675   13.7852   21.7941 C   0  0  0  0  0  0  0  0  0  0  0  0
    8.0624   12.8232   24.3505 C   0  0  0  0  0  0  0  0  0  0  0  0
  1  2  2  0
  2  3  1  0
  3  4  1  0
  4  5  1  0
  5  6  1  0
  6  7  1  0
  7  8  2  0
  8  9  1  0
  9 10  2  0
 10 11  1  0
 10 12  1  0
 12 13  1  0
 13 14  1  0
 14 15  2  0
 14 16  1  0
 16 17  1  0
 16 18  1  0
 18 19  1  0
 12 20  2  0
  6  2  1  0
 20  7  1  0
 19 16  1  0
M  END
>  <alias>  (334) 
None

>  <rmsd(smina/fragmenstein)>  (334) 
0.666

>  <smiles>  (334) 
O=C1NCCN1c1ccc(Cl)c(NC(=O)C2(O)CC2)c1

>  <gnina_score>  (334) 
5.275

>  <inspiration_score>  (334) 
None

>  <energy_score>  (334) 
-27.494031

>  <distance_score>  (334) 
1.511454

>  <gnina_score_min>  (334) 
5.253

>  <inchikey>  (334) 
RMNVCOHYENWCOG-UHFFFAOYSA-N

>  <exports>  (334) 
['/opt/xchem-fragalysis-2/maxwin/BulkDock/OUTPUTS/openbind_a71ev2a_c2_elabs_1LOUU54.sdf', '/opt/xchem-fragalysis-2/maxwin/BulkDock/OUTPUTS/openbind_a71ev2a_c2_elabs_1LSYIDY.sdf']

>  <name>  (334) 
P545285

>  <ref_pdb>  (334) 
A0884a

>  <subsites>  (334) 
None

>  <HIPPO Pose ID>  (334) 
545285

>  <ref_mols>  (334) 
A0884a

>  <HIPPO Compound ID>  (334) 
383704

>  <tags>  (334) 
openbind_a71ev2a_c2_elabs,syndirella_product,openbind_a71ev2a_c2_elabs_fragonly_scored_top80percent,openbind_a71ev2a_c2_elabs_scored,BulkDock Fragalysis export,openbind_a71ev2a_c2_elabs_scored_top80percent,openbind_a71ev2a_c2_elabs_activefrags_only_scored_5.2plus,syndirella_placed

>  <smina_score_min>  (334) 
-6.054

$$$$
P545287
     RDKit          3D

 20 21  0  0  0  0  0  0  0  0999 V2000
    5.9976   13.6315   29.8157 C   0  0  0  0  0  0  0  0  0  0  0  0
    6.0321   14.8658   28.4906 S   0  0  0  0  0  0  0  0  0  0  0  0
    4.9666   14.0160   27.2793 C   0  0  0  0  0  0  0  0  0  0  0  0
    5.6350   12.7398   26.7731 C   0  0  0  0  0  0  0  0  0  0  0  0
    5.2536   11.6658   27.0432 O   0  0  0  0  0  0  0  0  0  0  0  0
    6.8513   13.1924   25.9067 N   0  0  0  0  0  0  0  0  0  0  0  0
    7.7499   12.4453   25.1513 C   0  0  0  0  0  0  0  0  0  0  0  0
    7.6531   11.0618   25.0338 C   0  0  0  0  0  0  0  0  0  0  0  0
    8.5673   10.3681   24.2357 C   0  0  0  0  0  0  0  0  0  0  0  0
    9.5795   11.0444   23.5570 C   0  0  0  0  0  0  0  0  0  0  0  0
    9.7079   12.4237   23.7096 C   0  0  0  0  0  0  0  0  0  0  0  0
   10.7694   13.0931   23.0731 N   0  0  0  0  0  0  0  0  0  0  0  0
   11.7480   13.7223   23.7959 C   0  0  0  0  0  0  0  0  0  0  0  0
   12.0161   13.5647   24.9805 O   0  0  0  0  0  0  0  0  0  0  0  0
   12.4115   14.7600   22.9176 C   0  0  0  0  0  0  0  0  0  0  0  0
   11.6146   14.6909   21.7528 N   0  0  0  0  0  0  0  0  0  0  0  0
   10.5321   13.8906   21.9942 C   0  0  0  0  0  0  0  0  0  0  0  0
    9.4942   14.0246   21.3727 O   0  0  0  0  0  0  0  0  0  0  0  0
    8.7854   13.1170   24.4972 C   0  0  0  0  0  0  0  0  0  0  0  0
    8.9027   14.4475   24.6514 F   0  0  0  0  0  0  0  0  0  0  0  0
  1  2  1  0
  2  3  1  0
  3  4  1  0
  4  5  2  0
  4  6  1  0
  6  7  1  0
  7  8  2  0
  8  9  1  0
  9 10  2  0
 10 11  1  0
 11 12  1  0
 12 13  1  0
 13 14  2  0
 13 15  1  0
 15 16  1  0
 16 17  1  0
 17 18  2  0
 11 19  2  0
 19 20  1  0
 19  7  1  0
 17 12  1  0
M  END
>  <alias>  (335) 
None

>  <rmsd(smina/fragmenstein)>  (335) 
0.637

>  <smiles>  (335) 
CSCC(=O)Nc1cccc(N2C(=O)CNC2=O)c1F

>  <gnina_score>  (335) 
5.235

>  <inspiration_score>  (335) 
None

>  <energy_score>  (335) 
-40.485466

>  <distance_score>  (335) 
1.558607

>  <gnina_score_min>  (335) 
5.296

>  <inchikey>  (335) 
BBQFWRKDDZRWGC-UHFFFAOYSA-N

>  <exports>  (335) 
['/opt/xchem-fragalysis-2/maxwin/BulkDock/OUTPUTS/openbind_a71ev2a_c2_elabs_1LOUU54.sdf', '/opt/xchem-fragalysis-2/maxwin/BulkDock/OUTPUTS/openbind_a71ev2a_c2_elabs_1LSYIDY.sdf']

>  <name>  (335) 
P545287

>  <ref_pdb>  (335) 
A0884a

>  <subsites>  (335) 
None

>  <HIPPO Pose ID>  (335) 
545287

>  <ref_mols>  (335) 
A0884a

>  <HIPPO Compound ID>  (335) 
383706

>  <tags>  (335) 
openbind_a71ev2a_c2_elabs,syndirella_product,openbind_a71ev2a_c2_elabs_fragonly_scored_top80percent,openbind_a71ev2a_c2_elabs_scored,BulkDock Fragalysis export,openbind_a71ev2a_c2_elabs_scored_top80percent,openbind_a71ev2a_c2_elabs_activefrags_only_scored_5.2plus,syndirella_placed

>  <smina_score_min>  (335) 
-6.35

$$$$
P545288
     RDKit          3D

 20 22  0  0  0  0  0  0  0  0999 V2000
    8.0069   15.8312   26.5393 O   0  0  0  0  0  0  0  0  0  0  0  0
    7.1009   15.1187   26.7405 C   0  0  0  0  0  0  0  0  0  0  0  0
    6.8500   13.6590   26.2822 N   0  0  0  0  0  0  0  0  0  0  0  0
    7.5872   12.8394   25.4370 C   0  0  0  0  0  0  0  0  0  0  0  0
    7.2953   11.4793   25.4021 C   0  0  0  0  0  0  0  0  0  0  0  0
    8.0906   10.6313   24.6400 C   0  0  0  0  0  0  0  0  0  0  0  0
    9.1218   11.1445   23.8494 C   0  0  0  0  0  0  0  0  0  0  0  0
    9.9796    9.9937   22.9177 Cl  0  0  0  0  0  0  0  0  0  0  0  0
    9.3856   12.5222   23.8277 C   0  0  0  0  0  0  0  0  0  0  0  0
   10.3990   13.0825   23.0072 N   0  0  0  0  0  0  0  0  0  0  0  0
   10.0765   14.0738   21.9939 C   0  0  0  0  0  0  0  0  0  0  0  0
   11.4331   14.6121   21.5672 C   0  0  0  0  0  0  0  0  0  0  0  0
   12.2309   14.3982   22.7340 N   0  0  0  0  0  0  0  0  0  0  0  0
   11.6172   13.4984   23.5930 C   0  0  0  0  0  0  0  0  0  0  0  0
   12.0711   13.1831   24.6790 O   0  0  0  0  0  0  0  0  0  0  0  0
    8.6266   13.3565   24.6568 C   0  0  0  0  0  0  0  0  0  0  0  0
    5.8569   15.5561   27.5814 C   0  0  0  0  0  0  0  0  0  0  0  0
    4.5515   15.8746   26.7999 C   0  0  0  0  0  0  0  0  0  0  0  0
    4.2793   16.9855   27.8302 C   0  0  0  0  0  0  0  0  0  0  0  0
    5.7977   17.0279   28.0815 C   0  0  0  0  0  0  0  0  0  0  0  0
  1  2  2  0
  2  3  1  0
  3  4  1  0
  4  5  2  0
  5  6  1  0
  6  7  2  0
  7  8  1  0
  7  9  1  0
  9 10  1  0
 10 11  1  0
 11 12  1  0
 12 13  1  0
 13 14  1  0
 14 15  2  0
  9 16  2  0
  2 17  1  0
 17 18  1  0
 18 19  1  0
 19 20  1  0
 16  4  1  0
 20 17  1  0
 14 10  1  0
M  END
>  <alias>  (336) 
None

>  <rmsd(smina/fragmenstein)>  (336) 
1.282

>  <smiles>  (336) 
O=C(Nc1ccc(Cl)c(N2CCNC2=O)c1)C1CCC1

>  <gnina_score>  (336) 
5.316

>  <inspiration_score>  (336) 
None

>  <energy_score>  (336) 
-32.20565

>  <distance_score>  (336) 
1.975494

>  <gnina_score_min>  (336) 
5.211

>  <inchikey>  (336) 
KUHVVIRYFWUBLT-UHFFFAOYSA-N

>  <exports>  (336) 
['/opt/xchem-fragalysis-2/maxwin/BulkDock/OUTPUTS/openbind_a71ev2a_c2_elabs_1LOUU54.sdf', '/opt/xchem-fragalysis-2/maxwin/BulkDock/OUTPUTS/openbind_a71ev2a_c2_elabs_1LSYIDY.sdf']

>  <name>  (336) 
P545288

>  <ref_pdb>  (336) 
A0884a

>  <subsites>  (336) 
None

>  <HIPPO Pose ID>  (336) 
545288

>  <ref_mols>  (336) 
A0884a

>  <HIPPO Compound ID>  (336) 
383709

>  <tags>  (336) 
openbind_a71ev2a_c2_elabs,syndirella_product,openbind_a71ev2a_c2_elabs_fragonly_scored_top80percent,openbind_a71ev2a_c2_elabs_scored,BulkDock Fragalysis export,openbind_a71ev2a_c2_elabs_scored_top80percent,openbind_a71ev2a_c2_elabs_activefrags_only_scored_5.2plus,syndirella_placed

>  <smina_score_min>  (336) 
-6.284

$$$$
P545300
     RDKit          3D

 20 21  0  0  0  0  0  0  0  0999 V2000
    3.6729   13.8253   27.9932 C   0  0  0  0  0  0  0  0  0  0  0  0
    4.4365   13.0202   27.5323 C   0  0  0  0  0  0  0  0  0  0  0  0
    5.3621   12.0560   26.9661 C   0  0  0  0  0  0  0  0  0  0  0  0
    5.2659   10.9382   27.2803 O   0  0  0  0  0  0  0  0  0  0  0  0
    6.3488   12.7405   26.0049 N   0  0  0  0  0  0  0  0  0  0  0  0
    7.3384   12.1962   25.1769 C   0  0  0  0  0  0  0  0  0  0  0  0
    7.5245   10.8141   25.1309 C   0  0  0  0  0  0  0  0  0  0  0  0
    8.5302   10.2606   24.3446 C   0  0  0  0  0  0  0  0  0  0  0  0
    9.4040   11.0806   23.6519 C   0  0  0  0  0  0  0  0  0  0  0  0
    9.2552   12.4703   23.7076 C   0  0  0  0  0  0  0  0  0  0  0  0
   10.3413   13.2224   23.1883 N   0  0  0  0  0  0  0  0  0  0  0  0
   11.3980   13.4623   24.0400 C   0  0  0  0  0  0  0  0  0  0  0  0
   11.3389   13.4967   25.2652 O   0  0  0  0  0  0  0  0  0  0  0  0
   12.6714   13.7259   23.3197 C   0  0  0  0  0  0  0  0  0  0  0  0
   12.4384   14.9525   22.4982 C   0  0  0  0  0  0  0  0  0  0  0  0
   11.2756   14.7574   21.6908 N   0  0  0  0  0  0  0  0  0  0  0  0
   10.2161   13.9830   22.0499 C   0  0  0  0  0  0  0  0  0  0  0  0
    9.2136   14.0421   21.3503 O   0  0  0  0  0  0  0  0  0  0  0  0
    8.1742   13.0445   24.4164 C   0  0  0  0  0  0  0  0  0  0  0  0
    7.9781   14.5337   24.4485 C   0  0  0  0  0  0  0  0  0  0  0  0
  1  2  3  0
  2  3  1  0
  3  4  2  0
  3  5  1  0
  5  6  1  0
  6  7  2  0
  7  8  1  0
  8  9  2  0
  9 10  1  0
 10 11  1  0
 11 12  1  0
 12 13  2  0
 12 14  1  0
 14 15  1  0
 15 16  1  0
 16 17  1  0
 17 18  2  0
 10 19  2  0
 19 20  1  0
 19  6  1  0
 17 11  1  0
M  END
>  <alias>  (337) 
None

>  <rmsd(smina/fragmenstein)>  (337) 
0.52

>  <smiles>  (337) 
C#CC(=O)Nc1cccc(N2C(=O)CCNC2=O)c1C

>  <gnina_score>  (337) 
5.266

>  <inspiration_score>  (337) 
None

>  <energy_score>  (337) 
-20.151155

>  <distance_score>  (337) 
1.640156

>  <gnina_score_min>  (337) 
5.303

>  <inchikey>  (337) 
JZUTVEQOYPIWFS-UHFFFAOYSA-N

>  <exports>  (337) 
['/opt/xchem-fragalysis-2/maxwin/BulkDock/OUTPUTS/openbind_a71ev2a_c2_elabs_1LOUU54.sdf', '/opt/xchem-fragalysis-2/maxwin/BulkDock/OUTPUTS/openbind_a71ev2a_c2_elabs_1LSYIDY.sdf']

>  <name>  (337) 
P545300

>  <ref_pdb>  (337) 
A0884a

>  <subsites>  (337) 
None

>  <HIPPO Pose ID>  (337) 
545300

>  <ref_mols>  (337) 
A0884a

>  <HIPPO Compound ID>  (337) 
383737

>  <tags>  (337) 
openbind_a71ev2a_c2_elabs,syndirella_product,openbind_a71ev2a_c2_elabs_fragonly_scored_top80percent,openbind_a71ev2a_c2_elabs_scored,BulkDock Fragalysis export,openbind_a71ev2a_c2_elabs_scored_top80percent,openbind_a71ev2a_c2_elabs_activefrags_only_scored_5.2plus,syndirella_placed

>  <smina_score_min>  (337) 
-6.468

$$$$
P545301
     RDKit          3D

 20 21  0  0  0  0  0  0  0  0999 V2000
    3.6604   12.8931   28.5747 C   0  0  0  0  0  0  0  0  0  0  0  0
    4.5267   13.1752   27.5923 C   0  0  0  0  0  0  0  0  0  0  0  0
    5.3636   12.0874   26.9904 C   0  0  0  0  0  0  0  0  0  0  0  0
    5.2416   10.9654   27.2904 O   0  0  0  0  0  0  0  0  0  0  0  0
    6.2994   12.7530   25.9485 N   0  0  0  0  0  0  0  0  0  0  0  0
    7.3121   12.2031   25.1547 C   0  0  0  0  0  0  0  0  0  0  0  0
    7.5019   10.8216   25.1313 C   0  0  0  0  0  0  0  0  0  0  0  0
    8.5179   10.2602   24.3646 C   0  0  0  0  0  0  0  0  0  0  0  0
    9.4000   11.0735   23.6742 C   0  0  0  0  0  0  0  0  0  0  0  0
    9.2501   12.4639   23.7128 C   0  0  0  0  0  0  0  0  0  0  0  0
   10.3468   13.2084   23.2060 N   0  0  0  0  0  0  0  0  0  0  0  0
   11.3773   13.4751   24.0825 C   0  0  0  0  0  0  0  0  0  0  0  0
   11.2798   13.5629   25.3026 O   0  0  0  0  0  0  0  0  0  0  0  0
   12.6709   13.7096   23.3880 C   0  0  0  0  0  0  0  0  0  0  0  0
   12.4626   14.9234   22.5395 C   0  0  0  0  0  0  0  0  0  0  0  0
   11.3172   14.7212   21.7088 N   0  0  0  0  0  0  0  0  0  0  0  0
   10.2442   13.9609   22.0597 C   0  0  0  0  0  0  0  0  0  0  0  0
    9.2515   14.0283   21.3469 O   0  0  0  0  0  0  0  0  0  0  0  0
    8.1572   13.0443   24.3967 C   0  0  0  0  0  0  0  0  0  0  0  0
    7.9534   14.5327   24.4060 C   0  0  0  0  0  0  0  0  0  0  0  0
  1  2  2  0
  2  3  1  0
  3  4  2  0
  3  5  1  0
  5  6  1  0
  6  7  2  0
  7  8  1  0
  8  9  2  0
  9 10  1  0
 10 11  1  0
 11 12  1  0
 12 13  2  0
 12 14  1  0
 14 15  1  0
 15 16  1  0
 16 17  1  0
 17 18  2  0
 10 19  2  0
 19 20  1  0
 19  6  1  0
 17 11  1  0
M  END
>  <alias>  (338) 
None

>  <rmsd(smina/fragmenstein)>  (338) 
0.552

>  <smiles>  (338) 
C=CC(=O)Nc1cccc(N2C(=O)CCNC2=O)c1C

>  <gnina_score>  (338) 
5.26

>  <inspiration_score>  (338) 
None

>  <energy_score>  (338) 
-22.895296

>  <distance_score>  (338) 
1.637873

>  <gnina_score_min>  (338) 
5.296

>  <inchikey>  (338) 
VPIBPTVXOBAALJ-UHFFFAOYSA-N

>  <exports>  (338) 
['/opt/xchem-fragalysis-2/maxwin/BulkDock/OUTPUTS/openbind_a71ev2a_c2_elabs_1LOUU54.sdf', '/opt/xchem-fragalysis-2/maxwin/BulkDock/OUTPUTS/openbind_a71ev2a_c2_elabs_1LSYIDY.sdf']

>  <name>  (338) 
P545301

>  <ref_pdb>  (338) 
A0884a

>  <subsites>  (338) 
None

>  <HIPPO Pose ID>  (338) 
545301

>  <ref_mols>  (338) 
A0884a

>  <HIPPO Compound ID>  (338) 
383739

>  <tags>  (338) 
openbind_a71ev2a_c2_elabs,syndirella_product,openbind_a71ev2a_c2_elabs_fragonly_scored_top80percent,openbind_a71ev2a_c2_elabs_scored,BulkDock Fragalysis export,openbind_a71ev2a_c2_elabs_scored_top80percent,openbind_a71ev2a_c2_elabs_activefrags_only_scored_5.2plus,syndirella_placed

>  <smina_score_min>  (338) 
-6.511

$$$$
P545309
     RDKit          3D

 20 21  0  0  0  0  0  0  0  0999 V2000
   12.0666   16.0803   25.5779 O   0  0  0  0  0  0  0  0  0  0  0  0
   11.7576   15.1147   24.8693 C   0  0  0  0  0  0  0  0  0  0  0  0
   10.8783   14.1470   25.4906 C   0  0  0  0  0  0  0  0  0  0  0  0
   11.1013   12.9090   24.7055 C   0  0  0  0  0  0  0  0  0  0  0  0
   10.6493   13.0530   23.3455 N   0  0  0  0  0  0  0  0  0  0  0  0
    9.3545   12.4814   23.1897 C   0  0  0  0  0  0  0  0  0  0  0  0
    9.2647   11.1090   23.4969 C   0  0  0  0  0  0  0  0  0  0  0  0
    8.2306   10.6504   24.3039 C   0  0  0  0  0  0  0  0  0  0  0  0
    7.2537   11.5440   24.7424 C   0  0  0  0  0  0  0  0  0  0  0  0
    7.2395   12.8614   24.2725 C   0  0  0  0  0  0  0  0  0  0  0  0
    6.2561   13.7640   24.6632 N   0  0  0  0  0  0  0  0  0  0  0  0
    5.1331   13.6358   25.7416 C   0  0  0  0  0  0  0  0  0  0  0  0
    4.8206   12.7238   26.4068 O   0  0  0  0  0  0  0  0  0  0  0  0
    4.4217   14.9790   25.7999 C   0  0  0  0  0  0  0  0  0  0  0  0
    5.2749   16.0167   26.4974 C   0  0  0  0  0  0  0  0  0  0  0  0
    5.4330   15.6669   27.8027 F   0  0  0  0  0  0  0  0  0  0  0  0
    8.2651   13.3210   23.4449 C   0  0  0  0  0  0  0  0  0  0  0  0
   11.1091   14.2013   22.7136 C   0  0  0  0  0  0  0  0  0  0  0  0
   10.7856   14.5906   21.6020 O   0  0  0  0  0  0  0  0  0  0  0  0
   11.9460   14.9707   23.5064 N   0  0  0  0  0  0  0  0  0  0  0  0
  1  2  2  0
  2  3  1  0
  3  4  1  0
  4  5  1  0
  5  6  1  0
  6  7  2  0
  7  8  1  0
  8  9  2  0
  9 10  1  0
 10 11  1  0
 11 12  1  0
 12 13  2  0
 12 14  1  0
 14 15  1  0
 15 16  1  0
 10 17  2  0
  5 18  1  0
 18 19  2  0
 18 20  1  0
 20  2  1  0
 17  6  1  0
M  END
>  <alias>  (339) 
None

>  <rmsd(smina/fragmenstein)>  (339) 
0.598

>  <smiles>  (339) 
O=C1CCN(c2cccc(NC(=O)CCF)c2)C(=O)N1

>  <gnina_score>  (339) 
5.064

>  <inspiration_score>  (339) 
None

>  <energy_score>  (339) 
-1.153422

>  <distance_score>  (339) 
1.690813

>  <gnina_score_min>  (339) 
5.286

>  <inchikey>  (339) 
CWEVZMFVOVISLW-UHFFFAOYSA-N

>  <exports>  (339) 
['/opt/xchem-fragalysis-2/maxwin/BulkDock/OUTPUTS/openbind_a71ev2a_c2_elabs_1LOUU54.sdf', '/opt/xchem-fragalysis-2/maxwin/BulkDock/OUTPUTS/openbind_a71ev2a_c2_elabs_1LSYIDY.sdf']

>  <name>  (339) 
P545309

>  <ref_pdb>  (339) 
A0884a

>  <subsites>  (339) 
None

>  <HIPPO Pose ID>  (339) 
545309

>  <ref_mols>  (339) 
A0884a

>  <HIPPO Compound ID>  (339) 
383747

>  <tags>  (339) 
openbind_a71ev2a_c2_elabs,syndirella_product,openbind_a71ev2a_c2_elabs_fragonly_scored_top80percent,openbind_a71ev2a_c2_elabs_scored,BulkDock Fragalysis export,openbind_a71ev2a_c2_elabs_scored_top80percent,openbind_a71ev2a_c2_elabs_activefrags_only_scored_5.2plus,syndirella_placed

>  <smina_score_min>  (339) 
-4.333

$$$$
P545315
     RDKit          3D

 20 21  0  0  0  0  0  0  0  0999 V2000
    5.1408   11.7676   26.8972 O   0  0  0  0  0  0  0  0  0  0  0  0
    5.5625   12.8289   26.6440 C   0  0  0  0  0  0  0  0  0  0  0  0
    4.9424   14.1356   27.1201 C   0  0  0  0  0  0  0  0  0  0  0  0
    3.8777   13.8921   28.1676 C   0  0  0  0  0  0  0  0  0  0  0  0
    4.4839   13.5925   29.3496 F   0  0  0  0  0  0  0  0  0  0  0  0
    6.7611   13.2505   25.7375 N   0  0  0  0  0  0  0  0  0  0  0  0
    7.7012   12.4752   25.0643 C   0  0  0  0  0  0  0  0  0  0  0  0
    7.6339   11.0856   25.0314 C   0  0  0  0  0  0  0  0  0  0  0  0
    8.5708   10.3634   24.2861 C   0  0  0  0  0  0  0  0  0  0  0  0
    9.5869   11.0159   23.5888 C   0  0  0  0  0  0  0  0  0  0  0  0
    9.6878   12.4036   23.6605 C   0  0  0  0  0  0  0  0  0  0  0  0
   10.7438   13.0629   23.0019 N   0  0  0  0  0  0  0  0  0  0  0  0
   11.7847   13.6019   23.7125 C   0  0  0  0  0  0  0  0  0  0  0  0
   12.1228   13.3295   24.8575 O   0  0  0  0  0  0  0  0  0  0  0  0
   12.4090   14.7148   22.8996 C   0  0  0  0  0  0  0  0  0  0  0  0
   11.5735   14.7326   21.7609 N   0  0  0  0  0  0  0  0  0  0  0  0
   10.4901   13.9284   21.9803 C   0  0  0  0  0  0  0  0  0  0  0  0
    9.4436   14.1017   21.3838 O   0  0  0  0  0  0  0  0  0  0  0  0
    8.7366   13.1245   24.3891 C   0  0  0  0  0  0  0  0  0  0  0  0
    8.8346   14.4628   24.4766 F   0  0  0  0  0  0  0  0  0  0  0  0
  1  2  2  0
  2  3  1  0
  3  4  1  0
  4  5  1  0
  2  6  1  0
  6  7  1  0
  7  8  2  0
  8  9  1  0
  9 10  2  0
 10 11  1  0
 11 12  1  0
 12 13  1  0
 13 14  2  0
 13 15  1  0
 15 16  1  0
 16 17  1  0
 17 18  2  0
 11 19  2  0
 19 20  1  0
 19  7  1  0
 17 12  1  0
M  END
>  <alias>  (340) 
None

>  <rmsd(smina/fragmenstein)>  (340) 
0.655

>  <smiles>  (340) 
O=C(CCF)Nc1cccc(N2C(=O)CNC2=O)c1F

>  <gnina_score>  (340) 
5.201

>  <inspiration_score>  (340) 
None

>  <energy_score>  (340) 
-15.931443

>  <distance_score>  (340) 
1.582993

>  <gnina_score_min>  (340) 
5.218

>  <inchikey>  (340) 
BBSFKSCLWQFVEI-UHFFFAOYSA-N

>  <exports>  (340) 
['/opt/xchem-fragalysis-2/maxwin/BulkDock/OUTPUTS/openbind_a71ev2a_c2_elabs_1LOUU54.sdf', '/opt/xchem-fragalysis-2/maxwin/BulkDock/OUTPUTS/openbind_a71ev2a_c2_elabs_1LSYIDY.sdf']

>  <name>  (340) 
P545315

>  <ref_pdb>  (340) 
A0884a

>  <subsites>  (340) 
None

>  <HIPPO Pose ID>  (340) 
545315

>  <ref_mols>  (340) 
A0884a

>  <HIPPO Compound ID>  (340) 
383756

>  <tags>  (340) 
openbind_a71ev2a_c2_elabs,syndirella_product,openbind_a71ev2a_c2_elabs_fragonly_scored_top80percent,openbind_a71ev2a_c2_elabs_scored,BulkDock Fragalysis export,openbind_a71ev2a_c2_elabs_scored_top80percent,openbind_a71ev2a_c2_elabs_activefrags_only_scored_5.2plus,syndirella_placed

>  <smina_score_min>  (340) 
-6.197

$$$$
P545321
     RDKit          3D

 20 21  0  0  0  0  0  0  0  0999 V2000
    5.4602   14.6922   28.0871 C   0  0  0  0  0  0  0  0  0  0  0  0
    4.6028   13.8097   27.1942 C   0  0  1  0  0  0  0  0  0  0  0  0
    3.9552   14.7446   25.8242 Cl  0  0  0  0  0  0  0  0  0  0  0  0
    5.3815   12.5859   26.6847 C   0  0  0  0  0  0  0  0  0  0  0  0
    5.1871   11.5142   27.1177 O   0  0  0  0  0  0  0  0  0  0  0  0
    6.4309   13.0790   25.6403 N   0  0  0  0  0  0  0  0  0  0  0  0
    7.4721   12.3987   25.0149 C   0  0  0  0  0  0  0  0  0  0  0  0
    7.5631   11.0112   25.0344 C   0  0  0  0  0  0  0  0  0  0  0  0
    8.6123   10.3796   24.3643 C   0  0  0  0  0  0  0  0  0  0  0  0
    9.6041   11.1264   23.7280 C   0  0  0  0  0  0  0  0  0  0  0  0
    9.5419   12.5198   23.7316 C   0  0  0  0  0  0  0  0  0  0  0  0
   10.5541   13.2875   23.1369 N   0  0  0  0  0  0  0  0  0  0  0  0
   11.8986   13.1809   23.3633 C   0  0  0  0  0  0  0  0  0  0  0  0
   12.4726   12.4556   24.1629 O   0  0  0  0  0  0  0  0  0  0  0  0
   12.5996   14.1656   22.4502 C   0  0  0  0  0  0  0  0  0  0  0  0
   11.5187   15.0265   22.1406 N   0  0  0  0  0  0  0  0  0  0  0  0
   10.3374   14.3775   22.3568 C   0  0  0  0  0  0  0  0  0  0  0  0
    9.2986   14.7479   21.8490 O   0  0  0  0  0  0  0  0  0  0  0  0
    8.4529   13.1420   24.3535 C   0  0  0  0  0  0  0  0  0  0  0  0
    8.4029   14.4827   24.4434 F   0  0  0  0  0  0  0  0  0  0  0  0
  2  1  1  6
  2  3  1  0
  2  4  1  0
  4  5  2  0
  4  6  1  0
  6  7  1  0
  7  8  2  0
  8  9  1  0
  9 10  2  0
 10 11  1  0
 11 12  1  0
 12 13  1  0
 13 14  2  0
 13 15  1  0
 15 16  1  0
 16 17  1  0
 17 18  2  0
 11 19  2  0
 19 20  1  0
 19  7  1  0
 17 12  1  0
M  END
>  <alias>  (341) 
None

>  <rmsd(smina/fragmenstein)>  (341) 
0.733

>  <smiles>  (341) 
C[C@@H](Cl)C(=O)Nc1cccc(N2C(=O)CNC2=O)c1F

>  <gnina_score>  (341) 
5.16

>  <inspiration_score>  (341) 
None

>  <energy_score>  (341) 
-21.879291

>  <distance_score>  (341) 
1.580569

>  <gnina_score_min>  (341) 
5.25

>  <inchikey>  (341) 
VGWODOHLINHCCE-ZCFIWIBFSA-N

>  <exports>  (341) 
['/opt/xchem-fragalysis-2/maxwin/BulkDock/OUTPUTS/openbind_a71ev2a_c2_elabs_1LOUU54.sdf', '/opt/xchem-fragalysis-2/maxwin/BulkDock/OUTPUTS/openbind_a71ev2a_c2_elabs_1LSYIDY.sdf']

>  <name>  (341) 
P545321

>  <ref_pdb>  (341) 
A0884a

>  <subsites>  (341) 
None

>  <HIPPO Pose ID>  (341) 
545321

>  <ref_mols>  (341) 
A0884a

>  <HIPPO Compound ID>  (341) 
383766

>  <tags>  (341) 
openbind_a71ev2a_c2_elabs,syndirella_product,openbind_a71ev2a_c2_elabs_fragonly_scored_top80percent,openbind_a71ev2a_c2_elabs_scored,BulkDock Fragalysis export,openbind_a71ev2a_c2_elabs_scored_top80percent,openbind_a71ev2a_c2_elabs_activefrags_only_scored_5.2plus,syndirella_placed

>  <smina_score_min>  (341) 
-7.139

$$$$
P545335
     RDKit          3D

 20 21  0  0  0  0  0  0  0  0999 V2000
   12.6336   14.6245   20.3103 O   0  0  0  0  0  0  0  0  0  0  0  0
   12.0985   14.6964   21.4108 C   0  0  0  0  0  0  0  0  0  0  0  0
   12.6333   14.0427   22.6480 C   0  0  0  0  0  0  0  0  0  0  0  0
   11.6927   14.1893   23.8202 C   0  0  0  0  0  0  0  0  0  0  0  0
   10.3057   14.0635   23.4188 N   0  0  0  0  0  0  0  0  0  0  0  0
    9.5889   12.9447   23.8640 C   0  0  0  0  0  0  0  0  0  0  0  0
    9.9427   11.7127   23.3616 C   0  0  0  0  0  0  0  0  0  0  0  0
    9.2666   10.5914   23.7810 C   0  0  0  0  0  0  0  0  0  0  0  0
    9.9750    8.9910   23.1573 Br  0  0  0  0  0  0  0  0  0  0  0  0
    8.1843   10.6824   24.6495 C   0  0  0  0  0  0  0  0  0  0  0  0
    7.8044   11.9381   25.1261 C   0  0  0  0  0  0  0  0  0  0  0  0
    6.7199   12.0319   25.9906 N   0  0  0  0  0  0  0  0  0  0  0  0
    6.2332   13.2195   26.8813 C   0  0  0  0  0  0  0  0  0  0  0  0
    6.6276   14.3189   26.9608 O   0  0  0  0  0  0  0  0  0  0  0  0
    4.9945   12.7449   27.6327 C   0  0  0  0  0  0  0  0  0  0  0  0
    5.5036   11.1939   28.9821 I   0  0  0  0  0  0  0  0  0  0  0  0
    8.5152   13.0758   24.7392 C   0  0  0  0  0  0  0  0  0  0  0  0
    9.9769   14.5497   22.1644 C   0  0  0  0  0  0  0  0  0  0  0  0
    8.9518   14.2733   21.5570 O   0  0  0  0  0  0  0  0  0  0  0  0
   10.9112   15.3206   21.5705 N   0  0  0  0  0  0  0  0  0  0  0  0
  1  2  2  0
  2  3  1  0
  3  4  1  0
  4  5  1  0
  5  6  1  0
  6  7  2  0
  7  8  1  0
  8  9  1  0
  8 10  2  0
 10 11  1  0
 11 12  1  0
 12 13  1  0
 13 14  2  0
 13 15  1  0
 15 16  1  0
 11 17  2  0
  5 18  1  0
 18 19  2  0
 18 20  1  0
 20  2  1  0
 17  6  1  0
M  END
>  <alias>  (342) 
None

>  <rmsd(smina/fragmenstein)>  (342) 
0.451

>  <smiles>  (342) 
O=C1CCN(c2cc(Br)cc(NC(=O)CI)c2)C(=O)N1

>  <gnina_score>  (342) 
5.646

>  <inspiration_score>  (342) 
None

>  <energy_score>  (342) 
-15.227871

>  <distance_score>  (342) 
1.760098

>  <gnina_score_min>  (342) 
5.643

>  <inchikey>  (342) 
WYZFZXOCWVLSAI-UHFFFAOYSA-N

>  <exports>  (342) 
['/opt/xchem-fragalysis-2/maxwin/BulkDock/OUTPUTS/openbind_a71ev2a_c2_elabs_1LOUU54.sdf', '/opt/xchem-fragalysis-2/maxwin/BulkDock/OUTPUTS/openbind_a71ev2a_c2_elabs_1LSYIDY.sdf']

>  <name>  (342) 
P545335

>  <ref_pdb>  (342) 
A0884a

>  <subsites>  (342) 
None

>  <HIPPO Pose ID>  (342) 
545335

>  <ref_mols>  (342) 
A0884a

>  <HIPPO Compound ID>  (342) 
383782

>  <tags>  (342) 
openbind_a71ev2a_c2_elabs,syndirella_product,openbind_a71ev2a_c2_elabs_fragonly_scored_top80percent,BulkDock Fragalysis export,openbind_a71ev2a_c2_elabs_scored,openbind_a71ev2a_c2_elabs_scored_top80percent,openbind_a71ev2a_c2_elabs_activefrags_only_scored_5.2plus,openbind_a71ev2a_c2_elabs_activefrags_only_scored_5.5plus,syndirella_placed

>  <smina_score_min>  (342) 
-6.057

$$$$
P545336
     RDKit          3D

 20 21  0  0  0  0  0  0  0  0999 V2000
    8.3568   14.3455   24.8862 C   0  0  0  0  0  0  0  0  0  0  0  0
    8.5987   12.8875   24.6320 C   0  0  0  0  0  0  0  0  0  0  0  0
    7.7752   11.8917   25.1901 C   0  0  0  0  0  0  0  0  0  0  0  0
    6.7660   12.1031   26.1326 N   0  0  0  0  0  0  0  0  0  0  0  0
    6.6225   13.2009   27.2369 C   0  0  0  0  0  0  0  0  0  0  0  0
    7.3651   14.0431   27.5703 O   0  0  0  0  0  0  0  0  0  0  0  0
    5.2386   13.0248   27.8515 C   0  0  0  0  0  0  0  0  0  0  0  0
    5.2149   11.2374   28.9977 I   0  0  0  0  0  0  0  0  0  0  0  0
    7.9303   10.5586   24.7968 C   0  0  0  0  0  0  0  0  0  0  0  0
    8.9188   10.1902   23.8948 C   0  0  0  0  0  0  0  0  0  0  0  0
    9.7670   11.1521   23.3792 C   0  0  0  0  0  0  0  0  0  0  0  0
    9.6404   12.4902   23.7583 C   0  0  0  0  0  0  0  0  0  0  0  0
   10.5479   13.4142   23.1627 N   0  0  0  0  0  0  0  0  0  0  0  0
   10.1461   14.0653   22.0114 C   0  0  0  0  0  0  0  0  0  0  0  0
    9.0296   13.9402   21.5140 O   0  0  0  0  0  0  0  0  0  0  0  0
   11.0946   15.0304   21.3832 C   0  0  0  0  0  0  0  0  0  0  0  0
   12.4925   14.5654   21.5919 C   0  0  0  0  0  0  0  0  0  0  0  0
   12.6975   14.2985   22.9823 N   0  0  0  0  0  0  0  0  0  0  0  0
   11.8103   13.5630   23.7112 C   0  0  0  0  0  0  0  0  0  0  0  0
   12.1726   13.1156   24.7957 O   0  0  0  0  0  0  0  0  0  0  0  0
  1  2  1  0
  2  3  2  0
  3  4  1  0
  4  5  1  0
  5  6  2  0
  5  7  1  0
  7  8  1  0
  3  9  1  0
  9 10  2  0
 10 11  1  0
 11 12  2  0
 12 13  1  0
 13 14  1  0
 14 15  2  0
 14 16  1  0
 16 17  1  0
 17 18  1  0
 18 19  1  0
 19 20  2  0
 12  2  1  0
 19 13  1  0
M  END
>  <alias>  (343) 
None

>  <rmsd(smina/fragmenstein)>  (343) 
0.487

>  <smiles>  (343) 
Cc1c(NC(=O)CI)cccc1N1C(=O)CCNC1=O

>  <gnina_score>  (343) 
5.201

>  <inspiration_score>  (343) 
None

>  <energy_score>  (343) 
-25.808802

>  <distance_score>  (343) 
1.731084

>  <gnina_score_min>  (343) 
5.257

>  <inchikey>  (343) 
SZPQVJKBZXILDC-UHFFFAOYSA-N

>  <exports>  (343) 
['/opt/xchem-fragalysis-2/maxwin/BulkDock/OUTPUTS/openbind_a71ev2a_c2_elabs_1LOUU54.sdf', '/opt/xchem-fragalysis-2/maxwin/BulkDock/OUTPUTS/openbind_a71ev2a_c2_elabs_1LSYIDY.sdf']

>  <name>  (343) 
P545336

>  <ref_pdb>  (343) 
A0884a

>  <subsites>  (343) 
None

>  <HIPPO Pose ID>  (343) 
545336

>  <ref_mols>  (343) 
A0884a

>  <HIPPO Compound ID>  (343) 
383783

>  <tags>  (343) 
openbind_a71ev2a_c2_elabs,syndirella_product,openbind_a71ev2a_c2_elabs_fragonly_scored_top80percent,openbind_a71ev2a_c2_elabs_scored,BulkDock Fragalysis export,openbind_a71ev2a_c2_elabs_scored_top80percent,openbind_a71ev2a_c2_elabs_activefrags_only_scored_5.2plus,syndirella_placed

>  <smina_score_min>  (343) 
-6.939

$$$$
P545337
     RDKit          3D

 21 22  0  0  0  0  0  0  0  0999 V2000
    5.9028   13.2112   30.4730 C   0  0  0  0  0  0  0  0  0  0  0  0
    4.8994   13.3747   29.3360 C   0  0  0  0  0  0  0  0  0  0  0  0
    5.1891   12.5430   28.0809 C   0  0  2  0  0  0  0  0  0  0  0  0
    5.2904   10.7937   28.4653 Cl  0  0  0  0  0  0  0  0  0  0  0  0
    6.4534   12.9945   27.3213 C   0  0  0  0  0  0  0  0  0  0  0  0
    7.0409   13.9739   27.5826 O   0  0  0  0  0  0  0  0  0  0  0  0
    6.6601   11.9687   26.1576 N   0  0  0  0  0  0  0  0  0  0  0  0
    7.6547   11.8971   25.1765 C   0  0  0  0  0  0  0  0  0  0  0  0
    7.9688   10.5921   24.7700 C   0  0  0  0  0  0  0  0  0  0  0  0
    8.9918   10.3465   23.8643 C   0  0  0  0  0  0  0  0  0  0  0  0
    9.7033   11.4148   23.3462 C   0  0  0  0  0  0  0  0  0  0  0  0
    9.3870   12.7314   23.7073 C   0  0  0  0  0  0  0  0  0  0  0  0
   10.1721   13.7782   23.1318 N   0  0  0  0  0  0  0  0  0  0  0  0
    9.7293   14.2570   21.8194 C   0  0  0  0  0  0  0  0  0  0  0  0
   10.6646   15.2345   21.1393 C   0  0  0  0  0  0  0  0  0  0  0  0
   12.0821   14.7592   21.3192 C   0  0  0  0  0  0  0  0  0  0  0  0
   12.3595   14.4958   22.7001 N   0  0  0  0  0  0  0  0  0  0  0  0
   11.4928   13.8712   23.5430 C   0  0  0  0  0  0  0  0  0  0  0  0
   11.9145   13.4514   24.6198 O   0  0  0  0  0  0  0  0  0  0  0  0
    8.3277   12.9946   24.6045 C   0  0  0  0  0  0  0  0  0  0  0  0
    7.9420   14.4149   24.9029 C   0  0  0  0  0  0  0  0  0  0  0  0
  1  2  1  0
  2  3  1  0
  3  4  1  1
  3  5  1  0
  5  6  2  0
  5  7  1  0
  7  8  1  0
  8  9  2  0
  9 10  1  0
 10 11  2  0
 11 12  1  0
 12 13  1  0
 13 14  1  0
 14 15  1  0
 15 16  1  0
 16 17  1  0
 17 18  1  0
 18 19  2  0
 12 20  2  0
 20 21  1  0
 20  8  1  0
 18 13  1  0
M  END
>  <alias>  (344) 
None

>  <rmsd(smina/fragmenstein)>  (344) 
0.45

>  <smiles>  (344) 
CC[C@H](Cl)C(=O)Nc1cccc(N2CCCNC2=O)c1C

>  <gnina_score>  (344) 
5.215

>  <inspiration_score>  (344) 
None

>  <energy_score>  (344) 
-24.869048

>  <distance_score>  (344) 
1.067196

>  <gnina_score_min>  (344) 
5.272

>  <inchikey>  (344) 
DGELUSAMOKAVFP-NSHDSACASA-N

>  <exports>  (344) 
['/opt/xchem-fragalysis-2/maxwin/BulkDock/OUTPUTS/openbind_a71ev2a_c2_elabs_1LOUU54.sdf', '/opt/xchem-fragalysis-2/maxwin/BulkDock/OUTPUTS/openbind_a71ev2a_c2_elabs_1LSYIDY.sdf']

>  <name>  (344) 
P545337

>  <ref_pdb>  (344) 
A0884a

>  <subsites>  (344) 
None

>  <HIPPO Pose ID>  (344) 
545337

>  <ref_mols>  (344) 
A0884a

>  <HIPPO Compound ID>  (344) 
383784

>  <tags>  (344) 
openbind_a71ev2a_c2_elabs,syndirella_product,openbind_a71ev2a_c2_elabs_fragonly_scored_top80percent,openbind_a71ev2a_c2_elabs_scored,BulkDock Fragalysis export,openbind_a71ev2a_c2_elabs_scored_top80percent,openbind_a71ev2a_c2_elabs_activefrags_only_scored_5.2plus,syndirella_placed

>  <smina_score_min>  (344) 
-6.574

$$$$
P545339
     RDKit          3D

 21 22  0  0  0  0  0  0  0  0999 V2000
    5.6734   14.3667   30.2690 C   0  0  0  0  0  0  0  0  0  0  0  0
    6.5911   14.0893   29.0866 C   0  0  0  0  0  0  0  0  0  0  0  0
    6.0638   14.6533   27.7636 C   0  0  2  0  0  0  0  0  0  0  0  0
    4.5672   13.8039   27.2570 Cl  0  0  0  0  0  0  0  0  0  0  0  0
    7.1613   14.5394   26.6885 C   0  0  0  0  0  0  0  0  0  0  0  0
    7.9261   15.4082   26.4993 O   0  0  0  0  0  0  0  0  0  0  0  0
    7.0827   13.1050   26.0673 N   0  0  0  0  0  0  0  0  0  0  0  0
    7.9517   12.4464   25.1947 C   0  0  0  0  0  0  0  0  0  0  0  0
    7.7474   11.0796   24.9856 C   0  0  0  0  0  0  0  0  0  0  0  0
    8.5976   10.3600   24.1407 C   0  0  0  0  0  0  0  0  0  0  0  0
    9.6316   10.9975   23.4623 C   0  0  0  0  0  0  0  0  0  0  0  0
    9.8460   12.3565   23.6700 C   0  0  0  0  0  0  0  0  0  0  0  0
   10.8784   13.0211   22.9784 N   0  0  0  0  0  0  0  0  0  0  0  0
   11.9379   13.5692   23.6564 C   0  0  0  0  0  0  0  0  0  0  0  0
   12.3636   13.2404   24.7578 O   0  0  0  0  0  0  0  0  0  0  0  0
   12.4591   14.7530   22.8701 C   0  0  0  0  0  0  0  0  0  0  0  0
   11.5907   14.7620   21.7560 N   0  0  0  0  0  0  0  0  0  0  0  0
   10.5535   13.9033   21.9887 C   0  0  0  0  0  0  0  0  0  0  0  0
    9.4797   14.0468   21.4333 O   0  0  0  0  0  0  0  0  0  0  0  0
    9.0118   13.0723   24.5376 C   0  0  0  0  0  0  0  0  0  0  0  0
    9.2582   14.3777   24.7065 F   0  0  0  0  0  0  0  0  0  0  0  0
  1  2  1  0
  2  3  1  0
  3  4  1  6
  3  5  1  0
  5  6  2  0
  5  7  1  0
  7  8  1  0
  8  9  2  0
  9 10  1  0
 10 11  2  0
 11 12  1  0
 12 13  1  0
 13 14  1  0
 14 15  2  0
 14 16  1  0
 16 17  1  0
 17 18  1  0
 18 19  2  0
 12 20  2  0
 20 21  1  0
 20  8  1  0
 18 13  1  0
M  END
>  <alias>  (345) 
None

>  <rmsd(smina/fragmenstein)>  (345) 
0.735

>  <smiles>  (345) 
CC[C@H](Cl)C(=O)Nc1cccc(N2C(=O)CNC2=O)c1F

>  <gnina_score>  (345) 
5.349

>  <inspiration_score>  (345) 
None

>  <energy_score>  (345) 
-26.567191

>  <distance_score>  (345) 
1.982325

>  <gnina_score_min>  (345) 
5.36

>  <inchikey>  (345) 
QZGULNLCRQXLNG-ZETCQYMHSA-N

>  <exports>  (345) 
['/opt/xchem-fragalysis-2/maxwin/BulkDock/OUTPUTS/openbind_a71ev2a_c2_elabs_1LOUU54.sdf', '/opt/xchem-fragalysis-2/maxwin/BulkDock/OUTPUTS/openbind_a71ev2a_c2_elabs_1LSYIDY.sdf']

>  <name>  (345) 
P545339

>  <ref_pdb>  (345) 
A0884a

>  <subsites>  (345) 
None

>  <HIPPO Pose ID>  (345) 
545339

>  <ref_mols>  (345) 
A0884a

>  <HIPPO Compound ID>  (345) 
383785

>  <tags>  (345) 
openbind_a71ev2a_c2_elabs,syndirella_product,openbind_a71ev2a_c2_elabs_fragonly_scored_top80percent,openbind_a71ev2a_c2_elabs_scored,BulkDock Fragalysis export,openbind_a71ev2a_c2_elabs_scored_top80percent,openbind_a71ev2a_c2_elabs_activefrags_only_scored_5.2plus,syndirella_placed

>  <smina_score_min>  (345) 
-6.24

$$$$
P545343
     RDKit          3D

 21 22  0  0  0  0  0  0  0  0999 V2000
    4.2801   11.5206   30.1439 C   0  0  0  0  0  0  0  0  0  0  0  0
    3.6079   11.9950   28.8597 C   0  0  0  0  0  0  0  0  0  0  0  0
    4.5280   12.6865   27.8461 C   0  0  1  0  0  0  0  0  0  0  0  0
    5.3814   14.0800   28.5754 Cl  0  0  0  0  0  0  0  0  0  0  0  0
    5.5528   11.7360   27.1911 C   0  0  0  0  0  0  0  0  0  0  0  0
    5.6006   10.5876   27.4143 O   0  0  0  0  0  0  0  0  0  0  0  0
    6.3949   12.6117   26.2088 N   0  0  0  0  0  0  0  0  0  0  0  0
    7.3639   12.2456   25.2702 C   0  0  0  0  0  0  0  0  0  0  0  0
    7.6715   10.8951   25.0756 C   0  0  0  0  0  0  0  0  0  0  0  0
    8.6974   10.5235   24.2118 C   0  0  0  0  0  0  0  0  0  0  0  0
    9.4478   11.5058   23.5865 C   0  0  0  0  0  0  0  0  0  0  0  0
   10.4304   11.1277   22.7661 F   0  0  0  0  0  0  0  0  0  0  0  0
    9.1696   12.8649   23.7662 C   0  0  0  0  0  0  0  0  0  0  0  0
   10.0464   13.8509   23.2408 N   0  0  0  0  0  0  0  0  0  0  0  0
    9.9231   14.2991   21.8674 C   0  0  0  0  0  0  0  0  0  0  0  0
   11.2931   14.8602   21.5154 C   0  0  0  0  0  0  0  0  0  0  0  0
   12.1439   14.3847   22.5640 N   0  0  0  0  0  0  0  0  0  0  0  0
   11.4094   13.8275   23.5923 C   0  0  0  0  0  0  0  0  0  0  0  0
   11.8810   13.4411   24.6500 O   0  0  0  0  0  0  0  0  0  0  0  0
    8.0650   13.2456   24.5568 C   0  0  0  0  0  0  0  0  0  0  0  0
    7.6995   14.7003   24.6883 C   0  0  0  0  0  0  0  0  0  0  0  0
  1  2  1  0
  2  3  1  0
  3  4  1  1
  3  5  1  0
  5  6  2  0
  5  7  1  0
  7  8  1  0
  8  9  2  0
  9 10  1  0
 10 11  2  0
 11 12  1  0
 11 13  1  0
 13 14  1  0
 14 15  1  0
 15 16  1  0
 16 17  1  0
 17 18  1  0
 18 19  2  0
 13 20  2  0
 20 21  1  0
 20  8  1  0
 18 14  1  0
M  END
>  <alias>  (346) 
None

>  <rmsd(smina/fragmenstein)>  (346) 
0.725

>  <smiles>  (346) 
CC[C@@H](Cl)C(=O)Nc1ccc(F)c(N2CCNC2=O)c1C

>  <gnina_score>  (346) 
5.284

>  <inspiration_score>  (346) 
None

>  <energy_score>  (346) 
-33.807394

>  <distance_score>  (346) 
1.208692

>  <gnina_score_min>  (346) 
5.296

>  <inchikey>  (346) 
SUSMEMPWRLDXTE-SECBINFHSA-N

>  <exports>  (346) 
['/opt/xchem-fragalysis-2/maxwin/BulkDock/OUTPUTS/openbind_a71ev2a_c2_elabs_1LOUU54.sdf', '/opt/xchem-fragalysis-2/maxwin/BulkDock/OUTPUTS/openbind_a71ev2a_c2_elabs_1LSYIDY.sdf']

>  <name>  (346) 
P545343

>  <ref_pdb>  (346) 
A0884a

>  <subsites>  (346) 
None

>  <HIPPO Pose ID>  (346) 
545343

>  <ref_mols>  (346) 
A0884a

>  <HIPPO Compound ID>  (346) 
383788

>  <tags>  (346) 
openbind_a71ev2a_c2_elabs,syndirella_product,openbind_a71ev2a_c2_elabs_fragonly_scored_top80percent,openbind_a71ev2a_c2_elabs_scored,BulkDock Fragalysis export,openbind_a71ev2a_c2_elabs_scored_top80percent,openbind_a71ev2a_c2_elabs_activefrags_only_scored_5.2plus,syndirella_placed

>  <smina_score_min>  (346) 
-5.902

$$$$
P545344
     RDKit          3D

 21 22  0  0  0  0  0  0  0  0999 V2000
    5.3161   11.0147   28.9495 C   0  0  0  0  0  0  0  0  0  0  0  0
    5.5207   12.3146   28.6975 C   0  0  0  0  0  0  0  0  0  0  0  0
    5.0015   13.0464   27.4916 C   0  0  0  0  0  0  0  0  0  0  0  0
    6.1614   13.5434   26.6230 C   0  0  0  0  0  0  0  0  0  0  0  0
    6.4775   14.6673   26.5557 O   0  0  0  0  0  0  0  0  0  0  0  0
    6.7709   12.2798   25.9408 N   0  0  0  0  0  0  0  0  0  0  0  0
    7.7908   12.1641   25.0029 C   0  0  0  0  0  0  0  0  0  0  0  0
    8.1941   10.8767   24.6357 C   0  0  0  0  0  0  0  0  0  0  0  0
    9.2538   10.7305   23.7525 C   0  0  0  0  0  0  0  0  0  0  0  0
    9.9396    9.0817   23.2273 Br  0  0  0  0  0  0  0  0  0  0  0  0
    9.8904   11.8309   23.2242 C   0  0  0  0  0  0  0  0  0  0  0  0
    9.4827   13.1087   23.5742 C   0  0  0  0  0  0  0  0  0  0  0  0
   10.1675   14.1970   22.9712 N   0  0  0  0  0  0  0  0  0  0  0  0
    9.6213   14.5766   21.6604 C   0  0  0  0  0  0  0  0  0  0  0  0
   10.5476   15.3901   20.7976 C   0  0  0  0  0  0  0  0  0  0  0  0
   11.9302   14.8443   20.9654 C   0  0  0  0  0  0  0  0  0  0  0  0
   12.6452   14.4740   20.0407 O   0  0  0  0  0  0  0  0  0  0  0  0
   12.3316   14.8051   22.2689 N   0  0  0  0  0  0  0  0  0  0  0  0
   11.5370   14.2539   23.2290 C   0  0  0  0  0  0  0  0  0  0  0  0
   12.0487   13.7913   24.2508 O   0  0  0  0  0  0  0  0  0  0  0  0
    8.4267   13.2881   24.4623 C   0  0  0  0  0  0  0  0  0  0  0  0
  1  2  2  0
  2  3  1  0
  3  4  1  0
  4  5  2  0
  4  6  1  0
  6  7  1  0
  7  8  2  0
  8  9  1  0
  9 10  1  0
  9 11  2  0
 11 12  1  0
 12 13  1  0
 13 14  1  0
 14 15  1  0
 15 16  1  0
 16 17  2  0
 16 18  1  0
 18 19  1  0
 19 20  2  0
 12 21  2  0
 21  7  1  0
 19 13  1  0
M  END
>  <alias>  (347) 
None

>  <rmsd(smina/fragmenstein)>  (347) 
0.695

>  <smiles>  (347) 
C=CCC(=O)Nc1cc(Br)cc(N2CCC(=O)NC2=O)c1

>  <gnina_score>  (347) 
5.647

>  <inspiration_score>  (347) 
None

>  <energy_score>  (347) 
-8.301422

>  <distance_score>  (347) 
1.213933

>  <gnina_score_min>  (347) 
5.618

>  <inchikey>  (347) 
AFBFHGJLQZTXDI-UHFFFAOYSA-N

>  <exports>  (347) 
['/opt/xchem-fragalysis-2/maxwin/BulkDock/OUTPUTS/openbind_a71ev2a_c2_elabs_1LOUU54.sdf', '/opt/xchem-fragalysis-2/maxwin/BulkDock/OUTPUTS/openbind_a71ev2a_c2_elabs_1LSYIDY.sdf']

>  <name>  (347) 
P545344

>  <ref_pdb>  (347) 
A0884a

>  <subsites>  (347) 
None

>  <HIPPO Pose ID>  (347) 
545344

>  <ref_mols>  (347) 
A0884a

>  <HIPPO Compound ID>  (347) 
383791

>  <tags>  (347) 
openbind_a71ev2a_c2_elabs,syndirella_product,openbind_a71ev2a_c2_elabs_fragonly_scored_top80percent,BulkDock Fragalysis export,openbind_a71ev2a_c2_elabs_scored,openbind_a71ev2a_c2_elabs_scored_top80percent,openbind_a71ev2a_c2_elabs_activefrags_only_scored_5.2plus,openbind_a71ev2a_c2_elabs_activefrags_only_scored_5.5plus,syndirella_placed

>  <smina_score_min>  (347) 
-6.188

$$$$
P545345
     RDKit          3D

 21 22  0  0  0  0  0  0  0  0999 V2000
    5.5003   14.3814   29.2591 C   0  0  0  0  0  0  0  0  0  0  0  0
    5.0241   14.9705   27.9377 C   0  0  0  0  0  0  0  0  0  0  0  0
    4.2828   13.9453   27.0776 C   0  0  1  0  0  0  0  0  0  0  0  0
    3.6198   14.7357   25.6159 Cl  0  0  0  0  0  0  0  0  0  0  0  0
    5.1665   12.7594   26.6498 C   0  0  0  0  0  0  0  0  0  0  0  0
    5.0182   11.6872   27.1006 O   0  0  0  0  0  0  0  0  0  0  0  0
    6.2531   13.3027   25.6687 N   0  0  0  0  0  0  0  0  0  0  0  0
    7.2769   12.6405   24.9984 C   0  0  0  0  0  0  0  0  0  0  0  0
    7.4652   11.2617   25.1132 C   0  0  0  0  0  0  0  0  0  0  0  0
    8.5173   10.6485   24.4343 C   0  0  0  0  0  0  0  0  0  0  0  0
    9.4058   11.4226   23.6976 C   0  0  0  0  0  0  0  0  0  0  0  0
   10.3961   10.8038   23.0494 F   0  0  0  0  0  0  0  0  0  0  0  0
    9.2386   12.8053   23.5834 C   0  0  0  0  0  0  0  0  0  0  0  0
   10.1868   13.6009   22.8838 N   0  0  0  0  0  0  0  0  0  0  0  0
    9.7138   14.3926   21.7480 C   0  0  0  0  0  0  0  0  0  0  0  0
   10.7664   15.2279   21.0415 C   0  0  0  0  0  0  0  0  0  0  0  0
   12.1452   14.6611   21.2511 C   0  0  0  0  0  0  0  0  0  0  0  0
   12.3652   14.3875   22.6392 N   0  0  0  0  0  0  0  0  0  0  0  0
   11.4624   13.7193   23.4080 C   0  0  0  0  0  0  0  0  0  0  0  0
   11.8015   13.3089   24.5167 O   0  0  0  0  0  0  0  0  0  0  0  0
    8.1443   13.4051   24.2102 C   0  0  0  0  0  0  0  0  0  0  0  0
  1  2  1  0
  2  3  1  0
  3  4  1  6
  3  5  1  0
  5  6  2  0
  5  7  1  0
  7  8  1  0
  8  9  2  0
  9 10  1  0
 10 11  2  0
 11 12  1  0
 11 13  1  0
 13 14  1  0
 14 15  1  0
 15 16  1  0
 16 17  1  0
 17 18  1  0
 18 19  1  0
 19 20  2  0
 13 21  2  0
 21  8  1  0
 19 14  1  0
M  END
>  <alias>  (348) 
None

>  <rmsd(smina/fragmenstein)>  (348) 
0.371

>  <smiles>  (348) 
CC[C@@H](Cl)C(=O)Nc1ccc(F)c(N2CCCNC2=O)c1

>  <gnina_score>  (348) 
5.292

>  <inspiration_score>  (348) 
None

>  <energy_score>  (348) 
-31.887459

>  <distance_score>  (348) 
1.263676

>  <gnina_score_min>  (348) 
5.4

>  <inchikey>  (348) 
JXXHCTJUDFPNNR-SNVBAGLBSA-N

>  <exports>  (348) 
['/opt/xchem-fragalysis-2/maxwin/BulkDock/OUTPUTS/openbind_a71ev2a_c2_elabs_1LOUU54.sdf', '/opt/xchem-fragalysis-2/maxwin/BulkDock/OUTPUTS/openbind_a71ev2a_c2_elabs_1LSYIDY.sdf']

>  <name>  (348) 
P545345

>  <ref_pdb>  (348) 
A0884a

>  <subsites>  (348) 
None

>  <HIPPO Pose ID>  (348) 
545345

>  <ref_mols>  (348) 
A0884a

>  <HIPPO Compound ID>  (348) 
383793

>  <tags>  (348) 
openbind_a71ev2a_c2_elabs,syndirella_product,openbind_a71ev2a_c2_elabs_fragonly_scored_top80percent,openbind_a71ev2a_c2_elabs_scored,BulkDock Fragalysis export,openbind_a71ev2a_c2_elabs_scored_top80percent,openbind_a71ev2a_c2_elabs_activefrags_only_scored_5.2plus,syndirella_placed

>  <smina_score_min>  (348) 
-6.444

$$$$
P545349
     RDKit          3D

 21 22  0  0  0  0  0  0  0  0999 V2000
    5.7982   13.9477   30.2675 C   0  0  0  0  0  0  0  0  0  0  0  0
    5.4627   14.3481   29.1863 C   0  0  0  0  0  0  0  0  0  0  0  0
    5.0506   14.8405   27.8628 C   0  0  0  0  0  0  0  0  0  0  0  0
    4.3144   13.7751   27.0585 C   0  0  0  0  0  0  0  0  0  0  0  0
    5.2087   12.6000   26.6764 C   0  0  0  0  0  0  0  0  0  0  0  0
    5.0872   11.5339   27.1435 O   0  0  0  0  0  0  0  0  0  0  0  0
    6.1991   13.1198   25.5908 N   0  0  0  0  0  0  0  0  0  0  0  0
    7.2583   12.4821   24.9567 C   0  0  0  0  0  0  0  0  0  0  0  0
    7.5137   11.1230   25.1257 C   0  0  0  0  0  0  0  0  0  0  0  0
    8.5818   10.5352   24.4500 C   0  0  0  0  0  0  0  0  0  0  0  0
    9.4276   11.3174   23.6722 C   0  0  0  0  0  0  0  0  0  0  0  0
   10.4139   10.7107   23.0104 F   0  0  0  0  0  0  0  0  0  0  0  0
    9.1954   12.6800   23.5005 C   0  0  0  0  0  0  0  0  0  0  0  0
   10.0332   13.4702   22.6916 N   0  0  0  0  0  0  0  0  0  0  0  0
   11.3952   13.5793   22.8422 C   0  0  0  0  0  0  0  0  0  0  0  0
   12.1130   13.0401   23.6730 O   0  0  0  0  0  0  0  0  0  0  0  0
   11.8990   14.6305   21.8771 C   0  0  0  0  0  0  0  0  0  0  0  0
   10.6714   15.0849   21.2936 N   0  0  0  0  0  0  0  0  0  0  0  0
    9.5861   14.4179   21.8081 C   0  0  0  0  0  0  0  0  0  0  0  0
    8.4312   14.6694   21.4963 O   0  0  0  0  0  0  0  0  0  0  0  0
    8.0756   13.2471   24.1201 C   0  0  0  0  0  0  0  0  0  0  0  0
  1  2  3  0
  2  3  1  0
  3  4  1  0
  4  5  1  0
  5  6  2  0
  5  7  1  0
  7  8  1  0
  8  9  2  0
  9 10  1  0
 10 11  2  0
 11 12  1  0
 11 13  1  0
 13 14  1  0
 14 15  1  0
 15 16  2  0
 15 17  1  0
 17 18  1  0
 18 19  1  0
 19 20  2  0
 13 21  2  0
 21  8  1  0
 19 14  1  0
M  END
>  <alias>  (349) 
None

>  <rmsd(smina/fragmenstein)>  (349) 
0.473

>  <smiles>  (349) 
C#CCCC(=O)Nc1ccc(F)c(N2C(=O)CNC2=O)c1

>  <gnina_score>  (349) 
5.2

>  <inspiration_score>  (349) 
None

>  <energy_score>  (349) 
-35.177027

>  <distance_score>  (349) 
1.465981

>  <gnina_score_min>  (349) 
5.27

>  <inchikey>  (349) 
RMFQABMZXHRJLS-UHFFFAOYSA-N

>  <exports>  (349) 
['/opt/xchem-fragalysis-2/maxwin/BulkDock/OUTPUTS/openbind_a71ev2a_c2_elabs_1LOUU54.sdf', '/opt/xchem-fragalysis-2/maxwin/BulkDock/OUTPUTS/openbind_a71ev2a_c2_elabs_1LSYIDY.sdf']

>  <name>  (349) 
P545349

>  <ref_pdb>  (349) 
A0884a

>  <subsites>  (349) 
None

>  <HIPPO Pose ID>  (349) 
545349

>  <ref_mols>  (349) 
A0884a

>  <HIPPO Compound ID>  (349) 
383800

>  <tags>  (349) 
openbind_a71ev2a_c2_elabs,syndirella_product,openbind_a71ev2a_c2_elabs_fragonly_scored_top80percent,openbind_a71ev2a_c2_elabs_scored,BulkDock Fragalysis export,openbind_a71ev2a_c2_elabs_scored_top80percent,openbind_a71ev2a_c2_elabs_activefrags_only_scored_5.2plus,syndirella_placed

>  <smina_score_min>  (349) 
-5.995

$$$$
P545351
     RDKit          3D

 21 22  0  0  0  0  0  0  0  0999 V2000
    4.0562   13.3385   29.7167 C   0  0  0  0  0  0  0  0  0  0  0  0
    3.5051   13.7620   28.3605 C   0  0  0  0  0  0  0  0  0  0  0  0
    4.6147   14.0457   27.3450 C   0  0  2  0  0  0  0  0  0  0  0  0
    3.9015   14.8488   25.9116 Cl  0  0  0  0  0  0  0  0  0  0  0  0
    5.3274   12.7711   26.8458 C   0  0  0  0  0  0  0  0  0  0  0  0
    4.9858   11.6869   27.1330 O   0  0  0  0  0  0  0  0  0  0  0  0
    6.5482   13.2573   25.9930 N   0  0  0  0  0  0  0  0  0  0  0  0
    7.4954   12.5317   25.2760 C   0  0  0  0  0  0  0  0  0  0  0  0
    7.4390   11.1392   25.1956 C   0  0  0  0  0  0  0  0  0  0  0  0
    8.3681   10.4480   24.4187 C   0  0  0  0  0  0  0  0  0  0  0  0
    9.3614   11.1447   23.7490 C   0  0  0  0  0  0  0  0  0  0  0  0
   10.2391   10.4571   23.0125 F   0  0  0  0  0  0  0  0  0  0  0  0
    9.4767   12.5274   23.8821 C   0  0  0  0  0  0  0  0  0  0  0  0
   10.5920   13.1660   23.3169 N   0  0  0  0  0  0  0  0  0  0  0  0
   11.4891   13.8936   24.0470 C   0  0  0  0  0  0  0  0  0  0  0  0
   11.5581   14.0010   25.2658 O   0  0  0  0  0  0  0  0  0  0  0  0
   12.3733   14.6570   23.0830 C   0  0  0  0  0  0  0  0  0  0  0  0
   11.7210   14.4139   21.8531 N   0  0  0  0  0  0  0  0  0  0  0  0
   10.5399   13.7643   22.0964 C   0  0  0  0  0  0  0  0  0  0  0  0
    9.5758   13.9073   21.3680 O   0  0  0  0  0  0  0  0  0  0  0  0
    8.5223   13.2267   24.6281 C   0  0  0  0  0  0  0  0  0  0  0  0
  1  2  1  0
  2  3  1  0
  3  4  1  6
  3  5  1  0
  5  6  2  0
  5  7  1  0
  7  8  1  0
  8  9  2  0
  9 10  1  0
 10 11  2  0
 11 12  1  0
 11 13  1  0
 13 14  1  0
 14 15  1  0
 15 16  2  0
 15 17  1  0
 17 18  1  0
 18 19  1  0
 19 20  2  0
 13 21  2  0
 21  8  1  0
 19 14  1  0
M  END
>  <alias>  (350) 
None

>  <rmsd(smina/fragmenstein)>  (350) 
1.134

>  <smiles>  (350) 
CC[C@H](Cl)C(=O)Nc1ccc(F)c(N2C(=O)CNC2=O)c1

>  <gnina_score>  (350) 
5.375

>  <inspiration_score>  (350) 
None

>  <energy_score>  (350) 
-19.211359

>  <distance_score>  (350) 
1.602054

>  <gnina_score_min>  (350) 
5.287

>  <inchikey>  (350) 
OZNDYQNEXVOKEL-QMMMGPOBSA-N

>  <exports>  (350) 
['/opt/xchem-fragalysis-2/maxwin/BulkDock/OUTPUTS/openbind_a71ev2a_c2_elabs_1LOUU54.sdf', '/opt/xchem-fragalysis-2/maxwin/BulkDock/OUTPUTS/openbind_a71ev2a_c2_elabs_1LSYIDY.sdf']

>  <name>  (350) 
P545351

>  <ref_pdb>  (350) 
A0884a

>  <subsites>  (350) 
None

>  <HIPPO Pose ID>  (350) 
545351

>  <ref_mols>  (350) 
A0884a

>  <HIPPO Compound ID>  (350) 
383807

>  <tags>  (350) 
openbind_a71ev2a_c2_elabs,syndirella_product,openbind_a71ev2a_c2_elabs_fragonly_scored_top80percent,openbind_a71ev2a_c2_elabs_scored,BulkDock Fragalysis export,openbind_a71ev2a_c2_elabs_scored_top80percent,openbind_a71ev2a_c2_elabs_activefrags_only_scored_5.2plus,syndirella_placed

>  <smina_score_min>  (350) 
-6.455

$$$$
P545352
     RDKit          3D

 21 22  0  0  0  0  0  0  0  0999 V2000
   13.1301   15.5887   21.5322 O   0  0  0  0  0  0  0  0  0  0  0  0
   12.2396   14.9835   22.1060 C   0  0  0  0  0  0  0  0  0  0  0  0
   12.4268   14.1668   23.3404 C   0  0  0  0  0  0  0  0  0  0  0  0
   11.6024   12.9301   23.1538 C   0  0  0  0  0  0  0  0  0  0  0  0
   10.2192   13.3047   23.0515 N   0  0  0  0  0  0  0  0  0  0  0  0
    9.2218   12.5260   23.6817 C   0  0  0  0  0  0  0  0  0  0  0  0
    9.3500   11.1454   23.8049 C   0  0  0  0  0  0  0  0  0  0  0  0
    8.3953   10.4396   24.5206 C   0  0  0  0  0  0  0  0  0  0  0  0
    8.4853    9.1090   24.5740 F   0  0  0  0  0  0  0  0  0  0  0  0
    7.3454   11.0763   25.1709 C   0  0  0  0  0  0  0  0  0  0  0  0
    7.1909   12.4474   25.0171 C   0  0  0  0  0  0  0  0  0  0  0  0
    6.1320   13.1417   25.5910 N   0  0  0  0  0  0  0  0  0  0  0  0
    5.0769   12.6873   26.6459 C   0  0  0  0  0  0  0  0  0  0  0  0
    4.8940   11.6390   27.1316 O   0  0  0  0  0  0  0  0  0  0  0  0
    4.2171   13.9188   26.9181 C   0  0  0  0  0  0  0  0  0  0  0  0
    3.1172   13.6637   27.9418 C   0  0  0  0  0  0  0  0  0  0  0  0
    3.7770   13.4831   29.6298 S   0  0  0  0  0  0  0  0  0  0  0  0
    8.1097   13.1629   24.2477 C   0  0  0  0  0  0  0  0  0  0  0  0
    9.9124   14.3053   22.1527 C   0  0  0  0  0  0  0  0  0  0  0  0
    8.7869   14.5584   21.7519 O   0  0  0  0  0  0  0  0  0  0  0  0
   10.9495   15.0485   21.6849 N   0  0  0  0  0  0  0  0  0  0  0  0
  1  2  2  0
  2  3  1  0
  3  4  1  0
  4  5  1  0
  5  6  1  0
  6  7  2  0
  7  8  1  0
  8  9  1  0
  8 10  2  0
 10 11  1  0
 11 12  1  0
 12 13  1  0
 13 14  2  0
 13 15  1  0
 15 16  1  0
 16 17  1  0
 11 18  2  0
  5 19  1  0
 19 20  2  0
 19 21  1  0
 21  2  1  0
 18  6  1  0
M  END
>  <alias>  (351) 
None

>  <rmsd(smina/fragmenstein)>  (351) 
2.416

>  <smiles>  (351) 
O=C1CCN(c2cc(F)cc(NC(=O)CCS)c2)C(=O)N1

>  <gnina_score>  (351) 
5.413

>  <inspiration_score>  (351) 
None

>  <energy_score>  (351) 
-51.341477

>  <distance_score>  (351) 
1.830604

>  <gnina_score_min>  (351) 
5.424

>  <inchikey>  (351) 
IKMUSPZGPMKNRT-UHFFFAOYSA-N

>  <exports>  (351) 
['/opt/xchem-fragalysis-2/maxwin/BulkDock/OUTPUTS/openbind_a71ev2a_c2_elabs_1LOUU54.sdf', '/opt/xchem-fragalysis-2/maxwin/BulkDock/OUTPUTS/openbind_a71ev2a_c2_elabs_1LSYIDY.sdf']

>  <name>  (351) 
P545352

>  <ref_pdb>  (351) 
A0884a

>  <subsites>  (351) 
None

>  <HIPPO Pose ID>  (351) 
545352

>  <ref_mols>  (351) 
A0884a

>  <HIPPO Compound ID>  (351) 
383808

>  <tags>  (351) 
openbind_a71ev2a_c2_elabs,syndirella_product,openbind_a71ev2a_c2_elabs_fragonly_scored_top80percent,openbind_a71ev2a_c2_elabs_scored,BulkDock Fragalysis export,openbind_a71ev2a_c2_elabs_scored_top80percent,openbind_a71ev2a_c2_elabs_activefrags_only_scored_5.2plus,syndirella_placed

>  <smina_score_min>  (351) 
-6.593

$$$$
P545354
     RDKit          3D

 21 22  0  0  0  0  0  0  0  0999 V2000
    7.6715   14.5293   24.2199 C   0  0  0  0  0  0  0  0  0  0  0  0
    8.1205   13.0922   24.2043 C   0  0  0  0  0  0  0  0  0  0  0  0
    7.4191   12.1500   24.9932 C   0  0  0  0  0  0  0  0  0  0  0  0
    6.3522   12.5697   25.7932 N   0  0  0  0  0  0  0  0  0  0  0  0
    5.5878   11.8265   26.9378 C   0  0  0  0  0  0  0  0  0  0  0  0
    5.6881   10.7258   27.3270 O   0  0  0  0  0  0  0  0  0  0  0  0
    4.6075   12.8608   27.5354 C   0  0  2  0  0  0  0  0  0  0  0  0
    5.3512   13.8153   28.4608 C   0  0  0  0  0  0  0  0  0  0  0  0
    3.2699   12.0224   28.4616 S   0  0  0  0  0  0  0  0  0  0  0  0
    7.7884   10.8056   24.9803 C   0  0  0  0  0  0  0  0  0  0  0  0
    8.8551   10.3784   24.1979 C   0  0  0  0  0  0  0  0  0  0  0  0
    9.6047   11.3038   23.4846 C   0  0  0  0  0  0  0  0  0  0  0  0
    9.2660   12.6630   23.4918 C   0  0  0  0  0  0  0  0  0  0  0  0
   10.1219   13.5549   22.7677 N   0  0  0  0  0  0  0  0  0  0  0  0
    9.6173   14.1930   21.6305 C   0  0  0  0  0  0  0  0  0  0  0  0
    8.4583   14.0616   21.2226 O   0  0  0  0  0  0  0  0  0  0  0  0
   10.5504   15.1405   20.9176 C   0  0  0  0  0  0  0  0  0  0  0  0
   11.9817   14.7260   21.1208 C   0  0  0  0  0  0  0  0  0  0  0  0
   12.2409   14.5250   22.5111 N   0  0  0  0  0  0  0  0  0  0  0  0
   11.4154   13.7388   23.2513 C   0  0  0  0  0  0  0  0  0  0  0  0
   11.8615   13.3052   24.3095 O   0  0  0  0  0  0  0  0  0  0  0  0
  1  2  1  0
  2  3  2  0
  3  4  1  0
  4  5  1  0
  5  6  2  0
  5  7  1  0
  7  8  1  1
  7  9  1  0
  3 10  1  0
 10 11  2  0
 11 12  1  0
 12 13  2  0
 13 14  1  0
 14 15  1  0
 15 16  2  0
 15 17  1  0
 17 18  1  0
 18 19  1  0
 19 20  1  0
 20 21  2  0
 13  2  1  0
 20 14  1  0
M  END
>  <alias>  (352) 
None

>  <rmsd(smina/fragmenstein)>  (352) 
0.47

>  <smiles>  (352) 
Cc1c(NC(=O)[C@H](C)S)cccc1N1C(=O)CCNC1=O

>  <gnina_score>  (352) 
5.311

>  <inspiration_score>  (352) 
None

>  <energy_score>  (352) 
-42.874464

>  <distance_score>  (352) 
1.354966

>  <gnina_score_min>  (352) 
5.269

>  <inchikey>  (352) 
IQVIBSWYZGKLAO-VIFPVBQESA-N

>  <exports>  (352) 
['/opt/xchem-fragalysis-2/maxwin/BulkDock/OUTPUTS/openbind_a71ev2a_c2_elabs_1LOUU54.sdf', '/opt/xchem-fragalysis-2/maxwin/BulkDock/OUTPUTS/openbind_a71ev2a_c2_elabs_1LSYIDY.sdf']

>  <name>  (352) 
P545354

>  <ref_pdb>  (352) 
A0884a

>  <subsites>  (352) 
None

>  <HIPPO Pose ID>  (352) 
545354

>  <ref_mols>  (352) 
A0884a

>  <HIPPO Compound ID>  (352) 
383809

>  <tags>  (352) 
openbind_a71ev2a_c2_elabs,syndirella_product,openbind_a71ev2a_c2_elabs_fragonly_scored_top80percent,openbind_a71ev2a_c2_elabs_scored,BulkDock Fragalysis export,openbind_a71ev2a_c2_elabs_scored_top80percent,openbind_a71ev2a_c2_elabs_activefrags_only_scored_5.2plus,syndirella_placed

>  <smina_score_min>  (352) 
-7.229

$$$$
P545355
     RDKit          3D

 21 22  0  0  0  0  0  0  0  0999 V2000
    5.2298   12.2591   31.1279 C   0  0  0  0  0  0  0  0  0  0  0  0
    4.5383   12.3782   30.1534 C   0  0  0  0  0  0  0  0  0  0  0  0
    3.6850   12.5228   28.9624 C   0  0  0  0  0  0  0  0  0  0  0  0
    4.4765   13.0205   27.7578 C   0  0  0  0  0  0  0  0  0  0  0  0
    5.3344   11.9251   27.1290 C   0  0  0  0  0  0  0  0  0  0  0  0
    5.2450   10.7884   27.3888 O   0  0  0  0  0  0  0  0  0  0  0  0
    6.2399   12.6559   26.0897 N   0  0  0  0  0  0  0  0  0  0  0  0
    7.2493   12.1605   25.2584 C   0  0  0  0  0  0  0  0  0  0  0  0
    7.4679   10.7849   25.1729 C   0  0  0  0  0  0  0  0  0  0  0  0
    8.4934   10.2760   24.3792 C   0  0  0  0  0  0  0  0  0  0  0  0
    9.3581   11.1358   23.7253 C   0  0  0  0  0  0  0  0  0  0  0  0
    9.1740   12.5149   23.8308 C   0  0  0  0  0  0  0  0  0  0  0  0
   10.2611   13.3144   23.4280 N   0  0  0  0  0  0  0  0  0  0  0  0
   11.2775   13.5896   24.4145 C   0  0  0  0  0  0  0  0  0  0  0  0
   12.6221   13.5186   23.7474 C   0  0  0  0  0  0  0  0  0  0  0  0
   12.6245   14.3466   22.4718 C   0  0  0  0  0  0  0  0  0  0  0  0
   11.3430   14.9260   22.1895 N   0  0  0  0  0  0  0  0  0  0  0  0
   10.2368   14.1281   22.3155 C   0  0  0  0  0  0  0  0  0  0  0  0
    9.3405   14.2056   21.4927 O   0  0  0  0  0  0  0  0  0  0  0  0
    8.0714   13.0480   24.5343 C   0  0  0  0  0  0  0  0  0  0  0  0
    7.8390   14.5334   24.5787 C   0  0  0  0  0  0  0  0  0  0  0  0
  1  2  3  0
  2  3  1  0
  3  4  1  0
  4  5  1  0
  5  6  2  0
  5  7  1  0
  7  8  1  0
  8  9  2  0
  9 10  1  0
 10 11  2  0
 11 12  1  0
 12 13  1  0
 13 14  1  0
 14 15  1  0
 15 16  1  0
 16 17  1  0
 17 18  1  0
 18 19  2  0
 12 20  2  0
 20 21  1  0
 20  8  1  0
 18 13  1  0
M  END
>  <alias>  (353) 
None

>  <rmsd(smina/fragmenstein)>  (353) 
0.818

>  <smiles>  (353) 
C#CCCC(=O)Nc1cccc(N2CCCNC2=O)c1C

>  <gnina_score>  (353) 
5.292

>  <inspiration_score>  (353) 
None

>  <energy_score>  (353) 
-19.735774

>  <distance_score>  (353) 
1.607245

>  <gnina_score_min>  (353) 
5.454

>  <inchikey>  (353) 
LBGLTEFKXUYNHP-UHFFFAOYSA-N

>  <exports>  (353) 
['/opt/xchem-fragalysis-2/maxwin/BulkDock/OUTPUTS/openbind_a71ev2a_c2_elabs_1LOUU54.sdf', '/opt/xchem-fragalysis-2/maxwin/BulkDock/OUTPUTS/openbind_a71ev2a_c2_elabs_1LSYIDY.sdf']

>  <name>  (353) 
P545355

>  <ref_pdb>  (353) 
A0884a

>  <subsites>  (353) 
None

>  <HIPPO Pose ID>  (353) 
545355

>  <ref_mols>  (353) 
A0884a

>  <HIPPO Compound ID>  (353) 
383810

>  <tags>  (353) 
openbind_a71ev2a_c2_elabs,syndirella_product,openbind_a71ev2a_c2_elabs_fragonly_scored_top80percent,openbind_a71ev2a_c2_elabs_scored,BulkDock Fragalysis export,openbind_a71ev2a_c2_elabs_scored_top80percent,openbind_a71ev2a_c2_elabs_activefrags_only_scored_5.2plus,syndirella_placed

>  <smina_score_min>  (353) 
-6.208

$$$$
P545362
     RDKit          3D

 21 23  0  0  0  0  0  0  0  0999 V2000
   10.0869   15.7985   19.9669 C   0  0  0  0  0  0  0  0  0  0  0  0
   10.3007   14.9061   21.0829 N   0  0  0  0  0  0  0  0  0  0  0  0
   11.5875   14.6865   21.7083 C   0  0  0  0  0  0  0  0  0  0  0  0
   11.1975   13.7475   22.8455 C   0  0  0  0  0  0  0  0  0  0  0  0
   11.9440   13.4007   23.7539 O   0  0  0  0  0  0  0  0  0  0  0  0
    9.8642   13.4526   22.7121 N   0  0  0  0  0  0  0  0  0  0  0  0
    9.1271   12.6417   23.5820 C   0  0  0  0  0  0  0  0  0  0  0  0
    9.4159   11.2835   23.6928 C   0  0  0  0  0  0  0  0  0  0  0  0
    8.5893   10.4697   24.4650 C   0  0  0  0  0  0  0  0  0  0  0  0
    7.5289   11.0184   25.1941 C   0  0  0  0  0  0  0  0  0  0  0  0
    7.2607   12.3811   25.1069 C   0  0  0  0  0  0  0  0  0  0  0  0
    6.2469   13.0024   25.8295 N   0  0  0  0  0  0  0  0  0  0  0  0
    5.2094   12.4134   26.8199 C   0  0  0  0  0  0  0  0  0  0  0  0
    5.0945   11.3265   27.2417 O   0  0  0  0  0  0  0  0  0  0  0  0
    4.2649   13.5854   27.2485 C   0  0  0  0  0  0  0  0  0  0  0  0
    2.8862   13.2125   27.8658 C   0  0  0  0  0  0  0  0  0  0  0  0
    2.3051   14.4510   27.1609 C   0  0  0  0  0  0  0  0  0  0  0  0
    3.4561   14.3275   26.1466 C   0  0  0  0  0  0  0  0  0  0  0  0
    8.0353   13.1801   24.2687 C   0  0  0  0  0  0  0  0  0  0  0  0
    9.2919   14.2172   21.7242 C   0  0  0  0  0  0  0  0  0  0  0  0
    8.1035   14.2667   21.4341 O   0  0  0  0  0  0  0  0  0  0  0  0
  1  2  1  0
  2  3  1  0
  3  4  1  0
  4  5  2  0
  4  6  1  0
  6  7  1  0
  7  8  2  0
  8  9  1  0
  9 10  2  0
 10 11  1  0
 11 12  1  0
 12 13  1  0
 13 14  2  0
 13 15  1  0
 15 16  1  0
 16 17  1  0
 17 18  1  0
 11 19  2  0
  6 20  1  0
 20 21  2  0
 20  2  1  0
 19  7  1  0
 18 15  1  0
M  END
>  <alias>  (354) 
None

>  <rmsd(smina/fragmenstein)>  (354) 
0.692

>  <smiles>  (354) 
CN1CC(=O)N(c2cccc(NC(=O)C3CCC3)c2)C1=O

>  <gnina_score>  (354) 
5.099

>  <inspiration_score>  (354) 
None

>  <energy_score>  (354) 
-17.411586

>  <distance_score>  (354) 
1.253193

>  <gnina_score_min>  (354) 
5.267

>  <inchikey>  (354) 
JWVFQZBHOAIGCO-UHFFFAOYSA-N

>  <exports>  (354) 
['/opt/xchem-fragalysis-2/maxwin/BulkDock/OUTPUTS/openbind_a71ev2a_c2_elabs_1LOUU54.sdf', '/opt/xchem-fragalysis-2/maxwin/BulkDock/OUTPUTS/openbind_a71ev2a_c2_elabs_1LSYIDY.sdf']

>  <name>  (354) 
P545362

>  <ref_pdb>  (354) 
A0884a

>  <subsites>  (354) 
None

>  <HIPPO Pose ID>  (354) 
545362

>  <ref_mols>  (354) 
A0884a

>  <HIPPO Compound ID>  (354) 
383817

>  <tags>  (354) 
openbind_a71ev2a_c2_elabs,syndirella_product,openbind_a71ev2a_c2_elabs_fragonly_scored_top80percent,openbind_a71ev2a_c2_elabs_scored,BulkDock Fragalysis export,openbind_a71ev2a_c2_elabs_scored_top80percent,openbind_a71ev2a_c2_elabs_activefrags_only_scored_5.2plus,syndirella_placed

>  <smina_score_min>  (354) 
-6.96

$$$$
P545365
     RDKit          3D

 21 23  0  0  0  0  0  0  0  0999 V2000
    5.0082   11.6275   27.0526 O   0  0  0  0  0  0  0  0  0  0  0  0
    5.1438   12.7052   26.6130 C   0  0  0  0  0  0  0  0  0  0  0  0
    6.2307   13.2742   25.6623 N   0  0  0  0  0  0  0  0  0  0  0  0
    7.2799   12.6383   25.0056 C   0  0  0  0  0  0  0  0  0  0  0  0
    7.4849   11.2601   25.1022 C   0  0  0  0  0  0  0  0  0  0  0  0
    8.5485   10.6692   24.4218 C   0  0  0  0  0  0  0  0  0  0  0  0
    9.4326   11.4657   23.7044 C   0  0  0  0  0  0  0  0  0  0  0  0
   10.4358   10.8717   23.0540 F   0  0  0  0  0  0  0  0  0  0  0  0
    9.2508   12.8481   23.6119 C   0  0  0  0  0  0  0  0  0  0  0  0
   10.1883   13.6697   22.9283 N   0  0  0  0  0  0  0  0  0  0  0  0
    9.7237   14.3850   21.7408 C   0  0  0  0  0  0  0  0  0  0  0  0
   10.7688   15.2317   21.0381 C   0  0  0  0  0  0  0  0  0  0  0  0
   12.1473   14.6622   21.2483 C   0  0  0  0  0  0  0  0  0  0  0  0
   12.3752   14.4230   22.6423 N   0  0  0  0  0  0  0  0  0  0  0  0
   11.4742   13.7679   23.4265 C   0  0  0  0  0  0  0  0  0  0  0  0
   11.8247   13.3660   24.5344 O   0  0  0  0  0  0  0  0  0  0  0  0
    8.1446   13.4257   24.2370 C   0  0  0  0  0  0  0  0  0  0  0  0
    4.1469   13.8814   26.9209 C   0  0  0  0  0  0  0  0  0  0  0  0
    4.5825   14.9015   28.0076 C   0  0  0  0  0  0  0  0  0  0  0  0
    3.7407   14.1019   29.0181 C   0  0  0  0  0  0  0  0  0  0  0  0
    2.9220   13.5748   27.8264 C   0  0  0  0  0  0  0  0  0  0  0  0
  1  2  2  0
  2  3  1  0
  3  4  1  0
  4  5  2  0
  5  6  1  0
  6  7  2  0
  7  8  1  0
  7  9  1  0
  9 10  1  0
 10 11  1  0
 11 12  1  0
 12 13  1  0
 13 14  1  0
 14 15  1  0
 15 16  2  0
  9 17  2  0
  2 18  1  0
 18 19  1  0
 19 20  1  0
 20 21  1  0
 17  4  1  0
 21 18  1  0
 15 10  1  0
M  END
>  <alias>  (355) 
None

>  <rmsd(smina/fragmenstein)>  (355) 
0.753

>  <smiles>  (355) 
O=C(Nc1ccc(F)c(N2CCCNC2=O)c1)C1CCC1

>  <gnina_score>  (355) 
5.208

>  <inspiration_score>  (355) 
None

>  <energy_score>  (355) 
-35.940172

>  <distance_score>  (355) 
1.281948

>  <gnina_score_min>  (355) 
5.273

>  <inchikey>  (355) 
GJGUTIQUBFRALP-UHFFFAOYSA-N

>  <exports>  (355) 
['/opt/xchem-fragalysis-2/maxwin/BulkDock/OUTPUTS/openbind_a71ev2a_c2_elabs_1LOUU54.sdf', '/opt/xchem-fragalysis-2/maxwin/BulkDock/OUTPUTS/openbind_a71ev2a_c2_elabs_1LSYIDY.sdf']

>  <name>  (355) 
P545365

>  <ref_pdb>  (355) 
A0884a

>  <subsites>  (355) 
None

>  <HIPPO Pose ID>  (355) 
545365

>  <ref_mols>  (355) 
A0884a

>  <HIPPO Compound ID>  (355) 
383820

>  <tags>  (355) 
openbind_a71ev2a_c2_elabs,syndirella_product,openbind_a71ev2a_c2_elabs_fragonly_scored_top80percent,openbind_a71ev2a_c2_elabs_scored,BulkDock Fragalysis export,openbind_a71ev2a_c2_elabs_scored_top80percent,openbind_a71ev2a_c2_elabs_activefrags_only_scored_5.2plus,syndirella_placed

>  <smina_score_min>  (355) 
-6.677

$$$$
P545366
     RDKit          3D

 21 23  0  0  0  0  0  0  0  0999 V2000
    7.6409   14.7064   24.5532 C   0  0  0  0  0  0  0  0  0  0  0  0
    8.0160   13.2501   24.4736 C   0  0  0  0  0  0  0  0  0  0  0  0
    7.2974   12.2682   25.1980 C   0  0  0  0  0  0  0  0  0  0  0  0
    6.2673   12.6516   26.0628 N   0  0  0  0  0  0  0  0  0  0  0  0
    5.4398   11.8183   27.0756 C   0  0  0  0  0  0  0  0  0  0  0  0
    5.4383   10.6670   27.2888 O   0  0  0  0  0  0  0  0  0  0  0  0
    4.4882   12.8149   27.8141 C   0  0  0  0  0  0  0  0  0  0  0  0
    5.1364   13.8023   28.8244 C   0  0  0  0  0  0  0  0  0  0  0  0
    3.8705   13.6502   29.6875 C   0  0  0  0  0  0  0  0  0  0  0  0
    3.6673   12.2773   29.0204 C   0  0  0  0  0  0  0  0  0  0  0  0
    7.6329   10.9157   25.0745 C   0  0  0  0  0  0  0  0  0  0  0  0
    8.6861   10.5230   24.2554 C   0  0  0  0  0  0  0  0  0  0  0  0
    9.4472   11.4892   23.6187 C   0  0  0  0  0  0  0  0  0  0  0  0
   10.4560   11.0881   22.8424 F   0  0  0  0  0  0  0  0  0  0  0  0
    9.1551   12.8522   23.7409 C   0  0  0  0  0  0  0  0  0  0  0  0
   10.0535   13.8214   23.2203 N   0  0  0  0  0  0  0  0  0  0  0  0
    9.9269   14.3090   21.8615 C   0  0  0  0  0  0  0  0  0  0  0  0
   11.3022   14.8637   21.5192 C   0  0  0  0  0  0  0  0  0  0  0  0
   12.1555   14.3358   22.5398 N   0  0  0  0  0  0  0  0  0  0  0  0
   11.4180   13.7729   23.5643 C   0  0  0  0  0  0  0  0  0  0  0  0
   11.8920   13.3578   24.6100 O   0  0  0  0  0  0  0  0  0  0  0  0
  1  2  1  0
  2  3  2  0
  3  4  1  0
  4  5  1  0
  5  6  2  0
  5  7  1  0
  7  8  1  0
  8  9  1  0
  9 10  1  0
  3 11  1  0
 11 12  2  0
 12 13  1  0
 13 14  1  0
 13 15  2  0
 15 16  1  0
 16 17  1  0
 17 18  1  0
 18 19  1  0
 19 20  1  0
 20 21  2  0
 15  2  1  0
 20 16  1  0
 10  7  1  0
M  END
>  <alias>  (356) 
None

>  <rmsd(smina/fragmenstein)>  (356) 
0.541

>  <smiles>  (356) 
Cc1c(NC(=O)C2CCC2)ccc(F)c1N1CCNC1=O

>  <gnina_score>  (356) 
5.282

>  <inspiration_score>  (356) 
None

>  <energy_score>  (356) 
-32.952658

>  <distance_score>  (356) 
1.205645

>  <gnina_score_min>  (356) 
5.283

>  <inchikey>  (356) 
ZEECBLKVRODLFL-UHFFFAOYSA-N

>  <exports>  (356) 
['/opt/xchem-fragalysis-2/maxwin/BulkDock/OUTPUTS/openbind_a71ev2a_c2_elabs_1LOUU54.sdf', '/opt/xchem-fragalysis-2/maxwin/BulkDock/OUTPUTS/openbind_a71ev2a_c2_elabs_1LSYIDY.sdf']

>  <name>  (356) 
P545366

>  <ref_pdb>  (356) 
A0884a

>  <subsites>  (356) 
None

>  <HIPPO Pose ID>  (356) 
545366

>  <ref_mols>  (356) 
A0884a

>  <HIPPO Compound ID>  (356) 
383821

>  <tags>  (356) 
openbind_a71ev2a_c2_elabs,syndirella_product,openbind_a71ev2a_c2_elabs_fragonly_scored_top80percent,openbind_a71ev2a_c2_elabs_scored,BulkDock Fragalysis export,openbind_a71ev2a_c2_elabs_scored_top80percent,openbind_a71ev2a_c2_elabs_activefrags_only_scored_5.2plus,syndirella_placed

>  <smina_score_min>  (356) 
-6.144

$$$$
P545386
     RDKit          3D

 21 22  0  0  0  0  0  0  0  0999 V2000
    3.3836   15.1938   26.6769 C   0  0  0  0  0  0  0  0  0  0  0  0
    4.7091   15.0360   26.8346 C   0  0  0  0  0  0  0  0  0  0  0  0
    5.6199   16.1417   27.2751 C   0  0  0  0  0  0  0  0  0  0  0  0
    6.6071   16.3965   26.2783 O   0  0  0  0  0  0  0  0  0  0  0  0
    5.2575   13.6489   26.5988 C   0  0  0  0  0  0  0  0  0  0  0  0
    4.6676   12.6837   26.8911 O   0  0  0  0  0  0  0  0  0  0  0  0
    6.6163   13.8140   25.8761 N   0  0  0  0  0  0  0  0  0  0  0  0
    7.4529   12.8669   25.3013 C   0  0  0  0  0  0  0  0  0  0  0  0
    7.2104   11.5026   25.3639 C   0  0  0  0  0  0  0  0  0  0  0  0
    8.0505   10.6243   24.6806 C   0  0  0  0  0  0  0  0  0  0  0  0
    9.1288   11.0944   23.9156 C   0  0  0  0  0  0  0  0  0  0  0  0
    9.9174   10.0821   23.1459 C   0  0  0  0  0  0  0  0  0  0  0  0
    9.4293   12.4671   23.9401 C   0  0  0  0  0  0  0  0  0  0  0  0
   10.5936   12.9875   23.3230 N   0  0  0  0  0  0  0  0  0  0  0  0
   11.5186   13.6991   24.0451 C   0  0  0  0  0  0  0  0  0  0  0  0
   11.6269   13.7868   25.2627 O   0  0  0  0  0  0  0  0  0  0  0  0
   12.3719   14.5083   23.0958 C   0  0  0  0  0  0  0  0  0  0  0  0
   11.7115   14.2775   21.8711 N   0  0  0  0  0  0  0  0  0  0  0  0
   10.5172   13.6560   22.1353 C   0  0  0  0  0  0  0  0  0  0  0  0
    9.5373   13.8851   21.4494 O   0  0  0  0  0  0  0  0  0  0  0  0
    8.5711   13.3419   24.6158 C   0  0  0  0  0  0  0  0  0  0  0  0
  1  2  2  0
  2  3  1  0
  3  4  1  0
  2  5  1  0
  5  6  2  0
  5  7  1  0
  7  8  1  0
  8  9  2  0
  9 10  1  0
 10 11  2  0
 11 12  1  0
 11 13  1  0
 13 14  1  0
 14 15  1  0
 15 16  2  0
 15 17  1  0
 17 18  1  0
 18 19  1  0
 19 20  2  0
 13 21  2  0
 21  8  1  0
 19 14  1  0
M  END
>  <alias>  (357) 
None

>  <rmsd(smina/fragmenstein)>  (357) 
0.84

>  <smiles>  (357) 
C=C(CO)C(=O)Nc1ccc(C)c(N2C(=O)CNC2=O)c1

>  <gnina_score>  (357) 
5.29

>  <inspiration_score>  (357) 
None

>  <energy_score>  (357) 
-29.281803

>  <distance_score>  (357) 
1.808293

>  <gnina_score_min>  (357) 
5.242

>  <inchikey>  (357) 
BJFJWLRCOSNQNP-UHFFFAOYSA-N

>  <exports>  (357) 
['/opt/xchem-fragalysis-2/maxwin/BulkDock/OUTPUTS/openbind_a71ev2a_c2_elabs_1LOUU54.sdf', '/opt/xchem-fragalysis-2/maxwin/BulkDock/OUTPUTS/openbind_a71ev2a_c2_elabs_1LSYIDY.sdf']

>  <name>  (357) 
P545386

>  <ref_pdb>  (357) 
A0884a

>  <subsites>  (357) 
None

>  <HIPPO Pose ID>  (357) 
545386

>  <ref_mols>  (357) 
A0884a

>  <HIPPO Compound ID>  (357) 
383843

>  <tags>  (357) 
openbind_a71ev2a_c2_elabs,syndirella_product,openbind_a71ev2a_c2_elabs_fragonly_scored_top80percent,openbind_a71ev2a_c2_elabs_scored,BulkDock Fragalysis export,openbind_a71ev2a_c2_elabs_scored_top80percent,openbind_a71ev2a_c2_elabs_activefrags_only_scored_5.2plus,syndirella_placed

>  <smina_score_min>  (357) 
-6.746

$$$$
P545394
     RDKit          3D

 21 23  0  0  0  0  0  0  0  0999 V2000
    7.9184   14.5253   24.5164 C   0  0  0  0  0  0  0  0  0  0  0  0
    8.1858   13.0579   24.3418 C   0  0  0  0  0  0  0  0  0  0  0  0
    7.4154   12.1028   25.0458 C   0  0  0  0  0  0  0  0  0  0  0  0
    6.3308   12.5133   25.8265 N   0  0  0  0  0  0  0  0  0  0  0  0
    5.5133   11.7463   26.8972 C   0  0  0  0  0  0  0  0  0  0  0  0
    5.5703   10.6276   27.2378 O   0  0  0  0  0  0  0  0  0  0  0  0
    4.4842   12.7625   27.4945 C   0  0  0  0  0  0  0  0  0  0  0  0
    3.5713   12.2771   28.6558 C   0  0  0  0  0  0  0  0  0  0  0  0
    3.6988   13.6883   29.2588 C   0  0  0  0  0  0  0  0  0  0  0  0
    5.0310   13.8161   28.4971 C   0  0  0  0  0  0  0  0  0  0  0  0
    7.7386   10.7487   24.9697 C   0  0  0  0  0  0  0  0  0  0  0  0
    8.7971   10.3217   24.1757 C   0  0  0  0  0  0  0  0  0  0  0  0
    9.5613   11.2485   23.4816 C   0  0  0  0  0  0  0  0  0  0  0  0
    9.2751   12.6161   23.5539 C   0  0  0  0  0  0  0  0  0  0  0  0
   10.1663   13.4887   22.8553 N   0  0  0  0  0  0  0  0  0  0  0  0
    9.6402   14.4037   21.8481 C   0  0  0  0  0  0  0  0  0  0  0  0
   10.6681   14.8770   20.8370 C   0  0  0  0  0  0  0  0  0  0  0  0
   11.9729   15.2106   21.5124 C   0  0  0  0  0  0  0  0  0  0  0  0
   12.3436   14.2786   22.5349 N   0  0  0  0  0  0  0  0  0  0  0  0
   11.4668   13.6003   23.3207 C   0  0  0  0  0  0  0  0  0  0  0  0
   11.8733   13.1282   24.3816 O   0  0  0  0  0  0  0  0  0  0  0  0
  1  2  1  0
  2  3  2  0
  3  4  1  0
  4  5  1  0
  5  6  2  0
  5  7  1  0
  7  8  1  0
  8  9  1  0
  9 10  1  0
  3 11  1  0
 11 12  2  0
 12 13  1  0
 13 14  2  0
 14 15  1  0
 15 16  1  0
 16 17  1  0
 17 18  1  0
 18 19  1  0
 19 20  1  0
 20 21  2  0
 14  2  1  0
 20 15  1  0
 10  7  1  0
M  END
>  <alias>  (358) 
None

>  <rmsd(smina/fragmenstein)>  (358) 
0.855

>  <smiles>  (358) 
Cc1c(NC(=O)C2CCC2)cccc1N1CCCNC1=O

>  <gnina_score>  (358) 
5.22

>  <inspiration_score>  (358) 
None

>  <energy_score>  (358) 
-35.176719

>  <distance_score>  (358) 
1.112116

>  <gnina_score_min>  (358) 
5.284

>  <inchikey>  (358) 
NEIRFBJRMHRZQP-UHFFFAOYSA-N

>  <exports>  (358) 
['/opt/xchem-fragalysis-2/maxwin/BulkDock/OUTPUTS/openbind_a71ev2a_c2_elabs_1LOUU54.sdf', '/opt/xchem-fragalysis-2/maxwin/BulkDock/OUTPUTS/openbind_a71ev2a_c2_elabs_1LSYIDY.sdf']

>  <name>  (358) 
P545394

>  <ref_pdb>  (358) 
A0884a

>  <subsites>  (358) 
None

>  <HIPPO Pose ID>  (358) 
545394

>  <ref_mols>  (358) 
A0884a

>  <HIPPO Compound ID>  (358) 
383851

>  <tags>  (358) 
openbind_a71ev2a_c2_elabs,syndirella_product,openbind_a71ev2a_c2_elabs_fragonly_scored_top80percent,openbind_a71ev2a_c2_elabs_scored,BulkDock Fragalysis export,openbind_a71ev2a_c2_elabs_scored_top80percent,openbind_a71ev2a_c2_elabs_activefrags_only_scored_5.2plus,syndirella_placed

>  <smina_score_min>  (358) 
-6.739

$$$$
P545395
     RDKit          3D

 21 22  0  0  0  0  0  0  0  0999 V2000
    9.9606   10.3347   23.0657 C   0  0  0  0  0  0  0  0  0  0  0  0
    9.0558   11.2513   23.8235 C   0  0  0  0  0  0  0  0  0  0  0  0
    8.1331   10.6362   24.6827 C   0  0  0  0  0  0  0  0  0  0  0  0
    7.1730   11.3808   25.3595 C   0  0  0  0  0  0  0  0  0  0  0  0
    7.1157   12.7564   25.1775 C   0  0  0  0  0  0  0  0  0  0  0  0
    6.1229   13.5294   25.7753 N   0  0  0  0  0  0  0  0  0  0  0  0
    5.0403   13.1469   26.8331 C   0  0  0  0  0  0  0  0  0  0  0  0
    4.7721   12.1083   27.3021 O   0  0  0  0  0  0  0  0  0  0  0  0
    4.3062   14.4423   27.1567 C   0  0  0  0  0  0  0  0  0  0  0  0
    3.2162   14.1903   28.1891 C   0  0  0  0  0  0  0  0  0  0  0  0
    2.3168   15.7245   28.5585 S   0  0  0  0  0  0  0  0  0  0  0  0
    8.0485   13.3860   24.3475 C   0  0  0  0  0  0  0  0  0  0  0  0
    9.0402   12.6511   23.6780 C   0  0  0  0  0  0  0  0  0  0  0  0
    9.9816   13.3387   22.8420 N   0  0  0  0  0  0  0  0  0  0  0  0
    9.4596   14.3302   21.9088 C   0  0  0  0  0  0  0  0  0  0  0  0
   10.4433   14.7996   20.8589 C   0  0  0  0  0  0  0  0  0  0  0  0
   11.8635   14.5468   21.2465 C   0  0  0  0  0  0  0  0  0  0  0  0
   12.7714   14.5453   20.4190 O   0  0  0  0  0  0  0  0  0  0  0  0
   12.0870   14.3332   22.5720 N   0  0  0  0  0  0  0  0  0  0  0  0
   11.2658   13.5570   23.3468 C   0  0  0  0  0  0  0  0  0  0  0  0
   11.6923   13.1049   24.4074 O   0  0  0  0  0  0  0  0  0  0  0  0
  1  2  1  0
  2  3  2  0
  3  4  1  0
  4  5  2  0
  5  6  1  0
  6  7  1  0
  7  8  2  0
  7  9  1  0
  9 10  1  0
 10 11  1  0
  5 12  1  0
 12 13  2  0
 13 14  1  0
 14 15  1  0
 15 16  1  0
 16 17  1  0
 17 18  2  0
 17 19  1  0
 19 20  1  0
 20 21  2  0
 13  2  1  0
 20 14  1  0
M  END
>  <alias>  (359) 
None

>  <rmsd(smina/fragmenstein)>  (359) 
1.029

>  <smiles>  (359) 
Cc1ccc(NC(=O)CCS)cc1N1CCC(=O)NC1=O

>  <gnina_score>  (359) 
5.324

>  <inspiration_score>  (359) 
None

>  <energy_score>  (359) 
-46.174275

>  <distance_score>  (359) 
1.40647

>  <gnina_score_min>  (359) 
5.452

>  <inchikey>  (359) 
GGIINAVYHLDWCB-UHFFFAOYSA-N

>  <exports>  (359) 
['/opt/xchem-fragalysis-2/maxwin/BulkDock/OUTPUTS/openbind_a71ev2a_c2_elabs_1LOUU54.sdf', '/opt/xchem-fragalysis-2/maxwin/BulkDock/OUTPUTS/openbind_a71ev2a_c2_elabs_1LSYIDY.sdf']

>  <name>  (359) 
P545395

>  <ref_pdb>  (359) 
A0884a

>  <subsites>  (359) 
None

>  <HIPPO Pose ID>  (359) 
545395

>  <ref_mols>  (359) 
A0884a

>  <HIPPO Compound ID>  (359) 
383856

>  <tags>  (359) 
openbind_a71ev2a_c2_elabs,syndirella_product,openbind_a71ev2a_c2_elabs_fragonly_scored_top80percent,openbind_a71ev2a_c2_elabs_scored,BulkDock Fragalysis export,openbind_a71ev2a_c2_elabs_scored_top80percent,openbind_a71ev2a_c2_elabs_activefrags_only_scored_5.2plus,syndirella_placed

>  <smina_score_min>  (359) 
-6.518

$$$$
P545399
     RDKit          3D

 21 22  0  0  0  0  0  0  0  0999 V2000
    8.2601   14.5229   24.3807 C   0  0  0  0  0  0  0  0  0  0  0  0
    8.3921   13.0334   24.3836 C   0  0  0  0  0  0  0  0  0  0  0  0
    7.4303   12.2560   25.0742 C   0  0  0  0  0  0  0  0  0  0  0  0
    6.3743   12.8804   25.7432 N   0  0  0  0  0  0  0  0  0  0  0  0
    5.3975   12.3311   26.8312 C   0  0  0  0  0  0  0  0  0  0  0  0
    5.3812   11.2995   27.3839 O   0  0  0  0  0  0  0  0  0  0  0  0
    4.4120   13.4672   27.1100 C   0  0  0  0  0  0  0  0  0  0  0  0
    3.6174   13.2822   28.3996 C   0  0  0  0  0  0  0  0  0  0  0  0
    2.3499   11.9815   28.2960 S   0  0  0  0  0  0  0  0  0  0  0  0
    7.5443   10.8707   25.1031 C   0  0  0  0  0  0  0  0  0  0  0  0
    8.5688   10.2517   24.3992 C   0  0  0  0  0  0  0  0  0  0  0  0
    9.5256   11.0091   23.7419 C   0  0  0  0  0  0  0  0  0  0  0  0
   10.4843   10.3587   23.0825 F   0  0  0  0  0  0  0  0  0  0  0  0
    9.4873   12.4013   23.7441 C   0  0  0  0  0  0  0  0  0  0  0  0
   10.5629   13.1042   23.1425 N   0  0  0  0  0  0  0  0  0  0  0  0
   10.4638   13.9732   22.0946 C   0  0  0  0  0  0  0  0  0  0  0  0
    9.4611   14.2429   21.4543 O   0  0  0  0  0  0  0  0  0  0  0  0
   11.8113   14.6027   21.8271 C   0  0  0  0  0  0  0  0  0  0  0  0
   12.5605   14.0801   22.9147 N   0  0  0  0  0  0  0  0  0  0  0  0
   11.8011   13.2540   23.7042 C   0  0  0  0  0  0  0  0  0  0  0  0
   12.2117   12.8534   24.7789 O   0  0  0  0  0  0  0  0  0  0  0  0
  1  2  1  0
  2  3  2  0
  3  4  1  0
  4  5  1  0
  5  6  2  0
  5  7  1  0
  7  8  1  0
  8  9  1  0
  3 10  1  0
 10 11  2  0
 11 12  1  0
 12 13  1  0
 12 14  2  0
 14 15  1  0
 15 16  1  0
 16 17  2  0
 16 18  1  0
 18 19  1  0
 19 20  1  0
 20 21  2  0
 14  2  1  0
 20 15  1  0
M  END
>  <alias>  (360) 
None

>  <rmsd(smina/fragmenstein)>  (360) 
0.621

>  <smiles>  (360) 
Cc1c(NC(=O)CCS)ccc(F)c1N1C(=O)CNC1=O

>  <gnina_score>  (360) 
5.329

>  <inspiration_score>  (360) 
None

>  <energy_score>  (360) 
-32.811098

>  <distance_score>  (360) 
1.563975

>  <gnina_score_min>  (360) 
5.347

>  <inchikey>  (360) 
OGZNRCZXHWHLQC-UHFFFAOYSA-N

>  <exports>  (360) 
['/opt/xchem-fragalysis-2/maxwin/BulkDock/OUTPUTS/openbind_a71ev2a_c2_elabs_1LOUU54.sdf', '/opt/xchem-fragalysis-2/maxwin/BulkDock/OUTPUTS/openbind_a71ev2a_c2_elabs_1LSYIDY.sdf']

>  <name>  (360) 
P545399

>  <ref_pdb>  (360) 
A0884a

>  <subsites>  (360) 
None

>  <HIPPO Pose ID>  (360) 
545399

>  <ref_mols>  (360) 
A0884a

>  <HIPPO Compound ID>  (360) 
383865

>  <tags>  (360) 
openbind_a71ev2a_c2_elabs,syndirella_product,openbind_a71ev2a_c2_elabs_fragonly_scored_top80percent,openbind_a71ev2a_c2_elabs_scored,BulkDock Fragalysis export,openbind_a71ev2a_c2_elabs_scored_top80percent,openbind_a71ev2a_c2_elabs_activefrags_only_scored_5.2plus,syndirella_placed

>  <smina_score_min>  (360) 
-6.229

$$$$
P545403
     RDKit          3D

 21 22  0  0  0  0  0  0  0  0999 V2000
    4.7906   11.5364   31.2211 C   0  0  0  0  0  0  0  0  0  0  0  0
    4.1770   11.7425   30.2097 C   0  0  0  0  0  0  0  0  0  0  0  0
    3.4208   11.9966   28.9726 C   0  0  0  0  0  0  0  0  0  0  0  0
    4.3014   12.6002   27.8835 C   0  0  0  0  0  0  0  0  0  0  0  0
    5.2115   11.5660   27.2233 C   0  0  0  0  0  0  0  0  0  0  0  0
    5.1492   10.4158   27.4164 O   0  0  0  0  0  0  0  0  0  0  0  0
    6.1657   12.3834   26.3067 N   0  0  0  0  0  0  0  0  0  0  0  0
    7.1362   11.9580   25.4049 C   0  0  0  0  0  0  0  0  0  0  0  0
    7.4238   10.6270   25.1498 C   0  0  0  0  0  0  0  0  0  0  0  0
    8.4706   10.2951   24.2788 C   0  0  0  0  0  0  0  0  0  0  0  0
    9.3020   11.2804   23.7490 C   0  0  0  0  0  0  0  0  0  0  0  0
    9.0889   12.6082   24.1172 C   0  0  0  0  0  0  0  0  0  0  0  0
   10.1506   13.5308   24.0960 N   0  0  0  0  0  0  0  0  0  0  0  0
   10.4421   14.2865   25.2102 C   0  0  0  0  0  0  0  0  0  0  0  0
    9.7476   14.6366   26.1576 O   0  0  0  0  0  0  0  0  0  0  0  0
   11.8911   14.6367   25.1700 C   0  0  0  0  0  0  0  0  0  0  0  0
   12.2234   14.2868   23.8376 N   0  0  0  0  0  0  0  0  0  0  0  0
   11.2398   13.5239   23.2762 C   0  0  0  0  0  0  0  0  0  0  0  0
   11.4232   12.9618   22.2190 O   0  0  0  0  0  0  0  0  0  0  0  0
    7.9244   12.9374   24.8172 C   0  0  0  0  0  0  0  0  0  0  0  0
    7.5997   14.2254   25.0256 F   0  0  0  0  0  0  0  0  0  0  0  0
  1  2  3  0
  2  3  1  0
  3  4  1  0
  4  5  1  0
  5  6  2  0
  5  7  1  0
  7  8  1  0
  8  9  2  0
  9 10  1  0
 10 11  2  0
 11 12  1  0
 12 13  1  0
 13 14  1  0
 14 15  2  0
 14 16  1  0
 16 17  1  0
 17 18  1  0
 18 19  2  0
 12 20  2  0
 20 21  1  0
 20  8  1  0
 18 13  1  0
M  END
>  <alias>  (361) 
None

>  <rmsd(smina/fragmenstein)>  (361) 
2.184

>  <smiles>  (361) 
C#CCCC(=O)Nc1cccc(N2C(=O)CNC2=O)c1F

>  <gnina_score>  (361) 
5.086

>  <inspiration_score>  (361) 
None

>  <energy_score>  (361) 
-31.490814

>  <distance_score>  (361) 
1.366885

>  <gnina_score_min>  (361) 
5.348

>  <inchikey>  (361) 
UJFZCEUGHBPUIS-UHFFFAOYSA-N

>  <exports>  (361) 
['/opt/xchem-fragalysis-2/maxwin/BulkDock/OUTPUTS/openbind_a71ev2a_c2_elabs_1LOUU54.sdf', '/opt/xchem-fragalysis-2/maxwin/BulkDock/OUTPUTS/openbind_a71ev2a_c2_elabs_1LSYIDY.sdf']

>  <name>  (361) 
P545403

>  <ref_pdb>  (361) 
A0884a

>  <subsites>  (361) 
None

>  <HIPPO Pose ID>  (361) 
545403

>  <ref_mols>  (361) 
A0884a

>  <HIPPO Compound ID>  (361) 
383875

>  <tags>  (361) 
openbind_a71ev2a_c2_elabs,syndirella_product,openbind_a71ev2a_c2_elabs_fragonly_scored_top80percent,openbind_a71ev2a_c2_elabs_scored,BulkDock Fragalysis export,openbind_a71ev2a_c2_elabs_scored_top80percent,openbind_a71ev2a_c2_elabs_activefrags_only_scored_5.2plus,syndirella_placed

>  <smina_score_min>  (361) 
-6.57

$$$$
P545408
     RDKit          3D

 21 22  0  0  0  0  0  0  0  0999 V2000
    4.6475    9.6406   28.3889 C   0  0  0  0  0  0  0  0  0  0  0  0
    4.3488   10.8007   28.3021 C   0  0  0  0  0  0  0  0  0  0  0  0
    3.9776   12.2194   28.1621 C   0  0  0  0  0  0  0  0  0  0  0  0
    5.1561   13.1409   28.4192 C   0  0  0  0  0  0  0  0  0  0  0  0
    5.9256   13.5401   27.1633 C   0  0  0  0  0  0  0  0  0  0  0  0
    5.9188   14.6393   26.7620 O   0  0  0  0  0  0  0  0  0  0  0  0
    6.7211   12.2896   26.6730 N   0  0  0  0  0  0  0  0  0  0  0  0
    7.5701   12.1249   25.5640 C   0  0  0  0  0  0  0  0  0  0  0  0
    7.7022   10.8005   25.1165 C   0  0  0  0  0  0  0  0  0  0  0  0
    8.6074   10.4641   24.1141 C   0  0  0  0  0  0  0  0  0  0  0  0
    9.3697   11.4567   23.5257 C   0  0  0  0  0  0  0  0  0  0  0  0
   10.2084   11.1119   22.5438 F   0  0  0  0  0  0  0  0  0  0  0  0
    9.2674   12.7880   23.9373 C   0  0  0  0  0  0  0  0  0  0  0  0
   10.1240   13.7699   23.3735 N   0  0  0  0  0  0  0  0  0  0  0  0
    9.9410   14.2313   22.0133 C   0  0  0  0  0  0  0  0  0  0  0  0
   11.2856   14.8256   21.6207 C   0  0  0  0  0  0  0  0  0  0  0  0
   12.1877   14.3169   22.6093 N   0  0  0  0  0  0  0  0  0  0  0  0
   11.4997   13.7408   23.6613 C   0  0  0  0  0  0  0  0  0  0  0  0
   12.0231   13.3167   24.6786 O   0  0  0  0  0  0  0  0  0  0  0  0
    8.3861   13.1294   24.9964 C   0  0  0  0  0  0  0  0  0  0  0  0
    8.4507   14.5201   25.5623 C   0  0  0  0  0  0  0  0  0  0  0  0
  1  2  3  0
  2  3  1  0
  3  4  1  0
  4  5  1  0
  5  6  2  0
  5  7  1  0
  7  8  1  0
  8  9  2  0
  9 10  1  0
 10 11  2  0
 11 12  1  0
 11 13  1  0
 13 14  1  0
 14 15  1  0
 15 16  1  0
 16 17  1  0
 17 18  1  0
 18 19  2  0
 13 20  2  0
 20 21  1  0
 20  8  1  0
 18 14  1  0
M  END
>  <alias>  (362) 
None

>  <rmsd(smina/fragmenstein)>  (362) 
0.859

>  <smiles>  (362) 
C#CCCC(=O)Nc1ccc(F)c(N2CCNC2=O)c1C

>  <gnina_score>  (362) 
5.233

>  <inspiration_score>  (362) 
None

>  <energy_score>  (362) 
-8.920359

>  <distance_score>  (362) 
1.16066

>  <gnina_score_min>  (362) 
5.292

>  <inchikey>  (362) 
KFMMKPRORPFFJG-UHFFFAOYSA-N

>  <exports>  (362) 
['/opt/xchem-fragalysis-2/maxwin/BulkDock/OUTPUTS/openbind_a71ev2a_c2_elabs_1LOUU54.sdf', '/opt/xchem-fragalysis-2/maxwin/BulkDock/OUTPUTS/openbind_a71ev2a_c2_elabs_1LSYIDY.sdf']

>  <name>  (362) 
P545408

>  <ref_pdb>  (362) 
A0884a

>  <subsites>  (362) 
None

>  <HIPPO Pose ID>  (362) 
545408

>  <ref_mols>  (362) 
A0884a

>  <HIPPO Compound ID>  (362) 
383880

>  <tags>  (362) 
openbind_a71ev2a_c2_elabs,syndirella_product,openbind_a71ev2a_c2_elabs_fragonly_scored_top80percent,openbind_a71ev2a_c2_elabs_scored,BulkDock Fragalysis export,openbind_a71ev2a_c2_elabs_scored_top80percent,openbind_a71ev2a_c2_elabs_activefrags_only_scored_5.2plus,syndirella_placed

>  <smina_score_min>  (362) 
-5.85

$$$$
P545409
     RDKit          3D

 21 22  0  0  0  0  0  0  0  0999 V2000
    3.9645   14.1086   30.3131 C   0  0  0  0  0  0  0  0  0  0  0  0
    3.5587   14.1102   29.1830 C   0  0  0  0  0  0  0  0  0  0  0  0
    3.0534   14.1138   27.8002 C   0  0  0  0  0  0  0  0  0  0  0  0
    4.1761   14.2803   26.7827 C   0  0  0  0  0  0  0  0  0  0  0  0
    4.9735   12.9956   26.5676 C   0  0  0  0  0  0  0  0  0  0  0  0
    4.7021   11.9611   27.0424 O   0  0  0  0  0  0  0  0  0  0  0  0
    6.1029   13.3810   25.5609 N   0  0  0  0  0  0  0  0  0  0  0  0
    7.1391   12.6201   25.0335 C   0  0  0  0  0  0  0  0  0  0  0  0
    7.2098   11.2376   25.2133 C   0  0  0  0  0  0  0  0  0  0  0  0
    8.2483   10.5115   24.6296 C   0  0  0  0  0  0  0  0  0  0  0  0
    9.2552   11.1777   23.9482 C   0  0  0  0  0  0  0  0  0  0  0  0
   10.2843   10.4682   23.4700 F   0  0  0  0  0  0  0  0  0  0  0  0
    9.2183   12.5645   23.8034 C   0  0  0  0  0  0  0  0  0  0  0  0
   10.3467   13.2508   23.3039 N   0  0  0  0  0  0  0  0  0  0  0  0
   11.3951   13.5108   24.2651 C   0  0  0  0  0  0  0  0  0  0  0  0
   12.7102   13.5553   23.5477 C   0  0  0  0  0  0  0  0  0  0  0  0
   12.6258   14.4429   22.3209 C   0  0  0  0  0  0  0  0  0  0  0  0
   11.3212   15.0113   22.1613 N   0  0  0  0  0  0  0  0  0  0  0  0
   10.2229   14.2147   22.3190 C   0  0  0  0  0  0  0  0  0  0  0  0
    9.2335   14.4126   21.6322 O   0  0  0  0  0  0  0  0  0  0  0  0
    8.1289   13.2797   24.3042 C   0  0  0  0  0  0  0  0  0  0  0  0
  1  2  3  0
  2  3  1  0
  3  4  1  0
  4  5  1  0
  5  6  2  0
  5  7  1  0
  7  8  1  0
  8  9  2  0
  9 10  1  0
 10 11  2  0
 11 12  1  0
 11 13  1  0
 13 14  1  0
 14 15  1  0
 15 16  1  0
 16 17  1  0
 17 18  1  0
 18 19  1  0
 19 20  2  0
 13 21  2  0
 21  8  1  0
 19 14  1  0
M  END
>  <alias>  (363) 
None

>  <rmsd(smina/fragmenstein)>  (363) 
0.858

>  <smiles>  (363) 
C#CCCC(=O)Nc1ccc(F)c(N2CCCNC2=O)c1

>  <gnina_score>  (363) 
5.257

>  <inspiration_score>  (363) 
None

>  <energy_score>  (363) 
-14.745081

>  <distance_score>  (363) 
1.768496

>  <gnina_score_min>  (363) 
5.419

>  <inchikey>  (363) 
AEQNYNYDJFZYDB-UHFFFAOYSA-N

>  <exports>  (363) 
['/opt/xchem-fragalysis-2/maxwin/BulkDock/OUTPUTS/openbind_a71ev2a_c2_elabs_1LOUU54.sdf', '/opt/xchem-fragalysis-2/maxwin/BulkDock/OUTPUTS/openbind_a71ev2a_c2_elabs_1LSYIDY.sdf']

>  <name>  (363) 
P545409

>  <ref_pdb>  (363) 
A0884a

>  <subsites>  (363) 
None

>  <HIPPO Pose ID>  (363) 
545409

>  <ref_mols>  (363) 
A0884a

>  <HIPPO Compound ID>  (363) 
383881

>  <tags>  (363) 
openbind_a71ev2a_c2_elabs,syndirella_product,openbind_a71ev2a_c2_elabs_fragonly_scored_top80percent,openbind_a71ev2a_c2_elabs_scored,BulkDock Fragalysis export,openbind_a71ev2a_c2_elabs_scored_top80percent,openbind_a71ev2a_c2_elabs_activefrags_only_scored_5.2plus,syndirella_placed

>  <smina_score_min>  (363) 
-6.046

$$$$
P545411
     RDKit          3D

 21 22  0  0  0  0  0  0  0  0999 V2000
    3.8524   14.4319   30.4137 C   0  0  0  0  0  0  0  0  0  0  0  0
    3.5838   14.5617   29.2506 C   0  0  0  0  0  0  0  0  0  0  0  0
    3.2494   14.7210   27.8254 C   0  0  0  0  0  0  0  0  0  0  0  0
    4.4985   14.7871   26.9534 C   0  0  0  0  0  0  0  0  0  0  0  0
    5.1313   13.4156   26.7230 C   0  0  0  0  0  0  0  0  0  0  0  0
    4.6774   12.4043   27.0995 O   0  0  0  0  0  0  0  0  0  0  0  0
    6.4310   13.6984   25.9010 N   0  0  0  0  0  0  0  0  0  0  0  0
    7.3419   12.8203   25.3215 C   0  0  0  0  0  0  0  0  0  0  0  0
    7.1585   11.4435   25.3724 C   0  0  0  0  0  0  0  0  0  0  0  0
    8.0303   10.6004   24.6883 C   0  0  0  0  0  0  0  0  0  0  0  0
    9.0923   11.1157   23.9364 C   0  0  0  0  0  0  0  0  0  0  0  0
    9.9152   10.1369   23.1583 C   0  0  0  0  0  0  0  0  0  0  0  0
    9.3484   12.4982   23.9847 C   0  0  0  0  0  0  0  0  0  0  0  0
   10.5212   13.0358   23.4054 N   0  0  0  0  0  0  0  0  0  0  0  0
   11.4207   13.7714   24.1327 C   0  0  0  0  0  0  0  0  0  0  0  0
   11.4710   13.9286   25.3473 O   0  0  0  0  0  0  0  0  0  0  0  0
   12.3446   14.4917   23.1754 C   0  0  0  0  0  0  0  0  0  0  0  0
   11.7210   14.2227   21.9382 N   0  0  0  0  0  0  0  0  0  0  0  0
   10.5024   13.6426   22.1844 C   0  0  0  0  0  0  0  0  0  0  0  0
    9.5517   13.8557   21.4545 O   0  0  0  0  0  0  0  0  0  0  0  0
    8.4514   13.3435   24.6554 C   0  0  0  0  0  0  0  0  0  0  0  0
  1  2  3  0
  2  3  1  0
  3  4  1  0
  4  5  1  0
  5  6  2  0
  5  7  1  0
  7  8  1  0
  8  9  2  0
  9 10  1  0
 10 11  2  0
 11 12  1  0
 11 13  1  0
 13 14  1  0
 14 15  1  0
 15 16  2  0
 15 17  1  0
 17 18  1  0
 18 19  1  0
 19 20  2  0
 13 21  2  0
 21  8  1  0
 19 14  1  0
M  END
>  <alias>  (364) 
None

>  <rmsd(smina/fragmenstein)>  (364) 
1.662

>  <smiles>  (364) 
C#CCCC(=O)Nc1ccc(C)c(N2C(=O)CNC2=O)c1

>  <gnina_score>  (364) 
5.307

>  <inspiration_score>  (364) 
None

>  <energy_score>  (364) 
-19.494755

>  <distance_score>  (364) 
1.77778

>  <gnina_score_min>  (364) 
5.308

>  <inchikey>  (364) 
PZVORTPTAYOZHO-UHFFFAOYSA-N

>  <exports>  (364) 
['/opt/xchem-fragalysis-2/maxwin/BulkDock/OUTPUTS/openbind_a71ev2a_c2_elabs_1LOUU54.sdf', '/opt/xchem-fragalysis-2/maxwin/BulkDock/OUTPUTS/openbind_a71ev2a_c2_elabs_1LSYIDY.sdf']

>  <name>  (364) 
P545411

>  <ref_pdb>  (364) 
A0884a

>  <subsites>  (364) 
None

>  <HIPPO Pose ID>  (364) 
545411

>  <ref_mols>  (364) 
A0884a

>  <HIPPO Compound ID>  (364) 
383883

>  <tags>  (364) 
openbind_a71ev2a_c2_elabs,syndirella_product,openbind_a71ev2a_c2_elabs_fragonly_scored_top80percent,openbind_a71ev2a_c2_elabs_scored,BulkDock Fragalysis export,openbind_a71ev2a_c2_elabs_scored_top80percent,openbind_a71ev2a_c2_elabs_activefrags_only_scored_5.2plus,syndirella_placed

>  <smina_score_min>  (364) 
-6.212

$$$$
P545413
     RDKit          3D

 21 22  0  0  0  0  0  0  0  0999 V2000
    4.2700   13.8568   30.3543 C   0  0  0  0  0  0  0  0  0  0  0  0
    3.8228   13.8882   29.2403 C   0  0  0  0  0  0  0  0  0  0  0  0
    3.2682   13.9291   27.8773 C   0  0  0  0  0  0  0  0  0  0  0  0
    4.3545   14.1231   26.8256 C   0  0  0  0  0  0  0  0  0  0  0  0
    5.1462   12.8459   26.5525 C   0  0  0  0  0  0  0  0  0  0  0  0
    4.8854   11.7974   27.0020 O   0  0  0  0  0  0  0  0  0  0  0  0
    6.2539   13.2624   25.5341 N   0  0  0  0  0  0  0  0  0  0  0  0
    7.2796   12.5183   24.9623 C   0  0  0  0  0  0  0  0  0  0  0  0
    7.3710   11.1372   25.1284 C   0  0  0  0  0  0  0  0  0  0  0  0
    8.3950   10.4240   24.5034 C   0  0  0  0  0  0  0  0  0  0  0  0
    9.3746   11.0941   23.7799 C   0  0  0  0  0  0  0  0  0  0  0  0
    9.3072   12.4833   23.6477 C   0  0  0  0  0  0  0  0  0  0  0  0
   10.4039   13.1629   23.0624 N   0  0  0  0  0  0  0  0  0  0  0  0
   11.4845   13.3808   23.8896 C   0  0  0  0  0  0  0  0  0  0  0  0
   11.4658   13.3734   25.1180 O   0  0  0  0  0  0  0  0  0  0  0  0
   12.7178   13.7302   23.1452 C   0  0  0  0  0  0  0  0  0  0  0  0
   12.4360   15.0093   22.4297 C   0  0  0  0  0  0  0  0  0  0  0  0
   11.2220   14.8792   21.6901 N   0  0  0  0  0  0  0  0  0  0  0  0
   10.1904   14.0724   22.0523 C   0  0  0  0  0  0  0  0  0  0  0  0
    9.1238   14.2375   21.4734 O   0  0  0  0  0  0  0  0  0  0  0  0
    8.2344   13.1896   24.2001 C   0  0  0  0  0  0  0  0  0  0  0  0
  1  2  3  0
  2  3  1  0
  3  4  1  0
  4  5  1  0
  5  6  2  0
  5  7  1  0
  7  8  1  0
  8  9  2  0
  9 10  1  0
 10 11  2  0
 11 12  1  0
 12 13  1  0
 13 14  1  0
 14 15  2  0
 14 16  1  0
 16 17  1  0
 17 18  1  0
 18 19  1  0
 19 20  2  0
 12 21  2  0
 21  8  1  0
 19 13  1  0
M  END
>  <alias>  (365) 
None

>  <rmsd(smina/fragmenstein)>  (365) 
0.601

>  <smiles>  (365) 
C#CCCC(=O)Nc1cccc(N2C(=O)CCNC2=O)c1

>  <gnina_score>  (365) 
5.165

>  <inspiration_score>  (365) 
None

>  <energy_score>  (365) 
-39.397848

>  <distance_score>  (365) 
1.75473

>  <gnina_score_min>  (365) 
5.223

>  <inchikey>  (365) 
LQXMCOQEGLBEKR-UHFFFAOYSA-N

>  <exports>  (365) 
['/opt/xchem-fragalysis-2/maxwin/BulkDock/OUTPUTS/openbind_a71ev2a_c2_elabs_1LOUU54.sdf', '/opt/xchem-fragalysis-2/maxwin/BulkDock/OUTPUTS/openbind_a71ev2a_c2_elabs_1LSYIDY.sdf']

>  <name>  (365) 
P545413

>  <ref_pdb>  (365) 
A0884a

>  <subsites>  (365) 
None

>  <HIPPO Pose ID>  (365) 
545413

>  <ref_mols>  (365) 
A0884a

>  <HIPPO Compound ID>  (365) 
383885

>  <tags>  (365) 
openbind_a71ev2a_c2_elabs,syndirella_product,openbind_a71ev2a_c2_elabs_fragonly_scored_top80percent,openbind_a71ev2a_c2_elabs_scored,BulkDock Fragalysis export,openbind_a71ev2a_c2_elabs_scored_top80percent,openbind_a71ev2a_c2_elabs_activefrags_only_scored_5.2plus,syndirella_placed

>  <smina_score_min>  (365) 
-5.831

$$$$
P545416
     RDKit          3D

 21 22  0  0  0  0  0  0  0  0999 V2000
    9.9401   10.1336   23.1286 C   0  0  0  0  0  0  0  0  0  0  0  0
    9.0950   11.0753   23.9270 C   0  0  0  0  0  0  0  0  0  0  0  0
    8.0598   10.5093   24.6773 C   0  0  0  0  0  0  0  0  0  0  0  0
    7.1725   11.3065   25.3908 C   0  0  0  0  0  0  0  0  0  0  0  0
    7.3050   12.6895   25.3612 C   0  0  0  0  0  0  0  0  0  0  0  0
    6.3540   13.5065   25.9664 N   0  0  0  0  0  0  0  0  0  0  0  0
    5.1976   13.1543   26.9585 C   0  0  0  0  0  0  0  0  0  0  0  0
    4.8267   12.1167   27.3522 O   0  0  0  0  0  0  0  0  0  0  0  0
    4.5732   14.4950   27.3392 C   0  0  0  0  0  0  0  0  0  0  0  0
    3.3582   14.3812   28.2609 C   0  0  0  0  0  0  0  0  0  0  0  0
    2.0758   14.0230   27.5238 C   0  0  0  0  0  0  0  0  0  0  0  0
    2.0899   12.7203   27.1452 F   0  0  0  0  0  0  0  0  0  0  0  0
    8.3855   13.2677   24.6888 C   0  0  0  0  0  0  0  0  0  0  0  0
    9.3079   12.4648   23.9991 C   0  0  0  0  0  0  0  0  0  0  0  0
   10.4730   13.0370   23.4384 N   0  0  0  0  0  0  0  0  0  0  0  0
   11.3599   13.7785   24.1736 C   0  0  0  0  0  0  0  0  0  0  0  0
   11.3906   13.9496   25.3868 O   0  0  0  0  0  0  0  0  0  0  0  0
   12.3085   14.4767   23.2229 C   0  0  0  0  0  0  0  0  0  0  0  0
   11.6965   14.2070   21.9797 N   0  0  0  0  0  0  0  0  0  0  0  0
   10.4731   13.6308   22.2117 C   0  0  0  0  0  0  0  0  0  0  0  0
    9.5347   13.8358   21.4645 O   0  0  0  0  0  0  0  0  0  0  0  0
  1  2  1  0
  2  3  2  0
  3  4  1  0
  4  5  2  0
  5  6  1  0
  6  7  1  0
  7  8  2  0
  7  9  1  0
  9 10  1  0
 10 11  1  0
 11 12  1  0
  5 13  1  0
 13 14  2  0
 14 15  1  0
 15 16  1  0
 16 17  2  0
 16 18  1  0
 18 19  1  0
 19 20  1  0
 20 21  2  0
 14  2  1  0
 20 15  1  0
M  END
>  <alias>  (366) 
None

>  <rmsd(smina/fragmenstein)>  (366) 
1.701

>  <smiles>  (366) 
Cc1ccc(NC(=O)CCCF)cc1N1C(=O)CNC1=O

>  <gnina_score>  (366) 
5.355

>  <inspiration_score>  (366) 
None

>  <energy_score>  (366) 
-20.763841

>  <distance_score>  (366) 
1.71061

>  <gnina_score_min>  (366) 
5.266

>  <inchikey>  (366) 
KDGKPALBNNQCAX-UHFFFAOYSA-N

>  <exports>  (366) 
['/opt/xchem-fragalysis-2/maxwin/BulkDock/OUTPUTS/openbind_a71ev2a_c2_elabs_1LOUU54.sdf', '/opt/xchem-fragalysis-2/maxwin/BulkDock/OUTPUTS/openbind_a71ev2a_c2_elabs_1LSYIDY.sdf']

>  <name>  (366) 
P545416

>  <ref_pdb>  (366) 
A0884a

>  <subsites>  (366) 
None

>  <HIPPO Pose ID>  (366) 
545416

>  <ref_mols>  (366) 
A0884a

>  <HIPPO Compound ID>  (366) 
383888

>  <tags>  (366) 
openbind_a71ev2a_c2_elabs,syndirella_product,openbind_a71ev2a_c2_elabs_fragonly_scored_top80percent,openbind_a71ev2a_c2_elabs_scored,BulkDock Fragalysis export,openbind_a71ev2a_c2_elabs_scored_top80percent,openbind_a71ev2a_c2_elabs_activefrags_only_scored_5.2plus,syndirella_placed

>  <smina_score_min>  (366) 
-6.291

$$$$
P545419
     RDKit          3D

 21 22  0  0  0  0  0  0  0  0999 V2000
    7.6742   14.7245   24.6707 C   0  0  0  0  0  0  0  0  0  0  0  0
    8.0262   13.2647   24.5699 C   0  0  0  0  0  0  0  0  0  0  0  0
    7.3431   12.2944   25.3416 C   0  0  0  0  0  0  0  0  0  0  0  0
    6.4264   12.6958   26.3220 N   0  0  0  0  0  0  0  0  0  0  0  0
    5.8597   11.9257   27.5531 C   0  0  0  0  0  0  0  0  0  0  0  0
    6.0138   10.8158   27.8894 O   0  0  0  0  0  0  0  0  0  0  0  0
    4.9941   12.9064   28.3412 C   0  0  0  0  0  0  0  0  0  0  0  0
    3.5484   12.8718   27.8682 C   0  0  0  0  0  0  0  0  0  0  0  0
    2.8027   11.6527   28.3900 C   0  0  0  0  0  0  0  0  0  0  0  0
    1.5823   11.5999   27.7833 F   0  0  0  0  0  0  0  0  0  0  0  0
    7.6297   10.9362   25.1749 C   0  0  0  0  0  0  0  0  0  0  0  0
    8.6278   10.5297   24.2929 C   0  0  0  0  0  0  0  0  0  0  0  0
    9.3814   11.4850   23.6288 C   0  0  0  0  0  0  0  0  0  0  0  0
   10.3508   11.0716   22.8075 F   0  0  0  0  0  0  0  0  0  0  0  0
    9.1187   12.8519   23.7747 C   0  0  0  0  0  0  0  0  0  0  0  0
   10.0146   13.8135   23.2353 N   0  0  0  0  0  0  0  0  0  0  0  0
    9.8764   14.2947   21.8763 C   0  0  0  0  0  0  0  0  0  0  0  0
   11.2459   14.8583   21.5243 C   0  0  0  0  0  0  0  0  0  0  0  0
   12.1099   14.3311   22.5366 N   0  0  0  0  0  0  0  0  0  0  0  0
   11.3821   13.7665   23.5678 C   0  0  0  0  0  0  0  0  0  0  0  0
   11.8671   13.3536   24.6092 O   0  0  0  0  0  0  0  0  0  0  0  0
  1  2  1  0
  2  3  2  0
  3  4  1  0
  4  5  1  0
  5  6  2  0
  5  7  1  0
  7  8  1  0
  8  9  1  0
  9 10  1  0
  3 11  1  0
 11 12  2  0
 12 13  1  0
 13 14  1  0
 13 15  2  0
 15 16  1  0
 16 17  1  0
 17 18  1  0
 18 19  1  0
 19 20  1  0
 20 21  2  0
 15  2  1  0
 20 16  1  0
M  END
>  <alias>  (367) 
None

>  <rmsd(smina/fragmenstein)>  (367) 
0.225

>  <smiles>  (367) 
Cc1c(NC(=O)CCCF)ccc(F)c1N1CCNC1=O

>  <gnina_score>  (367) 
5.165

>  <inspiration_score>  (367) 
None

>  <energy_score>  (367) 
-40.414339

>  <distance_score>  (367) 
1.243864

>  <gnina_score_min>  (367) 
5.201

>  <inchikey>  (367) 
BLMZHTWSMPBWKB-UHFFFAOYSA-N

>  <exports>  (367) 
['/opt/xchem-fragalysis-2/maxwin/BulkDock/OUTPUTS/openbind_a71ev2a_c2_elabs_1LOUU54.sdf', '/opt/xchem-fragalysis-2/maxwin/BulkDock/OUTPUTS/openbind_a71ev2a_c2_elabs_1LSYIDY.sdf']

>  <name>  (367) 
P545419

>  <ref_pdb>  (367) 
A0884a

>  <subsites>  (367) 
None

>  <HIPPO Pose ID>  (367) 
545419

>  <ref_mols>  (367) 
A0884a

>  <HIPPO Compound ID>  (367) 
383891

>  <tags>  (367) 
openbind_a71ev2a_c2_elabs,syndirella_product,openbind_a71ev2a_c2_elabs_fragonly_scored_top80percent,openbind_a71ev2a_c2_elabs_scored,BulkDock Fragalysis export,openbind_a71ev2a_c2_elabs_scored_top80percent,openbind_a71ev2a_c2_elabs_activefrags_only_scored_5.2plus,syndirella_placed

>  <smina_score_min>  (367) 
-5.591

$$$$
P545421
     RDKit          3D

 21 22  0  0  0  0  0  0  0  0999 V2000
    3.8467   15.6646   29.8833 C   0  0  0  0  0  0  0  0  0  0  0  0
    4.5040   14.7936   29.3823 C   0  0  0  0  0  0  0  0  0  0  0  0
    5.3147   13.7321   28.7699 C   0  0  0  0  0  0  0  0  0  0  0  0
    4.5927   13.1082   27.5844 C   0  0  0  0  0  0  0  0  0  0  0  0
    5.4445   12.0085   26.9741 C   0  0  0  0  0  0  0  0  0  0  0  0
    5.2854   10.8755   27.2186 O   0  0  0  0  0  0  0  0  0  0  0  0
    6.5039   12.7069   26.0692 N   0  0  0  0  0  0  0  0  0  0  0  0
    7.4880   12.1623   25.2363 C   0  0  0  0  0  0  0  0  0  0  0  0
    7.6091   10.7812   25.1093 C   0  0  0  0  0  0  0  0  0  0  0  0
    8.5871   10.2336   24.2837 C   0  0  0  0  0  0  0  0  0  0  0  0
    9.4944   11.0505   23.6284 C   0  0  0  0  0  0  0  0  0  0  0  0
    9.4308   12.4338   23.7938 C   0  0  0  0  0  0  0  0  0  0  0  0
   10.5125   13.1660   23.2690 N   0  0  0  0  0  0  0  0  0  0  0  0
   11.4214   13.8395   24.0379 C   0  0  0  0  0  0  0  0  0  0  0  0
   11.5084   13.8739   25.2592 O   0  0  0  0  0  0  0  0  0  0  0  0
   12.3123   14.6450   23.1155 C   0  0  0  0  0  0  0  0  0  0  0  0
   11.6642   14.4685   21.8725 N   0  0  0  0  0  0  0  0  0  0  0  0
   10.4871   13.7940   22.0623 C   0  0  0  0  0  0  0  0  0  0  0  0
    9.5547   13.9193   21.2918 O   0  0  0  0  0  0  0  0  0  0  0  0
    8.3743   13.0087   24.5366 C   0  0  0  0  0  0  0  0  0  0  0  0
    8.2129   14.4984   24.5971 C   0  0  0  0  0  0  0  0  0  0  0  0
  1  2  3  0
  2  3  1  0
  3  4  1  0
  4  5  1  0
  5  6  2  0
  5  7  1  0
  7  8  1  0
  8  9  2  0
  9 10  1  0
 10 11  2  0
 11 12  1  0
 12 13  1  0
 13 14  1  0
 14 15  2  0
 14 16  1  0
 16 17  1  0
 17 18  1  0
 18 19  2  0
 12 20  2  0
 20 21  1  0
 20  8  1  0
 18 13  1  0
M  END
>  <alias>  (368) 
None

>  <rmsd(smina/fragmenstein)>  (368) 
1.563

>  <smiles>  (368) 
C#CCCC(=O)Nc1cccc(N2C(=O)CNC2=O)c1C

>  <gnina_score>  (368) 
5.197

>  <inspiration_score>  (368) 
None

>  <energy_score>  (368) 
-22.559367

>  <distance_score>  (368) 
1.532791

>  <gnina_score_min>  (368) 
5.415

>  <inchikey>  (368) 
GRPDRZTVASWXCO-UHFFFAOYSA-N

>  <exports>  (368) 
['/opt/xchem-fragalysis-2/maxwin/BulkDock/OUTPUTS/openbind_a71ev2a_c2_elabs_1LOUU54.sdf', '/opt/xchem-fragalysis-2/maxwin/BulkDock/OUTPUTS/openbind_a71ev2a_c2_elabs_1LSYIDY.sdf']

>  <name>  (368) 
P545421

>  <ref_pdb>  (368) 
A0884a

>  <subsites>  (368) 
None

>  <HIPPO Pose ID>  (368) 
545421

>  <ref_mols>  (368) 
A0884a

>  <HIPPO Compound ID>  (368) 
383895

>  <tags>  (368) 
openbind_a71ev2a_c2_elabs,syndirella_product,openbind_a71ev2a_c2_elabs_fragonly_scored_top80percent,openbind_a71ev2a_c2_elabs_scored,BulkDock Fragalysis export,openbind_a71ev2a_c2_elabs_scored_top80percent,openbind_a71ev2a_c2_elabs_activefrags_only_scored_5.2plus,syndirella_placed

>  <smina_score_min>  (368) 
-6.244

$$$$
P545423
     RDKit          3D

 21 22  0  0  0  0  0  0  0  0999 V2000
    3.7706   14.8185   29.1344 C   0  0  0  0  0  0  0  0  0  0  0  0
    3.6281   15.2805   27.6880 C   0  0  0  0  0  0  0  0  0  0  0  0
    4.9077   15.2356   26.8444 C   0  0  1  0  0  0  0  0  0  0  0  0
    6.2427   16.1517   27.6182 Cl  0  0  0  0  0  0  0  0  0  0  0  0
    5.3994   13.8033   26.5364 C   0  0  0  0  0  0  0  0  0  0  0  0
    4.8510   12.8350   26.9064 O   0  0  0  0  0  0  0  0  0  0  0  0
    6.6573   13.9682   25.6166 N   0  0  0  0  0  0  0  0  0  0  0  0
    7.5086   13.0125   25.0719 C   0  0  0  0  0  0  0  0  0  0  0  0
    7.2938   11.6524   25.2579 C   0  0  0  0  0  0  0  0  0  0  0  0
    8.1400   10.7304   24.6498 C   0  0  0  0  0  0  0  0  0  0  0  0
    9.2156   11.1513   23.8531 C   0  0  0  0  0  0  0  0  0  0  0  0
    9.9756   10.0802   23.1369 C   0  0  0  0  0  0  0  0  0  0  0  0
    9.4934   12.5274   23.7400 C   0  0  0  0  0  0  0  0  0  0  0  0
   10.6395   13.0138   23.0573 N   0  0  0  0  0  0  0  0  0  0  0  0
   10.5801   13.9786   22.0872 C   0  0  0  0  0  0  0  0  0  0  0  0
    9.5864   14.3897   21.5079 O   0  0  0  0  0  0  0  0  0  0  0  0
   11.9543   14.5469   21.8361 C   0  0  0  0  0  0  0  0  0  0  0  0
   12.6705   13.9433   22.9000 N   0  0  0  0  0  0  0  0  0  0  0  0
   11.8375   13.1966   23.6929 C   0  0  0  0  0  0  0  0  0  0  0  0
   12.1617   12.9009   24.8293 O   0  0  0  0  0  0  0  0  0  0  0  0
    8.6051   13.4450   24.3220 C   0  0  0  0  0  0  0  0  0  0  0  0
  1  2  1  0
  2  3  1  0
  3  4  1  1
  3  5  1  0
  5  6  2  0
  5  7  1  0
  7  8  1  0
  8  9  2  0
  9 10  1  0
 10 11  2  0
 11 12  1  0
 11 13  1  0
 13 14  1  0
 14 15  1  0
 15 16  2  0
 15 17  1  0
 17 18  1  0
 18 19  1  0
 19 20  2  0
 13 21  2  0
 21  8  1  0
 19 14  1  0
M  END
>  <alias>  (369) 
None

>  <rmsd(smina/fragmenstein)>  (369) 
1.856

>  <smiles>  (369) 
CC[C@@H](Cl)C(=O)Nc1ccc(C)c(N2C(=O)CNC2=O)c1

>  <gnina_score>  (369) 
5.172

>  <inspiration_score>  (369) 
None

>  <energy_score>  (369) 
-45.743131

>  <distance_score>  (369) 
1.843355

>  <gnina_score_min>  (369) 
5.212

>  <inchikey>  (369) 
ZUYUGGJPDURMDH-SNVBAGLBSA-N

>  <exports>  (369) 
['/opt/xchem-fragalysis-2/maxwin/BulkDock/OUTPUTS/openbind_a71ev2a_c2_elabs_1LOUU54.sdf', '/opt/xchem-fragalysis-2/maxwin/BulkDock/OUTPUTS/openbind_a71ev2a_c2_elabs_1LSYIDY.sdf']

>  <name>  (369) 
P545423

>  <ref_pdb>  (369) 
A0884a

>  <subsites>  (369) 
None

>  <HIPPO Pose ID>  (369) 
545423

>  <ref_mols>  (369) 
A0884a

>  <HIPPO Compound ID>  (369) 
383898

>  <tags>  (369) 
openbind_a71ev2a_c2_elabs,syndirella_product,openbind_a71ev2a_c2_elabs_fragonly_scored_top80percent,openbind_a71ev2a_c2_elabs_scored,BulkDock Fragalysis export,openbind_a71ev2a_c2_elabs_scored_top80percent,openbind_a71ev2a_c2_elabs_activefrags_only_scored_5.2plus,syndirella_placed

>  <smina_score_min>  (369) 
-6.622

$$$$
P545427
     RDKit          3D

 21 22  0  0  0  0  0  0  0  0999 V2000
   10.0009   10.0905   23.1443 C   0  0  0  0  0  0  0  0  0  0  0  0
    9.2207   11.1504   23.8558 C   0  0  0  0  0  0  0  0  0  0  0  0
    8.1553   10.7065   24.6521 C   0  0  0  0  0  0  0  0  0  0  0  0
    7.2669   11.6089   25.2244 C   0  0  0  0  0  0  0  0  0  0  0  0
    7.4194   12.9699   24.9875 C   0  0  0  0  0  0  0  0  0  0  0  0
    6.4840   13.8894   25.4504 N   0  0  0  0  0  0  0  0  0  0  0  0
    5.2098   13.6845   26.3557 C   0  0  0  0  0  0  0  0  0  0  0  0
    4.7249   12.6983   26.7756 O   0  0  0  0  0  0  0  0  0  0  0  0
    4.5945   15.0978   26.6071 C   0  0  0  0  0  0  0  0  0  0  0  0
    5.9786   16.1985   27.4559 Br  0  0  0  0  0  0  0  0  0  0  0  0
    4.0212   15.7943   24.8743 Br  0  0  0  0  0  0  0  0  0  0  0  0
    3.0528   14.9198   27.8150 Br  0  0  0  0  0  0  0  0  0  0  0  0
    8.5148   13.4290   24.2505 C   0  0  0  0  0  0  0  0  0  0  0  0
    9.4566   12.5329   23.7188 C   0  0  0  0  0  0  0  0  0  0  0  0
   10.6031   13.0416   23.0521 N   0  0  0  0  0  0  0  0  0  0  0  0
   10.5567   14.0217   22.0980 C   0  0  0  0  0  0  0  0  0  0  0  0
    9.5698   14.4484   21.5181 O   0  0  0  0  0  0  0  0  0  0  0  0
   11.9383   14.5765   21.8575 C   0  0  0  0  0  0  0  0  0  0  0  0
   12.6533   13.9292   22.8955 N   0  0  0  0  0  0  0  0  0  0  0  0
   11.8143   13.1750   23.6749 C   0  0  0  0  0  0  0  0  0  0  0  0
   12.1509   12.8331   24.7944 O   0  0  0  0  0  0  0  0  0  0  0  0
  1  2  1  0
  2  3  2  0
  3  4  1  0
  4  5  2  0
  5  6  1  0
  6  7  1  0
  7  8  2  0
  7  9  1  0
  9 10  1  0
  9 11  1  0
  9 12  1  0
  5 13  1  0
 13 14  2  0
 14 15  1  0
 15 16  1  0
 16 17  2  0
 16 18  1  0
 18 19  1  0
 19 20  1  0
 20 21  2  0
 14  2  1  0
 20 15  1  0
M  END
>  <alias>  (370) 
None

>  <rmsd(smina/fragmenstein)>  (370) 
0.719

>  <smiles>  (370) 
Cc1ccc(NC(=O)C(Br)(Br)Br)cc1N1C(=O)CNC1=O

>  <gnina_score>  (370) 
5.353

>  <inspiration_score>  (370) 
None

>  <energy_score>  (370) 
-36.225133

>  <distance_score>  (370) 
1.846858

>  <gnina_score_min>  (370) 
5.211

>  <inchikey>  (370) 
YKQWYDBWGFXXNV-UHFFFAOYSA-N

>  <exports>  (370) 
['/opt/xchem-fragalysis-2/maxwin/BulkDock/OUTPUTS/openbind_a71ev2a_c2_elabs_1LOUU54.sdf', '/opt/xchem-fragalysis-2/maxwin/BulkDock/OUTPUTS/openbind_a71ev2a_c2_elabs_1LSYIDY.sdf']

>  <name>  (370) 
P545427

>  <ref_pdb>  (370) 
A0884a

>  <subsites>  (370) 
None

>  <HIPPO Pose ID>  (370) 
545427

>  <ref_mols>  (370) 
A0884a

>  <HIPPO Compound ID>  (370) 
383903

>  <tags>  (370) 
openbind_a71ev2a_c2_elabs,syndirella_product,openbind_a71ev2a_c2_elabs_fragonly_scored_top80percent,openbind_a71ev2a_c2_elabs_scored,BulkDock Fragalysis export,openbind_a71ev2a_c2_elabs_scored_top80percent,openbind_a71ev2a_c2_elabs_activefrags_only_scored_5.2plus,syndirella_placed

>  <smina_score_min>  (370) 
-6.571

$$$$
P545428
     RDKit          3D

 21 22  0  0  0  0  0  0  0  0999 V2000
    8.8726   14.7548   21.8707 O   0  0  0  0  0  0  0  0  0  0  0  0
    9.9692   14.3908   22.2677 C   0  0  0  0  0  0  0  0  0  0  0  0
   11.0483   15.1279   21.8972 N   0  0  0  0  0  0  0  0  0  0  0  0
   12.4127   14.7442   22.1010 C   0  0  0  0  0  0  0  0  0  0  0  0
   12.4818   13.9944   23.4023 C   0  0  0  0  0  0  0  0  0  0  0  0
   11.5359   12.8394   23.2386 C   0  0  0  0  0  0  0  0  0  0  0  0
   10.1895   13.3131   23.0965 N   0  0  0  0  0  0  0  0  0  0  0  0
    9.1395   12.5739   23.7063 C   0  0  0  0  0  0  0  0  0  0  0  0
    8.0449   13.2552   24.2486 C   0  0  0  0  0  0  0  0  0  0  0  0
    7.1031   12.5839   25.0316 C   0  0  0  0  0  0  0  0  0  0  0  0
    6.0738   13.3294   25.5917 N   0  0  0  0  0  0  0  0  0  0  0  0
    4.9601   12.9179   26.6226 C   0  0  0  0  0  0  0  0  0  0  0  0
    4.7046   11.8695   27.0883 O   0  0  0  0  0  0  0  0  0  0  0  0
    4.1607   14.2142   26.9738 C   0  0  0  0  0  0  0  0  0  0  0  0
    5.4160   15.4186   27.8774 Br  0  0  0  0  0  0  0  0  0  0  0  0
    3.4661   14.9744   25.3118 Br  0  0  0  0  0  0  0  0  0  0  0  0
    2.6760   13.7434   28.1712 Br  0  0  0  0  0  0  0  0  0  0  0  0
    7.2161   11.2099   25.2345 C   0  0  0  0  0  0  0  0  0  0  0  0
    8.2507   10.5063   24.6230 C   0  0  0  0  0  0  0  0  0  0  0  0
    9.2081   11.1865   23.8833 C   0  0  0  0  0  0  0  0  0  0  0  0
   10.1942   10.4687   23.3319 F   0  0  0  0  0  0  0  0  0  0  0  0
  1  2  2  0
  2  3  1  0
  3  4  1  0
  4  5  1  0
  5  6  1  0
  6  7  1  0
  7  8  1  0
  8  9  2  0
  9 10  1  0
 10 11  1  0
 11 12  1  0
 12 13  2  0
 12 14  1  0
 14 15  1  0
 14 16  1  0
 14 17  1  0
 10 18  2  0
 18 19  1  0
 19 20  2  0
 20 21  1  0
  7  2  1  0
 20  8  1  0
M  END
>  <alias>  (371) 
None

>  <rmsd(smina/fragmenstein)>  (371) 
0.611

>  <smiles>  (371) 
O=C1NCCCN1c1cc(NC(=O)C(Br)(Br)Br)ccc1F

>  <gnina_score>  (371) 
5.59

>  <inspiration_score>  (371) 
None

>  <energy_score>  (371) 
-33.104803

>  <distance_score>  (371) 
1.863178

>  <gnina_score_min>  (371) 
5.619

>  <inchikey>  (371) 
AZUGOVJTGGRDFG-UHFFFAOYSA-N

>  <exports>  (371) 
['/opt/xchem-fragalysis-2/maxwin/BulkDock/OUTPUTS/openbind_a71ev2a_c2_elabs_1LOUU54.sdf', '/opt/xchem-fragalysis-2/maxwin/BulkDock/OUTPUTS/openbind_a71ev2a_c2_elabs_1LSYIDY.sdf']

>  <name>  (371) 
P545428

>  <ref_pdb>  (371) 
A0884a

>  <subsites>  (371) 
None

>  <HIPPO Pose ID>  (371) 
545428

>  <ref_mols>  (371) 
A0884a

>  <HIPPO Compound ID>  (371) 
383905

>  <tags>  (371) 
openbind_a71ev2a_c2_elabs,syndirella_product,openbind_a71ev2a_c2_elabs_fragonly_scored_top80percent,BulkDock Fragalysis export,openbind_a71ev2a_c2_elabs_scored,openbind_a71ev2a_c2_elabs_scored_top80percent,openbind_a71ev2a_c2_elabs_activefrags_only_scored_5.2plus,openbind_a71ev2a_c2_elabs_activefrags_only_scored_5.5plus,syndirella_placed

>  <smina_score_min>  (371) 
-6.993

$$$$
P545429
     RDKit          3D

 21 22  0  0  0  0  0  0  0  0999 V2000
    7.3740   14.9489   24.2621 C   0  0  0  0  0  0  0  0  0  0  0  0
    7.8086   13.5112   24.3669 C   0  0  0  0  0  0  0  0  0  0  0  0
    7.0661   12.5903   25.1476 C   0  0  0  0  0  0  0  0  0  0  0  0
    5.9997   13.0521   25.9276 N   0  0  0  0  0  0  0  0  0  0  0  0
    5.1474   12.3610   26.8870 C   0  0  0  0  0  0  0  0  0  0  0  0
    5.0940   11.1991   27.1931 O   0  0  0  0  0  0  0  0  0  0  0  0
    4.2126   13.3941   27.6031 C   0  0  0  0  0  0  0  0  0  0  0  0
    5.3609   14.3926   28.8370 Br  0  0  0  0  0  0  0  0  0  0  0  0
    2.7992   12.4349   28.5751 Br  0  0  0  0  0  0  0  0  0  0  0  0
    3.3958   14.5676   26.2603 Br  0  0  0  0  0  0  0  0  0  0  0  0
    7.4210   11.2366   25.1709 C   0  0  0  0  0  0  0  0  0  0  0  0
    8.5235   10.7886   24.4523 C   0  0  0  0  0  0  0  0  0  0  0  0
    9.3214   11.7055   23.7876 C   0  0  0  0  0  0  0  0  0  0  0  0
   10.3970   11.2476   23.1370 F   0  0  0  0  0  0  0  0  0  0  0  0
    9.0072   13.0709   23.7629 C   0  0  0  0  0  0  0  0  0  0  0  0
    9.9454   13.9974   23.2285 N   0  0  0  0  0  0  0  0  0  0  0  0
    9.8703   14.3992   21.8337 C   0  0  0  0  0  0  0  0  0  0  0  0
   11.2649   14.9067   21.4987 C   0  0  0  0  0  0  0  0  0  0  0  0
   12.0787   14.4142   22.5688 N   0  0  0  0  0  0  0  0  0  0  0  0
   11.3089   13.8984   23.5940 C   0  0  0  0  0  0  0  0  0  0  0  0
   11.7602   13.4739   24.6474 O   0  0  0  0  0  0  0  0  0  0  0  0
  1  2  1  0
  2  3  2  0
  3  4  1  0
  4  5  1  0
  5  6  2  0
  5  7  1  0
  7  8  1  0
  7  9  1  0
  7 10  1  0
  3 11  1  0
 11 12  2  0
 12 13  1  0
 13 14  1  0
 13 15  2  0
 15 16  1  0
 16 17  1  0
 17 18  1  0
 18 19  1  0
 19 20  1  0
 20 21  2  0
 15  2  1  0
 20 16  1  0
M  END
>  <alias>  (372) 
None

>  <rmsd(smina/fragmenstein)>  (372) 
0.678

>  <smiles>  (372) 
Cc1c(NC(=O)C(Br)(Br)Br)ccc(F)c1N1CCNC1=O

>  <gnina_score>  (372) 
5.254

>  <inspiration_score>  (372) 
None

>  <energy_score>  (372) 
-34.432701

>  <distance_score>  (372) 
1.352272

>  <gnina_score_min>  (372) 
5.329

>  <inchikey>  (372) 
AAHIDDKCFFUNRC-UHFFFAOYSA-N

>  <exports>  (372) 
['/opt/xchem-fragalysis-2/maxwin/BulkDock/OUTPUTS/openbind_a71ev2a_c2_elabs_1LOUU54.sdf', '/opt/xchem-fragalysis-2/maxwin/BulkDock/OUTPUTS/openbind_a71ev2a_c2_elabs_1LSYIDY.sdf']

>  <name>  (372) 
P545429

>  <ref_pdb>  (372) 
A0884a

>  <subsites>  (372) 
None

>  <HIPPO Pose ID>  (372) 
545429

>  <ref_mols>  (372) 
A0884a

>  <HIPPO Compound ID>  (372) 
383906

>  <tags>  (372) 
openbind_a71ev2a_c2_elabs,syndirella_product,openbind_a71ev2a_c2_elabs_fragonly_scored_top80percent,openbind_a71ev2a_c2_elabs_scored,BulkDock Fragalysis export,openbind_a71ev2a_c2_elabs_scored_top80percent,openbind_a71ev2a_c2_elabs_activefrags_only_scored_5.2plus,syndirella_placed

>  <smina_score_min>  (372) 
-6.29

$$$$
P545431
     RDKit          3D

 21 22  0  0  0  0  0  0  0  0999 V2000
    8.2154   14.4947   24.6120 C   0  0  0  0  0  0  0  0  0  0  0  0
    8.3839   13.0057   24.5475 C   0  0  0  0  0  0  0  0  0  0  0  0
    7.4927   12.1537   25.2312 C   0  0  0  0  0  0  0  0  0  0  0  0
    6.5049   12.6899   26.0614 N   0  0  0  0  0  0  0  0  0  0  0  0
    5.5181   11.9831   27.0604 C   0  0  0  0  0  0  0  0  0  0  0  0
    5.3397   10.8417   27.2730 O   0  0  0  0  0  0  0  0  0  0  0  0
    4.7589   13.1103   27.8272 C   0  0  0  0  0  0  0  0  0  0  0  0
    6.1014   14.0299   28.9218 Br  0  0  0  0  0  0  0  0  0  0  0  0
    3.3774   12.2984   28.9617 Br  0  0  0  0  0  0  0  0  0  0  0  0
    3.9291   14.3100   26.5238 Br  0  0  0  0  0  0  0  0  0  0  0  0
    7.6046   10.7739   25.0852 C   0  0  0  0  0  0  0  0  0  0  0  0
    8.5873   10.2326   24.2616 C   0  0  0  0  0  0  0  0  0  0  0  0
    9.4995   11.0545   23.6201 C   0  0  0  0  0  0  0  0  0  0  0  0
    9.4389   12.4362   23.8006 C   0  0  0  0  0  0  0  0  0  0  0  0
   10.5211   13.1706   23.2828 N   0  0  0  0  0  0  0  0  0  0  0  0
   11.4157   13.8588   24.0545 C   0  0  0  0  0  0  0  0  0  0  0  0
   11.4817   13.9128   25.2762 O   0  0  0  0  0  0  0  0  0  0  0  0
   12.3184   14.6497   23.1312 C   0  0  0  0  0  0  0  0  0  0  0  0
   11.6846   14.4580   21.8826 N   0  0  0  0  0  0  0  0  0  0  0  0
   10.5051   13.7870   22.0700 C   0  0  0  0  0  0  0  0  0  0  0  0
    9.5774   13.9080   21.2931 O   0  0  0  0  0  0  0  0  0  0  0  0
  1  2  1  0
  2  3  2  0
  3  4  1  0
  4  5  1  0
  5  6  2  0
  5  7  1  0
  7  8  1  0
  7  9  1  0
  7 10  1  0
  3 11  1  0
 11 12  2  0
 12 13  1  0
 13 14  2  0
 14 15  1  0
 15 16  1  0
 16 17  2  0
 16 18  1  0
 18 19  1  0
 19 20  1  0
 20 21  2  0
 14  2  1  0
 20 15  1  0
M  END
>  <alias>  (373) 
None

>  <rmsd(smina/fragmenstein)>  (373) 
0.634

>  <smiles>  (373) 
Cc1c(NC(=O)C(Br)(Br)Br)cccc1N1C(=O)CNC1=O

>  <gnina_score>  (373) 
5.365

>  <inspiration_score>  (373) 
None

>  <energy_score>  (373) 
-33.27963

>  <distance_score>  (373) 
1.52551

>  <gnina_score_min>  (373) 
5.425

>  <inchikey>  (373) 
ODKGRNHMEBVSLY-UHFFFAOYSA-N

>  <exports>  (373) 
['/opt/xchem-fragalysis-2/maxwin/BulkDock/OUTPUTS/openbind_a71ev2a_c2_elabs_1LOUU54.sdf', '/opt/xchem-fragalysis-2/maxwin/BulkDock/OUTPUTS/openbind_a71ev2a_c2_elabs_1LSYIDY.sdf']

>  <name>  (373) 
P545431

>  <ref_pdb>  (373) 
A0884a

>  <subsites>  (373) 
None

>  <HIPPO Pose ID>  (373) 
545431

>  <ref_mols>  (373) 
A0884a

>  <HIPPO Compound ID>  (373) 
383910

>  <tags>  (373) 
openbind_a71ev2a_c2_elabs,syndirella_product,openbind_a71ev2a_c2_elabs_fragonly_scored_top80percent,openbind_a71ev2a_c2_elabs_scored,BulkDock Fragalysis export,openbind_a71ev2a_c2_elabs_scored_top80percent,openbind_a71ev2a_c2_elabs_activefrags_only_scored_5.2plus,syndirella_placed

>  <smina_score_min>  (373) 
-6.693

$$$$
P545432
     RDKit          3D

 21 22  0  0  0  0  0  0  0  0999 V2000
    7.7702   14.6509   24.6184 C   0  0  0  0  0  0  0  0  0  0  0  0
    8.1328   13.1993   24.4550 C   0  0  0  0  0  0  0  0  0  0  0  0
    7.4425   12.1977   25.1741 C   0  0  0  0  0  0  0  0  0  0  0  0
    6.4730   12.5635   26.1130 N   0  0  0  0  0  0  0  0  0  0  0  0
    5.6207   11.6820   27.0936 C   0  0  0  0  0  0  0  0  0  0  0  0
    5.5523   10.5152   27.2017 O   0  0  0  0  0  0  0  0  0  0  0  0
    4.8477   12.6565   28.0339 C   0  0  0  0  0  0  0  0  0  0  0  0
    3.9146   13.9955   26.9521 Br  0  0  0  0  0  0  0  0  0  0  0  0
    6.1972   13.4681   29.2021 Br  0  0  0  0  0  0  0  0  0  0  0  0
    3.5419   11.6355   29.0875 Br  0  0  0  0  0  0  0  0  0  0  0  0
    7.7641   10.8511   24.9883 C   0  0  0  0  0  0  0  0  0  0  0  0
    8.8000   10.4827   24.1335 C   0  0  0  0  0  0  0  0  0  0  0  0
    9.5453   11.4631   23.4913 C   0  0  0  0  0  0  0  0  0  0  0  0
    9.2314   12.8188   23.6552 C   0  0  0  0  0  0  0  0  0  0  0  0
   10.0903   13.7889   23.0528 N   0  0  0  0  0  0  0  0  0  0  0  0
    9.7063   14.2644   21.7236 C   0  0  0  0  0  0  0  0  0  0  0  0
   10.6735   15.2435   21.0927 C   0  0  0  0  0  0  0  0  0  0  0  0
   12.0800   14.7489   21.3123 C   0  0  0  0  0  0  0  0  0  0  0  0
   12.3071   14.4562   22.6961 N   0  0  0  0  0  0  0  0  0  0  0  0
   11.3977   13.8589   23.5129 C   0  0  0  0  0  0  0  0  0  0  0  0
   11.7650   13.4533   24.6148 O   0  0  0  0  0  0  0  0  0  0  0  0
  1  2  1  0
  2  3  2  0
  3  4  1  0
  4  5  1  0
  5  6  2  0
  5  7  1  0
  7  8  1  0
  7  9  1  0
  7 10  1  0
  3 11  1  0
 11 12  2  0
 12 13  1  0
 13 14  2  0
 14 15  1  0
 15 16  1  0
 16 17  1  0
 17 18  1  0
 18 19  1  0
 19 20  1  0
 20 21  2  0
 14  2  1  0
 20 15  1  0
M  END
>  <alias>  (374) 
None

>  <rmsd(smina/fragmenstein)>  (374) 
0.351

>  <smiles>  (374) 
Cc1c(NC(=O)C(Br)(Br)Br)cccc1N1CCCNC1=O

>  <gnina_score>  (374) 
5.193

>  <inspiration_score>  (374) 
None

>  <energy_score>  (374) 
-17.506742

>  <distance_score>  (374) 
1.147204

>  <gnina_score_min>  (374) 
5.301

>  <inchikey>  (374) 
NVTSMKBFSWAXKC-UHFFFAOYSA-N

>  <exports>  (374) 
['/opt/xchem-fragalysis-2/maxwin/BulkDock/OUTPUTS/openbind_a71ev2a_c2_elabs_1LOUU54.sdf', '/opt/xchem-fragalysis-2/maxwin/BulkDock/OUTPUTS/openbind_a71ev2a_c2_elabs_1LSYIDY.sdf']

>  <name>  (374) 
P545432

>  <ref_pdb>  (374) 
A0884a

>  <subsites>  (374) 
None

>  <HIPPO Pose ID>  (374) 
545432

>  <ref_mols>  (374) 
A0884a

>  <HIPPO Compound ID>  (374) 
383911

>  <tags>  (374) 
openbind_a71ev2a_c2_elabs,syndirella_product,openbind_a71ev2a_c2_elabs_fragonly_scored_top80percent,openbind_a71ev2a_c2_elabs_scored,BulkDock Fragalysis export,openbind_a71ev2a_c2_elabs_scored_top80percent,openbind_a71ev2a_c2_elabs_activefrags_only_scored_5.2plus,syndirella_placed

>  <smina_score_min>  (374) 
-7.089

$$$$
P545433
     RDKit          3D

 21 22  0  0  0  0  0  0  0  0999 V2000
    8.9166   14.2822   21.2668 O   0  0  0  0  0  0  0  0  0  0  0  0
   10.0300   14.1168   21.7507 C   0  0  0  0  0  0  0  0  0  0  0  0
   11.2884   14.8536   21.3231 C   0  0  0  0  0  0  0  0  0  0  0  0
   12.2326   14.3869   22.3028 N   0  0  0  0  0  0  0  0  0  0  0  0
   11.6167   13.5641   23.2242 C   0  0  0  0  0  0  0  0  0  0  0  0
   12.1029   13.2819   24.3094 O   0  0  0  0  0  0  0  0  0  0  0  0
   10.3694   13.2467   22.7582 N   0  0  0  0  0  0  0  0  0  0  0  0
    9.4311   12.5510   23.5327 C   0  0  0  0  0  0  0  0  0  0  0  0
    9.5116   11.1613   23.6330 C   0  0  0  0  0  0  0  0  0  0  0  0
    8.5682   10.4648   24.3884 C   0  0  0  0  0  0  0  0  0  0  0  0
    7.5569   11.1482   25.0697 C   0  0  0  0  0  0  0  0  0  0  0  0
    7.4668   12.5339   24.9601 C   0  0  0  0  0  0  0  0  0  0  0  0
    6.4671   13.2712   25.5869 N   0  0  0  0  0  0  0  0  0  0  0  0
    5.2749   12.8047   26.4966 C   0  0  0  0  0  0  0  0  0  0  0  0
    5.0078   11.7391   26.9128 O   0  0  0  0  0  0  0  0  0  0  0  0
    4.4362   14.0773   26.8424 C   0  0  0  0  0  0  0  0  0  0  0  0
    2.8277   13.5313   27.8332 Br  0  0  0  0  0  0  0  0  0  0  0  0
    3.9269   14.9648   25.1776 Br  0  0  0  0  0  0  0  0  0  0  0  0
    5.5808   15.2061   27.9659 Br  0  0  0  0  0  0  0  0  0  0  0  0
    8.4012   13.2248   24.1872 C   0  0  0  0  0  0  0  0  0  0  0  0
    8.3315   14.5656   24.1318 F   0  0  0  0  0  0  0  0  0  0  0  0
  1  2  2  0
  2  3  1  0
  3  4  1  0
  4  5  1  0
  5  6  2  0
  5  7  1  0
  7  8  1  0
  8  9  2  0
  9 10  1  0
 10 11  2  0
 11 12  1  0
 12 13  1  0
 13 14  1  0
 14 15  2  0
 14 16  1  0
 16 17  1  0
 16 18  1  0
 16 19  1  0
 12 20  2  0
 20 21  1  0
  7  2  1  0
 20  8  1  0
M  END
>  <alias>  (375) 
None

>  <rmsd(smina/fragmenstein)>  (375) 
0.575

>  <smiles>  (375) 
O=C1CNC(=O)N1c1cccc(NC(=O)C(Br)(Br)Br)c1F

>  <gnina_score>  (375) 
5.242

>  <inspiration_score>  (375) 
None

>  <energy_score>  (375) 
-22.457389

>  <distance_score>  (375) 
1.182386

>  <gnina_score_min>  (375) 
5.363

>  <inchikey>  (375) 
YUYWHULVZODENA-UHFFFAOYSA-N

>  <exports>  (375) 
['/opt/xchem-fragalysis-2/maxwin/BulkDock/OUTPUTS/openbind_a71ev2a_c2_elabs_1LOUU54.sdf', '/opt/xchem-fragalysis-2/maxwin/BulkDock/OUTPUTS/openbind_a71ev2a_c2_elabs_1LSYIDY.sdf']

>  <name>  (375) 
P545433

>  <ref_pdb>  (375) 
A0884a

>  <subsites>  (375) 
None

>  <HIPPO Pose ID>  (375) 
545433

>  <ref_mols>  (375) 
A0884a

>  <HIPPO Compound ID>  (375) 
383912

>  <tags>  (375) 
openbind_a71ev2a_c2_elabs,syndirella_product,openbind_a71ev2a_c2_elabs_fragonly_scored_top80percent,openbind_a71ev2a_c2_elabs_scored,BulkDock Fragalysis export,openbind_a71ev2a_c2_elabs_scored_top80percent,openbind_a71ev2a_c2_elabs_activefrags_only_scored_5.2plus,syndirella_placed

>  <smina_score_min>  (375) 
-6.806

$$$$
P545435
     RDKit          3D

 21 22  0  0  0  0  0  0  0  0999 V2000
    5.1117   11.5263   27.0232 O   0  0  0  0  0  0  0  0  0  0  0  0
    5.2257   12.5804   26.5303 C   0  0  0  0  0  0  0  0  0  0  0  0
    4.3099   13.7670   26.8231 C   0  0  0  0  0  0  0  0  0  0  0  0
    3.1639   13.4244   27.7697 C   0  0  0  0  0  0  0  0  0  0  0  0
    3.6156   13.1870   29.2003 C   0  0  0  0  0  0  0  0  0  0  0  0
    2.5072   12.9769   29.9631 F   0  0  0  0  0  0  0  0  0  0  0  0
    6.2341   13.0889   25.4575 N   0  0  0  0  0  0  0  0  0  0  0  0
    7.3216   12.4543   24.8690 C   0  0  0  0  0  0  0  0  0  0  0  0
    7.5767   11.0965   25.0417 C   0  0  0  0  0  0  0  0  0  0  0  0
    8.6568   10.5061   24.3829 C   0  0  0  0  0  0  0  0  0  0  0  0
    9.5265   11.2814   23.6179 C   0  0  0  0  0  0  0  0  0  0  0  0
    9.2857   12.6465   23.4566 C   0  0  0  0  0  0  0  0  0  0  0  0
   10.1734   13.4605   22.6960 N   0  0  0  0  0  0  0  0  0  0  0  0
   11.4846   13.5938   23.1546 C   0  0  0  0  0  0  0  0  0  0  0  0
   11.9688   13.0053   24.1209 O   0  0  0  0  0  0  0  0  0  0  0  0
   12.2938   14.6715   22.5137 C   0  0  0  0  0  0  0  0  0  0  0  0
   11.9539   14.7214   21.0594 C   0  0  0  0  0  0  0  0  0  0  0  0
   10.5459   14.9636   20.9339 N   0  0  0  0  0  0  0  0  0  0  0  0
    9.6429   14.2265   21.6526 C   0  0  0  0  0  0  0  0  0  0  0  0
    8.4554   14.2644   21.3316 O   0  0  0  0  0  0  0  0  0  0  0  0
    8.1578   13.2186   24.0558 C   0  0  0  0  0  0  0  0  0  0  0  0
  1  2  2  0
  2  3  1  0
  3  4  1  0
  4  5  1  0
  5  6  1  0
  2  7  1  0
  7  8  1  0
  8  9  2  0
  9 10  1  0
 10 11  2  0
 11 12  1  0
 12 13  1  0
 13 14  1  0
 14 15  2  0
 14 16  1  0
 16 17  1  0
 17 18  1  0
 18 19  1  0
 19 20  2  0
 12 21  2  0
 21  8  1  0
 19 13  1  0
M  END
>  <alias>  (376) 
None

>  <rmsd(smina/fragmenstein)>  (376) 
0.912

>  <smiles>  (376) 
O=C(CCCF)Nc1cccc(N2C(=O)CCNC2=O)c1

>  <gnina_score>  (376) 
5.117

>  <inspiration_score>  (376) 
None

>  <energy_score>  (376) 
-45.468945

>  <distance_score>  (376) 
1.427786

>  <gnina_score_min>  (376) 
5.243

>  <inchikey>  (376) 
BJETVXJACMNLJW-UHFFFAOYSA-N

>  <exports>  (376) 
['/opt/xchem-fragalysis-2/maxwin/BulkDock/OUTPUTS/openbind_a71ev2a_c2_elabs_1LOUU54.sdf', '/opt/xchem-fragalysis-2/maxwin/BulkDock/OUTPUTS/openbind_a71ev2a_c2_elabs_1LSYIDY.sdf']

>  <name>  (376) 
P545435

>  <ref_pdb>  (376) 
A0884a

>  <subsites>  (376) 
None

>  <HIPPO Pose ID>  (376) 
545435

>  <ref_mols>  (376) 
A0884a

>  <HIPPO Compound ID>  (376) 
383915

>  <tags>  (376) 
openbind_a71ev2a_c2_elabs,syndirella_product,openbind_a71ev2a_c2_elabs_fragonly_scored_top80percent,openbind_a71ev2a_c2_elabs_scored,BulkDock Fragalysis export,openbind_a71ev2a_c2_elabs_scored_top80percent,openbind_a71ev2a_c2_elabs_activefrags_only_scored_5.2plus,syndirella_placed

>  <smina_score_min>  (376) 
-6.692

$$$$
P545436
     RDKit          3D

 21 22  0  0  0  0  0  0  0  0999 V2000
    8.2565   14.5345   24.8860 C   0  0  0  0  0  0  0  0  0  0  0  0
    8.3645   13.0438   24.7557 C   0  0  0  0  0  0  0  0  0  0  0  0
    7.4556   12.1991   25.4327 C   0  0  0  0  0  0  0  0  0  0  0  0
    6.5409   12.7463   26.3372 N   0  0  0  0  0  0  0  0  0  0  0  0
    5.5332   12.0507   27.3047 C   0  0  0  0  0  0  0  0  0  0  0  0
    5.2637   10.9179   27.4335 O   0  0  0  0  0  0  0  0  0  0  0  0
    4.8142   13.1595   28.0971 C   0  0  2  0  0  0  0  0  0  0  0  0
    3.8638   13.9530   27.2112 C   0  0  0  0  0  0  0  0  0  0  0  0
    6.0265   14.2721   28.8988 S   0  0  0  0  0  0  0  0  0  0  0  0
    7.4924   10.8232   25.2154 C   0  0  0  0  0  0  0  0  0  0  0  0
    8.4263   10.2787   24.3392 C   0  0  0  0  0  0  0  0  0  0  0  0
    9.3416   11.0970   23.7036 C   0  0  0  0  0  0  0  0  0  0  0  0
   10.2395   10.5336   22.8898 F   0  0  0  0  0  0  0  0  0  0  0  0
    9.3633   12.4705   23.9384 C   0  0  0  0  0  0  0  0  0  0  0  0
   10.4531   13.1853   23.4050 N   0  0  0  0  0  0  0  0  0  0  0  0
   11.3713   13.8794   24.1394 C   0  0  0  0  0  0  0  0  0  0  0  0
   11.4513   13.9766   25.3575 O   0  0  0  0  0  0  0  0  0  0  0  0
   12.2914   14.6041   23.1775 C   0  0  0  0  0  0  0  0  0  0  0  0
   11.6544   14.3600   21.9398 N   0  0  0  0  0  0  0  0  0  0  0  0
   10.4599   13.7265   22.1578 C   0  0  0  0  0  0  0  0  0  0  0  0
    9.5321   13.8327   21.3791 O   0  0  0  0  0  0  0  0  0  0  0  0
  1  2  1  0
  2  3  2  0
  3  4  1  0
  4  5  1  0
  5  6  2  0
  5  7  1  0
  7  8  1  6
  7  9  1  0
  3 10  1  0
 10 11  2  0
 11 12  1  0
 12 13  1  0
 12 14  2  0
 14 15  1  0
 15 16  1  0
 16 17  2  0
 16 18  1  0
 18 19  1  0
 19 20  1  0
 20 21  2  0
 14  2  1  0
 20 15  1  0
M  END
>  <alias>  (377) 
None

>  <rmsd(smina/fragmenstein)>  (377) 
0.403

>  <smiles>  (377) 
Cc1c(NC(=O)[C@H](C)S)ccc(F)c1N1C(=O)CNC1=O

>  <gnina_score>  (377) 
5.525

>  <inspiration_score>  (377) 
None

>  <energy_score>  (377) 
-48.178473

>  <distance_score>  (377) 
1.553846

>  <gnina_score_min>  (377) 
5.473

>  <inchikey>  (377) 
PFZLXCIPMBHAIE-ZETCQYMHSA-N

>  <exports>  (377) 
['/opt/xchem-fragalysis-2/maxwin/BulkDock/OUTPUTS/openbind_a71ev2a_c2_elabs_1LOUU54.sdf', '/opt/xchem-fragalysis-2/maxwin/BulkDock/OUTPUTS/openbind_a71ev2a_c2_elabs_1LSYIDY.sdf']

>  <name>  (377) 
P545436

>  <ref_pdb>  (377) 
A0884a

>  <subsites>  (377) 
None

>  <HIPPO Pose ID>  (377) 
545436

>  <ref_mols>  (377) 
A0884a

>  <HIPPO Compound ID>  (377) 
383916

>  <tags>  (377) 
openbind_a71ev2a_c2_elabs,syndirella_product,openbind_a71ev2a_c2_elabs_fragonly_scored_top80percent,openbind_a71ev2a_c2_elabs_scored,BulkDock Fragalysis export,openbind_a71ev2a_c2_elabs_scored_top80percent,openbind_a71ev2a_c2_elabs_activefrags_only_scored_5.2plus,syndirella_placed

>  <smina_score_min>  (377) 
-6.417

$$$$
P545438
     RDKit          3D

 21 22  0  0  0  0  0  0  0  0999 V2000
    8.3064   14.3415   25.0742 C   0  0  0  0  0  0  0  0  0  0  0  0
    8.5280   12.8819   24.8087 C   0  0  0  0  0  0  0  0  0  0  0  0
    7.7155   11.8834   25.3735 C   0  0  0  0  0  0  0  0  0  0  0  0
    6.7720   12.0302   26.4001 N   0  0  0  0  0  0  0  0  0  0  0  0
    6.6182   13.1452   27.4852 C   0  0  0  0  0  0  0  0  0  0  0  0
    7.2087   14.1443   27.6342 O   0  0  0  0  0  0  0  0  0  0  0  0
    5.4929   12.6991   28.4132 C   0  0  0  0  0  0  0  0  0  0  0  0
    4.1298   12.7604   27.7364 C   0  0  0  0  0  0  0  0  0  0  0  0
    3.0630   12.0471   28.5472 C   0  0  0  0  0  0  0  0  0  0  0  0
    1.9719   11.8522   27.7543 F   0  0  0  0  0  0  0  0  0  0  0  0
    7.8286   10.5662   24.9071 C   0  0  0  0  0  0  0  0  0  0  0  0
    8.7570   10.2159   23.9355 C   0  0  0  0  0  0  0  0  0  0  0  0
    9.5897   11.1806   23.4096 C   0  0  0  0  0  0  0  0  0  0  0  0
    9.5118   12.4985   23.8648 C   0  0  0  0  0  0  0  0  0  0  0  0
   10.4937   13.3636   23.3652 N   0  0  0  0  0  0  0  0  0  0  0  0
   11.4535   14.0038   24.0932 C   0  0  0  0  0  0  0  0  0  0  0  0
   11.6031   14.0277   25.3072 O   0  0  0  0  0  0  0  0  0  0  0  0
   12.3398   14.7521   23.1163 C   0  0  0  0  0  0  0  0  0  0  0  0
   11.6878   14.5195   21.8848 N   0  0  0  0  0  0  0  0  0  0  0  0
   10.5128   13.8556   22.0981 C   0  0  0  0  0  0  0  0  0  0  0  0
    9.6131   13.8671   21.2810 O   0  0  0  0  0  0  0  0  0  0  0  0
  1  2  1  0
  2  3  2  0
  3  4  1  0
  4  5  1  0
  5  6  2  0
  5  7  1  0
  7  8  1  0
  8  9  1  0
  9 10  1  0
  3 11  1  0
 11 12  2  0
 12 13  1  0
 13 14  2  0
 14 15  1  0
 15 16  1  0
 16 17  2  0
 16 18  1  0
 18 19  1  0
 19 20  1  0
 20 21  2  0
 14  2  1  0
 20 15  1  0
M  END
>  <alias>  (378) 
None

>  <rmsd(smina/fragmenstein)>  (378) 
0.603

>  <smiles>  (378) 
Cc1c(NC(=O)CCCF)cccc1N1C(=O)CNC1=O

>  <gnina_score>  (378) 
5.171

>  <inspiration_score>  (378) 
None

>  <energy_score>  (378) 
-39.090479

>  <distance_score>  (378) 
1.554741

>  <gnina_score_min>  (378) 
5.221

>  <inchikey>  (378) 
JOAPSOHATBDIRB-UHFFFAOYSA-N

>  <exports>  (378) 
['/opt/xchem-fragalysis-2/maxwin/BulkDock/OUTPUTS/openbind_a71ev2a_c2_elabs_1LOUU54.sdf', '/opt/xchem-fragalysis-2/maxwin/BulkDock/OUTPUTS/openbind_a71ev2a_c2_elabs_1LSYIDY.sdf']

>  <name>  (378) 
P545438

>  <ref_pdb>  (378) 
A0884a

>  <subsites>  (378) 
None

>  <HIPPO Pose ID>  (378) 
545438

>  <ref_mols>  (378) 
A0884a

>  <HIPPO Compound ID>  (378) 
383917

>  <tags>  (378) 
openbind_a71ev2a_c2_elabs,syndirella_product,openbind_a71ev2a_c2_elabs_fragonly_scored_top80percent,openbind_a71ev2a_c2_elabs_scored,BulkDock Fragalysis export,openbind_a71ev2a_c2_elabs_scored_top80percent,openbind_a71ev2a_c2_elabs_activefrags_only_scored_5.2plus,syndirella_placed

>  <smina_score_min>  (378) 
-6.047

$$$$
P545439
     RDKit          3D

 21 22  0  0  0  0  0  0  0  0999 V2000
    4.9898   11.8994   26.8158 O   0  0  0  0  0  0  0  0  0  0  0  0
    5.3423   12.9464   26.4313 C   0  0  0  0  0  0  0  0  0  0  0  0
    4.5640   14.2389   26.7007 C   0  0  0  0  0  0  0  0  0  0  0  0
    3.0482   14.0375   26.6968 C   0  0  0  0  0  0  0  0  0  0  0  0
    2.5087   13.2631   27.8875 C   0  0  0  0  0  0  0  0  0  0  0  0
    1.1522   13.1744   27.7608 F   0  0  0  0  0  0  0  0  0  0  0  0
    6.6057   13.3479   25.6118 N   0  0  0  0  0  0  0  0  0  0  0  0
    7.6022   12.5583   25.0408 C   0  0  0  0  0  0  0  0  0  0  0  0
    7.5424   11.1666   25.0444 C   0  0  0  0  0  0  0  0  0  0  0  0
    8.5067   10.4263   24.3524 C   0  0  0  0  0  0  0  0  0  0  0  0
    9.5449   11.0650   23.6751 C   0  0  0  0  0  0  0  0  0  0  0  0
    9.6461   12.4546   23.7243 C   0  0  0  0  0  0  0  0  0  0  0  0
   10.7265   13.0936   23.0861 N   0  0  0  0  0  0  0  0  0  0  0  0
   11.7097   13.7109   23.8134 C   0  0  0  0  0  0  0  0  0  0  0  0
   11.9622   13.5631   25.0031 O   0  0  0  0  0  0  0  0  0  0  0  0
   12.4007   14.7303   22.9346 C   0  0  0  0  0  0  0  0  0  0  0  0
   11.6183   14.6628   21.7609 N   0  0  0  0  0  0  0  0  0  0  0  0
   10.5169   13.8875   21.9981 C   0  0  0  0  0  0  0  0  0  0  0  0
    9.4900   14.0361   21.3622 O   0  0  0  0  0  0  0  0  0  0  0  0
    8.6682   13.1918   24.3991 C   0  0  0  0  0  0  0  0  0  0  0  0
    8.7563   14.5322   24.4492 F   0  0  0  0  0  0  0  0  0  0  0  0
  1  2  2  0
  2  3  1  0
  3  4  1  0
  4  5  1  0
  5  6  1  0
  2  7  1  0
  7  8  1  0
  8  9  2  0
  9 10  1  0
 10 11  2  0
 11 12  1  0
 12 13  1  0
 13 14  1  0
 14 15  2  0
 14 16  1  0
 16 17  1  0
 17 18  1  0
 18 19  2  0
 12 20  2  0
 20 21  1  0
 20  8  1  0
 18 13  1  0
M  END
>  <alias>  (379) 
None

>  <rmsd(smina/fragmenstein)>  (379) 
0.711

>  <smiles>  (379) 
O=C(CCCF)Nc1cccc(N2C(=O)CNC2=O)c1F

>  <gnina_score>  (379) 
5.346

>  <inspiration_score>  (379) 
None

>  <energy_score>  (379) 
-29.576018

>  <distance_score>  (379) 
1.640774

>  <gnina_score_min>  (379) 
5.26

>  <inchikey>  (379) 
NAPAKTNGIVQSFT-UHFFFAOYSA-N

>  <exports>  (379) 
['/opt/xchem-fragalysis-2/maxwin/BulkDock/OUTPUTS/openbind_a71ev2a_c2_elabs_1LOUU54.sdf', '/opt/xchem-fragalysis-2/maxwin/BulkDock/OUTPUTS/openbind_a71ev2a_c2_elabs_1LSYIDY.sdf']

>  <name>  (379) 
P545439

>  <ref_pdb>  (379) 
A0884a

>  <subsites>  (379) 
None

>  <HIPPO Pose ID>  (379) 
545439

>  <ref_mols>  (379) 
A0884a

>  <HIPPO Compound ID>  (379) 
383918

>  <tags>  (379) 
openbind_a71ev2a_c2_elabs,syndirella_product,openbind_a71ev2a_c2_elabs_fragonly_scored_top80percent,openbind_a71ev2a_c2_elabs_scored,BulkDock Fragalysis export,openbind_a71ev2a_c2_elabs_scored_top80percent,openbind_a71ev2a_c2_elabs_activefrags_only_scored_5.2plus,syndirella_placed

>  <smina_score_min>  (379) 
-6.185

$$$$
P545440
     RDKit          3D

 21 22  0  0  0  0  0  0  0  0999 V2000
    2.9520   14.5017   27.8040 C   0  0  0  0  0  0  0  0  0  0  0  0
    4.0427   14.6775   26.7537 C   0  0  2  0  0  0  0  0  0  0  0  0
    3.2733   15.2005   25.1784 S   0  0  0  0  0  0  0  0  0  0  0  0
    4.8346   13.3726   26.5362 C   0  0  0  0  0  0  0  0  0  0  0  0
    4.5466   12.3529   27.0379 O   0  0  0  0  0  0  0  0  0  0  0  0
    5.9838   13.7191   25.5333 N   0  0  0  0  0  0  0  0  0  0  0  0
    7.0218   12.9331   25.0429 C   0  0  0  0  0  0  0  0  0  0  0  0
    7.1096   11.5774   25.3429 C   0  0  0  0  0  0  0  0  0  0  0  0
    8.0985   10.8043   24.7455 C   0  0  0  0  0  0  0  0  0  0  0  0
    9.0272   11.3886   23.8812 C   0  0  0  0  0  0  0  0  0  0  0  0
   10.0500   10.2929   23.0592 Cl  0  0  0  0  0  0  0  0  0  0  0  0
    8.9946   12.7683   23.6122 C   0  0  0  0  0  0  0  0  0  0  0  0
    9.9616   13.4185   22.7699 N   0  0  0  0  0  0  0  0  0  0  0  0
    9.4850   14.3951   21.7958 C   0  0  0  0  0  0  0  0  0  0  0  0
   10.5028   14.8279   20.7625 C   0  0  0  0  0  0  0  0  0  0  0  0
   11.9035   14.4976   21.1601 C   0  0  0  0  0  0  0  0  0  0  0  0
   12.8099   14.4131   20.3352 O   0  0  0  0  0  0  0  0  0  0  0  0
   12.1090   14.3150   22.4941 N   0  0  0  0  0  0  0  0  0  0  0  0
   11.2504   13.5920   23.2787 C   0  0  0  0  0  0  0  0  0  0  0  0
   11.6388   13.1545   24.3609 O   0  0  0  0  0  0  0  0  0  0  0  0
    7.9600   13.5225   24.1872 C   0  0  0  0  0  0  0  0  0  0  0  0
  2  1  1  1
  2  3  1  0
  2  4  1  0
  4  5  2  0
  4  6  1  0
  6  7  1  0
  7  8  2  0
  8  9  1  0
  9 10  2  0
 10 11  1  0
 10 12  1  0
 12 13  1  0
 13 14  1  0
 14 15  1  0
 15 16  1  0
 16 17  2  0
 16 18  1  0
 18 19  1  0
 19 20  2  0
 12 21  2  0
 21  7  1  0
 19 13  1  0
M  END
>  <alias>  (380) 
None

>  <rmsd(smina/fragmenstein)>  (380) 
0.502

>  <smiles>  (380) 
C[C@H](S)C(=O)Nc1ccc(Cl)c(N2CCC(=O)NC2=O)c1

>  <gnina_score>  (380) 
5.626

>  <inspiration_score>  (380) 
None

>  <energy_score>  (380) 
-40.072309

>  <distance_score>  (380) 
1.555551

>  <gnina_score_min>  (380) 
5.566

>  <inchikey>  (380) 
PLGUQLBHHQRUDJ-ZETCQYMHSA-N

>  <exports>  (380) 
['/opt/xchem-fragalysis-2/maxwin/BulkDock/OUTPUTS/openbind_a71ev2a_c2_elabs_1LOUU54.sdf', '/opt/xchem-fragalysis-2/maxwin/BulkDock/OUTPUTS/openbind_a71ev2a_c2_elabs_1LSYIDY.sdf']

>  <name>  (380) 
P545440

>  <ref_pdb>  (380) 
A0884a

>  <subsites>  (380) 
None

>  <HIPPO Pose ID>  (380) 
545440

>  <ref_mols>  (380) 
A0884a

>  <HIPPO Compound ID>  (380) 
383919

>  <tags>  (380) 
openbind_a71ev2a_c2_elabs,syndirella_product,openbind_a71ev2a_c2_elabs_fragonly_scored_top80percent,BulkDock Fragalysis export,openbind_a71ev2a_c2_elabs_scored,openbind_a71ev2a_c2_elabs_scored_top80percent,openbind_a71ev2a_c2_elabs_activefrags_only_scored_5.2plus,openbind_a71ev2a_c2_elabs_activefrags_only_scored_5.5plus,syndirella_placed

>  <smina_score_min>  (380) 
-6.849

$$$$
P545450
     RDKit          3D

 21 22  0  0  0  0  0  0  0  0999 V2000
    9.9524   10.3298   23.0558 C   0  0  0  0  0  0  0  0  0  0  0  0
    9.0600   11.2556   23.8172 C   0  0  0  0  0  0  0  0  0  0  0  0
    8.1272   10.6498   24.6730 C   0  0  0  0  0  0  0  0  0  0  0  0
    7.1898   11.4069   25.3684 C   0  0  0  0  0  0  0  0  0  0  0  0
    7.1776   12.7877   25.2223 C   0  0  0  0  0  0  0  0  0  0  0  0
    6.2375   13.5850   25.8693 N   0  0  0  0  0  0  0  0  0  0  0  0
    5.1257   13.2076   26.9034 C   0  0  0  0  0  0  0  0  0  0  0  0
    4.7865   12.1599   27.3049 O   0  0  0  0  0  0  0  0  0  0  0  0
    4.4683   14.5381   27.3219 C   0  0  1  0  0  0  0  0  0  0  0  0
    3.2122   14.3099   28.1534 C   0  0  0  0  0  0  0  0  0  0  0  0
    5.6741   15.5137   28.2961 S   0  0  0  0  0  0  0  0  0  0  0  0
    8.1175   13.4068   24.3930 C   0  0  0  0  0  0  0  0  0  0  0  0
    9.0738   12.6572   23.6906 C   0  0  0  0  0  0  0  0  0  0  0  0
   10.0100   13.3358   22.8425 N   0  0  0  0  0  0  0  0  0  0  0  0
    9.4774   14.3178   21.9028 C   0  0  0  0  0  0  0  0  0  0  0  0
   10.4563   14.7954   20.8511 C   0  0  0  0  0  0  0  0  0  0  0  0
   11.8763   14.5164   21.2207 C   0  0  0  0  0  0  0  0  0  0  0  0
   12.7752   14.4846   20.3846 O   0  0  0  0  0  0  0  0  0  0  0  0
   12.1128   14.3264   22.5483 N   0  0  0  0  0  0  0  0  0  0  0  0
   11.2937   13.5651   23.3400 C   0  0  0  0  0  0  0  0  0  0  0  0
   11.7235   13.1374   24.4094 O   0  0  0  0  0  0  0  0  0  0  0  0
  1  2  1  0
  2  3  2  0
  3  4  1  0
  4  5  2  0
  5  6  1  0
  6  7  1  0
  7  8  2  0
  7  9  1  0
  9 10  1  1
  9 11  1  0
  5 12  1  0
 12 13  2  0
 13 14  1  0
 14 15  1  0
 15 16  1  0
 16 17  1  0
 17 18  2  0
 17 19  1  0
 19 20  1  0
 20 21  2  0
 13  2  1  0
 20 14  1  0
M  END
>  <alias>  (381) 
None

>  <rmsd(smina/fragmenstein)>  (381) 
0.606

>  <smiles>  (381) 
Cc1ccc(NC(=O)[C@@H](C)S)cc1N1CCC(=O)NC1=O

>  <gnina_score>  (381) 
5.325

>  <inspiration_score>  (381) 
None

>  <energy_score>  (381) 
-42.027824

>  <distance_score>  (381) 
1.396632

>  <gnina_score_min>  (381) 
5.341

>  <inchikey>  (381) 
QWFMPRFTUDBETP-SECBINFHSA-N

>  <exports>  (381) 
['/opt/xchem-fragalysis-2/maxwin/BulkDock/OUTPUTS/openbind_a71ev2a_c2_elabs_1LOUU54.sdf', '/opt/xchem-fragalysis-2/maxwin/BulkDock/OUTPUTS/openbind_a71ev2a_c2_elabs_1LSYIDY.sdf']

>  <name>  (381) 
P545450

>  <ref_pdb>  (381) 
A0884a

>  <subsites>  (381) 
None

>  <HIPPO Pose ID>  (381) 
545450

>  <ref_mols>  (381) 
A0884a

>  <HIPPO Compound ID>  (381) 
383925

>  <tags>  (381) 
openbind_a71ev2a_c2_elabs,syndirella_product,openbind_a71ev2a_c2_elabs_fragonly_scored_top80percent,openbind_a71ev2a_c2_elabs_scored,BulkDock Fragalysis export,openbind_a71ev2a_c2_elabs_scored_top80percent,openbind_a71ev2a_c2_elabs_activefrags_only_scored_5.2plus,syndirella_placed

>  <smina_score_min>  (381) 
-6.81

$$$$
P545452
     RDKit          3D

 21 22  0  0  0  0  0  0  0  0999 V2000
    6.4023   12.7053   29.2187 C   0  0  0  0  0  0  0  0  0  0  0  0
    5.6848   13.5270   28.1563 C   0  0  2  0  0  0  0  0  0  0  0  0
    4.2050   12.6447   27.5695 S   0  0  0  0  0  0  0  0  0  0  0  0
    6.6333   13.8901   27.0006 C   0  0  0  0  0  0  0  0  0  0  0  0
    7.0803   14.9688   26.9051 O   0  0  0  0  0  0  0  0  0  0  0  0
    6.9100   12.6017   26.1603 N   0  0  0  0  0  0  0  0  0  0  0  0
    7.8263   12.3694   25.1361 C   0  0  0  0  0  0  0  0  0  0  0  0
    8.1301   11.0535   24.7666 C   0  0  0  0  0  0  0  0  0  0  0  0
    9.1464   10.8370   23.8396 C   0  0  0  0  0  0  0  0  0  0  0  0
    9.7759    9.1616   23.3279 Br  0  0  0  0  0  0  0  0  0  0  0  0
    9.8159   11.8894   23.2576 C   0  0  0  0  0  0  0  0  0  0  0  0
    9.4852   13.1890   23.5942 C   0  0  0  0  0  0  0  0  0  0  0  0
   10.2038   14.2305   22.9599 N   0  0  0  0  0  0  0  0  0  0  0  0
    9.6723   14.5839   21.6388 C   0  0  0  0  0  0  0  0  0  0  0  0
   10.6081   15.3893   20.7836 C   0  0  0  0  0  0  0  0  0  0  0  0
   11.9817   14.8236   20.9593 C   0  0  0  0  0  0  0  0  0  0  0  0
   12.6814   14.4223   20.0358 O   0  0  0  0  0  0  0  0  0  0  0  0
   12.3795   14.7942   22.2636 N   0  0  0  0  0  0  0  0  0  0  0  0
   11.5745   14.2535   23.2213 C   0  0  0  0  0  0  0  0  0  0  0  0
   12.0725   13.7637   24.2372 O   0  0  0  0  0  0  0  0  0  0  0  0
    8.4892   13.4420   24.5288 C   0  0  0  0  0  0  0  0  0  0  0  0
  2  1  1  1
  2  3  1  0
  2  4  1  0
  4  5  2  0
  4  6  1  0
  6  7  1  0
  7  8  2  0
  8  9  1  0
  9 10  1  0
  9 11  2  0
 11 12  1  0
 12 13  1  0
 13 14  1  0
 14 15  1  0
 15 16  1  0
 16 17  2  0
 16 18  1  0
 18 19  1  0
 19 20  2  0
 12 21  2  0
 21  7  1  0
 19 13  1  0
M  END
>  <alias>  (382) 
None

>  <rmsd(smina/fragmenstein)>  (382) 
0.418

>  <smiles>  (382) 
C[C@H](S)C(=O)Nc1cc(Br)cc(N2CCC(=O)NC2=O)c1

>  <gnina_score>  (382) 
5.619

>  <inspiration_score>  (382) 
None

>  <energy_score>  (382) 
-12.163862

>  <distance_score>  (382) 
1.404397

>  <gnina_score_min>  (382) 
5.681

>  <inchikey>  (382) 
ZFYATSDUZZJMFN-ZETCQYMHSA-N

>  <exports>  (382) 
['/opt/xchem-fragalysis-2/maxwin/BulkDock/OUTPUTS/openbind_a71ev2a_c2_elabs_1LOUU54.sdf', '/opt/xchem-fragalysis-2/maxwin/BulkDock/OUTPUTS/openbind_a71ev2a_c2_elabs_1LSYIDY.sdf']

>  <name>  (382) 
P545452

>  <ref_pdb>  (382) 
A0884a

>  <subsites>  (382) 
None

>  <HIPPO Pose ID>  (382) 
545452

>  <ref_mols>  (382) 
A0884a

>  <HIPPO Compound ID>  (382) 
383926

>  <tags>  (382) 
openbind_a71ev2a_c2_elabs,syndirella_product,openbind_a71ev2a_c2_elabs_fragonly_scored_top80percent,BulkDock Fragalysis export,openbind_a71ev2a_c2_elabs_scored,openbind_a71ev2a_c2_elabs_scored_top80percent,openbind_a71ev2a_c2_elabs_activefrags_only_scored_5.2plus,openbind_a71ev2a_c2_elabs_activefrags_only_scored_5.5plus,syndirella_placed

>  <smina_score_min>  (382) 
-6.4

$$$$
P545453
     RDKit          3D

 21 22  0  0  0  0  0  0  0  0999 V2000
    5.6865   14.5164   28.9031 C   0  0  0  0  0  0  0  0  0  0  0  0
    4.7487   14.0389   27.8025 C   0  0  1  0  0  0  0  0  0  0  0  0
    4.4404   15.3793   26.6057 S   0  0  0  0  0  0  0  0  0  0  0  0
    5.3047   12.7800   27.1142 C   0  0  0  0  0  0  0  0  0  0  0  0
    4.8740   11.7144   27.3440 O   0  0  0  0  0  0  0  0  0  0  0  0
    6.4959   13.2152   26.2002 N   0  0  0  0  0  0  0  0  0  0  0  0
    7.4215   12.4458   25.4871 C   0  0  0  0  0  0  0  0  0  0  0  0
    8.5005   13.1221   24.9046 C   0  0  0  0  0  0  0  0  0  0  0  0
    9.4683   12.4391   24.1526 C   0  0  0  0  0  0  0  0  0  0  0  0
   10.5806   13.1318   23.5981 N   0  0  0  0  0  0  0  0  0  0  0  0
   10.8125   12.9542   22.1885 C   0  0  0  0  0  0  0  0  0  0  0  0
   12.2020   13.3865   21.8022 C   0  0  0  0  0  0  0  0  0  0  0  0
   12.3254   14.8083   22.1492 C   0  0  0  0  0  0  0  0  0  0  0  0
   12.8444   15.6334   21.4151 O   0  0  0  0  0  0  0  0  0  0  0  0
   11.8664   15.0737   23.3994 N   0  0  0  0  0  0  0  0  0  0  0  0
   11.1626   14.2235   24.2190 C   0  0  0  0  0  0  0  0  0  0  0  0
   11.0812   14.4432   25.4245 O   0  0  0  0  0  0  0  0  0  0  0  0
    9.3177   11.0647   23.9393 C   0  0  0  0  0  0  0  0  0  0  0  0
    8.2690   10.3825   24.5413 C   0  0  0  0  0  0  0  0  0  0  0  0
    7.3354   11.0669   25.3135 C   0  0  0  0  0  0  0  0  0  0  0  0
    6.3623   10.3467   25.8768 F   0  0  0  0  0  0  0  0  0  0  0  0
  2  1  1  1
  2  3  1  0
  2  4  1  0
  4  5  2  0
  4  6  1  0
  6  7  1  0
  7  8  2  0
  8  9  1  0
  9 10  1  0
 10 11  1  0
 11 12  1  0
 12 13  1  0
 13 14  2  0
 13 15  1  0
 15 16  1  0
 16 17  2  0
  9 18  2  0
 18 19  1  0
 19 20  2  0
 20 21  1  0
 20  7  1  0
 16 10  1  0
M  END
>  <alias>  (383) 
None

>  <rmsd(smina/fragmenstein)>  (383) 
1.237

>  <smiles>  (383) 
C[C@@H](S)C(=O)Nc1cc(N2CCC(=O)NC2=O)ccc1F

>  <gnina_score>  (383) 
4.82

>  <inspiration_score>  (383) 
None

>  <energy_score>  (383) 
-41.18903

>  <distance_score>  (383) 
1.310919

>  <gnina_score_min>  (383) 
5.378

>  <inchikey>  (383) 
WNRZKAUHFORSNX-SSDOTTSWSA-N

>  <exports>  (383) 
['/opt/xchem-fragalysis-2/maxwin/BulkDock/OUTPUTS/openbind_a71ev2a_c2_elabs_1LOUU54.sdf', '/opt/xchem-fragalysis-2/maxwin/BulkDock/OUTPUTS/openbind_a71ev2a_c2_elabs_1LSYIDY.sdf']

>  <name>  (383) 
P545453

>  <ref_pdb>  (383) 
A0884a

>  <subsites>  (383) 
None

>  <HIPPO Pose ID>  (383) 
545453

>  <ref_mols>  (383) 
A0884a

>  <HIPPO Compound ID>  (383) 
383927

>  <tags>  (383) 
openbind_a71ev2a_c2_elabs,syndirella_product,openbind_a71ev2a_c2_elabs_fragonly_scored_top80percent,openbind_a71ev2a_c2_elabs_scored,BulkDock Fragalysis export,openbind_a71ev2a_c2_elabs_scored_top80percent,openbind_a71ev2a_c2_elabs_activefrags_only_scored_5.2plus,syndirella_placed

>  <smina_score_min>  (383) 
-5.896

$$$$
P545456
     RDKit          3D

 21 22  0  0  0  0  0  0  0  0999 V2000
    9.0937    9.5610   23.8914 C   0  0  0  0  0  0  0  0  0  0  0  0
    8.8199   11.0012   24.1173 C   0  0  0  0  0  0  0  0  0  0  0  0
    7.7507   11.4494   24.9039 C   0  0  0  0  0  0  0  0  0  0  0  0
    7.4731   12.8137   24.9864 C   0  0  0  0  0  0  0  0  0  0  0  0
    6.4342   13.3139   25.7660 N   0  0  0  0  0  0  0  0  0  0  0  0
    5.4236   12.5770   26.7033 C   0  0  0  0  0  0  0  0  0  0  0  0
    5.3641   11.4499   27.0185 O   0  0  0  0  0  0  0  0  0  0  0  0
    4.4964   13.6686   27.2827 C   0  0  2  0  0  0  0  0  0  0  0  0
    3.4514   13.0769   28.2219 C   0  0  0  0  0  0  0  0  0  0  0  0
    3.6542   14.5828   25.9456 S   0  0  0  0  0  0  0  0  0  0  0  0
    8.2577   13.7244   24.2779 C   0  0  0  0  0  0  0  0  0  0  0  0
    9.3579   13.2745   23.5522 C   0  0  0  0  0  0  0  0  0  0  0  0
   10.1751   14.1893   22.8462 N   0  0  0  0  0  0  0  0  0  0  0  0
    9.6476   14.5747   21.5355 C   0  0  0  0  0  0  0  0  0  0  0  0
   10.6060   15.3640   20.6894 C   0  0  0  0  0  0  0  0  0  0  0  0
   11.9713   14.7746   20.8597 C   0  0  0  0  0  0  0  0  0  0  0  0
   12.6868   14.4107   19.9326 O   0  0  0  0  0  0  0  0  0  0  0  0
   12.3608   14.6953   22.1657 N   0  0  0  0  0  0  0  0  0  0  0  0
   11.5370   14.1741   23.1187 C   0  0  0  0  0  0  0  0  0  0  0  0
   12.0197   13.7164   24.1563 O   0  0  0  0  0  0  0  0  0  0  0  0
    9.6342   11.9166   23.4653 C   0  0  0  0  0  0  0  0  0  0  0  0
  1  2  1  0
  2  3  2  0
  3  4  1  0
  4  5  1  0
  5  6  1  0
  6  7  2  0
  6  8  1  0
  8  9  1  1
  8 10  1  0
  4 11  2  0
 11 12  1  0
 12 13  1  0
 13 14  1  0
 14 15  1  0
 15 16  1  0
 16 17  2  0
 16 18  1  0
 18 19  1  0
 19 20  2  0
 12 21  2  0
 21  2  1  0
 19 13  1  0
M  END
>  <alias>  (384) 
None

>  <rmsd(smina/fragmenstein)>  (384) 
0.693

>  <smiles>  (384) 
Cc1cc(NC(=O)[C@H](C)S)cc(N2CCC(=O)NC2=O)c1

>  <gnina_score>  (384) 
5.423

>  <inspiration_score>  (384) 
None

>  <energy_score>  (384) 
-32.27098

>  <distance_score>  (384) 
1.328039

>  <gnina_score_min>  (384) 
5.475

>  <inchikey>  (384) 
WHWRQDXRZZXBQJ-VIFPVBQESA-N

>  <exports>  (384) 
['/opt/xchem-fragalysis-2/maxwin/BulkDock/OUTPUTS/openbind_a71ev2a_c2_elabs_1LOUU54.sdf', '/opt/xchem-fragalysis-2/maxwin/BulkDock/OUTPUTS/openbind_a71ev2a_c2_elabs_1LSYIDY.sdf']

>  <name>  (384) 
P545456

>  <ref_pdb>  (384) 
A0884a

>  <subsites>  (384) 
None

>  <HIPPO Pose ID>  (384) 
545456

>  <ref_mols>  (384) 
A0884a

>  <HIPPO Compound ID>  (384) 
383928

>  <tags>  (384) 
openbind_a71ev2a_c2_elabs,syndirella_product,openbind_a71ev2a_c2_elabs_fragonly_scored_top80percent,openbind_a71ev2a_c2_elabs_scored,BulkDock Fragalysis export,openbind_a71ev2a_c2_elabs_scored_top80percent,openbind_a71ev2a_c2_elabs_activefrags_only_scored_5.2plus,syndirella_placed

>  <smina_score_min>  (384) 
-6.871

$$$$
P545462
     RDKit          3D

 21 22  0  0  0  0  0  0  0  0999 V2000
    3.0654   13.6520   28.0006 C   0  0  0  0  0  0  0  0  0  0  0  0
    4.3267   13.9882   27.2141 C   0  0  1  0  0  0  0  0  0  0  0  0
    5.4278   15.0243   28.2464 S   0  0  0  0  0  0  0  0  0  0  0  0
    5.0915   12.7167   26.7930 C   0  0  0  0  0  0  0  0  0  0  0  0
    4.8211   11.6426   27.1752 O   0  0  0  0  0  0  0  0  0  0  0  0
    6.1858   13.1850   25.7797 N   0  0  0  0  0  0  0  0  0  0  0  0
    7.1849   12.4659   25.1351 C   0  0  0  0  0  0  0  0  0  0  0  0
    7.2981   11.0826   25.2504 C   0  0  0  0  0  0  0  0  0  0  0  0
    8.3254   10.4162   24.5838 C   0  0  0  0  0  0  0  0  0  0  0  0
    9.2698   11.1356   23.8650 C   0  0  0  0  0  0  0  0  0  0  0  0
   10.2506   10.4581   23.2585 F   0  0  0  0  0  0  0  0  0  0  0  0
    9.1838   12.5246   23.7539 C   0  0  0  0  0  0  0  0  0  0  0  0
   10.1819   13.3001   23.1141 N   0  0  0  0  0  0  0  0  0  0  0  0
   11.5623   12.9113   23.1911 C   0  0  0  0  0  0  0  0  0  0  0  0
   12.4027   14.1431   23.3535 C   0  0  0  0  0  0  0  0  0  0  0  0
   12.1983   14.9606   22.1218 C   0  0  0  0  0  0  0  0  0  0  0  0
   13.0742   15.5918   21.5518 O   0  0  0  0  0  0  0  0  0  0  0  0
   10.9069   15.0055   21.6995 N   0  0  0  0  0  0  0  0  0  0  0  0
    9.8694   14.2852   22.2021 C   0  0  0  0  0  0  0  0  0  0  0  0
    8.7391   14.5445   21.8172 O   0  0  0  0  0  0  0  0  0  0  0  0
    8.1060   13.1773   24.3625 C   0  0  0  0  0  0  0  0  0  0  0  0
  2  1  1  1
  2  3  1  0
  2  4  1  0
  4  5  2  0
  4  6  1  0
  6  7  1  0
  7  8  2  0
  8  9  1  0
  9 10  2  0
 10 11  1  0
 10 12  1  0
 12 13  1  0
 13 14  1  0
 14 15  1  0
 15 16  1  0
 16 17  2  0
 16 18  1  0
 18 19  1  0
 19 20  2  0
 12 21  2  0
 21  7  1  0
 19 13  1  0
M  END
>  <alias>  (385) 
None

>  <rmsd(smina/fragmenstein)>  (385) 
1.725

>  <smiles>  (385) 
C[C@@H](S)C(=O)Nc1ccc(F)c(N2CCC(=O)NC2=O)c1

>  <gnina_score>  (385) 
5.452

>  <inspiration_score>  (385) 
None

>  <energy_score>  (385) 
-41.119786

>  <distance_score>  (385) 
1.837501

>  <gnina_score_min>  (385) 
5.414

>  <inchikey>  (385) 
BEJCCHIDZSILLH-SSDOTTSWSA-N

>  <exports>  (385) 
['/opt/xchem-fragalysis-2/maxwin/BulkDock/OUTPUTS/openbind_a71ev2a_c2_elabs_1LOUU54.sdf', '/opt/xchem-fragalysis-2/maxwin/BulkDock/OUTPUTS/openbind_a71ev2a_c2_elabs_1LSYIDY.sdf']

>  <name>  (385) 
P545462

>  <ref_pdb>  (385) 
A0884a

>  <subsites>  (385) 
None

>  <HIPPO Pose ID>  (385) 
545462

>  <ref_mols>  (385) 
A0884a

>  <HIPPO Compound ID>  (385) 
383931

>  <tags>  (385) 
openbind_a71ev2a_c2_elabs,syndirella_product,openbind_a71ev2a_c2_elabs_fragonly_scored_top80percent,openbind_a71ev2a_c2_elabs_scored,BulkDock Fragalysis export,openbind_a71ev2a_c2_elabs_scored_top80percent,openbind_a71ev2a_c2_elabs_activefrags_only_scored_5.2plus,syndirella_placed

>  <smina_score_min>  (385) 
-7.052

$$$$
P545467
     RDKit          3D

 21 22  0  0  0  0  0  0  0  0999 V2000
    3.3362   13.5827   28.0196 C   0  0  0  0  0  0  0  0  0  0  0  0
    4.4679   13.9625   27.0722 C   0  0  1  0  0  0  0  0  0  0  0  0
    5.5511   15.1937   27.8851 S   0  0  0  0  0  0  0  0  0  0  0  0
    5.2962   12.7294   26.6503 C   0  0  0  0  0  0  0  0  0  0  0  0
    5.0587   11.6387   27.0061 O   0  0  0  0  0  0  0  0  0  0  0  0
    6.3619   13.2532   25.6336 N   0  0  0  0  0  0  0  0  0  0  0  0
    7.3684   12.5771   24.9528 C   0  0  0  0  0  0  0  0  0  0  0  0
    7.5446   11.2022   25.0572 C   0  0  0  0  0  0  0  0  0  0  0  0
    8.5821   10.5969   24.3554 C   0  0  0  0  0  0  0  0  0  0  0  0
    8.7067    9.2665   24.4019 F   0  0  0  0  0  0  0  0  0  0  0  0
    9.4748   11.3391   23.5922 C   0  0  0  0  0  0  0  0  0  0  0  0
    9.2936   12.7171   23.4803 C   0  0  0  0  0  0  0  0  0  0  0  0
   10.1826   13.4824   22.6813 N   0  0  0  0  0  0  0  0  0  0  0  0
    9.6222   14.4393   21.7393 C   0  0  0  0  0  0  0  0  0  0  0  0
   10.5896   14.8943   20.6691 C   0  0  0  0  0  0  0  0  0  0  0  0
   12.0024   14.5440   21.0118 C   0  0  0  0  0  0  0  0  0  0  0  0
   12.8506   14.3497   20.1463 O   0  0  0  0  0  0  0  0  0  0  0  0
   12.2683   14.4741   22.3456 N   0  0  0  0  0  0  0  0  0  0  0  0
   11.4781   13.6982   23.1496 C   0  0  0  0  0  0  0  0  0  0  0  0
   11.9269   13.2310   24.1944 O   0  0  0  0  0  0  0  0  0  0  0  0
    8.2240   13.3278   24.1424 C   0  0  0  0  0  0  0  0  0  0  0  0
  2  1  1  1
  2  3  1  0
  2  4  1  0
  4  5  2  0
  4  6  1  0
  6  7  1  0
  7  8  2  0
  8  9  1  0
  9 10  1  0
  9 11  2  0
 11 12  1  0
 12 13  1  0
 13 14  1  0
 14 15  1  0
 15 16  1  0
 16 17  2  0
 16 18  1  0
 18 19  1  0
 19 20  2  0
 12 21  2  0
 21  7  1  0
 19 13  1  0
M  END
>  <alias>  (386) 
None

>  <rmsd(smina/fragmenstein)>  (386) 
0.831

>  <smiles>  (386) 
C[C@@H](S)C(=O)Nc1cc(F)cc(N2CCC(=O)NC2=O)c1

>  <gnina_score>  (386) 
5.177

>  <inspiration_score>  (386) 
None

>  <energy_score>  (386) 
-49.609953

>  <distance_score>  (386) 
1.210025

>  <gnina_score_min>  (386) 
5.258

>  <inchikey>  (386) 
NQTAKPWCCJQWAY-SSDOTTSWSA-N

>  <exports>  (386) 
['/opt/xchem-fragalysis-2/maxwin/BulkDock/OUTPUTS/openbind_a71ev2a_c2_elabs_1LOUU54.sdf', '/opt/xchem-fragalysis-2/maxwin/BulkDock/OUTPUTS/openbind_a71ev2a_c2_elabs_1LSYIDY.sdf']

>  <name>  (386) 
P545467

>  <ref_pdb>  (386) 
A0884a

>  <subsites>  (386) 
None

>  <HIPPO Pose ID>  (386) 
545467

>  <ref_mols>  (386) 
A0884a

>  <HIPPO Compound ID>  (386) 
383934

>  <tags>  (386) 
openbind_a71ev2a_c2_elabs,syndirella_product,openbind_a71ev2a_c2_elabs_fragonly_scored_top80percent,openbind_a71ev2a_c2_elabs_scored,BulkDock Fragalysis export,openbind_a71ev2a_c2_elabs_scored_top80percent,openbind_a71ev2a_c2_elabs_activefrags_only_scored_5.2plus,syndirella_placed

>  <smina_score_min>  (386) 
-7.043

$$$$
P545473
     RDKit          3D

 21 22  0  0  0  0  0  0  0  0999 V2000
    4.6143   15.3017   29.6003 C   0  0  0  0  0  0  0  0  0  0  0  0
    5.1088   15.1447   28.3654 C   0  0  0  0  0  0  0  0  0  0  0  0
    4.3665   14.4856   27.2389 C   0  0  0  0  0  0  0  0  0  0  0  0
    5.0591   13.1767   26.8408 C   0  0  0  0  0  0  0  0  0  0  0  0
    4.7528   12.1324   27.2759 O   0  0  0  0  0  0  0  0  0  0  0  0
    6.1647   13.5563   25.8027 N   0  0  0  0  0  0  0  0  0  0  0  0
    7.1371   12.7700   25.1897 C   0  0  0  0  0  0  0  0  0  0  0  0
    7.1749   11.3925   25.3609 C   0  0  0  0  0  0  0  0  0  0  0  0
    8.1268   10.6400   24.6807 C   0  0  0  0  0  0  0  0  0  0  0  0
    9.0558   11.2478   23.8226 C   0  0  0  0  0  0  0  0  0  0  0  0
    9.9557   10.3247   23.0668 C   0  0  0  0  0  0  0  0  0  0  0  0
    9.0548   12.6482   23.6828 C   0  0  0  0  0  0  0  0  0  0  0  0
    9.9964   13.3290   22.8416 N   0  0  0  0  0  0  0  0  0  0  0  0
    9.4737   14.3229   21.9120 C   0  0  0  0  0  0  0  0  0  0  0  0
   10.4549   14.7904   20.8592 C   0  0  0  0  0  0  0  0  0  0  0  0
   11.8759   14.5279   21.2384 C   0  0  0  0  0  0  0  0  0  0  0  0
   12.7782   14.5222   20.4042 O   0  0  0  0  0  0  0  0  0  0  0  0
   12.1039   14.3168   22.5638 N   0  0  0  0  0  0  0  0  0  0  0  0
   11.2806   13.5490   23.3455 C   0  0  0  0  0  0  0  0  0  0  0  0
   11.7059   13.1056   24.4098 O   0  0  0  0  0  0  0  0  0  0  0  0
    8.0767   13.3921   24.3622 C   0  0  0  0  0  0  0  0  0  0  0  0
  1  2  2  0
  2  3  1  0
  3  4  1  0
  4  5  2  0
  4  6  1  0
  6  7  1  0
  7  8  2  0
  8  9  1  0
  9 10  2  0
 10 11  1  0
 10 12  1  0
 12 13  1  0
 13 14  1  0
 14 15  1  0
 15 16  1  0
 16 17  2  0
 16 18  1  0
 18 19  1  0
 19 20  2  0
 12 21  2  0
 21  7  1  0
 19 13  1  0
M  END
>  <alias>  (387) 
None

>  <rmsd(smina/fragmenstein)>  (387) 
0.743

>  <smiles>  (387) 
C=CCC(=O)Nc1ccc(C)c(N2CCC(=O)NC2=O)c1

>  <gnina_score>  (387) 
5.301

>  <inspiration_score>  (387) 
None

>  <energy_score>  (387) 
-33.584255

>  <distance_score>  (387) 
1.403532

>  <gnina_score_min>  (387) 
5.341

>  <inchikey>  (387) 
OCECAAFOVDPAJJ-UHFFFAOYSA-N

>  <exports>  (387) 
['/opt/xchem-fragalysis-2/maxwin/BulkDock/OUTPUTS/openbind_a71ev2a_c2_elabs_1LOUU54.sdf', '/opt/xchem-fragalysis-2/maxwin/BulkDock/OUTPUTS/openbind_a71ev2a_c2_elabs_1LSYIDY.sdf']

>  <name>  (387) 
P545473

>  <ref_pdb>  (387) 
A0884a

>  <subsites>  (387) 
None

>  <HIPPO Pose ID>  (387) 
545473

>  <ref_mols>  (387) 
A0884a

>  <HIPPO Compound ID>  (387) 
383957

>  <tags>  (387) 
openbind_a71ev2a_c2_elabs,syndirella_product,openbind_a71ev2a_c2_elabs_fragonly_scored_top80percent,openbind_a71ev2a_c2_elabs_scored,BulkDock Fragalysis export,openbind_a71ev2a_c2_elabs_scored_top80percent,openbind_a71ev2a_c2_elabs_activefrags_only_scored_5.2plus,syndirella_placed

>  <smina_score_min>  (387) 
-6.466

$$$$
P545474
     RDKit          3D

 21 22  0  0  0  0  0  0  0  0999 V2000
    3.2195   14.4542   25.1648 C   0  0  0  0  0  0  0  0  0  0  0  0
    3.5086   14.6996   26.4493 C   0  0  0  0  0  0  0  0  0  0  0  0
    4.4963   13.9837   27.3274 C   0  0  0  0  0  0  0  0  0  0  0  0
    5.2946   12.8353   26.6881 C   0  0  0  0  0  0  0  0  0  0  0  0
    5.0995   11.7060   26.9294 O   0  0  0  0  0  0  0  0  0  0  0  0
    6.3448   13.5008   25.7439 N   0  0  0  0  0  0  0  0  0  0  0  0
    7.3849   12.9378   25.0107 C   0  0  0  0  0  0  0  0  0  0  0  0
    7.6083   11.5638   24.9686 C   0  0  0  0  0  0  0  0  0  0  0  0
    8.6764   11.0761   24.2185 C   0  0  0  0  0  0  0  0  0  0  0  0
    8.9276    9.4141   24.0217 Cl  0  0  0  0  0  0  0  0  0  0  0  0
    9.5491   11.9218   23.5601 C   0  0  0  0  0  0  0  0  0  0  0  0
    9.3201   13.2883   23.6027 C   0  0  0  0  0  0  0  0  0  0  0  0
   10.1757   14.1581   22.8871 N   0  0  0  0  0  0  0  0  0  0  0  0
    9.6700   14.5615   21.5759 C   0  0  0  0  0  0  0  0  0  0  0  0
   10.6478   15.3478   20.7507 C   0  0  0  0  0  0  0  0  0  0  0  0
   12.0056   14.7432   20.9258 C   0  0  0  0  0  0  0  0  0  0  0  0
   12.7223   14.3953   19.9928 O   0  0  0  0  0  0  0  0  0  0  0  0
   12.3767   14.6309   22.2345 N   0  0  0  0  0  0  0  0  0  0  0  0
   11.5344   14.1135   23.1737 C   0  0  0  0  0  0  0  0  0  0  0  0
   11.9912   13.6258   24.2082 O   0  0  0  0  0  0  0  0  0  0  0  0
    8.2238   13.7971   24.2983 C   0  0  0  0  0  0  0  0  0  0  0  0
  1  2  2  0
  2  3  1  0
  3  4  1  0
  4  5  2  0
  4  6  1  0
  6  7  1  0
  7  8  2  0
  8  9  1  0
  9 10  1  0
  9 11  2  0
 11 12  1  0
 12 13  1  0
 13 14  1  0
 14 15  1  0
 15 16  1  0
 16 17  2  0
 16 18  1  0
 18 19  1  0
 19 20  2  0
 12 21  2  0
 21  7  1  0
 19 13  1  0
M  END
>  <alias>  (388) 
None

>  <rmsd(smina/fragmenstein)>  (388) 
0.783

>  <smiles>  (388) 
C=CCC(=O)Nc1cc(Cl)cc(N2CCC(=O)NC2=O)c1

>  <gnina_score>  (388) 
5.343

>  <inspiration_score>  (388) 
None

>  <energy_score>  (388) 
-35.081487

>  <distance_score>  (388) 
1.388811

>  <gnina_score_min>  (388) 
5.393

>  <inchikey>  (388) 
SIRLTFRAFRIXNB-UHFFFAOYSA-N

>  <exports>  (388) 
['/opt/xchem-fragalysis-2/maxwin/BulkDock/OUTPUTS/openbind_a71ev2a_c2_elabs_1LOUU54.sdf', '/opt/xchem-fragalysis-2/maxwin/BulkDock/OUTPUTS/openbind_a71ev2a_c2_elabs_1LSYIDY.sdf']

>  <name>  (388) 
P545474

>  <ref_pdb>  (388) 
A0884a

>  <subsites>  (388) 
None

>  <HIPPO Pose ID>  (388) 
545474

>  <ref_mols>  (388) 
A0884a

>  <HIPPO Compound ID>  (388) 
383959

>  <tags>  (388) 
openbind_a71ev2a_c2_elabs,syndirella_product,openbind_a71ev2a_c2_elabs_fragonly_scored_top80percent,openbind_a71ev2a_c2_elabs_scored,BulkDock Fragalysis export,openbind_a71ev2a_c2_elabs_scored_top80percent,openbind_a71ev2a_c2_elabs_activefrags_only_scored_5.2plus,syndirella_placed

>  <smina_score_min>  (388) 
-6.409

$$$$
P545478
     RDKit          3D

 21 22  0  0  0  0  0  0  0  0999 V2000
    3.8988   13.8694   29.6045 C   0  0  0  0  0  0  0  0  0  0  0  0
    4.0634   14.8624   28.4962 C   0  0  0  0  0  0  0  0  0  0  0  0
    3.4187   16.4370   28.8633 Cl  0  0  0  0  0  0  0  0  0  0  0  0
    4.6578   14.6836   27.3069 C   0  0  0  0  0  0  0  0  0  0  0  0
    5.1931   13.3655   26.8627 C   0  0  0  0  0  0  0  0  0  0  0  0
    4.6823   12.3508   27.1338 O   0  0  0  0  0  0  0  0  0  0  0  0
    6.4406   13.6614   25.9875 N   0  0  0  0  0  0  0  0  0  0  0  0
    7.3366   12.7941   25.3680 C   0  0  0  0  0  0  0  0  0  0  0  0
    7.1575   11.4161   25.4001 C   0  0  0  0  0  0  0  0  0  0  0  0
    8.0243   10.5856   24.6944 C   0  0  0  0  0  0  0  0  0  0  0  0
    9.0794   11.1137   23.9420 C   0  0  0  0  0  0  0  0  0  0  0  0
    9.9085   10.1458   23.1562 C   0  0  0  0  0  0  0  0  0  0  0  0
    9.3299   12.4967   24.0045 C   0  0  0  0  0  0  0  0  0  0  0  0
   10.5060   13.0392   23.4382 N   0  0  0  0  0  0  0  0  0  0  0  0
   11.3923   13.7887   24.1669 C   0  0  0  0  0  0  0  0  0  0  0  0
   11.4159   13.9758   25.3779 O   0  0  0  0  0  0  0  0  0  0  0  0
   12.3406   14.4778   23.2102 C   0  0  0  0  0  0  0  0  0  0  0  0
   11.7351   14.1891   21.9677 N   0  0  0  0  0  0  0  0  0  0  0  0
   10.5080   13.6236   22.2067 C   0  0  0  0  0  0  0  0  0  0  0  0
    9.5677   13.8337   21.4629 O   0  0  0  0  0  0  0  0  0  0  0  0
    8.4348   13.3302   24.6924 C   0  0  0  0  0  0  0  0  0  0  0  0
  1  2  1  0
  2  3  1  0
  2  4  2  0
  4  5  1  0
  5  6  2  0
  5  7  1  0
  7  8  1  0
  8  9  2  0
  9 10  1  0
 10 11  2  0
 11 12  1  0
 11 13  1  0
 13 14  1  0
 14 15  1  0
 15 16  2  0
 15 17  1  0
 17 18  1  0
 18 19  1  0
 19 20  2  0
 13 21  2  0
 21  8  1  0
 19 14  1  0
M  END
>  <alias>  (389) 
None

>  <rmsd(smina/fragmenstein)>  (389) 
1.374

>  <smiles>  (389) 
C/C(Cl)=C\C(=O)Nc1ccc(C)c(N2C(=O)CNC2=O)c1

>  <gnina_score>  (389) 
5.283

>  <inspiration_score>  (389) 
None

>  <energy_score>  (389) 
-27.25133

>  <distance_score>  (389) 
1.74194

>  <gnina_score_min>  (389) 
5.333

>  <inchikey>  (389) 
JZTOYFXCNXQFMR-WEVVVXLNSA-N

>  <exports>  (389) 
['/opt/xchem-fragalysis-2/maxwin/BulkDock/OUTPUTS/openbind_a71ev2a_c2_elabs_1LOUU54.sdf', '/opt/xchem-fragalysis-2/maxwin/BulkDock/OUTPUTS/openbind_a71ev2a_c2_elabs_1LSYIDY.sdf']

>  <name>  (389) 
P545478

>  <ref_pdb>  (389) 
A0884a

>  <subsites>  (389) 
None

>  <HIPPO Pose ID>  (389) 
545478

>  <ref_mols>  (389) 
A0884a

>  <HIPPO Compound ID>  (389) 
383968

>  <tags>  (389) 
openbind_a71ev2a_c2_elabs,syndirella_product,openbind_a71ev2a_c2_elabs_fragonly_scored_top80percent,openbind_a71ev2a_c2_elabs_scored,BulkDock Fragalysis export,openbind_a71ev2a_c2_elabs_scored_top80percent,openbind_a71ev2a_c2_elabs_activefrags_only_scored_5.2plus,syndirella_placed

>  <smina_score_min>  (389) 
-6.711

$$$$
P545481
     RDKit          3D

 21 23  0  0  0  0  0  0  0  0999 V2000
    8.0574   14.4002   25.2693 C   0  0  0  0  0  0  0  0  0  0  0  0
    8.3092   12.9514   24.9541 C   0  0  0  0  0  0  0  0  0  0  0  0
    7.5018   11.9137   25.4559 C   0  0  0  0  0  0  0  0  0  0  0  0
    6.5086   12.0379   26.4299 N   0  0  0  0  0  0  0  0  0  0  0  0
    6.3379   13.0717   27.5595 C   0  0  0  0  0  0  0  0  0  0  0  0
    7.0383   13.9368   27.9040 O   0  0  0  0  0  0  0  0  0  0  0  0
    5.0150   12.8540   28.2534 C   0  0  0  0  0  0  0  0  0  0  0  0
    3.8528   13.6515   27.7145 C   0  0  0  0  0  0  0  0  0  0  0  0
    5.0527   12.6270   29.7570 C   0  0  0  0  0  0  0  0  0  0  0  0
    4.7229   11.4822   28.8483 C   0  0  0  0  0  0  0  0  0  0  0  0
    7.6728   10.6062   24.9824 C   0  0  0  0  0  0  0  0  0  0  0  0
    8.6630   10.3013   24.0584 C   0  0  0  0  0  0  0  0  0  0  0  0
    9.4843   11.3078   23.5979 C   0  0  0  0  0  0  0  0  0  0  0  0
   10.4280   10.9940   22.7098 F   0  0  0  0  0  0  0  0  0  0  0  0
    9.3469   12.6198   24.0538 C   0  0  0  0  0  0  0  0  0  0  0  0
   10.2648   13.6094   23.6347 N   0  0  0  0  0  0  0  0  0  0  0  0
   11.6008   13.6253   24.1892 C   0  0  0  0  0  0  0  0  0  0  0  0
   12.3500   14.5230   23.2273 C   0  0  0  0  0  0  0  0  0  0  0  0
   11.6671   14.3277   22.0070 N   0  0  0  0  0  0  0  0  0  0  0  0
   10.3768   13.9271   22.2698 C   0  0  0  0  0  0  0  0  0  0  0  0
    9.4940   13.9261   21.4353 O   0  0  0  0  0  0  0  0  0  0  0  0
  1  2  1  0
  2  3  2  0
  3  4  1  0
  4  5  1  0
  5  6  2  0
  5  7  1  0
  7  8  1  0
  7  9  1  0
  9 10  1  0
  3 11  1  0
 11 12  2  0
 12 13  1  0
 13 14  1  0
 13 15  2  0
 15 16  1  0
 16 17  1  0
 17 18  1  0
 18 19  1  0
 19 20  1  0
 20 21  2  0
 15  2  1  0
 20 16  1  0
 10  7  1  0
M  END
>  <alias>  (390) 
None

>  <rmsd(smina/fragmenstein)>  (390) 
0.689

>  <smiles>  (390) 
Cc1c(NC(=O)C2(C)CC2)ccc(F)c1N1CCNC1=O

>  <gnina_score>  (390) 
5.557

>  <inspiration_score>  (390) 
None

>  <energy_score>  (390) 
-38.190369

>  <distance_score>  (390) 
1.600419

>  <gnina_score_min>  (390) 
5.501

>  <inchikey>  (390) 
LTBXTLFYSKNMJF-UHFFFAOYSA-N

>  <exports>  (390) 
['/opt/xchem-fragalysis-2/maxwin/BulkDock/OUTPUTS/openbind_a71ev2a_c2_elabs_1LOUU54.sdf', '/opt/xchem-fragalysis-2/maxwin/BulkDock/OUTPUTS/openbind_a71ev2a_c2_elabs_1LSYIDY.sdf']

>  <name>  (390) 
P545481

>  <ref_pdb>  (390) 
A0884a

>  <subsites>  (390) 
None

>  <HIPPO Pose ID>  (390) 
545481

>  <ref_mols>  (390) 
A0884a

>  <HIPPO Compound ID>  (390) 
383975

>  <tags>  (390) 
openbind_a71ev2a_c2_elabs,syndirella_product,openbind_a71ev2a_c2_elabs_fragonly_scored_top80percent,BulkDock Fragalysis export,openbind_a71ev2a_c2_elabs_scored,openbind_a71ev2a_c2_elabs_scored_top80percent,openbind_a71ev2a_c2_elabs_activefrags_only_scored_5.2plus,openbind_a71ev2a_c2_elabs_activefrags_only_scored_5.5plus,syndirella_placed

>  <smina_score_min>  (390) 
-6.354

$$$$
P545482
     RDKit          3D

 21 23  0  0  0  0  0  0  0  0999 V2000
    5.3162   14.7732   28.2273 C   0  0  0  0  0  0  0  0  0  0  0  0
    4.6994   13.8966   27.1640 C   0  0  0  0  0  0  0  0  0  0  0  0
    5.5231   12.7110   26.7159 C   0  0  0  0  0  0  0  0  0  0  0  0
    5.3248   11.6553   27.1695 O   0  0  0  0  0  0  0  0  0  0  0  0
    6.6075   13.1873   25.7296 N   0  0  0  0  0  0  0  0  0  0  0  0
    7.5836   12.4709   25.0444 C   0  0  0  0  0  0  0  0  0  0  0  0
    7.6323   11.0798   25.0541 C   0  0  0  0  0  0  0  0  0  0  0  0
    8.6259   10.4142   24.3318 C   0  0  0  0  0  0  0  0  0  0  0  0
    9.6046   11.1313   23.6452 C   0  0  0  0  0  0  0  0  0  0  0  0
    9.5811   12.5253   23.6619 C   0  0  0  0  0  0  0  0  0  0  0  0
   10.5851   13.2687   22.9779 N   0  0  0  0  0  0  0  0  0  0  0  0
   10.1744   14.1021   21.9533 C   0  0  0  0  0  0  0  0  0  0  0  0
    9.0113   14.1705   21.5591 O   0  0  0  0  0  0  0  0  0  0  0  0
   11.1680   15.0339   21.3430 C   0  0  0  0  0  0  0  0  0  0  0  0
   12.5476   14.5178   21.5392 C   0  0  0  0  0  0  0  0  0  0  0  0
   12.7227   14.1912   22.9201 N   0  0  0  0  0  0  0  0  0  0  0  0
   11.8094   13.4462   23.6038 C   0  0  0  0  0  0  0  0  0  0  0  0
   12.0986   13.0603   24.7336 O   0  0  0  0  0  0  0  0  0  0  0  0
    8.5453   13.1900   24.3326 C   0  0  0  0  0  0  0  0  0  0  0  0
    3.1875   13.7476   27.2116 C   0  0  0  0  0  0  0  0  0  0  0  0
    3.8138   14.5590   26.1181 C   0  0  0  0  0  0  0  0  0  0  0  0
  1  2  1  0
  2  3  1  0
  3  4  2  0
  3  5  1  0
  5  6  1  0
  6  7  2  0
  7  8  1  0
  8  9  2  0
  9 10  1  0
 10 11  1  0
 11 12  1  0
 12 13  2  0
 12 14  1  0
 14 15  1  0
 15 16  1  0
 16 17  1  0
 17 18  2  0
 10 19  2  0
  2 20  1  0
 20 21  1  0
 21  2  1  0
 19  6  1  0
 17 11  1  0
M  END
>  <alias>  (391) 
None

>  <rmsd(smina/fragmenstein)>  (391) 
0.548

>  <smiles>  (391) 
CC1(C(=O)Nc2cccc(N3C(=O)CCNC3=O)c2)CC1

>  <gnina_score>  (391) 
5.085

>  <inspiration_score>  (391) 
None

>  <energy_score>  (391) 
-29.328209

>  <distance_score>  (391) 
1.728597

>  <gnina_score_min>  (391) 
5.244

>  <inchikey>  (391) 
CNUJMYJLISYIEE-UHFFFAOYSA-N

>  <exports>  (391) 
['/opt/xchem-fragalysis-2/maxwin/BulkDock/OUTPUTS/openbind_a71ev2a_c2_elabs_1LOUU54.sdf', '/opt/xchem-fragalysis-2/maxwin/BulkDock/OUTPUTS/openbind_a71ev2a_c2_elabs_1LSYIDY.sdf']

>  <name>  (391) 
P545482

>  <ref_pdb>  (391) 
A0884a

>  <subsites>  (391) 
None

>  <HIPPO Pose ID>  (391) 
545482

>  <ref_mols>  (391) 
A0884a

>  <HIPPO Compound ID>  (391) 
383978

>  <tags>  (391) 
openbind_a71ev2a_c2_elabs,syndirella_product,openbind_a71ev2a_c2_elabs_fragonly_scored_top80percent,openbind_a71ev2a_c2_elabs_scored,BulkDock Fragalysis export,openbind_a71ev2a_c2_elabs_scored_top80percent,openbind_a71ev2a_c2_elabs_activefrags_only_scored_5.2plus,syndirella_placed

>  <smina_score_min>  (391) 
-7.19

$$$$
P545483
     RDKit          3D

 21 23  0  0  0  0  0  0  0  0999 V2000
    8.4243   14.3740   24.9857 C   0  0  0  0  0  0  0  0  0  0  0  0
    8.5972   12.9018   24.7585 C   0  0  0  0  0  0  0  0  0  0  0  0
    7.7263   11.9588   25.3332 C   0  0  0  0  0  0  0  0  0  0  0  0
    6.7720   12.2206   26.3201 N   0  0  0  0  0  0  0  0  0  0  0  0
    6.7496   13.2902   27.4383 C   0  0  0  0  0  0  0  0  0  0  0  0
    7.4870   14.1671   27.6610 O   0  0  0  0  0  0  0  0  0  0  0  0
    5.5321   13.1524   28.3651 C   0  0  0  0  0  0  0  0  0  0  0  0
    5.5561   14.0386   29.6004 C   0  0  0  0  0  0  0  0  0  0  0  0
    4.1668   12.9338   27.7287 C   0  0  0  0  0  0  0  0  0  0  0  0
    4.7946   11.8302   28.5315 C   0  0  0  0  0  0  0  0  0  0  0  0
    7.7817   10.6259   24.9168 C   0  0  0  0  0  0  0  0  0  0  0  0
    8.7162   10.2093   23.9769 C   0  0  0  0  0  0  0  0  0  0  0  0
    9.6033   11.1184   23.4342 C   0  0  0  0  0  0  0  0  0  0  0  0
    9.5787   12.4518   23.8441 C   0  0  0  0  0  0  0  0  0  0  0  0
   10.5830   13.2717   23.3072 N   0  0  0  0  0  0  0  0  0  0  0  0
   11.5469   13.9250   24.0191 C   0  0  0  0  0  0  0  0  0  0  0  0
   11.7516   13.9022   25.2254 O   0  0  0  0  0  0  0  0  0  0  0  0
   12.3519   14.7637   23.0466 C   0  0  0  0  0  0  0  0  0  0  0  0
   11.6465   14.5670   21.8385 N   0  0  0  0  0  0  0  0  0  0  0  0
   10.5067   13.8501   22.0781 C   0  0  0  0  0  0  0  0  0  0  0  0
    9.5589   13.8905   21.3179 O   0  0  0  0  0  0  0  0  0  0  0  0
  1  2  1  0
  2  3  2  0
  3  4  1  0
  4  5  1  0
  5  6  2  0
  5  7  1  0
  7  8  1  0
  7  9  1  0
  9 10  1  0
  3 11  1  0
 11 12  2  0
 12 13  1  0
 13 14  2  0
 14 15  1  0
 15 16  1  0
 16 17  2  0
 16 18  1  0
 18 19  1  0
 19 20  1  0
 20 21  2  0
 14  2  1  0
 20 15  1  0
 10  7  1  0
M  END
>  <alias>  (392) 
None

>  <rmsd(smina/fragmenstein)>  (392) 
0.597

>  <smiles>  (392) 
Cc1c(NC(=O)C2(C)CC2)cccc1N1C(=O)CNC1=O

>  <gnina_score>  (392) 
5.316

>  <inspiration_score>  (392) 
None

>  <energy_score>  (392) 
-17.034202

>  <distance_score>  (392) 
1.624403

>  <gnina_score_min>  (392) 
5.31

>  <inchikey>  (392) 
UBPXKQCAFAYVGE-UHFFFAOYSA-N

>  <exports>  (392) 
['/opt/xchem-fragalysis-2/maxwin/BulkDock/OUTPUTS/openbind_a71ev2a_c2_elabs_1LOUU54.sdf', '/opt/xchem-fragalysis-2/maxwin/BulkDock/OUTPUTS/openbind_a71ev2a_c2_elabs_1LSYIDY.sdf']

>  <name>  (392) 
P545483

>  <ref_pdb>  (392) 
A0884a

>  <subsites>  (392) 
None

>  <HIPPO Pose ID>  (392) 
545483

>  <ref_mols>  (392) 
A0884a

>  <HIPPO Compound ID>  (392) 
383979

>  <tags>  (392) 
openbind_a71ev2a_c2_elabs,syndirella_product,openbind_a71ev2a_c2_elabs_fragonly_scored_top80percent,openbind_a71ev2a_c2_elabs_scored,BulkDock Fragalysis export,openbind_a71ev2a_c2_elabs_scored_top80percent,openbind_a71ev2a_c2_elabs_activefrags_only_scored_5.2plus,syndirella_placed

>  <smina_score_min>  (392) 
-6.456

$$$$
P545485
     RDKit          3D

 21 22  0  0  0  0  0  0  0  0999 V2000
    5.3962   12.9906   30.1896 C   0  0  0  0  0  0  0  0  0  0  0  0
    5.5081   14.1479   29.1958 C   0  0  0  0  0  0  0  0  0  0  0  0
    6.9668   14.5769   29.0405 C   0  0  0  0  0  0  0  0  0  0  0  0
    4.8250   13.8279   27.8566 C   0  0  0  0  0  0  0  0  0  0  0  0
    5.3947   12.6073   27.1351 C   0  0  0  0  0  0  0  0  0  0  0  0
    4.9744   11.5273   27.2956 O   0  0  0  0  0  0  0  0  0  0  0  0
    6.5600   13.1134   26.2323 N   0  0  0  0  0  0  0  0  0  0  0  0
    7.4676   12.4077   25.4496 C   0  0  0  0  0  0  0  0  0  0  0  0
    7.3785   11.0292   25.2742 C   0  0  0  0  0  0  0  0  0  0  0  0
    8.2939   10.3680   24.4528 C   0  0  0  0  0  0  0  0  0  0  0  0
    9.3028   11.0740   23.8108 C   0  0  0  0  0  0  0  0  0  0  0  0
    9.4364   12.4430   24.0475 C   0  0  0  0  0  0  0  0  0  0  0  0
   10.5688   13.0813   23.5326 N   0  0  0  0  0  0  0  0  0  0  0  0
   11.4063   13.8863   24.2477 C   0  0  0  0  0  0  0  0  0  0  0  0
   11.3912   14.1405   25.4466 O   0  0  0  0  0  0  0  0  0  0  0  0
   12.3770   14.5183   23.2780 C   0  0  0  0  0  0  0  0  0  0  0  0
   11.8405   14.1174   22.0274 N   0  0  0  0  0  0  0  0  0  0  0  0
   12.0601   14.9229   20.8603 C   0  0  0  0  0  0  0  0  0  0  0  0
   10.5975   13.5644   22.2596 C   0  0  0  0  0  0  0  0  0  0  0  0
    9.6521   13.6990   21.5030 O   0  0  0  0  0  0  0  0  0  0  0  0
    8.5069   13.1150   24.8437 C   0  0  0  0  0  0  0  0  0  0  0  0
  1  2  1  0
  2  3  1  0
  2  4  1  0
  4  5  1  0
  5  6  2  0
  5  7  1  0
  7  8  1  0
  8  9  2  0
  9 10  1  0
 10 11  2  0
 11 12  1  0
 12 13  1  0
 13 14  1  0
 14 15  2  0
 14 16  1  0
 16 17  1  0
 17 18  1  0
 17 19  1  0
 19 20  2  0
 12 21  2  0
 21  8  1  0
 19 13  1  0
M  END
>  <alias>  (393) 
None

>  <rmsd(smina/fragmenstein)>  (393) 
1.336

>  <smiles>  (393) 
CC(C)CC(=O)Nc1cccc(N2C(=O)CN(C)C2=O)c1

>  <gnina_score>  (393) 
5.072

>  <inspiration_score>  (393) 
None

>  <energy_score>  (393) 
-21.989716

>  <distance_score>  (393) 
1.543756

>  <gnina_score_min>  (393) 
5.221

>  <inchikey>  (393) 
KOOSQHCHRYIQMS-UHFFFAOYSA-N

>  <exports>  (393) 
['/opt/xchem-fragalysis-2/maxwin/BulkDock/OUTPUTS/openbind_a71ev2a_c2_elabs_1LOUU54.sdf', '/opt/xchem-fragalysis-2/maxwin/BulkDock/OUTPUTS/openbind_a71ev2a_c2_elabs_1LSYIDY.sdf']

>  <name>  (393) 
P545485

>  <ref_pdb>  (393) 
A0884a

>  <subsites>  (393) 
None

>  <HIPPO Pose ID>  (393) 
545485

>  <ref_mols>  (393) 
A0884a

>  <HIPPO Compound ID>  (393) 
383986

>  <tags>  (393) 
openbind_a71ev2a_c2_elabs,syndirella_product,openbind_a71ev2a_c2_elabs_fragonly_scored_top80percent,openbind_a71ev2a_c2_elabs_scored,BulkDock Fragalysis export,openbind_a71ev2a_c2_elabs_scored_top80percent,openbind_a71ev2a_c2_elabs_activefrags_only_scored_5.2plus,syndirella_placed

>  <smina_score_min>  (393) 
-6.258

$$$$
P545487
     RDKit          3D

 21 22  0  0  0  0  0  0  0  0999 V2000
    3.1161   15.0344   28.9718 C   0  0  0  0  0  0  0  0  0  0  0  0
    3.9216   14.0054   28.3143 C   0  0  0  0  0  0  0  0  0  0  0  0
    4.5810   13.1600   27.7708 C   0  0  0  0  0  0  0  0  0  0  0  0
    5.3828   12.1530   27.1005 C   0  0  0  0  0  0  0  0  0  0  0  0
    5.2195   11.0324   27.3734 O   0  0  0  0  0  0  0  0  0  0  0  0
    6.3481   12.8046   26.0948 N   0  0  0  0  0  0  0  0  0  0  0  0
    7.3541   12.2394   25.3031 C   0  0  0  0  0  0  0  0  0  0  0  0
    7.4569   10.8516   25.1988 C   0  0  0  0  0  0  0  0  0  0  0  0
    8.4400   10.2785   24.3994 C   0  0  0  0  0  0  0  0  0  0  0  0
    9.3581   11.0823   23.7517 C   0  0  0  0  0  0  0  0  0  0  0  0
   10.3158   10.4959   23.0282 F   0  0  0  0  0  0  0  0  0  0  0  0
    9.3230   12.4692   23.8848 C   0  0  0  0  0  0  0  0  0  0  0  0
   10.4210   13.1775   23.3599 N   0  0  0  0  0  0  0  0  0  0  0  0
   11.3417   13.8432   24.1177 C   0  0  0  0  0  0  0  0  0  0  0  0
   11.4108   13.9129   25.3385 O   0  0  0  0  0  0  0  0  0  0  0  0
   12.2766   14.5829   23.1825 C   0  0  0  0  0  0  0  0  0  0  0  0
   11.6441   14.3778   21.9357 N   0  0  0  0  0  0  0  0  0  0  0  0
   10.4419   13.7497   22.1271 C   0  0  0  0  0  0  0  0  0  0  0  0
    9.5258   13.8747   21.3376 O   0  0  0  0  0  0  0  0  0  0  0  0
    8.2640   13.0668   24.6046 C   0  0  0  0  0  0  0  0  0  0  0  0
    8.1108   14.5589   24.6243 C   0  0  0  0  0  0  0  0  0  0  0  0
  1  2  1  0
  2  3  3  0
  3  4  1  0
  4  5  2  0
  4  6  1  0
  6  7  1  0
  7  8  2  0
  8  9  1  0
  9 10  2  0
 10 11  1  0
 10 12  1  0
 12 13  1  0
 13 14  1  0
 14 15  2  0
 14 16  1  0
 16 17  1  0
 17 18  1  0
 18 19  2  0
 12 20  2  0
 20 21  1  0
 20  7  1  0
 18 13  1  0
M  END
>  <alias>  (394) 
None

>  <rmsd(smina/fragmenstein)>  (394) 
0.509

>  <smiles>  (394) 
CC#CC(=O)Nc1ccc(F)c(N2C(=O)CNC2=O)c1C

>  <gnina_score>  (394) 
5.435

>  <inspiration_score>  (394) 
None

>  <energy_score>  (394) 
-47.989663

>  <distance_score>  (394) 
1.552646

>  <gnina_score_min>  (394) 
5.388

>  <inchikey>  (394) 
UYACPTFMLMLHMK-UHFFFAOYSA-N

>  <exports>  (394) 
['/opt/xchem-fragalysis-2/maxwin/BulkDock/OUTPUTS/openbind_a71ev2a_c2_elabs_1LOUU54.sdf', '/opt/xchem-fragalysis-2/maxwin/BulkDock/OUTPUTS/openbind_a71ev2a_c2_elabs_1LSYIDY.sdf']

>  <name>  (394) 
P545487

>  <ref_pdb>  (394) 
A0884a

>  <subsites>  (394) 
None

>  <HIPPO Pose ID>  (394) 
545487

>  <ref_mols>  (394) 
A0884a

>  <HIPPO Compound ID>  (394) 
383989

>  <tags>  (394) 
openbind_a71ev2a_c2_elabs,syndirella_product,openbind_a71ev2a_c2_elabs_fragonly_scored_top80percent,openbind_a71ev2a_c2_elabs_scored,BulkDock Fragalysis export,openbind_a71ev2a_c2_elabs_scored_top80percent,openbind_a71ev2a_c2_elabs_activefrags_only_scored_5.2plus,syndirella_placed

>  <smina_score_min>  (394) 
-6.332

$$$$
P545488
     RDKit          3D

 21 22  0  0  0  0  0  0  0  0999 V2000
    3.9207   13.5488   29.2310 C   0  0  0  0  0  0  0  0  0  0  0  0
    3.7241   14.3114   27.9575 C   0  0  0  0  0  0  0  0  0  0  0  0
    2.6542   15.6755   28.1135 Cl  0  0  0  0  0  0  0  0  0  0  0  0
    4.2838   14.0810   26.7603 C   0  0  0  0  0  0  0  0  0  0  0  0
    5.1587   12.9061   26.4858 C   0  0  0  0  0  0  0  0  0  0  0  0
    5.0151   11.8734   27.0103 O   0  0  0  0  0  0  0  0  0  0  0  0
    6.1775   13.3511   25.4056 N   0  0  0  0  0  0  0  0  0  0  0  0
    7.2503   12.6681   24.8388 C   0  0  0  0  0  0  0  0  0  0  0  0
    7.4394   11.3012   25.0514 C   0  0  0  0  0  0  0  0  0  0  0  0
    8.5110   10.6503   24.4461 C   0  0  0  0  0  0  0  0  0  0  0  0
    9.4201   11.3788   23.6892 C   0  0  0  0  0  0  0  0  0  0  0  0
   10.4240   10.7162   23.1097 F   0  0  0  0  0  0  0  0  0  0  0  0
    9.2598   12.7532   23.4795 C   0  0  0  0  0  0  0  0  0  0  0  0
   10.2328   13.4916   22.7416 N   0  0  0  0  0  0  0  0  0  0  0  0
    9.7758   14.4518   21.7425 C   0  0  0  0  0  0  0  0  0  0  0  0
   10.8535   14.8977   20.7739 C   0  0  0  0  0  0  0  0  0  0  0  0
   12.1230   15.2093   21.5206 C   0  0  0  0  0  0  0  0  0  0  0  0
   12.4356   14.2455   22.5331 N   0  0  0  0  0  0  0  0  0  0  0  0
   11.5116   13.5726   23.2703 C   0  0  0  0  0  0  0  0  0  0  0  0
   11.8514   13.1202   24.3626 O   0  0  0  0  0  0  0  0  0  0  0  0
    8.1409   13.3851   24.0301 C   0  0  0  0  0  0  0  0  0  0  0  0
  1  2  1  0
  2  3  1  0
  2  4  2  0
  4  5  1  0
  5  6  2  0
  5  7  1  0
  7  8  1  0
  8  9  2  0
  9 10  1  0
 10 11  2  0
 11 12  1  0
 11 13  1  0
 13 14  1  0
 14 15  1  0
 15 16  1  0
 16 17  1  0
 17 18  1  0
 18 19  1  0
 19 20  2  0
 13 21  2  0
 21  8  1  0
 19 14  1  0
M  END
>  <alias>  (395) 
None

>  <rmsd(smina/fragmenstein)>  (395) 
1.395

>  <smiles>  (395) 
C/C(Cl)=C\C(=O)Nc1ccc(F)c(N2CCCNC2=O)c1

>  <gnina_score>  (395) 
5.254

>  <inspiration_score>  (395) 
None

>  <energy_score>  (395) 
-52.256544

>  <distance_score>  (395) 
1.295772

>  <gnina_score_min>  (395) 
5.307

>  <inchikey>  (395) 
JLIGDSFTDBFDNH-VQHVLOKHSA-N

>  <exports>  (395) 
['/opt/xchem-fragalysis-2/maxwin/BulkDock/OUTPUTS/openbind_a71ev2a_c2_elabs_1LOUU54.sdf', '/opt/xchem-fragalysis-2/maxwin/BulkDock/OUTPUTS/openbind_a71ev2a_c2_elabs_1LSYIDY.sdf']

>  <name>  (395) 
P545488

>  <ref_pdb>  (395) 
A0884a

>  <subsites>  (395) 
None

>  <HIPPO Pose ID>  (395) 
545488

>  <ref_mols>  (395) 
A0884a

>  <HIPPO Compound ID>  (395) 
383990

>  <tags>  (395) 
openbind_a71ev2a_c2_elabs,syndirella_product,openbind_a71ev2a_c2_elabs_fragonly_scored_top80percent,openbind_a71ev2a_c2_elabs_scored,BulkDock Fragalysis export,openbind_a71ev2a_c2_elabs_scored_top80percent,openbind_a71ev2a_c2_elabs_activefrags_only_scored_5.2plus,syndirella_placed

>  <smina_score_min>  (395) 
-6.331

$$$$
P545490
     RDKit          3D

 21 22  0  0  0  0  0  0  0  0999 V2000
    4.3761   11.3993   29.9339 C   0  0  0  0  0  0  0  0  0  0  0  0
    4.0217   12.5006   28.9829 C   0  0  0  0  0  0  0  0  0  0  0  0
    2.8526   13.6259   29.6135 Cl  0  0  0  0  0  0  0  0  0  0  0  0
    4.5075   12.7205   27.7516 C   0  0  0  0  0  0  0  0  0  0  0  0
    5.4519   11.7866   27.0723 C   0  0  0  0  0  0  0  0  0  0  0  0
    5.4649   10.6402   27.2870 O   0  0  0  0  0  0  0  0  0  0  0  0
    6.2688   12.6278   26.0598 N   0  0  0  0  0  0  0  0  0  0  0  0
    7.3051   12.2556   25.1968 C   0  0  0  0  0  0  0  0  0  0  0  0
    7.6451   10.9045   25.0664 C   0  0  0  0  0  0  0  0  0  0  0  0
    8.6980   10.5185   24.2442 C   0  0  0  0  0  0  0  0  0  0  0  0
    9.4545   11.4900   23.6109 C   0  0  0  0  0  0  0  0  0  0  0  0
   10.4621   11.0959   22.8298 F   0  0  0  0  0  0  0  0  0  0  0  0
    9.1592   12.8514   23.7410 C   0  0  0  0  0  0  0  0  0  0  0  0
   10.0541   13.8250   23.2230 N   0  0  0  0  0  0  0  0  0  0  0  0
    9.9280   14.3106   21.8632 C   0  0  0  0  0  0  0  0  0  0  0  0
   11.3030   14.8657   21.5205 C   0  0  0  0  0  0  0  0  0  0  0  0
   12.1561   14.3404   22.5426 N   0  0  0  0  0  0  0  0  0  0  0  0
   11.4189   13.7775   23.5671 C   0  0  0  0  0  0  0  0  0  0  0  0
   11.8925   13.3616   24.6126 O   0  0  0  0  0  0  0  0  0  0  0  0
    8.0206   13.2433   24.4780 C   0  0  0  0  0  0  0  0  0  0  0  0
    7.6455   14.6991   24.5665 C   0  0  0  0  0  0  0  0  0  0  0  0
  1  2  1  0
  2  3  1  0
  2  4  2  0
  4  5  1  0
  5  6  2  0
  5  7  1  0
  7  8  1  0
  8  9  2  0
  9 10  1  0
 10 11  2  0
 11 12  1  0
 11 13  1  0
 13 14  1  0
 14 15  1  0
 15 16  1  0
 16 17  1  0
 17 18  1  0
 18 19  2  0
 13 20  2  0
 20 21  1  0
 20  8  1  0
 18 14  1  0
M  END
>  <alias>  (396) 
None

>  <rmsd(smina/fragmenstein)>  (396) 
0.745

>  <smiles>  (396) 
C/C(Cl)=C\C(=O)Nc1ccc(F)c(N2CCNC2=O)c1C

>  <gnina_score>  (396) 
5.267

>  <inspiration_score>  (396) 
None

>  <energy_score>  (396) 
-42.53792

>  <distance_score>  (396) 
1.196138

>  <gnina_score_min>  (396) 
5.279

>  <inchikey>  (396) 
XMLCXHXZGCZGBK-BQYQJAHWSA-N

>  <exports>  (396) 
['/opt/xchem-fragalysis-2/maxwin/BulkDock/OUTPUTS/openbind_a71ev2a_c2_elabs_1LOUU54.sdf', '/opt/xchem-fragalysis-2/maxwin/BulkDock/OUTPUTS/openbind_a71ev2a_c2_elabs_1LSYIDY.sdf']

>  <name>  (396) 
P545490

>  <ref_pdb>  (396) 
A0884a

>  <subsites>  (396) 
None

>  <HIPPO Pose ID>  (396) 
545490

>  <ref_mols>  (396) 
A0884a

>  <HIPPO Compound ID>  (396) 
383991

>  <tags>  (396) 
openbind_a71ev2a_c2_elabs,syndirella_product,openbind_a71ev2a_c2_elabs_fragonly_scored_top80percent,openbind_a71ev2a_c2_elabs_scored,BulkDock Fragalysis export,openbind_a71ev2a_c2_elabs_scored_top80percent,openbind_a71ev2a_c2_elabs_activefrags_only_scored_5.2plus,syndirella_placed

>  <smina_score_min>  (396) 
-6.122

$$$$
P545491
     RDKit          3D

 21 22  0  0  0  0  0  0  0  0999 V2000
    8.0621   14.5453   24.5987 C   0  0  0  0  0  0  0  0  0  0  0  0
    8.2370   13.0556   24.5687 C   0  0  0  0  0  0  0  0  0  0  0  0
    7.3554   12.2048   25.2728 C   0  0  0  0  0  0  0  0  0  0  0  0
    6.3207   12.7283   26.0526 N   0  0  0  0  0  0  0  0  0  0  0  0
    5.3819   12.0335   27.0913 C   0  0  0  0  0  0  0  0  0  0  0  0
    5.2848   10.9033   27.3912 O   0  0  0  0  0  0  0  0  0  0  0  0
    4.4512   13.1340   27.6421 C   0  0  0  0  0  0  0  0  0  0  0  0
    3.6956   12.6756   28.8234 N   0  0  0  0  0  0  0  0  0  0  0  0
    2.9155   11.5046   28.4340 O   0  0  0  0  0  0  0  0  0  0  0  0
    7.5020   10.8193   25.1824 C   0  0  0  0  0  0  0  0  0  0  0  0
    8.4902   10.2680   24.3768 C   0  0  0  0  0  0  0  0  0  0  0  0
    9.3803   11.0940   23.7214 C   0  0  0  0  0  0  0  0  0  0  0  0
   10.3469   10.5310   22.9926 F   0  0  0  0  0  0  0  0  0  0  0  0
    9.3101   12.4799   23.8520 C   0  0  0  0  0  0  0  0  0  0  0  0
   10.3996   13.2072   23.3402 N   0  0  0  0  0  0  0  0  0  0  0  0
   11.3225   13.8558   24.1094 C   0  0  0  0  0  0  0  0  0  0  0  0
   11.3823   13.9119   25.3311 O   0  0  0  0  0  0  0  0  0  0  0  0
   12.2690   14.5943   23.1852 C   0  0  0  0  0  0  0  0  0  0  0  0
   11.6401   14.4067   21.9329 N   0  0  0  0  0  0  0  0  0  0  0  0
   10.4351   13.7795   22.1085 C   0  0  0  0  0  0  0  0  0  0  0  0
    9.5290   13.8992   21.3070 O   0  0  0  0  0  0  0  0  0  0  0  0
  1  2  1  0
  2  3  2  0
  3  4  1  0
  4  5  1  0
  5  6  2  0
  5  7  1  0
  7  8  1  0
  8  9  1  0
  3 10  1  0
 10 11  2  0
 11 12  1  0
 12 13  1  0
 12 14  2  0
 14 15  1  0
 15 16  1  0
 16 17  2  0
 16 18  1  0
 18 19  1  0
 19 20  1  0
 20 21  2  0
 14  2  1  0
 20 15  1  0
M  END
>  <alias>  (397) 
None

>  <rmsd(smina/fragmenstein)>  (397) 
0.421

>  <smiles>  (397) 
Cc1c(NC(=O)CNO)ccc(F)c1N1C(=O)CNC1=O

>  <gnina_score>  (397) 
5.231

>  <inspiration_score>  (397) 
None

>  <energy_score>  (397) 
-46.464632

>  <distance_score>  (397) 
1.572929

>  <gnina_score_min>  (397) 
5.248

>  <inchikey>  (397) 
TWTRPIBHVOUHNW-UHFFFAOYSA-N

>  <exports>  (397) 
['/opt/xchem-fragalysis-2/maxwin/BulkDock/OUTPUTS/openbind_a71ev2a_c2_elabs_1LOUU54.sdf', '/opt/xchem-fragalysis-2/maxwin/BulkDock/OUTPUTS/openbind_a71ev2a_c2_elabs_1LSYIDY.sdf']

>  <name>  (397) 
P545491

>  <ref_pdb>  (397) 
A0884a

>  <subsites>  (397) 
None

>  <HIPPO Pose ID>  (397) 
545491

>  <ref_mols>  (397) 
A0884a

>  <HIPPO Compound ID>  (397) 
383995

>  <tags>  (397) 
openbind_a71ev2a_c2_elabs,syndirella_product,openbind_a71ev2a_c2_elabs_fragonly_scored_top80percent,openbind_a71ev2a_c2_elabs_scored,BulkDock Fragalysis export,openbind_a71ev2a_c2_elabs_scored_top80percent,openbind_a71ev2a_c2_elabs_activefrags_only_scored_5.2plus,syndirella_placed

>  <smina_score_min>  (397) 
-6.168

$$$$
P545497
     RDKit          3D

 21 22  0  0  0  0  0  0  0  0999 V2000
   12.0696   16.0786   25.5636 O   0  0  0  0  0  0  0  0  0  0  0  0
   11.7500   15.1083   24.8669 C   0  0  0  0  0  0  0  0  0  0  0  0
   10.8811   14.1470   25.5123 C   0  0  0  0  0  0  0  0  0  0  0  0
   11.0783   12.9063   24.7238 C   0  0  0  0  0  0  0  0  0  0  0  0
   10.5880   13.0543   23.3803 N   0  0  0  0  0  0  0  0  0  0  0  0
    9.2957   12.4599   23.2560 C   0  0  0  0  0  0  0  0  0  0  0  0
    8.2073   13.2706   23.5976 C   0  0  0  0  0  0  0  0  0  0  0  0
    7.2171   12.7589   24.4449 C   0  0  0  0  0  0  0  0  0  0  0  0
    6.2804   13.6468   24.9570 N   0  0  0  0  0  0  0  0  0  0  0  0
    5.1701   13.4388   26.0375 C   0  0  0  0  0  0  0  0  0  0  0  0
    4.8303   12.4684   26.5996 O   0  0  0  0  0  0  0  0  0  0  0  0
    4.4976   14.8135   26.1942 C   0  0  0  0  0  0  0  0  0  0  0  0
    5.5460   15.8418   26.3455 N   0  0  0  0  0  0  0  0  0  0  0  0
    4.8585   17.1163   26.1916 O   0  0  0  0  0  0  0  0  0  0  0  0
    7.2396   11.4164   24.8339 C   0  0  0  0  0  0  0  0  0  0  0  0
    8.2143   10.5604   24.3294 C   0  0  0  0  0  0  0  0  0  0  0  0
    9.2241   11.0779   23.5338 C   0  0  0  0  0  0  0  0  0  0  0  0
   10.2599   10.2811   23.2460 F   0  0  0  0  0  0  0  0  0  0  0  0
   11.0348   14.1988   22.7358 C   0  0  0  0  0  0  0  0  0  0  0  0
   10.6698   14.5998   21.6418 O   0  0  0  0  0  0  0  0  0  0  0  0
   11.9116   14.9541   23.5019 N   0  0  0  0  0  0  0  0  0  0  0  0
  1  2  2  0
  2  3  1  0
  3  4  1  0
  4  5  1  0
  5  6  1  0
  6  7  2  0
  7  8  1  0
  8  9  1  0
  9 10  1  0
 10 11  2  0
 10 12  1  0
 12 13  1  0
 13 14  1  0
  8 15  2  0
 15 16  1  0
 16 17  2  0
 17 18  1  0
  5 19  1  0
 19 20  2  0
 19 21  1  0
 21  2  1  0
 17  6  1  0
M  END
>  <alias>  (398) 
None

>  <rmsd(smina/fragmenstein)>  (398) 
0.506

>  <smiles>  (398) 
O=C1CCN(c2cc(NC(=O)CNO)ccc2F)C(=O)N1

>  <gnina_score>  (398) 
5.282

>  <inspiration_score>  (398) 
None

>  <energy_score>  (398) 
-15.01109

>  <distance_score>  (398) 
1.582618

>  <gnina_score_min>  (398) 
5.338

>  <inchikey>  (398) 
QNIPGAWPPDWPBL-UHFFFAOYSA-N

>  <exports>  (398) 
['/opt/xchem-fragalysis-2/maxwin/BulkDock/OUTPUTS/openbind_a71ev2a_c2_elabs_1LOUU54.sdf', '/opt/xchem-fragalysis-2/maxwin/BulkDock/OUTPUTS/openbind_a71ev2a_c2_elabs_1LSYIDY.sdf']

>  <name>  (398) 
P545497

>  <ref_pdb>  (398) 
A0884a

>  <subsites>  (398) 
None

>  <HIPPO Pose ID>  (398) 
545497

>  <ref_mols>  (398) 
A0884a

>  <HIPPO Compound ID>  (398) 
384000

>  <tags>  (398) 
openbind_a71ev2a_c2_elabs,syndirella_product,openbind_a71ev2a_c2_elabs_fragonly_scored_top80percent,openbind_a71ev2a_c2_elabs_scored,BulkDock Fragalysis export,openbind_a71ev2a_c2_elabs_scored_top80percent,openbind_a71ev2a_c2_elabs_activefrags_only_scored_5.2plus,syndirella_placed

>  <smina_score_min>  (398) 
-4.743

$$$$
P545503
     RDKit          3D

 21 22  0  0  0  0  0  0  0  0999 V2000
   11.8866   15.1654   24.8242 O   0  0  0  0  0  0  0  0  0  0  0  0
   11.9798   14.5879   23.7502 C   0  0  0  0  0  0  0  0  0  0  0  0
   12.5184   13.2300   23.6579 C   0  0  0  0  0  0  0  0  0  0  0  0
   11.2312   12.5230   23.8930 C   0  0  0  0  0  0  0  0  0  0  0  0
   10.1361   12.9117   23.0263 N   0  0  0  0  0  0  0  0  0  0  0  0
    8.8885   12.4117   23.5531 C   0  0  0  0  0  0  0  0  0  0  0  0
    7.9342   13.3354   24.0103 C   0  0  0  0  0  0  0  0  0  0  0  0
    6.9299   12.9429   24.9003 C   0  0  0  0  0  0  0  0  0  0  0  0
    6.0182   13.8952   25.3470 N   0  0  0  0  0  0  0  0  0  0  0  0
    4.7873   13.7532   26.3062 C   0  0  0  0  0  0  0  0  0  0  0  0
    4.4063   12.8295   26.9221 O   0  0  0  0  0  0  0  0  0  0  0  0
    4.1253   15.1499   26.3530 C   0  0  0  0  0  0  0  0  0  0  0  0
    2.7539   15.0332   26.8809 N   0  0  0  0  0  0  0  0  0  0  0  0
    2.3748   16.3841   27.2629 O   0  0  0  0  0  0  0  0  0  0  0  0
    6.8668   11.6221   25.3372 C   0  0  0  0  0  0  0  0  0  0  0  0
    7.7465   10.6751   24.8248 C   0  0  0  0  0  0  0  0  0  0  0  0
    8.7320   11.0530   23.9175 C   0  0  0  0  0  0  0  0  0  0  0  0
    9.6625    9.7607   23.2423 Cl  0  0  0  0  0  0  0  0  0  0  0  0
   10.2290   14.1353   22.3544 C   0  0  0  0  0  0  0  0  0  0  0  0
    9.3440   14.5963   21.6450 O   0  0  0  0  0  0  0  0  0  0  0  0
   11.3298   14.9068   22.6079 N   0  0  0  0  0  0  0  0  0  0  0  0
  1  2  2  0
  2  3  1  0
  3  4  1  0
  4  5  1  0
  5  6  1  0
  6  7  2  0
  7  8  1  0
  8  9  1  0
  9 10  1  0
 10 11  2  0
 10 12  1  0
 12 13  1  0
 13 14  1  0
  8 15  2  0
 15 16  1  0
 16 17  2  0
 17 18  1  0
  5 19  1  0
 19 20  2  0
 19 21  1  0
 21  2  1  0
 17  6  1  0
M  END
>  <alias>  (399) 
None

>  <rmsd(smina/fragmenstein)>  (399) 
1.018

>  <smiles>  (399) 
O=C1CCN(c2cc(NC(=O)CNO)ccc2Cl)C(=O)N1

>  <gnina_score>  (399) 
5.274

>  <inspiration_score>  (399) 
None

>  <energy_score>  (399) 
-26.75351

>  <distance_score>  (399) 
1.978857

>  <gnina_score_min>  (399) 
5.568

>  <inchikey>  (399) 
HPMFJQZUCAJZSX-UHFFFAOYSA-N

>  <exports>  (399) 
['/opt/xchem-fragalysis-2/maxwin/BulkDock/OUTPUTS/openbind_a71ev2a_c2_elabs_1LOUU54.sdf', '/opt/xchem-fragalysis-2/maxwin/BulkDock/OUTPUTS/openbind_a71ev2a_c2_elabs_1LSYIDY.sdf']

>  <name>  (399) 
P545503

>  <ref_pdb>  (399) 
A0884a

>  <subsites>  (399) 
None

>  <HIPPO Pose ID>  (399) 
545503

>  <ref_mols>  (399) 
A0884a

>  <HIPPO Compound ID>  (399) 
384007

>  <tags>  (399) 
openbind_a71ev2a_c2_elabs,syndirella_product,openbind_a71ev2a_c2_elabs_fragonly_scored_top80percent,BulkDock Fragalysis export,openbind_a71ev2a_c2_elabs_scored,openbind_a71ev2a_c2_elabs_scored_top80percent,openbind_a71ev2a_c2_elabs_activefrags_only_scored_5.2plus,openbind_a71ev2a_c2_elabs_activefrags_only_scored_5.5plus,syndirella_placed

>  <smina_score_min>  (399) 
-5.796

$$$$
P545505
     RDKit          3D

 21 22  0  0  0  0  0  0  0  0999 V2000
    2.2887   13.3684   27.5815 C   0  0  0  0  0  0  0  0  0  0  0  0
    3.1828   14.4600   27.0835 C   0  0  0  0  0  0  0  0  0  0  0  0
    2.4698   16.0468   27.2460 Cl  0  0  0  0  0  0  0  0  0  0  0  0
    4.4097   14.3849   26.5422 C   0  0  0  0  0  0  0  0  0  0  0  0
    5.1996   13.1241   26.3634 C   0  0  0  0  0  0  0  0  0  0  0  0
    4.9189   12.1194   26.8879 O   0  0  0  0  0  0  0  0  0  0  0  0
    6.3912   13.4732   25.4293 N   0  0  0  0  0  0  0  0  0  0  0  0
    7.3891   12.6618   24.8950 C   0  0  0  0  0  0  0  0  0  0  0  0
    7.4145   11.2833   25.1036 C   0  0  0  0  0  0  0  0  0  0  0  0
    8.4218   10.5128   24.5220 C   0  0  0  0  0  0  0  0  0  0  0  0
    9.4404   11.1271   23.8044 C   0  0  0  0  0  0  0  0  0  0  0  0
   10.4001   10.3611   23.2795 F   0  0  0  0  0  0  0  0  0  0  0  0
    9.4544   12.5068   23.6228 C   0  0  0  0  0  0  0  0  0  0  0  0
   10.5315   13.1321   22.9614 N   0  0  0  0  0  0  0  0  0  0  0  0
   11.6800   13.4706   23.6331 C   0  0  0  0  0  0  0  0  0  0  0  0
   12.0486   13.0864   24.7359 O   0  0  0  0  0  0  0  0  0  0  0  0
   12.3743   14.5808   22.8729 C   0  0  0  0  0  0  0  0  0  0  0  0
   11.5096   14.7527   21.7697 N   0  0  0  0  0  0  0  0  0  0  0  0
   10.3570   14.0497   21.9717 C   0  0  0  0  0  0  0  0  0  0  0  0
    9.3297   14.3330   21.3840 O   0  0  0  0  0  0  0  0  0  0  0  0
    8.3937   13.2673   24.1341 C   0  0  0  0  0  0  0  0  0  0  0  0
  1  2  1  0
  2  3  1  0
  2  4  2  0
  4  5  1  0
  5  6  2  0
  5  7  1  0
  7  8  1  0
  8  9  2  0
  9 10  1  0
 10 11  2  0
 11 12  1  0
 11 13  1  0
 13 14  1  0
 14 15  1  0
 15 16  2  0
 15 17  1  0
 17 18  1  0
 18 19  1  0
 19 20  2  0
 13 21  2  0
 21  8  1  0
 19 14  1  0
M  END
>  <alias>  (400) 
None

>  <rmsd(smina/fragmenstein)>  (400) 
1.292

>  <smiles>  (400) 
C/C(Cl)=C\C(=O)Nc1ccc(F)c(N2C(=O)CNC2=O)c1

>  <gnina_score>  (400) 
5.345

>  <inspiration_score>  (400) 
None

>  <energy_score>  (400) 
-8.302914

>  <distance_score>  (400) 
1.747764

>  <gnina_score_min>  (400) 
5.31

>  <inchikey>  (400) 
ULZRSLYYFYGLQH-QPJJXVBHSA-N

>  <exports>  (400) 
['/opt/xchem-fragalysis-2/maxwin/BulkDock/OUTPUTS/openbind_a71ev2a_c2_elabs_1LOUU54.sdf', '/opt/xchem-fragalysis-2/maxwin/BulkDock/OUTPUTS/openbind_a71ev2a_c2_elabs_1LSYIDY.sdf']

>  <name>  (400) 
P545505

>  <ref_pdb>  (400) 
A0884a

>  <subsites>  (400) 
None

>  <HIPPO Pose ID>  (400) 
545505

>  <ref_mols>  (400) 
A0884a

>  <HIPPO Compound ID>  (400) 
384011

>  <tags>  (400) 
openbind_a71ev2a_c2_elabs,syndirella_product,openbind_a71ev2a_c2_elabs_fragonly_scored_top80percent,openbind_a71ev2a_c2_elabs_scored,BulkDock Fragalysis export,openbind_a71ev2a_c2_elabs_scored_top80percent,openbind_a71ev2a_c2_elabs_activefrags_only_scored_5.2plus,syndirella_placed

>  <smina_score_min>  (400) 
-6.976

$$$$
P545507
     RDKit          3D

 21 22  0  0  0  0  0  0  0  0999 V2000
    6.2160   13.7716   29.3531 C   0  0  0  0  0  0  0  0  0  0  0  0
    4.7912   13.6534   28.9064 C   0  0  0  0  0  0  0  0  0  0  0  0
    3.7145   14.7877   29.6630 Cl  0  0  0  0  0  0  0  0  0  0  0  0
    4.2805   12.7792   28.0275 C   0  0  0  0  0  0  0  0  0  0  0  0
    5.1173   11.7657   27.3438 C   0  0  0  0  0  0  0  0  0  0  0  0
    5.0476   10.6319   27.6015 O   0  0  0  0  0  0  0  0  0  0  0  0
    5.9999   12.5057   26.3174 N   0  0  0  0  0  0  0  0  0  0  0  0
    7.0130   12.0330   25.4898 C   0  0  0  0  0  0  0  0  0  0  0  0
    7.2534   10.6867   25.2637 C   0  0  0  0  0  0  0  0  0  0  0  0
    8.3090   10.2996   24.4289 C   0  0  0  0  0  0  0  0  0  0  0  0
    9.1869   11.2427   23.9000 C   0  0  0  0  0  0  0  0  0  0  0  0
    9.0246   12.5856   24.2464 C   0  0  0  0  0  0  0  0  0  0  0  0
   10.1149   13.4700   24.1792 N   0  0  0  0  0  0  0  0  0  0  0  0
   11.1739   13.3942   23.3236 C   0  0  0  0  0  0  0  0  0  0  0  0
   11.2548   12.8001   22.2668 O   0  0  0  0  0  0  0  0  0  0  0  0
   12.2997   14.2175   23.8565 C   0  0  0  0  0  0  0  0  0  0  0  0
   11.7736   14.6054   25.1282 N   0  0  0  0  0  0  0  0  0  0  0  0
   10.4510   14.2793   25.2359 C   0  0  0  0  0  0  0  0  0  0  0  0
    9.8016   14.6797   26.1902 O   0  0  0  0  0  0  0  0  0  0  0  0
    7.8689   12.9723   24.9295 C   0  0  0  0  0  0  0  0  0  0  0  0
    7.5985   14.2738   25.1275 F   0  0  0  0  0  0  0  0  0  0  0  0
  1  2  1  0
  2  3  1  0
  2  4  2  0
  4  5  1  0
  5  6  2  0
  5  7  1  0
  7  8  1  0
  8  9  2  0
  9 10  1  0
 10 11  2  0
 11 12  1  0
 12 13  1  0
 13 14  1  0
 14 15  2  0
 14 16  1  0
 16 17  1  0
 17 18  1  0
 18 19  2  0
 12 20  2  0
 20 21  1  0
 20  8  1  0
 18 13  1  0
M  END
>  <alias>  (401) 
None

>  <rmsd(smina/fragmenstein)>  (401) 
1.91

>  <smiles>  (401) 
C/C(Cl)=C\C(=O)Nc1cccc(N2C(=O)CNC2=O)c1F

>  <gnina_score>  (401) 
4.822

>  <inspiration_score>  (401) 
None

>  <energy_score>  (401) 
-45.008458

>  <distance_score>  (401) 
1.434453

>  <gnina_score_min>  (401) 
5.216

>  <inchikey>  (401) 
NHBQQNGAFPYOBP-FNORWQNLSA-N

>  <exports>  (401) 
['/opt/xchem-fragalysis-2/maxwin/BulkDock/OUTPUTS/openbind_a71ev2a_c2_elabs_1LOUU54.sdf', '/opt/xchem-fragalysis-2/maxwin/BulkDock/OUTPUTS/openbind_a71ev2a_c2_elabs_1LSYIDY.sdf']

>  <name>  (401) 
P545507

>  <ref_pdb>  (401) 
A0884a

>  <subsites>  (401) 
None

>  <HIPPO Pose ID>  (401) 
545507

>  <ref_mols>  (401) 
A0884a

>  <HIPPO Compound ID>  (401) 
384013

>  <tags>  (401) 
openbind_a71ev2a_c2_elabs,syndirella_product,openbind_a71ev2a_c2_elabs_fragonly_scored_top80percent,openbind_a71ev2a_c2_elabs_scored,BulkDock Fragalysis export,openbind_a71ev2a_c2_elabs_scored_top80percent,openbind_a71ev2a_c2_elabs_activefrags_only_scored_5.2plus,syndirella_placed

>  <smina_score_min>  (401) 
-7.02

$$$$
P545509
     RDKit          3D

 21 22  0  0  0  0  0  0  0  0999 V2000
    3.6271   14.1352   25.6911 C   0  0  0  0  0  0  0  0  0  0  0  0
    3.9034   13.8553   27.1357 C   0  0  0  0  0  0  0  0  0  0  0  0
    2.9821   14.8586   28.2226 Cl  0  0  0  0  0  0  0  0  0  0  0  0
    4.7248   12.9412   27.6742 C   0  0  0  0  0  0  0  0  0  0  0  0
    5.5877   11.9688   26.9481 C   0  0  0  0  0  0  0  0  0  0  0  0
    5.5799   10.8379   27.2341 O   0  0  0  0  0  0  0  0  0  0  0  0
    6.4643   12.7401   25.9352 N   0  0  0  0  0  0  0  0  0  0  0  0
    7.4219   12.2769   25.0207 C   0  0  0  0  0  0  0  0  0  0  0  0
    7.7331   10.9165   24.9758 C   0  0  0  0  0  0  0  0  0  0  0  0
    8.7757   10.4612   24.1789 C   0  0  0  0  0  0  0  0  0  0  0  0
    9.5483   11.3729   23.4722 C   0  0  0  0  0  0  0  0  0  0  0  0
    9.2479   12.7443   23.4752 C   0  0  0  0  0  0  0  0  0  0  0  0
   10.1898   13.5942   22.8064 N   0  0  0  0  0  0  0  0  0  0  0  0
    9.7561   14.4835   21.7334 C   0  0  0  0  0  0  0  0  0  0  0  0
   10.8515   14.8784   20.7600 C   0  0  0  0  0  0  0  0  0  0  0  0
   12.1019   15.2363   21.5169 C   0  0  0  0  0  0  0  0  0  0  0  0
   12.4084   14.3015   22.5574 N   0  0  0  0  0  0  0  0  0  0  0  0
   11.4792   13.6599   23.3158 C   0  0  0  0  0  0  0  0  0  0  0  0
   11.8391   13.1817   24.3913 O   0  0  0  0  0  0  0  0  0  0  0  0
    8.1135   13.1992   24.1901 C   0  0  0  0  0  0  0  0  0  0  0  0
    7.6855   14.6409   24.1721 C   0  0  0  0  0  0  0  0  0  0  0  0
  1  2  1  0
  2  3  1  0
  2  4  2  0
  4  5  1  0
  5  6  2  0
  5  7  1  0
  7  8  1  0
  8  9  2  0
  9 10  1  0
 10 11  2  0
 11 12  1  0
 12 13  1  0
 13 14  1  0
 14 15  1  0
 15 16  1  0
 16 17  1  0
 17 18  1  0
 18 19  2  0
 12 20  2  0
 20 21  1  0
 20  8  1  0
 18 13  1  0
M  END
>  <alias>  (402) 
None

>  <rmsd(smina/fragmenstein)>  (402) 
0.429

>  <smiles>  (402) 
C/C(Cl)=C\C(=O)Nc1cccc(N2CCCNC2=O)c1C

>  <gnina_score>  (402) 
5.202

>  <inspiration_score>  (402) 
None

>  <energy_score>  (402) 
-39.229423

>  <distance_score>  (402) 
1.09607

>  <gnina_score_min>  (402) 
5.237

>  <inchikey>  (402) 
MKVLBWYVWMSTEV-MDZDMXLPSA-N

>  <exports>  (402) 
['/opt/xchem-fragalysis-2/maxwin/BulkDock/OUTPUTS/openbind_a71ev2a_c2_elabs_1LOUU54.sdf', '/opt/xchem-fragalysis-2/maxwin/BulkDock/OUTPUTS/openbind_a71ev2a_c2_elabs_1LSYIDY.sdf']

>  <name>  (402) 
P545509

>  <ref_pdb>  (402) 
A0884a

>  <subsites>  (402) 
None

>  <HIPPO Pose ID>  (402) 
545509

>  <ref_mols>  (402) 
A0884a

>  <HIPPO Compound ID>  (402) 
384014

>  <tags>  (402) 
openbind_a71ev2a_c2_elabs,syndirella_product,openbind_a71ev2a_c2_elabs_fragonly_scored_top80percent,openbind_a71ev2a_c2_elabs_scored,BulkDock Fragalysis export,openbind_a71ev2a_c2_elabs_scored_top80percent,openbind_a71ev2a_c2_elabs_activefrags_only_scored_5.2plus,syndirella_placed

>  <smina_score_min>  (402) 
-6.651

$$$$
P545517
     RDKit          3D

 21 22  0  0  0  0  0  0  0  0999 V2000
    5.3341   15.3571   27.2658 C   0  0  0  0  0  0  0  0  0  0  0  0
    4.5325   14.2759   26.5230 C   0  0  0  0  0  0  0  0  0  0  0  0
    3.3132   13.9079   27.3957 C   0  0  0  0  0  0  0  0  0  0  0  0
    4.0085   14.8126   25.1817 C   0  0  0  0  0  0  0  0  0  0  0  0
    5.3957   12.9918   26.3083 C   0  0  0  0  0  0  0  0  0  0  0  0
    5.1065   11.9627   26.7876 O   0  0  0  0  0  0  0  0  0  0  0  0
    6.6109   13.3829   25.4115 N   0  0  0  0  0  0  0  0  0  0  0  0
    7.6222   12.5969   24.8676 C   0  0  0  0  0  0  0  0  0  0  0  0
    7.6089   11.2077   24.9475 C   0  0  0  0  0  0  0  0  0  0  0  0
    8.6213   10.4723   24.3282 C   0  0  0  0  0  0  0  0  0  0  0  0
    9.6754   11.1195   23.6799 C   0  0  0  0  0  0  0  0  0  0  0  0
    9.7252   12.5138   23.6399 C   0  0  0  0  0  0  0  0  0  0  0  0
   10.8144   13.1744   23.0452 N   0  0  0  0  0  0  0  0  0  0  0  0
   10.6940   14.1529   22.0989 C   0  0  0  0  0  0  0  0  0  0  0  0
    9.6866   14.4670   21.4866 O   0  0  0  0  0  0  0  0  0  0  0  0
   12.0336   14.8029   21.8735 C   0  0  0  0  0  0  0  0  0  0  0  0
   12.7877   14.1959   22.9124 N   0  0  0  0  0  0  0  0  0  0  0  0
   12.0533   13.2732   23.6136 C   0  0  0  0  0  0  0  0  0  0  0  0
   12.4812   12.7371   24.6216 O   0  0  0  0  0  0  0  0  0  0  0  0
    8.6769   13.2385   24.2119 C   0  0  0  0  0  0  0  0  0  0  0  0
    8.7164   14.5813   24.2218 F   0  0  0  0  0  0  0  0  0  0  0  0
  1  2  1  0
  2  3  1  0
  2  4  1  0
  2  5  1  0
  5  6  2  0
  5  7  1  0
  7  8  1  0
  8  9  2  0
  9 10  1  0
 10 11  2  0
 11 12  1  0
 12 13  1  0
 13 14  1  0
 14 15  2  0
 14 16  1  0
 16 17  1  0
 17 18  1  0
 18 19  2  0
 12 20  2  0
 20 21  1  0
 20  8  1  0
 18 13  1  0
M  END
>  <alias>  (403) 
None

>  <rmsd(smina/fragmenstein)>  (403) 
0.73

>  <smiles>  (403) 
CC(C)(C)C(=O)Nc1cccc(N2C(=O)CNC2=O)c1F

>  <gnina_score>  (403) 
5.205

>  <inspiration_score>  (403) 
None

>  <energy_score>  (403) 
-46.921484

>  <distance_score>  (403) 
1.624477

>  <gnina_score_min>  (403) 
5.312

>  <inchikey>  (403) 
SSAHXBOISJTMGC-UHFFFAOYSA-N

>  <exports>  (403) 
['/opt/xchem-fragalysis-2/maxwin/BulkDock/OUTPUTS/openbind_a71ev2a_c2_elabs_1LOUU54.sdf', '/opt/xchem-fragalysis-2/maxwin/BulkDock/OUTPUTS/openbind_a71ev2a_c2_elabs_1LSYIDY.sdf']

>  <name>  (403) 
P545517

>  <ref_pdb>  (403) 
A0884a

>  <subsites>  (403) 
None

>  <HIPPO Pose ID>  (403) 
545517

>  <ref_mols>  (403) 
A0884a

>  <HIPPO Compound ID>  (403) 
384021

>  <tags>  (403) 
openbind_a71ev2a_c2_elabs,syndirella_product,openbind_a71ev2a_c2_elabs_fragonly_scored_top80percent,openbind_a71ev2a_c2_elabs_scored,BulkDock Fragalysis export,openbind_a71ev2a_c2_elabs_scored_top80percent,openbind_a71ev2a_c2_elabs_activefrags_only_scored_5.2plus,syndirella_placed

>  <smina_score_min>  (403) 
-6.849

$$$$
P545532
     RDKit          3D

 21 22  0  0  0  0  0  0  0  0999 V2000
    9.1350    9.5420   23.8650 C   0  0  0  0  0  0  0  0  0  0  0  0
    8.8475   10.9773   24.1002 C   0  0  0  0  0  0  0  0  0  0  0  0
    7.7694   11.4101   24.8819 C   0  0  0  0  0  0  0  0  0  0  0  0
    7.4830   12.7717   24.9785 C   0  0  0  0  0  0  0  0  0  0  0  0
    6.4200   13.2486   25.7377 N   0  0  0  0  0  0  0  0  0  0  0  0
    5.4528   12.5015   26.7076 C   0  0  0  0  0  0  0  0  0  0  0  0
    5.3570   11.3612   26.9534 O   0  0  0  0  0  0  0  0  0  0  0  0
    4.5114   13.6008   27.2571 C   0  0  1  0  0  0  0  0  0  0  0  0
    3.7298   13.1204   28.4697 C   0  0  0  0  0  0  0  0  0  0  0  0
    5.2259   14.7882   27.5892 O   0  0  0  0  0  0  0  0  0  0  0  0
    8.2696   13.6960   24.2905 C   0  0  0  0  0  0  0  0  0  0  0  0
    9.3750   13.2592   23.5645 C   0  0  0  0  0  0  0  0  0  0  0  0
   10.1909   14.1825   22.8698 N   0  0  0  0  0  0  0  0  0  0  0  0
    9.6630   14.5844   21.5644 C   0  0  0  0  0  0  0  0  0  0  0  0
   10.6218   15.3783   20.7231 C   0  0  0  0  0  0  0  0  0  0  0  0
   11.9878   14.7909   20.8933 C   0  0  0  0  0  0  0  0  0  0  0  0
   12.6996   14.4225   19.9643 O   0  0  0  0  0  0  0  0  0  0  0  0
   12.3749   14.7094   22.1992 N   0  0  0  0  0  0  0  0  0  0  0  0
   11.5540   14.1655   23.1417 C   0  0  0  0  0  0  0  0  0  0  0  0
   12.0380   13.6719   24.1624 O   0  0  0  0  0  0  0  0  0  0  0  0
    9.6580   11.9041   23.4622 C   0  0  0  0  0  0  0  0  0  0  0  0
  1  2  1  0
  2  3  2  0
  3  4  1  0
  4  5  1  0
  5  6  1  0
  6  7  2  0
  6  8  1  0
  8  9  1  1
  8 10  1  0
  4 11  2  0
 11 12  1  0
 12 13  1  0
 13 14  1  0
 14 15  1  0
 15 16  1  0
 16 17  2  0
 16 18  1  0
 18 19  1  0
 19 20  2  0
 12 21  2  0
 21  2  1  0
 19 13  1  0
M  END
>  <alias>  (404) 
None

>  <rmsd(smina/fragmenstein)>  (404) 
0.635

>  <smiles>  (404) 
Cc1cc(NC(=O)[C@@H](C)O)cc(N2CCC(=O)NC2=O)c1

>  <gnina_score>  (404) 
5.221

>  <inspiration_score>  (404) 
None

>  <energy_score>  (404) 
-35.398382

>  <distance_score>  (404) 
1.312808

>  <gnina_score_min>  (404) 
5.289

>  <inchikey>  (404) 
YKXFZGSPWOIXLI-SECBINFHSA-N

>  <exports>  (404) 
['/opt/xchem-fragalysis-2/maxwin/BulkDock/OUTPUTS/openbind_a71ev2a_c2_elabs_1LOUU54.sdf', '/opt/xchem-fragalysis-2/maxwin/BulkDock/OUTPUTS/openbind_a71ev2a_c2_elabs_1LSYIDY.sdf']

>  <name>  (404) 
P545532

>  <ref_pdb>  (404) 
A0884a

>  <subsites>  (404) 
None

>  <HIPPO Pose ID>  (404) 
545532

>  <ref_mols>  (404) 
A0884a

>  <HIPPO Compound ID>  (404) 
384034

>  <tags>  (404) 
openbind_a71ev2a_c2_elabs,syndirella_product,openbind_a71ev2a_c2_elabs_fragonly_scored_top80percent,openbind_a71ev2a_c2_elabs_scored,BulkDock Fragalysis export,openbind_a71ev2a_c2_elabs_scored_top80percent,openbind_a71ev2a_c2_elabs_activefrags_only_scored_5.2plus,syndirella_placed

>  <smina_score_min>  (404) 
-6.919

$$$$
P545534
     RDKit          3D

 21 22  0  0  0  0  0  0  0  0999 V2000
    3.4382   14.4771   25.8383 C   0  0  0  0  0  0  0  0  0  0  0  0
    4.1975   13.8352   26.9890 C   0  0  1  0  0  0  0  0  0  0  0  0
    3.2242   13.2504   27.8624 O   0  0  0  0  0  0  0  0  0  0  0  0
    5.2074   12.7492   26.5276 C   0  0  0  0  0  0  0  0  0  0  0  0
    5.1026   11.6316   26.8651 O   0  0  0  0  0  0  0  0  0  0  0  0
    6.2931   13.4412   25.6478 N   0  0  0  0  0  0  0  0  0  0  0  0
    7.3731   12.9020   24.9549 C   0  0  0  0  0  0  0  0  0  0  0  0
    7.6311   11.5331   24.9338 C   0  0  0  0  0  0  0  0  0  0  0  0
    8.7144   11.0617   24.1960 C   0  0  0  0  0  0  0  0  0  0  0  0
    8.9859    9.4040   23.9896 Cl  0  0  0  0  0  0  0  0  0  0  0  0
    9.5789   11.9215   23.5466 C   0  0  0  0  0  0  0  0  0  0  0  0
    9.3239   13.2837   23.5794 C   0  0  0  0  0  0  0  0  0  0  0  0
   10.1746   14.1642   22.8713 N   0  0  0  0  0  0  0  0  0  0  0  0
    9.6677   14.5731   21.5617 C   0  0  0  0  0  0  0  0  0  0  0  0
   10.6487   15.3525   20.7344 C   0  0  0  0  0  0  0  0  0  0  0  0
   12.0017   14.7389   20.9124 C   0  0  0  0  0  0  0  0  0  0  0  0
   12.7079   14.3630   19.9833 O   0  0  0  0  0  0  0  0  0  0  0  0
   12.3755   14.6454   22.2215 N   0  0  0  0  0  0  0  0  0  0  0  0
   11.5341   14.1265   23.1602 C   0  0  0  0  0  0  0  0  0  0  0  0
   11.9896   13.6420   24.1971 O   0  0  0  0  0  0  0  0  0  0  0  0
    8.2035   13.7744   24.2492 C   0  0  0  0  0  0  0  0  0  0  0  0
  2  1  1  6
  2  3  1  0
  2  4  1  0
  4  5  2  0
  4  6  1  0
  6  7  1  0
  7  8  2  0
  8  9  1  0
  9 10  1  0
  9 11  2  0
 11 12  1  0
 12 13  1  0
 13 14  1  0
 14 15  1  0
 15 16  1  0
 16 17  2  0
 16 18  1  0
 18 19  1  0
 19 20  2  0
 12 21  2  0
 21  7  1  0
 19 13  1  0
M  END
>  <alias>  (405) 
None

>  <rmsd(smina/fragmenstein)>  (405) 
0.871

>  <smiles>  (405) 
C[C@@H](O)C(=O)Nc1cc(Cl)cc(N2CCC(=O)NC2=O)c1

>  <gnina_score>  (405) 
5.191

>  <inspiration_score>  (405) 
None

>  <energy_score>  (405) 
-9.176518

>  <distance_score>  (405) 
1.400193

>  <gnina_score_min>  (405) 
5.355

>  <inchikey>  (405) 
WQABKMDTQNWJEO-SSDOTTSWSA-N

>  <exports>  (405) 
['/opt/xchem-fragalysis-2/maxwin/BulkDock/OUTPUTS/openbind_a71ev2a_c2_elabs_1LOUU54.sdf', '/opt/xchem-fragalysis-2/maxwin/BulkDock/OUTPUTS/openbind_a71ev2a_c2_elabs_1LSYIDY.sdf']

>  <name>  (405) 
P545534

>  <ref_pdb>  (405) 
A0884a

>  <subsites>  (405) 
None

>  <HIPPO Pose ID>  (405) 
545534

>  <ref_mols>  (405) 
A0884a

>  <HIPPO Compound ID>  (405) 
384035

>  <tags>  (405) 
openbind_a71ev2a_c2_elabs,syndirella_product,openbind_a71ev2a_c2_elabs_fragonly_scored_top80percent,openbind_a71ev2a_c2_elabs_scored,BulkDock Fragalysis export,openbind_a71ev2a_c2_elabs_scored_top80percent,openbind_a71ev2a_c2_elabs_activefrags_only_scored_5.2plus,syndirella_placed

>  <smina_score_min>  (405) 
-6.955

$$$$
P545536
     RDKit          3D

 21 22  0  0  0  0  0  0  0  0999 V2000
    4.7412   14.7720   27.5574 C   0  0  0  0  0  0  0  0  0  0  0  0
    4.1880   13.5973   26.7684 C   0  0  2  0  0  0  0  0  0  0  0  0
    3.0967   13.0305   27.4990 O   0  0  0  0  0  0  0  0  0  0  0  0
    5.2738   12.5218   26.5305 C   0  0  0  0  0  0  0  0  0  0  0  0
    5.2621   11.4950   27.0955 O   0  0  0  0  0  0  0  0  0  0  0  0
    6.2686   13.0780   25.4638 N   0  0  0  0  0  0  0  0  0  0  0  0
    7.3557   12.4669   24.8303 C   0  0  0  0  0  0  0  0  0  0  0  0
    8.1520   13.2766   24.0109 C   0  0  0  0  0  0  0  0  0  0  0  0
    9.2995   12.7574   23.4026 C   0  0  0  0  0  0  0  0  0  0  0  0
   10.1686   13.5825   22.6467 N   0  0  0  0  0  0  0  0  0  0  0  0
    9.6052   14.5010   21.6706 C   0  0  0  0  0  0  0  0  0  0  0  0
   10.5859   14.9556   20.6104 C   0  0  0  0  0  0  0  0  0  0  0  0
   11.9927   14.5770   20.9534 C   0  0  0  0  0  0  0  0  0  0  0  0
   12.8312   14.3244   20.0936 O   0  0  0  0  0  0  0  0  0  0  0  0
   12.2621   14.5476   22.2875 N   0  0  0  0  0  0  0  0  0  0  0  0
   11.4718   13.7829   23.0989 C   0  0  0  0  0  0  0  0  0  0  0  0
   11.9274   13.3058   24.1371 O   0  0  0  0  0  0  0  0  0  0  0  0
    9.5972   11.4000   23.5342 C   0  0  0  0  0  0  0  0  0  0  0  0
    8.7721   10.5737   24.2871 C   0  0  0  0  0  0  0  0  0  0  0  0
    7.6821   11.1144   24.9605 C   0  0  0  0  0  0  0  0  0  0  0  0
    6.9331   10.2780   25.6844 F   0  0  0  0  0  0  0  0  0  0  0  0
  2  1  1  1
  2  3  1  0
  2  4  1  0
  4  5  2  0
  4  6  1  0
  6  7  1  0
  7  8  2  0
  8  9  1  0
  9 10  1  0
 10 11  1  0
 11 12  1  0
 12 13  1  0
 13 14  2  0
 13 15  1  0
 15 16  1  0
 16 17  2  0
  9 18  2  0
 18 19  1  0
 19 20  2  0
 20 21  1  0
 20  7  1  0
 16 10  1  0
M  END
>  <alias>  (406) 
None

>  <rmsd(smina/fragmenstein)>  (406) 
0.89

>  <smiles>  (406) 
C[C@H](O)C(=O)Nc1cc(N2CCC(=O)NC2=O)ccc1F

>  <gnina_score>  (406) 
5.24

>  <inspiration_score>  (406) 
None

>  <energy_score>  (406) 
-32.858901

>  <distance_score>  (406) 
1.208471

>  <gnina_score_min>  (406) 
5.205

>  <inchikey>  (406) 
FVJFVXBGHNWLIC-ZETCQYMHSA-N

>  <exports>  (406) 
['/opt/xchem-fragalysis-2/maxwin/BulkDock/OUTPUTS/openbind_a71ev2a_c2_elabs_1LOUU54.sdf', '/opt/xchem-fragalysis-2/maxwin/BulkDock/OUTPUTS/openbind_a71ev2a_c2_elabs_1LSYIDY.sdf']

>  <name>  (406) 
P545536

>  <ref_pdb>  (406) 
A0884a

>  <subsites>  (406) 
None

>  <HIPPO Pose ID>  (406) 
545536

>  <ref_mols>  (406) 
A0884a

>  <HIPPO Compound ID>  (406) 
384036

>  <tags>  (406) 
openbind_a71ev2a_c2_elabs,syndirella_product,openbind_a71ev2a_c2_elabs_fragonly_scored_top80percent,openbind_a71ev2a_c2_elabs_scored,BulkDock Fragalysis export,openbind_a71ev2a_c2_elabs_scored_top80percent,openbind_a71ev2a_c2_elabs_activefrags_only_scored_5.2plus,syndirella_placed

>  <smina_score_min>  (406) 
-7.345

$$$$
P545537
     RDKit          3D

 21 22  0  0  0  0  0  0  0  0999 V2000
    9.9568   10.2963   23.0514 C   0  0  0  0  0  0  0  0  0  0  0  0
    9.0590   11.1970   23.8360 C   0  0  0  0  0  0  0  0  0  0  0  0
    8.1322   10.5650   24.6775 C   0  0  0  0  0  0  0  0  0  0  0  0
    7.1967   11.2981   25.3997 C   0  0  0  0  0  0  0  0  0  0  0  0
    7.1801   12.6826   25.2969 C   0  0  0  0  0  0  0  0  0  0  0  0
    6.2387   13.4518   25.9757 N   0  0  0  0  0  0  0  0  0  0  0  0
    5.1419   13.0349   27.0048 C   0  0  0  0  0  0  0  0  0  0  0  0
    4.8152   11.9738   27.3774 O   0  0  0  0  0  0  0  0  0  0  0  0
    4.4723   14.3495   27.4581 C   0  0  2  0  0  0  0  0  0  0  0  0
    3.4586   14.8091   26.4235 C   0  0  0  0  0  0  0  0  0  0  0  0
    5.4403   15.3823   27.6381 O   0  0  0  0  0  0  0  0  0  0  0  0
    8.1129   13.3287   24.4792 C   0  0  0  0  0  0  0  0  0  0  0  0
    9.0672   12.6008   23.7495 C   0  0  0  0  0  0  0  0  0  0  0  0
    9.9930   13.2998   22.9079 N   0  0  0  0  0  0  0  0  0  0  0  0
    9.4447   14.2888   21.9888 C   0  0  0  0  0  0  0  0  0  0  0  0
   10.4100   14.7770   20.9304 C   0  0  0  0  0  0  0  0  0  0  0  0
   11.8385   14.5355   21.2968 C   0  0  0  0  0  0  0  0  0  0  0  0
   12.7359   14.5468   20.4585 O   0  0  0  0  0  0  0  0  0  0  0  0
   12.0816   14.3224   22.6187 N   0  0  0  0  0  0  0  0  0  0  0  0
   11.2751   13.5427   23.4050 C   0  0  0  0  0  0  0  0  0  0  0  0
   11.7127   13.1073   24.4678 O   0  0  0  0  0  0  0  0  0  0  0  0
  1  2  1  0
  2  3  2  0
  3  4  1  0
  4  5  2  0
  5  6  1  0
  6  7  1  0
  7  8  2  0
  7  9  1  0
  9 10  1  6
  9 11  1  0
  5 12  1  0
 12 13  2  0
 13 14  1  0
 14 15  1  0
 15 16  1  0
 16 17  1  0
 17 18  2  0
 17 19  1  0
 19 20  1  0
 20 21  2  0
 13  2  1  0
 20 14  1  0
M  END
>  <alias>  (407) 
None

>  <rmsd(smina/fragmenstein)>  (407) 
0.715

>  <smiles>  (407) 
Cc1ccc(NC(=O)[C@H](C)O)cc1N1CCC(=O)NC1=O

>  <gnina_score>  (407) 
5.26

>  <inspiration_score>  (407) 
None

>  <energy_score>  (407) 
-40.776037

>  <distance_score>  (407) 
1.351524

>  <gnina_score_min>  (407) 
5.212

>  <inchikey>  (407) 
NXLJEBWXBNRHDT-VIFPVBQESA-N

>  <exports>  (407) 
['/opt/xchem-fragalysis-2/maxwin/BulkDock/OUTPUTS/openbind_a71ev2a_c2_elabs_1LOUU54.sdf', '/opt/xchem-fragalysis-2/maxwin/BulkDock/OUTPUTS/openbind_a71ev2a_c2_elabs_1LSYIDY.sdf']

>  <name>  (407) 
P545537

>  <ref_pdb>  (407) 
A0884a

>  <subsites>  (407) 
None

>  <HIPPO Pose ID>  (407) 
545537

>  <ref_mols>  (407) 
A0884a

>  <HIPPO Compound ID>  (407) 
384037

>  <tags>  (407) 
openbind_a71ev2a_c2_elabs,syndirella_product,openbind_a71ev2a_c2_elabs_fragonly_scored_top80percent,openbind_a71ev2a_c2_elabs_scored,BulkDock Fragalysis export,openbind_a71ev2a_c2_elabs_scored_top80percent,openbind_a71ev2a_c2_elabs_activefrags_only_scored_5.2plus,syndirella_placed

>  <smina_score_min>  (407) 
-6.868

$$$$
P545541
     RDKit          3D

 21 22  0  0  0  0  0  0  0  0999 V2000
    2.7550   14.2233   27.5529 C   0  0  0  0  0  0  0  0  0  0  0  0
    4.1647   14.4763   27.0423 C   0  0  2  0  0  0  0  0  0  0  0  0
    4.1113   15.3250   25.8989 O   0  0  0  0  0  0  0  0  0  0  0  0
    4.9074   13.1547   26.7324 C   0  0  0  0  0  0  0  0  0  0  0  0
    4.6076   12.1061   27.1589 O   0  0  0  0  0  0  0  0  0  0  0  0
    6.0466   13.5559   25.7416 N   0  0  0  0  0  0  0  0  0  0  0  0
    7.0617   12.7914   25.1756 C   0  0  0  0  0  0  0  0  0  0  0  0
    7.1390   11.4202   25.3950 C   0  0  0  0  0  0  0  0  0  0  0  0
    8.1116   10.6732   24.7418 C   0  0  0  0  0  0  0  0  0  0  0  0
    9.0309   11.2938   23.8949 C   0  0  0  0  0  0  0  0  0  0  0  0
   10.0445   10.2355   23.0164 Cl  0  0  0  0  0  0  0  0  0  0  0  0
    9.0017   12.6843   23.6951 C   0  0  0  0  0  0  0  0  0  0  0  0
    9.9497   13.3608   22.8536 N   0  0  0  0  0  0  0  0  0  0  0  0
    9.4443   14.3410   21.9021 C   0  0  0  0  0  0  0  0  0  0  0  0
   10.4442   14.8034   20.8639 C   0  0  0  0  0  0  0  0  0  0  0  0
   11.8570   14.4977   21.2415 C   0  0  0  0  0  0  0  0  0  0  0  0
   12.7575   14.4566   20.4076 O   0  0  0  0  0  0  0  0  0  0  0  0
   12.0805   14.2934   22.5685 N   0  0  0  0  0  0  0  0  0  0  0  0
   11.2379   13.5548   23.3547 C   0  0  0  0  0  0  0  0  0  0  0  0
   11.6407   13.1207   24.4322 O   0  0  0  0  0  0  0  0  0  0  0  0
    7.9891   13.4186   24.3335 C   0  0  0  0  0  0  0  0  0  0  0  0
  2  1  1  6
  2  3  1  0
  2  4  1  0
  4  5  2  0
  4  6  1  0
  6  7  1  0
  7  8  2  0
  8  9  1  0
  9 10  2  0
 10 11  1  0
 10 12  1  0
 12 13  1  0
 13 14  1  0
 14 15  1  0
 15 16  1  0
 16 17  2  0
 16 18  1  0
 18 19  1  0
 19 20  2  0
 12 21  2  0
 21  7  1  0
 19 13  1  0
M  END
>  <alias>  (408) 
None

>  <rmsd(smina/fragmenstein)>  (408) 
0.596

>  <smiles>  (408) 
C[C@H](O)C(=O)Nc1ccc(Cl)c(N2CCC(=O)NC2=O)c1

>  <gnina_score>  (408) 
5.451

>  <inspiration_score>  (408) 
None

>  <energy_score>  (408) 
-50.814292

>  <distance_score>  (408) 
1.459439

>  <gnina_score_min>  (408) 
5.436

>  <inchikey>  (408) 
CFMOIYKILOXPDL-ZETCQYMHSA-N

>  <exports>  (408) 
['/opt/xchem-fragalysis-2/maxwin/BulkDock/OUTPUTS/openbind_a71ev2a_c2_elabs_1LOUU54.sdf', '/opt/xchem-fragalysis-2/maxwin/BulkDock/OUTPUTS/openbind_a71ev2a_c2_elabs_1LSYIDY.sdf']

>  <name>  (408) 
P545541

>  <ref_pdb>  (408) 
A0884a

>  <subsites>  (408) 
None

>  <HIPPO Pose ID>  (408) 
545541

>  <ref_mols>  (408) 
A0884a

>  <HIPPO Compound ID>  (408) 
384039

>  <tags>  (408) 
openbind_a71ev2a_c2_elabs,syndirella_product,openbind_a71ev2a_c2_elabs_fragonly_scored_top80percent,openbind_a71ev2a_c2_elabs_scored,BulkDock Fragalysis export,openbind_a71ev2a_c2_elabs_scored_top80percent,openbind_a71ev2a_c2_elabs_activefrags_only_scored_5.2plus,syndirella_placed

>  <smina_score_min>  (408) 
-6.803

$$$$
P545543
     RDKit          3D

 21 22  0  0  0  0  0  0  0  0999 V2000
    3.7763   12.2864   28.3017 C   0  0  0  0  0  0  0  0  0  0  0  0
    4.9555   12.9433   27.6052 C   0  0  2  0  0  0  0  0  0  0  0  0
    4.4943   14.0115   26.7818 O   0  0  0  0  0  0  0  0  0  0  0  0
    5.8133   11.9328   26.8039 C   0  0  0  0  0  0  0  0  0  0  0  0
    5.8028   10.7737   26.9549 O   0  0  0  0  0  0  0  0  0  0  0  0
    6.6572   12.8172   25.8376 N   0  0  0  0  0  0  0  0  0  0  0  0
    7.6847   12.4742   24.9652 C   0  0  0  0  0  0  0  0  0  0  0  0
    8.0717   11.1488   24.7403 C   0  0  0  0  0  0  0  0  0  0  0  0
    9.1328   10.8998   23.8734 C   0  0  0  0  0  0  0  0  0  0  0  0
    9.7430    9.2048   23.4002 Br  0  0  0  0  0  0  0  0  0  0  0  0
    9.8222   11.9329   23.2776 C   0  0  0  0  0  0  0  0  0  0  0  0
    9.4382   13.2420   23.5050 C   0  0  0  0  0  0  0  0  0  0  0  0
   10.1711   14.2655   22.8592 N   0  0  0  0  0  0  0  0  0  0  0  0
    9.6439   14.6186   21.5374 C   0  0  0  0  0  0  0  0  0  0  0  0
   10.5880   15.4176   20.6860 C   0  0  0  0  0  0  0  0  0  0  0  0
   11.9608   14.8486   20.8685 C   0  0  0  0  0  0  0  0  0  0  0  0
   12.6718   14.4572   19.9491 O   0  0  0  0  0  0  0  0  0  0  0  0
   12.3530   14.8156   22.1747 N   0  0  0  0  0  0  0  0  0  0  0  0
   11.5384   14.2945   23.1339 C   0  0  0  0  0  0  0  0  0  0  0  0
   12.0249   13.8339   24.1686 O   0  0  0  0  0  0  0  0  0  0  0  0
    8.3491   13.5229   24.3187 C   0  0  0  0  0  0  0  0  0  0  0  0
  2  1  1  6
  2  3  1  0
  2  4  1  0
  4  5  2  0
  4  6  1  0
  6  7  1  0
  7  8  2  0
  8  9  1  0
  9 10  1  0
  9 11  2  0
 11 12  1  0
 12 13  1  0
 13 14  1  0
 14 15  1  0
 15 16  1  0
 16 17  2  0
 16 18  1  0
 18 19  1  0
 19 20  2  0
 12 21  2  0
 21  7  1  0
 19 13  1  0
M  END
>  <alias>  (409) 
None

>  <rmsd(smina/fragmenstein)>  (409) 
0.258

>  <smiles>  (409) 
C[C@H](O)C(=O)Nc1cc(Br)cc(N2CCC(=O)NC2=O)c1

>  <gnina_score>  (409) 
5.382

>  <inspiration_score>  (409) 
None

>  <energy_score>  (409) 
-5.348386

>  <distance_score>  (409) 
1.247259

>  <gnina_score_min>  (409) 
5.413

>  <inchikey>  (409) 
VWSQDLQLSREAAS-ZETCQYMHSA-N

>  <exports>  (409) 
['/opt/xchem-fragalysis-2/maxwin/BulkDock/OUTPUTS/openbind_a71ev2a_c2_elabs_1LOUU54.sdf', '/opt/xchem-fragalysis-2/maxwin/BulkDock/OUTPUTS/openbind_a71ev2a_c2_elabs_1LSYIDY.sdf']

>  <name>  (409) 
P545543

>  <ref_pdb>  (409) 
A0884a

>  <subsites>  (409) 
None

>  <HIPPO Pose ID>  (409) 
545543

>  <ref_mols>  (409) 
A0884a

>  <HIPPO Compound ID>  (409) 
384040

>  <tags>  (409) 
openbind_a71ev2a_c2_elabs,syndirella_product,openbind_a71ev2a_c2_elabs_fragonly_scored_top80percent,openbind_a71ev2a_c2_elabs_scored,BulkDock Fragalysis export,openbind_a71ev2a_c2_elabs_scored_top80percent,openbind_a71ev2a_c2_elabs_activefrags_only_scored_5.2plus,syndirella_placed

>  <smina_score_min>  (409) 
-6.609

$$$$
P545547
     RDKit          3D

 21 22  0  0  0  0  0  0  0  0999 V2000
    7.9376   14.5766   24.5812 C   0  0  0  0  0  0  0  0  0  0  0  0
    8.1350   13.0866   24.5601 C   0  0  0  0  0  0  0  0  0  0  0  0
    7.2882   12.2352   25.2989 C   0  0  0  0  0  0  0  0  0  0  0  0
    6.3237   12.7861   26.1487 N   0  0  0  0  0  0  0  0  0  0  0  0
    5.3238   12.0968   27.1266 C   0  0  0  0  0  0  0  0  0  0  0  0
    5.2097   10.9704   27.4251 O   0  0  0  0  0  0  0  0  0  0  0  0
    4.4578   13.2183   27.7866 C   0  0  0  0  0  0  0  0  0  0  0  0
    3.3963   12.5488   28.6853 C   0  0  0  0  0  0  0  0  0  0  0  0
    5.3434   14.1080   28.6741 C   0  0  0  0  0  0  0  0  0  0  0  0
    3.7179   14.0718   26.7439 C   0  0  0  0  0  0  0  0  0  0  0  0
    7.4454   10.8523   25.2071 C   0  0  0  0  0  0  0  0  0  0  0  0
    8.4482   10.3053   24.4069 C   0  0  0  0  0  0  0  0  0  0  0  0
    9.3393   11.1309   23.7396 C   0  0  0  0  0  0  0  0  0  0  0  0
    9.2051   12.5164   23.8379 C   0  0  0  0  0  0  0  0  0  0  0  0
   10.2785   13.2932   23.3484 N   0  0  0  0  0  0  0  0  0  0  0  0
   11.3584   13.5610   24.2703 C   0  0  0  0  0  0  0  0  0  0  0  0
   12.6455   13.6884   23.5055 C   0  0  0  0  0  0  0  0  0  0  0  0
   12.4810   14.8656   22.5794 C   0  0  0  0  0  0  0  0  0  0  0  0
   11.2891   14.7144   21.8059 N   0  0  0  0  0  0  0  0  0  0  0  0
   10.1976   13.9946   22.1672 C   0  0  0  0  0  0  0  0  0  0  0  0
    9.2274   14.0091   21.4235 O   0  0  0  0  0  0  0  0  0  0  0  0
  1  2  1  0
  2  3  2  0
  3  4  1  0
  4  5  1  0
  5  6  2  0
  5  7  1  0
  7  8  1  0
  7  9  1  0
  7 10  1  0
  3 11  1  0
 11 12  2  0
 12 13  1  0
 13 14  2  0
 14 15  1  0
 15 16  1  0
 16 17  1  0
 17 18  1  0
 18 19  1  0
 19 20  1  0
 20 21  2  0
 14  2  1  0
 20 15  1  0
M  END
>  <alias>  (410) 
None

>  <rmsd(smina/fragmenstein)>  (410) 
0.353

>  <smiles>  (410) 
Cc1c(NC(=O)C(C)(C)C)cccc1N1CCCNC1=O

>  <gnina_score>  (410) 
5.434

>  <inspiration_score>  (410) 
None

>  <energy_score>  (410) 
-42.450569

>  <distance_score>  (410) 
1.663096

>  <gnina_score_min>  (410) 
5.446

>  <inchikey>  (410) 
ASWNMXCZNVSPTK-UHFFFAOYSA-N

>  <exports>  (410) 
['/opt/xchem-fragalysis-2/maxwin/BulkDock/OUTPUTS/openbind_a71ev2a_c2_elabs_1LOUU54.sdf', '/opt/xchem-fragalysis-2/maxwin/BulkDock/OUTPUTS/openbind_a71ev2a_c2_elabs_1LSYIDY.sdf']

>  <name>  (410) 
P545547

>  <ref_pdb>  (410) 
A0884a

>  <subsites>  (410) 
None

>  <HIPPO Pose ID>  (410) 
545547

>  <ref_mols>  (410) 
A0884a

>  <HIPPO Compound ID>  (410) 
384044

>  <tags>  (410) 
openbind_a71ev2a_c2_elabs,syndirella_product,openbind_a71ev2a_c2_elabs_fragonly_scored_top80percent,openbind_a71ev2a_c2_elabs_scored,BulkDock Fragalysis export,openbind_a71ev2a_c2_elabs_scored_top80percent,openbind_a71ev2a_c2_elabs_activefrags_only_scored_5.2plus,syndirella_placed

>  <smina_score_min>  (410) 
-6.476

$$$$
P545548
     RDKit          3D

 21 22  0  0  0  0  0  0  0  0999 V2000
    8.2215   14.5128   24.5779 C   0  0  0  0  0  0  0  0  0  0  0  0
    8.3803   13.0225   24.5372 C   0  0  0  0  0  0  0  0  0  0  0  0
    7.4845   12.1914   25.2433 C   0  0  0  0  0  0  0  0  0  0  0  0
    6.5145   12.7595   26.0751 N   0  0  0  0  0  0  0  0  0  0  0  0
    5.4810   12.0877   27.0312 C   0  0  0  0  0  0  0  0  0  0  0  0
    5.2348   10.9567   27.2077 O   0  0  0  0  0  0  0  0  0  0  0  0
    4.7301   13.2253   27.7922 C   0  0  0  0  0  0  0  0  0  0  0  0
    3.9618   14.1348   26.8203 C   0  0  0  0  0  0  0  0  0  0  0  0
    5.7148   14.0468   28.6395 C   0  0  0  0  0  0  0  0  0  0  0  0
    3.7033   12.5788   28.7465 C   0  0  0  0  0  0  0  0  0  0  0  0
    7.5855   10.8088   25.1216 C   0  0  0  0  0  0  0  0  0  0  0  0
    8.5613   10.2456   24.3029 C   0  0  0  0  0  0  0  0  0  0  0  0
    9.4823   11.0480   23.6463 C   0  0  0  0  0  0  0  0  0  0  0  0
    9.4327   12.4334   23.8005 C   0  0  0  0  0  0  0  0  0  0  0  0
   10.5193   13.1556   23.2685 N   0  0  0  0  0  0  0  0  0  0  0  0
   11.4257   13.8359   24.0351 C   0  0  0  0  0  0  0  0  0  0  0  0
   11.5150   13.8717   25.2564 O   0  0  0  0  0  0  0  0  0  0  0  0
   12.3102   14.6472   23.1116 C   0  0  0  0  0  0  0  0  0  0  0  0
   11.6597   14.4687   21.8703 N   0  0  0  0  0  0  0  0  0  0  0  0
   10.4865   13.7883   22.0637 C   0  0  0  0  0  0  0  0  0  0  0  0
    9.5499   13.9127   21.2979 O   0  0  0  0  0  0  0  0  0  0  0  0
  1  2  1  0
  2  3  2  0
  3  4  1  0
  4  5  1  0
  5  6  2  0
  5  7  1  0
  7  8  1  0
  7  9  1  0
  7 10  1  0
  3 11  1  0
 11 12  2  0
 12 13  1  0
 13 14  2  0
 14 15  1  0
 15 16  1  0
 16 17  2  0
 16 18  1  0
 18 19  1  0
 19 20  1  0
 20 21  2  0
 14  2  1  0
 20 15  1  0
M  END
>  <alias>  (411) 
None

>  <rmsd(smina/fragmenstein)>  (411) 
0.705

>  <smiles>  (411) 
Cc1c(NC(=O)C(C)(C)C)cccc1N1C(=O)CNC1=O

>  <gnina_score>  (411) 
5.283

>  <inspiration_score>  (411) 
None

>  <energy_score>  (411) 
-13.77477

>  <distance_score>  (411) 
1.530315

>  <gnina_score_min>  (411) 
5.335

>  <inchikey>  (411) 
HOGYTRYKWPKWAO-UHFFFAOYSA-N

>  <exports>  (411) 
['/opt/xchem-fragalysis-2/maxwin/BulkDock/OUTPUTS/openbind_a71ev2a_c2_elabs_1LOUU54.sdf', '/opt/xchem-fragalysis-2/maxwin/BulkDock/OUTPUTS/openbind_a71ev2a_c2_elabs_1LSYIDY.sdf']

>  <name>  (411) 
P545548

>  <ref_pdb>  (411) 
A0884a

>  <subsites>  (411) 
None

>  <HIPPO Pose ID>  (411) 
545548

>  <ref_mols>  (411) 
A0884a

>  <HIPPO Compound ID>  (411) 
384045

>  <tags>  (411) 
openbind_a71ev2a_c2_elabs,syndirella_product,openbind_a71ev2a_c2_elabs_fragonly_scored_top80percent,openbind_a71ev2a_c2_elabs_scored,BulkDock Fragalysis export,openbind_a71ev2a_c2_elabs_scored_top80percent,openbind_a71ev2a_c2_elabs_activefrags_only_scored_5.2plus,syndirella_placed

>  <smina_score_min>  (411) 
-6.7

$$$$
P545549
     RDKit          3D

 21 22  0  0  0  0  0  0  0  0999 V2000
    5.8917   12.5585   29.1697 C   0  0  0  0  0  0  0  0  0  0  0  0
    5.5052   13.5763   28.0845 C   0  0  0  0  0  0  0  0  0  0  0  0
    4.1920   13.1692   27.4018 C   0  0  0  0  0  0  0  0  0  0  0  0
    5.2802   14.9418   28.7682 C   0  0  0  0  0  0  0  0  0  0  0  0
    6.6607   13.7262   27.0467 C   0  0  0  0  0  0  0  0  0  0  0  0
    7.2687   14.7222   26.9423 O   0  0  0  0  0  0  0  0  0  0  0  0
    6.8362   12.3529   26.3221 N   0  0  0  0  0  0  0  0  0  0  0  0
    7.6972   11.9771   25.2999 C   0  0  0  0  0  0  0  0  0  0  0  0
    7.8726   10.6282   25.0111 C   0  0  0  0  0  0  0  0  0  0  0  0
    8.8411   10.2342   24.0849 C   0  0  0  0  0  0  0  0  0  0  0  0
    9.5889   11.1843   23.3985 C   0  0  0  0  0  0  0  0  0  0  0  0
    9.3359   12.5367   23.6116 C   0  0  0  0  0  0  0  0  0  0  0  0
    9.8934   13.5112   22.7457 N   0  0  0  0  0  0  0  0  0  0  0  0
   11.2733   13.7139   22.7504 C   0  0  0  0  0  0  0  0  0  0  0  0
   12.0627   13.1610   23.5198 O   0  0  0  0  0  0  0  0  0  0  0  0
   11.7910   14.7979   21.8499 C   0  0  0  0  0  0  0  0  0  0  0  0
   10.8564   15.0328   20.6954 C   0  0  0  0  0  0  0  0  0  0  0  0
    9.5153   15.1863   21.1570 N   0  0  0  0  0  0  0  0  0  0  0  0
    8.9821   14.2302   21.9664 C   0  0  0  0  0  0  0  0  0  0  0  0
    7.7692   14.0272   21.9151 O   0  0  0  0  0  0  0  0  0  0  0  0
    8.4081   12.9306   24.5823 C   0  0  0  0  0  0  0  0  0  0  0  0
  1  2  1  0
  2  3  1  0
  2  4  1  0
  2  5  1  0
  5  6  2  0
  5  7  1  0
  7  8  1  0
  8  9  2  0
  9 10  1  0
 10 11  2  0
 11 12  1  0
 12 13  1  0
 13 14  1  0
 14 15  2  0
 14 16  1  0
 16 17  1  0
 17 18  1  0
 18 19  1  0
 19 20  2  0
 12 21  2  0
 21  8  1  0
 19 13  1  0
M  END
>  <alias>  (412) 
None

>  <rmsd(smina/fragmenstein)>  (412) 
0.641

>  <smiles>  (412) 
CC(C)(C)C(=O)Nc1cccc(N2C(=O)CCNC2=O)c1

>  <gnina_score>  (412) 
5.24

>  <inspiration_score>  (412) 
None

>  <energy_score>  (412) 
-40.980592

>  <distance_score>  (412) 
1.489536

>  <gnina_score_min>  (412) 
5.303

>  <inchikey>  (412) 
ZFXZDZVRNJTFHQ-UHFFFAOYSA-N

>  <exports>  (412) 
['/opt/xchem-fragalysis-2/maxwin/BulkDock/OUTPUTS/openbind_a71ev2a_c2_elabs_1LOUU54.sdf', '/opt/xchem-fragalysis-2/maxwin/BulkDock/OUTPUTS/openbind_a71ev2a_c2_elabs_1LSYIDY.sdf']

>  <name>  (412) 
P545549

>  <ref_pdb>  (412) 
A0884a

>  <subsites>  (412) 
None

>  <HIPPO Pose ID>  (412) 
545549

>  <ref_mols>  (412) 
A0884a

>  <HIPPO Compound ID>  (412) 
384046

>  <tags>  (412) 
openbind_a71ev2a_c2_elabs,syndirella_product,openbind_a71ev2a_c2_elabs_fragonly_scored_top80percent,openbind_a71ev2a_c2_elabs_scored,BulkDock Fragalysis export,openbind_a71ev2a_c2_elabs_scored_top80percent,openbind_a71ev2a_c2_elabs_activefrags_only_scored_5.2plus,syndirella_placed

>  <smina_score_min>  (412) 
-7.281

$$$$
P545550
     RDKit          3D

 21 22  0  0  0  0  0  0  0  0999 V2000
    8.0179   14.6364   24.2466 C   0  0  0  0  0  0  0  0  0  0  0  0
    8.2649   13.1614   24.3460 C   0  0  0  0  0  0  0  0  0  0  0  0
    7.3990   12.3631   25.1375 C   0  0  0  0  0  0  0  0  0  0  0  0
    6.4779   12.9849   25.9923 N   0  0  0  0  0  0  0  0  0  0  0  0
    5.4414   12.3701   26.9838 C   0  0  0  0  0  0  0  0  0  0  0  0
    5.2550   11.2568   27.2914 O   0  0  0  0  0  0  0  0  0  0  0  0
    4.7060   13.5418   27.6295 C   0  0  0  0  0  0  0  0  0  0  0  0
    3.4478   13.9001   26.8695 C   0  0  0  0  0  0  0  0  0  0  0  0
    1.9120   12.9492   27.6148 Br  0  0  0  0  0  0  0  0  0  0  0  0
    7.5348   10.9762   25.1392 C   0  0  0  0  0  0  0  0  0  0  0  0
    8.5472   10.3797   24.3968 C   0  0  0  0  0  0  0  0  0  0  0  0
    9.4777   11.1688   23.7383 C   0  0  0  0  0  0  0  0  0  0  0  0
   10.4696   10.5560   23.0906 F   0  0  0  0  0  0  0  0  0  0  0  0
    9.3872   12.5609   23.7294 C   0  0  0  0  0  0  0  0  0  0  0  0
   10.4694   13.3032   23.1996 N   0  0  0  0  0  0  0  0  0  0  0  0
   10.4734   14.0261   22.0432 C   0  0  0  0  0  0  0  0  0  0  0  0
    9.5389   14.2061   21.2804 O   0  0  0  0  0  0  0  0  0  0  0  0
   11.8498   14.6107   21.8194 C   0  0  0  0  0  0  0  0  0  0  0  0
   12.5216   14.1578   22.9864 N   0  0  0  0  0  0  0  0  0  0  0  0
   11.7009   13.4013   23.7822 C   0  0  0  0  0  0  0  0  0  0  0  0
   12.0629   12.9891   24.8692 O   0  0  0  0  0  0  0  0  0  0  0  0
  1  2  1  0
  2  3  2  0
  3  4  1  0
  4  5  1  0
  5  6  2  0
  5  7  1  0
  7  8  1  0
  8  9  1  0
  3 10  1  0
 10 11  2  0
 11 12  1  0
 12 13  1  0
 12 14  2  0
 14 15  1  0
 15 16  1  0
 16 17  2  0
 16 18  1  0
 18 19  1  0
 19 20  1  0
 20 21  2  0
 14  2  1  0
 20 15  1  0
M  END
>  <alias>  (413) 
None

>  <rmsd(smina/fragmenstein)>  (413) 
0.798

>  <smiles>  (413) 
Cc1c(NC(=O)CCBr)ccc(F)c1N1C(=O)CNC1=O

>  <gnina_score>  (413) 
5.323

>  <inspiration_score>  (413) 
None

>  <energy_score>  (413) 
-32.463336

>  <distance_score>  (413) 
1.579303

>  <gnina_score_min>  (413) 
5.33

>  <inchikey>  (413) 
AQUVUEXHYDSZOJ-UHFFFAOYSA-N

>  <exports>  (413) 
['/opt/xchem-fragalysis-2/maxwin/BulkDock/OUTPUTS/openbind_a71ev2a_c2_elabs_1LOUU54.sdf', '/opt/xchem-fragalysis-2/maxwin/BulkDock/OUTPUTS/openbind_a71ev2a_c2_elabs_1LSYIDY.sdf']

>  <name>  (413) 
P545550

>  <ref_pdb>  (413) 
A0884a

>  <subsites>  (413) 
None

>  <HIPPO Pose ID>  (413) 
545550

>  <ref_mols>  (413) 
A0884a

>  <HIPPO Compound ID>  (413) 
384049

>  <tags>  (413) 
openbind_a71ev2a_c2_elabs,syndirella_product,openbind_a71ev2a_c2_elabs_fragonly_scored_top80percent,openbind_a71ev2a_c2_elabs_scored,BulkDock Fragalysis export,openbind_a71ev2a_c2_elabs_scored_top80percent,openbind_a71ev2a_c2_elabs_activefrags_only_scored_5.2plus,syndirella_placed

>  <smina_score_min>  (413) 
-6.213

$$$$
P545553
     RDKit          3D

 21 22  0  0  0  0  0  0  0  0999 V2000
    7.8332   14.4773   22.9755 C   0  0  0  0  0  0  0  0  0  0  0  0
    8.1137   13.0746   23.4361 C   0  0  0  0  0  0  0  0  0  0  0  0
    7.2674   12.4674   24.3941 C   0  0  0  0  0  0  0  0  0  0  0  0
    6.2335   13.2138   24.9699 N   0  0  0  0  0  0  0  0  0  0  0  0
    5.2287   12.8446   26.1028 C   0  0  0  0  0  0  0  0  0  0  0  0
    5.1637   11.8903   26.7775 O   0  0  0  0  0  0  0  0  0  0  0  0
    4.2762   14.0191   26.2465 C   0  0  0  0  0  0  0  0  0  0  0  0
    4.9448   15.1377   27.0149 C   0  0  0  0  0  0  0  0  0  0  0  0
    3.6742   16.5824   27.3082 Br  0  0  0  0  0  0  0  0  0  0  0  0
    7.4826   11.1445   24.7910 C   0  0  0  0  0  0  0  0  0  0  0  0
    8.4879   10.3896   24.1955 C   0  0  0  0  0  0  0  0  0  0  0  0
    9.3775   10.9956   23.3175 C   0  0  0  0  0  0  0  0  0  0  0  0
    9.2749   12.3743   23.0264 C   0  0  0  0  0  0  0  0  0  0  0  0
   10.5313   13.0398   23.0544 N   0  0  0  0  0  0  0  0  0  0  0  0
   11.0020   14.1184   22.3764 C   0  0  0  0  0  0  0  0  0  0  0  0
   10.7482   14.5102   21.2535 O   0  0  0  0  0  0  0  0  0  0  0  0
   11.8889   14.8093   23.1927 N   0  0  0  0  0  0  0  0  0  0  0  0
   12.1107   14.1466   24.4359 C   0  0  1  0  0  0  0  0  0  0  0  0
   11.8483   14.9436   25.7215 C   0  0  0  0  0  0  0  0  0  0  0  0
   11.0001   13.1805   24.3120 C   0  0  0  0  0  0  0  0  0  0  0  0
   10.4984   12.6639   25.2921 O   0  0  0  0  0  0  0  0  0  0  0  0
  1  2  1  0
  2  3  2  0
  3  4  1  0
  4  5  1  0
  5  6  2  0
  5  7  1  0
  7  8  1  0
  8  9  1  0
  3 10  1  0
 10 11  2  0
 11 12  1  0
 12 13  2  0
 13 14  1  0
 14 15  1  0
 15 16  2  0
 15 17  1  0
 17 18  1  0
 18 19  1  1
 18 20  1  0
 20 21  2  0
 13  2  1  0
 20 14  1  0
M  END
>  <alias>  (414) 
None

>  <rmsd(smina/fragmenstein)>  (414) 
0.619

>  <smiles>  (414) 
Cc1c(NC(=O)CCBr)cccc1N1C(=O)N[C@@H](C)C1=O

>  <gnina_score>  (414) 
5.335

>  <inspiration_score>  (414) 
None

>  <energy_score>  (414) 
-9.417772

>  <distance_score>  (414) 
1.449187

>  <gnina_score_min>  (414) 
5.308

>  <inchikey>  (414) 
UZZYWNYHVXFCIT-VIFPVBQESA-N

>  <exports>  (414) 
['/opt/xchem-fragalysis-2/maxwin/BulkDock/OUTPUTS/openbind_a71ev2a_c2_elabs_1LOUU54.sdf', '/opt/xchem-fragalysis-2/maxwin/BulkDock/OUTPUTS/openbind_a71ev2a_c2_elabs_1LSYIDY.sdf']

>  <name>  (414) 
P545553

>  <ref_pdb>  (414) 
A0884a

>  <subsites>  (414) 
None

>  <HIPPO Pose ID>  (414) 
545553

>  <ref_mols>  (414) 
A0884a

>  <HIPPO Compound ID>  (414) 
384052

>  <tags>  (414) 
openbind_a71ev2a_c2_elabs,syndirella_product,openbind_a71ev2a_c2_elabs_fragonly_scored_top80percent,openbind_a71ev2a_c2_elabs_scored,BulkDock Fragalysis export,openbind_a71ev2a_c2_elabs_scored_top80percent,openbind_a71ev2a_c2_elabs_activefrags_only_scored_5.2plus,syndirella_placed

>  <smina_score_min>  (414) 
-4.47

$$$$
P545555
     RDKit          3D

 21 22  0  0  0  0  0  0  0  0999 V2000
    7.6954   14.6774   24.5878 C   0  0  0  0  0  0  0  0  0  0  0  0
    8.1115   13.2405   24.4179 C   0  0  0  0  0  0  0  0  0  0  0  0
    7.4559   12.2130   25.1364 C   0  0  0  0  0  0  0  0  0  0  0  0
    6.4735   12.5404   26.0775 N   0  0  0  0  0  0  0  0  0  0  0  0
    5.6922   11.6391   27.0783 C   0  0  0  0  0  0  0  0  0  0  0  0
    5.6958   10.4781   27.2136 O   0  0  0  0  0  0  0  0  0  0  0  0
    4.8632   12.5649   27.9580 C   0  0  0  0  0  0  0  0  0  0  0  0
    5.7202   13.3459   28.9345 C   0  0  0  0  0  0  0  0  0  0  0  0
    6.4680   12.1795   30.3053 Br  0  0  0  0  0  0  0  0  0  0  0  0
    7.8248   10.8782   24.9509 C   0  0  0  0  0  0  0  0  0  0  0  0
    8.8718   10.5453   24.0968 C   0  0  0  0  0  0  0  0  0  0  0  0
    9.5844   11.5532   23.4587 C   0  0  0  0  0  0  0  0  0  0  0  0
    9.2270   12.9002   23.6228 C   0  0  0  0  0  0  0  0  0  0  0  0
   10.0393   13.9037   22.9968 N   0  0  0  0  0  0  0  0  0  0  0  0
    9.5973   14.3355   21.6688 C   0  0  0  0  0  0  0  0  0  0  0  0
   10.5451   15.2560   20.9474 C   0  0  0  0  0  0  0  0  0  0  0  0
   11.9235   14.7158   21.1415 C   0  0  0  0  0  0  0  0  0  0  0  0
   12.6879   14.4502   20.2201 O   0  0  0  0  0  0  0  0  0  0  0  0
   12.2447   14.5300   22.4553 N   0  0  0  0  0  0  0  0  0  0  0  0
   11.3889   13.9451   23.3468 C   0  0  0  0  0  0  0  0  0  0  0  0
   11.8355   13.4743   24.3938 O   0  0  0  0  0  0  0  0  0  0  0  0
  1  2  1  0
  2  3  2  0
  3  4  1  0
  4  5  1  0
  5  6  2  0
  5  7  1  0
  7  8  1  0
  8  9  1  0
  3 10  1  0
 10 11  2  0
 11 12  1  0
 12 13  2  0
 13 14  1  0
 14 15  1  0
 15 16  1  0
 16 17  1  0
 17 18  2  0
 17 19  1  0
 19 20  1  0
 20 21  2  0
 13  2  1  0
 20 14  1  0
M  END
>  <alias>  (415) 
None

>  <rmsd(smina/fragmenstein)>  (415) 
0.223

>  <smiles>  (415) 
Cc1c(NC(=O)CCBr)cccc1N1CCC(=O)NC1=O

>  <gnina_score>  (415) 
5.196

>  <inspiration_score>  (415) 
None

>  <energy_score>  (415) 
-20.737965

>  <distance_score>  (415) 
1.166905

>  <gnina_score_min>  (415) 
5.213

>  <inchikey>  (415) 
QIKLLHLJYIYJRF-UHFFFAOYSA-N

>  <exports>  (415) 
['/opt/xchem-fragalysis-2/maxwin/BulkDock/OUTPUTS/openbind_a71ev2a_c2_elabs_1LOUU54.sdf', '/opt/xchem-fragalysis-2/maxwin/BulkDock/OUTPUTS/openbind_a71ev2a_c2_elabs_1LSYIDY.sdf']

>  <name>  (415) 
P545555

>  <ref_pdb>  (415) 
A0884a

>  <subsites>  (415) 
None

>  <HIPPO Pose ID>  (415) 
545555

>  <ref_mols>  (415) 
A0884a

>  <HIPPO Compound ID>  (415) 
384055

>  <tags>  (415) 
openbind_a71ev2a_c2_elabs,syndirella_product,openbind_a71ev2a_c2_elabs_fragonly_scored_top80percent,openbind_a71ev2a_c2_elabs_scored,BulkDock Fragalysis export,openbind_a71ev2a_c2_elabs_scored_top80percent,openbind_a71ev2a_c2_elabs_activefrags_only_scored_5.2plus,syndirella_placed

>  <smina_score_min>  (415) 
-6.848

$$$$
P545557
     RDKit          3D

 21 22  0  0  0  0  0  0  0  0999 V2000
    9.0211    9.5609   23.9285 C   0  0  0  0  0  0  0  0  0  0  0  0
    8.7669   11.0043   24.1526 C   0  0  0  0  0  0  0  0  0  0  0  0
    7.7103   11.4700   24.9474 C   0  0  0  0  0  0  0  0  0  0  0  0
    7.4588   12.8388   25.0336 C   0  0  0  0  0  0  0  0  0  0  0  0
    6.4500   13.3654   25.8374 N   0  0  0  0  0  0  0  0  0  0  0  0
    5.4546   12.6559   26.8104 C   0  0  0  0  0  0  0  0  0  0  0  0
    5.3853   11.5351   27.1389 O   0  0  0  0  0  0  0  0  0  0  0  0
    4.5609   13.7697   27.3544 C   0  0  0  0  0  0  0  0  0  0  0  0
    3.7214   13.3266   28.5383 C   0  0  0  0  0  0  0  0  0  0  0  0
    2.0556   12.4936   27.9654 Br  0  0  0  0  0  0  0  0  0  0  0  0
    8.2554   13.7344   24.3175 C   0  0  0  0  0  0  0  0  0  0  0  0
    9.3432   13.2656   23.5843 C   0  0  0  0  0  0  0  0  0  0  0  0
   10.1786   14.1677   22.8847 N   0  0  0  0  0  0  0  0  0  0  0  0
    9.6656   14.5678   21.5747 C   0  0  0  0  0  0  0  0  0  0  0  0
   10.6363   15.3577   20.7441 C   0  0  0  0  0  0  0  0  0  0  0  0
   11.9939   14.7530   20.9176 C   0  0  0  0  0  0  0  0  0  0  0  0
   12.6983   14.3737   19.9881 O   0  0  0  0  0  0  0  0  0  0  0  0
   12.3734   14.6653   22.2253 N   0  0  0  0  0  0  0  0  0  0  0  0
   11.5403   14.1352   23.1658 C   0  0  0  0  0  0  0  0  0  0  0  0
   12.0103   13.6448   24.1941 O   0  0  0  0  0  0  0  0  0  0  0  0
    9.5942   11.9041   23.4946 C   0  0  0  0  0  0  0  0  0  0  0  0
  1  2  1  0
  2  3  2  0
  3  4  1  0
  4  5  1  0
  5  6  1  0
  6  7  2  0
  6  8  1  0
  8  9  1  0
  9 10  1  0
  4 11  2  0
 11 12  1  0
 12 13  1  0
 13 14  1  0
 14 15  1  0
 15 16  1  0
 16 17  2  0
 16 18  1  0
 18 19  1  0
 19 20  2  0
 12 21  2  0
 21  2  1  0
 19 13  1  0
M  END
>  <alias>  (416) 
None

>  <rmsd(smina/fragmenstein)>  (416) 
0.65

>  <smiles>  (416) 
Cc1cc(NC(=O)CCBr)cc(N2CCC(=O)NC2=O)c1

>  <gnina_score>  (416) 
5.373

>  <inspiration_score>  (416) 
None

>  <energy_score>  (416) 
-36.342235

>  <distance_score>  (416) 
1.331876

>  <gnina_score_min>  (416) 
5.482

>  <inchikey>  (416) 
JCNOHDDEQGWVCY-UHFFFAOYSA-N

>  <exports>  (416) 
['/opt/xchem-fragalysis-2/maxwin/BulkDock/OUTPUTS/openbind_a71ev2a_c2_elabs_1LOUU54.sdf', '/opt/xchem-fragalysis-2/maxwin/BulkDock/OUTPUTS/openbind_a71ev2a_c2_elabs_1LSYIDY.sdf']

>  <name>  (416) 
P545557

>  <ref_pdb>  (416) 
A0884a

>  <subsites>  (416) 
None

>  <HIPPO Pose ID>  (416) 
545557

>  <ref_mols>  (416) 
A0884a

>  <HIPPO Compound ID>  (416) 
384057

>  <tags>  (416) 
openbind_a71ev2a_c2_elabs,syndirella_product,openbind_a71ev2a_c2_elabs_fragonly_scored_top80percent,openbind_a71ev2a_c2_elabs_scored,BulkDock Fragalysis export,openbind_a71ev2a_c2_elabs_scored_top80percent,openbind_a71ev2a_c2_elabs_activefrags_only_scored_5.2plus,syndirella_placed

>  <smina_score_min>  (416) 
-6.563

$$$$
P545558
     RDKit          3D

 21 22  0  0  0  0  0  0  0  0999 V2000
   11.8244   14.6767   19.2380 O   0  0  0  0  0  0  0  0  0  0  0  0
   11.3151   14.8778   20.3359 C   0  0  0  0  0  0  0  0  0  0  0  0
   10.0109   15.5835   20.5245 C   0  0  0  0  0  0  0  0  0  0  0  0
    9.1330   14.7725   21.4441 C   0  0  0  0  0  0  0  0  0  0  0  0
    9.8332   14.1206   22.5550 N   0  0  0  0  0  0  0  0  0  0  0  0
    9.0312   13.2979   23.4125 C   0  0  0  0  0  0  0  0  0  0  0  0
    9.4019   11.9764   23.6854 C   0  0  0  0  0  0  0  0  0  0  0  0
    8.6072   11.1721   24.4993 C   0  0  0  0  0  0  0  0  0  0  0  0
    7.4651   11.6940   25.0978 C   0  0  0  0  0  0  0  0  0  0  0  0
    6.7664   10.8756   25.8912 F   0  0  0  0  0  0  0  0  0  0  0  0
    7.0652   13.0083   24.8444 C   0  0  0  0  0  0  0  0  0  0  0  0
    5.9452   13.6308   25.4128 N   0  0  0  0  0  0  0  0  0  0  0  0
    5.0497   13.1979   26.4682 C   0  0  0  0  0  0  0  0  0  0  0  0
    4.9915   12.1639   27.0696 O   0  0  0  0  0  0  0  0  0  0  0  0
    4.0780   14.3417   26.7681 C   0  0  0  0  0  0  0  0  0  0  0  0
    3.1999   14.0806   27.9786 C   0  0  0  0  0  0  0  0  0  0  0  0
    1.6435   13.0030   27.5099 Br  0  0  0  0  0  0  0  0  0  0  0  0
    7.8374   13.7880   23.9651 C   0  0  0  0  0  0  0  0  0  0  0  0
   11.2227   13.9964   22.5714 C   0  0  0  0  0  0  0  0  0  0  0  0
   11.8561   13.4574   23.4794 O   0  0  0  0  0  0  0  0  0  0  0  0
   11.9060   14.5248   21.5143 N   0  0  0  0  0  0  0  0  0  0  0  0
  1  2  2  0
  2  3  1  0
  3  4  1  0
  4  5  1  0
  5  6  1  0
  6  7  2  0
  7  8  1  0
  8  9  2  0
  9 10  1  0
  9 11  1  0
 11 12  1  0
 12 13  1  0
 13 14  2  0
 13 15  1  0
 15 16  1  0
 16 17  1  0
 11 18  2  0
  5 19  1  0
 19 20  2  0
 19 21  1  0
 21  2  1  0
 18  6  1  0
M  END
>  <alias>  (417) 
None

>  <rmsd(smina/fragmenstein)>  (417) 
0.953

>  <smiles>  (417) 
O=C1CCN(c2ccc(F)c(NC(=O)CCBr)c2)C(=O)N1

>  <gnina_score>  (417) 
5.364

>  <inspiration_score>  (417) 
None

>  <energy_score>  (417) 
-10.621201

>  <distance_score>  (417) 
1.810916

>  <gnina_score_min>  (417) 
5.497

>  <inchikey>  (417) 
GOMOMDSLBHVGFU-UHFFFAOYSA-N

>  <exports>  (417) 
['/opt/xchem-fragalysis-2/maxwin/BulkDock/OUTPUTS/openbind_a71ev2a_c2_elabs_1LOUU54.sdf', '/opt/xchem-fragalysis-2/maxwin/BulkDock/OUTPUTS/openbind_a71ev2a_c2_elabs_1LSYIDY.sdf']

>  <name>  (417) 
P545558

>  <ref_pdb>  (417) 
A0884a

>  <subsites>  (417) 
None

>  <HIPPO Pose ID>  (417) 
545558

>  <ref_mols>  (417) 
A0884a

>  <HIPPO Compound ID>  (417) 
384060

>  <tags>  (417) 
openbind_a71ev2a_c2_elabs,syndirella_product,openbind_a71ev2a_c2_elabs_fragonly_scored_top80percent,openbind_a71ev2a_c2_elabs_scored,BulkDock Fragalysis export,openbind_a71ev2a_c2_elabs_scored_top80percent,openbind_a71ev2a_c2_elabs_activefrags_only_scored_5.2plus,syndirella_placed

>  <smina_score_min>  (417) 
-7.013

$$$$
P545561
     RDKit          3D

 21 22  0  0  0  0  0  0  0  0999 V2000
    8.0286   14.5244   24.5004 C   0  0  0  0  0  0  0  0  0  0  0  0
    8.2082   13.0338   24.4487 C   0  0  0  0  0  0  0  0  0  0  0  0
    7.3663   12.1862   25.2014 C   0  0  0  0  0  0  0  0  0  0  0  0
    6.4017   12.7359   26.0509 N   0  0  0  0  0  0  0  0  0  0  0  0
    5.4257   12.0490   27.0503 C   0  0  0  0  0  0  0  0  0  0  0  0
    5.3340   10.9275   27.3706 O   0  0  0  0  0  0  0  0  0  0  0  0
    4.5602   13.1453   27.6557 C   0  0  0  0  0  0  0  0  0  0  0  0
    5.1612   13.6521   28.9500 C   0  0  0  0  0  0  0  0  0  0  0  0
    6.5984   14.9256   28.6093 Br  0  0  0  0  0  0  0  0  0  0  0  0
    7.5251   10.8034   25.1284 C   0  0  0  0  0  0  0  0  0  0  0  0
    8.5217   10.2487   24.3311 C   0  0  0  0  0  0  0  0  0  0  0  0
    9.4028   11.0663   23.6436 C   0  0  0  0  0  0  0  0  0  0  0  0
    9.2720   12.4566   23.7186 C   0  0  0  0  0  0  0  0  0  0  0  0
   10.3573   13.2045   23.1926 N   0  0  0  0  0  0  0  0  0  0  0  0
   11.4107   13.4587   24.0438 C   0  0  0  0  0  0  0  0  0  0  0  0
   11.3526   13.5015   25.2685 O   0  0  0  0  0  0  0  0  0  0  0  0
   12.6811   13.7264   23.3204 C   0  0  0  0  0  0  0  0  0  0  0  0
   12.4404   14.9510   22.4984 C   0  0  0  0  0  0  0  0  0  0  0  0
   11.2758   14.7500   21.6950 N   0  0  0  0  0  0  0  0  0  0  0  0
   10.2212   13.9707   22.0588 C   0  0  0  0  0  0  0  0  0  0  0  0
    9.2126   14.0327   21.3683 O   0  0  0  0  0  0  0  0  0  0  0  0
  1  2  1  0
  2  3  2  0
  3  4  1  0
  4  5  1  0
  5  6  2  0
  5  7  1  0
  7  8  1  0
  8  9  1  0
  3 10  1  0
 10 11  2  0
 11 12  1  0
 12 13  2  0
 13 14  1  0
 14 15  1  0
 15 16  2  0
 15 17  1  0
 17 18  1  0
 18 19  1  0
 19 20  1  0
 20 21  2  0
 13  2  1  0
 20 14  1  0
M  END
>  <alias>  (418) 
None

>  <rmsd(smina/fragmenstein)>  (418) 
0.719

>  <smiles>  (418) 
Cc1c(NC(=O)CCBr)cccc1N1C(=O)CCNC1=O

>  <gnina_score>  (418) 
5.376

>  <inspiration_score>  (418) 
None

>  <energy_score>  (418) 
-21.880135

>  <distance_score>  (418) 
1.640847

>  <gnina_score_min>  (418) 
5.409

>  <inchikey>  (418) 
HXLRDQOQSFKENI-UHFFFAOYSA-N

>  <exports>  (418) 
['/opt/xchem-fragalysis-2/maxwin/BulkDock/OUTPUTS/openbind_a71ev2a_c2_elabs_1LOUU54.sdf', '/opt/xchem-fragalysis-2/maxwin/BulkDock/OUTPUTS/openbind_a71ev2a_c2_elabs_1LSYIDY.sdf']

>  <name>  (418) 
P545561

>  <ref_pdb>  (418) 
A0884a

>  <subsites>  (418) 
None

>  <HIPPO Pose ID>  (418) 
545561

>  <ref_mols>  (418) 
A0884a

>  <HIPPO Compound ID>  (418) 
384064

>  <tags>  (418) 
openbind_a71ev2a_c2_elabs,syndirella_product,openbind_a71ev2a_c2_elabs_fragonly_scored_top80percent,openbind_a71ev2a_c2_elabs_scored,BulkDock Fragalysis export,openbind_a71ev2a_c2_elabs_scored_top80percent,openbind_a71ev2a_c2_elabs_activefrags_only_scored_5.2plus,syndirella_placed

>  <smina_score_min>  (418) 
-6.308

$$$$
P545563
     RDKit          3D

 21 22  0  0  0  0  0  0  0  0999 V2000
    9.9117   10.1286   23.1602 C   0  0  0  0  0  0  0  0  0  0  0  0
    9.0921   11.1133   23.9343 C   0  0  0  0  0  0  0  0  0  0  0  0
    8.0343   10.6043   24.6972 C   0  0  0  0  0  0  0  0  0  0  0  0
    7.1674   11.4526   25.3819 C   0  0  0  0  0  0  0  0  0  0  0  0
    7.3440   12.8288   25.3086 C   0  0  0  0  0  0  0  0  0  0  0  0
    6.4379   13.7146   25.8844 N   0  0  0  0  0  0  0  0  0  0  0  0
    5.1310   13.4431   26.6980 C   0  0  0  0  0  0  0  0  0  0  0  0
    4.6644   12.4342   27.0704 O   0  0  0  0  0  0  0  0  0  0  0  0
    4.4462   14.8197   26.9680 C   0  0  0  0  0  0  0  0  0  0  0  0
    3.1728   14.5756   27.8060 C   0  0  0  0  0  0  0  0  0  0  0  0
    4.0218   15.4815   25.6473 C   0  0  0  0  0  0  0  0  0  0  0  0
    5.3709   15.7483   27.7705 C   0  0  0  0  0  0  0  0  0  0  0  0
    8.4440   13.3474   24.6230 C   0  0  0  0  0  0  0  0  0  0  0  0
    9.3437   12.4967   23.9634 C   0  0  0  0  0  0  0  0  0  0  0  0
   10.5171   13.0311   23.3816 N   0  0  0  0  0  0  0  0  0  0  0  0
   11.4219   13.7540   24.1155 C   0  0  0  0  0  0  0  0  0  0  0  0
   11.4781   13.8942   25.3319 O   0  0  0  0  0  0  0  0  0  0  0  0
   12.3421   14.4885   23.1662 C   0  0  0  0  0  0  0  0  0  0  0  0
   11.7149   14.2369   21.9274 N   0  0  0  0  0  0  0  0  0  0  0  0
   10.4960   13.6545   22.1690 C   0  0  0  0  0  0  0  0  0  0  0  0
    9.5453   13.8778   21.4423 O   0  0  0  0  0  0  0  0  0  0  0  0
  1  2  1  0
  2  3  2  0
  3  4  1  0
  4  5  2  0
  5  6  1  0
  6  7  1  0
  7  8  2  0
  7  9  1  0
  9 10  1  0
  9 11  1  0
  9 12  1  0
  5 13  1  0
 13 14  2  0
 14 15  1  0
 15 16  1  0
 16 17  2  0
 16 18  1  0
 18 19  1  0
 19 20  1  0
 20 21  2  0
 14  2  1  0
 20 15  1  0
M  END
>  <alias>  (419) 
None

>  <rmsd(smina/fragmenstein)>  (419) 
0.75

>  <smiles>  (419) 
Cc1ccc(NC(=O)C(C)(C)C)cc1N1C(=O)CNC1=O

>  <gnina_score>  (419) 
5.41

>  <inspiration_score>  (419) 
None

>  <energy_score>  (419) 
-40.852019

>  <distance_score>  (419) 
1.788927

>  <gnina_score_min>  (419) 
5.331

>  <inchikey>  (419) 
JNIPDKBMQNWDFY-UHFFFAOYSA-N

>  <exports>  (419) 
['/opt/xchem-fragalysis-2/maxwin/BulkDock/OUTPUTS/openbind_a71ev2a_c2_elabs_1LOUU54.sdf', '/opt/xchem-fragalysis-2/maxwin/BulkDock/OUTPUTS/openbind_a71ev2a_c2_elabs_1LSYIDY.sdf']

>  <name>  (419) 
P545563

>  <ref_pdb>  (419) 
A0884a

>  <subsites>  (419) 
None

>  <HIPPO Pose ID>  (419) 
545563

>  <ref_mols>  (419) 
A0884a

>  <HIPPO Compound ID>  (419) 
384067

>  <tags>  (419) 
openbind_a71ev2a_c2_elabs,syndirella_product,openbind_a71ev2a_c2_elabs_fragonly_scored_top80percent,openbind_a71ev2a_c2_elabs_scored,BulkDock Fragalysis export,openbind_a71ev2a_c2_elabs_scored_top80percent,openbind_a71ev2a_c2_elabs_activefrags_only_scored_5.2plus,syndirella_placed

>  <smina_score_min>  (419) 
-6.747

$$$$
P545565
     RDKit          3D

 21 22  0  0  0  0  0  0  0  0999 V2000
    5.0481   15.1895   27.5708 C   0  0  0  0  0  0  0  0  0  0  0  0
    4.2176   14.0809   26.9049 C   0  0  0  0  0  0  0  0  0  0  0  0
    3.4733   14.6255   25.6750 C   0  0  0  0  0  0  0  0  0  0  0  0
    3.1606   13.6006   27.9226 C   0  0  0  0  0  0  0  0  0  0  0  0
    5.1232   12.8669   26.5232 C   0  0  0  0  0  0  0  0  0  0  0  0
    4.9406   11.7957   26.9610 O   0  0  0  0  0  0  0  0  0  0  0  0
    6.1882   13.3730   25.5012 N   0  0  0  0  0  0  0  0  0  0  0  0
    7.2579   12.7103   24.9098 C   0  0  0  0  0  0  0  0  0  0  0  0
    7.4658   11.3400   25.0725 C   0  0  0  0  0  0  0  0  0  0  0  0
    8.5477   10.7277   24.4412 C   0  0  0  0  0  0  0  0  0  0  0  0
    9.4482   11.4976   23.7118 C   0  0  0  0  0  0  0  0  0  0  0  0
   10.4605   10.8749   23.1046 F   0  0  0  0  0  0  0  0  0  0  0  0
    9.2662   12.8744   23.5561 C   0  0  0  0  0  0  0  0  0  0  0  0
   10.2044   13.6826   22.8521 N   0  0  0  0  0  0  0  0  0  0  0  0
    9.7133   14.4337   21.6943 C   0  0  0  0  0  0  0  0  0  0  0  0
   10.7421   15.2908   20.9796 C   0  0  0  0  0  0  0  0  0  0  0  0
   12.1275   14.7281   21.1572 C   0  0  0  0  0  0  0  0  0  0  0  0
   12.3740   14.4737   22.5436 N   0  0  0  0  0  0  0  0  0  0  0  0
   11.5167   13.7281   23.2842 C   0  0  0  0  0  0  0  0  0  0  0  0
   11.9441   13.2263   24.3182 O   0  0  0  0  0  0  0  0  0  0  0  0
    8.1384   13.4667   24.1291 C   0  0  0  0  0  0  0  0  0  0  0  0
  1  2  1  0
  2  3  1  0
  2  4  1  0
  2  5  1  0
  5  6  2  0
  5  7  1  0
  7  8  1  0
  8  9  2  0
  9 10  1  0
 10 11  2  0
 11 12  1  0
 11 13  1  0
 13 14  1  0
 14 15  1  0
 15 16  1  0
 16 17  1  0
 17 18  1  0
 18 19  1  0
 19 20  2  0
 13 21  2  0
 21  8  1  0
 19 14  1  0
M  END
>  <alias>  (420) 
None

>  <rmsd(smina/fragmenstein)>  (420) 
0.501

>  <smiles>  (420) 
CC(C)(C)C(=O)Nc1ccc(F)c(N2CCCNC2=O)c1

>  <gnina_score>  (420) 
5.268

>  <inspiration_score>  (420) 
None

>  <energy_score>  (420) 
-48.695466

>  <distance_score>  (420) 
1.538422

>  <gnina_score_min>  (420) 
5.359

>  <inchikey>  (420) 
DNJQEPPPJJESNC-UHFFFAOYSA-N

>  <exports>  (420) 
['/opt/xchem-fragalysis-2/maxwin/BulkDock/OUTPUTS/openbind_a71ev2a_c2_elabs_1LOUU54.sdf', '/opt/xchem-fragalysis-2/maxwin/BulkDock/OUTPUTS/openbind_a71ev2a_c2_elabs_1LSYIDY.sdf']

>  <name>  (420) 
P545565

>  <ref_pdb>  (420) 
A0884a

>  <subsites>  (420) 
None

>  <HIPPO Pose ID>  (420) 
545565

>  <ref_mols>  (420) 
A0884a

>  <HIPPO Compound ID>  (420) 
384069

>  <tags>  (420) 
openbind_a71ev2a_c2_elabs,syndirella_product,openbind_a71ev2a_c2_elabs_fragonly_scored_top80percent,openbind_a71ev2a_c2_elabs_scored,BulkDock Fragalysis export,openbind_a71ev2a_c2_elabs_scored_top80percent,openbind_a71ev2a_c2_elabs_activefrags_only_scored_5.2plus,syndirella_placed

>  <smina_score_min>  (420) 
-6.908

$$$$
P545566
     RDKit          3D

 21 22  0  0  0  0  0  0  0  0999 V2000
    7.9709   14.4851   25.3954 C   0  0  0  0  0  0  0  0  0  0  0  0
    8.2581   13.0631   24.9925 C   0  0  0  0  0  0  0  0  0  0  0  0
    7.5114   11.9755   25.4811 C   0  0  0  0  0  0  0  0  0  0  0  0
    6.6216   12.0276   26.5565 N   0  0  0  0  0  0  0  0  0  0  0  0
    6.6072   12.9516   27.8182 C   0  0  0  0  0  0  0  0  0  0  0  0
    7.2944   13.8564   28.1037 O   0  0  0  0  0  0  0  0  0  0  0  0
    5.4506   12.4736   28.7499 C   0  0  0  0  0  0  0  0  0  0  0  0
    4.0903   12.6793   28.0704 C   0  0  0  0  0  0  0  0  0  0  0  0
    5.6421   11.0032   29.1580 C   0  0  0  0  0  0  0  0  0  0  0  0
    5.4722   13.3271   30.0361 C   0  0  0  0  0  0  0  0  0  0  0  0
    7.6986   10.7000   24.9351 C   0  0  0  0  0  0  0  0  0  0  0  0
    8.6687   10.4754   23.9640 C   0  0  0  0  0  0  0  0  0  0  0  0
    9.4479   11.5318   23.5261 C   0  0  0  0  0  0  0  0  0  0  0  0
   10.4307   11.2690   22.6632 F   0  0  0  0  0  0  0  0  0  0  0  0
    9.2764   12.8208   24.0406 C   0  0  0  0  0  0  0  0  0  0  0  0
   10.2615   13.8265   23.8203 N   0  0  0  0  0  0  0  0  0  0  0  0
   11.3643   13.8282   24.7589 C   0  0  0  0  0  0  0  0  0  0  0  0
   12.5558   13.5057   23.9049 C   0  0  0  0  0  0  0  0  0  0  0  0
   12.2065   14.1496   22.6883 N   0  0  0  0  0  0  0  0  0  0  0  0
   10.8260   14.0549   22.5445 C   0  0  0  0  0  0  0  0  0  0  0  0
   10.2477   14.1576   21.4819 O   0  0  0  0  0  0  0  0  0  0  0  0
  1  2  1  0
  2  3  2  0
  3  4  1  0
  4  5  1  0
  5  6  2  0
  5  7  1  0
  7  8  1  0
  7  9  1  0
  7 10  1  0
  3 11  1  0
 11 12  2  0
 12 13  1  0
 13 14  1  0
 13 15  2  0
 15 16  1  0
 16 17  1  0
 17 18  1  0
 18 19  1  0
 19 20  1  0
 20 21  2  0
 15  2  1  0
 20 16  1  0
M  END
>  <alias>  (421) 
None

>  <rmsd(smina/fragmenstein)>  (421) 
0.749

>  <smiles>  (421) 
Cc1c(NC(=O)C(C)(C)C)ccc(F)c1N1CCNC1=O

>  <gnina_score>  (421) 
5.456

>  <inspiration_score>  (421) 
None

>  <energy_score>  (421) 
-22.491093

>  <distance_score>  (421) 
1.498427

>  <gnina_score_min>  (421) 
5.436

>  <inchikey>  (421) 
DNRJNTQIAXKJJV-UHFFFAOYSA-N

>  <exports>  (421) 
['/opt/xchem-fragalysis-2/maxwin/BulkDock/OUTPUTS/openbind_a71ev2a_c2_elabs_1LOUU54.sdf', '/opt/xchem-fragalysis-2/maxwin/BulkDock/OUTPUTS/openbind_a71ev2a_c2_elabs_1LSYIDY.sdf']

>  <name>  (421) 
P545566

>  <ref_pdb>  (421) 
A0884a

>  <subsites>  (421) 
None

>  <HIPPO Pose ID>  (421) 
545566

>  <ref_mols>  (421) 
A0884a

>  <HIPPO Compound ID>  (421) 
384070

>  <tags>  (421) 
openbind_a71ev2a_c2_elabs,syndirella_product,openbind_a71ev2a_c2_elabs_fragonly_scored_top80percent,openbind_a71ev2a_c2_elabs_scored,BulkDock Fragalysis export,openbind_a71ev2a_c2_elabs_scored_top80percent,openbind_a71ev2a_c2_elabs_activefrags_only_scored_5.2plus,syndirella_placed

>  <smina_score_min>  (421) 
-6.207

$$$$
P545567
     RDKit          3D

 21 22  0  0  0  0  0  0  0  0999 V2000
    9.9533   10.3447   23.0653 C   0  0  0  0  0  0  0  0  0  0  0  0
    9.0586   11.2807   23.8114 C   0  0  0  0  0  0  0  0  0  0  0  0
    8.1247   10.6870   24.6753 C   0  0  0  0  0  0  0  0  0  0  0  0
    7.1753   11.4527   25.3449 C   0  0  0  0  0  0  0  0  0  0  0  0
    7.1467   12.8285   25.1578 C   0  0  0  0  0  0  0  0  0  0  0  0
    6.1806   13.6322   25.7580 N   0  0  0  0  0  0  0  0  0  0  0  0
    5.0697   13.2772   26.7965 C   0  0  0  0  0  0  0  0  0  0  0  0
    4.7521   12.2432   27.2430 O   0  0  0  0  0  0  0  0  0  0  0  0
    4.3797   14.6001   27.1191 C   0  0  0  0  0  0  0  0  0  0  0  0
    3.3686   14.4680   28.2412 C   0  0  0  0  0  0  0  0  0  0  0  0
    4.2690   14.4328   29.9730 Br  0  0  0  0  0  0  0  0  0  0  0  0
    8.0910   13.4355   24.3249 C   0  0  0  0  0  0  0  0  0  0  0  0
    9.0652   12.6797   23.6549 C   0  0  0  0  0  0  0  0  0  0  0  0
   10.0112   13.3502   22.8098 N   0  0  0  0  0  0  0  0  0  0  0  0
    9.4956   14.3412   21.8696 C   0  0  0  0  0  0  0  0  0  0  0  0
   10.4830   14.8047   20.8201 C   0  0  0  0  0  0  0  0  0  0  0  0
   11.8975   14.5138   21.2003 C   0  0  0  0  0  0  0  0  0  0  0  0
   12.7971   14.4554   20.3658 O   0  0  0  0  0  0  0  0  0  0  0  0
   12.1210   14.3325   22.5315 N   0  0  0  0  0  0  0  0  0  0  0  0
   11.2968   13.5659   23.3134 C   0  0  0  0  0  0  0  0  0  0  0  0
   11.7208   13.1163   24.3764 O   0  0  0  0  0  0  0  0  0  0  0  0
  1  2  1  0
  2  3  2  0
  3  4  1  0
  4  5  2  0
  5  6  1  0
  6  7  1  0
  7  8  2  0
  7  9  1  0
  9 10  1  0
 10 11  1  0
  5 12  1  0
 12 13  2  0
 13 14  1  0
 14 15  1  0
 15 16  1  0
 16 17  1  0
 17 18  2  0
 17 19  1  0
 19 20  1  0
 20 21  2  0
 13  2  1  0
 20 14  1  0
M  END
>  <alias>  (422) 
None

>  <rmsd(smina/fragmenstein)>  (422) 
0.518

>  <smiles>  (422) 
Cc1ccc(NC(=O)CCBr)cc1N1CCC(=O)NC1=O

>  <gnina_score>  (422) 
5.314

>  <inspiration_score>  (422) 
None

>  <energy_score>  (422) 
-28.022161

>  <distance_score>  (422) 
1.431488

>  <gnina_score_min>  (422) 
5.341

>  <inchikey>  (422) 
XDLJVTDOIKYPNS-UHFFFAOYSA-N

>  <exports>  (422) 
['/opt/xchem-fragalysis-2/maxwin/BulkDock/OUTPUTS/openbind_a71ev2a_c2_elabs_1LOUU54.sdf', '/opt/xchem-fragalysis-2/maxwin/BulkDock/OUTPUTS/openbind_a71ev2a_c2_elabs_1LSYIDY.sdf']

>  <name>  (422) 
P545567

>  <ref_pdb>  (422) 
A0884a

>  <subsites>  (422) 
None

>  <HIPPO Pose ID>  (422) 
545567

>  <ref_mols>  (422) 
A0884a

>  <HIPPO Compound ID>  (422) 
384072

>  <tags>  (422) 
openbind_a71ev2a_c2_elabs,syndirella_product,openbind_a71ev2a_c2_elabs_fragonly_scored_top80percent,openbind_a71ev2a_c2_elabs_scored,BulkDock Fragalysis export,openbind_a71ev2a_c2_elabs_scored_top80percent,openbind_a71ev2a_c2_elabs_activefrags_only_scored_5.2plus,syndirella_placed

>  <smina_score_min>  (422) 
-6.391

$$$$
P545592
     RDKit          3D

 21 22  0  0  0  0  0  0  0  0999 V2000
    2.5183   13.9194   28.5193 C   0  0  0  0  0  0  0  0  0  0  0  0
    3.6239   14.8654   28.1889 C   0  0  0  0  0  0  0  0  0  0  0  0
    4.7653   14.6160   27.5336 C   0  0  0  0  0  0  0  0  0  0  0  0
    5.6186   15.6470   27.3246 F   0  0  0  0  0  0  0  0  0  0  0  0
    5.2474   13.2935   26.9974 C   0  0  0  0  0  0  0  0  0  0  0  0
    4.7211   12.2752   27.2254 O   0  0  0  0  0  0  0  0  0  0  0  0
    6.4899   13.6106   26.1180 N   0  0  0  0  0  0  0  0  0  0  0  0
    7.3600   12.7596   25.4429 C   0  0  0  0  0  0  0  0  0  0  0  0
    7.1665   11.3839   25.4259 C   0  0  0  0  0  0  0  0  0  0  0  0
    8.0234   10.5711   24.6889 C   0  0  0  0  0  0  0  0  0  0  0  0
    9.0773   11.1147   23.9457 C   0  0  0  0  0  0  0  0  0  0  0  0
    9.9054   10.1601   23.1433 C   0  0  0  0  0  0  0  0  0  0  0  0
    9.3340   12.4950   24.0428 C   0  0  0  0  0  0  0  0  0  0  0  0
   10.5058   13.0473   23.4776 N   0  0  0  0  0  0  0  0  0  0  0  0
   11.3890   13.8103   24.1951 C   0  0  0  0  0  0  0  0  0  0  0  0
   11.4135   14.0182   25.4027 O   0  0  0  0  0  0  0  0  0  0  0  0
   12.3409   14.4786   23.2267 C   0  0  0  0  0  0  0  0  0  0  0  0
   11.7417   14.1635   21.9877 N   0  0  0  0  0  0  0  0  0  0  0  0
   10.5132   13.6039   22.2337 C   0  0  0  0  0  0  0  0  0  0  0  0
    9.5772   13.8011   21.4812 O   0  0  0  0  0  0  0  0  0  0  0  0
    8.4533   13.3105   24.7697 C   0  0  0  0  0  0  0  0  0  0  0  0
  1  2  1  0
  2  3  2  0
  3  4  1  0
  3  5  1  0
  5  6  2  0
  5  7  1  0
  7  8  1  0
  8  9  2  0
  9 10  1  0
 10 11  2  0
 11 12  1  0
 11 13  1  0
 13 14  1  0
 14 15  1  0
 15 16  2  0
 15 17  1  0
 17 18  1  0
 18 19  1  0
 19 20  2  0
 13 21  2  0
 21  8  1  0
 19 14  1  0
M  END
>  <alias>  (423) 
None

>  <rmsd(smina/fragmenstein)>  (423) 
1.331

>  <smiles>  (423) 
C/C=C(/F)C(=O)Nc1ccc(C)c(N2C(=O)CNC2=O)c1

>  <gnina_score>  (423) 
5.289

>  <inspiration_score>  (423) 
None

>  <energy_score>  (423) 
-28.009926

>  <distance_score>  (423) 
1.720338

>  <gnina_score_min>  (423) 
5.304

>  <inchikey>  (423) 
HEPZDEQPGJBUIW-XCVCLJGOSA-N

>  <exports>  (423) 
['/opt/xchem-fragalysis-2/maxwin/BulkDock/OUTPUTS/openbind_a71ev2a_c2_elabs_1LOUU54.sdf', '/opt/xchem-fragalysis-2/maxwin/BulkDock/OUTPUTS/openbind_a71ev2a_c2_elabs_1LSYIDY.sdf']

>  <name>  (423) 
P545592

>  <ref_pdb>  (423) 
A0884a

>  <subsites>  (423) 
None

>  <HIPPO Pose ID>  (423) 
545592

>  <ref_mols>  (423) 
A0884a

>  <HIPPO Compound ID>  (423) 
384099

>  <tags>  (423) 
openbind_a71ev2a_c2_elabs,syndirella_product,openbind_a71ev2a_c2_elabs_fragonly_scored_top80percent,openbind_a71ev2a_c2_elabs_scored,BulkDock Fragalysis export,openbind_a71ev2a_c2_elabs_scored_top80percent,openbind_a71ev2a_c2_elabs_activefrags_only_scored_5.2plus,syndirella_placed

>  <smina_score_min>  (423) 
-6.856

$$$$
P545596
     RDKit          3D

 21 22  0  0  0  0  0  0  0  0999 V2000
    3.3857   14.6252   25.0913 C   0  0  0  0  0  0  0  0  0  0  0  0
    3.6799   14.7035   26.5536 C   0  0  0  0  0  0  0  0  0  0  0  0
    4.4627   13.8861   27.2700 C   0  0  0  0  0  0  0  0  0  0  0  0
    4.5430   14.0511   28.6083 F   0  0  0  0  0  0  0  0  0  0  0  0
    5.2502   12.7245   26.7531 C   0  0  0  0  0  0  0  0  0  0  0  0
    5.0472   11.6320   27.1147 O   0  0  0  0  0  0  0  0  0  0  0  0
    6.2840   13.2705   25.7309 N   0  0  0  0  0  0  0  0  0  0  0  0
    7.3036   12.6205   25.0423 C   0  0  0  0  0  0  0  0  0  0  0  0
    7.4790   11.2370   25.1180 C   0  0  0  0  0  0  0  0  0  0  0  0
    8.5213   10.6306   24.4177 C   0  0  0  0  0  0  0  0  0  0  0  0
    9.4079   11.4135   23.6887 C   0  0  0  0  0  0  0  0  0  0  0  0
   10.3827   10.8025   23.0101 F   0  0  0  0  0  0  0  0  0  0  0  0
    9.2515   12.7999   23.6097 C   0  0  0  0  0  0  0  0  0  0  0  0
   10.1933   13.6019   22.9089 N   0  0  0  0  0  0  0  0  0  0  0  0
    9.7146   14.3794   21.7673 C   0  0  0  0  0  0  0  0  0  0  0  0
   10.7613   15.2173   21.0543 C   0  0  0  0  0  0  0  0  0  0  0  0
   12.1431   14.6561   21.2619 C   0  0  0  0  0  0  0  0  0  0  0  0
   12.3682   14.3923   22.6506 N   0  0  0  0  0  0  0  0  0  0  0  0
   11.4712   13.7225   23.4252 C   0  0  0  0  0  0  0  0  0  0  0  0
   11.8178   13.3134   24.5315 O   0  0  0  0  0  0  0  0  0  0  0  0
    8.1726   13.3963   24.2665 C   0  0  0  0  0  0  0  0  0  0  0  0
  1  2  1  0
  2  3  2  0
  3  4  1  0
  3  5  1  0
  5  6  2  0
  5  7  1  0
  7  8  1  0
  8  9  2  0
  9 10  1  0
 10 11  2  0
 11 12  1  0
 11 13  1  0
 13 14  1  0
 14 15  1  0
 15 16  1  0
 16 17  1  0
 17 18  1  0
 18 19  1  0
 19 20  2  0
 13 21  2  0
 21  8  1  0
 19 14  1  0
M  END
>  <alias>  (424) 
None

>  <rmsd(smina/fragmenstein)>  (424) 
0.388

>  <smiles>  (424) 
C/C=C(/F)C(=O)Nc1ccc(F)c(N2CCCNC2=O)c1

>  <gnina_score>  (424) 
5.254

>  <inspiration_score>  (424) 
None

>  <energy_score>  (424) 
-47.19673

>  <distance_score>  (424) 
1.225582

>  <gnina_score_min>  (424) 
5.317

>  <inchikey>  (424) 
HCEGUYNAGXEDAS-WTDSWWLTSA-N

>  <exports>  (424) 
['/opt/xchem-fragalysis-2/maxwin/BulkDock/OUTPUTS/openbind_a71ev2a_c2_elabs_1LOUU54.sdf', '/opt/xchem-fragalysis-2/maxwin/BulkDock/OUTPUTS/openbind_a71ev2a_c2_elabs_1LSYIDY.sdf']

>  <name>  (424) 
P545596

>  <ref_pdb>  (424) 
A0884a

>  <subsites>  (424) 
None

>  <HIPPO Pose ID>  (424) 
545596

>  <ref_mols>  (424) 
A0884a

>  <HIPPO Compound ID>  (424) 
384101

>  <tags>  (424) 
openbind_a71ev2a_c2_elabs,syndirella_product,openbind_a71ev2a_c2_elabs_fragonly_scored_top80percent,openbind_a71ev2a_c2_elabs_scored,BulkDock Fragalysis export,openbind_a71ev2a_c2_elabs_scored_top80percent,openbind_a71ev2a_c2_elabs_activefrags_only_scored_5.2plus,syndirella_placed

>  <smina_score_min>  (424) 
-6.809

$$$$
P545600
     RDKit          3D

 21 22  0  0  0  0  0  0  0  0999 V2000
    3.2621   10.5909   29.3525 C   0  0  0  0  0  0  0  0  0  0  0  0
    3.4997   11.9251   28.7264 C   0  0  0  0  0  0  0  0  0  0  0  0
    4.4178   12.2642   27.8115 C   0  0  0  0  0  0  0  0  0  0  0  0
    4.4248   13.5399   27.3575 F   0  0  0  0  0  0  0  0  0  0  0  0
    5.4759   11.3813   27.2034 C   0  0  0  0  0  0  0  0  0  0  0  0
    5.7278   10.3143   27.6029 O   0  0  0  0  0  0  0  0  0  0  0  0
    6.0869   12.1830   26.0255 N   0  0  0  0  0  0  0  0  0  0  0  0
    7.1605   11.8839   25.1871 C   0  0  0  0  0  0  0  0  0  0  0  0
    7.5912   10.5701   25.0340 C   0  0  0  0  0  0  0  0  0  0  0  0
    8.6666   10.2704   24.1980 C   0  0  0  0  0  0  0  0  0  0  0  0
    9.4182   11.2931   23.6393 C   0  0  0  0  0  0  0  0  0  0  0  0
    9.0793   12.6195   23.9190 C   0  0  0  0  0  0  0  0  0  0  0  0
   10.1160   13.5794   23.9366 N   0  0  0  0  0  0  0  0  0  0  0  0
   10.3882   14.2603   25.1027 C   0  0  0  0  0  0  0  0  0  0  0  0
    9.6610   14.5706   26.0395 O   0  0  0  0  0  0  0  0  0  0  0  0
   11.8459   14.5921   25.1274 C   0  0  0  0  0  0  0  0  0  0  0  0
   12.1987   14.3547   23.7768 N   0  0  0  0  0  0  0  0  0  0  0  0
   11.2384   13.6026   23.1593 C   0  0  0  0  0  0  0  0  0  0  0  0
   11.4843   13.0680   22.1002 O   0  0  0  0  0  0  0  0  0  0  0  0
    7.8398   12.9150   24.5276 C   0  0  0  0  0  0  0  0  0  0  0  0
    7.2677   14.3124   24.4978 C   0  0  0  0  0  0  0  0  0  0  0  0
  1  2  1  0
  2  3  2  0
  3  4  1  0
  3  5  1  0
  5  6  2  0
  5  7  1  0
  7  8  1  0
  8  9  2  0
  9 10  1  0
 10 11  2  0
 11 12  1  0
 12 13  1  0
 13 14  1  0
 14 15  2  0
 14 16  1  0
 16 17  1  0
 17 18  1  0
 18 19  2  0
 12 20  2  0
 20 21  1  0
 20  8  1  0
 18 13  1  0
M  END
>  <alias>  (425) 
None

>  <rmsd(smina/fragmenstein)>  (425) 
1.984

>  <smiles>  (425) 
C/C=C(/F)C(=O)Nc1cccc(N2C(=O)CNC2=O)c1C

>  <gnina_score>  (425) 
4.925

>  <inspiration_score>  (425) 
None

>  <energy_score>  (425) 
-39.697266

>  <distance_score>  (425) 
1.338109

>  <gnina_score_min>  (425) 
5.322

>  <inchikey>  (425) 
VCFIVRVAMGVMSK-YCRREMRBSA-N

>  <exports>  (425) 
['/opt/xchem-fragalysis-2/maxwin/BulkDock/OUTPUTS/openbind_a71ev2a_c2_elabs_1LOUU54.sdf', '/opt/xchem-fragalysis-2/maxwin/BulkDock/OUTPUTS/openbind_a71ev2a_c2_elabs_1LSYIDY.sdf']

>  <name>  (425) 
P545600

>  <ref_pdb>  (425) 
A0884a

>  <subsites>  (425) 
None

>  <HIPPO Pose ID>  (425) 
545600

>  <ref_mols>  (425) 
A0884a

>  <HIPPO Compound ID>  (425) 
384105

>  <tags>  (425) 
openbind_a71ev2a_c2_elabs,syndirella_product,openbind_a71ev2a_c2_elabs_fragonly_scored_top80percent,openbind_a71ev2a_c2_elabs_scored,BulkDock Fragalysis export,openbind_a71ev2a_c2_elabs_scored_top80percent,openbind_a71ev2a_c2_elabs_activefrags_only_scored_5.2plus,syndirella_placed

>  <smina_score_min>  (425) 
-7.097

$$$$
P545603
     RDKit          3D

 21 22  0  0  0  0  0  0  0  0999 V2000
    2.9821   13.0363   28.5025 C   0  0  0  0  0  0  0  0  0  0  0  0
    3.9671   14.0896   28.1198 C   0  0  0  0  0  0  0  0  0  0  0  0
    5.0810   13.9681   27.3857 C   0  0  0  0  0  0  0  0  0  0  0  0
    5.8145   15.0833   27.1552 F   0  0  0  0  0  0  0  0  0  0  0  0
    5.6535   12.7142   26.7771 C   0  0  0  0  0  0  0  0  0  0  0  0
    5.2258   11.6465   26.9801 O   0  0  0  0  0  0  0  0  0  0  0  0
    6.8274   13.1718   25.8701 N   0  0  0  0  0  0  0  0  0  0  0  0
    7.7411   12.4265   25.1291 C   0  0  0  0  0  0  0  0  0  0  0  0
    7.6641   11.0397   25.0377 C   0  0  0  0  0  0  0  0  0  0  0  0
    8.5834   10.3435   24.2479 C   0  0  0  0  0  0  0  0  0  0  0  0
    9.5876   11.0184   23.5566 C   0  0  0  0  0  0  0  0  0  0  0  0
    9.6970   12.4016   23.6811 C   0  0  0  0  0  0  0  0  0  0  0  0
   10.7473   13.0743   23.0288 N   0  0  0  0  0  0  0  0  0  0  0  0
   11.7752   13.6374   23.7383 C   0  0  0  0  0  0  0  0  0  0  0  0
   12.1057   13.3900   24.8912 O   0  0  0  0  0  0  0  0  0  0  0  0
   12.4031   14.7325   22.9044 C   0  0  0  0  0  0  0  0  0  0  0  0
   11.5692   14.7286   21.7640 N   0  0  0  0  0  0  0  0  0  0  0  0
   10.4906   13.9200   21.9921 C   0  0  0  0  0  0  0  0  0  0  0  0
    9.4449   14.0761   21.3898 O   0  0  0  0  0  0  0  0  0  0  0  0
    8.7654   13.0987   24.4571 C   0  0  0  0  0  0  0  0  0  0  0  0
    8.8738   14.4321   24.5930 F   0  0  0  0  0  0  0  0  0  0  0  0
  1  2  1  0
  2  3  2  0
  3  4  1  0
  3  5  1  0
  5  6  2  0
  5  7  1  0
  7  8  1  0
  8  9  2  0
  9 10  1  0
 10 11  2  0
 11 12  1  0
 12 13  1  0
 13 14  1  0
 14 15  2  0
 14 16  1  0
 16 17  1  0
 17 18  1  0
 18 19  2  0
 12 20  2  0
 20 21  1  0
 20  8  1  0
 18 13  1  0
M  END
>  <alias>  (426) 
None

>  <rmsd(smina/fragmenstein)>  (426) 
0.998

>  <smiles>  (426) 
C/C=C(/F)C(=O)Nc1cccc(N2C(=O)CNC2=O)c1F

>  <gnina_score>  (426) 
5.277

>  <inspiration_score>  (426) 
None

>  <energy_score>  (426) 
-15.702615

>  <distance_score>  (426) 
1.549473

>  <gnina_score_min>  (426) 
5.362

>  <inchikey>  (426) 
YUCYKGHBDSSKDA-FARCUNLSSA-N

>  <exports>  (426) 
['/opt/xchem-fragalysis-2/maxwin/BulkDock/OUTPUTS/openbind_a71ev2a_c2_elabs_1LOUU54.sdf', '/opt/xchem-fragalysis-2/maxwin/BulkDock/OUTPUTS/openbind_a71ev2a_c2_elabs_1LSYIDY.sdf']

>  <name>  (426) 
P545603

>  <ref_pdb>  (426) 
A0884a

>  <subsites>  (426) 
None

>  <HIPPO Pose ID>  (426) 
545603

>  <ref_mols>  (426) 
A0884a

>  <HIPPO Compound ID>  (426) 
384107

>  <tags>  (426) 
openbind_a71ev2a_c2_elabs,syndirella_product,openbind_a71ev2a_c2_elabs_fragonly_scored_top80percent,openbind_a71ev2a_c2_elabs_scored,BulkDock Fragalysis export,openbind_a71ev2a_c2_elabs_scored_top80percent,openbind_a71ev2a_c2_elabs_activefrags_only_scored_5.2plus,syndirella_placed

>  <smina_score_min>  (426) 
-6.798

$$$$
P545610
     RDKit          3D

 21 22  0  0  0  0  0  0  0  0999 V2000
    2.8138   15.7228   27.8608 C   0  0  0  0  0  0  0  0  0  0  0  0
    3.6854   14.6297   27.4302 C   0  0  0  0  0  0  0  0  0  0  0  0
    4.4026   13.7345   27.0712 C   0  0  0  0  0  0  0  0  0  0  0  0
    5.2776   12.6684   26.6193 C   0  0  0  0  0  0  0  0  0  0  0  0
    5.1551   11.6068   27.0831 O   0  0  0  0  0  0  0  0  0  0  0  0
    6.2537   13.1819   25.5467 N   0  0  0  0  0  0  0  0  0  0  0  0
    7.3130   12.5431   24.9071 C   0  0  0  0  0  0  0  0  0  0  0  0
    7.5312   11.1748   25.0302 C   0  0  0  0  0  0  0  0  0  0  0  0
    8.5966   10.5933   24.3519 C   0  0  0  0  0  0  0  0  0  0  0  0
    8.7505    9.2664   24.4022 F   0  0  0  0  0  0  0  0  0  0  0  0
    9.4841   11.3551   23.6039 C   0  0  0  0  0  0  0  0  0  0  0  0
    9.2686   12.7271   23.4779 C   0  0  0  0  0  0  0  0  0  0  0  0
   10.1576   13.5075   22.6931 N   0  0  0  0  0  0  0  0  0  0  0  0
    9.6009   14.4504   21.7352 C   0  0  0  0  0  0  0  0  0  0  0  0
   10.5768   14.9082   20.6734 C   0  0  0  0  0  0  0  0  0  0  0  0
   11.9874   14.5490   21.0174 C   0  0  0  0  0  0  0  0  0  0  0  0
   12.8368   14.3507   20.1539 O   0  0  0  0  0  0  0  0  0  0  0  0
   12.2517   14.4796   22.3513 N   0  0  0  0  0  0  0  0  0  0  0  0
   11.4560   13.7115   23.1563 C   0  0  0  0  0  0  0  0  0  0  0  0
   11.9032   13.2415   24.2007 O   0  0  0  0  0  0  0  0  0  0  0  0
    8.1632   13.3118   24.1063 C   0  0  0  0  0  0  0  0  0  0  0  0
  1  2  1  0
  2  3  3  0
  3  4  1  0
  4  5  2  0
  4  6  1  0
  6  7  1  0
  7  8  2  0
  8  9  1  0
  9 10  1  0
  9 11  2  0
 11 12  1  0
 12 13  1  0
 13 14  1  0
 14 15  1  0
 15 16  1  0
 16 17  2  0
 16 18  1  0
 18 19  1  0
 19 20  2  0
 12 21  2  0
 21  7  1  0
 19 13  1  0
M  END
>  <alias>  (427) 
None

>  <rmsd(smina/fragmenstein)>  (427) 
0.303

>  <smiles>  (427) 
CC#CC(=O)Nc1cc(F)cc(N2CCC(=O)NC2=O)c1

>  <gnina_score>  (427) 
5.208

>  <inspiration_score>  (427) 
None

>  <energy_score>  (427) 
-38.937272

>  <distance_score>  (427) 
1.190962

>  <gnina_score_min>  (427) 
5.324

>  <inchikey>  (427) 
JALXDPSOBICFKS-UHFFFAOYSA-N

>  <exports>  (427) 
['/opt/xchem-fragalysis-2/maxwin/BulkDock/OUTPUTS/openbind_a71ev2a_c2_elabs_1LOUU54.sdf', '/opt/xchem-fragalysis-2/maxwin/BulkDock/OUTPUTS/openbind_a71ev2a_c2_elabs_1LSYIDY.sdf']

>  <name>  (427) 
P545610

>  <ref_pdb>  (427) 
A0884a

>  <subsites>  (427) 
None

>  <HIPPO Pose ID>  (427) 
545610

>  <ref_mols>  (427) 
A0884a

>  <HIPPO Compound ID>  (427) 
384113

>  <tags>  (427) 
openbind_a71ev2a_c2_elabs,syndirella_product,openbind_a71ev2a_c2_elabs_fragonly_scored_top80percent,openbind_a71ev2a_c2_elabs_scored,BulkDock Fragalysis export,openbind_a71ev2a_c2_elabs_scored_top80percent,openbind_a71ev2a_c2_elabs_activefrags_only_scored_5.2plus,syndirella_placed

>  <smina_score_min>  (427) 
-6.927

$$$$
P545611
     RDKit          3D

 21 22  0  0  0  0  0  0  0  0999 V2000
    4.3662   12.1838   30.0477 C   0  0  0  0  0  0  0  0  0  0  0  0
    4.1269   13.2182   28.9946 C   0  0  0  0  0  0  0  0  0  0  0  0
    4.5852   13.2266   27.7329 C   0  0  0  0  0  0  0  0  0  0  0  0
    5.3795   12.1195   27.1167 C   0  0  0  0  0  0  0  0  0  0  0  0
    5.2122   10.9940   27.3741 O   0  0  0  0  0  0  0  0  0  0  0  0
    6.3556   12.7863   26.1146 N   0  0  0  0  0  0  0  0  0  0  0  0
    7.3608   12.2281   25.3176 C   0  0  0  0  0  0  0  0  0  0  0  0
    7.4588   10.8415   25.1994 C   0  0  0  0  0  0  0  0  0  0  0  0
    8.4372   10.2733   24.3912 C   0  0  0  0  0  0  0  0  0  0  0  0
    9.3540   11.0809   23.7467 C   0  0  0  0  0  0  0  0  0  0  0  0
   10.3056   10.4990   23.0115 F   0  0  0  0  0  0  0  0  0  0  0  0
    9.3246   12.4664   23.8961 C   0  0  0  0  0  0  0  0  0  0  0  0
   10.4251   13.1747   23.3778 N   0  0  0  0  0  0  0  0  0  0  0  0
   11.3333   13.8549   24.1375 C   0  0  0  0  0  0  0  0  0  0  0  0
   11.3824   13.9479   25.3575 O   0  0  0  0  0  0  0  0  0  0  0  0
   12.2812   14.5771   23.2019 C   0  0  0  0  0  0  0  0  0  0  0  0
   11.6630   14.3555   21.9503 N   0  0  0  0  0  0  0  0  0  0  0  0
   10.4565   13.7348   22.1397 C   0  0  0  0  0  0  0  0  0  0  0  0
    9.5443   13.8615   21.3458 O   0  0  0  0  0  0  0  0  0  0  0  0
    8.2714   13.0600   24.6267 C   0  0  0  0  0  0  0  0  0  0  0  0
    8.1236   14.5521   24.6625 C   0  0  0  0  0  0  0  0  0  0  0  0
  1  2  1  0
  2  3  2  0
  3  4  1  0
  4  5  2  0
  4  6  1  0
  6  7  1  0
  7  8  2  0
  8  9  1  0
  9 10  2  0
 10 11  1  0
 10 12  1  0
 12 13  1  0
 13 14  1  0
 14 15  2  0
 14 16  1  0
 16 17  1  0
 17 18  1  0
 18 19  2  0
 12 20  2  0
 20 21  1  0
 20  7  1  0
 18 13  1  0
M  END
>  <alias>  (428) 
None

>  <rmsd(smina/fragmenstein)>  (428) 
0.816

>  <smiles>  (428) 
C/C=C\C(=O)Nc1ccc(F)c(N2C(=O)CNC2=O)c1C

>  <gnina_score>  (428) 
5.455

>  <inspiration_score>  (428) 
None

>  <energy_score>  (428) 
-23.259286

>  <distance_score>  (428) 
1.556566

>  <gnina_score_min>  (428) 
5.438

>  <inchikey>  (428) 
JOZZZKCZQJMCPB-ARJAWSKDSA-N

>  <exports>  (428) 
['/opt/xchem-fragalysis-2/maxwin/BulkDock/OUTPUTS/openbind_a71ev2a_c2_elabs_1LOUU54.sdf', '/opt/xchem-fragalysis-2/maxwin/BulkDock/OUTPUTS/openbind_a71ev2a_c2_elabs_1LSYIDY.sdf']

>  <name>  (428) 
P545611

>  <ref_pdb>  (428) 
A0884a

>  <subsites>  (428) 
None

>  <HIPPO Pose ID>  (428) 
545611

>  <ref_mols>  (428) 
A0884a

>  <HIPPO Compound ID>  (428) 
384118

>  <tags>  (428) 
openbind_a71ev2a_c2_elabs,syndirella_product,openbind_a71ev2a_c2_elabs_fragonly_scored_top80percent,openbind_a71ev2a_c2_elabs_scored,BulkDock Fragalysis export,openbind_a71ev2a_c2_elabs_scored_top80percent,openbind_a71ev2a_c2_elabs_activefrags_only_scored_5.2plus,syndirella_placed

>  <smina_score_min>  (428) 
-6.426

$$$$
P545615
     RDKit          3D

 21 22  0  0  0  0  0  0  0  0999 V2000
    2.6078   14.3468   27.2380 C   0  0  0  0  0  0  0  0  0  0  0  0
    3.9239   14.1721   26.5542 C   0  0  0  0  0  0  0  0  0  0  0  0
    5.0870   14.6159   27.0575 C   0  0  0  0  0  0  0  0  0  0  0  0
    6.3719   14.5077   26.3084 C   0  0  0  0  0  0  0  0  0  0  0  0
    7.0756   15.4279   26.1762 O   0  0  0  0  0  0  0  0  0  0  0  0
    6.5409   13.0409   25.8443 N   0  0  0  0  0  0  0  0  0  0  0  0
    7.5291   12.4487   25.0692 C   0  0  0  0  0  0  0  0  0  0  0  0
    7.6252   11.0633   25.0266 C   0  0  0  0  0  0  0  0  0  0  0  0
    8.6346   10.4786   24.2702 C   0  0  0  0  0  0  0  0  0  0  0  0
    8.7294    9.1462   24.2495 F   0  0  0  0  0  0  0  0  0  0  0  0
    9.5302   11.2422   23.5342 C   0  0  0  0  0  0  0  0  0  0  0  0
    9.4062   12.6301   23.5462 C   0  0  0  0  0  0  0  0  0  0  0  0
   10.2625   13.4155   22.7343 N   0  0  0  0  0  0  0  0  0  0  0  0
    9.6509   14.3893   21.8394 C   0  0  0  0  0  0  0  0  0  0  0  0
   10.5749   14.8850   20.7484 C   0  0  0  0  0  0  0  0  0  0  0  0
   12.0075   14.5970   21.0690 C   0  0  0  0  0  0  0  0  0  0  0  0
   12.8558   14.4519   20.1931 O   0  0  0  0  0  0  0  0  0  0  0  0
   12.2953   14.5080   22.3979 N   0  0  0  0  0  0  0  0  0  0  0  0
   11.5514   13.6792   23.1944 C   0  0  0  0  0  0  0  0  0  0  0  0
   12.0382   13.1941   24.2144 O   0  0  0  0  0  0  0  0  0  0  0  0
    8.4127   13.2306   24.3248 C   0  0  0  0  0  0  0  0  0  0  0  0
  1  2  1  0
  2  3  2  0
  3  4  1  0
  4  5  2  0
  4  6  1  0
  6  7  1  0
  7  8  2  0
  8  9  1  0
  9 10  1  0
  9 11  2  0
 11 12  1  0
 12 13  1  0
 13 14  1  0
 14 15  1  0
 15 16  1  0
 16 17  2  0
 16 18  1  0
 18 19  1  0
 19 20  2  0
 12 21  2  0
 21  7  1  0
 19 13  1  0
M  END
>  <alias>  (429) 
None

>  <rmsd(smina/fragmenstein)>  (429) 
1.009

>  <smiles>  (429) 
C/C=C/C(=O)Nc1cc(F)cc(N2CCC(=O)NC2=O)c1

>  <gnina_score>  (429) 
5.241

>  <inspiration_score>  (429) 
None

>  <energy_score>  (429) 
-36.423964

>  <distance_score>  (429) 
1.55789

>  <gnina_score_min>  (429) 
5.252

>  <inchikey>  (429) 
HZRLJYHZAAFHLE-NSCUHMNNSA-N

>  <exports>  (429) 
['/opt/xchem-fragalysis-2/maxwin/BulkDock/OUTPUTS/openbind_a71ev2a_c2_elabs_1LOUU54.sdf', '/opt/xchem-fragalysis-2/maxwin/BulkDock/OUTPUTS/openbind_a71ev2a_c2_elabs_1LSYIDY.sdf']

>  <name>  (429) 
P545615

>  <ref_pdb>  (429) 
A0884a

>  <subsites>  (429) 
None

>  <HIPPO Pose ID>  (429) 
545615

>  <ref_mols>  (429) 
A0884a

>  <HIPPO Compound ID>  (429) 
384120

>  <tags>  (429) 
openbind_a71ev2a_c2_elabs,syndirella_product,openbind_a71ev2a_c2_elabs_fragonly_scored_top80percent,openbind_a71ev2a_c2_elabs_scored,BulkDock Fragalysis export,openbind_a71ev2a_c2_elabs_scored_top80percent,openbind_a71ev2a_c2_elabs_activefrags_only_scored_5.2plus,syndirella_placed

>  <smina_score_min>  (429) 
-6.994

$$$$
P545616
     RDKit          3D

 21 22  0  0  0  0  0  0  0  0999 V2000
    2.5544   14.7610   28.5521 C   0  0  0  0  0  0  0  0  0  0  0  0
    3.4881   13.6820   28.1110 C   0  0  0  0  0  0  0  0  0  0  0  0
    4.3174   13.7939   27.0611 C   0  0  0  0  0  0  0  0  0  0  0  0
    5.2088   12.6501   26.6824 C   0  0  0  0  0  0  0  0  0  0  0  0
    5.1082   11.5902   27.1625 O   0  0  0  0  0  0  0  0  0  0  0  0
    6.1790   13.1708   25.5904 N   0  0  0  0  0  0  0  0  0  0  0  0
    7.2473   12.5426   24.9565 C   0  0  0  0  0  0  0  0  0  0  0  0
    7.4796   11.1736   25.0997 C   0  0  0  0  0  0  0  0  0  0  0  0
    8.5487   10.5803   24.4321 C   0  0  0  0  0  0  0  0  0  0  0  0
    9.4088   11.3650   23.6753 C   0  0  0  0  0  0  0  0  0  0  0  0
   10.4055   10.7612   23.0243 F   0  0  0  0  0  0  0  0  0  0  0  0
    9.1980   12.7385   23.5272 C   0  0  0  0  0  0  0  0  0  0  0  0
   10.0934   13.5232   22.7483 N   0  0  0  0  0  0  0  0  0  0  0  0
    9.5479   14.4410   21.7624 C   0  0  0  0  0  0  0  0  0  0  0  0
   10.5412   14.9144   20.7227 C   0  0  0  0  0  0  0  0  0  0  0  0
   11.9484   14.5403   21.0658 C   0  0  0  0  0  0  0  0  0  0  0  0
   12.8060   14.3644   20.2052 O   0  0  0  0  0  0  0  0  0  0  0  0
   12.2085   14.4453   22.3988 N   0  0  0  0  0  0  0  0  0  0  0  0
   11.3946   13.7011   23.2069 C   0  0  0  0  0  0  0  0  0  0  0  0
   11.8291   13.2437   24.2630 O   0  0  0  0  0  0  0  0  0  0  0  0
    8.0877   13.3174   24.1481 C   0  0  0  0  0  0  0  0  0  0  0  0
  1  2  1  0
  2  3  2  0
  3  4  1  0
  4  5  2  0
  4  6  1  0
  6  7  1  0
  7  8  2  0
  8  9  1  0
  9 10  2  0
 10 11  1  0
 10 12  1  0
 12 13  1  0
 13 14  1  0
 14 15  1  0
 15 16  1  0
 16 17  2  0
 16 18  1  0
 18 19  1  0
 19 20  2  0
 12 21  2  0
 21  7  1  0
 19 13  1  0
M  END
>  <alias>  (430) 
None

>  <rmsd(smina/fragmenstein)>  (430) 
0.312

>  <smiles>  (430) 
C/C=C/C(=O)Nc1ccc(F)c(N2CCC(=O)NC2=O)c1

>  <gnina_score>  (430) 
5.333

>  <inspiration_score>  (430) 
None

>  <energy_score>  (430) 
-10.908185

>  <distance_score>  (430) 
1.229549

>  <gnina_score_min>  (430) 
5.357

>  <inchikey>  (430) 
PXLHWXYKCPGIKU-NSCUHMNNSA-N

>  <exports>  (430) 
['/opt/xchem-fragalysis-2/maxwin/BulkDock/OUTPUTS/openbind_a71ev2a_c2_elabs_1LOUU54.sdf', '/opt/xchem-fragalysis-2/maxwin/BulkDock/OUTPUTS/openbind_a71ev2a_c2_elabs_1LSYIDY.sdf']

>  <name>  (430) 
P545616

>  <ref_pdb>  (430) 
A0884a

>  <subsites>  (430) 
None

>  <HIPPO Pose ID>  (430) 
545616

>  <ref_mols>  (430) 
A0884a

>  <HIPPO Compound ID>  (430) 
384123

>  <tags>  (430) 
openbind_a71ev2a_c2_elabs,syndirella_product,openbind_a71ev2a_c2_elabs_fragonly_scored_top80percent,openbind_a71ev2a_c2_elabs_scored,BulkDock Fragalysis export,openbind_a71ev2a_c2_elabs_scored_top80percent,openbind_a71ev2a_c2_elabs_activefrags_only_scored_5.2plus,syndirella_placed

>  <smina_score_min>  (430) 
-6.835

$$$$
P545619
     RDKit          3D

 21 22  0  0  0  0  0  0  0  0999 V2000
    4.2916   17.5540   27.0310 C   0  0  0  0  0  0  0  0  0  0  0  0
    5.1058   16.3168   26.8277 C   0  0  0  0  0  0  0  0  0  0  0  0
    4.6449   15.0820   27.0775 C   0  0  0  0  0  0  0  0  0  0  0  0
    5.4423   13.8281   26.9351 C   0  0  0  0  0  0  0  0  0  0  0  0
    5.3393   12.9720   27.7240 O   0  0  0  0  0  0  0  0  0  0  0  0
    6.2482   13.8832   25.6094 N   0  0  0  0  0  0  0  0  0  0  0  0
    7.1438   12.9568   25.0458 C   0  0  0  0  0  0  0  0  0  0  0  0
    8.0081   13.5015   24.0805 C   0  0  0  0  0  0  0  0  0  0  0  0
    9.0475   12.7554   23.5167 C   0  0  0  0  0  0  0  0  0  0  0  0
    9.9827   13.3229   22.6077 N   0  0  0  0  0  0  0  0  0  0  0  0
    9.5718   14.4410   21.7548 C   0  0  0  0  0  0  0  0  0  0  0  0
   10.6215   14.9231   20.7655 C   0  0  0  0  0  0  0  0  0  0  0  0
   11.9770   14.7337   21.3815 C   0  0  0  0  0  0  0  0  0  0  0  0
   12.8323   15.6040   21.4010 O   0  0  0  0  0  0  0  0  0  0  0  0
   12.1555   13.4847   21.8928 N   0  0  0  0  0  0  0  0  0  0  0  0
   11.3410   13.2753   22.9685 C   0  0  0  0  0  0  0  0  0  0  0  0
   11.7563   13.0757   24.1054 O   0  0  0  0  0  0  0  0  0  0  0  0
    9.1703   11.4079   23.8466 C   0  0  0  0  0  0  0  0  0  0  0  0
    8.2566   10.8281   24.7211 C   0  0  0  0  0  0  0  0  0  0  0  0
    7.2454   11.5908   25.3424 C   0  0  0  0  0  0  0  0  0  0  0  0
    6.3085   10.8666   26.2571 C   0  0  0  0  0  0  0  0  0  0  0  0
  1  2  1  0
  2  3  2  0
  3  4  1  0
  4  5  2  0
  4  6  1  0
  6  7  1  0
  7  8  2  0
  8  9  1  0
  9 10  1  0
 10 11  1  0
 11 12  1  0
 12 13  1  0
 13 14  2  0
 13 15  1  0
 15 16  1  0
 16 17  2  0
  9 18  2  0
 18 19  1  0
 19 20  2  0
 20 21  1  0
 20  7  1  0
 16 10  1  0
M  END
>  <alias>  (431) 
None

>  <rmsd(smina/fragmenstein)>  (431) 
0.926

>  <smiles>  (431) 
C/C=C/C(=O)Nc1cc(N2CCC(=O)NC2=O)ccc1C

>  <gnina_score>  (431) 
5.29

>  <inspiration_score>  (431) 
None

>  <energy_score>  (431) 
-10.327959

>  <distance_score>  (431) 
1.583686

>  <gnina_score_min>  (431) 
5.24

>  <inchikey>  (431) 
LNROTFWOCQITTI-ONEGZZNKSA-N

>  <exports>  (431) 
['/opt/xchem-fragalysis-2/maxwin/BulkDock/OUTPUTS/openbind_a71ev2a_c2_elabs_1LOUU54.sdf', '/opt/xchem-fragalysis-2/maxwin/BulkDock/OUTPUTS/openbind_a71ev2a_c2_elabs_1LSYIDY.sdf']

>  <name>  (431) 
P545619

>  <ref_pdb>  (431) 
A0884a

>  <subsites>  (431) 
None

>  <HIPPO Pose ID>  (431) 
545619

>  <ref_mols>  (431) 
A0884a

>  <HIPPO Compound ID>  (431) 
384125

>  <tags>  (431) 
openbind_a71ev2a_c2_elabs,syndirella_product,openbind_a71ev2a_c2_elabs_fragonly_scored_top80percent,openbind_a71ev2a_c2_elabs_scored,BulkDock Fragalysis export,openbind_a71ev2a_c2_elabs_scored_top80percent,openbind_a71ev2a_c2_elabs_activefrags_only_scored_5.2plus,syndirella_placed

>  <smina_score_min>  (431) 
-6.887

$$$$
P545621
     RDKit          3D

 21 22  0  0  0  0  0  0  0  0999 V2000
    2.6201   14.1334   28.7973 C   0  0  0  0  0  0  0  0  0  0  0  0
    3.5964   13.1845   28.1842 C   0  0  0  0  0  0  0  0  0  0  0  0
    4.4972   13.5355   27.2522 C   0  0  0  0  0  0  0  0  0  0  0  0
    5.4333   12.5085   26.6882 C   0  0  0  0  0  0  0  0  0  0  0  0
    5.3644   11.3775   26.9712 O   0  0  0  0  0  0  0  0  0  0  0  0
    6.3801   13.2422   25.7029 N   0  0  0  0  0  0  0  0  0  0  0  0
    7.4582   12.7670   24.9631 C   0  0  0  0  0  0  0  0  0  0  0  0
    7.7535   11.4066   24.8804 C   0  0  0  0  0  0  0  0  0  0  0  0
    8.8394   10.9738   24.1098 C   0  0  0  0  0  0  0  0  0  0  0  0
    9.1274    9.5388   23.8753 C   0  0  0  0  0  0  0  0  0  0  0  0
    9.6549   11.8998   23.4779 C   0  0  0  0  0  0  0  0  0  0  0  0
    9.3670   13.2542   23.5716 C   0  0  0  0  0  0  0  0  0  0  0  0
   10.1876   14.1762   22.8802 N   0  0  0  0  0  0  0  0  0  0  0  0
    9.6653   14.5735   21.5727 C   0  0  0  0  0  0  0  0  0  0  0  0
   10.6307   15.3586   20.7321 C   0  0  0  0  0  0  0  0  0  0  0  0
   11.9910   14.7593   20.9041 C   0  0  0  0  0  0  0  0  0  0  0  0
   12.6944   14.3805   19.9738 O   0  0  0  0  0  0  0  0  0  0  0  0
   12.3770   14.6849   22.2104 N   0  0  0  0  0  0  0  0  0  0  0  0
   11.5507   14.1534   23.1558 C   0  0  0  0  0  0  0  0  0  0  0  0
   12.0285   13.6680   24.1826 O   0  0  0  0  0  0  0  0  0  0  0  0
    8.2484   13.6904   24.2777 C   0  0  0  0  0  0  0  0  0  0  0  0
  1  2  1  0
  2  3  2  0
  3  4  1  0
  4  5  2  0
  4  6  1  0
  6  7  1  0
  7  8  2  0
  8  9  1  0
  9 10  1  0
  9 11  2  0
 11 12  1  0
 12 13  1  0
 13 14  1  0
 14 15  1  0
 15 16  1  0
 16 17  2  0
 16 18  1  0
 18 19  1  0
 19 20  2  0
 12 21  2  0
 21  7  1  0
 19 13  1  0
M  END
>  <alias>  (432) 
None

>  <rmsd(smina/fragmenstein)>  (432) 
0.65

>  <smiles>  (432) 
C/C=C/C(=O)Nc1cc(C)cc(N2CCC(=O)NC2=O)c1

>  <gnina_score>  (432) 
5.36

>  <inspiration_score>  (432) 
None

>  <energy_score>  (432) 
-23.641364

>  <distance_score>  (432) 
1.303805

>  <gnina_score_min>  (432) 
5.447

>  <inchikey>  (432) 
QOJNBKLIAIEFRX-ONEGZZNKSA-N

>  <exports>  (432) 
['/opt/xchem-fragalysis-2/maxwin/BulkDock/OUTPUTS/openbind_a71ev2a_c2_elabs_1LOUU54.sdf', '/opt/xchem-fragalysis-2/maxwin/BulkDock/OUTPUTS/openbind_a71ev2a_c2_elabs_1LSYIDY.sdf']

>  <name>  (432) 
P545621

>  <ref_pdb>  (432) 
A0884a

>  <subsites>  (432) 
None

>  <HIPPO Pose ID>  (432) 
545621

>  <ref_mols>  (432) 
A0884a

>  <HIPPO Compound ID>  (432) 
384126

>  <tags>  (432) 
openbind_a71ev2a_c2_elabs,syndirella_product,openbind_a71ev2a_c2_elabs_fragonly_scored_top80percent,openbind_a71ev2a_c2_elabs_scored,BulkDock Fragalysis export,openbind_a71ev2a_c2_elabs_scored_top80percent,openbind_a71ev2a_c2_elabs_activefrags_only_scored_5.2plus,syndirella_placed

>  <smina_score_min>  (432) 
-6.925

$$$$
P545622
     RDKit          3D

 21 22  0  0  0  0  0  0  0  0999 V2000
    2.7580   13.6772   28.9483 C   0  0  0  0  0  0  0  0  0  0  0  0
    3.7488   12.7825   28.2788 C   0  0  0  0  0  0  0  0  0  0  0  0
    4.6054   13.1925   27.3294 C   0  0  0  0  0  0  0  0  0  0  0  0
    5.5609   12.2176   26.7087 C   0  0  0  0  0  0  0  0  0  0  0  0
    5.5388   11.0771   26.9568 O   0  0  0  0  0  0  0  0  0  0  0  0
    6.4558   13.0145   25.7255 N   0  0  0  0  0  0  0  0  0  0  0  0
    7.5307   12.6014   24.9449 C   0  0  0  0  0  0  0  0  0  0  0  0
    7.8791   11.2556   24.8221 C   0  0  0  0  0  0  0  0  0  0  0  0
    8.9581   10.9097   24.0138 C   0  0  0  0  0  0  0  0  0  0  0  0
    9.3830    9.2988   23.7010 Cl  0  0  0  0  0  0  0  0  0  0  0  0
    9.7237   11.8732   23.3899 C   0  0  0  0  0  0  0  0  0  0  0  0
    9.3853   13.2104   23.5263 C   0  0  0  0  0  0  0  0  0  0  0  0
   10.1729   14.1813   22.8618 N   0  0  0  0  0  0  0  0  0  0  0  0
    9.6477   14.5909   21.5566 C   0  0  0  0  0  0  0  0  0  0  0  0
   10.6065   15.3903   20.7199 C   0  0  0  0  0  0  0  0  0  0  0  0
   11.9747   14.8098   20.8972 C   0  0  0  0  0  0  0  0  0  0  0  0
   12.6895   14.4347   19.9737 O   0  0  0  0  0  0  0  0  0  0  0  0
   12.3570   14.7392   22.2051 N   0  0  0  0  0  0  0  0  0  0  0  0
   11.5366   14.1886   23.1427 C   0  0  0  0  0  0  0  0  0  0  0  0
   12.0155   13.6992   24.1679 O   0  0  0  0  0  0  0  0  0  0  0  0
    8.2659   13.5793   24.2677 C   0  0  0  0  0  0  0  0  0  0  0  0
  1  2  1  0
  2  3  2  0
  3  4  1  0
  4  5  2  0
  4  6  1  0
  6  7  1  0
  7  8  2  0
  8  9  1  0
  9 10  1  0
  9 11  2  0
 11 12  1  0
 12 13  1  0
 13 14  1  0
 14 15  1  0
 15 16  1  0
 16 17  2  0
 16 18  1  0
 18 19  1  0
 19 20  2  0
 12 21  2  0
 21  7  1  0
 19 13  1  0
M  END
>  <alias>  (433) 
None

>  <rmsd(smina/fragmenstein)>  (433) 
0.539

>  <smiles>  (433) 
C/C=C/C(=O)Nc1cc(Cl)cc(N2CCC(=O)NC2=O)c1

>  <gnina_score>  (433) 
5.401

>  <inspiration_score>  (433) 
None

>  <energy_score>  (433) 
-11.156855

>  <distance_score>  (433) 
1.249123

>  <gnina_score_min>  (433) 
5.528

>  <inchikey>  (433) 
NWOUBZOGAOGQIX-NSCUHMNNSA-N

>  <exports>  (433) 
['/opt/xchem-fragalysis-2/maxwin/BulkDock/OUTPUTS/openbind_a71ev2a_c2_elabs_1LOUU54.sdf', '/opt/xchem-fragalysis-2/maxwin/BulkDock/OUTPUTS/openbind_a71ev2a_c2_elabs_1LSYIDY.sdf']

>  <name>  (433) 
P545622

>  <ref_pdb>  (433) 
A0884a

>  <subsites>  (433) 
None

>  <HIPPO Pose ID>  (433) 
545622

>  <ref_mols>  (433) 
A0884a

>  <HIPPO Compound ID>  (433) 
384127

>  <tags>  (433) 
openbind_a71ev2a_c2_elabs,syndirella_product,openbind_a71ev2a_c2_elabs_fragonly_scored_top80percent,BulkDock Fragalysis export,openbind_a71ev2a_c2_elabs_scored,openbind_a71ev2a_c2_elabs_scored_top80percent,openbind_a71ev2a_c2_elabs_activefrags_only_scored_5.2plus,openbind_a71ev2a_c2_elabs_activefrags_only_scored_5.5plus,syndirella_placed

>  <smina_score_min>  (433) 
-7.021

$$$$
P545624
     RDKit          3D

 21 22  0  0  0  0  0  0  0  0999 V2000
    2.9806   13.9907   28.0233 C   0  0  0  0  0  0  0  0  0  0  0  0
    4.1667   13.9154   27.1192 C   0  0  0  0  0  0  0  0  0  0  0  0
    5.3781   14.3959   27.4422 C   0  0  0  0  0  0  0  0  0  0  0  0
    6.5274   14.3814   26.4917 C   0  0  0  0  0  0  0  0  0  0  0  0
    7.1612   15.3399   26.2957 O   0  0  0  0  0  0  0  0  0  0  0  0
    6.6627   12.9545   25.9116 N   0  0  0  0  0  0  0  0  0  0  0  0
    7.6283   12.4085   25.0734 C   0  0  0  0  0  0  0  0  0  0  0  0
    8.4792   13.2215   24.3310 C   0  0  0  0  0  0  0  0  0  0  0  0
    9.4540   12.6430   23.5151 C   0  0  0  0  0  0  0  0  0  0  0  0
   10.2965   13.4459   22.7124 N   0  0  0  0  0  0  0  0  0  0  0  0
    9.6722   14.4041   21.8137 C   0  0  0  0  0  0  0  0  0  0  0  0
   10.5946   14.9030   20.7232 C   0  0  0  0  0  0  0  0  0  0  0  0
   12.0272   14.5997   21.0350 C   0  0  0  0  0  0  0  0  0  0  0  0
   12.8613   14.4214   20.1512 O   0  0  0  0  0  0  0  0  0  0  0  0
   12.3232   14.5416   22.3638 N   0  0  0  0  0  0  0  0  0  0  0  0
   11.5801   13.7271   23.1760 C   0  0  0  0  0  0  0  0  0  0  0  0
   12.0641   13.2628   24.2062 O   0  0  0  0  0  0  0  0  0  0  0  0
    9.5843   11.2526   23.4511 C   0  0  0  0  0  0  0  0  0  0  0  0
    8.7188   10.4389   24.1758 C   0  0  0  0  0  0  0  0  0  0  0  0
    7.7423   11.0226   24.9732 C   0  0  0  0  0  0  0  0  0  0  0  0
    6.9126   10.2385   25.6756 F   0  0  0  0  0  0  0  0  0  0  0  0
  1  2  1  0
  2  3  2  0
  3  4  1  0
  4  5  2  0
  4  6  1  0
  6  7  1  0
  7  8  2  0
  8  9  1  0
  9 10  1  0
 10 11  1  0
 11 12  1  0
 12 13  1  0
 13 14  2  0
 13 15  1  0
 15 16  1  0
 16 17  2  0
  9 18  2  0
 18 19  1  0
 19 20  2  0
 20 21  1  0
 20  7  1  0
 16 10  1  0
M  END
>  <alias>  (434) 
None

>  <rmsd(smina/fragmenstein)>  (434) 
0.58

>  <smiles>  (434) 
C/C=C/C(=O)Nc1cc(N2CCC(=O)NC2=O)ccc1F

>  <gnina_score>  (434) 
5.39

>  <inspiration_score>  (434) 
None

>  <energy_score>  (434) 
-12.903259

>  <distance_score>  (434) 
1.481212

>  <gnina_score_min>  (434) 
5.353

>  <inchikey>  (434) 
AHLJVOWWVTYEFO-NSCUHMNNSA-N

>  <exports>  (434) 
['/opt/xchem-fragalysis-2/maxwin/BulkDock/OUTPUTS/openbind_a71ev2a_c2_elabs_1LOUU54.sdf', '/opt/xchem-fragalysis-2/maxwin/BulkDock/OUTPUTS/openbind_a71ev2a_c2_elabs_1LSYIDY.sdf']

>  <name>  (434) 
P545624

>  <ref_pdb>  (434) 
A0884a

>  <subsites>  (434) 
None

>  <HIPPO Pose ID>  (434) 
545624

>  <ref_mols>  (434) 
A0884a

>  <HIPPO Compound ID>  (434) 
384128

>  <tags>  (434) 
openbind_a71ev2a_c2_elabs,syndirella_product,openbind_a71ev2a_c2_elabs_fragonly_scored_top80percent,openbind_a71ev2a_c2_elabs_scored,BulkDock Fragalysis export,openbind_a71ev2a_c2_elabs_scored_top80percent,openbind_a71ev2a_c2_elabs_activefrags_only_scored_5.2plus,syndirella_placed

>  <smina_score_min>  (434) 
-7.114

$$$$
P545626
     RDKit          3D

 21 22  0  0  0  0  0  0  0  0999 V2000
    4.1852   16.8321   27.9203 C   0  0  0  0  0  0  0  0  0  0  0  0
    4.9297   15.5922   27.5438 C   0  0  0  0  0  0  0  0  0  0  0  0
    4.3276   14.4502   27.1756 C   0  0  0  0  0  0  0  0  0  0  0  0
    5.0729   13.2061   26.8255 C   0  0  0  0  0  0  0  0  0  0  0  0
    4.7842   12.1757   27.2929 O   0  0  0  0  0  0  0  0  0  0  0  0
    6.1543   13.5649   25.7762 N   0  0  0  0  0  0  0  0  0  0  0  0
    7.1315   12.7734   25.1775 C   0  0  0  0  0  0  0  0  0  0  0  0
    7.1740   11.3978   25.3607 C   0  0  0  0  0  0  0  0  0  0  0  0
    8.1276   10.6430   24.6848 C   0  0  0  0  0  0  0  0  0  0  0  0
    9.0561   11.2475   23.8233 C   0  0  0  0  0  0  0  0  0  0  0  0
    9.9550   10.3214   23.0698 C   0  0  0  0  0  0  0  0  0  0  0  0
    9.0529   12.6469   23.6750 C   0  0  0  0  0  0  0  0  0  0  0  0
    9.9963   13.3265   22.8342 N   0  0  0  0  0  0  0  0  0  0  0  0
    9.4760   14.3237   21.9065 C   0  0  0  0  0  0  0  0  0  0  0  0
   10.4578   14.7894   20.8535 C   0  0  0  0  0  0  0  0  0  0  0  0
   11.8782   14.5259   21.2340 C   0  0  0  0  0  0  0  0  0  0  0  0
   12.7814   14.5205   20.4007 O   0  0  0  0  0  0  0  0  0  0  0  0
   12.1048   14.3131   22.5593 N   0  0  0  0  0  0  0  0  0  0  0  0
   11.2805   13.5443   23.3392 C   0  0  0  0  0  0  0  0  0  0  0  0
   11.7055   13.0991   24.4030 O   0  0  0  0  0  0  0  0  0  0  0  0
    8.0701   13.3916   24.3458 C   0  0  0  0  0  0  0  0  0  0  0  0
  1  2  1  0
  2  3  2  0
  3  4  1  0
  4  5  2  0
  4  6  1  0
  6  7  1  0
  7  8  2  0
  8  9  1  0
  9 10  2  0
 10 11  1  0
 10 12  1  0
 12 13  1  0
 13 14  1  0
 14 15  1  0
 15 16  1  0
 16 17  2  0
 16 18  1  0
 18 19  1  0
 19 20  2  0
 12 21  2  0
 21  7  1  0
 19 13  1  0
M  END
>  <alias>  (435) 
None

>  <rmsd(smina/fragmenstein)>  (435) 
0.722

>  <smiles>  (435) 
C/C=C/C(=O)Nc1ccc(C)c(N2CCC(=O)NC2=O)c1

>  <gnina_score>  (435) 
5.355

>  <inspiration_score>  (435) 
None

>  <energy_score>  (435) 
-40.337592

>  <distance_score>  (435) 
1.401806

>  <gnina_score_min>  (435) 
5.36

>  <inchikey>  (435) 
VMFQQFYRRMEATR-ONEGZZNKSA-N

>  <exports>  (435) 
['/opt/xchem-fragalysis-2/maxwin/BulkDock/OUTPUTS/openbind_a71ev2a_c2_elabs_1LOUU54.sdf', '/opt/xchem-fragalysis-2/maxwin/BulkDock/OUTPUTS/openbind_a71ev2a_c2_elabs_1LSYIDY.sdf']

>  <name>  (435) 
P545626

>  <ref_pdb>  (435) 
A0884a

>  <subsites>  (435) 
None

>  <HIPPO Pose ID>  (435) 
545626

>  <ref_mols>  (435) 
A0884a

>  <HIPPO Compound ID>  (435) 
384129

>  <tags>  (435) 
openbind_a71ev2a_c2_elabs,syndirella_product,openbind_a71ev2a_c2_elabs_fragonly_scored_top80percent,openbind_a71ev2a_c2_elabs_scored,BulkDock Fragalysis export,openbind_a71ev2a_c2_elabs_scored_top80percent,openbind_a71ev2a_c2_elabs_activefrags_only_scored_5.2plus,syndirella_placed

>  <smina_score_min>  (435) 
-6.923

$$$$
P545630
     RDKit          3D

 21 22  0  0  0  0  0  0  0  0999 V2000
    2.6329   16.0025   28.3830 C   0  0  0  0  0  0  0  0  0  0  0  0
    3.3997   14.7722   28.0253 C   0  0  0  0  0  0  0  0  0  0  0  0
    4.2756   14.7061   27.0099 C   0  0  0  0  0  0  0  0  0  0  0  0
    4.9919   13.4222   26.7169 C   0  0  0  0  0  0  0  0  0  0  0  0
    4.7098   12.4118   27.2313 O   0  0  0  0  0  0  0  0  0  0  0  0
    6.0805   13.7419   25.6576 N   0  0  0  0  0  0  0  0  0  0  0  0
    7.0703   12.9325   25.1054 C   0  0  0  0  0  0  0  0  0  0  0  0
    7.1181   11.5650   25.3558 C   0  0  0  0  0  0  0  0  0  0  0  0
    8.0871   10.7846   24.7341 C   0  0  0  0  0  0  0  0  0  0  0  0
    9.0250   11.3684   23.8789 C   0  0  0  0  0  0  0  0  0  0  0  0
   10.0368   10.2731   23.0428 Cl  0  0  0  0  0  0  0  0  0  0  0  0
    9.0169   12.7536   23.6397 C   0  0  0  0  0  0  0  0  0  0  0  0
    9.9780   13.4012   22.7892 N   0  0  0  0  0  0  0  0  0  0  0  0
    9.4897   14.3767   21.8198 C   0  0  0  0  0  0  0  0  0  0  0  0
   10.4992   14.8186   20.7823 C   0  0  0  0  0  0  0  0  0  0  0  0
   11.9041   14.4988   21.1733 C   0  0  0  0  0  0  0  0  0  0  0  0
   12.8079   14.4242   20.3444 O   0  0  0  0  0  0  0  0  0  0  0  0
   12.1168   14.3150   22.5061 N   0  0  0  0  0  0  0  0  0  0  0  0
   11.2659   13.5871   23.2947 C   0  0  0  0  0  0  0  0  0  0  0  0
   11.6605   13.1546   24.3765 O   0  0  0  0  0  0  0  0  0  0  0  0
    8.0142   13.5197   24.2542 C   0  0  0  0  0  0  0  0  0  0  0  0
  1  2  1  0
  2  3  2  0
  3  4  1  0
  4  5  2  0
  4  6  1  0
  6  7  1  0
  7  8  2  0
  8  9  1  0
  9 10  2  0
 10 11  1  0
 10 12  1  0
 12 13  1  0
 13 14  1  0
 14 15  1  0
 15 16  1  0
 16 17  2  0
 16 18  1  0
 18 19  1  0
 19 20  2  0
 12 21  2  0
 21  7  1  0
 19 13  1  0
M  END
>  <alias>  (436) 
None

>  <rmsd(smina/fragmenstein)>  (436) 
0.858

>  <smiles>  (436) 
C/C=C/C(=O)Nc1ccc(Cl)c(N2CCC(=O)NC2=O)c1

>  <gnina_score>  (436) 
5.527

>  <inspiration_score>  (436) 
None

>  <energy_score>  (436) 
-49.324299

>  <distance_score>  (436) 
1.512461

>  <gnina_score_min>  (436) 
5.536

>  <inchikey>  (436) 
NAZMZWCYWPFMGY-NSCUHMNNSA-N

>  <exports>  (436) 
['/opt/xchem-fragalysis-2/maxwin/BulkDock/OUTPUTS/openbind_a71ev2a_c2_elabs_1LOUU54.sdf', '/opt/xchem-fragalysis-2/maxwin/BulkDock/OUTPUTS/openbind_a71ev2a_c2_elabs_1LSYIDY.sdf']

>  <name>  (436) 
P545630

>  <ref_pdb>  (436) 
A0884a

>  <subsites>  (436) 
None

>  <HIPPO Pose ID>  (436) 
545630

>  <ref_mols>  (436) 
A0884a

>  <HIPPO Compound ID>  (436) 
384131

>  <tags>  (436) 
openbind_a71ev2a_c2_elabs,syndirella_product,openbind_a71ev2a_c2_elabs_fragonly_scored_top80percent,BulkDock Fragalysis export,openbind_a71ev2a_c2_elabs_scored,openbind_a71ev2a_c2_elabs_scored_top80percent,openbind_a71ev2a_c2_elabs_activefrags_only_scored_5.2plus,openbind_a71ev2a_c2_elabs_activefrags_only_scored_5.5plus,syndirella_placed

>  <smina_score_min>  (436) 
-6.926

$$$$
P545632
     RDKit          3D

 21 22  0  0  0  0  0  0  0  0999 V2000
    2.8500   12.9766   28.9936 C   0  0  0  0  0  0  0  0  0  0  0  0
    3.9123   12.1886   28.3005 C   0  0  0  0  0  0  0  0  0  0  0  0
    4.7409   12.6998   27.3757 C   0  0  0  0  0  0  0  0  0  0  0  0
    5.7752   11.8266   26.7299 C   0  0  0  0  0  0  0  0  0  0  0  0
    5.8391   10.6793   26.9315 O   0  0  0  0  0  0  0  0  0  0  0  0
    6.6505   12.7385   25.8355 N   0  0  0  0  0  0  0  0  0  0  0  0
    7.6883   12.4217   24.9627 C   0  0  0  0  0  0  0  0  0  0  0  0
    8.0937   11.1025   24.7309 C   0  0  0  0  0  0  0  0  0  0  0  0
    9.1566   10.8703   23.8628 C   0  0  0  0  0  0  0  0  0  0  0  0
    9.7813    9.1840   23.3762 Br  0  0  0  0  0  0  0  0  0  0  0  0
    9.8354   11.9156   23.2771 C   0  0  0  0  0  0  0  0  0  0  0  0
    9.4391   13.2194   23.5160 C   0  0  0  0  0  0  0  0  0  0  0  0
   10.1680   14.2541   22.8819 N   0  0  0  0  0  0  0  0  0  0  0  0
    9.6482   14.6068   21.5581 C   0  0  0  0  0  0  0  0  0  0  0  0
   10.5983   15.4016   20.7101 C   0  0  0  0  0  0  0  0  0  0  0  0
   11.9661   14.8224   20.8952 C   0  0  0  0  0  0  0  0  0  0  0  0
   12.6667   14.4128   19.9763 O   0  0  0  0  0  0  0  0  0  0  0  0
   12.3555   14.7961   22.2021 N   0  0  0  0  0  0  0  0  0  0  0  0
   11.5354   14.2858   23.1631 C   0  0  0  0  0  0  0  0  0  0  0  0
   12.0141   13.8356   24.2057 O   0  0  0  0  0  0  0  0  0  0  0  0
    8.3427   13.4832   24.3266 C   0  0  0  0  0  0  0  0  0  0  0  0
  1  2  1  0
  2  3  2  0
  3  4  1  0
  4  5  2  0
  4  6  1  0
  6  7  1  0
  7  8  2  0
  8  9  1  0
  9 10  1  0
  9 11  2  0
 11 12  1  0
 12 13  1  0
 13 14  1  0
 14 15  1  0
 15 16  1  0
 16 17  2  0
 16 18  1  0
 18 19  1  0
 19 20  2  0
 12 21  2  0
 21  7  1  0
 19 13  1  0
M  END
>  <alias>  (437) 
None

>  <rmsd(smina/fragmenstein)>  (437) 
0.237

>  <smiles>  (437) 
C/C=C/C(=O)Nc1cc(Br)cc(N2CCC(=O)NC2=O)c1

>  <gnina_score>  (437) 
5.556

>  <inspiration_score>  (437) 
None

>  <energy_score>  (437) 
-17.558314

>  <distance_score>  (437) 
1.241959

>  <gnina_score_min>  (437) 
5.562

>  <inchikey>  (437) 
UTVYGINBHHTTDU-NSCUHMNNSA-N

>  <exports>  (437) 
['/opt/xchem-fragalysis-2/maxwin/BulkDock/OUTPUTS/openbind_a71ev2a_c2_elabs_1LOUU54.sdf', '/opt/xchem-fragalysis-2/maxwin/BulkDock/OUTPUTS/openbind_a71ev2a_c2_elabs_1LSYIDY.sdf']

>  <name>  (437) 
P545632

>  <ref_pdb>  (437) 
A0884a

>  <subsites>  (437) 
None

>  <HIPPO Pose ID>  (437) 
545632

>  <ref_mols>  (437) 
A0884a

>  <HIPPO Compound ID>  (437) 
384132

>  <tags>  (437) 
openbind_a71ev2a_c2_elabs,syndirella_product,openbind_a71ev2a_c2_elabs_fragonly_scored_top80percent,BulkDock Fragalysis export,openbind_a71ev2a_c2_elabs_scored,openbind_a71ev2a_c2_elabs_scored_top80percent,openbind_a71ev2a_c2_elabs_activefrags_only_scored_5.2plus,openbind_a71ev2a_c2_elabs_activefrags_only_scored_5.5plus,syndirella_placed

>  <smina_score_min>  (437) 
-6.6

$$$$
P545633
     RDKit          3D

 21 22  0  0  0  0  0  0  0  0999 V2000
    3.4446   14.1071   29.6787 C   0  0  0  0  0  0  0  0  0  0  0  0
    4.7234   14.1848   28.9130 C   0  0  0  0  0  0  0  0  0  0  0  0
    5.1164   13.2762   28.0062 C   0  0  0  0  0  0  0  0  0  0  0  0
    6.4203   13.4522   27.2864 C   0  0  0  0  0  0  0  0  0  0  0  0
    7.1479   14.3373   27.5115 O   0  0  0  0  0  0  0  0  0  0  0  0
    6.5468   12.2766   26.2793 N   0  0  0  0  0  0  0  0  0  0  0  0
    7.5194   12.0125   25.3088 C   0  0  0  0  0  0  0  0  0  0  0  0
    7.6567   10.6563   24.9906 C   0  0  0  0  0  0  0  0  0  0  0  0
    8.6399   10.2200   24.1105 C   0  0  0  0  0  0  0  0  0  0  0  0
    9.4948   11.1333   23.5276 C   0  0  0  0  0  0  0  0  0  0  0  0
    9.3584   12.4954   23.8094 C   0  0  0  0  0  0  0  0  0  0  0  0
   10.3643   13.3334   23.2739 N   0  0  0  0  0  0  0  0  0  0  0  0
   11.5009   13.5270   24.0240 C   0  0  0  0  0  0  0  0  0  0  0  0
   11.5685   13.4789   25.2470 O   0  0  0  0  0  0  0  0  0  0  0  0
   12.7018   13.8049   23.1948 C   0  0  0  0  0  0  0  0  0  0  0  0
   12.4016   15.0270   22.3913 C   0  0  0  0  0  0  0  0  0  0  0  0
   11.1900   14.8131   21.6654 N   0  0  0  0  0  0  0  0  0  0  0  0
   10.1697   14.0279   22.1036 C   0  0  0  0  0  0  0  0  0  0  0  0
    9.1431   14.0071   21.4380 O   0  0  0  0  0  0  0  0  0  0  0  0
    8.3387   12.9615   24.6727 C   0  0  0  0  0  0  0  0  0  0  0  0
    8.1286   14.4376   24.8362 C   0  0  0  0  0  0  0  0  0  0  0  0
  1  2  1  0
  2  3  2  0
  3  4  1  0
  4  5  2  0
  4  6  1  0
  6  7  1  0
  7  8  2  0
  8  9  1  0
  9 10  2  0
 10 11  1  0
 11 12  1  0
 12 13  1  0
 13 14  2  0
 13 15  1  0
 15 16  1  0
 16 17  1  0
 17 18  1  0
 18 19  2  0
 11 20  2  0
 20 21  1  0
 20  7  1  0
 18 12  1  0
M  END
>  <alias>  (438) 
None

>  <rmsd(smina/fragmenstein)>  (438) 
0.446

>  <smiles>  (438) 
C/C=C/C(=O)Nc1cccc(N2C(=O)CCNC2=O)c1C

>  <gnina_score>  (438) 
5.209

>  <inspiration_score>  (438) 
None

>  <energy_score>  (438) 
-21.644537

>  <distance_score>  (438) 
1.708507

>  <gnina_score_min>  (438) 
5.286

>  <inchikey>  (438) 
CBTZHSUHDMPEFP-HWKANZROSA-N

>  <exports>  (438) 
['/opt/xchem-fragalysis-2/maxwin/BulkDock/OUTPUTS/openbind_a71ev2a_c2_elabs_1LOUU54.sdf', '/opt/xchem-fragalysis-2/maxwin/BulkDock/OUTPUTS/openbind_a71ev2a_c2_elabs_1LSYIDY.sdf']

>  <name>  (438) 
P545633

>  <ref_pdb>  (438) 
A0884a

>  <subsites>  (438) 
None

>  <HIPPO Pose ID>  (438) 
545633

>  <ref_mols>  (438) 
A0884a

>  <HIPPO Compound ID>  (438) 
384133

>  <tags>  (438) 
openbind_a71ev2a_c2_elabs,syndirella_product,openbind_a71ev2a_c2_elabs_fragonly_scored_top80percent,openbind_a71ev2a_c2_elabs_scored,BulkDock Fragalysis export,openbind_a71ev2a_c2_elabs_scored_top80percent,openbind_a71ev2a_c2_elabs_activefrags_only_scored_5.2plus,syndirella_placed

>  <smina_score_min>  (438) 
-6.336

$$$$
P545644
     RDKit          3D

 21 22  0  0  0  0  0  0  0  0999 V2000
    5.2396   14.9394   27.9879 C   0  0  0  0  0  0  0  0  0  0  0  0
    4.3718   14.0388   27.1036 C   0  0  2  0  0  0  0  0  0  0  0  0
    3.1288   13.5520   27.8459 C   0  0  0  0  0  0  0  0  0  0  0  0
    1.8028   14.9717   28.0153 Br  0  0  0  0  0  0  0  0  0  0  0  0
    5.1887   12.8144   26.6591 C   0  0  0  0  0  0  0  0  0  0  0  0
    4.9900   11.7330   27.0613 O   0  0  0  0  0  0  0  0  0  0  0  0
    6.2379   13.3318   25.6265 N   0  0  0  0  0  0  0  0  0  0  0  0
    7.2731   12.6648   24.9799 C   0  0  0  0  0  0  0  0  0  0  0  0
    7.4567   11.2860   25.1036 C   0  0  0  0  0  0  0  0  0  0  0  0
    8.5142   10.6669   24.4385 C   0  0  0  0  0  0  0  0  0  0  0  0
    9.4112   11.4351   23.7054 C   0  0  0  0  0  0  0  0  0  0  0  0
   10.4058   10.8102   23.0703 F   0  0  0  0  0  0  0  0  0  0  0  0
    9.2482   12.8176   23.5825 C   0  0  0  0  0  0  0  0  0  0  0  0
   10.2012   13.6098   22.8861 N   0  0  0  0  0  0  0  0  0  0  0  0
    9.7393   14.3869   21.7357 C   0  0  0  0  0  0  0  0  0  0  0  0
   10.7934   15.2302   21.0423 C   0  0  0  0  0  0  0  0  0  0  0  0
   12.1703   14.6598   21.2527 C   0  0  0  0  0  0  0  0  0  0  0  0
   12.3849   14.3809   22.6413 N   0  0  0  0  0  0  0  0  0  0  0  0
   11.4774   13.7205   23.4103 C   0  0  0  0  0  0  0  0  0  0  0  0
   11.8092   13.3127   24.5223 O   0  0  0  0  0  0  0  0  0  0  0  0
    8.1507   13.4231   24.1973 C   0  0  0  0  0  0  0  0  0  0  0  0
  2  1  1  1
  2  3  1  0
  3  4  1  0
  2  5  1  0
  5  6  2  0
  5  7  1  0
  7  8  1  0
  8  9  2  0
  9 10  1  0
 10 11  2  0
 11 12  1  0
 11 13  1  0
 13 14  1  0
 14 15  1  0
 15 16  1  0
 16 17  1  0
 17 18  1  0
 18 19  1  0
 19 20  2  0
 13 21  2  0
 21  8  1  0
 19 14  1  0
M  END
>  <alias>  (439) 
None

>  <rmsd(smina/fragmenstein)>  (439) 
0.758

>  <smiles>  (439) 
C[C@H](CBr)C(=O)Nc1ccc(F)c(N2CCCNC2=O)c1

>  <gnina_score>  (439) 
5.18

>  <inspiration_score>  (439) 
None

>  <energy_score>  (439) 
-45.163589

>  <distance_score>  (439) 
1.273106

>  <gnina_score_min>  (439) 
5.276

>  <inchikey>  (439) 
MDBOXVITHSVSCQ-SECBINFHSA-N

>  <exports>  (439) 
['/opt/xchem-fragalysis-2/maxwin/BulkDock/OUTPUTS/openbind_a71ev2a_c2_elabs_1LOUU54.sdf', '/opt/xchem-fragalysis-2/maxwin/BulkDock/OUTPUTS/openbind_a71ev2a_c2_elabs_1LSYIDY.sdf']

>  <name>  (439) 
P545644

>  <ref_pdb>  (439) 
A0884a

>  <subsites>  (439) 
None

>  <HIPPO Pose ID>  (439) 
545644

>  <ref_mols>  (439) 
A0884a

>  <HIPPO Compound ID>  (439) 
384146

>  <tags>  (439) 
openbind_a71ev2a_c2_elabs,syndirella_product,openbind_a71ev2a_c2_elabs_fragonly_scored_top80percent,openbind_a71ev2a_c2_elabs_scored,BulkDock Fragalysis export,openbind_a71ev2a_c2_elabs_scored_top80percent,openbind_a71ev2a_c2_elabs_activefrags_only_scored_5.2plus,syndirella_placed

>  <smina_score_min>  (439) 
-6.377

$$$$
P545645
     RDKit          3D

 21 22  0  0  0  0  0  0  0  0999 V2000
    7.6570   14.7363   24.5582 C   0  0  0  0  0  0  0  0  0  0  0  0
    8.0238   13.2773   24.4954 C   0  0  0  0  0  0  0  0  0  0  0  0
    7.2964   12.3123   25.2322 C   0  0  0  0  0  0  0  0  0  0  0  0
    6.3100   12.7302   26.1326 N   0  0  0  0  0  0  0  0  0  0  0  0
    5.4966   11.9232   27.1877 C   0  0  0  0  0  0  0  0  0  0  0  0
    5.4730   10.7745   27.4100 O   0  0  0  0  0  0  0  0  0  0  0  0
    4.6965   12.9176   28.0451 C   0  0  2  0  0  0  0  0  0  0  0  0
    3.7845   13.8220   27.2148 C   0  0  0  0  0  0  0  0  0  0  0  0
    5.6618   13.6844   28.9409 C   0  0  0  0  0  0  0  0  0  0  0  0
    4.7269   14.5073   30.4394 Br  0  0  0  0  0  0  0  0  0  0  0  0
    7.5942   10.9528   25.0984 C   0  0  0  0  0  0  0  0  0  0  0  0
    8.6372   10.5406   24.2738 C   0  0  0  0  0  0  0  0  0  0  0  0
    9.4170   11.4913   23.6335 C   0  0  0  0  0  0  0  0  0  0  0  0
   10.4183   11.0696   22.8575 F   0  0  0  0  0  0  0  0  0  0  0  0
    9.1485   12.8593   23.7527 C   0  0  0  0  0  0  0  0  0  0  0  0
   10.0556   13.8156   23.2252 N   0  0  0  0  0  0  0  0  0  0  0  0
    9.9336   14.3005   21.8652 C   0  0  0  0  0  0  0  0  0  0  0  0
   11.3114   14.8517   21.5264 C   0  0  0  0  0  0  0  0  0  0  0  0
   12.1605   14.3212   22.5495 N   0  0  0  0  0  0  0  0  0  0  0  0
   11.4182   13.7631   23.5731 C   0  0  0  0  0  0  0  0  0  0  0  0
   11.8864   13.3502   24.6222 O   0  0  0  0  0  0  0  0  0  0  0  0
  1  2  1  0
  2  3  2  0
  3  4  1  0
  4  5  1  0
  5  6  2  0
  5  7  1  0
  7  8  1  6
  7  9  1  0
  9 10  1  0
  3 11  1  0
 11 12  2  0
 12 13  1  0
 13 14  1  0
 13 15  2  0
 15 16  1  0
 16 17  1  0
 17 18  1  0
 18 19  1  0
 19 20  1  0
 20 21  2  0
 15  2  1  0
 20 16  1  0
M  END
>  <alias>  (440) 
None

>  <rmsd(smina/fragmenstein)>  (440) 
0.35

>  <smiles>  (440) 
Cc1c(NC(=O)[C@H](C)CBr)ccc(F)c1N1CCNC1=O

>  <gnina_score>  (440) 
5.235

>  <inspiration_score>  (440) 
None

>  <energy_score>  (440) 
-30.590641

>  <distance_score>  (440) 
1.19859

>  <gnina_score_min>  (440) 
5.279

>  <inchikey>  (440) 
WXCDCUIKYIRTGH-MRVPVSSYSA-N

>  <exports>  (440) 
['/opt/xchem-fragalysis-2/maxwin/BulkDock/OUTPUTS/openbind_a71ev2a_c2_elabs_1LOUU54.sdf', '/opt/xchem-fragalysis-2/maxwin/BulkDock/OUTPUTS/openbind_a71ev2a_c2_elabs_1LSYIDY.sdf']

>  <name>  (440) 
P545645

>  <ref_pdb>  (440) 
A0884a

>  <subsites>  (440) 
None

>  <HIPPO Pose ID>  (440) 
545645

>  <ref_mols>  (440) 
A0884a

>  <HIPPO Compound ID>  (440) 
384147

>  <tags>  (440) 
openbind_a71ev2a_c2_elabs,syndirella_product,openbind_a71ev2a_c2_elabs_fragonly_scored_top80percent,openbind_a71ev2a_c2_elabs_scored,BulkDock Fragalysis export,openbind_a71ev2a_c2_elabs_scored_top80percent,openbind_a71ev2a_c2_elabs_activefrags_only_scored_5.2plus,syndirella_placed

>  <smina_score_min>  (440) 
-5.815

$$$$
P545648
     RDKit          3D

 21 22  0  0  0  0  0  0  0  0999 V2000
    7.4185   14.6049   24.8266 C   0  0  0  0  0  0  0  0  0  0  0  0
    7.7957   13.1431   24.8665 C   0  0  0  0  0  0  0  0  0  0  0  0
    6.9584   12.2200   25.5149 C   0  0  0  0  0  0  0  0  0  0  0  0
    5.9537   12.7042   26.3566 N   0  0  0  0  0  0  0  0  0  0  0  0
    4.9969   11.9509   27.3248 C   0  0  0  0  0  0  0  0  0  0  0  0
    4.8522   10.8045   27.5075 O   0  0  0  0  0  0  0  0  0  0  0  0
    4.1643   12.9931   28.0907 C   0  0  1  0  0  0  0  0  0  0  0  0
    5.0542   13.8587   28.9835 C   0  0  0  0  0  0  0  0  0  0  0  0
    3.2980   13.8143   27.1426 C   0  0  0  0  0  0  0  0  0  0  0  0
    1.6984   14.4649   28.0535 Br  0  0  0  0  0  0  0  0  0  0  0  0
    7.1889   10.8556   25.3589 C   0  0  0  0  0  0  0  0  0  0  0  0
    8.2289   10.4061   24.5433 C   0  0  0  0  0  0  0  0  0  0  0  0
    9.1227   11.3106   23.9844 C   0  0  0  0  0  0  0  0  0  0  0  0
    8.9750   12.6792   24.2468 C   0  0  0  0  0  0  0  0  0  0  0  0
   10.1183   13.5103   24.1608 N   0  0  0  0  0  0  0  0  0  0  0  0
   11.1785   13.3147   23.3236 C   0  0  0  0  0  0  0  0  0  0  0  0
   11.1870   12.7538   22.2463 O   0  0  0  0  0  0  0  0  0  0  0  0
   12.4163   13.9066   23.9196 C   0  0  0  0  0  0  0  0  0  0  0  0
   11.8844   14.4786   25.1150 N   0  0  0  0  0  0  0  0  0  0  0  0
   10.5408   14.2608   25.2292 C   0  0  0  0  0  0  0  0  0  0  0  0
    9.9414   14.7011   26.1998 O   0  0  0  0  0  0  0  0  0  0  0  0
  1  2  1  0
  2  3  2  0
  3  4  1  0
  4  5  1  0
  5  6  2  0
  5  7  1  0
  7  8  1  6
  7  9  1  0
  9 10  1  0
  3 11  1  0
 11 12  2  0
 12 13  1  0
 13 14  2  0
 14 15  1  0
 15 16  1  0
 16 17  2  0
 16 18  1  0
 18 19  1  0
 19 20  1  0
 20 21  2  0
 14  2  1  0
 20 15  1  0
M  END
>  <alias>  (441) 
None

>  <rmsd(smina/fragmenstein)>  (441) 
1.755

>  <smiles>  (441) 
Cc1c(NC(=O)[C@@H](C)CBr)cccc1N1C(=O)CNC1=O

>  <gnina_score>  (441) 
4.862

>  <inspiration_score>  (441) 
None

>  <energy_score>  (441) 
-24.601533

>  <distance_score>  (441) 
1.488867

>  <gnina_score_min>  (441) 
5.292

>  <inchikey>  (441) 
GZUPCCQKDGOLQN-QMMMGPOBSA-N

>  <exports>  (441) 
['/opt/xchem-fragalysis-2/maxwin/BulkDock/OUTPUTS/openbind_a71ev2a_c2_elabs_1LOUU54.sdf', '/opt/xchem-fragalysis-2/maxwin/BulkDock/OUTPUTS/openbind_a71ev2a_c2_elabs_1LSYIDY.sdf']

>  <name>  (441) 
P545648

>  <ref_pdb>  (441) 
A0884a

>  <subsites>  (441) 
None

>  <HIPPO Pose ID>  (441) 
545648

>  <ref_mols>  (441) 
A0884a

>  <HIPPO Compound ID>  (441) 
384151

>  <tags>  (441) 
openbind_a71ev2a_c2_elabs,syndirella_product,openbind_a71ev2a_c2_elabs_fragonly_scored_top80percent,openbind_a71ev2a_c2_elabs_scored,BulkDock Fragalysis export,openbind_a71ev2a_c2_elabs_scored_top80percent,openbind_a71ev2a_c2_elabs_activefrags_only_scored_5.2plus,syndirella_placed

>  <smina_score_min>  (441) 
-6.749

$$$$
P545650
     RDKit          3D

 21 22  0  0  0  0  0  0  0  0999 V2000
    7.9791   14.4832   24.9275 C   0  0  0  0  0  0  0  0  0  0  0  0
    8.3283   13.0497   24.6489 C   0  0  0  0  0  0  0  0  0  0  0  0
    7.6319   11.9812   25.2444 C   0  0  0  0  0  0  0  0  0  0  0  0
    6.6732   12.0970   26.2561 N   0  0  0  0  0  0  0  0  0  0  0  0
    6.5395   13.1409   27.4132 C   0  0  0  0  0  0  0  0  0  0  0  0
    7.1674   14.1017   27.6438 O   0  0  0  0  0  0  0  0  0  0  0  0
    5.3187   12.7237   28.2386 C   0  0  2  0  0  0  0  0  0  0  0  0
    4.0569   13.2087   27.5226 C   0  0  0  0  0  0  0  0  0  0  0  0
    5.4434   13.3188   29.6383 C   0  0  0  0  0  0  0  0  0  0  0  0
    4.2047   12.4415   30.8675 Br  0  0  0  0  0  0  0  0  0  0  0  0
    7.8920   10.6643   24.8399 C   0  0  0  0  0  0  0  0  0  0  0  0
    8.9006   10.3794   23.9270 C   0  0  0  0  0  0  0  0  0  0  0  0
    9.6427   11.4187   23.3904 C   0  0  0  0  0  0  0  0  0  0  0  0
    9.3656   12.7474   23.7380 C   0  0  0  0  0  0  0  0  0  0  0  0
   10.1682   13.7688   23.1437 N   0  0  0  0  0  0  0  0  0  0  0  0
    9.7346   14.2406   21.8279 C   0  0  0  0  0  0  0  0  0  0  0  0
   10.6699   15.2225   21.1544 C   0  0  0  0  0  0  0  0  0  0  0  0
   12.0885   14.7515   21.3383 C   0  0  0  0  0  0  0  0  0  0  0  0
   12.3598   14.4708   22.7163 N   0  0  0  0  0  0  0  0  0  0  0  0
   11.4873   13.8566   23.5600 C   0  0  0  0  0  0  0  0  0  0  0  0
   11.8995   13.4382   24.6406 O   0  0  0  0  0  0  0  0  0  0  0  0
  1  2  1  0
  2  3  2  0
  3  4  1  0
  4  5  1  0
  5  6  2  0
  5  7  1  0
  7  8  1  6
  7  9  1  0
  9 10  1  0
  3 11  1  0
 11 12  2  0
 12 13  1  0
 13 14  2  0
 14 15  1  0
 15 16  1  0
 16 17  1  0
 17 18  1  0
 18 19  1  0
 19 20  1  0
 20 21  2  0
 14  2  1  0
 20 15  1  0
M  END
>  <alias>  (442) 
None

>  <rmsd(smina/fragmenstein)>  (442) 
0.48

>  <smiles>  (442) 
Cc1c(NC(=O)[C@H](C)CBr)cccc1N1CCCNC1=O

>  <gnina_score>  (442) 
5.116

>  <inspiration_score>  (442) 
None

>  <energy_score>  (442) 
-9.319107

>  <distance_score>  (442) 
1.127854

>  <gnina_score_min>  (442) 
5.245

>  <inchikey>  (442) 
CEAMIPKPCULILF-SNVBAGLBSA-N

>  <exports>  (442) 
['/opt/xchem-fragalysis-2/maxwin/BulkDock/OUTPUTS/openbind_a71ev2a_c2_elabs_1LOUU54.sdf', '/opt/xchem-fragalysis-2/maxwin/BulkDock/OUTPUTS/openbind_a71ev2a_c2_elabs_1LSYIDY.sdf']

>  <name>  (442) 
P545650

>  <ref_pdb>  (442) 
A0884a

>  <subsites>  (442) 
None

>  <HIPPO Pose ID>  (442) 
545650

>  <ref_mols>  (442) 
A0884a

>  <HIPPO Compound ID>  (442) 
384152

>  <tags>  (442) 
openbind_a71ev2a_c2_elabs,syndirella_product,openbind_a71ev2a_c2_elabs_fragonly_scored_top80percent,openbind_a71ev2a_c2_elabs_scored,BulkDock Fragalysis export,openbind_a71ev2a_c2_elabs_scored_top80percent,openbind_a71ev2a_c2_elabs_activefrags_only_scored_5.2plus,syndirella_placed

>  <smina_score_min>  (442) 
-6.501

$$$$
P545652
     RDKit          3D

 21 22  0  0  0  0  0  0  0  0999 V2000
    5.6470   15.1008   27.6877 C   0  0  0  0  0  0  0  0  0  0  0  0
    4.7452   14.1078   26.9527 C   0  0  1  0  0  0  0  0  0  0  0  0
    4.0371   14.7037   25.7408 C   0  0  0  0  0  0  0  0  0  0  0  0
    2.5706   15.8618   26.3015 Br  0  0  0  0  0  0  0  0  0  0  0  0
    5.5014   12.8366   26.5376 C   0  0  0  0  0  0  0  0  0  0  0  0
    5.1268   11.7757   26.8612 O   0  0  0  0  0  0  0  0  0  0  0  0
    6.6853   13.2503   25.6134 N   0  0  0  0  0  0  0  0  0  0  0  0
    7.6665   12.4766   25.0012 C   0  0  0  0  0  0  0  0  0  0  0  0
    7.6299   11.0856   25.0146 C   0  0  0  0  0  0  0  0  0  0  0  0
    8.5899   10.3609   24.3027 C   0  0  0  0  0  0  0  0  0  0  0  0
    9.6060   11.0131   23.6049 C   0  0  0  0  0  0  0  0  0  0  0  0
    9.6812   12.4038   23.6387 C   0  0  0  0  0  0  0  0  0  0  0  0
   10.7342   13.0660   22.9782 N   0  0  0  0  0  0  0  0  0  0  0  0
   11.7962   13.5733   23.6820 C   0  0  0  0  0  0  0  0  0  0  0  0
   12.1567   13.2652   24.8116 O   0  0  0  0  0  0  0  0  0  0  0  0
   12.4104   14.7076   22.8898 C   0  0  0  0  0  0  0  0  0  0  0  0
   11.5623   14.7541   21.7615 N   0  0  0  0  0  0  0  0  0  0  0  0
   10.4783   13.9496   21.9724 C   0  0  0  0  0  0  0  0  0  0  0  0
    9.4306   14.1305   21.3805 O   0  0  0  0  0  0  0  0  0  0  0  0
    8.7008   13.1264   24.3257 C   0  0  0  0  0  0  0  0  0  0  0  0
    8.7702   14.4681   24.3777 F   0  0  0  0  0  0  0  0  0  0  0  0
  2  1  1  6
  2  3  1  0
  3  4  1  0
  2  5  1  0
  5  6  2  0
  5  7  1  0
  7  8  1  0
  8  9  2  0
  9 10  1  0
 10 11  2  0
 11 12  1  0
 12 13  1  0
 13 14  1  0
 14 15  2  0
 14 16  1  0
 16 17  1  0
 17 18  1  0
 18 19  2  0
 12 20  2  0
 20 21  1  0
 20  8  1  0
 18 13  1  0
M  END
>  <alias>  (443) 
None

>  <rmsd(smina/fragmenstein)>  (443) 
0.817

>  <smiles>  (443) 
C[C@@H](CBr)C(=O)Nc1cccc(N2C(=O)CNC2=O)c1F

>  <gnina_score>  (443) 
5.412

>  <inspiration_score>  (443) 
None

>  <energy_score>  (443) 
-31.260567

>  <distance_score>  (443) 
1.599798

>  <gnina_score_min>  (443) 
5.431

>  <inchikey>  (443) 
VMTNQUNFKQCSCD-ZETCQYMHSA-N

>  <exports>  (443) 
['/opt/xchem-fragalysis-2/maxwin/BulkDock/OUTPUTS/openbind_a71ev2a_c2_elabs_1LOUU54.sdf', '/opt/xchem-fragalysis-2/maxwin/BulkDock/OUTPUTS/openbind_a71ev2a_c2_elabs_1LSYIDY.sdf']

>  <name>  (443) 
P545652

>  <ref_pdb>  (443) 
A0884a

>  <subsites>  (443) 
None

>  <HIPPO Pose ID>  (443) 
545652

>  <ref_mols>  (443) 
A0884a

>  <HIPPO Compound ID>  (443) 
384153

>  <tags>  (443) 
openbind_a71ev2a_c2_elabs,syndirella_product,openbind_a71ev2a_c2_elabs_fragonly_scored_top80percent,openbind_a71ev2a_c2_elabs_scored,BulkDock Fragalysis export,openbind_a71ev2a_c2_elabs_scored_top80percent,openbind_a71ev2a_c2_elabs_activefrags_only_scored_5.2plus,syndirella_placed

>  <smina_score_min>  (443) 
-6.548

$$$$
P545654
     RDKit          3D

 21 22  0  0  0  0  0  0  0  0999 V2000
    9.9008   10.1514   23.1418 C   0  0  0  0  0  0  0  0  0  0  0  0
    9.0749   11.1153   23.9359 C   0  0  0  0  0  0  0  0  0  0  0  0
    8.0281   10.5810   24.6967 C   0  0  0  0  0  0  0  0  0  0  0  0
    7.1828   11.4029   25.4379 C   0  0  0  0  0  0  0  0  0  0  0  0
    7.3725   12.7793   25.4289 C   0  0  0  0  0  0  0  0  0  0  0  0
    6.5302   13.6383   26.1295 N   0  0  0  0  0  0  0  0  0  0  0  0
    5.2913   13.3314   27.0325 C   0  0  0  0  0  0  0  0  0  0  0  0
    4.8431   12.3075   27.3829 O   0  0  0  0  0  0  0  0  0  0  0  0
    4.7402   14.6969   27.4858 C   0  0  2  0  0  0  0  0  0  0  0  0
    5.7285   15.3476   28.4596 C   0  0  0  0  0  0  0  0  0  0  0  0
    3.3893   14.5412   28.1808 C   0  0  0  0  0  0  0  0  0  0  0  0
    1.9661   14.2205   26.8849 Br  0  0  0  0  0  0  0  0  0  0  0  0
    8.4500   13.3229   24.7262 C   0  0  0  0  0  0  0  0  0  0  0  0
    9.3289   12.4972   24.0092 C   0  0  0  0  0  0  0  0  0  0  0  0
   10.5032   13.0427   23.4415 N   0  0  0  0  0  0  0  0  0  0  0  0
   11.3916   13.7933   24.1668 C   0  0  0  0  0  0  0  0  0  0  0  0
   11.4182   13.9838   25.3773 O   0  0  0  0  0  0  0  0  0  0  0  0
   12.3395   14.4781   23.2065 C   0  0  0  0  0  0  0  0  0  0  0  0
   11.7317   14.1862   21.9658 N   0  0  0  0  0  0  0  0  0  0  0  0
   10.5047   13.6216   22.2077 C   0  0  0  0  0  0  0  0  0  0  0  0
    9.5639   13.8297   21.4639 O   0  0  0  0  0  0  0  0  0  0  0  0
  1  2  1  0
  2  3  2  0
  3  4  1  0
  4  5  2  0
  5  6  1  0
  6  7  1  0
  7  8  2  0
  7  9  1  0
  9 10  1  1
  9 11  1  0
 11 12  1  0
  5 13  1  0
 13 14  2  0
 14 15  1  0
 15 16  1  0
 16 17  2  0
 16 18  1  0
 18 19  1  0
 19 20  1  0
 20 21  2  0
 14  2  1  0
 20 15  1  0
M  END
>  <alias>  (444) 
None

>  <rmsd(smina/fragmenstein)>  (444) 
1.279

>  <smiles>  (444) 
Cc1ccc(NC(=O)[C@H](C)CBr)cc1N1C(=O)CNC1=O

>  <gnina_score>  (444) 
5.381

>  <inspiration_score>  (444) 
None

>  <energy_score>  (444) 
-29.428562

>  <distance_score>  (444) 
1.739909

>  <gnina_score_min>  (444) 
5.319

>  <inchikey>  (444) 
BENCURPOEWVWIE-SECBINFHSA-N

>  <exports>  (444) 
['/opt/xchem-fragalysis-2/maxwin/BulkDock/OUTPUTS/openbind_a71ev2a_c2_elabs_1LOUU54.sdf', '/opt/xchem-fragalysis-2/maxwin/BulkDock/OUTPUTS/openbind_a71ev2a_c2_elabs_1LSYIDY.sdf']

>  <name>  (444) 
P545654

>  <ref_pdb>  (444) 
A0884a

>  <subsites>  (444) 
None

>  <HIPPO Pose ID>  (444) 
545654

>  <ref_mols>  (444) 
A0884a

>  <HIPPO Compound ID>  (444) 
384156

>  <tags>  (444) 
openbind_a71ev2a_c2_elabs,syndirella_product,openbind_a71ev2a_c2_elabs_fragonly_scored_top80percent,openbind_a71ev2a_c2_elabs_scored,BulkDock Fragalysis export,openbind_a71ev2a_c2_elabs_scored_top80percent,openbind_a71ev2a_c2_elabs_activefrags_only_scored_5.2plus,syndirella_placed

>  <smina_score_min>  (444) 
-6.519

$$$$
P545658
     RDKit          3D

 21 22  0  0  0  0  0  0  0  0999 V2000
    3.2928   14.5585   29.0048 C   0  0  0  0  0  0  0  0  0  0  0  0
    3.3750   13.7271   27.9578 C   0  0  0  0  0  0  0  0  0  0  0  0
    4.2630   13.9488   26.7657 C   0  0  0  0  0  0  0  0  0  0  0  0
    5.2049   12.7546   26.5152 C   0  0  0  0  0  0  0  0  0  0  0  0
    5.0539   11.6891   26.9773 O   0  0  0  0  0  0  0  0  0  0  0  0
    6.3027   13.2883   25.5393 N   0  0  0  0  0  0  0  0  0  0  0  0
    7.3361   12.6193   24.8892 C   0  0  0  0  0  0  0  0  0  0  0  0
    7.5414   11.2516   25.0369 C   0  0  0  0  0  0  0  0  0  0  0  0
    8.5920   10.6463   24.3557 C   0  0  0  0  0  0  0  0  0  0  0  0
    8.7347    9.3191   24.4305 F   0  0  0  0  0  0  0  0  0  0  0  0
    9.4797   11.3859   23.5842 C   0  0  0  0  0  0  0  0  0  0  0  0
    9.2778   12.7583   23.4369 C   0  0  0  0  0  0  0  0  0  0  0  0
   10.1723   13.5225   22.6413 N   0  0  0  0  0  0  0  0  0  0  0  0
    9.6228   14.4781   21.6885 C   0  0  0  0  0  0  0  0  0  0  0  0
   10.5956   14.9117   20.6135 C   0  0  0  0  0  0  0  0  0  0  0  0
   12.0074   14.5772   20.9746 C   0  0  0  0  0  0  0  0  0  0  0  0
   12.8697   14.3839   20.1221 O   0  0  0  0  0  0  0  0  0  0  0  0
   12.2617   14.5082   22.3108 N   0  0  0  0  0  0  0  0  0  0  0  0
   11.4714   13.7241   23.1061 C   0  0  0  0  0  0  0  0  0  0  0  0
   11.9244   13.2389   24.1419 O   0  0  0  0  0  0  0  0  0  0  0  0
    8.1844   13.3642   24.0650 C   0  0  0  0  0  0  0  0  0  0  0  0
  1  2  2  0
  2  3  1  0
  3  4  1  0
  4  5  2  0
  4  6  1  0
  6  7  1  0
  7  8  2  0
  8  9  1  0
  9 10  1  0
  9 11  2  0
 11 12  1  0
 12 13  1  0
 13 14  1  0
 14 15  1  0
 15 16  1  0
 16 17  2  0
 16 18  1  0
 18 19  1  0
 19 20  2  0
 12 21  2  0
 21  7  1  0
 19 13  1  0
M  END
>  <alias>  (445) 
None

>  <rmsd(smina/fragmenstein)>  (445) 
1.259

>  <smiles>  (445) 
C=CCC(=O)Nc1cc(F)cc(N2CCC(=O)NC2=O)c1

>  <gnina_score>  (445) 
5.229

>  <inspiration_score>  (445) 
None

>  <energy_score>  (445) 
-13.574526

>  <distance_score>  (445) 
1.260076

>  <gnina_score_min>  (445) 
5.333

>  <inchikey>  (445) 
TZUZIWIEQFGJST-UHFFFAOYSA-N

>  <exports>  (445) 
['/opt/xchem-fragalysis-2/maxwin/BulkDock/OUTPUTS/openbind_a71ev2a_c2_elabs_1LOUU54.sdf', '/opt/xchem-fragalysis-2/maxwin/BulkDock/OUTPUTS/openbind_a71ev2a_c2_elabs_1LSYIDY.sdf']

>  <name>  (445) 
P545658

>  <ref_pdb>  (445) 
A0884a

>  <subsites>  (445) 
None

>  <HIPPO Pose ID>  (445) 
545658

>  <ref_mols>  (445) 
A0884a

>  <HIPPO Compound ID>  (445) 
384160

>  <tags>  (445) 
openbind_a71ev2a_c2_elabs,syndirella_product,openbind_a71ev2a_c2_elabs_fragonly_scored_top80percent,openbind_a71ev2a_c2_elabs_scored,BulkDock Fragalysis export,openbind_a71ev2a_c2_elabs_scored_top80percent,openbind_a71ev2a_c2_elabs_activefrags_only_scored_5.2plus,syndirella_placed

>  <smina_score_min>  (445) 
-6.802

$$$$
P545668
     RDKit          3D

 21 22  0  0  0  0  0  0  0  0999 V2000
    5.9807   14.7583   28.7042 C   0  0  0  0  0  0  0  0  0  0  0  0
    4.8673   14.8970   27.9717 C   0  0  0  0  0  0  0  0  0  0  0  0
    4.2950   13.9181   26.9837 C   0  0  0  0  0  0  0  0  0  0  0  0
    5.1912   12.7194   26.6361 C   0  0  0  0  0  0  0  0  0  0  0  0
    5.0114   11.6399   27.0533 O   0  0  0  0  0  0  0  0  0  0  0  0
    6.2980   13.2620   25.6778 N   0  0  0  0  0  0  0  0  0  0  0  0
    7.3076   12.5925   24.9935 C   0  0  0  0  0  0  0  0  0  0  0  0
    7.5002   11.2162   25.1212 C   0  0  0  0  0  0  0  0  0  0  0  0
    8.5353   10.5957   24.4234 C   0  0  0  0  0  0  0  0  0  0  0  0
    9.3969   11.3585   23.6449 C   0  0  0  0  0  0  0  0  0  0  0  0
   10.3568   10.7295   22.9624 F   0  0  0  0  0  0  0  0  0  0  0  0
    9.2211   12.7382   23.5093 C   0  0  0  0  0  0  0  0  0  0  0  0
   10.1174   13.5040   22.7127 N   0  0  0  0  0  0  0  0  0  0  0  0
    9.5697   14.4432   21.7479 C   0  0  0  0  0  0  0  0  0  0  0  0
   10.5531   14.9027   20.6932 C   0  0  0  0  0  0  0  0  0  0  0  0
   11.9666   14.5629   21.0457 C   0  0  0  0  0  0  0  0  0  0  0  0
   12.8327   14.4157   20.1871 O   0  0  0  0  0  0  0  0  0  0  0  0
   12.2220   14.4559   22.3790 N   0  0  0  0  0  0  0  0  0  0  0  0
   11.4137   13.6978   23.1814 C   0  0  0  0  0  0  0  0  0  0  0  0
   11.8482   13.2417   24.2380 O   0  0  0  0  0  0  0  0  0  0  0  0
    8.1498   13.3464   24.1682 C   0  0  0  0  0  0  0  0  0  0  0  0
  1  2  2  0
  2  3  1  0
  3  4  1  0
  4  5  2  0
  4  6  1  0
  6  7  1  0
  7  8  2  0
  8  9  1  0
  9 10  2  0
 10 11  1  0
 10 12  1  0
 12 13  1  0
 13 14  1  0
 14 15  1  0
 15 16  1  0
 16 17  2  0
 16 18  1  0
 18 19  1  0
 19 20  2  0
 12 21  2  0
 21  7  1  0
 19 13  1  0
M  END
>  <alias>  (446) 
None

>  <rmsd(smina/fragmenstein)>  (446) 
0.708

>  <smiles>  (446) 
C=CCC(=O)Nc1ccc(F)c(N2CCC(=O)NC2=O)c1

>  <gnina_score>  (446) 
5.336

>  <inspiration_score>  (446) 
None

>  <energy_score>  (446) 
-16.367943

>  <distance_score>  (446) 
1.242539

>  <gnina_score_min>  (446) 
5.277

>  <inchikey>  (446) 
UPGAJHZRFVBONC-UHFFFAOYSA-N

>  <exports>  (446) 
['/opt/xchem-fragalysis-2/maxwin/BulkDock/OUTPUTS/openbind_a71ev2a_c2_elabs_1LOUU54.sdf', '/opt/xchem-fragalysis-2/maxwin/BulkDock/OUTPUTS/openbind_a71ev2a_c2_elabs_1LSYIDY.sdf']

>  <name>  (446) 
P545668

>  <ref_pdb>  (446) 
A0884a

>  <subsites>  (446) 
None

>  <HIPPO Pose ID>  (446) 
545668

>  <ref_mols>  (446) 
A0884a

>  <HIPPO Compound ID>  (446) 
384178

>  <tags>  (446) 
openbind_a71ev2a_c2_elabs,syndirella_product,openbind_a71ev2a_c2_elabs_fragonly_scored_top80percent,openbind_a71ev2a_c2_elabs_scored,BulkDock Fragalysis export,openbind_a71ev2a_c2_elabs_scored_top80percent,openbind_a71ev2a_c2_elabs_activefrags_only_scored_5.2plus,syndirella_placed

>  <smina_score_min>  (446) 
-6.542

$$$$
P545669
     RDKit          3D

 21 22  0  0  0  0  0  0  0  0999 V2000
    5.2381   14.7787   28.6843 C   0  0  0  0  0  0  0  0  0  0  0  0
    5.2303   13.4401   28.7334 C   0  0  0  0  0  0  0  0  0  0  0  0
    4.6063   12.5592   27.6916 C   0  0  0  0  0  0  0  0  0  0  0  0
    5.6687   11.6620   27.0499 C   0  0  0  0  0  0  0  0  0  0  0  0
    5.8244   10.5403   27.3445 O   0  0  0  0  0  0  0  0  0  0  0  0
    6.4338   12.5523   26.0238 N   0  0  0  0  0  0  0  0  0  0  0  0
    7.4475   12.2258   25.1167 C   0  0  0  0  0  0  0  0  0  0  0  0
    7.8319   10.8925   24.9533 C   0  0  0  0  0  0  0  0  0  0  0  0
    8.8841   10.5587   24.1063 C   0  0  0  0  0  0  0  0  0  0  0  0
    9.5911   11.5656   23.4596 C   0  0  0  0  0  0  0  0  0  0  0  0
    9.2241   12.9122   23.6078 C   0  0  0  0  0  0  0  0  0  0  0  0
   10.0318   13.9153   22.9727 N   0  0  0  0  0  0  0  0  0  0  0  0
    9.5837   14.3343   21.6408 C   0  0  0  0  0  0  0  0  0  0  0  0
   10.5177   15.2674   20.9166 C   0  0  0  0  0  0  0  0  0  0  0  0
   11.9040   14.7440   21.1039 C   0  0  0  0  0  0  0  0  0  0  0  0
   12.6833   14.5169   20.1848 O   0  0  0  0  0  0  0  0  0  0  0  0
   12.2322   14.5418   22.4142 N   0  0  0  0  0  0  0  0  0  0  0  0
   11.3829   13.9572   23.3121 C   0  0  0  0  0  0  0  0  0  0  0  0
   11.8418   13.4995   24.3600 O   0  0  0  0  0  0  0  0  0  0  0  0
    8.0991   13.2510   24.3903 C   0  0  0  0  0  0  0  0  0  0  0  0
    7.6638   14.6846   24.5420 C   0  0  0  0  0  0  0  0  0  0  0  0
  1  2  2  0
  2  3  1  0
  3  4  1  0
  4  5  2  0
  4  6  1  0
  6  7  1  0
  7  8  2  0
  8  9  1  0
  9 10  2  0
 10 11  1  0
 11 12  1  0
 12 13  1  0
 13 14  1  0
 14 15  1  0
 15 16  2  0
 15 17  1  0
 17 18  1  0
 18 19  2  0
 11 20  2  0
 20 21  1  0
 20  7  1  0
 18 12  1  0
M  END
>  <alias>  (447) 
None

>  <rmsd(smina/fragmenstein)>  (447) 
0.857

>  <smiles>  (447) 
C=CCC(=O)Nc1cccc(N2CCC(=O)NC2=O)c1C

>  <gnina_score>  (447) 
5.195

>  <inspiration_score>  (447) 
None

>  <energy_score>  (447) 
-24.781324

>  <distance_score>  (447) 
1.18332

>  <gnina_score_min>  (447) 
5.242

>  <inchikey>  (447) 
MVSUMPMXPAECRI-UHFFFAOYSA-N

>  <exports>  (447) 
['/opt/xchem-fragalysis-2/maxwin/BulkDock/OUTPUTS/openbind_a71ev2a_c2_elabs_1LOUU54.sdf', '/opt/xchem-fragalysis-2/maxwin/BulkDock/OUTPUTS/openbind_a71ev2a_c2_elabs_1LSYIDY.sdf']

>  <name>  (447) 
P545669

>  <ref_pdb>  (447) 
A0884a

>  <subsites>  (447) 
None

>  <HIPPO Pose ID>  (447) 
545669

>  <ref_mols>  (447) 
A0884a

>  <HIPPO Compound ID>  (447) 
384179

>  <tags>  (447) 
openbind_a71ev2a_c2_elabs,syndirella_product,openbind_a71ev2a_c2_elabs_fragonly_scored_top80percent,openbind_a71ev2a_c2_elabs_scored,BulkDock Fragalysis export,openbind_a71ev2a_c2_elabs_scored_top80percent,openbind_a71ev2a_c2_elabs_activefrags_only_scored_5.2plus,syndirella_placed

>  <smina_score_min>  (447) 
-6.928

$$$$
P545670
     RDKit          3D

 21 22  0  0  0  0  0  0  0  0999 V2000
    1.8968   13.0957   27.5683 C   0  0  0  0  0  0  0  0  0  0  0  0
    3.2016   13.0086   27.8602 C   0  0  0  0  0  0  0  0  0  0  0  0
    4.3033   13.5763   27.0078 C   0  0  0  0  0  0  0  0  0  0  0  0
    5.3513   12.5180   26.6124 C   0  0  0  0  0  0  0  0  0  0  0  0
    5.3571   11.4135   27.0026 O   0  0  0  0  0  0  0  0  0  0  0  0
    6.3404   13.2587   25.6537 N   0  0  0  0  0  0  0  0  0  0  0  0
    7.4337   12.7800   24.9394 C   0  0  0  0  0  0  0  0  0  0  0  0
    7.7283   11.4187   24.8697 C   0  0  0  0  0  0  0  0  0  0  0  0
    8.8236   10.9799   24.1160 C   0  0  0  0  0  0  0  0  0  0  0  0
    9.1091    9.5434   23.8883 C   0  0  0  0  0  0  0  0  0  0  0  0
    9.6488   11.9012   23.4892 C   0  0  0  0  0  0  0  0  0  0  0  0
    9.3619   13.2567   23.5709 C   0  0  0  0  0  0  0  0  0  0  0  0
   10.1883   14.1726   22.8784 N   0  0  0  0  0  0  0  0  0  0  0  0
    9.6677   14.5752   21.5719 C   0  0  0  0  0  0  0  0  0  0  0  0
   10.6352   15.3602   20.7332 C   0  0  0  0  0  0  0  0  0  0  0  0
   11.9979   14.7662   20.9073 C   0  0  0  0  0  0  0  0  0  0  0  0
   12.7110   14.4041   19.9770 O   0  0  0  0  0  0  0  0  0  0  0  0
   12.3789   14.6817   22.2146 N   0  0  0  0  0  0  0  0  0  0  0  0
   11.5502   14.1474   23.1562 C   0  0  0  0  0  0  0  0  0  0  0  0
   12.0268   13.6570   24.1811 O   0  0  0  0  0  0  0  0  0  0  0  0
    8.2354   13.6984   24.2611 C   0  0  0  0  0  0  0  0  0  0  0  0
  1  2  2  0
  2  3  1  0
  3  4  1  0
  4  5  2  0
  4  6  1  0
  6  7  1  0
  7  8  2  0
  8  9  1  0
  9 10  1  0
  9 11  2  0
 11 12  1  0
 12 13  1  0
 13 14  1  0
 14 15  1  0
 15 16  1  0
 16 17  2  0
 16 18  1  0
 18 19  1  0
 19 20  2  0
 12 21  2  0
 21  7  1  0
 19 13  1  0
M  END
>  <alias>  (448) 
None

>  <rmsd(smina/fragmenstein)>  (448) 
0.873

>  <smiles>  (448) 
C=CCC(=O)Nc1cc(C)cc(N2CCC(=O)NC2=O)c1

>  <gnina_score>  (448) 
5.435

>  <inspiration_score>  (448) 
None

>  <energy_score>  (448) 
-30.933916

>  <distance_score>  (448) 
1.334867

>  <gnina_score_min>  (448) 
5.444

>  <inchikey>  (448) 
NNHQZFJRFNPICR-UHFFFAOYSA-N

>  <exports>  (448) 
['/opt/xchem-fragalysis-2/maxwin/BulkDock/OUTPUTS/openbind_a71ev2a_c2_elabs_1LOUU54.sdf', '/opt/xchem-fragalysis-2/maxwin/BulkDock/OUTPUTS/openbind_a71ev2a_c2_elabs_1LSYIDY.sdf']

>  <name>  (448) 
P545670

>  <ref_pdb>  (448) 
A0884a

>  <subsites>  (448) 
None

>  <HIPPO Pose ID>  (448) 
545670

>  <ref_mols>  (448) 
A0884a

>  <HIPPO Compound ID>  (448) 
384181

>  <tags>  (448) 
openbind_a71ev2a_c2_elabs,syndirella_product,openbind_a71ev2a_c2_elabs_fragonly_scored_top80percent,openbind_a71ev2a_c2_elabs_scored,BulkDock Fragalysis export,openbind_a71ev2a_c2_elabs_scored_top80percent,openbind_a71ev2a_c2_elabs_activefrags_only_scored_5.2plus,syndirella_placed

>  <smina_score_min>  (448) 
-6.523

$$$$
P545671
     RDKit          3D

 21 22  0  0  0  0  0  0  0  0999 V2000
    3.1991   14.1397   25.6941 C   0  0  0  0  0  0  0  0  0  0  0  0
    3.4073   13.7464   26.9578 C   0  0  0  0  0  0  0  0  0  0  0  0
    4.7239   13.3956   27.5915 C   0  0  0  0  0  0  0  0  0  0  0  0
    5.9752   13.7375   26.7616 C   0  0  0  0  0  0  0  0  0  0  0  0
    6.3656   14.8347   26.6359 O   0  0  0  0  0  0  0  0  0  0  0  0
    6.5558   12.3861   26.2226 N   0  0  0  0  0  0  0  0  0  0  0  0
    7.6481   12.1359   25.3665 C   0  0  0  0  0  0  0  0  0  0  0  0
    7.7212   10.7955   24.9488 C   0  0  0  0  0  0  0  0  0  0  0  0
    8.6749   10.3691   24.0321 C   0  0  0  0  0  0  0  0  0  0  0  0
    9.5662   11.2827   23.5105 C   0  0  0  0  0  0  0  0  0  0  0  0
   10.3992   10.8744   22.5536 F   0  0  0  0  0  0  0  0  0  0  0  0
    9.5954   12.5999   23.9591 C   0  0  0  0  0  0  0  0  0  0  0  0
   10.5937   13.4632   23.4563 N   0  0  0  0  0  0  0  0  0  0  0  0
   10.5255   14.0628   22.2310 C   0  0  0  0  0  0  0  0  0  0  0  0
    9.5583   14.1186   21.4895 O   0  0  0  0  0  0  0  0  0  0  0  0
   11.8618   14.6805   21.9004 C   0  0  0  0  0  0  0  0  0  0  0  0
   12.6227   14.2863   23.0340 N   0  0  0  0  0  0  0  0  0  0  0  0
   11.8949   13.4791   23.8728 C   0  0  0  0  0  0  0  0  0  0  0  0
   12.4012   12.9042   24.8201 O   0  0  0  0  0  0  0  0  0  0  0  0
    8.6436   13.0357   24.9240 C   0  0  0  0  0  0  0  0  0  0  0  0
    8.7816   14.4207   25.4796 C   0  0  0  0  0  0  0  0  0  0  0  0
  1  2  2  0
  2  3  1  0
  3  4  1  0
  4  5  2  0
  4  6  1  0
  6  7  1  0
  7  8  2  0
  8  9  1  0
  9 10  2  0
 10 11  1  0
 10 12  1  0
 12 13  1  0
 13 14  1  0
 14 15  2  0
 14 16  1  0
 16 17  1  0
 17 18  1  0
 18 19  2  0
 12 20  2  0
 20 21  1  0
 20  7  1  0
 18 13  1  0
M  END
>  <alias>  (449) 
None

>  <rmsd(smina/fragmenstein)>  (449) 
0.952

>  <smiles>  (449) 
C=CCC(=O)Nc1ccc(F)c(N2C(=O)CNC2=O)c1C

>  <gnina_score>  (449) 
5.206

>  <inspiration_score>  (449) 
None

>  <energy_score>  (449) 
-22.438636

>  <distance_score>  (449) 
1.600571

>  <gnina_score_min>  (449) 
5.2

>  <inchikey>  (449) 
WKITVBZEZBMZEC-UHFFFAOYSA-N

>  <exports>  (449) 
['/opt/xchem-fragalysis-2/maxwin/BulkDock/OUTPUTS/openbind_a71ev2a_c2_elabs_1LOUU54.sdf', '/opt/xchem-fragalysis-2/maxwin/BulkDock/OUTPUTS/openbind_a71ev2a_c2_elabs_1LSYIDY.sdf']

>  <name>  (449) 
P545671

>  <ref_pdb>  (449) 
A0884a

>  <subsites>  (449) 
None

>  <HIPPO Pose ID>  (449) 
545671

>  <ref_mols>  (449) 
A0884a

>  <HIPPO Compound ID>  (449) 
384182

>  <tags>  (449) 
openbind_a71ev2a_c2_elabs,syndirella_product,openbind_a71ev2a_c2_elabs_fragonly_scored_top80percent,openbind_a71ev2a_c2_elabs_scored,BulkDock Fragalysis export,openbind_a71ev2a_c2_elabs_scored_top80percent,openbind_a71ev2a_c2_elabs_activefrags_only_scored_5.2plus,syndirella_placed

>  <smina_score_min>  (449) 
-6.269

$$$$
P545672
     RDKit          3D

 21 22  0  0  0  0  0  0  0  0999 V2000
    7.7261   14.5239   24.2952 C   0  0  0  0  0  0  0  0  0  0  0  0
    8.1519   13.0808   24.2423 C   0  0  0  0  0  0  0  0  0  0  0  0
    7.4603   12.1290   25.0289 C   0  0  0  0  0  0  0  0  0  0  0  0
    6.4306   12.5468   25.8809 N   0  0  0  0  0  0  0  0  0  0  0  0
    5.6084   11.7599   26.9151 C   0  0  0  0  0  0  0  0  0  0  0  0
    5.7075   10.6580   27.2783 O   0  0  0  0  0  0  0  0  0  0  0  0
    4.5675   12.5837   27.4913 C   0  0  0  0  0  0  0  0  0  0  0  0
    3.6961   13.2599   27.9642 C   0  0  0  0  0  0  0  0  0  0  0  0
    2.3038   14.3299   28.7084 Br  0  0  0  0  0  0  0  0  0  0  0  0
    7.8169   10.7814   24.9743 C   0  0  0  0  0  0  0  0  0  0  0  0
    8.8683   10.3625   24.1664 C   0  0  0  0  0  0  0  0  0  0  0  0
    9.6103   11.2965   23.4582 C   0  0  0  0  0  0  0  0  0  0  0  0
    9.2784   12.6564   23.4975 C   0  0  0  0  0  0  0  0  0  0  0  0
   10.1279   13.5562   22.7779 N   0  0  0  0  0  0  0  0  0  0  0  0
    9.6206   14.1956   21.6429 C   0  0  0  0  0  0  0  0  0  0  0  0
    8.4610   14.0602   21.2361 O   0  0  0  0  0  0  0  0  0  0  0  0
   10.5510   15.1474   20.9318 C   0  0  0  0  0  0  0  0  0  0  0  0
   11.9840   14.7364   21.1335 C   0  0  0  0  0  0  0  0  0  0  0  0
   12.2446   14.5281   22.5224 N   0  0  0  0  0  0  0  0  0  0  0  0
   11.4186   13.7471   23.2653 C   0  0  0  0  0  0  0  0  0  0  0  0
   11.8580   13.3210   24.3289 O   0  0  0  0  0  0  0  0  0  0  0  0
  1  2  1  0
  2  3  2  0
  3  4  1  0
  4  5  1  0
  5  6  2  0
  5  7  1  0
  7  8  3  0
  8  9  1  0
  3 10  1  0
 10 11  2  0
 11 12  1  0
 12 13  2  0
 13 14  1  0
 14 15  1  0
 15 16  2  0
 15 17  1  0
 17 18  1  0
 18 19  1  0
 19 20  1  0
 20 21  2  0
 13  2  1  0
 20 14  1  0
M  END
>  <alias>  (450) 
None

>  <rmsd(smina/fragmenstein)>  (450) 
0.416

>  <smiles>  (450) 
Cc1c(NC(=O)C#CBr)cccc1N1C(=O)CCNC1=O

>  <gnina_score>  (450) 
5.308

>  <inspiration_score>  (450) 
None

>  <energy_score>  (450) 
-26.939496

>  <distance_score>  (450) 
1.335363

>  <gnina_score_min>  (450) 
5.24

>  <inchikey>  (450) 
UOPCIRQQSVPVOU-UHFFFAOYSA-N

>  <exports>  (450) 
['/opt/xchem-fragalysis-2/maxwin/BulkDock/OUTPUTS/openbind_a71ev2a_c2_elabs_1LOUU54.sdf', '/opt/xchem-fragalysis-2/maxwin/BulkDock/OUTPUTS/openbind_a71ev2a_c2_elabs_1LSYIDY.sdf']

>  <name>  (450) 
P545672

>  <ref_pdb>  (450) 
A0884a

>  <subsites>  (450) 
None

>  <HIPPO Pose ID>  (450) 
545672

>  <ref_mols>  (450) 
A0884a

>  <HIPPO Compound ID>  (450) 
384184

>  <tags>  (450) 
openbind_a71ev2a_c2_elabs,syndirella_product,openbind_a71ev2a_c2_elabs_fragonly_scored_top80percent,openbind_a71ev2a_c2_elabs_scored,BulkDock Fragalysis export,openbind_a71ev2a_c2_elabs_scored_top80percent,openbind_a71ev2a_c2_elabs_activefrags_only_scored_5.2plus,syndirella_placed

>  <smina_score_min>  (450) 
-7.123

$$$$
P545673
     RDKit          3D

 21 22  0  0  0  0  0  0  0  0999 V2000
    6.0926   14.6250   26.1636 O   0  0  0  0  0  0  0  0  0  0  0  0
    5.8716   13.4935   26.3197 C   0  0  0  0  0  0  0  0  0  0  0  0
    4.7659   13.1106   27.1721 C   0  0  0  0  0  0  0  0  0  0  0  0
    3.8437   12.7790   27.8649 C   0  0  0  0  0  0  0  0  0  0  0  0
    2.3709   12.2196   28.9399 Br  0  0  0  0  0  0  0  0  0  0  0  0
    6.5568   12.2518   25.7235 N   0  0  0  0  0  0  0  0  0  0  0  0
    7.6812   12.1425   24.9109 C   0  0  0  0  0  0  0  0  0  0  0  0
    8.1442   10.8576   24.6063 C   0  0  0  0  0  0  0  0  0  0  0  0
    9.2482   10.7168   23.7772 C   0  0  0  0  0  0  0  0  0  0  0  0
    9.9489    9.0739   23.2508 Br  0  0  0  0  0  0  0  0  0  0  0  0
    9.8981   11.8206   23.2750 C   0  0  0  0  0  0  0  0  0  0  0  0
    9.4533   13.0957   23.5857 C   0  0  0  0  0  0  0  0  0  0  0  0
   10.1490   14.1841   22.9958 N   0  0  0  0  0  0  0  0  0  0  0  0
    9.6073   14.5851   21.6921 C   0  0  0  0  0  0  0  0  0  0  0  0
   10.5458   15.3893   20.8343 C   0  0  0  0  0  0  0  0  0  0  0  0
   11.9242   14.8339   21.0053 C   0  0  0  0  0  0  0  0  0  0  0  0
   12.6334   14.4628   20.0765 O   0  0  0  0  0  0  0  0  0  0  0  0
   12.3198   14.7898   22.3094 N   0  0  0  0  0  0  0  0  0  0  0  0
   11.5185   14.2368   23.2628 C   0  0  0  0  0  0  0  0  0  0  0  0
   12.0200   13.7580   24.2820 O   0  0  0  0  0  0  0  0  0  0  0  0
    8.3307   13.2690   24.3906 C   0  0  0  0  0  0  0  0  0  0  0  0
  1  2  2  0
  2  3  1  0
  3  4  3  0
  4  5  1  0
  2  6  1  0
  6  7  1  0
  7  8  2  0
  8  9  1  0
  9 10  1  0
  9 11  2  0
 11 12  1  0
 12 13  1  0
 13 14  1  0
 14 15  1  0
 15 16  1  0
 16 17  2  0
 16 18  1  0
 18 19  1  0
 19 20  2  0
 12 21  2  0
 21  7  1  0
 19 13  1  0
M  END
>  <alias>  (451) 
None

>  <rmsd(smina/fragmenstein)>  (451) 
0.416

>  <smiles>  (451) 
O=C(C#CBr)Nc1cc(Br)cc(N2CCC(=O)NC2=O)c1

>  <gnina_score>  (451) 
5.553

>  <inspiration_score>  (451) 
None

>  <energy_score>  (451) 
-21.479415

>  <distance_score>  (451) 
1.218175

>  <gnina_score_min>  (451) 
5.579

>  <inchikey>  (451) 
MVYJAKJEYVIOJM-UHFFFAOYSA-N

>  <exports>  (451) 
['/opt/xchem-fragalysis-2/maxwin/BulkDock/OUTPUTS/openbind_a71ev2a_c2_elabs_1LOUU54.sdf', '/opt/xchem-fragalysis-2/maxwin/BulkDock/OUTPUTS/openbind_a71ev2a_c2_elabs_1LSYIDY.sdf']

>  <name>  (451) 
P545673

>  <ref_pdb>  (451) 
A0884a

>  <subsites>  (451) 
None

>  <HIPPO Pose ID>  (451) 
545673

>  <ref_mols>  (451) 
A0884a

>  <HIPPO Compound ID>  (451) 
384185

>  <tags>  (451) 
openbind_a71ev2a_c2_elabs,syndirella_product,openbind_a71ev2a_c2_elabs_fragonly_scored_top80percent,BulkDock Fragalysis export,openbind_a71ev2a_c2_elabs_scored,openbind_a71ev2a_c2_elabs_scored_top80percent,openbind_a71ev2a_c2_elabs_activefrags_only_scored_5.2plus,openbind_a71ev2a_c2_elabs_activefrags_only_scored_5.5plus,syndirella_placed

>  <smina_score_min>  (451) 
-6.484

$$$$
P545680
     RDKit          3D

 21 22  0  0  0  0  0  0  0  0999 V2000
    2.2154   13.4187   29.2965 C   0  0  0  0  0  0  0  0  0  0  0  0
    2.9198   12.4235   28.3877 C   0  0  0  0  0  0  0  0  0  0  0  0
    4.3930   12.7705   28.2097 C   0  0  2  0  0  0  0  0  0  0  0  0
    4.4854   14.0042   27.6246 F   0  0  0  0  0  0  0  0  0  0  0  0
    5.1261   11.7012   27.3850 C   0  0  0  0  0  0  0  0  0  0  0  0
    4.9927   10.5493   27.5393 O   0  0  0  0  0  0  0  0  0  0  0  0
    6.0517   12.4885   26.4097 N   0  0  0  0  0  0  0  0  0  0  0  0
    7.0292   12.0362   25.5305 C   0  0  0  0  0  0  0  0  0  0  0  0
    7.2493   10.6923   25.2676 C   0  0  0  0  0  0  0  0  0  0  0  0
    8.2962   10.3106   24.4229 C   0  0  0  0  0  0  0  0  0  0  0  0
    9.1778   11.2578   23.9214 C   0  0  0  0  0  0  0  0  0  0  0  0
   10.2555   10.8170   23.2681 F   0  0  0  0  0  0  0  0  0  0  0  0
    9.0318   12.5989   24.2719 C   0  0  0  0  0  0  0  0  0  0  0  0
   10.1342   13.4759   24.2464 N   0  0  0  0  0  0  0  0  0  0  0  0
   10.4228   14.2953   25.3124 C   0  0  0  0  0  0  0  0  0  0  0  0
    9.6951   14.7417   26.1941 O   0  0  0  0  0  0  0  0  0  0  0  0
   11.8794   14.6270   25.2742 C   0  0  0  0  0  0  0  0  0  0  0  0
   12.2779   14.0247   24.0537 N   0  0  0  0  0  0  0  0  0  0  0  0
   11.2195   13.4320   23.4189 C   0  0  0  0  0  0  0  0  0  0  0  0
   11.3142   13.0502   22.2722 O   0  0  0  0  0  0  0  0  0  0  0  0
    7.8813   12.9851   24.9753 C   0  0  0  0  0  0  0  0  0  0  0  0
  1  2  1  0
  2  3  1  0
  3  4  1  6
  3  5  1  0
  5  6  2  0
  5  7  1  0
  7  8  1  0
  8  9  2  0
  9 10  1  0
 10 11  2  0
 11 12  1  0
 11 13  1  0
 13 14  1  0
 14 15  1  0
 15 16  2  0
 15 17  1  0
 17 18  1  0
 18 19  1  0
 19 20  2  0
 13 21  2  0
 21  8  1  0
 19 14  1  0
M  END
>  <alias>  (452) 
None

>  <rmsd(smina/fragmenstein)>  (452) 
2.396

>  <smiles>  (452) 
CC[C@H](F)C(=O)Nc1ccc(F)c(N2C(=O)CNC2=O)c1

>  <gnina_score>  (452) 
4.936

>  <inspiration_score>  (452) 
None

>  <energy_score>  (452) 
-29.551751

>  <distance_score>  (452) 
1.424099

>  <gnina_score_min>  (452) 
5.26

>  <inchikey>  (452) 
DSSKTOMYOKCIML-QMMMGPOBSA-N

>  <exports>  (452) 
['/opt/xchem-fragalysis-2/maxwin/BulkDock/OUTPUTS/openbind_a71ev2a_c2_elabs_1LOUU54.sdf', '/opt/xchem-fragalysis-2/maxwin/BulkDock/OUTPUTS/openbind_a71ev2a_c2_elabs_1LSYIDY.sdf']

>  <name>  (452) 
P545680

>  <ref_pdb>  (452) 
A0884a

>  <subsites>  (452) 
None

>  <HIPPO Pose ID>  (452) 
545680

>  <ref_mols>  (452) 
A0884a

>  <HIPPO Compound ID>  (452) 
384191

>  <tags>  (452) 
openbind_a71ev2a_c2_elabs,syndirella_product,openbind_a71ev2a_c2_elabs_fragonly_scored_top80percent,openbind_a71ev2a_c2_elabs_scored,BulkDock Fragalysis export,openbind_a71ev2a_c2_elabs_scored_top80percent,openbind_a71ev2a_c2_elabs_activefrags_only_scored_5.2plus,syndirella_placed

>  <smina_score_min>  (452) 
-6.292

$$$$
P545681
     RDKit          3D

 21 22  0  0  0  0  0  0  0  0999 V2000
    8.1386   14.5551   24.6862 C   0  0  0  0  0  0  0  0  0  0  0  0
    8.2784   13.0623   24.6412 C   0  0  0  0  0  0  0  0  0  0  0  0
    7.3734   12.2315   25.3412 C   0  0  0  0  0  0  0  0  0  0  0  0
    6.3957   12.7955   26.1678 N   0  0  0  0  0  0  0  0  0  0  0  0
    5.3843   12.1300   27.1182 C   0  0  0  0  0  0  0  0  0  0  0  0
    5.1526   11.0040   27.3063 O   0  0  0  0  0  0  0  0  0  0  0  0
    4.6106   13.1213   27.8337 C   0  0  0  0  0  0  0  0  0  0  0  0
    3.9660   13.9418   28.4267 C   0  0  0  0  0  0  0  0  0  0  0  0
    2.9425   15.2475   29.3677 Br  0  0  0  0  0  0  0  0  0  0  0  0
    7.4649   10.8450   25.2138 C   0  0  0  0  0  0  0  0  0  0  0  0
    8.4320   10.2777   24.3904 C   0  0  0  0  0  0  0  0  0  0  0  0
    9.3455   11.0844   23.7399 C   0  0  0  0  0  0  0  0  0  0  0  0
   10.2881   10.5022   22.9934 F   0  0  0  0  0  0  0  0  0  0  0  0
    9.3225   12.4689   23.8964 C   0  0  0  0  0  0  0  0  0  0  0  0
   10.4233   13.1760   23.3767 N   0  0  0  0  0  0  0  0  0  0  0  0
   11.3344   13.8540   24.1350 C   0  0  0  0  0  0  0  0  0  0  0  0
   11.3867   13.9426   25.3553 O   0  0  0  0  0  0  0  0  0  0  0  0
   12.2804   14.5778   23.1986 C   0  0  0  0  0  0  0  0  0  0  0  0
   11.6594   14.3572   21.9481 N   0  0  0  0  0  0  0  0  0  0  0  0
   10.4535   13.7360   22.1386 C   0  0  0  0  0  0  0  0  0  0  0  0
    9.5398   13.8616   21.3464 O   0  0  0  0  0  0  0  0  0  0  0  0
  1  2  1  0
  2  3  2  0
  3  4  1  0
  4  5  1  0
  5  6  2  0
  5  7  1  0
  7  8  3  0
  8  9  1  0
  3 10  1  0
 10 11  2  0
 11 12  1  0
 12 13  1  0
 12 14  2  0
 14 15  1  0
 15 16  1  0
 16 17  2  0
 16 18  1  0
 18 19  1  0
 19 20  1  0
 20 21  2  0
 14  2  1  0
 20 15  1  0
M  END
>  <alias>  (453) 
None

>  <rmsd(smina/fragmenstein)>  (453) 
0.489

>  <smiles>  (453) 
Cc1c(NC(=O)C#CBr)ccc(F)c1N1C(=O)CNC1=O

>  <gnina_score>  (453) 
5.419

>  <inspiration_score>  (453) 
None

>  <energy_score>  (453) 
-27.530889

>  <distance_score>  (453) 
1.544055

>  <gnina_score_min>  (453) 
5.384

>  <inchikey>  (453) 
OXOGTPLJEAWFAV-UHFFFAOYSA-N

>  <exports>  (453) 
['/opt/xchem-fragalysis-2/maxwin/BulkDock/OUTPUTS/openbind_a71ev2a_c2_elabs_1LOUU54.sdf', '/opt/xchem-fragalysis-2/maxwin/BulkDock/OUTPUTS/openbind_a71ev2a_c2_elabs_1LSYIDY.sdf']

>  <name>  (453) 
P545681

>  <ref_pdb>  (453) 
A0884a

>  <subsites>  (453) 
None

>  <HIPPO Pose ID>  (453) 
545681

>  <ref_mols>  (453) 
A0884a

>  <HIPPO Compound ID>  (453) 
384194

>  <tags>  (453) 
openbind_a71ev2a_c2_elabs,syndirella_product,openbind_a71ev2a_c2_elabs_fragonly_scored_top80percent,openbind_a71ev2a_c2_elabs_scored,BulkDock Fragalysis export,openbind_a71ev2a_c2_elabs_scored_top80percent,openbind_a71ev2a_c2_elabs_activefrags_only_scored_5.2plus,syndirella_placed

>  <smina_score_min>  (453) 
-6.312

$$$$
P545684
     RDKit          3D

 21 22  0  0  0  0  0  0  0  0999 V2000
    5.0844   11.6754   26.9779 O   0  0  0  0  0  0  0  0  0  0  0  0
    5.2357   12.7385   26.5261 C   0  0  0  0  0  0  0  0  0  0  0  0
    4.2972   13.7795   26.8857 C   0  0  0  0  0  0  0  0  0  0  0  0
    3.5147   14.6396   27.1825 C   0  0  0  0  0  0  0  0  0  0  0  0
    2.2701   16.0064   27.6526 Br  0  0  0  0  0  0  0  0  0  0  0  0
    6.3118   13.2693   25.5631 N   0  0  0  0  0  0  0  0  0  0  0  0
    7.3400   12.6040   24.8996 C   0  0  0  0  0  0  0  0  0  0  0  0
    7.5478   11.2351   25.0365 C   0  0  0  0  0  0  0  0  0  0  0  0
    8.5975   10.6352   24.3490 C   0  0  0  0  0  0  0  0  0  0  0  0
    8.7435    9.3081   24.4194 F   0  0  0  0  0  0  0  0  0  0  0  0
    9.4812   11.3802   23.5792 C   0  0  0  0  0  0  0  0  0  0  0  0
    9.2764   12.7530   23.4401 C   0  0  0  0  0  0  0  0  0  0  0  0
   10.1687   13.5216   22.6466 N   0  0  0  0  0  0  0  0  0  0  0  0
    9.6172   14.4759   21.6939 C   0  0  0  0  0  0  0  0  0  0  0  0
   10.5903   14.9143   20.6208 C   0  0  0  0  0  0  0  0  0  0  0  0
   12.0026   14.5797   20.9807 C   0  0  0  0  0  0  0  0  0  0  0  0
   12.8649   14.3874   20.1280 O   0  0  0  0  0  0  0  0  0  0  0  0
   12.2574   14.5094   22.3168 N   0  0  0  0  0  0  0  0  0  0  0  0
   11.4675   13.7245   23.1114 C   0  0  0  0  0  0  0  0  0  0  0  0
   11.9203   13.2382   24.1469 O   0  0  0  0  0  0  0  0  0  0  0  0
    8.1845   13.3545   24.0759 C   0  0  0  0  0  0  0  0  0  0  0  0
  1  2  2  0
  2  3  1  0
  3  4  3  0
  4  5  1  0
  2  6  1  0
  6  7  1  0
  7  8  2  0
  8  9  1  0
  9 10  1  0
  9 11  2  0
 11 12  1  0
 12 13  1  0
 13 14  1  0
 14 15  1  0
 15 16  1  0
 16 17  2  0
 16 18  1  0
 18 19  1  0
 19 20  2  0
 12 21  2  0
 21  7  1  0
 19 13  1  0
M  END
>  <alias>  (454) 
None

>  <rmsd(smina/fragmenstein)>  (454) 
0.506

>  <smiles>  (454) 
O=C(C#CBr)Nc1cc(F)cc(N2CCC(=O)NC2=O)c1

>  <gnina_score>  (454) 
5.232

>  <inspiration_score>  (454) 
None

>  <energy_score>  (454) 
-22.084582

>  <distance_score>  (454) 
1.219964

>  <gnina_score_min>  (454) 
5.285

>  <inchikey>  (454) 
GVQKFHXRWCZHAL-UHFFFAOYSA-N

>  <exports>  (454) 
['/opt/xchem-fragalysis-2/maxwin/BulkDock/OUTPUTS/openbind_a71ev2a_c2_elabs_1LOUU54.sdf', '/opt/xchem-fragalysis-2/maxwin/BulkDock/OUTPUTS/openbind_a71ev2a_c2_elabs_1LSYIDY.sdf']

>  <name>  (454) 
P545684

>  <ref_pdb>  (454) 
A0884a

>  <subsites>  (454) 
None

>  <HIPPO Pose ID>  (454) 
545684

>  <ref_mols>  (454) 
A0884a

>  <HIPPO Compound ID>  (454) 
384196

>  <tags>  (454) 
openbind_a71ev2a_c2_elabs,syndirella_product,openbind_a71ev2a_c2_elabs_fragonly_scored_top80percent,openbind_a71ev2a_c2_elabs_scored,BulkDock Fragalysis export,openbind_a71ev2a_c2_elabs_scored_top80percent,openbind_a71ev2a_c2_elabs_activefrags_only_scored_5.2plus,syndirella_placed

>  <smina_score_min>  (454) 
-6.941

$$$$
P545685
     RDKit          3D

 21 22  0  0  0  0  0  0  0  0999 V2000
    5.0931   11.6584   27.1292 O   0  0  0  0  0  0  0  0  0  0  0  0
    5.2062   12.7119   26.6444 C   0  0  0  0  0  0  0  0  0  0  0  0
    4.3177   13.7684   27.0779 C   0  0  0  0  0  0  0  0  0  0  0  0
    3.5774   14.6422   27.4368 C   0  0  0  0  0  0  0  0  0  0  0  0
    2.4007   16.0314   28.0058 Br  0  0  0  0  0  0  0  0  0  0  0  0
    6.1790   13.2133   25.5624 N   0  0  0  0  0  0  0  0  0  0  0  0
    7.2446   12.5719   24.9369 C   0  0  0  0  0  0  0  0  0  0  0  0
    7.4710   11.2028   25.0924 C   0  0  0  0  0  0  0  0  0  0  0  0
    8.5402   10.5994   24.4336 C   0  0  0  0  0  0  0  0  0  0  0  0
    9.4056   11.3734   23.6718 C   0  0  0  0  0  0  0  0  0  0  0  0
   10.4022   10.7594   23.0302 F   0  0  0  0  0  0  0  0  0  0  0  0
    9.2000   12.7462   23.5099 C   0  0  0  0  0  0  0  0  0  0  0  0
   10.1000   13.5204   22.7250 N   0  0  0  0  0  0  0  0  0  0  0  0
    9.5596   14.4502   21.7476 C   0  0  0  0  0  0  0  0  0  0  0  0
   10.5502   14.9039   20.6973 C   0  0  0  0  0  0  0  0  0  0  0  0
   11.9619   14.5620   21.0545 C   0  0  0  0  0  0  0  0  0  0  0  0
   12.8322   14.4210   20.1990 O   0  0  0  0  0  0  0  0  0  0  0  0
   12.2136   14.4513   22.3880 N   0  0  0  0  0  0  0  0  0  0  0  0
   11.3985   13.7015   23.1908 C   0  0  0  0  0  0  0  0  0  0  0  0
   11.8293   13.2438   24.2483 O   0  0  0  0  0  0  0  0  0  0  0  0
    8.0909   13.3352   24.1237 C   0  0  0  0  0  0  0  0  0  0  0  0
  1  2  2  0
  2  3  1  0
  3  4  3  0
  4  5  1  0
  2  6  1  0
  6  7  1  0
  7  8  2  0
  8  9  1  0
  9 10  2  0
 10 11  1  0
 10 12  1  0
 12 13  1  0
 13 14  1  0
 14 15  1  0
 15 16  1  0
 16 17  2  0
 16 18  1  0
 18 19  1  0
 19 20  2  0
 12 21  2  0
 21  7  1  0
 19 13  1  0
M  END
>  <alias>  (455) 
None

>  <rmsd(smina/fragmenstein)>  (455) 
0.363

>  <smiles>  (455) 
O=C(C#CBr)Nc1ccc(F)c(N2CCC(=O)NC2=O)c1

>  <gnina_score>  (455) 
5.345

>  <inspiration_score>  (455) 
None

>  <energy_score>  (455) 
-30.613271

>  <distance_score>  (455) 
1.225957

>  <gnina_score_min>  (455) 
5.36

>  <inchikey>  (455) 
YPOMIIQDQZUWFQ-UHFFFAOYSA-N

>  <exports>  (455) 
['/opt/xchem-fragalysis-2/maxwin/BulkDock/OUTPUTS/openbind_a71ev2a_c2_elabs_1LOUU54.sdf', '/opt/xchem-fragalysis-2/maxwin/BulkDock/OUTPUTS/openbind_a71ev2a_c2_elabs_1LSYIDY.sdf']

>  <name>  (455) 
P545685

>  <ref_pdb>  (455) 
A0884a

>  <subsites>  (455) 
None

>  <HIPPO Pose ID>  (455) 
545685

>  <ref_mols>  (455) 
A0884a

>  <HIPPO Compound ID>  (455) 
384199

>  <tags>  (455) 
openbind_a71ev2a_c2_elabs,syndirella_product,openbind_a71ev2a_c2_elabs_fragonly_scored_top80percent,openbind_a71ev2a_c2_elabs_scored,BulkDock Fragalysis export,openbind_a71ev2a_c2_elabs_scored_top80percent,openbind_a71ev2a_c2_elabs_activefrags_only_scored_5.2plus,syndirella_placed

>  <smina_score_min>  (455) 
-6.798

$$$$
P545687
     RDKit          3D

 21 22  0  0  0  0  0  0  0  0999 V2000
    9.1169    9.5436   23.8823 C   0  0  0  0  0  0  0  0  0  0  0  0
    8.8312   10.9799   24.1123 C   0  0  0  0  0  0  0  0  0  0  0  0
    7.7420   11.4180   24.8754 C   0  0  0  0  0  0  0  0  0  0  0  0
    7.4485   12.7798   24.9508 C   0  0  0  0  0  0  0  0  0  0  0  0
    6.3694   13.2633   25.6835 N   0  0  0  0  0  0  0  0  0  0  0  0
    5.4184   12.5437   26.6560 C   0  0  0  0  0  0  0  0  0  0  0  0
    5.3390   11.4165   26.9396 O   0  0  0  0  0  0  0  0  0  0  0  0
    4.4795   13.4700   27.2514 C   0  0  0  0  0  0  0  0  0  0  0  0
    3.6960   14.2337   27.7445 C   0  0  0  0  0  0  0  0  0  0  0  0
    2.4490   15.4462   28.5275 Br  0  0  0  0  0  0  0  0  0  0  0  0
    8.2438   13.6983   24.2650 C   0  0  0  0  0  0  0  0  0  0  0  0
    9.3650   13.2572   23.5663 C   0  0  0  0  0  0  0  0  0  0  0  0
   10.1889   14.1749   22.8741 N   0  0  0  0  0  0  0  0  0  0  0  0
    9.6663   14.5779   21.5682 C   0  0  0  0  0  0  0  0  0  0  0  0
   10.6345   15.3592   20.7274 C   0  0  0  0  0  0  0  0  0  0  0  0
   11.9937   14.7578   20.9016 C   0  0  0  0  0  0  0  0  0  0  0  0
   12.6969   14.3738   19.9734 O   0  0  0  0  0  0  0  0  0  0  0  0
   12.3785   14.6860   22.2084 N   0  0  0  0  0  0  0  0  0  0  0  0
   11.5516   14.1512   23.1511 C   0  0  0  0  0  0  0  0  0  0  0  0
   12.0277   13.6613   24.1766 O   0  0  0  0  0  0  0  0  0  0  0  0
    9.6517   11.9020   23.4808 C   0  0  0  0  0  0  0  0  0  0  0  0
  1  2  1  0
  2  3  2  0
  3  4  1  0
  4  5  1  0
  5  6  1  0
  6  7  2  0
  6  8  1  0
  8  9  3  0
  9 10  1  0
  4 11  2  0
 11 12  1  0
 12 13  1  0
 13 14  1  0
 14 15  1  0
 15 16  1  0
 16 17  2  0
 16 18  1  0
 18 19  1  0
 19 20  2  0
 12 21  2  0
 21  2  1  0
 19 13  1  0
M  END
>  <alias>  (456) 
None

>  <rmsd(smina/fragmenstein)>  (456) 
0.654

>  <smiles>  (456) 
Cc1cc(NC(=O)C#CBr)cc(N2CCC(=O)NC2=O)c1

>  <gnina_score>  (456) 
5.368

>  <inspiration_score>  (456) 
None

>  <energy_score>  (456) 
-15.431312

>  <distance_score>  (456) 
1.296718

>  <gnina_score_min>  (456) 
5.434

>  <inchikey>  (456) 
WIKRTMPPTOYTCO-UHFFFAOYSA-N

>  <exports>  (456) 
['/opt/xchem-fragalysis-2/maxwin/BulkDock/OUTPUTS/openbind_a71ev2a_c2_elabs_1LOUU54.sdf', '/opt/xchem-fragalysis-2/maxwin/BulkDock/OUTPUTS/openbind_a71ev2a_c2_elabs_1LSYIDY.sdf']

>  <name>  (456) 
P545687

>  <ref_pdb>  (456) 
A0884a

>  <subsites>  (456) 
None

>  <HIPPO Pose ID>  (456) 
545687

>  <ref_mols>  (456) 
A0884a

>  <HIPPO Compound ID>  (456) 
384202

>  <tags>  (456) 
openbind_a71ev2a_c2_elabs,syndirella_product,openbind_a71ev2a_c2_elabs_fragonly_scored_top80percent,openbind_a71ev2a_c2_elabs_scored,BulkDock Fragalysis export,openbind_a71ev2a_c2_elabs_scored_top80percent,openbind_a71ev2a_c2_elabs_activefrags_only_scored_5.2plus,syndirella_placed

>  <smina_score_min>  (456) 
-6.88

$$$$
P545688
     RDKit          3D

 21 22  0  0  0  0  0  0  0  0999 V2000
    6.3108   14.5877   26.3860 O   0  0  0  0  0  0  0  0  0  0  0  0
    5.9669   13.4763   26.4103 C   0  0  0  0  0  0  0  0  0  0  0  0
    4.7805   13.1319   27.1651 C   0  0  0  0  0  0  0  0  0  0  0  0
    3.7939   12.8362   27.7812 C   0  0  0  0  0  0  0  0  0  0  0  0
    2.2204   12.3361   28.7365 Br  0  0  0  0  0  0  0  0  0  0  0  0
    6.6004   12.2219   25.7830 N   0  0  0  0  0  0  0  0  0  0  0  0
    7.7017   12.0893   24.9428 C   0  0  0  0  0  0  0  0  0  0  0  0
    8.1384   10.7978   24.6306 C   0  0  0  0  0  0  0  0  0  0  0  0
    9.2311   10.6334   23.7879 C   0  0  0  0  0  0  0  0  0  0  0  0
    9.8279    9.1055   23.3376 Cl  0  0  0  0  0  0  0  0  0  0  0  0
    9.8876   11.7283   23.2695 C   0  0  0  0  0  0  0  0  0  0  0  0
    9.4657   13.0127   23.5852 C   0  0  0  0  0  0  0  0  0  0  0  0
   10.1676   14.1011   23.0015 N   0  0  0  0  0  0  0  0  0  0  0  0
    9.6202   14.5387   21.7134 C   0  0  0  0  0  0  0  0  0  0  0  0
   10.5586   15.3524   20.8633 C   0  0  0  0  0  0  0  0  0  0  0  0
   11.9393   14.8026   21.0295 C   0  0  0  0  0  0  0  0  0  0  0  0
   12.6511   14.4471   20.0966 O   0  0  0  0  0  0  0  0  0  0  0  0
   12.3315   14.7425   22.3341 N   0  0  0  0  0  0  0  0  0  0  0  0
   11.5339   14.1611   23.2738 C   0  0  0  0  0  0  0  0  0  0  0  0
   12.0355   13.6708   24.2870 O   0  0  0  0  0  0  0  0  0  0  0  0
    8.3604   13.2036   24.4103 C   0  0  0  0  0  0  0  0  0  0  0  0
  1  2  2  0
  2  3  1  0
  3  4  3  0
  4  5  1  0
  2  6  1  0
  6  7  1  0
  7  8  2  0
  8  9  1  0
  9 10  1  0
  9 11  2  0
 11 12  1  0
 12 13  1  0
 13 14  1  0
 14 15  1  0
 15 16  1  0
 16 17  2  0
 16 18  1  0
 18 19  1  0
 19 20  2  0
 12 21  2  0
 21  7  1  0
 19 13  1  0
M  END
>  <alias>  (457) 
None

>  <rmsd(smina/fragmenstein)>  (457) 
0.192

>  <smiles>  (457) 
O=C(C#CBr)Nc1cc(Cl)cc(N2CCC(=O)NC2=O)c1

>  <gnina_score>  (457) 
5.539

>  <inspiration_score>  (457) 
None

>  <energy_score>  (457) 
-19.95843

>  <distance_score>  (457) 
1.189931

>  <gnina_score_min>  (457) 
5.562

>  <inchikey>  (457) 
JQLGREYLJRMUPD-UHFFFAOYSA-N

>  <exports>  (457) 
['/opt/xchem-fragalysis-2/maxwin/BulkDock/OUTPUTS/openbind_a71ev2a_c2_elabs_1LOUU54.sdf', '/opt/xchem-fragalysis-2/maxwin/BulkDock/OUTPUTS/openbind_a71ev2a_c2_elabs_1LSYIDY.sdf']

>  <name>  (457) 
P545688

>  <ref_pdb>  (457) 
A0884a

>  <subsites>  (457) 
None

>  <HIPPO Pose ID>  (457) 
545688

>  <ref_mols>  (457) 
A0884a

>  <HIPPO Compound ID>  (457) 
384203

>  <tags>  (457) 
openbind_a71ev2a_c2_elabs,syndirella_product,openbind_a71ev2a_c2_elabs_fragonly_scored_top80percent,BulkDock Fragalysis export,openbind_a71ev2a_c2_elabs_scored,openbind_a71ev2a_c2_elabs_scored_top80percent,openbind_a71ev2a_c2_elabs_activefrags_only_scored_5.2plus,openbind_a71ev2a_c2_elabs_activefrags_only_scored_5.5plus,syndirella_placed

>  <smina_score_min>  (457) 
-6.932

$$$$
P545689
     RDKit          3D

 21 22  0  0  0  0  0  0  0  0999 V2000
    6.8403   15.2459   26.1378 O   0  0  0  0  0  0  0  0  0  0  0  0
    6.2748   14.2498   26.3410 C   0  0  0  0  0  0  0  0  0  0  0  0
    5.1345   14.2655   27.2323 C   0  0  0  0  0  0  0  0  0  0  0  0
    4.1845   14.2678   27.9656 C   0  0  0  0  0  0  0  0  0  0  0  0
    2.6709   14.2501   29.1264 Br  0  0  0  0  0  0  0  0  0  0  0  0
    6.5286   12.8326   25.8040 N   0  0  0  0  0  0  0  0  0  0  0  0
    7.5543   12.3395   25.0046 C   0  0  0  0  0  0  0  0  0  0  0  0
    8.3852   13.1857   24.2756 C   0  0  0  0  0  0  0  0  0  0  0  0
    9.4145   12.6444   23.5005 C   0  0  0  0  0  0  0  0  0  0  0  0
   10.2538   13.4743   22.7231 N   0  0  0  0  0  0  0  0  0  0  0  0
    9.6342   14.4204   21.8085 C   0  0  0  0  0  0  0  0  0  0  0  0
   10.5660   14.9205   20.7261 C   0  0  0  0  0  0  0  0  0  0  0  0
   11.9982   14.6298   21.0507 C   0  0  0  0  0  0  0  0  0  0  0  0
   12.8463   14.4744   20.1768 O   0  0  0  0  0  0  0  0  0  0  0  0
   12.2869   14.5580   22.3795 N   0  0  0  0  0  0  0  0  0  0  0  0
   11.5442   13.7312   23.1767 C   0  0  0  0  0  0  0  0  0  0  0  0
   12.0344   13.2397   24.1922 O   0  0  0  0  0  0  0  0  0  0  0  0
    9.6063   11.2603   23.4523 C   0  0  0  0  0  0  0  0  0  0  0  0
    8.7621   10.4135   24.1614 C   0  0  0  0  0  0  0  0  0  0  0  0
    7.7441   10.9600   24.9304 C   0  0  0  0  0  0  0  0  0  0  0  0
    6.9378   10.1468   25.6264 F   0  0  0  0  0  0  0  0  0  0  0  0
  1  2  2  0
  2  3  1  0
  3  4  3  0
  4  5  1  0
  2  6  1  0
  6  7  1  0
  7  8  2  0
  8  9  1  0
  9 10  1  0
 10 11  1  0
 11 12  1  0
 12 13  1  0
 13 14  2  0
 13 15  1  0
 15 16  1  0
 16 17  2  0
  9 18  2  0
 18 19  1  0
 19 20  2  0
 20 21  1  0
 20  7  1  0
 16 10  1  0
M  END
>  <alias>  (458) 
None

>  <rmsd(smina/fragmenstein)>  (458) 
0.311

>  <smiles>  (458) 
O=C(C#CBr)Nc1cc(N2CCC(=O)NC2=O)ccc1F

>  <gnina_score>  (458) 
5.296

>  <inspiration_score>  (458) 
None

>  <energy_score>  (458) 
-27.656615

>  <distance_score>  (458) 
1.420564

>  <gnina_score_min>  (458) 
5.284

>  <inchikey>  (458) 
VKIOMIYVIBCKNZ-UHFFFAOYSA-N

>  <exports>  (458) 
['/opt/xchem-fragalysis-2/maxwin/BulkDock/OUTPUTS/openbind_a71ev2a_c2_elabs_1LOUU54.sdf', '/opt/xchem-fragalysis-2/maxwin/BulkDock/OUTPUTS/openbind_a71ev2a_c2_elabs_1LSYIDY.sdf']

>  <name>  (458) 
P545689

>  <ref_pdb>  (458) 
A0884a

>  <subsites>  (458) 
None

>  <HIPPO Pose ID>  (458) 
545689

>  <ref_mols>  (458) 
A0884a

>  <HIPPO Compound ID>  (458) 
384204

>  <tags>  (458) 
openbind_a71ev2a_c2_elabs,syndirella_product,openbind_a71ev2a_c2_elabs_fragonly_scored_top80percent,openbind_a71ev2a_c2_elabs_scored,BulkDock Fragalysis export,openbind_a71ev2a_c2_elabs_scored_top80percent,openbind_a71ev2a_c2_elabs_activefrags_only_scored_5.2plus,syndirella_placed

>  <smina_score_min>  (458) 
-7.013

$$$$
P545690
     RDKit          3D

 21 22  0  0  0  0  0  0  0  0999 V2000
    9.9556   10.3462   23.0600 C   0  0  0  0  0  0  0  0  0  0  0  0
    9.0572   11.2733   23.8127 C   0  0  0  0  0  0  0  0  0  0  0  0
    8.1326   10.6700   24.6789 C   0  0  0  0  0  0  0  0  0  0  0  0
    7.1860   11.4268   25.3619 C   0  0  0  0  0  0  0  0  0  0  0  0
    7.1446   12.8035   25.1799 C   0  0  0  0  0  0  0  0  0  0  0  0
    6.1853   13.5990   25.8017 N   0  0  0  0  0  0  0  0  0  0  0  0
    5.0611   13.2257   26.7866 C   0  0  0  0  0  0  0  0  0  0  0  0
    4.7110   12.1834   27.1742 O   0  0  0  0  0  0  0  0  0  0  0  0
    4.3512   14.4033   27.2373 C   0  0  0  0  0  0  0  0  0  0  0  0
    3.7631   15.3806   27.6108 C   0  0  0  0  0  0  0  0  0  0  0  0
    2.8322   16.9365   28.2034 Br  0  0  0  0  0  0  0  0  0  0  0  0
    8.0762   13.4196   24.3380 C   0  0  0  0  0  0  0  0  0  0  0  0
    9.0534   12.6727   23.6612 C   0  0  0  0  0  0  0  0  0  0  0  0
    9.9972   13.3506   22.8198 N   0  0  0  0  0  0  0  0  0  0  0  0
    9.4797   14.3403   21.8796 C   0  0  0  0  0  0  0  0  0  0  0  0
   10.4682   14.8078   20.8323 C   0  0  0  0  0  0  0  0  0  0  0  0
   11.8835   14.5190   21.2127 C   0  0  0  0  0  0  0  0  0  0  0  0
   12.7848   14.4636   20.3798 O   0  0  0  0  0  0  0  0  0  0  0  0
   12.1065   14.3352   22.5436 N   0  0  0  0  0  0  0  0  0  0  0  0
   11.2827   13.5665   23.3234 C   0  0  0  0  0  0  0  0  0  0  0  0
   11.7072   13.1141   24.3851 O   0  0  0  0  0  0  0  0  0  0  0  0
  1  2  1  0
  2  3  2  0
  3  4  1  0
  4  5  2  0
  5  6  1  0
  6  7  1  0
  7  8  2  0
  7  9  1  0
  9 10  3  0
 10 11  1  0
  5 12  1  0
 12 13  2  0
 13 14  1  0
 14 15  1  0
 15 16  1  0
 16 17  1  0
 17 18  2  0
 17 19  1  0
 19 20  1  0
 20 21  2  0
 13  2  1  0
 20 14  1  0
M  END
>  <alias>  (459) 
None

>  <rmsd(smina/fragmenstein)>  (459) 
0.413

>  <smiles>  (459) 
Cc1ccc(NC(=O)C#CBr)cc1N1CCC(=O)NC1=O

>  <gnina_score>  (459) 
5.319

>  <inspiration_score>  (459) 
None

>  <energy_score>  (459) 
-31.383288

>  <distance_score>  (459) 
1.394525

>  <gnina_score_min>  (459) 
5.317

>  <inchikey>  (459) 
OOKAIAWGJUZMOM-UHFFFAOYSA-N

>  <exports>  (459) 
['/opt/xchem-fragalysis-2/maxwin/BulkDock/OUTPUTS/openbind_a71ev2a_c2_elabs_1LOUU54.sdf', '/opt/xchem-fragalysis-2/maxwin/BulkDock/OUTPUTS/openbind_a71ev2a_c2_elabs_1LSYIDY.sdf']

>  <name>  (459) 
P545690

>  <ref_pdb>  (459) 
A0884a

>  <subsites>  (459) 
None

>  <HIPPO Pose ID>  (459) 
545690

>  <ref_mols>  (459) 
A0884a

>  <HIPPO Compound ID>  (459) 
384205

>  <tags>  (459) 
openbind_a71ev2a_c2_elabs,syndirella_product,openbind_a71ev2a_c2_elabs_fragonly_scored_top80percent,openbind_a71ev2a_c2_elabs_scored,BulkDock Fragalysis export,openbind_a71ev2a_c2_elabs_scored_top80percent,openbind_a71ev2a_c2_elabs_activefrags_only_scored_5.2plus,syndirella_placed

>  <smina_score_min>  (459) 
-6.771

$$$$
P545692
     RDKit          3D

 21 22  0  0  0  0  0  0  0  0999 V2000
    7.6060   15.7819   26.5535 O   0  0  0  0  0  0  0  0  0  0  0  0
    6.7781   14.9978   26.7887 C   0  0  0  0  0  0  0  0  0  0  0  0
    5.6841   15.3840   27.6539 C   0  0  0  0  0  0  0  0  0  0  0  0
    4.7765   15.7049   28.3706 C   0  0  0  0  0  0  0  0  0  0  0  0
    3.3314   16.2038   29.5115 Br  0  0  0  0  0  0  0  0  0  0  0  0
    6.6457   13.5255   26.3565 N   0  0  0  0  0  0  0  0  0  0  0  0
    7.4278   12.7631   25.4970 C   0  0  0  0  0  0  0  0  0  0  0  0
    7.2593   11.3819   25.4778 C   0  0  0  0  0  0  0  0  0  0  0  0
    8.0986   10.6006   24.6895 C   0  0  0  0  0  0  0  0  0  0  0  0
    9.0638   11.1939   23.8719 C   0  0  0  0  0  0  0  0  0  0  0  0
    9.9791   10.1201   22.9083 Cl  0  0  0  0  0  0  0  0  0  0  0  0
    9.1972   12.5888   23.8286 C   0  0  0  0  0  0  0  0  0  0  0  0
   10.1021   13.2519   22.9355 N   0  0  0  0  0  0  0  0  0  0  0  0
    9.5171   14.2449   22.0409 C   0  0  0  0  0  0  0  0  0  0  0  0
   10.4465   14.7523   20.9607 C   0  0  0  0  0  0  0  0  0  0  0  0
   11.8851   14.5143   21.2884 C   0  0  0  0  0  0  0  0  0  0  0  0
   12.7566   14.5135   20.4235 O   0  0  0  0  0  0  0  0  0  0  0  0
   12.1619   14.3186   22.6075 N   0  0  0  0  0  0  0  0  0  0  0  0
   11.3831   13.5330   23.4153 C   0  0  0  0  0  0  0  0  0  0  0  0
   11.8339   13.1138   24.4790 O   0  0  0  0  0  0  0  0  0  0  0  0
    8.3858   13.3603   24.6735 C   0  0  0  0  0  0  0  0  0  0  0  0
  1  2  2  0
  2  3  1  0
  3  4  3  0
  4  5  1  0
  2  6  1  0
  6  7  1  0
  7  8  2  0
  8  9  1  0
  9 10  2  0
 10 11  1  0
 10 12  1  0
 12 13  1  0
 13 14  1  0
 14 15  1  0
 15 16  1  0
 16 17  2  0
 16 18  1  0
 18 19  1  0
 19 20  2  0
 12 21  2  0
 21  7  1  0
 19 13  1  0
M  END
>  <alias>  (460) 
None

>  <rmsd(smina/fragmenstein)>  (460) 
0.715

>  <smiles>  (460) 
O=C(C#CBr)Nc1ccc(Cl)c(N2CCC(=O)NC2=O)c1

>  <gnina_score>  (460) 
5.426

>  <inspiration_score>  (460) 
None

>  <energy_score>  (460) 
-5.689673

>  <distance_score>  (460) 
1.88981

>  <gnina_score_min>  (460) 
5.4

>  <inchikey>  (460) 
HDSAFMBSFWOZDX-UHFFFAOYSA-N

>  <exports>  (460) 
['/opt/xchem-fragalysis-2/maxwin/BulkDock/OUTPUTS/openbind_a71ev2a_c2_elabs_1LOUU54.sdf', '/opt/xchem-fragalysis-2/maxwin/BulkDock/OUTPUTS/openbind_a71ev2a_c2_elabs_1LSYIDY.sdf']

>  <name>  (460) 
P545692

>  <ref_pdb>  (460) 
A0884a

>  <subsites>  (460) 
None

>  <HIPPO Pose ID>  (460) 
545692

>  <ref_mols>  (460) 
A0884a

>  <HIPPO Compound ID>  (460) 
384207

>  <tags>  (460) 
openbind_a71ev2a_c2_elabs,syndirella_product,openbind_a71ev2a_c2_elabs_fragonly_scored_top80percent,openbind_a71ev2a_c2_elabs_scored,BulkDock Fragalysis export,openbind_a71ev2a_c2_elabs_scored_top80percent,openbind_a71ev2a_c2_elabs_activefrags_only_scored_5.2plus,syndirella_placed

>  <smina_score_min>  (460) 
-6.76

$$$$
P545694
     RDKit          3D

 21 22  0  0  0  0  0  0  0  0999 V2000
    3.4291   12.2364   28.8706 C   0  0  0  0  0  0  0  0  0  0  0  0
    4.2333   12.5764   27.8608 C   0  0  0  0  0  0  0  0  0  0  0  0
    4.2030   13.8279   27.3563 F   0  0  0  0  0  0  0  0  0  0  0  0
    5.2049   11.6258   27.2267 C   0  0  0  0  0  0  0  0  0  0  0  0
    5.3230   10.5175   27.5752 O   0  0  0  0  0  0  0  0  0  0  0  0
    5.9419   12.4124   26.1136 N   0  0  0  0  0  0  0  0  0  0  0  0
    7.0060   12.0378   25.2918 C   0  0  0  0  0  0  0  0  0  0  0  0
    7.3680   10.6980   25.1691 C   0  0  0  0  0  0  0  0  0  0  0  0
    8.4575   10.3325   24.3818 C   0  0  0  0  0  0  0  0  0  0  0  0
    9.2744   11.3114   23.8443 C   0  0  0  0  0  0  0  0  0  0  0  0
   10.4285   10.9210   23.2990 F   0  0  0  0  0  0  0  0  0  0  0  0
    8.9904   12.6642   24.0494 C   0  0  0  0  0  0  0  0  0  0  0  0
   10.0589   13.5885   24.0384 N   0  0  0  0  0  0  0  0  0  0  0  0
   10.3854   14.2710   25.1864 C   0  0  0  0  0  0  0  0  0  0  0  0
    9.6861   14.6044   26.1370 O   0  0  0  0  0  0  0  0  0  0  0  0
   11.8470   14.5884   25.1543 C   0  0  0  0  0  0  0  0  0  0  0  0
   12.1564   14.2959   23.8047 N   0  0  0  0  0  0  0  0  0  0  0  0
   11.1358   13.6146   23.1994 C   0  0  0  0  0  0  0  0  0  0  0  0
   11.2693   13.1848   22.0754 O   0  0  0  0  0  0  0  0  0  0  0  0
    7.7547   13.0259   24.6315 C   0  0  0  0  0  0  0  0  0  0  0  0
    7.2557   14.4509   24.5735 C   0  0  0  0  0  0  0  0  0  0  0  0
  1  2  2  0
  2  3  1  0
  2  4  1  0
  4  5  2  0
  4  6  1  0
  6  7  1  0
  7  8  2  0
  8  9  1  0
  9 10  2  0
 10 11  1  0
 10 12  1  0
 12 13  1  0
 13 14  1  0
 14 15  2  0
 14 16  1  0
 16 17  1  0
 17 18  1  0
 18 19  2  0
 12 20  2  0
 20 21  1  0
 20  7  1  0
 18 13  1  0
M  END
>  <alias>  (461) 
None

>  <rmsd(smina/fragmenstein)>  (461) 
2.003

>  <smiles>  (461) 
C=C(F)C(=O)Nc1ccc(F)c(N2C(=O)CNC2=O)c1C

>  <gnina_score>  (461) 
5.057

>  <inspiration_score>  (461) 
None

>  <energy_score>  (461) 
-10.778966

>  <distance_score>  (461) 
1.390567

>  <gnina_score_min>  (461) 
5.279

>  <inchikey>  (461) 
DXVUCMMQPQWKTR-UHFFFAOYSA-N

>  <exports>  (461) 
['/opt/xchem-fragalysis-2/maxwin/BulkDock/OUTPUTS/openbind_a71ev2a_c2_elabs_1LOUU54.sdf', '/opt/xchem-fragalysis-2/maxwin/BulkDock/OUTPUTS/openbind_a71ev2a_c2_elabs_1LSYIDY.sdf']

>  <name>  (461) 
P545694

>  <ref_pdb>  (461) 
A0884a

>  <subsites>  (461) 
None

>  <HIPPO Pose ID>  (461) 
545694

>  <ref_mols>  (461) 
A0884a

>  <HIPPO Compound ID>  (461) 
384210

>  <tags>  (461) 
openbind_a71ev2a_c2_elabs,syndirella_product,openbind_a71ev2a_c2_elabs_fragonly_scored_top80percent,openbind_a71ev2a_c2_elabs_scored,BulkDock Fragalysis export,openbind_a71ev2a_c2_elabs_scored_top80percent,openbind_a71ev2a_c2_elabs_activefrags_only_scored_5.2plus,syndirella_placed

>  <smina_score_min>  (461) 
-6.55

$$$$
P545700
     RDKit          3D

 21 22  0  0  0  0  0  0  0  0999 V2000
    3.4810   13.2413   28.0437 C   0  0  0  0  0  0  0  0  0  0  0  0
    4.4787   13.5311   27.2052 C   0  0  0  0  0  0  0  0  0  0  0  0
    4.6599   14.7970   26.7733 F   0  0  0  0  0  0  0  0  0  0  0  0
    5.4523   12.5089   26.6991 C   0  0  0  0  0  0  0  0  0  0  0  0
    5.3962   11.3799   26.9957 O   0  0  0  0  0  0  0  0  0  0  0  0
    6.4529   13.2585   25.7807 N   0  0  0  0  0  0  0  0  0  0  0  0
    7.4939   12.7748   24.9931 C   0  0  0  0  0  0  0  0  0  0  0  0
    7.7769   11.4127   24.8936 C   0  0  0  0  0  0  0  0  0  0  0  0
    8.8449   10.9780   24.0988 C   0  0  0  0  0  0  0  0  0  0  0  0
    9.1318    9.5423   23.8658 C   0  0  0  0  0  0  0  0  0  0  0  0
    9.6501   11.9030   23.4515 C   0  0  0  0  0  0  0  0  0  0  0  0
    9.3705   13.2585   23.5568 C   0  0  0  0  0  0  0  0  0  0  0  0
   10.1867   14.1818   22.8627 N   0  0  0  0  0  0  0  0  0  0  0  0
    9.6608   14.5837   21.5569 C   0  0  0  0  0  0  0  0  0  0  0  0
   10.6205   15.3787   20.7178 C   0  0  0  0  0  0  0  0  0  0  0  0
   11.9862   14.7908   20.8890 C   0  0  0  0  0  0  0  0  0  0  0  0
   12.6986   14.4224   19.9605 O   0  0  0  0  0  0  0  0  0  0  0  0
   12.3718   14.7087   22.1953 N   0  0  0  0  0  0  0  0  0  0  0  0
   11.5496   14.1647   23.1367 C   0  0  0  0  0  0  0  0  0  0  0  0
   12.0324   13.6711   24.1579 O   0  0  0  0  0  0  0  0  0  0  0  0
    8.2733   13.6972   24.2939 C   0  0  0  0  0  0  0  0  0  0  0  0
  1  2  2  0
  2  3  1  0
  2  4  1  0
  4  5  2  0
  4  6  1  0
  6  7  1  0
  7  8  2  0
  8  9  1  0
  9 10  1  0
  9 11  2  0
 11 12  1  0
 12 13  1  0
 13 14  1  0
 14 15  1  0
 15 16  1  0
 16 17  2  0
 16 18  1  0
 18 19  1  0
 19 20  2  0
 12 21  2  0
 21  7  1  0
 19 13  1  0
M  END
>  <alias>  (462) 
None

>  <rmsd(smina/fragmenstein)>  (462) 
0.626

>  <smiles>  (462) 
C=C(F)C(=O)Nc1cc(C)cc(N2CCC(=O)NC2=O)c1

>  <gnina_score>  (462) 
5.325

>  <inspiration_score>  (462) 
None

>  <energy_score>  (462) 
-31.205351

>  <distance_score>  (462) 
1.304506

>  <gnina_score_min>  (462) 
5.405

>  <inchikey>  (462) 
YAJQMWUFLUEQHX-UHFFFAOYSA-N

>  <exports>  (462) 
['/opt/xchem-fragalysis-2/maxwin/BulkDock/OUTPUTS/openbind_a71ev2a_c2_elabs_1LOUU54.sdf', '/opt/xchem-fragalysis-2/maxwin/BulkDock/OUTPUTS/openbind_a71ev2a_c2_elabs_1LSYIDY.sdf']

>  <name>  (462) 
P545700

>  <ref_pdb>  (462) 
A0884a

>  <subsites>  (462) 
None

>  <HIPPO Pose ID>  (462) 
545700

>  <ref_mols>  (462) 
A0884a

>  <HIPPO Compound ID>  (462) 
384218

>  <tags>  (462) 
openbind_a71ev2a_c2_elabs,syndirella_product,openbind_a71ev2a_c2_elabs_fragonly_scored_top80percent,openbind_a71ev2a_c2_elabs_scored,BulkDock Fragalysis export,openbind_a71ev2a_c2_elabs_scored_top80percent,openbind_a71ev2a_c2_elabs_activefrags_only_scored_5.2plus,syndirella_placed

>  <smina_score_min>  (462) 
-6.943

$$$$
P545701
     RDKit          3D

 21 22  0  0  0  0  0  0  0  0999 V2000
    4.4962   14.8307   27.3966 C   0  0  0  0  0  0  0  0  0  0  0  0
    4.2951   13.5528   27.0594 C   0  0  0  0  0  0  0  0  0  0  0  0
    3.0634   13.0191   27.2187 F   0  0  0  0  0  0  0  0  0  0  0  0
    5.3357   12.5676   26.6055 C   0  0  0  0  0  0  0  0  0  0  0  0
    5.2766   11.4465   26.9318 O   0  0  0  0  0  0  0  0  0  0  0  0
    6.3629   13.2989   25.6994 N   0  0  0  0  0  0  0  0  0  0  0  0
    7.4323   12.8006   24.9608 C   0  0  0  0  0  0  0  0  0  0  0  0
    7.7210   11.4382   24.9017 C   0  0  0  0  0  0  0  0  0  0  0  0
    8.8003   11.0107   24.1329 C   0  0  0  0  0  0  0  0  0  0  0  0
    9.1240    9.3679   23.8844 Cl  0  0  0  0  0  0  0  0  0  0  0  0
    9.6300   11.9074   23.4896 C   0  0  0  0  0  0  0  0  0  0  0  0
    9.3466   13.2622   23.5610 C   0  0  0  0  0  0  0  0  0  0  0  0
   10.1770   14.1750   22.8690 N   0  0  0  0  0  0  0  0  0  0  0  0
    9.6683   14.5799   21.5587 C   0  0  0  0  0  0  0  0  0  0  0  0
   10.6425   15.3700   20.7328 C   0  0  0  0  0  0  0  0  0  0  0  0
   12.0019   14.7696   20.9113 C   0  0  0  0  0  0  0  0  0  0  0  0
   12.7137   14.4002   19.9828 O   0  0  0  0  0  0  0  0  0  0  0  0
   12.3751   14.6777   22.2207 N   0  0  0  0  0  0  0  0  0  0  0  0
   11.5371   14.1535   23.1593 C   0  0  0  0  0  0  0  0  0  0  0  0
   11.9972   13.6715   24.1955 O   0  0  0  0  0  0  0  0  0  0  0  0
    8.2276   13.7110   24.2603 C   0  0  0  0  0  0  0  0  0  0  0  0
  1  2  2  0
  2  3  1  0
  2  4  1  0
  4  5  2  0
  4  6  1  0
  6  7  1  0
  7  8  2  0
  8  9  1  0
  9 10  1  0
  9 11  2  0
 11 12  1  0
 12 13  1  0
 13 14  1  0
 14 15  1  0
 15 16  1  0
 16 17  2  0
 16 18  1  0
 18 19  1  0
 19 20  2  0
 12 21  2  0
 21  7  1  0
 19 13  1  0
M  END
>  <alias>  (463) 
None

>  <rmsd(smina/fragmenstein)>  (463) 
0.709

>  <smiles>  (463) 
C=C(F)C(=O)Nc1cc(Cl)cc(N2CCC(=O)NC2=O)c1

>  <gnina_score>  (463) 
5.319

>  <inspiration_score>  (463) 
None

>  <energy_score>  (463) 
-27.57782

>  <distance_score>  (463) 
1.331965

>  <gnina_score_min>  (463) 
5.389

>  <inchikey>  (463) 
LLOLPCLTHLVXQR-UHFFFAOYSA-N

>  <exports>  (463) 
['/opt/xchem-fragalysis-2/maxwin/BulkDock/OUTPUTS/openbind_a71ev2a_c2_elabs_1LOUU54.sdf', '/opt/xchem-fragalysis-2/maxwin/BulkDock/OUTPUTS/openbind_a71ev2a_c2_elabs_1LSYIDY.sdf']

>  <name>  (463) 
P545701

>  <ref_pdb>  (463) 
A0884a

>  <subsites>  (463) 
None

>  <HIPPO Pose ID>  (463) 
545701

>  <ref_mols>  (463) 
A0884a

>  <HIPPO Compound ID>  (463) 
384219

>  <tags>  (463) 
openbind_a71ev2a_c2_elabs,syndirella_product,openbind_a71ev2a_c2_elabs_fragonly_scored_top80percent,openbind_a71ev2a_c2_elabs_scored,BulkDock Fragalysis export,openbind_a71ev2a_c2_elabs_scored_top80percent,openbind_a71ev2a_c2_elabs_activefrags_only_scored_5.2plus,syndirella_placed

>  <smina_score_min>  (463) 
-6.922

$$$$
P545702
     RDKit          3D

 21 22  0  0  0  0  0  0  0  0999 V2000
    4.5702   15.1468   26.8742 C   0  0  0  0  0  0  0  0  0  0  0  0
    4.2828   13.8433   26.7976 C   0  0  0  0  0  0  0  0  0  0  0  0
    3.0341   13.4274   27.1052 F   0  0  0  0  0  0  0  0  0  0  0  0
    5.2432   12.7282   26.4930 C   0  0  0  0  0  0  0  0  0  0  0  0
    5.1407   11.6904   27.0215 O   0  0  0  0  0  0  0  0  0  0  0  0
    6.2296   13.2037   25.3899 N   0  0  0  0  0  0  0  0  0  0  0  0
    7.3158   12.5499   24.8000 C   0  0  0  0  0  0  0  0  0  0  0  0
    8.1354   13.3235   23.9684 C   0  0  0  0  0  0  0  0  0  0  0  0
    9.2830   12.7753   23.3866 C   0  0  0  0  0  0  0  0  0  0  0  0
   10.1653   13.5740   22.6154 N   0  0  0  0  0  0  0  0  0  0  0  0
    9.6130   14.5106   21.6482 C   0  0  0  0  0  0  0  0  0  0  0  0
   10.5910   14.9374   20.5750 C   0  0  0  0  0  0  0  0  0  0  0  0
   12.0020   14.6007   20.9397 C   0  0  0  0  0  0  0  0  0  0  0  0
   12.8642   14.3995   20.0892 O   0  0  0  0  0  0  0  0  0  0  0  0
   12.2574   14.5493   22.2758 N   0  0  0  0  0  0  0  0  0  0  0  0
   11.4661   13.7722   23.0754 C   0  0  0  0  0  0  0  0  0  0  0  0
   11.9213   13.2905   24.1115 O   0  0  0  0  0  0  0  0  0  0  0  0
    9.5625   11.4191   23.5624 C   0  0  0  0  0  0  0  0  0  0  0  0
    8.7165   10.6263   24.3306 C   0  0  0  0  0  0  0  0  0  0  0  0
    7.6233   11.1984   24.9755 C   0  0  0  0  0  0  0  0  0  0  0  0
    6.8627   10.3939   25.7236 F   0  0  0  0  0  0  0  0  0  0  0  0
  1  2  2  0
  2  3  1  0
  2  4  1  0
  4  5  2  0
  4  6  1  0
  6  7  1  0
  7  8  2  0
  8  9  1  0
  9 10  1  0
 10 11  1  0
 11 12  1  0
 12 13  1  0
 13 14  2  0
 13 15  1  0
 15 16  1  0
 16 17  2  0
  9 18  2  0
 18 19  1  0
 19 20  2  0
 20 21  1  0
 20  7  1  0
 16 10  1  0
M  END
>  <alias>  (464) 
None

>  <rmsd(smina/fragmenstein)>  (464) 
0.581

>  <smiles>  (464) 
C=C(F)C(=O)Nc1cc(N2CCC(=O)NC2=O)ccc1F

>  <gnina_score>  (464) 
5.328

>  <inspiration_score>  (464) 
None

>  <energy_score>  (464) 
-16.017618

>  <distance_score>  (464) 
1.244818

>  <gnina_score_min>  (464) 
5.264

>  <inchikey>  (464) 
DQCICGZGMQPGHA-UHFFFAOYSA-N

>  <exports>  (464) 
['/opt/xchem-fragalysis-2/maxwin/BulkDock/OUTPUTS/openbind_a71ev2a_c2_elabs_1LOUU54.sdf', '/opt/xchem-fragalysis-2/maxwin/BulkDock/OUTPUTS/openbind_a71ev2a_c2_elabs_1LSYIDY.sdf']

>  <name>  (464) 
P545702

>  <ref_pdb>  (464) 
A0884a

>  <subsites>  (464) 
None

>  <HIPPO Pose ID>  (464) 
545702

>  <ref_mols>  (464) 
A0884a

>  <HIPPO Compound ID>  (464) 
384220

>  <tags>  (464) 
openbind_a71ev2a_c2_elabs,syndirella_product,openbind_a71ev2a_c2_elabs_fragonly_scored_top80percent,openbind_a71ev2a_c2_elabs_scored,BulkDock Fragalysis export,openbind_a71ev2a_c2_elabs_scored_top80percent,openbind_a71ev2a_c2_elabs_activefrags_only_scored_5.2plus,syndirella_placed

>  <smina_score_min>  (464) 
-7.13

$$$$
P545704
     RDKit          3D

 21 22  0  0  0  0  0  0  0  0999 V2000
    3.3419   14.6701   28.0629 C   0  0  0  0  0  0  0  0  0  0  0  0
    4.3424   14.5949   27.1824 C   0  0  0  0  0  0  0  0  0  0  0  0
    4.7997   15.7093   26.5738 F   0  0  0  0  0  0  0  0  0  0  0  0
    5.0284   13.3117   26.8196 C   0  0  0  0  0  0  0  0  0  0  0  0
    4.7428   12.2829   27.2963 O   0  0  0  0  0  0  0  0  0  0  0  0
    6.1105   13.6657   25.7628 N   0  0  0  0  0  0  0  0  0  0  0  0
    7.0887   12.8716   25.1693 C   0  0  0  0  0  0  0  0  0  0  0  0
    7.1329   11.4972   25.3802 C   0  0  0  0  0  0  0  0  0  0  0  0
    8.0949   10.7309   24.7317 C   0  0  0  0  0  0  0  0  0  0  0  0
    9.0276   11.3338   23.8857 C   0  0  0  0  0  0  0  0  0  0  0  0
   10.0362   10.2583   23.0217 Cl  0  0  0  0  0  0  0  0  0  0  0  0
    9.0198   12.7242   23.6802 C   0  0  0  0  0  0  0  0  0  0  0  0
    9.9725   13.3840   22.8305 N   0  0  0  0  0  0  0  0  0  0  0  0
    9.4707   14.3541   21.8647 C   0  0  0  0  0  0  0  0  0  0  0  0
   10.4749   14.8130   20.8286 C   0  0  0  0  0  0  0  0  0  0  0  0
   11.8838   14.4817   21.1988 C   0  0  0  0  0  0  0  0  0  0  0  0
   12.7784   14.4110   20.3596 O   0  0  0  0  0  0  0  0  0  0  0  0
   12.1109   14.2922   22.5283 N   0  0  0  0  0  0  0  0  0  0  0  0
   11.2613   13.5755   23.3281 C   0  0  0  0  0  0  0  0  0  0  0  0
   11.6608   13.1581   24.4137 O   0  0  0  0  0  0  0  0  0  0  0  0
    8.0262   13.4788   24.3241 C   0  0  0  0  0  0  0  0  0  0  0  0
  1  2  2  0
  2  3  1  0
  2  4  1  0
  4  5  2  0
  4  6  1  0
  6  7  1  0
  7  8  2  0
  8  9  1  0
  9 10  2  0
 10 11  1  0
 10 12  1  0
 12 13  1  0
 13 14  1  0
 14 15  1  0
 15 16  1  0
 16 17  2  0
 16 18  1  0
 18 19  1  0
 19 20  2  0
 12 21  2  0
 21  7  1  0
 19 13  1  0
M  END
>  <alias>  (465) 
None

>  <rmsd(smina/fragmenstein)>  (465) 
0.489

>  <smiles>  (465) 
C=C(F)C(=O)Nc1ccc(Cl)c(N2CCC(=O)NC2=O)c1

>  <gnina_score>  (465) 
5.503

>  <inspiration_score>  (465) 
None

>  <energy_score>  (465) 
-35.223065

>  <distance_score>  (465) 
1.465452

>  <gnina_score_min>  (465) 
5.448

>  <inchikey>  (465) 
PGXPDMKSDPRJIP-UHFFFAOYSA-N

>  <exports>  (465) 
['/opt/xchem-fragalysis-2/maxwin/BulkDock/OUTPUTS/openbind_a71ev2a_c2_elabs_1LOUU54.sdf', '/opt/xchem-fragalysis-2/maxwin/BulkDock/OUTPUTS/openbind_a71ev2a_c2_elabs_1LSYIDY.sdf']

>  <name>  (465) 
P545704

>  <ref_pdb>  (465) 
A0884a

>  <subsites>  (465) 
None

>  <HIPPO Pose ID>  (465) 
545704

>  <ref_mols>  (465) 
A0884a

>  <HIPPO Compound ID>  (465) 
384223

>  <tags>  (465) 
openbind_a71ev2a_c2_elabs,syndirella_product,openbind_a71ev2a_c2_elabs_fragonly_scored_top80percent,openbind_a71ev2a_c2_elabs_scored,BulkDock Fragalysis export,openbind_a71ev2a_c2_elabs_scored_top80percent,openbind_a71ev2a_c2_elabs_activefrags_only_scored_5.2plus,syndirella_placed

>  <smina_score_min>  (465) 
-6.769

$$$$
P545705
     RDKit          3D

 21 22  0  0  0  0  0  0  0  0999 V2000
    2.7975   15.7787   27.9404 C   0  0  0  0  0  0  0  0  0  0  0  0
    3.6534   14.6780   27.4982 C   0  0  0  0  0  0  0  0  0  0  0  0
    4.3571   13.7760   27.1295 C   0  0  0  0  0  0  0  0  0  0  0  0
    5.2153   12.7014   26.6658 C   0  0  0  0  0  0  0  0  0  0  0  0
    5.0387   11.6253   27.0762 O   0  0  0  0  0  0  0  0  0  0  0  0
    6.2291   13.2209   25.6310 N   0  0  0  0  0  0  0  0  0  0  0  0
    7.2671   12.5663   24.9747 C   0  0  0  0  0  0  0  0  0  0  0  0
    7.4830   11.1944   25.1172 C   0  0  0  0  0  0  0  0  0  0  0  0
    8.5357   10.5852   24.4362 C   0  0  0  0  0  0  0  0  0  0  0  0
    9.3962   11.3557   23.6650 C   0  0  0  0  0  0  0  0  0  0  0  0
   10.3764   10.7372   23.0022 F   0  0  0  0  0  0  0  0  0  0  0  0
    9.2009   12.7313   23.5160 C   0  0  0  0  0  0  0  0  0  0  0  0
   10.0992   13.5037   22.7271 N   0  0  0  0  0  0  0  0  0  0  0  0
    9.5554   14.4408   21.7590 C   0  0  0  0  0  0  0  0  0  0  0  0
   10.5424   14.8990   20.7070 C   0  0  0  0  0  0  0  0  0  0  0  0
   11.9564   14.5638   21.0625 C   0  0  0  0  0  0  0  0  0  0  0  0
   12.8277   14.4330   20.2064 O   0  0  0  0  0  0  0  0  0  0  0  0
   12.2088   14.4463   22.3952 N   0  0  0  0  0  0  0  0  0  0  0  0
   11.3965   13.6900   23.1951 C   0  0  0  0  0  0  0  0  0  0  0  0
   11.8300   13.2315   24.2510 O   0  0  0  0  0  0  0  0  0  0  0  0
    8.1073   13.3264   24.1515 C   0  0  0  0  0  0  0  0  0  0  0  0
  1  2  1  0
  2  3  3  0
  3  4  1  0
  4  5  2  0
  4  6  1  0
  6  7  1  0
  7  8  2  0
  8  9  1  0
  9 10  2  0
 10 11  1  0
 10 12  1  0
 12 13  1  0
 13 14  1  0
 14 15  1  0
 15 16  1  0
 16 17  2  0
 16 18  1  0
 18 19  1  0
 19 20  2  0
 12 21  2  0
 21  7  1  0
 19 13  1  0
M  END
>  <alias>  (466) 
None

>  <rmsd(smina/fragmenstein)>  (466) 
0.334

>  <smiles>  (466) 
CC#CC(=O)Nc1ccc(F)c(N2CCC(=O)NC2=O)c1

>  <gnina_score>  (466) 
5.348

>  <inspiration_score>  (466) 
None

>  <energy_score>  (466) 
-15.864867

>  <distance_score>  (466) 
1.215135

>  <gnina_score_min>  (466) 
5.34

>  <inchikey>  (466) 
LIWSUUGMSIMBMJ-UHFFFAOYSA-N

>  <exports>  (466) 
['/opt/xchem-fragalysis-2/maxwin/BulkDock/OUTPUTS/openbind_a71ev2a_c2_elabs_1LOUU54.sdf', '/opt/xchem-fragalysis-2/maxwin/BulkDock/OUTPUTS/openbind_a71ev2a_c2_elabs_1LSYIDY.sdf']

>  <name>  (466) 
P545705

>  <ref_pdb>  (466) 
A0884a

>  <subsites>  (466) 
None

>  <HIPPO Pose ID>  (466) 
545705

>  <ref_mols>  (466) 
A0884a

>  <HIPPO Compound ID>  (466) 
384224

>  <tags>  (466) 
openbind_a71ev2a_c2_elabs,syndirella_product,openbind_a71ev2a_c2_elabs_fragonly_scored_top80percent,openbind_a71ev2a_c2_elabs_scored,BulkDock Fragalysis export,openbind_a71ev2a_c2_elabs_scored_top80percent,openbind_a71ev2a_c2_elabs_activefrags_only_scored_5.2plus,syndirella_placed

>  <smina_score_min>  (466) 
-6.83

$$$$
P545706
     RDKit          3D

 21 22  0  0  0  0  0  0  0  0999 V2000
    2.6780   13.9054   28.8584 C   0  0  0  0  0  0  0  0  0  0  0  0
    3.7138   13.1104   28.1991 C   0  0  0  0  0  0  0  0  0  0  0  0
    4.5681   12.4594   27.6595 C   0  0  0  0  0  0  0  0  0  0  0  0
    5.6028   11.6865   26.9958 C   0  0  0  0  0  0  0  0  0  0  0  0
    5.7076   10.5555   27.2510 O   0  0  0  0  0  0  0  0  0  0  0  0
    6.4074   12.5686   26.0277 N   0  0  0  0  0  0  0  0  0  0  0  0
    7.4233   12.2346   25.1220 C   0  0  0  0  0  0  0  0  0  0  0  0
    7.8130   10.9006   24.9700 C   0  0  0  0  0  0  0  0  0  0  0  0
    8.8675   10.5619   24.1272 C   0  0  0  0  0  0  0  0  0  0  0  0
    9.5753   11.5639   23.4749 C   0  0  0  0  0  0  0  0  0  0  0  0
    9.2071   12.9110   23.6132 C   0  0  0  0  0  0  0  0  0  0  0  0
   10.0226   13.9101   22.9820 N   0  0  0  0  0  0  0  0  0  0  0  0
    9.5851   14.3357   21.6496 C   0  0  0  0  0  0  0  0  0  0  0  0
   10.5239   15.2719   20.9357 C   0  0  0  0  0  0  0  0  0  0  0  0
   11.9098   14.7505   21.1309 C   0  0  0  0  0  0  0  0  0  0  0  0
   12.6916   14.5235   20.2127 O   0  0  0  0  0  0  0  0  0  0  0  0
   12.2275   14.5400   22.4423 N   0  0  0  0  0  0  0  0  0  0  0  0
   11.3721   13.9514   23.3320 C   0  0  0  0  0  0  0  0  0  0  0  0
   11.8219   13.4796   24.3777 O   0  0  0  0  0  0  0  0  0  0  0  0
    8.0786   13.2550   24.3903 C   0  0  0  0  0  0  0  0  0  0  0  0
    7.6539   14.6925   24.5387 C   0  0  0  0  0  0  0  0  0  0  0  0
  1  2  1  0
  2  3  3  0
  3  4  1  0
  4  5  2  0
  4  6  1  0
  6  7  1  0
  7  8  2  0
  8  9  1  0
  9 10  2  0
 10 11  1  0
 11 12  1  0
 12 13  1  0
 13 14  1  0
 14 15  1  0
 15 16  2  0
 15 17  1  0
 17 18  1  0
 18 19  2  0
 11 20  2  0
 20 21  1  0
 20  7  1  0
 18 12  1  0
M  END
>  <alias>  (467) 
None

>  <rmsd(smina/fragmenstein)>  (467) 
0.397

>  <smiles>  (467) 
CC#CC(=O)Nc1cccc(N2CCC(=O)NC2=O)c1C

>  <gnina_score>  (467) 
5.268

>  <inspiration_score>  (467) 
None

>  <energy_score>  (467) 
-17.959631

>  <distance_score>  (467) 
1.169522

>  <gnina_score_min>  (467) 
5.201

>  <inchikey>  (467) 
AYSGJVVMGQUEDU-UHFFFAOYSA-N

>  <exports>  (467) 
['/opt/xchem-fragalysis-2/maxwin/BulkDock/OUTPUTS/openbind_a71ev2a_c2_elabs_1LOUU54.sdf', '/opt/xchem-fragalysis-2/maxwin/BulkDock/OUTPUTS/openbind_a71ev2a_c2_elabs_1LSYIDY.sdf']

>  <name>  (467) 
P545706

>  <ref_pdb>  (467) 
A0884a

>  <subsites>  (467) 
None

>  <HIPPO Pose ID>  (467) 
545706

>  <ref_mols>  (467) 
A0884a

>  <HIPPO Compound ID>  (467) 
384225

>  <tags>  (467) 
openbind_a71ev2a_c2_elabs,syndirella_product,openbind_a71ev2a_c2_elabs_fragonly_scored_top80percent,openbind_a71ev2a_c2_elabs_scored,BulkDock Fragalysis export,openbind_a71ev2a_c2_elabs_scored_top80percent,openbind_a71ev2a_c2_elabs_activefrags_only_scored_5.2plus,syndirella_placed

>  <smina_score_min>  (467) 
-7.142

$$$$
P545708
     RDKit          3D

 21 22  0  0  0  0  0  0  0  0999 V2000
    2.5015   15.1027   27.9531 C   0  0  0  0  0  0  0  0  0  0  0  0
    3.5347   14.1753   27.4931 C   0  0  0  0  0  0  0  0  0  0  0  0
    4.3844   13.4175   27.1076 C   0  0  0  0  0  0  0  0  0  0  0  0
    5.4154   12.5171   26.6239 C   0  0  0  0  0  0  0  0  0  0  0  0
    5.4231   11.4168   27.0075 O   0  0  0  0  0  0  0  0  0  0  0  0
    6.3757   13.2475   25.6691 N   0  0  0  0  0  0  0  0  0  0  0  0
    7.4567   12.7706   24.9350 C   0  0  0  0  0  0  0  0  0  0  0  0
    7.7560   11.4103   24.8579 C   0  0  0  0  0  0  0  0  0  0  0  0
    8.8473   10.9781   24.0944 C   0  0  0  0  0  0  0  0  0  0  0  0
    9.1418    9.5428   23.8678 C   0  0  0  0  0  0  0  0  0  0  0  0
    9.6617   11.9049   23.4616 C   0  0  0  0  0  0  0  0  0  0  0  0
    9.3684   13.2589   23.5473 C   0  0  0  0  0  0  0  0  0  0  0  0
   10.1873   14.1815   22.8552 N   0  0  0  0  0  0  0  0  0  0  0  0
    9.6599   14.5913   21.5518 C   0  0  0  0  0  0  0  0  0  0  0  0
   10.6226   15.3808   20.7111 C   0  0  0  0  0  0  0  0  0  0  0  0
   11.9871   14.7906   20.8840 C   0  0  0  0  0  0  0  0  0  0  0  0
   12.6995   14.4183   19.9570 O   0  0  0  0  0  0  0  0  0  0  0  0
   12.3721   14.7118   22.1906 N   0  0  0  0  0  0  0  0  0  0  0  0
   11.5498   14.1659   23.1304 C   0  0  0  0  0  0  0  0  0  0  0  0
   12.0322   13.6718   24.1515 O   0  0  0  0  0  0  0  0  0  0  0  0
    8.2471   13.6938   24.2496 C   0  0  0  0  0  0  0  0  0  0  0  0
  1  2  1  0
  2  3  3  0
  3  4  1  0
  4  5  2  0
  4  6  1  0
  6  7  1  0
  7  8  2  0
  8  9  1  0
  9 10  1  0
  9 11  2  0
 11 12  1  0
 12 13  1  0
 13 14  1  0
 14 15  1  0
 15 16  1  0
 16 17  2  0
 16 18  1  0
 18 19  1  0
 19 20  2  0
 12 21  2  0
 21  7  1  0
 19 13  1  0
M  END
>  <alias>  (468) 
None

>  <rmsd(smina/fragmenstein)>  (468) 
0.654

>  <smiles>  (468) 
CC#CC(=O)Nc1cc(C)cc(N2CCC(=O)NC2=O)c1

>  <gnina_score>  (468) 
5.402

>  <inspiration_score>  (468) 
None

>  <energy_score>  (468) 
-26.726127

>  <distance_score>  (468) 
1.302699

>  <gnina_score_min>  (468) 
5.451

>  <inchikey>  (468) 
IEXPRUMHFGRDOF-UHFFFAOYSA-N

>  <exports>  (468) 
['/opt/xchem-fragalysis-2/maxwin/BulkDock/OUTPUTS/openbind_a71ev2a_c2_elabs_1LOUU54.sdf', '/opt/xchem-fragalysis-2/maxwin/BulkDock/OUTPUTS/openbind_a71ev2a_c2_elabs_1LSYIDY.sdf']

>  <name>  (468) 
P545708

>  <ref_pdb>  (468) 
A0884a

>  <subsites>  (468) 
None

>  <HIPPO Pose ID>  (468) 
545708

>  <ref_mols>  (468) 
A0884a

>  <HIPPO Compound ID>  (468) 
384227

>  <tags>  (468) 
openbind_a71ev2a_c2_elabs,syndirella_product,openbind_a71ev2a_c2_elabs_fragonly_scored_top80percent,openbind_a71ev2a_c2_elabs_scored,BulkDock Fragalysis export,openbind_a71ev2a_c2_elabs_scored_top80percent,openbind_a71ev2a_c2_elabs_activefrags_only_scored_5.2plus,syndirella_placed

>  <smina_score_min>  (468) 
-6.875

$$$$
P545709
     RDKit          3D

 21 22  0  0  0  0  0  0  0  0999 V2000
    2.8248   15.0304   28.4223 C   0  0  0  0  0  0  0  0  0  0  0  0
    3.7630   14.0903   27.8091 C   0  0  0  0  0  0  0  0  0  0  0  0
    4.5341   13.3211   27.3006 C   0  0  0  0  0  0  0  0  0  0  0  0
    5.4696   12.4072   26.6710 C   0  0  0  0  0  0  0  0  0  0  0  0
    5.3967   11.2716   26.9202 O   0  0  0  0  0  0  0  0  0  0  0  0
    6.4075   13.1597   25.7117 N   0  0  0  0  0  0  0  0  0  0  0  0
    7.4805   12.7027   24.9527 C   0  0  0  0  0  0  0  0  0  0  0  0
    7.7981   11.3477   24.8572 C   0  0  0  0  0  0  0  0  0  0  0  0
    8.8790   10.9625   24.0686 C   0  0  0  0  0  0  0  0  0  0  0  0
    9.2561    9.3354   23.7889 Cl  0  0  0  0  0  0  0  0  0  0  0  0
    9.6771   11.8937   23.4356 C   0  0  0  0  0  0  0  0  0  0  0  0
    9.3665   13.2401   23.5419 C   0  0  0  0  0  0  0  0  0  0  0  0
   10.1737   14.1827   22.8615 N   0  0  0  0  0  0  0  0  0  0  0  0
    9.6520   14.5914   21.5550 C   0  0  0  0  0  0  0  0  0  0  0  0
   10.6150   15.3868   20.7197 C   0  0  0  0  0  0  0  0  0  0  0  0
   11.9805   14.7998   20.8963 C   0  0  0  0  0  0  0  0  0  0  0  0
   12.6953   14.4279   19.9714 O   0  0  0  0  0  0  0  0  0  0  0  0
   12.3615   14.7203   22.2042 N   0  0  0  0  0  0  0  0  0  0  0  0
   11.5368   14.1751   23.1416 C   0  0  0  0  0  0  0  0  0  0  0  0
   12.0118   13.6821   24.1668 O   0  0  0  0  0  0  0  0  0  0  0  0
    8.2482   13.6481   24.2658 C   0  0  0  0  0  0  0  0  0  0  0  0
  1  2  1  0
  2  3  3  0
  3  4  1  0
  4  5  2  0
  4  6  1  0
  6  7  1  0
  7  8  2  0
  8  9  1  0
  9 10  1  0
  9 11  2  0
 11 12  1  0
 12 13  1  0
 13 14  1  0
 14 15  1  0
 15 16  1  0
 16 17  2  0
 16 18  1  0
 18 19  1  0
 19 20  2  0
 12 21  2  0
 21  7  1  0
 19 13  1  0
M  END
>  <alias>  (469) 
None

>  <rmsd(smina/fragmenstein)>  (469) 
0.622

>  <smiles>  (469) 
CC#CC(=O)Nc1cc(Cl)cc(N2CCC(=O)NC2=O)c1

>  <gnina_score>  (469) 
5.358

>  <inspiration_score>  (469) 
None

>  <energy_score>  (469) 
-25.014663

>  <distance_score>  (469) 
1.269945

>  <gnina_score_min>  (469) 
5.477

>  <inchikey>  (469) 
YYBJARVFHTWQLE-UHFFFAOYSA-N

>  <exports>  (469) 
['/opt/xchem-fragalysis-2/maxwin/BulkDock/OUTPUTS/openbind_a71ev2a_c2_elabs_1LOUU54.sdf', '/opt/xchem-fragalysis-2/maxwin/BulkDock/OUTPUTS/openbind_a71ev2a_c2_elabs_1LSYIDY.sdf']

>  <name>  (469) 
P545709

>  <ref_pdb>  (469) 
A0884a

>  <subsites>  (469) 
None

>  <HIPPO Pose ID>  (469) 
545709

>  <ref_mols>  (469) 
A0884a

>  <HIPPO Compound ID>  (469) 
384228

>  <tags>  (469) 
openbind_a71ev2a_c2_elabs,syndirella_product,openbind_a71ev2a_c2_elabs_fragonly_scored_top80percent,openbind_a71ev2a_c2_elabs_scored,BulkDock Fragalysis export,openbind_a71ev2a_c2_elabs_scored_top80percent,openbind_a71ev2a_c2_elabs_activefrags_only_scored_5.2plus,syndirella_placed

>  <smina_score_min>  (469) 
-6.91

$$$$
P545710
     RDKit          3D

 21 22  0  0  0  0  0  0  0  0999 V2000
    2.2363   14.0830   27.9215 C   0  0  0  0  0  0  0  0  0  0  0  0
    3.4170   14.0682   27.0594 C   0  0  0  0  0  0  0  0  0  0  0  0
    4.3837   14.0860   26.3451 C   0  0  0  0  0  0  0  0  0  0  0  0
    5.5521   14.1132   25.4821 C   0  0  0  0  0  0  0  0  0  0  0  0
    5.8363   15.1088   24.9532 O   0  0  0  0  0  0  0  0  0  0  0  0
    6.2091   12.7279   25.4148 N   0  0  0  0  0  0  0  0  0  0  0  0
    7.3723   12.3095   24.7777 C   0  0  0  0  0  0  0  0  0  0  0  0
    8.1667   13.1786   24.0312 C   0  0  0  0  0  0  0  0  0  0  0  0
    9.3279   12.7006   23.4172 C   0  0  0  0  0  0  0  0  0  0  0  0
   10.1776   13.5579   22.6754 N   0  0  0  0  0  0  0  0  0  0  0  0
    9.5886   14.4857   21.7212 C   0  0  0  0  0  0  0  0  0  0  0  0
   10.5518   14.9679   20.6557 C   0  0  0  0  0  0  0  0  0  0  0  0
   11.9710   14.6267   20.9896 C   0  0  0  0  0  0  0  0  0  0  0  0
   12.8197   14.4197   20.1261 O   0  0  0  0  0  0  0  0  0  0  0  0
   12.2475   14.5717   22.3215 N   0  0  0  0  0  0  0  0  0  0  0  0
   11.4792   13.7721   23.1201 C   0  0  0  0  0  0  0  0  0  0  0  0
   11.9586   13.2725   24.1373 O   0  0  0  0  0  0  0  0  0  0  0  0
    9.6496   11.3417   23.5031 C   0  0  0  0  0  0  0  0  0  0  0  0
    8.8394   10.4655   24.2152 C   0  0  0  0  0  0  0  0  0  0  0  0
    7.7265   10.9635   24.8729 C   0  0  0  0  0  0  0  0  0  0  0  0
    6.9582   10.1288   25.5863 F   0  0  0  0  0  0  0  0  0  0  0  0
  1  2  1  0
  2  3  3  0
  3  4  1  0
  4  5  2  0
  4  6  1  0
  6  7  1  0
  7  8  2  0
  8  9  1  0
  9 10  1  0
 10 11  1  0
 11 12  1  0
 12 13  1  0
 13 14  2  0
 13 15  1  0
 15 16  1  0
 16 17  2  0
  9 18  2  0
 18 19  1  0
 19 20  2  0
 20 21  1  0
 20  7  1  0
 16 10  1  0
M  END
>  <alias>  (470) 
None

>  <rmsd(smina/fragmenstein)>  (470) 
0.301

>  <smiles>  (470) 
CC#CC(=O)Nc1cc(N2CCC(=O)NC2=O)ccc1F

>  <gnina_score>  (470) 
5.379

>  <inspiration_score>  (470) 
None

>  <energy_score>  (470) 
-34.564082

>  <distance_score>  (470) 
1.521397

>  <gnina_score_min>  (470) 
5.405

>  <inchikey>  (470) 
UFIWQXSZQTTWDN-UHFFFAOYSA-N

>  <exports>  (470) 
['/opt/xchem-fragalysis-2/maxwin/BulkDock/OUTPUTS/openbind_a71ev2a_c2_elabs_1LOUU54.sdf', '/opt/xchem-fragalysis-2/maxwin/BulkDock/OUTPUTS/openbind_a71ev2a_c2_elabs_1LSYIDY.sdf']

>  <name>  (470) 
P545710

>  <ref_pdb>  (470) 
A0884a

>  <subsites>  (470) 
None

>  <HIPPO Pose ID>  (470) 
545710

>  <ref_mols>  (470) 
A0884a

>  <HIPPO Compound ID>  (470) 
384229

>  <tags>  (470) 
openbind_a71ev2a_c2_elabs,syndirella_product,openbind_a71ev2a_c2_elabs_fragonly_scored_top80percent,openbind_a71ev2a_c2_elabs_scored,BulkDock Fragalysis export,openbind_a71ev2a_c2_elabs_scored_top80percent,openbind_a71ev2a_c2_elabs_activefrags_only_scored_5.2plus,syndirella_placed

>  <smina_score_min>  (470) 
-7.301

$$$$
P545711
     RDKit          3D

 21 22  0  0  0  0  0  0  0  0999 V2000
    2.4222   17.1474   27.1912 C   0  0  0  0  0  0  0  0  0  0  0  0
    3.2440   15.9602   26.9590 C   0  0  0  0  0  0  0  0  0  0  0  0
    3.9209   14.9866   26.7620 C   0  0  0  0  0  0  0  0  0  0  0  0
    4.7527   13.8222   26.5069 C   0  0  0  0  0  0  0  0  0  0  0  0
    4.3994   12.7831   26.9819 O   0  0  0  0  0  0  0  0  0  0  0  0
    5.8907   14.1450   25.7037 N   0  0  0  0  0  0  0  0  0  0  0  0
    6.8837   13.3332   25.1543 C   0  0  0  0  0  0  0  0  0  0  0  0
    6.9483   11.9670   25.4079 C   0  0  0  0  0  0  0  0  0  0  0  0
    7.9309   11.1911   24.7946 C   0  0  0  0  0  0  0  0  0  0  0  0
    8.8795   11.7688   23.9346 C   0  0  0  0  0  0  0  0  0  0  0  0
    9.7946   10.8230   23.2105 C   0  0  0  0  0  0  0  0  0  0  0  0
    8.8651   13.1651   23.7389 C   0  0  0  0  0  0  0  0  0  0  0  0
    9.8547   13.8555   22.9701 N   0  0  0  0  0  0  0  0  0  0  0  0
    9.4039   14.4806   21.7270 C   0  0  0  0  0  0  0  0  0  0  0  0
   10.4610   15.2233   20.9455 C   0  0  0  0  0  0  0  0  0  0  0  0
   11.8007   14.5822   21.1116 C   0  0  0  0  0  0  0  0  0  0  0  0
   12.6071   14.4503   20.1957 O   0  0  0  0  0  0  0  0  0  0  0  0
   12.0955   14.2263   22.3953 N   0  0  0  0  0  0  0  0  0  0  0  0
   11.1967   13.7126   23.2858 C   0  0  0  0  0  0  0  0  0  0  0  0
   11.6197   13.1727   24.3088 O   0  0  0  0  0  0  0  0  0  0  0  0
    7.8398   13.9259   24.3232 C   0  0  0  0  0  0  0  0  0  0  0  0
  1  2  1  0
  2  3  3  0
  3  4  1  0
  4  5  2  0
  4  6  1  0
  6  7  1  0
  7  8  2  0
  8  9  1  0
  9 10  2  0
 10 11  1  0
 10 12  1  0
 12 13  1  0
 13 14  1  0
 14 15  1  0
 15 16  1  0
 16 17  2  0
 16 18  1  0
 18 19  1  0
 19 20  2  0
 12 21  2  0
 21  7  1  0
 19 13  1  0
M  END
>  <alias>  (471) 
None

>  <rmsd(smina/fragmenstein)>  (471) 
0.381

>  <smiles>  (471) 
CC#CC(=O)Nc1ccc(C)c(N2CCC(=O)NC2=O)c1

>  <gnina_score>  (471) 
5.326

>  <inspiration_score>  (471) 
None

>  <energy_score>  (471) 
-22.559699

>  <distance_score>  (471) 
1.821252

>  <gnina_score_min>  (471) 
5.303

>  <inchikey>  (471) 
VCOWRPJJNRFHAU-UHFFFAOYSA-N

>  <exports>  (471) 
['/opt/xchem-fragalysis-2/maxwin/BulkDock/OUTPUTS/openbind_a71ev2a_c2_elabs_1LOUU54.sdf', '/opt/xchem-fragalysis-2/maxwin/BulkDock/OUTPUTS/openbind_a71ev2a_c2_elabs_1LSYIDY.sdf']

>  <name>  (471) 
P545711

>  <ref_pdb>  (471) 
A0884a

>  <subsites>  (471) 
None

>  <HIPPO Pose ID>  (471) 
545711

>  <ref_mols>  (471) 
A0884a

>  <HIPPO Compound ID>  (471) 
384230

>  <tags>  (471) 
openbind_a71ev2a_c2_elabs,syndirella_product,openbind_a71ev2a_c2_elabs_fragonly_scored_top80percent,openbind_a71ev2a_c2_elabs_scored,BulkDock Fragalysis export,openbind_a71ev2a_c2_elabs_scored_top80percent,openbind_a71ev2a_c2_elabs_activefrags_only_scored_5.2plus,syndirella_placed

>  <smina_score_min>  (471) 
-6.779

$$$$
P545712
     RDKit          3D

 21 22  0  0  0  0  0  0  0  0999 V2000
    2.8946   12.4319   28.9520 C   0  0  0  0  0  0  0  0  0  0  0  0
    3.9783   12.7880   28.0369 C   0  0  0  0  0  0  0  0  0  0  0  0
    4.8660   13.1097   27.2928 C   0  0  0  0  0  0  0  0  0  0  0  0
    5.9429   13.5007   26.3993 C   0  0  0  0  0  0  0  0  0  0  0  0
    6.1713   14.6322   26.2531 O   0  0  0  0  0  0  0  0  0  0  0  0
    6.5990   12.2615   25.7682 N   0  0  0  0  0  0  0  0  0  0  0  0
    7.7002   12.1525   24.9242 C   0  0  0  0  0  0  0  0  0  0  0  0
    8.1549   10.8677   24.6097 C   0  0  0  0  0  0  0  0  0  0  0  0
    9.2493   10.7265   23.7682 C   0  0  0  0  0  0  0  0  0  0  0  0
    9.9481    9.0811   23.2478 Br  0  0  0  0  0  0  0  0  0  0  0  0
    9.8936   11.8300   23.2561 C   0  0  0  0  0  0  0  0  0  0  0  0
    9.4522   13.1061   23.5692 C   0  0  0  0  0  0  0  0  0  0  0  0
   10.1417   14.1951   22.9700 N   0  0  0  0  0  0  0  0  0  0  0  0
    9.5946   14.5857   21.6628 C   0  0  0  0  0  0  0  0  0  0  0  0
   10.5257   15.3930   20.7981 C   0  0  0  0  0  0  0  0  0  0  0  0
   11.9081   14.8465   20.9669 C   0  0  0  0  0  0  0  0  0  0  0  0
   12.6272   14.4825   20.0428 O   0  0  0  0  0  0  0  0  0  0  0  0
   12.3075   14.8026   22.2708 N   0  0  0  0  0  0  0  0  0  0  0  0
   11.5109   14.2536   23.2300 C   0  0  0  0  0  0  0  0  0  0  0  0
   12.0208   13.7947   24.2547 O   0  0  0  0  0  0  0  0  0  0  0  0
    8.3426   13.2791   24.3929 C   0  0  0  0  0  0  0  0  0  0  0  0
  1  2  1  0
  2  3  3  0
  3  4  1  0
  4  5  2  0
  4  6  1  0
  6  7  1  0
  7  8  2  0
  8  9  1  0
  9 10  1  0
  9 11  2  0
 11 12  1  0
 12 13  1  0
 13 14  1  0
 14 15  1  0
 15 16  1  0
 16 17  2  0
 16 18  1  0
 18 19  1  0
 19 20  2  0
 12 21  2  0
 21  7  1  0
 19 13  1  0
M  END
>  <alias>  (472) 
None

>  <rmsd(smina/fragmenstein)>  (472) 
0.502

>  <smiles>  (472) 
CC#CC(=O)Nc1cc(Br)cc(N2CCC(=O)NC2=O)c1

>  <gnina_score>  (472) 
5.559

>  <inspiration_score>  (472) 
None

>  <energy_score>  (472) 
-4.162304

>  <distance_score>  (472) 
1.213451

>  <gnina_score_min>  (472) 
5.584

>  <inchikey>  (472) 
WMJHTXYGAXDYDX-UHFFFAOYSA-N

>  <exports>  (472) 
['/opt/xchem-fragalysis-2/maxwin/BulkDock/OUTPUTS/openbind_a71ev2a_c2_elabs_1LOUU54.sdf', '/opt/xchem-fragalysis-2/maxwin/BulkDock/OUTPUTS/openbind_a71ev2a_c2_elabs_1LSYIDY.sdf']

>  <name>  (472) 
P545712

>  <ref_pdb>  (472) 
A0884a

>  <subsites>  (472) 
None

>  <HIPPO Pose ID>  (472) 
545712

>  <ref_mols>  (472) 
A0884a

>  <HIPPO Compound ID>  (472) 
384233

>  <tags>  (472) 
openbind_a71ev2a_c2_elabs,syndirella_product,openbind_a71ev2a_c2_elabs_fragonly_scored_top80percent,BulkDock Fragalysis export,openbind_a71ev2a_c2_elabs_scored,openbind_a71ev2a_c2_elabs_scored_top80percent,openbind_a71ev2a_c2_elabs_activefrags_only_scored_5.2plus,openbind_a71ev2a_c2_elabs_activefrags_only_scored_5.5plus,syndirella_placed

>  <smina_score_min>  (472) 
-6.455

$$$$
P545713
     RDKit          3D

 21 22  0  0  0  0  0  0  0  0999 V2000
    3.2060   12.9506   29.8305 C   0  0  0  0  0  0  0  0  0  0  0  0
    4.3679   13.0947   28.9541 C   0  0  0  0  0  0  0  0  0  0  0  0
    5.3255   13.2380   28.2417 C   0  0  0  0  0  0  0  0  0  0  0  0
    6.4811   13.4125   27.3798 C   0  0  0  0  0  0  0  0  0  0  0  0
    7.2085   14.2992   27.5848 O   0  0  0  0  0  0  0  0  0  0  0  0
    6.5270   12.3111   26.3035 N   0  0  0  0  0  0  0  0  0  0  0  0
    7.4989   12.0218   25.3407 C   0  0  0  0  0  0  0  0  0  0  0  0
    7.6257   10.6655   25.0213 C   0  0  0  0  0  0  0  0  0  0  0  0
    8.6062   10.2252   24.1397 C   0  0  0  0  0  0  0  0  0  0  0  0
    9.4711   11.1328   23.5617 C   0  0  0  0  0  0  0  0  0  0  0  0
    9.3512   12.4941   23.8547 C   0  0  0  0  0  0  0  0  0  0  0  0
   10.3756   13.3173   23.3365 N   0  0  0  0  0  0  0  0  0  0  0  0
   11.4555   13.5994   24.1417 C   0  0  0  0  0  0  0  0  0  0  0  0
   11.4410   13.7338   25.3606 O   0  0  0  0  0  0  0  0  0  0  0  0
   12.7034   13.7712   23.3501 C   0  0  0  0  0  0  0  0  0  0  0  0
   12.4653   14.9522   22.4627 C   0  0  0  0  0  0  0  0  0  0  0  0
   11.2742   14.7275   21.7056 N   0  0  0  0  0  0  0  0  0  0  0  0
   10.2250   13.9774   22.1391 C   0  0  0  0  0  0  0  0  0  0  0  0
    9.2114   13.9687   21.4546 O   0  0  0  0  0  0  0  0  0  0  0  0
    8.3296   12.9655   24.7109 C   0  0  0  0  0  0  0  0  0  0  0  0
    8.1195   14.4431   24.8676 C   0  0  0  0  0  0  0  0  0  0  0  0
  1  2  1  0
  2  3  3  0
  3  4  1  0
  4  5  2  0
  4  6  1  0
  6  7  1  0
  7  8  2  0
  8  9  1  0
  9 10  2  0
 10 11  1  0
 11 12  1  0
 12 13  1  0
 13 14  2  0
 13 15  1  0
 15 16  1  0
 16 17  1  0
 17 18  1  0
 18 19  2  0
 11 20  2  0
 20 21  1  0
 20  7  1  0
 18 12  1  0
M  END
>  <alias>  (473) 
None

>  <rmsd(smina/fragmenstein)>  (473) 
0.458

>  <smiles>  (473) 
CC#CC(=O)Nc1cccc(N2C(=O)CCNC2=O)c1C

>  <gnina_score>  (473) 
5.227

>  <inspiration_score>  (473) 
None

>  <energy_score>  (473) 
-3.115772

>  <distance_score>  (473) 
1.693777

>  <gnina_score_min>  (473) 
5.342

>  <inchikey>  (473) 
HZPVGZJYYJFUDE-UHFFFAOYSA-N

>  <exports>  (473) 
['/opt/xchem-fragalysis-2/maxwin/BulkDock/OUTPUTS/openbind_a71ev2a_c2_elabs_1LOUU54.sdf', '/opt/xchem-fragalysis-2/maxwin/BulkDock/OUTPUTS/openbind_a71ev2a_c2_elabs_1LSYIDY.sdf']

>  <name>  (473) 
P545713

>  <ref_pdb>  (473) 
A0884a

>  <subsites>  (473) 
None

>  <HIPPO Pose ID>  (473) 
545713

>  <ref_mols>  (473) 
A0884a

>  <HIPPO Compound ID>  (473) 
384234

>  <tags>  (473) 
openbind_a71ev2a_c2_elabs,syndirella_product,openbind_a71ev2a_c2_elabs_fragonly_scored_top80percent,openbind_a71ev2a_c2_elabs_scored,BulkDock Fragalysis export,openbind_a71ev2a_c2_elabs_scored_top80percent,openbind_a71ev2a_c2_elabs_activefrags_only_scored_5.2plus,syndirella_placed

>  <smina_score_min>  (473) 
-6.515

$$$$
P545714
     RDKit          3D

 21 22  0  0  0  0  0  0  0  0999 V2000
    3.9345   15.1142   28.2790 C   0  0  0  0  0  0  0  0  0  0  0  0
    3.3104   14.9555   26.8902 C   0  0  0  0  0  0  0  0  0  0  0  0
    2.3757   16.1335   26.6080 C   0  0  0  0  0  0  0  0  0  0  0  0
    4.3884   14.8653   25.7985 C   0  0  0  0  0  0  0  0  0  0  0  0
    5.1312   13.5272   25.7874 C   0  0  0  0  0  0  0  0  0  0  0  0
    4.8438   12.6048   26.4487 O   0  0  0  0  0  0  0  0  0  0  0  0
    6.2452   13.6874   24.7035 N   0  0  0  0  0  0  0  0  0  0  0  0
    7.2470   12.8101   24.3025 C   0  0  0  0  0  0  0  0  0  0  0  0
    7.2811   11.4862   24.7527 C   0  0  0  0  0  0  0  0  0  0  0  0
    8.2645   10.6115   24.2920 C   0  0  0  0  0  0  0  0  0  0  0  0
    9.2865   11.0947   23.4842 C   0  0  0  0  0  0  0  0  0  0  0  0
    9.3575   12.4719   23.1946 C   0  0  0  0  0  0  0  0  0  0  0  0
   10.6469   13.0543   23.3517 N   0  0  0  0  0  0  0  0  0  0  0  0
   11.0996   12.9119   24.7112 C   0  0  0  0  0  0  0  0  0  0  0  0
   10.8772   14.1503   25.4953 C   0  0  0  0  0  0  0  0  0  0  0  0
   11.7564   15.1169   24.8722 C   0  0  0  0  0  0  0  0  0  0  0  0
   12.0677   16.0819   25.5808 O   0  0  0  0  0  0  0  0  0  0  0  0
   11.9409   14.9734   23.5085 N   0  0  0  0  0  0  0  0  0  0  0  0
   11.1030   14.2024   22.7178 C   0  0  0  0  0  0  0  0  0  0  0  0
   10.7792   14.5884   21.6053 O   0  0  0  0  0  0  0  0  0  0  0  0
    8.2605   13.2948   23.4736 C   0  0  0  0  0  0  0  0  0  0  0  0
  1  2  1  0
  2  3  1  0
  2  4  1  0
  4  5  1  0
  5  6  2  0
  5  7  1  0
  7  8  1  0
  8  9  2  0
  9 10  1  0
 10 11  2  0
 11 12  1  0
 12 13  1  0
 13 14  1  0
 14 15  1  0
 15 16  1  0
 16 17  2  0
 16 18  1  0
 18 19  1  0
 19 20  2  0
 12 21  2  0
 21  8  1  0
 19 13  1  0
M  END
>  <alias>  (474) 
None

>  <rmsd(smina/fragmenstein)>  (474) 
0.474

>  <smiles>  (474) 
CC(C)CC(=O)Nc1cccc(N2CCC(=O)NC2=O)c1

>  <gnina_score>  (474) 
5.183

>  <inspiration_score>  (474) 
None

>  <energy_score>  (474) 
-2.362384

>  <distance_score>  (474) 
1.653186

>  <gnina_score_min>  (474) 
5.365

>  <inchikey>  (474) 
SDIMTZGNMDUSBA-UHFFFAOYSA-N

>  <exports>  (474) 
['/opt/xchem-fragalysis-2/maxwin/BulkDock/OUTPUTS/openbind_a71ev2a_c2_elabs_1LOUU54.sdf', '/opt/xchem-fragalysis-2/maxwin/BulkDock/OUTPUTS/openbind_a71ev2a_c2_elabs_1LSYIDY.sdf']

>  <name>  (474) 
P545714

>  <ref_pdb>  (474) 
A0884a

>  <subsites>  (474) 
None

>  <HIPPO Pose ID>  (474) 
545714

>  <ref_mols>  (474) 
A0884a

>  <HIPPO Compound ID>  (474) 
384236

>  <tags>  (474) 
openbind_a71ev2a_c2_elabs,syndirella_product,openbind_a71ev2a_c2_elabs_fragonly_scored_top80percent,openbind_a71ev2a_c2_elabs_scored,BulkDock Fragalysis export,openbind_a71ev2a_c2_elabs_scored_top80percent,openbind_a71ev2a_c2_elabs_activefrags_only_scored_5.2plus,syndirella_placed

>  <smina_score_min>  (474) 
-4.411

$$$$
P545717
     RDKit          3D

 21 22  0  0  0  0  0  0  0  0999 V2000
    7.6293   14.7042   24.5570 C   0  0  0  0  0  0  0  0  0  0  0  0
    8.0047   13.2483   24.4752 C   0  0  0  0  0  0  0  0  0  0  0  0
    7.2975   12.2685   25.2135 C   0  0  0  0  0  0  0  0  0  0  0  0
    6.2829   12.6511   26.0970 N   0  0  0  0  0  0  0  0  0  0  0  0
    5.5318   11.8317   27.1928 C   0  0  0  0  0  0  0  0  0  0  0  0
    5.5957   10.6971   27.4665 O   0  0  0  0  0  0  0  0  0  0  0  0
    4.6125   12.8448   27.8841 C   0  0  0  0  0  0  0  0  0  0  0  0
    3.8748   12.3566   29.1417 C   0  0  0  0  0  0  0  0  0  0  0  0
    4.8323   11.9389   30.2582 C   0  0  0  0  0  0  0  0  0  0  0  0
    2.8570   11.2557   28.8476 C   0  0  0  0  0  0  0  0  0  0  0  0
    7.6341   10.9162   25.0933 C   0  0  0  0  0  0  0  0  0  0  0  0
    8.6798   10.5212   24.2660 C   0  0  0  0  0  0  0  0  0  0  0  0
    9.4353   11.4858   23.6203 C   0  0  0  0  0  0  0  0  0  0  0  0
   10.4404   11.0831   22.8392 F   0  0  0  0  0  0  0  0  0  0  0  0
    9.1413   12.8491   23.7382 C   0  0  0  0  0  0  0  0  0  0  0  0
   10.0392   13.8173   23.2141 N   0  0  0  0  0  0  0  0  0  0  0  0
    9.9045   14.3113   21.8588 C   0  0  0  0  0  0  0  0  0  0  0  0
   11.2775   14.8695   21.5123 C   0  0  0  0  0  0  0  0  0  0  0  0
   12.1373   14.3366   22.5248 N   0  0  0  0  0  0  0  0  0  0  0  0
   11.4054   13.7691   23.5515 C   0  0  0  0  0  0  0  0  0  0  0  0
   11.8870   13.3523   24.5930 O   0  0  0  0  0  0  0  0  0  0  0  0
  1  2  1  0
  2  3  2  0
  3  4  1  0
  4  5  1  0
  5  6  2  0
  5  7  1  0
  7  8  1  0
  8  9  1  0
  8 10  1  0
  3 11  1  0
 11 12  2  0
 12 13  1  0
 13 14  1  0
 13 15  2  0
 15 16  1  0
 16 17  1  0
 17 18  1  0
 18 19  1  0
 19 20  1  0
 20 21  2  0
 15  2  1  0
 20 16  1  0
M  END
>  <alias>  (475) 
None

>  <rmsd(smina/fragmenstein)>  (475) 
0.278

>  <smiles>  (475) 
Cc1c(NC(=O)CC(C)C)ccc(F)c1N1CCNC1=O

>  <gnina_score>  (475) 
5.313

>  <inspiration_score>  (475) 
None

>  <energy_score>  (475) 
-26.747226

>  <distance_score>  (475) 
1.207293

>  <gnina_score_min>  (475) 
5.348

>  <inchikey>  (475) 
RZQHBURPMBLNCM-UHFFFAOYSA-N

>  <exports>  (475) 
['/opt/xchem-fragalysis-2/maxwin/BulkDock/OUTPUTS/openbind_a71ev2a_c2_elabs_1LOUU54.sdf', '/opt/xchem-fragalysis-2/maxwin/BulkDock/OUTPUTS/openbind_a71ev2a_c2_elabs_1LSYIDY.sdf']

>  <name>  (475) 
P545717

>  <ref_pdb>  (475) 
A0884a

>  <subsites>  (475) 
None

>  <HIPPO Pose ID>  (475) 
545717

>  <ref_mols>  (475) 
A0884a

>  <HIPPO Compound ID>  (475) 
384238

>  <tags>  (475) 
openbind_a71ev2a_c2_elabs,syndirella_product,openbind_a71ev2a_c2_elabs_fragonly_scored_top80percent,openbind_a71ev2a_c2_elabs_scored,BulkDock Fragalysis export,openbind_a71ev2a_c2_elabs_scored_top80percent,openbind_a71ev2a_c2_elabs_activefrags_only_scored_5.2plus,syndirella_placed

>  <smina_score_min>  (475) 
-5.924

$$$$
P545720
     RDKit          3D

 21 22  0  0  0  0  0  0  0  0999 V2000
    7.7396   14.6568   24.5816 C   0  0  0  0  0  0  0  0  0  0  0  0
    8.1040   13.2043   24.4295 C   0  0  0  0  0  0  0  0  0  0  0  0
    7.4145   12.2063   25.1569 C   0  0  0  0  0  0  0  0  0  0  0  0
    6.4101   12.5719   26.0621 N   0  0  0  0  0  0  0  0  0  0  0  0
    5.5497   11.6994   27.0248 C   0  0  0  0  0  0  0  0  0  0  0  0
    5.6034   10.5564   27.2623 O   0  0  0  0  0  0  0  0  0  0  0  0
    4.5440   12.6664   27.6534 C   0  0  0  0  0  0  0  0  0  0  0  0
    3.6381   12.0046   28.7044 C   0  0  0  0  0  0  0  0  0  0  0  0
    2.4142   12.8824   28.9720 C   0  0  0  0  0  0  0  0  0  0  0  0
    4.3933   11.7552   30.0124 C   0  0  0  0  0  0  0  0  0  0  0  0
    7.7599   10.8612   25.0026 C   0  0  0  0  0  0  0  0  0  0  0  0
    8.8042   10.4892   24.1598 C   0  0  0  0  0  0  0  0  0  0  0  0
    9.5438   11.4667   23.5072 C   0  0  0  0  0  0  0  0  0  0  0  0
    9.2173   12.8220   23.6491 C   0  0  0  0  0  0  0  0  0  0  0  0
   10.0798   13.7904   23.0469 N   0  0  0  0  0  0  0  0  0  0  0  0
    9.7001   14.2657   21.7164 C   0  0  0  0  0  0  0  0  0  0  0  0
   10.6644   15.2521   21.0927 C   0  0  0  0  0  0  0  0  0  0  0  0
   12.0724   14.7613   21.3109 C   0  0  0  0  0  0  0  0  0  0  0  0
   12.2988   14.4527   22.6913 N   0  0  0  0  0  0  0  0  0  0  0  0
   11.3878   13.8575   23.5072 C   0  0  0  0  0  0  0  0  0  0  0  0
   11.7553   13.4514   24.6090 O   0  0  0  0  0  0  0  0  0  0  0  0
  1  2  1  0
  2  3  2  0
  3  4  1  0
  4  5  1  0
  5  6  2  0
  5  7  1  0
  7  8  1  0
  8  9  1  0
  8 10  1  0
  3 11  1  0
 11 12  2  0
 12 13  1  0
 13 14  2  0
 14 15  1  0
 15 16  1  0
 16 17  1  0
 17 18  1  0
 18 19  1  0
 19 20  1  0
 20 21  2  0
 14  2  1  0
 20 15  1  0
M  END
>  <alias>  (476) 
None

>  <rmsd(smina/fragmenstein)>  (476) 
0.489

>  <smiles>  (476) 
Cc1c(NC(=O)CC(C)C)cccc1N1CCCNC1=O

>  <gnina_score>  (476) 
5.174

>  <inspiration_score>  (476) 
None

>  <energy_score>  (476) 
-33.468914

>  <distance_score>  (476) 
1.164324

>  <gnina_score_min>  (476) 
5.219

>  <inchikey>  (476) 
NOTFQFQKRZGUPX-UHFFFAOYSA-N

>  <exports>  (476) 
['/opt/xchem-fragalysis-2/maxwin/BulkDock/OUTPUTS/openbind_a71ev2a_c2_elabs_1LOUU54.sdf', '/opt/xchem-fragalysis-2/maxwin/BulkDock/OUTPUTS/openbind_a71ev2a_c2_elabs_1LSYIDY.sdf']

>  <name>  (476) 
P545720

>  <ref_pdb>  (476) 
A0884a

>  <subsites>  (476) 
None

>  <HIPPO Pose ID>  (476) 
545720

>  <ref_mols>  (476) 
A0884a

>  <HIPPO Compound ID>  (476) 
384243

>  <tags>  (476) 
openbind_a71ev2a_c2_elabs,syndirella_product,openbind_a71ev2a_c2_elabs_fragonly_scored_top80percent,openbind_a71ev2a_c2_elabs_scored,BulkDock Fragalysis export,openbind_a71ev2a_c2_elabs_scored_top80percent,openbind_a71ev2a_c2_elabs_activefrags_only_scored_5.2plus,syndirella_placed

>  <smina_score_min>  (476) 
-6.667

$$$$
P545721
     RDKit          3D

 21 22  0  0  0  0  0  0  0  0999 V2000
    3.9889   13.5296   29.2860 C   0  0  0  0  0  0  0  0  0  0  0  0
    3.5680   13.8608   27.8519 C   0  0  0  0  0  0  0  0  0  0  0  0
    2.6861   15.1110   27.8498 C   0  0  0  0  0  0  0  0  0  0  0  0
    4.7899   14.0756   26.9441 C   0  0  0  0  0  0  0  0  0  0  0  0
    5.5132   12.7763   26.5826 C   0  0  0  0  0  0  0  0  0  0  0  0
    5.1454   11.7091   26.8890 O   0  0  0  0  0  0  0  0  0  0  0  0
    6.7557   13.2158   25.7481 N   0  0  0  0  0  0  0  0  0  0  0  0
    7.7045   12.4542   25.0697 C   0  0  0  0  0  0  0  0  0  0  0  0
    7.6501   11.0639   25.0353 C   0  0  0  0  0  0  0  0  0  0  0  0
    8.5889   10.3510   24.2842 C   0  0  0  0  0  0  0  0  0  0  0  0
    9.5980   11.0129   23.5864 C   0  0  0  0  0  0  0  0  0  0  0  0
    9.6891   12.4010   23.6617 C   0  0  0  0  0  0  0  0  0  0  0  0
   10.7386   13.0681   23.0007 N   0  0  0  0  0  0  0  0  0  0  0  0
   11.7916   13.5960   23.7021 C   0  0  0  0  0  0  0  0  0  0  0  0
   12.1495   13.3094   24.8381 O   0  0  0  0  0  0  0  0  0  0  0  0
   12.4057   14.7173   22.8918 C   0  0  0  0  0  0  0  0  0  0  0  0
   11.5567   14.7458   21.7635 N   0  0  0  0  0  0  0  0  0  0  0  0
   10.4769   13.9379   21.9848 C   0  0  0  0  0  0  0  0  0  0  0  0
    9.4275   14.1083   21.3928 O   0  0  0  0  0  0  0  0  0  0  0  0
    8.7323   13.1137   24.3920 C   0  0  0  0  0  0  0  0  0  0  0  0
    8.8199   14.4526   24.4803 F   0  0  0  0  0  0  0  0  0  0  0  0
  1  2  1  0
  2  3  1  0
  2  4  1  0
  4  5  1  0
  5  6  2  0
  5  7  1  0
  7  8  1  0
  8  9  2  0
  9 10  1  0
 10 11  2  0
 11 12  1  0
 12 13  1  0
 13 14  1  0
 14 15  2  0
 14 16  1  0
 16 17  1  0
 17 18  1  0
 18 19  2  0
 12 20  2  0
 20 21  1  0
 20  8  1  0
 18 13  1  0
M  END
>  <alias>  (477) 
None

>  <rmsd(smina/fragmenstein)>  (477) 
0.656

>  <smiles>  (477) 
CC(C)CC(=O)Nc1cccc(N2C(=O)CNC2=O)c1F

>  <gnina_score>  (477) 
5.312

>  <inspiration_score>  (477) 
None

>  <energy_score>  (477) 
-19.142192

>  <distance_score>  (477) 
1.589081

>  <gnina_score_min>  (477) 
5.309

>  <inchikey>  (477) 
HJYZXLLANNILPF-UHFFFAOYSA-N

>  <exports>  (477) 
['/opt/xchem-fragalysis-2/maxwin/BulkDock/OUTPUTS/openbind_a71ev2a_c2_elabs_1LOUU54.sdf', '/opt/xchem-fragalysis-2/maxwin/BulkDock/OUTPUTS/openbind_a71ev2a_c2_elabs_1LSYIDY.sdf']

>  <name>  (477) 
P545721

>  <ref_pdb>  (477) 
A0884a

>  <subsites>  (477) 
None

>  <HIPPO Pose ID>  (477) 
545721

>  <ref_mols>  (477) 
A0884a

>  <HIPPO Compound ID>  (477) 
384244

>  <tags>  (477) 
openbind_a71ev2a_c2_elabs,syndirella_product,openbind_a71ev2a_c2_elabs_fragonly_scored_top80percent,openbind_a71ev2a_c2_elabs_scored,BulkDock Fragalysis export,openbind_a71ev2a_c2_elabs_scored_top80percent,openbind_a71ev2a_c2_elabs_activefrags_only_scored_5.2plus,syndirella_placed

>  <smina_score_min>  (477) 
-6.332

$$$$
P545722
     RDKit          3D

 21 22  0  0  0  0  0  0  0  0999 V2000
    3.9674   13.1555   29.9560 C   0  0  0  0  0  0  0  0  0  0  0  0
    3.4939   13.7527   28.6283 C   0  0  0  0  0  0  0  0  0  0  0  0
    2.7365   15.0559   28.8907 C   0  0  0  0  0  0  0  0  0  0  0  0
    4.6735   14.0104   27.6768 C   0  0  0  0  0  0  0  0  0  0  0  0
    5.2509   12.7311   27.0670 C   0  0  0  0  0  0  0  0  0  0  0  0
    4.7897   11.6655   27.2108 O   0  0  0  0  0  0  0  0  0  0  0  0
    6.4795   13.1955   26.2233 N   0  0  0  0  0  0  0  0  0  0  0  0
    7.4050   12.4565   25.4939 C   0  0  0  0  0  0  0  0  0  0  0  0
    7.2964   11.0776   25.3449 C   0  0  0  0  0  0  0  0  0  0  0  0
    8.2238   10.3938   24.5615 C   0  0  0  0  0  0  0  0  0  0  0  0
    9.2583   11.0798   23.9397 C   0  0  0  0  0  0  0  0  0  0  0  0
   10.1329   10.3572   23.2300 F   0  0  0  0  0  0  0  0  0  0  0  0
    9.4273   12.4562   24.1301 C   0  0  0  0  0  0  0  0  0  0  0  0
   10.5267   13.1720   23.5636 N   0  0  0  0  0  0  0  0  0  0  0  0
   10.7384   13.0152   22.1457 C   0  0  0  0  0  0  0  0  0  0  0  0
   12.0014   13.6809   21.6240 C   0  0  0  0  0  0  0  0  0  0  0  0
   11.9660   15.0937   22.0850 C   0  0  0  0  0  0  0  0  0  0  0  0
   11.9054   15.0517   23.5107 N   0  0  0  0  0  0  0  0  0  0  0  0
   11.1506   14.1901   24.2453 C   0  0  0  0  0  0  0  0  0  0  0  0
   11.0652   14.3629   25.4588 O   0  0  0  0  0  0  0  0  0  0  0  0
    8.4702   13.1374   24.8955 C   0  0  0  0  0  0  0  0  0  0  0  0
  1  2  1  0
  2  3  1  0
  2  4  1  0
  4  5  1  0
  5  6  2  0
  5  7  1  0
  7  8  1  0
  8  9  2  0
  9 10  1  0
 10 11  2  0
 11 12  1  0
 11 13  1  0
 13 14  1  0
 14 15  1  0
 15 16  1  0
 16 17  1  0
 17 18  1  0
 18 19  1  0
 19 20  2  0
 13 21  2  0
 21  8  1  0
 19 14  1  0
M  END
>  <alias>  (478) 
None

>  <rmsd(smina/fragmenstein)>  (478) 
1.964

>  <smiles>  (478) 
CC(C)CC(=O)Nc1ccc(F)c(N2CCCNC2=O)c1

>  <gnina_score>  (478) 
4.346

>  <inspiration_score>  (478) 
None

>  <energy_score>  (478) 
-27.027185

>  <distance_score>  (478) 
1.323367

>  <gnina_score_min>  (478) 
5.217

>  <inchikey>  (478) 
ZTPQUMWPWMVMHM-UHFFFAOYSA-N

>  <exports>  (478) 
['/opt/xchem-fragalysis-2/maxwin/BulkDock/OUTPUTS/openbind_a71ev2a_c2_elabs_1LOUU54.sdf', '/opt/xchem-fragalysis-2/maxwin/BulkDock/OUTPUTS/openbind_a71ev2a_c2_elabs_1LSYIDY.sdf']

>  <name>  (478) 
P545722

>  <ref_pdb>  (478) 
A0884a

>  <subsites>  (478) 
None

>  <HIPPO Pose ID>  (478) 
545722

>  <ref_mols>  (478) 
A0884a

>  <HIPPO Compound ID>  (478) 
384245

>  <tags>  (478) 
openbind_a71ev2a_c2_elabs,syndirella_product,openbind_a71ev2a_c2_elabs_fragonly_scored_top80percent,openbind_a71ev2a_c2_elabs_scored,BulkDock Fragalysis export,openbind_a71ev2a_c2_elabs_scored_top80percent,openbind_a71ev2a_c2_elabs_activefrags_only_scored_5.2plus,syndirella_placed

>  <smina_score_min>  (478) 
-5.768

$$$$
P545723
     RDKit          3D

 21 22  0  0  0  0  0  0  0  0999 V2000
    3.7311   12.9010   28.6738 C   0  0  0  0  0  0  0  0  0  0  0  0
    4.6221   13.1248   27.7053 C   0  0  0  0  0  0  0  0  0  0  0  0
    4.8344   14.3778   27.2504 F   0  0  0  0  0  0  0  0  0  0  0  0
    5.4396   12.0392   27.0718 C   0  0  0  0  0  0  0  0  0  0  0  0
    5.3658   10.9192   27.3972 O   0  0  0  0  0  0  0  0  0  0  0  0
    6.3209   12.7154   25.9889 N   0  0  0  0  0  0  0  0  0  0  0  0
    7.3285   12.1846   25.1755 C   0  0  0  0  0  0  0  0  0  0  0  0
    7.5138   10.8030   25.1218 C   0  0  0  0  0  0  0  0  0  0  0  0
    8.5279   10.2544   24.3437 C   0  0  0  0  0  0  0  0  0  0  0  0
    9.4065   11.0792   23.6633 C   0  0  0  0  0  0  0  0  0  0  0  0
    9.2557   12.4686   23.7253 C   0  0  0  0  0  0  0  0  0  0  0  0
   10.3451   13.2213   23.2169 N   0  0  0  0  0  0  0  0  0  0  0  0
   11.3834   13.4839   24.0848 C   0  0  0  0  0  0  0  0  0  0  0  0
   11.2971   13.5657   25.3061 O   0  0  0  0  0  0  0  0  0  0  0  0
   12.6712   13.7170   23.3790 C   0  0  0  0  0  0  0  0  0  0  0  0
   12.4578   14.9307   22.5316 C   0  0  0  0  0  0  0  0  0  0  0  0
   11.3061   14.7291   21.7096 N   0  0  0  0  0  0  0  0  0  0  0  0
   10.2359   13.9683   22.0678 C   0  0  0  0  0  0  0  0  0  0  0  0
    9.2407   14.0281   21.3580 O   0  0  0  0  0  0  0  0  0  0  0  0
    8.1691   13.0382   24.4277 C   0  0  0  0  0  0  0  0  0  0  0  0
    7.9625   14.5261   24.4547 C   0  0  0  0  0  0  0  0  0  0  0  0
  1  2  2  0
  2  3  1  0
  2  4  1  0
  4  5  2  0
  4  6  1  0
  6  7  1  0
  7  8  2  0
  8  9  1  0
  9 10  2  0
 10 11  1  0
 11 12  1  0
 12 13  1  0
 13 14  2  0
 13 15  1  0
 15 16  1  0
 16 17  1  0
 17 18  1  0
 18 19  2  0
 11 20  2  0
 20 21  1  0
 20  7  1  0
 18 12  1  0
M  END
>  <alias>  (479) 
None

>  <rmsd(smina/fragmenstein)>  (479) 
0.501

>  <smiles>  (479) 
C=C(F)C(=O)Nc1cccc(N2C(=O)CCNC2=O)c1C

>  <gnina_score>  (479) 
5.305

>  <inspiration_score>  (479) 
None

>  <energy_score>  (479) 
-24.871477

>  <distance_score>  (479) 
1.636615

>  <gnina_score_min>  (479) 
5.348

>  <inchikey>  (479) 
QJYXDJVOGVQOKA-UHFFFAOYSA-N

>  <exports>  (479) 
['/opt/xchem-fragalysis-2/maxwin/BulkDock/OUTPUTS/openbind_a71ev2a_c2_elabs_1LOUU54.sdf', '/opt/xchem-fragalysis-2/maxwin/BulkDock/OUTPUTS/openbind_a71ev2a_c2_elabs_1LSYIDY.sdf']

>  <name>  (479) 
P545723

>  <ref_pdb>  (479) 
A0884a

>  <subsites>  (479) 
None

>  <HIPPO Pose ID>  (479) 
545723

>  <ref_mols>  (479) 
A0884a

>  <HIPPO Compound ID>  (479) 
384246

>  <tags>  (479) 
openbind_a71ev2a_c2_elabs,syndirella_product,openbind_a71ev2a_c2_elabs_fragonly_scored_top80percent,openbind_a71ev2a_c2_elabs_scored,BulkDock Fragalysis export,openbind_a71ev2a_c2_elabs_scored_top80percent,openbind_a71ev2a_c2_elabs_activefrags_only_scored_5.2plus,syndirella_placed

>  <smina_score_min>  (479) 
-6.641

$$$$
P545724
     RDKit          3D

 21 22  0  0  0  0  0  0  0  0999 V2000
    3.9856   11.8897   30.2571 C   0  0  0  0  0  0  0  0  0  0  0  0
    3.2461   12.2512   28.9664 C   0  0  0  0  0  0  0  0  0  0  0  0
    2.1480   13.2725   29.2691 C   0  0  0  0  0  0  0  0  0  0  0  0
    4.2091   12.8098   27.9063 C   0  0  0  0  0  0  0  0  0  0  0  0
    5.0878   11.7361   27.2605 C   0  0  0  0  0  0  0  0  0  0  0  0
    4.9966   10.5920   27.4798 O   0  0  0  0  0  0  0  0  0  0  0  0
    6.0106   12.5024   26.2674 N   0  0  0  0  0  0  0  0  0  0  0  0
    7.0317   12.0411   25.4466 C   0  0  0  0  0  0  0  0  0  0  0  0
    7.2743   10.6925   25.2302 C   0  0  0  0  0  0  0  0  0  0  0  0
    8.3355   10.3004   24.4099 C   0  0  0  0  0  0  0  0  0  0  0  0
    9.2156   11.2444   23.9012 C   0  0  0  0  0  0  0  0  0  0  0  0
   10.3082   10.8003   23.2761 F   0  0  0  0  0  0  0  0  0  0  0  0
    9.0531   12.5910   24.2213 C   0  0  0  0  0  0  0  0  0  0  0  0
   10.1523   13.4710   24.2132 N   0  0  0  0  0  0  0  0  0  0  0  0
   10.4190   14.2871   25.2874 C   0  0  0  0  0  0  0  0  0  0  0  0
    9.6710   14.7313   26.1535 O   0  0  0  0  0  0  0  0  0  0  0  0
   11.8762   14.6208   25.2786 C   0  0  0  0  0  0  0  0  0  0  0  0
   12.3067   13.9948   24.0806 N   0  0  0  0  0  0  0  0  0  0  0  0
   11.2582   13.4188   23.4146 C   0  0  0  0  0  0  0  0  0  0  0  0
   11.3774   13.0450   22.2675 O   0  0  0  0  0  0  0  0  0  0  0  0
    7.8845   12.9852   24.8871 C   0  0  0  0  0  0  0  0  0  0  0  0
  1  2  1  0
  2  3  1  0
  2  4  1  0
  4  5  1  0
  5  6  2  0
  5  7  1  0
  7  8  1  0
  8  9  2  0
  9 10  1  0
 10 11  2  0
 11 12  1  0
 11 13  1  0
 13 14  1  0
 14 15  1  0
 15 16  2  0
 15 17  1  0
 17 18  1  0
 18 19  1  0
 19 20  2  0
 13 21  2  0
 21  8  1  0
 19 14  1  0
M  END
>  <alias>  (480) 
None

>  <rmsd(smina/fragmenstein)>  (480) 
2.482

>  <smiles>  (480) 
CC(C)CC(=O)Nc1ccc(F)c(N2C(=O)CNC2=O)c1

>  <gnina_score>  (480) 
5.055

>  <inspiration_score>  (480) 
None

>  <energy_score>  (480) 
-20.264951

>  <distance_score>  (480) 
1.40366

>  <gnina_score_min>  (480) 
5.246

>  <inchikey>  (480) 
CJPGHGROOULMOP-UHFFFAOYSA-N

>  <exports>  (480) 
['/opt/xchem-fragalysis-2/maxwin/BulkDock/OUTPUTS/openbind_a71ev2a_c2_elabs_1LOUU54.sdf', '/opt/xchem-fragalysis-2/maxwin/BulkDock/OUTPUTS/openbind_a71ev2a_c2_elabs_1LSYIDY.sdf']

>  <name>  (480) 
P545724

>  <ref_pdb>  (480) 
A0884a

>  <subsites>  (480) 
None

>  <HIPPO Pose ID>  (480) 
545724

>  <ref_mols>  (480) 
A0884a

>  <HIPPO Compound ID>  (480) 
384248

>  <tags>  (480) 
openbind_a71ev2a_c2_elabs,syndirella_product,openbind_a71ev2a_c2_elabs_fragonly_scored_top80percent,openbind_a71ev2a_c2_elabs_scored,BulkDock Fragalysis export,openbind_a71ev2a_c2_elabs_scored_top80percent,openbind_a71ev2a_c2_elabs_activefrags_only_scored_5.2plus,syndirella_placed

>  <smina_score_min>  (480) 
-6.107

$$$$
P545726
     RDKit          3D

 21 22  0  0  0  0  0  0  0  0999 V2000
    2.2860   14.4357   28.8471 C   0  0  0  0  0  0  0  0  0  0  0  0
    3.1589   14.5243   28.0267 C   0  0  0  0  0  0  0  0  0  0  0  0
    4.2262   14.6495   27.0211 C   0  0  0  0  0  0  0  0  0  0  0  0
    4.9272   13.3195   26.7145 C   0  0  0  0  0  0  0  0  0  0  0  0
    4.5947   12.2804   27.1432 O   0  0  0  0  0  0  0  0  0  0  0  0
    6.0794   13.6837   25.7161 N   0  0  0  0  0  0  0  0  0  0  0  0
    7.0675   12.8853   25.1474 C   0  0  0  0  0  0  0  0  0  0  0  0
    7.1212   11.5156   25.3841 C   0  0  0  0  0  0  0  0  0  0  0  0
    8.0867   10.7433   24.7468 C   0  0  0  0  0  0  0  0  0  0  0  0
    9.0189   11.3373   23.8937 C   0  0  0  0  0  0  0  0  0  0  0  0
   10.0310   10.2553   23.0409 Cl  0  0  0  0  0  0  0  0  0  0  0  0
    9.0067   12.7248   23.6712 C   0  0  0  0  0  0  0  0  0  0  0  0
    9.9634   13.3805   22.8233 N   0  0  0  0  0  0  0  0  0  0  0  0
    9.4680   14.3551   21.8595 C   0  0  0  0  0  0  0  0  0  0  0  0
   10.4738   14.8053   20.8229 C   0  0  0  0  0  0  0  0  0  0  0  0
   11.8822   14.4918   21.2077 C   0  0  0  0  0  0  0  0  0  0  0  0
   12.7837   14.4416   20.3754 O   0  0  0  0  0  0  0  0  0  0  0  0
   12.1011   14.2954   22.5369 N   0  0  0  0  0  0  0  0  0  0  0  0
   11.2511   13.5693   23.3274 C   0  0  0  0  0  0  0  0  0  0  0  0
   11.6462   13.1432   24.4111 O   0  0  0  0  0  0  0  0  0  0  0  0
    8.0055   13.4837   24.2980 C   0  0  0  0  0  0  0  0  0  0  0  0
  1  2  3  0
  2  3  1  0
  3  4  1  0
  4  5  2  0
  4  6  1  0
  6  7  1  0
  7  8  2  0
  8  9  1  0
  9 10  2  0
 10 11  1  0
 10 12  1  0
 12 13  1  0
 13 14  1  0
 14 15  1  0
 15 16  1  0
 16 17  2  0
 16 18  1  0
 18 19  1  0
 19 20  2  0
 12 21  2  0
 21  7  1  0
 19 13  1  0
M  END
>  <alias>  (481) 
None

>  <rmsd(smina/fragmenstein)>  (481) 
0.386

>  <smiles>  (481) 
C#CCC(=O)Nc1ccc(Cl)c(N2CCC(=O)NC2=O)c1

>  <gnina_score>  (481) 
5.543

>  <inspiration_score>  (481) 
None

>  <energy_score>  (481) 
-27.161712

>  <distance_score>  (481) 
1.500444

>  <gnina_score_min>  (481) 
5.517

>  <inchikey>  (481) 
XARBSCFTYHAWEE-UHFFFAOYSA-N

>  <exports>  (481) 
['/opt/xchem-fragalysis-2/maxwin/BulkDock/OUTPUTS/openbind_a71ev2a_c2_elabs_1LOUU54.sdf', '/opt/xchem-fragalysis-2/maxwin/BulkDock/OUTPUTS/openbind_a71ev2a_c2_elabs_1LSYIDY.sdf']

>  <name>  (481) 
P545726

>  <ref_pdb>  (481) 
A0884a

>  <subsites>  (481) 
None

>  <HIPPO Pose ID>  (481) 
545726

>  <ref_mols>  (481) 
A0884a

>  <HIPPO Compound ID>  (481) 
384251

>  <tags>  (481) 
openbind_a71ev2a_c2_elabs,syndirella_product,openbind_a71ev2a_c2_elabs_fragonly_scored_top80percent,BulkDock Fragalysis export,openbind_a71ev2a_c2_elabs_scored,openbind_a71ev2a_c2_elabs_scored_top80percent,openbind_a71ev2a_c2_elabs_activefrags_only_scored_5.2plus,openbind_a71ev2a_c2_elabs_activefrags_only_scored_5.5plus,syndirella_placed

>  <smina_score_min>  (481) 
-6.336

$$$$
P545727
     RDKit          3D

 21 22  0  0  0  0  0  0  0  0999 V2000
    4.8413   11.1686   28.7649 C   0  0  0  0  0  0  0  0  0  0  0  0
    4.8005   12.1203   28.0334 C   0  0  0  0  0  0  0  0  0  0  0  0
    4.7381   13.2847   27.1320 C   0  0  0  0  0  0  0  0  0  0  0  0
    6.0870   13.6497   26.5134 C   0  0  0  0  0  0  0  0  0  0  0  0
    6.5397   14.7265   26.5936 O   0  0  0  0  0  0  0  0  0  0  0  0
    6.6200   12.3806   25.7746 N   0  0  0  0  0  0  0  0  0  0  0  0
    7.7213   12.2171   24.9436 C   0  0  0  0  0  0  0  0  0  0  0  0
    8.1262   10.9196   24.6146 C   0  0  0  0  0  0  0  0  0  0  0  0
    9.2247   10.7513   23.7818 C   0  0  0  0  0  0  0  0  0  0  0  0
    9.9002    9.0966   23.2607 Br  0  0  0  0  0  0  0  0  0  0  0  0
    9.9020   11.8379   23.2764 C   0  0  0  0  0  0  0  0  0  0  0  0
    9.5005   13.1228   23.6005 C   0  0  0  0  0  0  0  0  0  0  0  0
   10.2024   14.1947   22.9933 N   0  0  0  0  0  0  0  0  0  0  0  0
    9.6507   14.5838   21.6897 C   0  0  0  0  0  0  0  0  0  0  0  0
   10.5819   15.3836   20.8215 C   0  0  0  0  0  0  0  0  0  0  0  0
   11.9601   14.8266   20.9870 C   0  0  0  0  0  0  0  0  0  0  0  0
   12.6597   14.4384   20.0578 O   0  0  0  0  0  0  0  0  0  0  0  0
   12.3655   14.7964   22.2884 N   0  0  0  0  0  0  0  0  0  0  0  0
   11.5738   14.2354   23.2450 C   0  0  0  0  0  0  0  0  0  0  0  0
   12.0868   13.7411   24.2510 O   0  0  0  0  0  0  0  0  0  0  0  0
    8.4059   13.3253   24.4324 C   0  0  0  0  0  0  0  0  0  0  0  0
  1  2  3  0
  2  3  1  0
  3  4  1  0
  4  5  2  0
  4  6  1  0
  6  7  1  0
  7  8  2  0
  8  9  1  0
  9 10  1  0
  9 11  2  0
 11 12  1  0
 12 13  1  0
 13 14  1  0
 14 15  1  0
 15 16  1  0
 16 17  2  0
 16 18  1  0
 18 19  1  0
 19 20  2  0
 12 21  2  0
 21  7  1  0
 19 13  1  0
M  END
>  <alias>  (482) 
None

>  <rmsd(smina/fragmenstein)>  (482) 
0.667

>  <smiles>  (482) 
C#CCC(=O)Nc1cc(Br)cc(N2CCC(=O)NC2=O)c1

>  <gnina_score>  (482) 
5.648

>  <inspiration_score>  (482) 
None

>  <energy_score>  (482) 
-24.479142

>  <distance_score>  (482) 
1.284041

>  <gnina_score_min>  (482) 
5.637

>  <inchikey>  (482) 
YRMQVSLGEAVERS-UHFFFAOYSA-N

>  <exports>  (482) 
['/opt/xchem-fragalysis-2/maxwin/BulkDock/OUTPUTS/openbind_a71ev2a_c2_elabs_1LOUU54.sdf', '/opt/xchem-fragalysis-2/maxwin/BulkDock/OUTPUTS/openbind_a71ev2a_c2_elabs_1LSYIDY.sdf']

>  <name>  (482) 
P545727

>  <ref_pdb>  (482) 
A0884a

>  <subsites>  (482) 
None

>  <HIPPO Pose ID>  (482) 
545727

>  <ref_mols>  (482) 
A0884a

>  <HIPPO Compound ID>  (482) 
384252

>  <tags>  (482) 
openbind_a71ev2a_c2_elabs,syndirella_product,openbind_a71ev2a_c2_elabs_fragonly_scored_top80percent,BulkDock Fragalysis export,openbind_a71ev2a_c2_elabs_scored,openbind_a71ev2a_c2_elabs_scored_top80percent,openbind_a71ev2a_c2_elabs_activefrags_only_scored_5.2plus,openbind_a71ev2a_c2_elabs_activefrags_only_scored_5.5plus,syndirella_placed

>  <smina_score_min>  (482) 
-6.225

$$$$
P545728
     RDKit          3D

 21 22  0  0  0  0  0  0  0  0999 V2000
    2.8388   14.3462   26.0451 C   0  0  0  0  0  0  0  0  0  0  0  0
    3.6225   13.8506   26.8082 C   0  0  0  0  0  0  0  0  0  0  0  0
    4.6051   13.2442   27.7172 C   0  0  0  0  0  0  0  0  0  0  0  0
    5.3869   12.1137   27.0482 C   0  0  0  0  0  0  0  0  0  0  0  0
    5.2585   10.9878   27.3463 O   0  0  0  0  0  0  0  0  0  0  0  0
    6.3198   12.7795   25.9859 N   0  0  0  0  0  0  0  0  0  0  0  0
    7.3140   12.2224   25.1739 C   0  0  0  0  0  0  0  0  0  0  0  0
    7.4954   10.8398   25.1476 C   0  0  0  0  0  0  0  0  0  0  0  0
    8.5039   10.2737   24.3737 C   0  0  0  0  0  0  0  0  0  0  0  0
    9.3863   11.0830   23.6778 C   0  0  0  0  0  0  0  0  0  0  0  0
    9.2410   12.4743   23.7138 C   0  0  0  0  0  0  0  0  0  0  0  0
   10.3355   13.2175   23.1972 N   0  0  0  0  0  0  0  0  0  0  0  0
   11.3833   13.4639   24.0586 C   0  0  0  0  0  0  0  0  0  0  0  0
   11.3104   13.5146   25.2825 O   0  0  0  0  0  0  0  0  0  0  0  0
   12.6661   13.7163   23.3499 C   0  0  0  0  0  0  0  0  0  0  0  0
   12.4445   14.9383   22.5180 C   0  0  0  0  0  0  0  0  0  0  0  0
   11.2910   14.7390   21.6987 N   0  0  0  0  0  0  0  0  0  0  0  0
   10.2237   13.9729   22.0537 C   0  0  0  0  0  0  0  0  0  0  0  0
    9.2283   14.0349   21.3447 O   0  0  0  0  0  0  0  0  0  0  0  0
    8.1543   13.0587   24.4048 C   0  0  0  0  0  0  0  0  0  0  0  0
    7.9490   14.5470   24.4080 C   0  0  0  0  0  0  0  0  0  0  0  0
  1  2  3  0
  2  3  1  0
  3  4  1  0
  4  5  2  0
  4  6  1  0
  6  7  1  0
  7  8  2  0
  8  9  1  0
  9 10  2  0
 10 11  1  0
 11 12  1  0
 12 13  1  0
 13 14  2  0
 13 15  1  0
 15 16  1  0
 16 17  1  0
 17 18  1  0
 18 19  2  0
 11 20  2  0
 20 21  1  0
 20  7  1  0
 18 12  1  0
M  END
>  <alias>  (483) 
None

>  <rmsd(smina/fragmenstein)>  (483) 
0.61

>  <smiles>  (483) 
C#CCC(=O)Nc1cccc(N2C(=O)CCNC2=O)c1C

>  <gnina_score>  (483) 
5.46

>  <inspiration_score>  (483) 
None

>  <energy_score>  (483) 
-21.768643

>  <distance_score>  (483) 
1.648956

>  <gnina_score_min>  (483) 
5.482

>  <inchikey>  (483) 
NOMVHVGANUOZTL-UHFFFAOYSA-N

>  <exports>  (483) 
['/opt/xchem-fragalysis-2/maxwin/BulkDock/OUTPUTS/openbind_a71ev2a_c2_elabs_1LOUU54.sdf', '/opt/xchem-fragalysis-2/maxwin/BulkDock/OUTPUTS/openbind_a71ev2a_c2_elabs_1LSYIDY.sdf']

>  <name>  (483) 
P545728

>  <ref_pdb>  (483) 
A0884a

>  <subsites>  (483) 
None

>  <HIPPO Pose ID>  (483) 
545728

>  <ref_mols>  (483) 
A0884a

>  <HIPPO Compound ID>  (483) 
384253

>  <tags>  (483) 
openbind_a71ev2a_c2_elabs,syndirella_product,openbind_a71ev2a_c2_elabs_fragonly_scored_top80percent,openbind_a71ev2a_c2_elabs_scored,BulkDock Fragalysis export,openbind_a71ev2a_c2_elabs_scored_top80percent,openbind_a71ev2a_c2_elabs_activefrags_only_scored_5.2plus,syndirella_placed

>  <smina_score_min>  (483) 
-6.358

$$$$
P545729
     RDKit          3D

 21 22  0  0  0  0  0  0  0  0999 V2000
    6.1698   13.2981   29.7953 C   0  0  0  0  0  0  0  0  0  0  0  0
    5.6352   14.4390   28.4935 S   0  0  0  0  0  0  0  0  0  0  0  0
    4.5998   13.2995   27.5189 C   0  0  0  0  0  0  0  0  0  0  0  0
    5.4369   12.1739   26.9184 C   0  0  0  0  0  0  0  0  0  0  0  0
    5.3062   11.0495   27.2178 O   0  0  0  0  0  0  0  0  0  0  0  0
    6.3949   12.8389   25.8822 N   0  0  0  0  0  0  0  0  0  0  0  0
    7.4151   12.2842   25.1024 C   0  0  0  0  0  0  0  0  0  0  0  0
    7.5832   10.9010   25.0692 C   0  0  0  0  0  0  0  0  0  0  0  0
    8.6247   10.3489   24.3376 C   0  0  0  0  0  0  0  0  0  0  0  0
    9.5473   11.1777   23.7213 C   0  0  0  0  0  0  0  0  0  0  0  0
   10.5476   10.6022   23.0568 F   0  0  0  0  0  0  0  0  0  0  0  0
    9.4373   12.5669   23.7618 C   0  0  0  0  0  0  0  0  0  0  0  0
   10.5016   13.3501   23.2550 N   0  0  0  0  0  0  0  0  0  0  0  0
   10.4855   14.0674   22.0944 C   0  0  0  0  0  0  0  0  0  0  0  0
    9.5454   14.2247   21.3327 O   0  0  0  0  0  0  0  0  0  0  0  0
   11.8521   14.6648   21.8522 C   0  0  0  0  0  0  0  0  0  0  0  0
   12.5561   14.1828   22.9864 N   0  0  0  0  0  0  0  0  0  0  0  0
   11.7655   13.3864   23.7743 C   0  0  0  0  0  0  0  0  0  0  0  0
   12.1880   12.8765   24.7959 O   0  0  0  0  0  0  0  0  0  0  0  0
    8.2935   13.1281   24.3763 C   0  0  0  0  0  0  0  0  0  0  0  0
    8.0383   14.6059   24.3328 C   0  0  0  0  0  0  0  0  0  0  0  0
  1  2  1  0
  2  3  1  0
  3  4  1  0
  4  5  2  0
  4  6  1  0
  6  7  1  0
  7  8  2  0
  8  9  1  0
  9 10  2  0
 10 11  1  0
 10 12  1  0
 12 13  1  0
 13 14  1  0
 14 15  2  0
 14 16  1  0
 16 17  1  0
 17 18  1  0
 18 19  2  0
 12 20  2  0
 20 21  1  0
 20  7  1  0
 18 13  1  0
M  END
>  <alias>  (484) 
None

>  <rmsd(smina/fragmenstein)>  (484) 
0.651

>  <smiles>  (484) 
CSCC(=O)Nc1ccc(F)c(N2C(=O)CNC2=O)c1C

>  <gnina_score>  (484) 
5.249

>  <inspiration_score>  (484) 
None

>  <energy_score>  (484) 
-53.427859

>  <distance_score>  (484) 
1.563295

>  <gnina_score_min>  (484) 
5.212

>  <inchikey>  (484) 
NBKYVEYRDKACPN-UHFFFAOYSA-N

>  <exports>  (484) 
['/opt/xchem-fragalysis-2/maxwin/BulkDock/OUTPUTS/openbind_a71ev2a_c2_elabs_1LOUU54.sdf', '/opt/xchem-fragalysis-2/maxwin/BulkDock/OUTPUTS/openbind_a71ev2a_c2_elabs_1LSYIDY.sdf']

>  <name>  (484) 
P545729

>  <ref_pdb>  (484) 
A0884a

>  <subsites>  (484) 
None

>  <HIPPO Pose ID>  (484) 
545729

>  <ref_mols>  (484) 
A0884a

>  <HIPPO Compound ID>  (484) 
384255

>  <tags>  (484) 
openbind_a71ev2a_c2_elabs,syndirella_product,openbind_a71ev2a_c2_elabs_fragonly_scored_top80percent,openbind_a71ev2a_c2_elabs_scored,BulkDock Fragalysis export,openbind_a71ev2a_c2_elabs_scored_top80percent,openbind_a71ev2a_c2_elabs_activefrags_only_scored_5.2plus,syndirella_placed

>  <smina_score_min>  (484) 
-6.239

$$$$
P545735
     RDKit          3D

 21 22  0  0  0  0  0  0  0  0999 V2000
    5.0006   11.7496   27.0730 O   0  0  0  0  0  0  0  0  0  0  0  0
    5.4242   12.8181   26.8728 C   0  0  0  0  0  0  0  0  0  0  0  0
    4.7455   14.0328   27.3757 C   0  0  0  0  0  0  0  0  0  0  0  0
    5.2311   14.7679   28.3850 C   0  0  0  0  0  0  0  0  0  0  0  0
    4.2884   16.2713   28.9939 Br  0  0  0  0  0  0  0  0  0  0  0  0
    6.8308   14.4100   29.2922 Br  0  0  0  0  0  0  0  0  0  0  0  0
    6.6729   13.2697   26.0763 N   0  0  0  0  0  0  0  0  0  0  0  0
    7.5713   12.5330   25.3107 C   0  0  0  0  0  0  0  0  0  0  0  0
    7.4706   11.1473   25.1834 C   0  0  0  0  0  0  0  0  0  0  0  0
    8.3744   10.4566   24.3760 C   0  0  0  0  0  0  0  0  0  0  0  0
    9.3740   11.1482   23.7089 C   0  0  0  0  0  0  0  0  0  0  0  0
   10.2168   10.4617   22.9318 F   0  0  0  0  0  0  0  0  0  0  0  0
    9.5286   12.5220   23.8835 C   0  0  0  0  0  0  0  0  0  0  0  0
   10.6396   13.1594   23.3078 N   0  0  0  0  0  0  0  0  0  0  0  0
   11.5362   13.8996   24.0260 C   0  0  0  0  0  0  0  0  0  0  0  0
   11.6183   14.0082   25.2439 O   0  0  0  0  0  0  0  0  0  0  0  0
   12.3961   14.6771   23.0514 C   0  0  0  0  0  0  0  0  0  0  0  0
   11.7356   14.4202   21.8287 N   0  0  0  0  0  0  0  0  0  0  0  0
   10.5653   13.7579   22.0881 C   0  0  0  0  0  0  0  0  0  0  0  0
    9.5875   13.8973   21.3767 O   0  0  0  0  0  0  0  0  0  0  0  0
    8.6100   13.2189   24.6731 C   0  0  0  0  0  0  0  0  0  0  0  0
  1  2  2  0
  2  3  1  0
  3  4  2  3
  4  5  1  0
  4  6  1  0
  2  7  1  0
  7  8  1  0
  8  9  2  0
  9 10  1  0
 10 11  2  0
 11 12  1  0
 11 13  1  0
 13 14  1  0
 14 15  1  0
 15 16  2  0
 15 17  1  0
 17 18  1  0
 18 19  1  0
 19 20  2  0
 13 21  2  0
 21  8  1  0
 19 14  1  0
M  END
>  <alias>  (485) 
None

>  <rmsd(smina/fragmenstein)>  (485) 
1.015

>  <smiles>  (485) 
O=C(C=C(Br)Br)Nc1ccc(F)c(N2C(=O)CNC2=O)c1

>  <gnina_score>  (485) 
5.398

>  <inspiration_score>  (485) 
None

>  <energy_score>  (485) 
-11.288592

>  <distance_score>  (485) 
1.581105

>  <gnina_score_min>  (485) 
5.293

>  <inchikey>  (485) 
CEQPCMZOJWWVLO-UHFFFAOYSA-N

>  <exports>  (485) 
['/opt/xchem-fragalysis-2/maxwin/BulkDock/OUTPUTS/openbind_a71ev2a_c2_elabs_1LOUU54.sdf', '/opt/xchem-fragalysis-2/maxwin/BulkDock/OUTPUTS/openbind_a71ev2a_c2_elabs_1LSYIDY.sdf']

>  <name>  (485) 
P545735

>  <ref_pdb>  (485) 
A0884a

>  <subsites>  (485) 
None

>  <HIPPO Pose ID>  (485) 
545735

>  <ref_mols>  (485) 
A0884a

>  <HIPPO Compound ID>  (485) 
384260

>  <tags>  (485) 
openbind_a71ev2a_c2_elabs,syndirella_product,openbind_a71ev2a_c2_elabs_fragonly_scored_top80percent,openbind_a71ev2a_c2_elabs_scored,BulkDock Fragalysis export,openbind_a71ev2a_c2_elabs_scored_top80percent,openbind_a71ev2a_c2_elabs_activefrags_only_scored_5.2plus,syndirella_placed

>  <smina_score_min>  (485) 
-6.681

$$$$
P545739
     RDKit          3D

 21 22  0  0  0  0  0  0  0  0999 V2000
    8.9448    9.5790   23.9638 C   0  0  0  0  0  0  0  0  0  0  0  0
    8.7394   11.0330   24.1700 C   0  0  0  0  0  0  0  0  0  0  0  0
    7.6750   11.5448   24.9273 C   0  0  0  0  0  0  0  0  0  0  0  0
    7.4840   12.9232   25.0029 C   0  0  0  0  0  0  0  0  0  0  0  0
    6.4616   13.5171   25.7315 N   0  0  0  0  0  0  0  0  0  0  0  0
    5.3564   12.8834   26.6203 C   0  0  0  0  0  0  0  0  0  0  0  0
    5.1839   11.7703   26.9375 O   0  0  0  0  0  0  0  0  0  0  0  0
    4.4909   14.0609   27.1181 C   0  0  0  0  0  0  0  0  0  0  0  0
    4.4196   15.2080   26.2683 O   0  0  0  0  0  0  0  0  0  0  0  0
    5.5551   16.0974   26.5166 N   0  0  0  0  0  0  0  0  0  0  0  0
    8.3391   13.7792   24.3130 C   0  0  0  0  0  0  0  0  0  0  0  0
    9.4116   13.2658   23.5946 C   0  0  0  0  0  0  0  0  0  0  0  0
   10.2534   14.1385   22.8731 N   0  0  0  0  0  0  0  0  0  0  0  0
    9.7202   14.5539   21.5763 C   0  0  0  0  0  0  0  0  0  0  0  0
   10.6821   15.3441   20.7374 C   0  0  0  0  0  0  0  0  0  0  0  0
   12.0445   14.7478   20.9021 C   0  0  0  0  0  0  0  0  0  0  0  0
   12.7462   14.3763   19.9666 O   0  0  0  0  0  0  0  0  0  0  0  0
   12.4333   14.6631   22.2074 N   0  0  0  0  0  0  0  0  0  0  0  0
   11.6128   14.1095   23.1451 C   0  0  0  0  0  0  0  0  0  0  0  0
   12.0936   13.6055   24.1612 O   0  0  0  0  0  0  0  0  0  0  0  0
    9.6151   11.8962   23.5210 C   0  0  0  0  0  0  0  0  0  0  0  0
  1  2  1  0
  2  3  2  0
  3  4  1  0
  4  5  1  0
  5  6  1  0
  6  7  2  0
  6  8  1  0
  8  9  1  0
  9 10  1  0
  4 11  2  0
 11 12  1  0
 12 13  1  0
 13 14  1  0
 14 15  1  0
 15 16  1  0
 16 17  2  0
 16 18  1  0
 18 19  1  0
 19 20  2  0
 12 21  2  0
 21  2  1  0
 19 13  1  0
M  END
>  <alias>  (486) 
None

>  <rmsd(smina/fragmenstein)>  (486) 
0.241

>  <smiles>  (486) 
Cc1cc(NC(=O)CON)cc(N2CCC(=O)NC2=O)c1

>  <gnina_score>  (486) 
5.283

>  <inspiration_score>  (486) 
None

>  <energy_score>  (486) 
-36.080552

>  <distance_score>  (486) 
1.380288

>  <gnina_score_min>  (486) 
5.267

>  <inchikey>  (486) 
HKYMLTNUACHKKS-UHFFFAOYSA-N

>  <exports>  (486) 
['/opt/xchem-fragalysis-2/maxwin/BulkDock/OUTPUTS/openbind_a71ev2a_c2_elabs_1LOUU54.sdf', '/opt/xchem-fragalysis-2/maxwin/BulkDock/OUTPUTS/openbind_a71ev2a_c2_elabs_1LSYIDY.sdf']

>  <name>  (486) 
P545739

>  <ref_pdb>  (486) 
A0884a

>  <subsites>  (486) 
None

>  <HIPPO Pose ID>  (486) 
545739

>  <ref_mols>  (486) 
A0884a

>  <HIPPO Compound ID>  (486) 
384264

>  <tags>  (486) 
openbind_a71ev2a_c2_elabs,syndirella_product,openbind_a71ev2a_c2_elabs_fragonly_scored_top80percent,openbind_a71ev2a_c2_elabs_scored,BulkDock Fragalysis export,openbind_a71ev2a_c2_elabs_scored_top80percent,openbind_a71ev2a_c2_elabs_activefrags_only_scored_5.2plus,syndirella_placed

>  <smina_score_min>  (486) 
-6.381

$$$$
P545744
     RDKit          3D

 21 22  0  0  0  0  0  0  0  0999 V2000
    3.8718   14.9931   29.3073 N   0  0  0  0  0  0  0  0  0  0  0  0
    3.2554   14.5511   28.0586 O   0  0  0  0  0  0  0  0  0  0  0  0
    4.2005   14.6705   26.9989 C   0  0  0  0  0  0  0  0  0  0  0  0
    4.9434   13.3493   26.7272 C   0  0  0  0  0  0  0  0  0  0  0  0
    4.6522   12.3211   27.2109 O   0  0  0  0  0  0  0  0  0  0  0  0
    6.0603   13.7005   25.6845 N   0  0  0  0  0  0  0  0  0  0  0  0
    7.0584   12.9055   25.1275 C   0  0  0  0  0  0  0  0  0  0  0  0
    7.1100   11.5353   25.3637 C   0  0  0  0  0  0  0  0  0  0  0  0
    8.0833   10.7638   24.7381 C   0  0  0  0  0  0  0  0  0  0  0  0
    9.0209   11.3589   23.8918 C   0  0  0  0  0  0  0  0  0  0  0  0
   10.0371   10.2770   23.0444 Cl  0  0  0  0  0  0  0  0  0  0  0  0
    9.0092   12.7466   23.6677 C   0  0  0  0  0  0  0  0  0  0  0  0
    9.9675   13.4011   22.8215 N   0  0  0  0  0  0  0  0  0  0  0  0
    9.4740   14.3593   21.8395 C   0  0  0  0  0  0  0  0  0  0  0  0
   10.4884   14.8158   20.8127 C   0  0  0  0  0  0  0  0  0  0  0  0
   11.8889   14.4541   21.1838 C   0  0  0  0  0  0  0  0  0  0  0  0
   12.7798   14.3526   20.3455 O   0  0  0  0  0  0  0  0  0  0  0  0
   12.1144   14.2853   22.5161 N   0  0  0  0  0  0  0  0  0  0  0  0
   11.2571   13.5829   23.3193 C   0  0  0  0  0  0  0  0  0  0  0  0
   11.6494   13.1737   24.4105 O   0  0  0  0  0  0  0  0  0  0  0  0
    8.0039   13.5052   24.2873 C   0  0  0  0  0  0  0  0  0  0  0  0
  1  2  1  0
  2  3  1  0
  3  4  1  0
  4  5  2  0
  4  6  1  0
  6  7  1  0
  7  8  2  0
  8  9  1  0
  9 10  2  0
 10 11  1  0
 10 12  1  0
 12 13  1  0
 13 14  1  0
 14 15  1  0
 15 16  1  0
 16 17  2  0
 16 18  1  0
 18 19  1  0
 19 20  2  0
 12 21  2  0
 21  7  1  0
 19 13  1  0
M  END
>  <alias>  (487) 
None

>  <rmsd(smina/fragmenstein)>  (487) 
0.449

>  <smiles>  (487) 
NOCC(=O)Nc1ccc(Cl)c(N2CCC(=O)NC2=O)c1

>  <gnina_score>  (487) 
5.421

>  <inspiration_score>  (487) 
None

>  <energy_score>  (487) 
-39.136244

>  <distance_score>  (487) 
1.511281

>  <gnina_score_min>  (487) 
5.409

>  <inchikey>  (487) 
GJXQDQVKNNWIIV-UHFFFAOYSA-N

>  <exports>  (487) 
['/opt/xchem-fragalysis-2/maxwin/BulkDock/OUTPUTS/openbind_a71ev2a_c2_elabs_1LOUU54.sdf', '/opt/xchem-fragalysis-2/maxwin/BulkDock/OUTPUTS/openbind_a71ev2a_c2_elabs_1LSYIDY.sdf']

>  <name>  (487) 
P545744

>  <ref_pdb>  (487) 
A0884a

>  <subsites>  (487) 
None

>  <HIPPO Pose ID>  (487) 
545744

>  <ref_mols>  (487) 
A0884a

>  <HIPPO Compound ID>  (487) 
384269

>  <tags>  (487) 
openbind_a71ev2a_c2_elabs,syndirella_product,openbind_a71ev2a_c2_elabs_fragonly_scored_top80percent,openbind_a71ev2a_c2_elabs_scored,BulkDock Fragalysis export,openbind_a71ev2a_c2_elabs_scored_top80percent,openbind_a71ev2a_c2_elabs_activefrags_only_scored_5.2plus,syndirella_placed

>  <smina_score_min>  (487) 
-6.366

$$$$
P545745
     RDKit          3D

 21 22  0  0  0  0  0  0  0  0999 V2000
    2.8046   11.7265   28.2703 N   0  0  0  0  0  0  0  0  0  0  0  0
    4.1575   12.1977   28.5691 O   0  0  0  0  0  0  0  0  0  0  0  0
    4.7474   12.7737   27.4060 C   0  0  0  0  0  0  0  0  0  0  0  0
    5.8156   11.8561   26.7812 C   0  0  0  0  0  0  0  0  0  0  0  0
    5.9949   10.7454   27.1070 O   0  0  0  0  0  0  0  0  0  0  0  0
    6.5293   12.7193   25.6882 N   0  0  0  0  0  0  0  0  0  0  0  0
    7.6237   12.4274   24.8791 C   0  0  0  0  0  0  0  0  0  0  0  0
    8.0678   11.1133   24.6961 C   0  0  0  0  0  0  0  0  0  0  0  0
    9.1562   10.8841   23.8609 C   0  0  0  0  0  0  0  0  0  0  0  0
    9.7888    9.1961   23.3895 Br  0  0  0  0  0  0  0  0  0  0  0  0
    9.8379   11.9317   23.2814 C   0  0  0  0  0  0  0  0  0  0  0  0
    9.4098   13.2335   23.4788 C   0  0  0  0  0  0  0  0  0  0  0  0
   10.1367   14.2684   22.8382 N   0  0  0  0  0  0  0  0  0  0  0  0
    9.6081   14.6246   21.5163 C   0  0  0  0  0  0  0  0  0  0  0  0
   10.5554   15.4148   20.6581 C   0  0  0  0  0  0  0  0  0  0  0  0
   11.9271   14.8435   20.8426 C   0  0  0  0  0  0  0  0  0  0  0  0
   12.6416   14.4458   19.9292 O   0  0  0  0  0  0  0  0  0  0  0  0
   12.3195   14.8168   22.1493 N   0  0  0  0  0  0  0  0  0  0  0  0
   11.5034   14.3102   23.1148 C   0  0  0  0  0  0  0  0  0  0  0  0
   11.9896   13.8831   24.1643 O   0  0  0  0  0  0  0  0  0  0  0  0
    8.2733   13.4893   24.2380 C   0  0  0  0  0  0  0  0  0  0  0  0
  1  2  1  0
  2  3  1  0
  3  4  1  0
  4  5  2  0
  4  6  1  0
  6  7  1  0
  7  8  2  0
  8  9  1  0
  9 10  1  0
  9 11  2  0
 11 12  1  0
 12 13  1  0
 13 14  1  0
 14 15  1  0
 15 16  1  0
 16 17  2  0
 16 18  1  0
 18 19  1  0
 19 20  2  0
 12 21  2  0
 21  7  1  0
 19 13  1  0
M  END
>  <alias>  (488) 
None

>  <rmsd(smina/fragmenstein)>  (488) 
0.342

>  <smiles>  (488) 
NOCC(=O)Nc1cc(Br)cc(N2CCC(=O)NC2=O)c1

>  <gnina_score>  (488) 
5.415

>  <inspiration_score>  (488) 
None

>  <energy_score>  (488) 
-29.258963

>  <distance_score>  (488) 
1.265025

>  <gnina_score_min>  (488) 
5.392

>  <inchikey>  (488) 
HOVCPRXRNQZNDC-UHFFFAOYSA-N

>  <exports>  (488) 
['/opt/xchem-fragalysis-2/maxwin/BulkDock/OUTPUTS/openbind_a71ev2a_c2_elabs_1LOUU54.sdf', '/opt/xchem-fragalysis-2/maxwin/BulkDock/OUTPUTS/openbind_a71ev2a_c2_elabs_1LSYIDY.sdf']

>  <name>  (488) 
P545745

>  <ref_pdb>  (488) 
A0884a

>  <subsites>  (488) 
None

>  <HIPPO Pose ID>  (488) 
545745

>  <ref_mols>  (488) 
A0884a

>  <HIPPO Compound ID>  (488) 
384270

>  <tags>  (488) 
openbind_a71ev2a_c2_elabs,syndirella_product,openbind_a71ev2a_c2_elabs_fragonly_scored_top80percent,openbind_a71ev2a_c2_elabs_scored,BulkDock Fragalysis export,openbind_a71ev2a_c2_elabs_scored_top80percent,openbind_a71ev2a_c2_elabs_activefrags_only_scored_5.2plus,syndirella_placed

>  <smina_score_min>  (488) 
-6.24

$$$$
P545746
     RDKit          3D

 21 22  0  0  0  0  0  0  0  0999 V2000
    8.0131   14.2588   24.8207 C   0  0  0  0  0  0  0  0  0  0  0  0
    8.4052   12.8398   24.5282 C   0  0  0  0  0  0  0  0  0  0  0  0
    7.7613   11.7431   25.1328 C   0  0  0  0  0  0  0  0  0  0  0  0
    6.8424   11.7689   26.1882 N   0  0  0  0  0  0  0  0  0  0  0  0
    6.6185   12.8290   27.3102 C   0  0  0  0  0  0  0  0  0  0  0  0
    7.1162   13.8754   27.4749 O   0  0  0  0  0  0  0  0  0  0  0  0
    5.5572   12.2261   28.2394 C   0  0  0  0  0  0  0  0  0  0  0  0
    5.8462   10.8597   28.5677 O   0  0  0  0  0  0  0  0  0  0  0  0
    5.0342    9.9689   27.7456 N   0  0  0  0  0  0  0  0  0  0  0  0
    8.0655   10.4397   24.7126 C   0  0  0  0  0  0  0  0  0  0  0  0
    9.0631   10.1892   23.7839 C   0  0  0  0  0  0  0  0  0  0  0  0
    9.7525   11.2535   23.2407 C   0  0  0  0  0  0  0  0  0  0  0  0
    9.4361   12.5705   23.5939 C   0  0  0  0  0  0  0  0  0  0  0  0
   10.1797   13.5926   22.9313 N   0  0  0  0  0  0  0  0  0  0  0  0
    9.6085   14.1867   21.8007 C   0  0  0  0  0  0  0  0  0  0  0  0
    8.4451   13.9926   21.4308 O   0  0  0  0  0  0  0  0  0  0  0  0
   10.4822   15.1509   21.0362 C   0  0  0  0  0  0  0  0  0  0  0  0
   11.9315   14.7770   21.1898 C   0  0  0  0  0  0  0  0  0  0  0  0
   12.2568   14.6093   22.5709 N   0  0  0  0  0  0  0  0  0  0  0  0
   11.4920   13.7952   23.3446 C   0  0  0  0  0  0  0  0  0  0  0  0
   12.0107   13.3254   24.3518 O   0  0  0  0  0  0  0  0  0  0  0  0
  1  2  1  0
  2  3  2  0
  3  4  1  0
  4  5  1  0
  5  6  2  0
  5  7  1  0
  7  8  1  0
  8  9  1  0
  3 10  1  0
 10 11  2  0
 11 12  1  0
 12 13  2  0
 13 14  1  0
 14 15  1  0
 15 16  2  0
 15 17  1  0
 17 18  1  0
 18 19  1  0
 19 20  1  0
 20 21  2  0
 13  2  1  0
 20 14  1  0
M  END
>  <alias>  (489) 
None

>  <rmsd(smina/fragmenstein)>  (489) 
0.401

>  <smiles>  (489) 
Cc1c(NC(=O)CON)cccc1N1C(=O)CCNC1=O

>  <gnina_score>  (489) 
5.205

>  <inspiration_score>  (489) 
None

>  <energy_score>  (489) 
-26.260749

>  <distance_score>  (489) 
1.261913

>  <gnina_score_min>  (489) 
5.222

>  <inchikey>  (489) 
BTMWPXGSXSLWIC-UHFFFAOYSA-N

>  <exports>  (489) 
['/opt/xchem-fragalysis-2/maxwin/BulkDock/OUTPUTS/openbind_a71ev2a_c2_elabs_1LOUU54.sdf', '/opt/xchem-fragalysis-2/maxwin/BulkDock/OUTPUTS/openbind_a71ev2a_c2_elabs_1LSYIDY.sdf']

>  <name>  (489) 
P545746

>  <ref_pdb>  (489) 
A0884a

>  <subsites>  (489) 
None

>  <HIPPO Pose ID>  (489) 
545746

>  <ref_mols>  (489) 
A0884a

>  <HIPPO Compound ID>  (489) 
384271

>  <tags>  (489) 
openbind_a71ev2a_c2_elabs,syndirella_product,openbind_a71ev2a_c2_elabs_fragonly_scored_top80percent,openbind_a71ev2a_c2_elabs_scored,BulkDock Fragalysis export,openbind_a71ev2a_c2_elabs_scored_top80percent,openbind_a71ev2a_c2_elabs_activefrags_only_scored_5.2plus,syndirella_placed

>  <smina_score_min>  (489) 
-7.126

$$$$
P545748
     RDKit          3D

 21 22  0  0  0  0  0  0  0  0999 V2000
    2.9280   15.8404   27.3174 C   0  0  0  0  0  0  0  0  0  0  0  0
    3.7876   14.7093   26.9700 C   0  0  0  0  0  0  0  0  0  0  0  0
    4.4979   13.7847   26.6781 C   0  0  0  0  0  0  0  0  0  0  0  0
    5.3681   12.6846   26.3050 C   0  0  0  0  0  0  0  0  0  0  0  0
    5.3202   11.6959   26.9206 O   0  0  0  0  0  0  0  0  0  0  0  0
    6.2421   13.0668   25.0970 N   0  0  0  0  0  0  0  0  0  0  0  0
    7.2790   12.3687   24.4678 C   0  0  0  0  0  0  0  0  0  0  0  0
    7.5159   11.0311   24.7971 C   0  0  0  0  0  0  0  0  0  0  0  0
    8.5297   10.3209   24.1634 C   0  0  0  0  0  0  0  0  0  0  0  0
    9.3956   10.9751   23.2984 C   0  0  0  0  0  0  0  0  0  0  0  0
    9.2618   12.3590   23.0564 C   0  0  0  0  0  0  0  0  0  0  0  0
   10.5086   13.0414   23.0595 N   0  0  0  0  0  0  0  0  0  0  0  0
   10.9466   14.1306   22.3774 C   0  0  0  0  0  0  0  0  0  0  0  0
   10.6550   14.5258   21.2650 O   0  0  0  0  0  0  0  0  0  0  0  0
   11.8440   14.8285   23.1763 N   0  0  0  0  0  0  0  0  0  0  0  0
   12.0995   14.1658   24.4126 C   0  0  1  0  0  0  0  0  0  0  0  0
   11.8460   14.9508   25.7076 C   0  0  0  0  0  0  0  0  0  0  0  0
   11.0012   13.1848   24.3067 C   0  0  0  0  0  0  0  0  0  0  0  0
   10.5244   12.6608   25.2950 O   0  0  0  0  0  0  0  0  0  0  0  0
    8.1023   13.0286   23.5239 C   0  0  0  0  0  0  0  0  0  0  0  0
    7.8132   14.4534   23.1432 C   0  0  0  0  0  0  0  0  0  0  0  0
  1  2  1  0
  2  3  3  0
  3  4  1  0
  4  5  2  0
  4  6  1  0
  6  7  1  0
  7  8  2  0
  8  9  1  0
  9 10  2  0
 10 11  1  0
 11 12  1  0
 12 13  1  0
 13 14  2  0
 13 15  1  0
 15 16  1  0
 16 17  1  1
 16 18  1  0
 18 19  2  0
 11 20  2  0
 20 21  1  0
 20  7  1  0
 18 12  1  0
M  END
>  <alias>  (490) 
None

>  <rmsd(smina/fragmenstein)>  (490) 
0.303

>  <smiles>  (490) 
CC#CC(=O)Nc1cccc(N2C(=O)N[C@@H](C)C2=O)c1C

>  <gnina_score>  (490) 
5.305

>  <inspiration_score>  (490) 
None

>  <energy_score>  (490) 
-6.363629

>  <distance_score>  (490) 
1.364355

>  <gnina_score_min>  (490) 
5.253

>  <inchikey>  (490) 
DDBMMMDDUWMVGA-JTQLQIEISA-N

>  <exports>  (490) 
['/opt/xchem-fragalysis-2/maxwin/BulkDock/OUTPUTS/openbind_a71ev2a_c2_elabs_1LOUU54.sdf', '/opt/xchem-fragalysis-2/maxwin/BulkDock/OUTPUTS/openbind_a71ev2a_c2_elabs_1LSYIDY.sdf']

>  <name>  (490) 
P545748

>  <ref_pdb>  (490) 
A0884a

>  <subsites>  (490) 
None

>  <HIPPO Pose ID>  (490) 
545748

>  <ref_mols>  (490) 
A0884a

>  <HIPPO Compound ID>  (490) 
384273

>  <tags>  (490) 
openbind_a71ev2a_c2_elabs,syndirella_product,openbind_a71ev2a_c2_elabs_fragonly_scored_top80percent,openbind_a71ev2a_c2_elabs_scored,BulkDock Fragalysis export,openbind_a71ev2a_c2_elabs_scored_top80percent,openbind_a71ev2a_c2_elabs_activefrags_only_scored_5.2plus,syndirella_placed

>  <smina_score_min>  (490) 
-4.497

$$$$
P545749
     RDKit          3D

 21 22  0  0  0  0  0  0  0  0999 V2000
    7.7476   14.6237   24.6022 C   0  0  0  0  0  0  0  0  0  0  0  0
    8.1246   13.1771   24.4281 C   0  0  0  0  0  0  0  0  0  0  0  0
    7.4460   12.1616   25.1396 C   0  0  0  0  0  0  0  0  0  0  0  0
    6.4395   12.4974   26.0520 N   0  0  0  0  0  0  0  0  0  0  0  0
    5.6638   11.6175   27.0614 C   0  0  0  0  0  0  0  0  0  0  0  0
    5.7968   10.4943   27.3423 O   0  0  0  0  0  0  0  0  0  0  0  0
    4.6445   12.4947   27.6919 C   0  0  0  0  0  0  0  0  0  0  0  0
    4.3883   12.5024   29.0075 C   0  0  0  0  0  0  0  0  0  0  0  0
    3.0398   13.6243   29.6843 Br  0  0  0  0  0  0  0  0  0  0  0  0
    5.3056   11.5124   30.3044 Br  0  0  0  0  0  0  0  0  0  0  0  0
    7.8004   10.8214   24.9613 C   0  0  0  0  0  0  0  0  0  0  0  0
    8.8460   10.4703   24.1127 C   0  0  0  0  0  0  0  0  0  0  0  0
    9.5745   11.4644   23.4745 C   0  0  0  0  0  0  0  0  0  0  0  0
    9.2373   12.8148   23.6386 C   0  0  0  0  0  0  0  0  0  0  0  0
   10.0891   13.7969   23.0447 N   0  0  0  0  0  0  0  0  0  0  0  0
    9.7043   14.2752   21.7165 C   0  0  0  0  0  0  0  0  0  0  0  0
   10.6699   15.2569   21.0872 C   0  0  0  0  0  0  0  0  0  0  0  0
   12.0772   14.7637   21.3043 C   0  0  0  0  0  0  0  0  0  0  0  0
   12.3060   14.4639   22.6861 N   0  0  0  0  0  0  0  0  0  0  0  0
   11.3973   13.8678   23.5037 C   0  0  0  0  0  0  0  0  0  0  0  0
   11.7665   13.4621   24.6051 O   0  0  0  0  0  0  0  0  0  0  0  0
  1  2  1  0
  2  3  2  0
  3  4  1  0
  4  5  1  0
  5  6  2  0
  5  7  1  0
  7  8  2  3
  8  9  1  0
  8 10  1  0
  3 11  1  0
 11 12  2  0
 12 13  1  0
 13 14  2  0
 14 15  1  0
 15 16  1  0
 16 17  1  0
 17 18  1  0
 18 19  1  0
 19 20  1  0
 20 21  2  0
 14  2  1  0
 20 15  1  0
M  END
>  <alias>  (491) 
None

>  <rmsd(smina/fragmenstein)>  (491) 
0.739

>  <smiles>  (491) 
Cc1c(NC(=O)C=C(Br)Br)cccc1N1CCCNC1=O

>  <gnina_score>  (491) 
5.206

>  <inspiration_score>  (491) 
None

>  <energy_score>  (491) 
-46.376105

>  <distance_score>  (491) 
1.155605

>  <gnina_score_min>  (491) 
5.244

>  <inchikey>  (491) 
PBQXLDCBMPJXAQ-UHFFFAOYSA-N

>  <exports>  (491) 
['/opt/xchem-fragalysis-2/maxwin/BulkDock/OUTPUTS/openbind_a71ev2a_c2_elabs_1LOUU54.sdf', '/opt/xchem-fragalysis-2/maxwin/BulkDock/OUTPUTS/openbind_a71ev2a_c2_elabs_1LSYIDY.sdf']

>  <name>  (491) 
P545749

>  <ref_pdb>  (491) 
A0884a

>  <subsites>  (491) 
None

>  <HIPPO Pose ID>  (491) 
545749

>  <ref_mols>  (491) 
A0884a

>  <HIPPO Compound ID>  (491) 
384275

>  <tags>  (491) 
openbind_a71ev2a_c2_elabs,syndirella_product,openbind_a71ev2a_c2_elabs_fragonly_scored_top80percent,openbind_a71ev2a_c2_elabs_scored,BulkDock Fragalysis export,openbind_a71ev2a_c2_elabs_scored_top80percent,openbind_a71ev2a_c2_elabs_activefrags_only_scored_5.2plus,syndirella_placed

>  <smina_score_min>  (491) 
-6.944

$$$$
P545750
     RDKit          3D

 21 22  0  0  0  0  0  0  0  0999 V2000
    2.9926   14.1809   26.1855 C   0  0  0  0  0  0  0  0  0  0  0  0
    3.7202   13.6057   26.9484 C   0  0  0  0  0  0  0  0  0  0  0  0
    4.6280   12.9164   27.8769 C   0  0  0  0  0  0  0  0  0  0  0  0
    5.5410   11.8988   27.1887 C   0  0  0  0  0  0  0  0  0  0  0  0
    5.5962   10.7774   27.5242 O   0  0  0  0  0  0  0  0  0  0  0  0
    6.3722   12.6772   26.1184 N   0  0  0  0  0  0  0  0  0  0  0  0
    7.3377   12.2239   25.2124 C   0  0  0  0  0  0  0  0  0  0  0  0
    7.6345   10.8614   25.1382 C   0  0  0  0  0  0  0  0  0  0  0  0
    8.6572   10.4089   24.3118 C   0  0  0  0  0  0  0  0  0  0  0  0
    9.4138   11.3217   23.5981 C   0  0  0  0  0  0  0  0  0  0  0  0
   10.3698   10.8551   22.7923 F   0  0  0  0  0  0  0  0  0  0  0  0
    9.1387   12.6900   23.6384 C   0  0  0  0  0  0  0  0  0  0  0  0
    9.9667   13.5667   22.9085 N   0  0  0  0  0  0  0  0  0  0  0  0
    9.5807   14.2142   21.7598 C   0  0  0  0  0  0  0  0  0  0  0  0
    8.4707   14.1944   21.2398 O   0  0  0  0  0  0  0  0  0  0  0  0
   10.7893   14.9487   21.2004 C   0  0  0  0  0  0  0  0  0  0  0  0
   11.7952   14.6009   22.1634 N   0  0  0  0  0  0  0  0  0  0  0  0
   11.3182   13.7049   23.0892 C   0  0  0  0  0  0  0  0  0  0  0  0
   12.0345   13.2093   23.9420 O   0  0  0  0  0  0  0  0  0  0  0  0
    8.0395   13.1505   24.4027 C   0  0  0  0  0  0  0  0  0  0  0  0
    7.6577   14.6082   24.4396 C   0  0  0  0  0  0  0  0  0  0  0  0
  1  2  3  0
  2  3  1  0
  3  4  1  0
  4  5  2  0
  4  6  1  0
  6  7  1  0
  7  8  2  0
  8  9  1  0
  9 10  2  0
 10 11  1  0
 10 12  1  0
 12 13  1  0
 13 14  1  0
 14 15  2  0
 14 16  1  0
 16 17  1  0
 17 18  1  0
 18 19  2  0
 12 20  2  0
 20 21  1  0
 20  7  1  0
 18 13  1  0
M  END
>  <alias>  (492) 
None

>  <rmsd(smina/fragmenstein)>  (492) 
0.642

>  <smiles>  (492) 
C#CCC(=O)Nc1ccc(F)c(N2C(=O)CNC2=O)c1C

>  <gnina_score>  (492) 
5.418

>  <inspiration_score>  (492) 
None

>  <energy_score>  (492) 
-29.756972

>  <distance_score>  (492) 
1.38542

>  <gnina_score_min>  (492) 
5.252

>  <inchikey>  (492) 
AXXMTLCHINKSCO-UHFFFAOYSA-N

>  <exports>  (492) 
['/opt/xchem-fragalysis-2/maxwin/BulkDock/OUTPUTS/openbind_a71ev2a_c2_elabs_1LOUU54.sdf', '/opt/xchem-fragalysis-2/maxwin/BulkDock/OUTPUTS/openbind_a71ev2a_c2_elabs_1LSYIDY.sdf']

>  <name>  (492) 
P545750

>  <ref_pdb>  (492) 
A0884a

>  <subsites>  (492) 
None

>  <HIPPO Pose ID>  (492) 
545750

>  <ref_mols>  (492) 
A0884a

>  <HIPPO Compound ID>  (492) 
384278

>  <tags>  (492) 
openbind_a71ev2a_c2_elabs,syndirella_product,openbind_a71ev2a_c2_elabs_fragonly_scored_top80percent,openbind_a71ev2a_c2_elabs_scored,BulkDock Fragalysis export,openbind_a71ev2a_c2_elabs_scored_top80percent,openbind_a71ev2a_c2_elabs_activefrags_only_scored_5.2plus,syndirella_placed

>  <smina_score_min>  (492) 
-6.256

$$$$
P545751
     RDKit          3D

 21 22  0  0  0  0  0  0  0  0999 V2000
    2.4939   13.7156   29.1325 C   0  0  0  0  0  0  0  0  0  0  0  0
    3.4103   13.8832   28.3743 C   0  0  0  0  0  0  0  0  0  0  0  0
    4.5380   14.1044   27.4541 C   0  0  0  0  0  0  0  0  0  0  0  0
    5.1973   12.8027   26.9802 C   0  0  0  0  0  0  0  0  0  0  0  0
    4.8073   11.7297   27.2431 O   0  0  0  0  0  0  0  0  0  0  0  0
    6.3997   13.2531   26.0830 N   0  0  0  0  0  0  0  0  0  0  0  0
    7.3761   12.5002   25.4366 C   0  0  0  0  0  0  0  0  0  0  0  0
    7.2794   11.1197   25.3290 C   0  0  0  0  0  0  0  0  0  0  0  0
    8.2402   10.4298   24.6028 C   0  0  0  0  0  0  0  0  0  0  0  0
    8.1591    9.1014   24.5083 F   0  0  0  0  0  0  0  0  0  0  0  0
    9.2995   11.0758   23.9891 C   0  0  0  0  0  0  0  0  0  0  0  0
    9.4495   12.4519   24.1591 C   0  0  0  0  0  0  0  0  0  0  0  0
   10.5764   13.1209   23.6067 N   0  0  0  0  0  0  0  0  0  0  0  0
   10.8166   12.9202   22.2000 C   0  0  0  0  0  0  0  0  0  0  0  0
   12.2061   13.3581   21.8133 C   0  0  0  0  0  0  0  0  0  0  0  0
   12.3162   14.7847   22.1423 C   0  0  0  0  0  0  0  0  0  0  0  0
   12.8263   15.6157   21.4096 O   0  0  0  0  0  0  0  0  0  0  0  0
   11.8560   15.0605   23.3882 N   0  0  0  0  0  0  0  0  0  0  0  0
   11.1518   14.2202   24.2141 C   0  0  0  0  0  0  0  0  0  0  0  0
   11.0643   14.4659   25.4141 O   0  0  0  0  0  0  0  0  0  0  0  0
    8.4672   13.1616   24.8653 C   0  0  0  0  0  0  0  0  0  0  0  0
  1  2  3  0
  2  3  1  0
  3  4  1  0
  4  5  2  0
  4  6  1  0
  6  7  1  0
  7  8  2  0
  8  9  1  0
  9 10  1  0
  9 11  2  0
 11 12  1  0
 12 13  1  0
 13 14  1  0
 14 15  1  0
 15 16  1  0
 16 17  2  0
 16 18  1  0
 18 19  1  0
 19 20  2  0
 12 21  2  0
 21  7  1  0
 19 13  1  0
M  END
>  <alias>  (493) 
None

>  <rmsd(smina/fragmenstein)>  (493) 
2.045

>  <smiles>  (493) 
C#CCC(=O)Nc1cc(F)cc(N2CCC(=O)NC2=O)c1

>  <gnina_score>  (493) 
4.565

>  <inspiration_score>  (493) 
None

>  <energy_score>  (493) 
-23.03169

>  <distance_score>  (493) 
1.345078

>  <gnina_score_min>  (493) 
5.216

>  <inchikey>  (493) 
XCQUVGWJSSTUAF-UHFFFAOYSA-N

>  <exports>  (493) 
['/opt/xchem-fragalysis-2/maxwin/BulkDock/OUTPUTS/openbind_a71ev2a_c2_elabs_1LOUU54.sdf', '/opt/xchem-fragalysis-2/maxwin/BulkDock/OUTPUTS/openbind_a71ev2a_c2_elabs_1LSYIDY.sdf']

>  <name>  (493) 
P545751

>  <ref_pdb>  (493) 
A0884a

>  <subsites>  (493) 
None

>  <HIPPO Pose ID>  (493) 
545751

>  <ref_mols>  (493) 
A0884a

>  <HIPPO Compound ID>  (493) 
384280

>  <tags>  (493) 
openbind_a71ev2a_c2_elabs,syndirella_product,openbind_a71ev2a_c2_elabs_fragonly_scored_top80percent,openbind_a71ev2a_c2_elabs_scored,BulkDock Fragalysis export,openbind_a71ev2a_c2_elabs_scored_top80percent,openbind_a71ev2a_c2_elabs_activefrags_only_scored_5.2plus,syndirella_placed

>  <smina_score_min>  (493) 
-5.532

$$$$
P545752
     RDKit          3D

 21 22  0  0  0  0  0  0  0  0999 V2000
    5.0885   11.7391   29.1688 C   0  0  0  0  0  0  0  0  0  0  0  0
    5.1687   12.6827   28.4300 C   0  0  0  0  0  0  0  0  0  0  0  0
    5.2610   13.8397   27.5218 C   0  0  0  0  0  0  0  0  0  0  0  0
    6.5584   13.8451   26.7139 C   0  0  0  0  0  0  0  0  0  0  0  0
    7.3405   14.7169   26.7696 O   0  0  0  0  0  0  0  0  0  0  0  0
    6.5376   12.5565   25.8239 N   0  0  0  0  0  0  0  0  0  0  0  0
    7.4858   12.0582   24.9305 C   0  0  0  0  0  0  0  0  0  0  0  0
    7.6468   10.6764   24.9424 C   0  0  0  0  0  0  0  0  0  0  0  0
    8.6653   10.0937   24.2069 C   0  0  0  0  0  0  0  0  0  0  0  0
    9.5457   10.8774   23.4833 C   0  0  0  0  0  0  0  0  0  0  0  0
    9.3949   12.2651   23.4344 C   0  0  0  0  0  0  0  0  0  0  0  0
   10.4838   12.9985   22.8958 N   0  0  0  0  0  0  0  0  0  0  0  0
   10.4341   14.2104   22.2889 C   0  0  0  0  0  0  0  0  0  0  0  0
    9.7139   14.5749   21.3797 O   0  0  0  0  0  0  0  0  0  0  0  0
   11.4106   15.0209   22.8003 N   0  0  0  0  0  0  0  0  0  0  0  0
   12.2042   14.3259   23.7387 C   0  0  1  0  0  0  0  0  0  0  0  0
   11.8580   14.6294   25.1988 C   0  0  0  0  0  0  0  0  0  0  0  0
   11.6893   12.9445   23.5385 C   0  0  0  0  0  0  0  0  0  0  0  0
   12.2549   12.0075   24.0740 O   0  0  0  0  0  0  0  0  0  0  0  0
    8.2896   12.8651   24.0975 C   0  0  0  0  0  0  0  0  0  0  0  0
    7.9412   14.3177   23.9301 C   0  0  0  0  0  0  0  0  0  0  0  0
  1  2  3  0
  2  3  1  0
  3  4  1  0
  4  5  2  0
  4  6  1  0
  6  7  1  0
  7  8  2  0
  8  9  1  0
  9 10  2  0
 10 11  1  0
 11 12  1  0
 12 13  1  0
 13 14  2  0
 13 15  1  0
 15 16  1  0
 16 17  1  1
 16 18  1  0
 18 19  2  0
 11 20  2  0
 20 21  1  0
 20  7  1  0
 18 12  1  0
M  END
>  <alias>  (494) 
None

>  <rmsd(smina/fragmenstein)>  (494) 
0.433

>  <smiles>  (494) 
C#CCC(=O)Nc1cccc(N2C(=O)N[C@@H](C)C2=O)c1C

>  <gnina_score>  (494) 
5.243

>  <inspiration_score>  (494) 
None

>  <energy_score>  (494) 
-18.220226

>  <distance_score>  (494) 
1.584006

>  <gnina_score_min>  (494) 
5.236

>  <inchikey>  (494) 
VFNKVIPXYWEXSL-JTQLQIEISA-N

>  <exports>  (494) 
['/opt/xchem-fragalysis-2/maxwin/BulkDock/OUTPUTS/openbind_a71ev2a_c2_elabs_1LOUU54.sdf', '/opt/xchem-fragalysis-2/maxwin/BulkDock/OUTPUTS/openbind_a71ev2a_c2_elabs_1LSYIDY.sdf']

>  <name>  (494) 
P545752

>  <ref_pdb>  (494) 
A0884a

>  <subsites>  (494) 
None

>  <HIPPO Pose ID>  (494) 
545752

>  <ref_mols>  (494) 
A0884a

>  <HIPPO Compound ID>  (494) 
384281

>  <tags>  (494) 
openbind_a71ev2a_c2_elabs,syndirella_product,openbind_a71ev2a_c2_elabs_fragonly_scored_top80percent,openbind_a71ev2a_c2_elabs_scored,BulkDock Fragalysis export,openbind_a71ev2a_c2_elabs_scored_top80percent,openbind_a71ev2a_c2_elabs_activefrags_only_scored_5.2plus,syndirella_placed

>  <smina_score_min>  (494) 
-4.803

$$$$
P545753
     RDKit          3D

 21 22  0  0  0  0  0  0  0  0999 V2000
    5.3957   15.8255   28.3638 C   0  0  0  0  0  0  0  0  0  0  0  0
    4.8571   14.9717   27.7132 C   0  0  0  0  0  0  0  0  0  0  0  0
    4.1848   13.9410   26.9080 C   0  0  0  0  0  0  0  0  0  0  0  0
    5.0771   12.7234   26.6730 C   0  0  0  0  0  0  0  0  0  0  0  0
    4.8543   11.6706   27.1366 O   0  0  0  0  0  0  0  0  0  0  0  0
    6.2271   13.1878   25.7232 N   0  0  0  0  0  0  0  0  0  0  0  0
    7.2358   12.4585   25.1036 C   0  0  0  0  0  0  0  0  0  0  0  0
    7.3333   11.0737   25.2234 C   0  0  0  0  0  0  0  0  0  0  0  0
    8.3610   10.3923   24.5703 C   0  0  0  0  0  0  0  0  0  0  0  0
    9.3271   11.0985   23.8693 C   0  0  0  0  0  0  0  0  0  0  0  0
   10.3295   10.4226   23.2995 F   0  0  0  0  0  0  0  0  0  0  0  0
    9.2572   12.4851   23.7646 C   0  0  0  0  0  0  0  0  0  0  0  0
   10.2952   13.2192   23.1400 N   0  0  0  0  0  0  0  0  0  0  0  0
   11.5348   13.3484   23.8706 C   0  0  0  0  0  0  0  0  0  0  0  0
   12.6393   13.7377   22.9327 C   0  0  0  0  0  0  0  0  0  0  0  0
   12.2543   14.9139   22.1069 C   0  0  0  0  0  0  0  0  0  0  0  0
   13.0432   15.5554   21.4276 O   0  0  0  0  0  0  0  0  0  0  0  0
   10.9295   15.1838   22.0716 N   0  0  0  0  0  0  0  0  0  0  0  0
    9.9875   14.2274   22.2528 C   0  0  0  0  0  0  0  0  0  0  0  0
    8.9396   14.3041   21.6272 O   0  0  0  0  0  0  0  0  0  0  0  0
    8.1790   13.1585   24.3492 C   0  0  0  0  0  0  0  0  0  0  0  0
  1  2  3  0
  2  3  1  0
  3  4  1  0
  4  5  2  0
  4  6  1  0
  6  7  1  0
  7  8  2  0
  8  9  1  0
  9 10  2  0
 10 11  1  0
 10 12  1  0
 12 13  1  0
 13 14  1  0
 14 15  1  0
 15 16  1  0
 16 17  2  0
 16 18  1  0
 18 19  1  0
 19 20  2  0
 12 21  2  0
 21  7  1  0
 19 13  1  0
M  END
>  <alias>  (495) 
None

>  <rmsd(smina/fragmenstein)>  (495) 
1.382

>  <smiles>  (495) 
C#CCC(=O)Nc1ccc(F)c(N2CCC(=O)NC2=O)c1

>  <gnina_score>  (495) 
5.425

>  <inspiration_score>  (495) 
None

>  <energy_score>  (495) 
-44.578617

>  <distance_score>  (495) 
1.76249

>  <gnina_score_min>  (495) 
5.328

>  <inchikey>  (495) 
PSNJOWVTTBQGFM-UHFFFAOYSA-N

>  <exports>  (495) 
['/opt/xchem-fragalysis-2/maxwin/BulkDock/OUTPUTS/openbind_a71ev2a_c2_elabs_1LOUU54.sdf', '/opt/xchem-fragalysis-2/maxwin/BulkDock/OUTPUTS/openbind_a71ev2a_c2_elabs_1LSYIDY.sdf']

>  <name>  (495) 
P545753

>  <ref_pdb>  (495) 
A0884a

>  <subsites>  (495) 
None

>  <HIPPO Pose ID>  (495) 
545753

>  <ref_mols>  (495) 
A0884a

>  <HIPPO Compound ID>  (495) 
384283

>  <tags>  (495) 
openbind_a71ev2a_c2_elabs,syndirella_product,openbind_a71ev2a_c2_elabs_fragonly_scored_top80percent,openbind_a71ev2a_c2_elabs_scored,BulkDock Fragalysis export,openbind_a71ev2a_c2_elabs_scored_top80percent,openbind_a71ev2a_c2_elabs_activefrags_only_scored_5.2plus,syndirella_placed

>  <smina_score_min>  (495) 
-6.557

$$$$
P545756
     RDKit          3D

 21 22  0  0  0  0  0  0  0  0999 V2000
    4.2095   12.2262   28.4896 C   0  0  0  0  0  0  0  0  0  0  0  0
    4.2762   13.0286   27.5983 C   0  0  0  0  0  0  0  0  0  0  0  0
    4.3515   14.0191   26.5090 C   0  0  0  0  0  0  0  0  0  0  0  0
    5.7772   14.2615   26.0137 C   0  0  0  0  0  0  0  0  0  0  0  0
    6.2612   15.3263   25.9893 O   0  0  0  0  0  0  0  0  0  0  0  0
    6.3320   12.8880   25.5242 N   0  0  0  0  0  0  0  0  0  0  0  0
    7.5052   12.5790   24.8487 C   0  0  0  0  0  0  0  0  0  0  0  0
    7.8429   11.2357   24.6821 C   0  0  0  0  0  0  0  0  0  0  0  0
    8.9919   10.8885   23.9662 C   0  0  0  0  0  0  0  0  0  0  0  0
    9.3781    9.4804   23.7124 C   0  0  0  0  0  0  0  0  0  0  0  0
    9.7856   11.8808   23.4173 C   0  0  0  0  0  0  0  0  0  0  0  0
    9.4520   13.2184   23.5871 C   0  0  0  0  0  0  0  0  0  0  0  0
   10.2266   14.1932   22.9123 N   0  0  0  0  0  0  0  0  0  0  0  0
    9.6690   14.5893   21.6140 C   0  0  0  0  0  0  0  0  0  0  0  0
   10.6078   15.3768   20.7437 C   0  0  0  0  0  0  0  0  0  0  0  0
   11.9804   14.8018   20.9005 C   0  0  0  0  0  0  0  0  0  0  0  0
   12.6819   14.4231   19.9684 O   0  0  0  0  0  0  0  0  0  0  0  0
   12.3908   14.7501   22.2009 N   0  0  0  0  0  0  0  0  0  0  0  0
   11.5933   14.1994   23.1590 C   0  0  0  0  0  0  0  0  0  0  0  0
   12.1035   13.7180   24.1724 O   0  0  0  0  0  0  0  0  0  0  0  0
    8.3130   13.5752   24.3035 C   0  0  0  0  0  0  0  0  0  0  0  0
  1  2  3  0
  2  3  1  0
  3  4  1  0
  4  5  2  0
  4  6  1  0
  6  7  1  0
  7  8  2  0
  8  9  1  0
  9 10  1  0
  9 11  2  0
 11 12  1  0
 12 13  1  0
 13 14  1  0
 14 15  1  0
 15 16  1  0
 16 17  2  0
 16 18  1  0
 18 19  1  0
 19 20  2  0
 12 21  2  0
 21  7  1  0
 19 13  1  0
M  END
>  <alias>  (496) 
None

>  <rmsd(smina/fragmenstein)>  (496) 
0.758

>  <smiles>  (496) 
C#CCC(=O)Nc1cc(C)cc(N2CCC(=O)NC2=O)c1

>  <gnina_score>  (496) 
5.448

>  <inspiration_score>  (496) 
None

>  <energy_score>  (496) 
-32.503042

>  <distance_score>  (496) 
1.580124

>  <gnina_score_min>  (496) 
5.552

>  <inchikey>  (496) 
KRAQAHRHAQJXQA-UHFFFAOYSA-N

>  <exports>  (496) 
['/opt/xchem-fragalysis-2/maxwin/BulkDock/OUTPUTS/openbind_a71ev2a_c2_elabs_1LOUU54.sdf', '/opt/xchem-fragalysis-2/maxwin/BulkDock/OUTPUTS/openbind_a71ev2a_c2_elabs_1LSYIDY.sdf']

>  <name>  (496) 
P545756

>  <ref_pdb>  (496) 
A0884a

>  <subsites>  (496) 
None

>  <HIPPO Pose ID>  (496) 
545756

>  <ref_mols>  (496) 
A0884a

>  <HIPPO Compound ID>  (496) 
384286

>  <tags>  (496) 
openbind_a71ev2a_c2_elabs,syndirella_product,openbind_a71ev2a_c2_elabs_fragonly_scored_top80percent,BulkDock Fragalysis export,openbind_a71ev2a_c2_elabs_scored,openbind_a71ev2a_c2_elabs_scored_top80percent,openbind_a71ev2a_c2_elabs_activefrags_only_scored_5.2plus,openbind_a71ev2a_c2_elabs_activefrags_only_scored_5.5plus,syndirella_placed

>  <smina_score_min>  (496) 
-6.581

$$$$
P545757
     RDKit          3D

 21 22  0  0  0  0  0  0  0  0999 V2000
    5.1570   11.7925   26.9118 O   0  0  0  0  0  0  0  0  0  0  0  0
    5.5899   12.8479   26.6684 C   0  0  0  0  0  0  0  0  0  0  0  0
    4.9546   14.0852   27.1741 C   0  0  0  0  0  0  0  0  0  0  0  0
    5.5181   14.8633   28.1079 C   0  0  0  0  0  0  0  0  0  0  0  0
    7.1831   14.5403   28.9032 Br  0  0  0  0  0  0  0  0  0  0  0  0
    4.6242   16.3933   28.7243 Br  0  0  0  0  0  0  0  0  0  0  0  0
    6.7754   13.2612   25.7651 N   0  0  0  0  0  0  0  0  0  0  0  0
    7.6996   12.4829   25.0742 C   0  0  0  0  0  0  0  0  0  0  0  0
    7.6281   11.0937   25.0340 C   0  0  0  0  0  0  0  0  0  0  0  0
    8.5629   10.3731   24.2842 C   0  0  0  0  0  0  0  0  0  0  0  0
    9.5791   11.0273   23.5882 C   0  0  0  0  0  0  0  0  0  0  0  0
    9.6825   12.4145   23.6658 C   0  0  0  0  0  0  0  0  0  0  0  0
   10.7428   13.0740   23.0144 N   0  0  0  0  0  0  0  0  0  0  0  0
   11.7613   13.6403   23.7362 C   0  0  0  0  0  0  0  0  0  0  0  0
   12.0693   13.4054   24.8978 O   0  0  0  0  0  0  0  0  0  0  0  0
   12.4033   14.7296   22.9065 C   0  0  0  0  0  0  0  0  0  0  0  0
   11.5796   14.7296   21.7584 N   0  0  0  0  0  0  0  0  0  0  0  0
   10.4957   13.9258   21.9794 C   0  0  0  0  0  0  0  0  0  0  0  0
    9.4520   14.0917   21.3747 O   0  0  0  0  0  0  0  0  0  0  0  0
    8.7344   13.1333   24.3991 C   0  0  0  0  0  0  0  0  0  0  0  0
    8.8335   14.4711   24.4906 F   0  0  0  0  0  0  0  0  0  0  0  0
  1  2  2  0
  2  3  1  0
  3  4  2  3
  4  5  1  0
  4  6  1  0
  2  7  1  0
  7  8  1  0
  8  9  2  0
  9 10  1  0
 10 11  2  0
 11 12  1  0
 12 13  1  0
 13 14  1  0
 14 15  2  0
 14 16  1  0
 16 17  1  0
 17 18  1  0
 18 19  2  0
 12 20  2  0
 20 21  1  0
 20  8  1  0
 18 13  1  0
M  END
>  <alias>  (497) 
None

>  <rmsd(smina/fragmenstein)>  (497) 
0.656

>  <smiles>  (497) 
O=C(C=C(Br)Br)Nc1cccc(N2C(=O)CNC2=O)c1F

>  <gnina_score>  (497) 
5.416

>  <inspiration_score>  (497) 
None

>  <energy_score>  (497) 
-48.883235

>  <distance_score>  (497) 
1.574273

>  <gnina_score_min>  (497) 
5.435

>  <inchikey>  (497) 
CFVGCPVTANIQOZ-UHFFFAOYSA-N

>  <exports>  (497) 
['/opt/xchem-fragalysis-2/maxwin/BulkDock/OUTPUTS/openbind_a71ev2a_c2_elabs_1LOUU54.sdf', '/opt/xchem-fragalysis-2/maxwin/BulkDock/OUTPUTS/openbind_a71ev2a_c2_elabs_1LSYIDY.sdf']

>  <name>  (497) 
P545757

>  <ref_pdb>  (497) 
A0884a

>  <subsites>  (497) 
None

>  <HIPPO Pose ID>  (497) 
545757

>  <ref_mols>  (497) 
A0884a

>  <HIPPO Compound ID>  (497) 
384287

>  <tags>  (497) 
openbind_a71ev2a_c2_elabs,syndirella_product,openbind_a71ev2a_c2_elabs_fragonly_scored_top80percent,openbind_a71ev2a_c2_elabs_scored,BulkDock Fragalysis export,openbind_a71ev2a_c2_elabs_scored_top80percent,openbind_a71ev2a_c2_elabs_activefrags_only_scored_5.2plus,syndirella_placed

>  <smina_score_min>  (497) 
-6.688

$$$$
P545758
     RDKit          3D

 21 22  0  0  0  0  0  0  0  0999 V2000
    5.4356   15.2839   28.8459 C   0  0  0  0  0  0  0  0  0  0  0  0
    4.9605   14.5012   28.0687 C   0  0  0  0  0  0  0  0  0  0  0  0
    4.3688   13.5519   27.1146 C   0  0  0  0  0  0  0  0  0  0  0  0
    5.3785   12.5084   26.6400 C   0  0  0  0  0  0  0  0  0  0  0  0
    5.2953   11.3722   26.9125 O   0  0  0  0  0  0  0  0  0  0  0  0
    6.4238   13.2634   25.7588 N   0  0  0  0  0  0  0  0  0  0  0  0
    7.4769   12.7770   24.9910 C   0  0  0  0  0  0  0  0  0  0  0  0
    7.7612   11.4153   24.9013 C   0  0  0  0  0  0  0  0  0  0  0  0
    8.8296   11.0009   24.1105 C   0  0  0  0  0  0  0  0  0  0  0  0
    9.1655    9.3625   23.8483 Cl  0  0  0  0  0  0  0  0  0  0  0  0
    9.6451   11.9090   23.4643 C   0  0  0  0  0  0  0  0  0  0  0  0
    9.3628   13.2626   23.5632 C   0  0  0  0  0  0  0  0  0  0  0  0
   10.1754   14.1869   22.8643 N   0  0  0  0  0  0  0  0  0  0  0  0
    9.6553   14.5655   21.5488 C   0  0  0  0  0  0  0  0  0  0  0  0
   10.6134   15.3631   20.7110 C   0  0  0  0  0  0  0  0  0  0  0  0
   11.9797   14.7779   20.8854 C   0  0  0  0  0  0  0  0  0  0  0  0
   12.6973   14.4222   19.9578 O   0  0  0  0  0  0  0  0  0  0  0  0
   12.3646   14.6946   22.1919 N   0  0  0  0  0  0  0  0  0  0  0  0
   11.5376   14.1730   23.1413 C   0  0  0  0  0  0  0  0  0  0  0  0
   12.0116   13.7121   24.1809 O   0  0  0  0  0  0  0  0  0  0  0  0
    8.2614   13.7001   24.2953 C   0  0  0  0  0  0  0  0  0  0  0  0
  1  2  3  0
  2  3  1  0
  3  4  1  0
  4  5  2  0
  4  6  1  0
  6  7  1  0
  7  8  2  0
  8  9  1  0
  9 10  1  0
  9 11  2  0
 11 12  1  0
 12 13  1  0
 13 14  1  0
 14 15  1  0
 15 16  1  0
 16 17  2  0
 16 18  1  0
 18 19  1  0
 19 20  2  0
 12 21  2  0
 21  7  1  0
 19 13  1  0
M  END
>  <alias>  (498) 
None

>  <rmsd(smina/fragmenstein)>  (498) 
0.593

>  <smiles>  (498) 
C#CCC(=O)Nc1cc(Cl)cc(N2CCC(=O)NC2=O)c1

>  <gnina_score>  (498) 
5.289

>  <inspiration_score>  (498) 
None

>  <energy_score>  (498) 
-12.46229

>  <distance_score>  (498) 
1.321781

>  <gnina_score_min>  (498) 
5.485

>  <inchikey>  (498) 
QAWLUPFCNBGXBI-UHFFFAOYSA-N

>  <exports>  (498) 
['/opt/xchem-fragalysis-2/maxwin/BulkDock/OUTPUTS/openbind_a71ev2a_c2_elabs_1LOUU54.sdf', '/opt/xchem-fragalysis-2/maxwin/BulkDock/OUTPUTS/openbind_a71ev2a_c2_elabs_1LSYIDY.sdf']

>  <name>  (498) 
P545758

>  <ref_pdb>  (498) 
A0884a

>  <subsites>  (498) 
None

>  <HIPPO Pose ID>  (498) 
545758

>  <ref_mols>  (498) 
A0884a

>  <HIPPO Compound ID>  (498) 
384288

>  <tags>  (498) 
openbind_a71ev2a_c2_elabs,syndirella_product,openbind_a71ev2a_c2_elabs_fragonly_scored_top80percent,openbind_a71ev2a_c2_elabs_scored,BulkDock Fragalysis export,openbind_a71ev2a_c2_elabs_scored_top80percent,openbind_a71ev2a_c2_elabs_activefrags_only_scored_5.2plus,syndirella_placed

>  <smina_score_min>  (498) 
-6.547

$$$$
P545759
     RDKit          3D

 21 22  0  0  0  0  0  0  0  0999 V2000
    5.9850   16.1290   28.7442 C   0  0  0  0  0  0  0  0  0  0  0  0
    5.2874   15.4118   28.0799 C   0  0  0  0  0  0  0  0  0  0  0  0
    4.4265   14.5440   27.2615 C   0  0  0  0  0  0  0  0  0  0  0  0
    5.1249   13.2375   26.8893 C   0  0  0  0  0  0  0  0  0  0  0  0
    4.8157   12.1979   27.3339 O   0  0  0  0  0  0  0  0  0  0  0  0
    6.2155   13.6018   25.8293 N   0  0  0  0  0  0  0  0  0  0  0  0
    7.1682   12.8034   25.2017 C   0  0  0  0  0  0  0  0  0  0  0  0
    7.1881   11.4246   25.3645 C   0  0  0  0  0  0  0  0  0  0  0  0
    8.1286   10.6641   24.6769 C   0  0  0  0  0  0  0  0  0  0  0  0
    9.0615   11.2650   23.8174 C   0  0  0  0  0  0  0  0  0  0  0  0
    9.9526   10.3349   23.0602 C   0  0  0  0  0  0  0  0  0  0  0  0
    9.0723   12.6656   23.6790 C   0  0  0  0  0  0  0  0  0  0  0  0
   10.0126   13.3411   22.8319 N   0  0  0  0  0  0  0  0  0  0  0  0
    9.4868   14.3293   21.8949 C   0  0  0  0  0  0  0  0  0  0  0  0
   10.4681   14.8007   20.8429 C   0  0  0  0  0  0  0  0  0  0  0  0
   11.8864   14.5201   21.2179 C   0  0  0  0  0  0  0  0  0  0  0  0
   12.7850   14.4727   20.3814 O   0  0  0  0  0  0  0  0  0  0  0  0
   12.1156   14.3358   22.5477 N   0  0  0  0  0  0  0  0  0  0  0  0
   11.2975   13.5655   23.3324 C   0  0  0  0  0  0  0  0  0  0  0  0
   11.7280   13.1196   24.3943 O   0  0  0  0  0  0  0  0  0  0  0  0
    8.1080   13.4174   24.3684 C   0  0  0  0  0  0  0  0  0  0  0  0
  1  2  3  0
  2  3  1  0
  3  4  1  0
  4  5  2  0
  4  6  1  0
  6  7  1  0
  7  8  2  0
  8  9  1  0
  9 10  2  0
 10 11  1  0
 10 12  1  0
 12 13  1  0
 13 14  1  0
 14 15  1  0
 15 16  1  0
 16 17  2  0
 16 18  1  0
 18 19  1  0
 19 20  2  0
 12 21  2  0
 21  7  1  0
 19 13  1  0
M  END
>  <alias>  (499) 
None

>  <rmsd(smina/fragmenstein)>  (499) 
0.553

>  <smiles>  (499) 
C#CCC(=O)Nc1ccc(C)c(N2CCC(=O)NC2=O)c1

>  <gnina_score>  (499) 
5.314

>  <inspiration_score>  (499) 
None

>  <energy_score>  (499) 
-16.758907

>  <distance_score>  (499) 
1.407274

>  <gnina_score_min>  (499) 
5.339

>  <inchikey>  (499) 
PZRLFNRCLYKNDI-UHFFFAOYSA-N

>  <exports>  (499) 
['/opt/xchem-fragalysis-2/maxwin/BulkDock/OUTPUTS/openbind_a71ev2a_c2_elabs_1LOUU54.sdf', '/opt/xchem-fragalysis-2/maxwin/BulkDock/OUTPUTS/openbind_a71ev2a_c2_elabs_1LSYIDY.sdf']

>  <name>  (499) 
P545759

>  <ref_pdb>  (499) 
A0884a

>  <subsites>  (499) 
None

>  <HIPPO Pose ID>  (499) 
545759

>  <ref_mols>  (499) 
A0884a

>  <HIPPO Compound ID>  (499) 
384289

>  <tags>  (499) 
openbind_a71ev2a_c2_elabs,syndirella_product,openbind_a71ev2a_c2_elabs_fragonly_scored_top80percent,openbind_a71ev2a_c2_elabs_scored,BulkDock Fragalysis export,openbind_a71ev2a_c2_elabs_scored_top80percent,openbind_a71ev2a_c2_elabs_activefrags_only_scored_5.2plus,syndirella_placed

>  <smina_score_min>  (499) 
-6.501

$$$$
P545763
     RDKit          3D

 21 22  0  0  0  0  0  0  0  0999 V2000
    4.9622   12.0669   26.9707 O   0  0  0  0  0  0  0  0  0  0  0  0
    5.1663   13.0959   26.4588 C   0  0  0  0  0  0  0  0  0  0  0  0
    4.4282   14.3116   26.8826 C   0  0  0  0  0  0  0  0  0  0  0  0
    3.6619   15.0775   26.0946 C   0  0  0  0  0  0  0  0  0  0  0  0
    3.3710   14.8023   24.2703 Br  0  0  0  0  0  0  0  0  0  0  0  0
    2.7439   16.5439   26.8288 Br  0  0  0  0  0  0  0  0  0  0  0  0
    6.2151   13.4957   25.3938 N   0  0  0  0  0  0  0  0  0  0  0  0
    7.2545   12.7614   24.8276 C   0  0  0  0  0  0  0  0  0  0  0  0
    7.4014   11.3917   25.0538 C   0  0  0  0  0  0  0  0  0  0  0  0
    8.4606   10.7038   24.4644 C   0  0  0  0  0  0  0  0  0  0  0  0
    9.3946   11.3961   23.7017 C   0  0  0  0  0  0  0  0  0  0  0  0
   10.3854   10.6982   23.1393 F   0  0  0  0  0  0  0  0  0  0  0  0
    9.2709   12.7711   23.4724 C   0  0  0  0  0  0  0  0  0  0  0  0
   10.2649   13.4794   22.7323 N   0  0  0  0  0  0  0  0  0  0  0  0
    9.8322   14.4491   21.7296 C   0  0  0  0  0  0  0  0  0  0  0  0
   10.9307   14.8941   20.7843 C   0  0  0  0  0  0  0  0  0  0  0  0
   12.1725   15.2152   21.5711 C   0  0  0  0  0  0  0  0  0  0  0  0
   12.4762   14.2207   22.5577 N   0  0  0  0  0  0  0  0  0  0  0  0
   11.5369   13.5523   23.2811 C   0  0  0  0  0  0  0  0  0  0  0  0
   11.8576   13.0899   24.3751 O   0  0  0  0  0  0  0  0  0  0  0  0
    8.1694   13.4405   24.0141 C   0  0  0  0  0  0  0  0  0  0  0  0
  1  2  2  0
  2  3  1  0
  3  4  2  3
  4  5  1  0
  4  6  1  0
  2  7  1  0
  7  8  1  0
  8  9  2  0
  9 10  1  0
 10 11  2  0
 11 12  1  0
 11 13  1  0
 13 14  1  0
 14 15  1  0
 15 16  1  0
 16 17  1  0
 17 18  1  0
 18 19  1  0
 19 20  2  0
 13 21  2  0
 21  8  1  0
 19 14  1  0
M  END
>  <alias>  (500) 
None

>  <rmsd(smina/fragmenstein)>  (500) 
1.118

>  <smiles>  (500) 
O=C(C=C(Br)Br)Nc1ccc(F)c(N2CCCNC2=O)c1

>  <gnina_score>  (500) 
5.397

>  <inspiration_score>  (500) 
None

>  <energy_score>  (500) 
-35.079726

>  <distance_score>  (500) 
1.332176

>  <gnina_score_min>  (500) 
5.33

>  <inchikey>  (500) 
ITXCGPZHPUKYTO-UHFFFAOYSA-N

>  <exports>  (500) 
['/opt/xchem-fragalysis-2/maxwin/BulkDock/OUTPUTS/openbind_a71ev2a_c2_elabs_1LOUU54.sdf', '/opt/xchem-fragalysis-2/maxwin/BulkDock/OUTPUTS/openbind_a71ev2a_c2_elabs_1LSYIDY.sdf']

>  <name>  (500) 
P545763

>  <ref_pdb>  (500) 
A0884a

>  <subsites>  (500) 
None

>  <HIPPO Pose ID>  (500) 
545763

>  <ref_mols>  (500) 
A0884a

>  <HIPPO Compound ID>  (500) 
384294

>  <tags>  (500) 
openbind_a71ev2a_c2_elabs,syndirella_product,openbind_a71ev2a_c2_elabs_fragonly_scored_top80percent,openbind_a71ev2a_c2_elabs_scored,BulkDock Fragalysis export,openbind_a71ev2a_c2_elabs_scored_top80percent,openbind_a71ev2a_c2_elabs_activefrags_only_scored_5.2plus,syndirella_placed

>  <smina_score_min>  (500) 
-6.694

$$$$
P545764
     RDKit          3D

 21 22  0  0  0  0  0  0  0  0999 V2000
    7.6657   14.6886   24.5932 C   0  0  0  0  0  0  0  0  0  0  0  0
    8.0407   13.2340   24.4930 C   0  0  0  0  0  0  0  0  0  0  0  0
    7.3337   12.2438   25.2157 C   0  0  0  0  0  0  0  0  0  0  0  0
    6.3260   12.6153   26.1113 N   0  0  0  0  0  0  0  0  0  0  0  0
    5.6088   11.7987   27.2104 C   0  0  0  0  0  0  0  0  0  0  0  0
    5.6919   10.6702   27.4884 O   0  0  0  0  0  0  0  0  0  0  0  0
    4.7098   12.7279   27.9233 C   0  0  0  0  0  0  0  0  0  0  0  0
    5.1059   13.3654   29.0322 C   0  0  0  0  0  0  0  0  0  0  0  0
    6.8074   13.2113   29.7987 Br  0  0  0  0  0  0  0  0  0  0  0  0
    3.9294   14.5285   29.9172 Br  0  0  0  0  0  0  0  0  0  0  0  0
    7.6593   10.8920   25.0654 C   0  0  0  0  0  0  0  0  0  0  0  0
    8.7010   10.5082   24.2282 C   0  0  0  0  0  0  0  0  0  0  0  0
    9.4556   11.4816   23.5951 C   0  0  0  0  0  0  0  0  0  0  0  0
   10.4511   11.0901   22.7971 F   0  0  0  0  0  0  0  0  0  0  0  0
    9.1675   12.8434   23.7391 C   0  0  0  0  0  0  0  0  0  0  0  0
   10.0588   13.8188   23.2187 N   0  0  0  0  0  0  0  0  0  0  0  0
    9.9247   14.3083   21.8615 C   0  0  0  0  0  0  0  0  0  0  0  0
   11.2966   14.8686   21.5147 C   0  0  0  0  0  0  0  0  0  0  0  0
   12.1562   14.3411   22.5302 N   0  0  0  0  0  0  0  0  0  0  0  0
   11.4248   13.7732   23.5566 C   0  0  0  0  0  0  0  0  0  0  0  0
   11.9052   13.3564   24.5986 O   0  0  0  0  0  0  0  0  0  0  0  0
  1  2  1  0
  2  3  2  0
  3  4  1  0
  4  5  1  0
  5  6  2  0
  5  7  1  0
  7  8  2  3
  8  9  1  0
  8 10  1  0
  3 11  1  0
 11 12  2  0
 12 13  1  0
 13 14  1  0
 13 15  2  0
 15 16  1  0
 16 17  1  0
 17 18  1  0
 18 19  1  0
 19 20  1  0
 20 21  2  0
 15  2  1  0
 20 16  1  0
M  END
>  <alias>  (501) 
None

>  <rmsd(smina/fragmenstein)>  (501) 
0.273

>  <smiles>  (501) 
Cc1c(NC(=O)C=C(Br)Br)ccc(F)c1N1CCNC1=O

>  <gnina_score>  (501) 
5.315

>  <inspiration_score>  (501) 
None

>  <energy_score>  (501) 
-51.164569

>  <distance_score>  (501) 
1.187163

>  <gnina_score_min>  (501) 
5.362

>  <inchikey>  (501) 
GHFBAUZBHRUDFV-UHFFFAOYSA-N

>  <exports>  (501) 
['/opt/xchem-fragalysis-2/maxwin/BulkDock/OUTPUTS/openbind_a71ev2a_c2_elabs_1LOUU54.sdf', '/opt/xchem-fragalysis-2/maxwin/BulkDock/OUTPUTS/openbind_a71ev2a_c2_elabs_1LSYIDY.sdf']

>  <name>  (501) 
P545764

>  <ref_pdb>  (501) 
A0884a

>  <subsites>  (501) 
None

>  <HIPPO Pose ID>  (501) 
545764

>  <ref_mols>  (501) 
A0884a

>  <HIPPO Compound ID>  (501) 
384295

>  <tags>  (501) 
openbind_a71ev2a_c2_elabs,syndirella_product,openbind_a71ev2a_c2_elabs_fragonly_scored_top80percent,openbind_a71ev2a_c2_elabs_scored,BulkDock Fragalysis export,openbind_a71ev2a_c2_elabs_scored_top80percent,openbind_a71ev2a_c2_elabs_activefrags_only_scored_5.2plus,syndirella_placed

>  <smina_score_min>  (501) 
-6.191

$$$$
P545766
     RDKit          3D

 21 22  0  0  0  0  0  0  0  0999 V2000
    8.3752   14.3716   24.9171 C   0  0  0  0  0  0  0  0  0  0  0  0
    8.5627   12.8986   24.7133 C   0  0  0  0  0  0  0  0  0  0  0  0
    7.6822   11.9522   25.2671 C   0  0  0  0  0  0  0  0  0  0  0  0
    6.6466   12.2129   26.1691 N   0  0  0  0  0  0  0  0  0  0  0  0
    6.4722   13.3586   27.1968 C   0  0  0  0  0  0  0  0  0  0  0  0
    7.2004   14.2173   27.5028 O   0  0  0  0  0  0  0  0  0  0  0  0
    5.0914   13.2968   27.7376 C   0  0  0  0  0  0  0  0  0  0  0  0
    4.5579   12.2605   28.3974 C   0  0  0  0  0  0  0  0  0  0  0  0
    2.7838   12.3487   29.0075 Br  0  0  0  0  0  0  0  0  0  0  0  0
    5.4420   10.6577   28.7863 Br  0  0  0  0  0  0  0  0  0  0  0  0
    7.7825   10.6102   24.8880 C   0  0  0  0  0  0  0  0  0  0  0  0
    8.7476   10.1916   23.9824 C   0  0  0  0  0  0  0  0  0  0  0  0
    9.6294   11.1072   23.4456 C   0  0  0  0  0  0  0  0  0  0  0  0
    9.5771   12.4455   23.8367 C   0  0  0  0  0  0  0  0  0  0  0  0
   10.5857   13.2659   23.3098 N   0  0  0  0  0  0  0  0  0  0  0  0
   11.5288   13.9361   24.0337 C   0  0  0  0  0  0  0  0  0  0  0  0
   11.7007   13.9400   25.2454 O   0  0  0  0  0  0  0  0  0  0  0  0
   12.3531   14.7596   23.0641 C   0  0  0  0  0  0  0  0  0  0  0  0
   11.6634   14.5563   21.8477 N   0  0  0  0  0  0  0  0  0  0  0  0
   10.5201   13.8426   22.0793 C   0  0  0  0  0  0  0  0  0  0  0  0
    9.5762   13.8865   21.3141 O   0  0  0  0  0  0  0  0  0  0  0  0
  1  2  1  0
  2  3  2  0
  3  4  1  0
  4  5  1  0
  5  6  2  0
  5  7  1  0
  7  8  2  3
  8  9  1  0
  8 10  1  0
  3 11  1  0
 11 12  2  0
 12 13  1  0
 13 14  2  0
 14 15  1  0
 15 16  1  0
 16 17  2  0
 16 18  1  0
 18 19  1  0
 19 20  1  0
 20 21  2  0
 14  2  1  0
 20 15  1  0
M  END
>  <alias>  (502) 
None

>  <rmsd(smina/fragmenstein)>  (502) 
0.495

>  <smiles>  (502) 
Cc1c(NC(=O)C=C(Br)Br)cccc1N1C(=O)CNC1=O

>  <gnina_score>  (502) 
5.391

>  <inspiration_score>  (502) 
None

>  <energy_score>  (502) 
-38.403405

>  <distance_score>  (502) 
1.583382

>  <gnina_score_min>  (502) 
5.414

>  <inchikey>  (502) 
WQRRBDNQGCXUNP-UHFFFAOYSA-N

>  <exports>  (502) 
['/opt/xchem-fragalysis-2/maxwin/BulkDock/OUTPUTS/openbind_a71ev2a_c2_elabs_1LOUU54.sdf', '/opt/xchem-fragalysis-2/maxwin/BulkDock/OUTPUTS/openbind_a71ev2a_c2_elabs_1LSYIDY.sdf']

>  <name>  (502) 
P545766

>  <ref_pdb>  (502) 
A0884a

>  <subsites>  (502) 
None

>  <HIPPO Pose ID>  (502) 
545766

>  <ref_mols>  (502) 
A0884a

>  <HIPPO Compound ID>  (502) 
384299

>  <tags>  (502) 
openbind_a71ev2a_c2_elabs,syndirella_product,openbind_a71ev2a_c2_elabs_fragonly_scored_top80percent,openbind_a71ev2a_c2_elabs_scored,BulkDock Fragalysis export,openbind_a71ev2a_c2_elabs_scored_top80percent,openbind_a71ev2a_c2_elabs_activefrags_only_scored_5.2plus,syndirella_placed

>  <smina_score_min>  (502) 
-6.64

$$$$
P545769
     RDKit          3D

 21 22  0  0  0  0  0  0  0  0999 V2000
    6.3740   13.1254   29.8011 C   0  0  0  0  0  0  0  0  0  0  0  0
    5.5719   14.0428   28.4609 S   0  0  0  0  0  0  0  0  0  0  0  0
    4.7226   12.6589   27.6343 C   0  0  0  0  0  0  0  0  0  0  0  0
    5.7313   11.6981   27.0108 C   0  0  0  0  0  0  0  0  0  0  0  0
    5.8996   10.6059   27.3974 O   0  0  0  0  0  0  0  0  0  0  0  0
    6.4032   12.4674   25.8315 N   0  0  0  0  0  0  0  0  0  0  0  0
    7.4484   12.0921   24.9811 C   0  0  0  0  0  0  0  0  0  0  0  0
    7.8598   10.7611   24.9386 C   0  0  0  0  0  0  0  0  0  0  0  0
    8.9382   10.3846   24.1471 C   0  0  0  0  0  0  0  0  0  0  0  0
    9.6458   11.3477   23.4401 C   0  0  0  0  0  0  0  0  0  0  0  0
    9.2412   12.6875   23.4442 C   0  0  0  0  0  0  0  0  0  0  0  0
    9.9976   13.6057   22.6846 N   0  0  0  0  0  0  0  0  0  0  0  0
   11.3547   13.7788   22.7804 C   0  0  0  0  0  0  0  0  0  0  0  0
   12.1359   13.2979   23.5840 O   0  0  0  0  0  0  0  0  0  0  0  0
   11.7506   14.6909   21.8318 N   0  0  0  0  0  0  0  0  0  0  0  0
   10.6397   15.1980   21.0724 C   0  0  1  0  0  0  0  0  0  0  0  0
   10.8210   15.1026   19.5749 C   0  0  0  0  0  0  0  0  0  0  0  0
    9.5103   14.3183   21.6113 C   0  0  0  0  0  0  0  0  0  0  0  0
    8.3751   14.2717   21.1502 O   0  0  0  0  0  0  0  0  0  0  0  0
    8.0944   13.0660   24.1826 C   0  0  0  0  0  0  0  0  0  0  0  0
    7.5899   14.4864   24.2271 C   0  0  0  0  0  0  0  0  0  0  0  0
  1  2  1  0
  2  3  1  0
  3  4  1  0
  4  5  2  0
  4  6  1  0
  6  7  1  0
  7  8  2  0
  8  9  1  0
  9 10  2  0
 10 11  1  0
 11 12  1  0
 12 13  1  0
 13 14  2  0
 13 15  1  0
 15 16  1  0
 16 17  1  6
 16 18  1  0
 18 19  2  0
 11 20  2  0
 20 21  1  0
 20  7  1  0
 18 12  1  0
M  END
>  <alias>  (503) 
None

>  <rmsd(smina/fragmenstein)>  (503) 
0.421

>  <smiles>  (503) 
CSCC(=O)Nc1cccc(N2C(=O)N[C@@H](C)C2=O)c1C

>  <gnina_score>  (503) 
5.33

>  <inspiration_score>  (503) 
None

>  <energy_score>  (503) 
-54.549763

>  <distance_score>  (503) 
1.379746

>  <gnina_score_min>  (503) 
5.323

>  <inchikey>  (503) 
MDWMDFRFINLGRY-VIFPVBQESA-N

>  <exports>  (503) 
['/opt/xchem-fragalysis-2/maxwin/BulkDock/OUTPUTS/openbind_a71ev2a_c2_elabs_1LOUU54.sdf', '/opt/xchem-fragalysis-2/maxwin/BulkDock/OUTPUTS/openbind_a71ev2a_c2_elabs_1LSYIDY.sdf']

>  <name>  (503) 
P545769

>  <ref_pdb>  (503) 
A0884a

>  <subsites>  (503) 
None

>  <HIPPO Pose ID>  (503) 
545769

>  <ref_mols>  (503) 
A0884a

>  <HIPPO Compound ID>  (503) 
384302

>  <tags>  (503) 
openbind_a71ev2a_c2_elabs,syndirella_product,openbind_a71ev2a_c2_elabs_fragonly_scored_top80percent,openbind_a71ev2a_c2_elabs_scored,BulkDock Fragalysis export,openbind_a71ev2a_c2_elabs_scored_top80percent,openbind_a71ev2a_c2_elabs_activefrags_only_scored_5.2plus,syndirella_placed

>  <smina_score_min>  (503) 
-6.836

$$$$
P545773
     RDKit          3D

 21 22  0  0  0  0  0  0  0  0999 V2000
    9.0651    9.5621   23.9090 C   0  0  0  0  0  0  0  0  0  0  0  0
    8.8004   11.0054   24.1239 C   0  0  0  0  0  0  0  0  0  0  0  0
    7.7122   11.4674   24.8755 C   0  0  0  0  0  0  0  0  0  0  0  0
    7.4397   12.8339   24.9335 C   0  0  0  0  0  0  0  0  0  0  0  0
    6.3661   13.3493   25.6521 N   0  0  0  0  0  0  0  0  0  0  0  0
    5.3681   12.6514   26.6063 C   0  0  0  0  0  0  0  0  0  0  0  0
    5.3380   11.5526   26.9974 O   0  0  0  0  0  0  0  0  0  0  0  0
    4.3555   13.6527   27.0249 C   0  0  0  0  0  0  0  0  0  0  0  0
    4.7210   14.7307   27.7290 C   0  0  0  0  0  0  0  0  0  0  0  0
    3.3732   16.1160   28.3904 I   0  0  0  0  0  0  0  0  0  0  0  0
    8.2514   13.7321   24.2416 C   0  0  0  0  0  0  0  0  0  0  0  0
    9.3676   13.2689   23.5507 C   0  0  0  0  0  0  0  0  0  0  0  0
   10.1983   14.1723   22.8491 N   0  0  0  0  0  0  0  0  0  0  0  0
    9.6722   14.5857   21.5469 C   0  0  0  0  0  0  0  0  0  0  0  0
   10.6371   15.3751   20.7093 C   0  0  0  0  0  0  0  0  0  0  0  0
   11.9999   14.7808   20.8811 C   0  0  0  0  0  0  0  0  0  0  0  0
   12.7110   14.4103   19.9525 O   0  0  0  0  0  0  0  0  0  0  0  0
   12.3839   14.6961   22.1877 N   0  0  0  0  0  0  0  0  0  0  0  0
   11.5594   14.1505   23.1260 C   0  0  0  0  0  0  0  0  0  0  0  0
   12.0383   13.6558   24.1483 O   0  0  0  0  0  0  0  0  0  0  0  0
    9.6377   11.9093   23.4848 C   0  0  0  0  0  0  0  0  0  0  0  0
  1  2  1  0
  2  3  2  0
  3  4  1  0
  4  5  1  0
  5  6  1  0
  6  7  2  0
  6  8  1  0
  8  9  2  0
  9 10  1  0
  4 11  2  0
 11 12  1  0
 12 13  1  0
 13 14  1  0
 14 15  1  0
 15 16  1  0
 16 17  2  0
 16 18  1  0
 18 19  1  0
 19 20  2  0
 12 21  2  0
 21  2  1  0
 19 13  1  0
M  END
>  <alias>  (504) 
None

>  <rmsd(smina/fragmenstein)>  (504) 
0.678

>  <smiles>  (504) 
Cc1cc(NC(=O)/C=C/I)cc(N2CCC(=O)NC2=O)c1

>  <gnina_score>  (504) 
5.383

>  <inspiration_score>  (504) 
None

>  <energy_score>  (504) 
-11.404849

>  <distance_score>  (504) 
1.340584

>  <gnina_score_min>  (504) 
5.479

>  <inchikey>  (504) 
GHLPAYAJSUGOGL-DUXPYHPUSA-N

>  <exports>  (504) 
['/opt/xchem-fragalysis-2/maxwin/BulkDock/OUTPUTS/openbind_a71ev2a_c2_elabs_1LOUU54.sdf', '/opt/xchem-fragalysis-2/maxwin/BulkDock/OUTPUTS/openbind_a71ev2a_c2_elabs_1LSYIDY.sdf']

>  <name>  (504) 
P545773

>  <ref_pdb>  (504) 
A0884a

>  <subsites>  (504) 
None

>  <HIPPO Pose ID>  (504) 
545773

>  <ref_mols>  (504) 
A0884a

>  <HIPPO Compound ID>  (504) 
384306

>  <tags>  (504) 
openbind_a71ev2a_c2_elabs,syndirella_product,openbind_a71ev2a_c2_elabs_fragonly_scored_top80percent,openbind_a71ev2a_c2_elabs_scored,BulkDock Fragalysis export,openbind_a71ev2a_c2_elabs_scored_top80percent,openbind_a71ev2a_c2_elabs_activefrags_only_scored_5.2plus,syndirella_placed

>  <smina_score_min>  (504) 
-6.87

$$$$
P545775
     RDKit          3D

 21 22  0  0  0  0  0  0  0  0999 V2000
    5.2907   11.6282   26.9977 O   0  0  0  0  0  0  0  0  0  0  0  0
    5.3879   12.7417   26.6642 C   0  0  0  0  0  0  0  0  0  0  0  0
    4.4748   13.7957   27.1808 C   0  0  0  0  0  0  0  0  0  0  0  0
    4.8363   14.8663   27.9008 C   0  0  0  0  0  0  0  0  0  0  0  0
    6.7237   15.3656   28.5090 I   0  0  0  0  0  0  0  0  0  0  0  0
    6.3476   13.4035   25.6490 N   0  0  0  0  0  0  0  0  0  0  0  0
    7.4109   12.8683   24.9301 C   0  0  0  0  0  0  0  0  0  0  0  0
    7.6718   11.5012   24.8903 C   0  0  0  0  0  0  0  0  0  0  0  0
    8.7571   11.0457   24.1460 C   0  0  0  0  0  0  0  0  0  0  0  0
    9.0542    9.3925   23.9372 Cl  0  0  0  0  0  0  0  0  0  0  0  0
    9.6112   11.9188   23.4985 C   0  0  0  0  0  0  0  0  0  0  0  0
    9.3468   13.2788   23.5433 C   0  0  0  0  0  0  0  0  0  0  0  0
   10.1814   14.1730   22.8326 N   0  0  0  0  0  0  0  0  0  0  0  0
    9.6576   14.5804   21.5268 C   0  0  0  0  0  0  0  0  0  0  0  0
   10.6256   15.3641   20.6870 C   0  0  0  0  0  0  0  0  0  0  0  0
   11.9865   14.7658   20.8606 C   0  0  0  0  0  0  0  0  0  0  0  0
   12.7013   14.3980   19.9349 O   0  0  0  0  0  0  0  0  0  0  0  0
   12.3703   14.6807   22.1679 N   0  0  0  0  0  0  0  0  0  0  0  0
   11.5415   14.1513   23.1113 C   0  0  0  0  0  0  0  0  0  0  0  0
   12.0136   13.6804   24.1475 O   0  0  0  0  0  0  0  0  0  0  0  0
    8.2310   13.7541   24.2283 C   0  0  0  0  0  0  0  0  0  0  0  0
  1  2  2  0
  2  3  1  0
  3  4  2  0
  4  5  1  0
  2  6  1  0
  6  7  1  0
  7  8  2  0
  8  9  1  0
  9 10  1  0
  9 11  2  0
 11 12  1  0
 12 13  1  0
 13 14  1  0
 14 15  1  0
 15 16  1  0
 16 17  2  0
 16 18  1  0
 18 19  1  0
 19 20  2  0
 12 21  2  0
 21  7  1  0
 19 13  1  0
M  END
>  <alias>  (505) 
None

>  <rmsd(smina/fragmenstein)>  (505) 
0.883

>  <smiles>  (505) 
O=C(/C=C\I)Nc1cc(Cl)cc(N2CCC(=O)NC2=O)c1

>  <gnina_score>  (505) 
5.321

>  <inspiration_score>  (505) 
None

>  <energy_score>  (505) 
-1.021757

>  <distance_score>  (505) 
1.354044

>  <gnina_score_min>  (505) 
5.53

>  <inchikey>  (505) 
CZUSCTWWJQOLFQ-IWQZZHSRSA-N

>  <exports>  (505) 
['/opt/xchem-fragalysis-2/maxwin/BulkDock/OUTPUTS/openbind_a71ev2a_c2_elabs_1LOUU54.sdf', '/opt/xchem-fragalysis-2/maxwin/BulkDock/OUTPUTS/openbind_a71ev2a_c2_elabs_1LSYIDY.sdf']

>  <name>  (505) 
P545775

>  <ref_pdb>  (505) 
A0884a

>  <subsites>  (505) 
None

>  <HIPPO Pose ID>  (505) 
545775

>  <ref_mols>  (505) 
A0884a

>  <HIPPO Compound ID>  (505) 
384307

>  <tags>  (505) 
openbind_a71ev2a_c2_elabs,syndirella_product,openbind_a71ev2a_c2_elabs_fragonly_scored_top80percent,BulkDock Fragalysis export,openbind_a71ev2a_c2_elabs_scored,openbind_a71ev2a_c2_elabs_scored_top80percent,openbind_a71ev2a_c2_elabs_activefrags_only_scored_5.2plus,openbind_a71ev2a_c2_elabs_activefrags_only_scored_5.5plus,syndirella_placed

>  <smina_score_min>  (505) 
-6.854

$$$$
P545777
     RDKit          3D

 21 22  0  0  0  0  0  0  0  0999 V2000
    4.7492   11.9241   27.1908 O   0  0  0  0  0  0  0  0  0  0  0  0
    5.2771   12.9532   27.0366 C   0  0  0  0  0  0  0  0  0  0  0  0
    4.7021   14.2072   27.5971 C   0  0  0  0  0  0  0  0  0  0  0  0
    5.3096   15.0981   28.3920 C   0  0  0  0  0  0  0  0  0  0  0  0
    7.2188   15.0270   29.1124 I   0  0  0  0  0  0  0  0  0  0  0  0
    6.5298   13.3239   26.2067 N   0  0  0  0  0  0  0  0  0  0  0  0
    7.4190   12.5142   25.4940 C   0  0  0  0  0  0  0  0  0  0  0  0
    8.5090   13.1619   24.8997 C   0  0  0  0  0  0  0  0  0  0  0  0
    9.4653   12.4553   24.1580 C   0  0  0  0  0  0  0  0  0  0  0  0
   10.5875   13.1290   23.6000 N   0  0  0  0  0  0  0  0  0  0  0  0
   10.8254   12.9309   22.1954 C   0  0  0  0  0  0  0  0  0  0  0  0
   12.2173   13.3596   21.8138 C   0  0  0  0  0  0  0  0  0  0  0  0
   12.3333   14.7890   22.1323 C   0  0  0  0  0  0  0  0  0  0  0  0
   12.8501   15.6005   21.3810 O   0  0  0  0  0  0  0  0  0  0  0  0
   11.8675   15.0741   23.3757 N   0  0  0  0  0  0  0  0  0  0  0  0
   11.1727   14.2279   24.2082 C   0  0  0  0  0  0  0  0  0  0  0  0
   11.0970   14.4598   25.4116 O   0  0  0  0  0  0  0  0  0  0  0  0
    9.2907   11.0814   23.9625 C   0  0  0  0  0  0  0  0  0  0  0  0
    8.2317   10.4247   24.5788 C   0  0  0  0  0  0  0  0  0  0  0  0
    7.3106   11.1343   25.3459 C   0  0  0  0  0  0  0  0  0  0  0  0
    6.3394   10.4352   25.9394 F   0  0  0  0  0  0  0  0  0  0  0  0
  1  2  2  0
  2  3  1  0
  3  4  2  0
  4  5  1  0
  2  6  1  0
  6  7  1  0
  7  8  2  0
  8  9  1  0
  9 10  1  0
 10 11  1  0
 11 12  1  0
 12 13  1  0
 13 14  2  0
 13 15  1  0
 15 16  1  0
 16 17  2  0
  9 18  2  0
 18 19  1  0
 19 20  2  0
 20 21  1  0
 20  7  1  0
 16 10  1  0
M  END
>  <alias>  (506) 
None

>  <rmsd(smina/fragmenstein)>  (506) 
1.21

>  <smiles>  (506) 
O=C(/C=C\I)Nc1cc(N2CCC(=O)NC2=O)ccc1F

>  <gnina_score>  (506) 
5.008

>  <inspiration_score>  (506) 
None

>  <energy_score>  (506) 
-5.212538

>  <distance_score>  (506) 
1.336805

>  <gnina_score_min>  (506) 
5.353

>  <inchikey>  (506) 
SCBZMRPPHHDWQJ-HYXAFXHYSA-N

>  <exports>  (506) 
['/opt/xchem-fragalysis-2/maxwin/BulkDock/OUTPUTS/openbind_a71ev2a_c2_elabs_1LOUU54.sdf', '/opt/xchem-fragalysis-2/maxwin/BulkDock/OUTPUTS/openbind_a71ev2a_c2_elabs_1LSYIDY.sdf']

>  <name>  (506) 
P545777

>  <ref_pdb>  (506) 
A0884a

>  <subsites>  (506) 
None

>  <HIPPO Pose ID>  (506) 
545777

>  <ref_mols>  (506) 
A0884a

>  <HIPPO Compound ID>  (506) 
384308

>  <tags>  (506) 
openbind_a71ev2a_c2_elabs,syndirella_product,openbind_a71ev2a_c2_elabs_fragonly_scored_top80percent,openbind_a71ev2a_c2_elabs_scored,BulkDock Fragalysis export,openbind_a71ev2a_c2_elabs_scored_top80percent,openbind_a71ev2a_c2_elabs_activefrags_only_scored_5.2plus,syndirella_placed

>  <smina_score_min>  (506) 
-5.819

$$$$
P545779
     RDKit          3D

 21 22  0  0  0  0  0  0  0  0999 V2000
    9.9481   10.3239   23.0599 C   0  0  0  0  0  0  0  0  0  0  0  0
    9.0626   11.2666   23.8082 C   0  0  0  0  0  0  0  0  0  0  0  0
    8.1242   10.6810   24.6738 C   0  0  0  0  0  0  0  0  0  0  0  0
    7.1918   11.4558   25.3575 C   0  0  0  0  0  0  0  0  0  0  0  0
    7.1899   12.8334   25.1870 C   0  0  0  0  0  0  0  0  0  0  0  0
    6.2639   13.6594   25.8157 N   0  0  0  0  0  0  0  0  0  0  0  0
    5.0936   13.3153   26.7670 C   0  0  0  0  0  0  0  0  0  0  0  0
    4.7716   12.2943   27.2319 O   0  0  0  0  0  0  0  0  0  0  0  0
    4.3256   14.5647   27.0194 C   0  0  0  0  0  0  0  0  0  0  0  0
    4.7853   15.6847   27.5932 C   0  0  0  0  0  0  0  0  0  0  0  0
    6.6657   16.0258   28.3174 I   0  0  0  0  0  0  0  0  0  0  0  0
    8.1375   13.4312   24.3518 C   0  0  0  0  0  0  0  0  0  0  0  0
    9.0889   12.6661   23.6617 C   0  0  0  0  0  0  0  0  0  0  0  0
   10.0316   13.3318   22.8092 N   0  0  0  0  0  0  0  0  0  0  0  0
    9.5091   14.3294   21.8789 C   0  0  0  0  0  0  0  0  0  0  0  0
   10.4888   14.7971   20.8242 C   0  0  0  0  0  0  0  0  0  0  0  0
   11.9055   14.5101   21.1988 C   0  0  0  0  0  0  0  0  0  0  0  0
   12.8017   14.4528   20.3606 O   0  0  0  0  0  0  0  0  0  0  0  0
   12.1338   14.3298   22.5295 N   0  0  0  0  0  0  0  0  0  0  0  0
   11.3165   13.5559   23.3119 C   0  0  0  0  0  0  0  0  0  0  0  0
   11.7463   13.1058   24.3722 O   0  0  0  0  0  0  0  0  0  0  0  0
  1  2  1  0
  2  3  2  0
  3  4  1  0
  4  5  2  0
  5  6  1  0
  6  7  1  0
  7  8  2  0
  7  9  1  0
  9 10  2  0
 10 11  1  0
  5 12  1  0
 12 13  2  0
 13 14  1  0
 14 15  1  0
 15 16  1  0
 16 17  1  0
 17 18  2  0
 17 19  1  0
 19 20  1  0
 20 21  2  0
 13  2  1  0
 20 14  1  0
M  END
>  <alias>  (507) 
None

>  <rmsd(smina/fragmenstein)>  (507) 
0.554

>  <smiles>  (507) 
Cc1ccc(NC(=O)/C=C\I)cc1N1CCC(=O)NC1=O

>  <gnina_score>  (507) 
5.436

>  <inspiration_score>  (507) 
None

>  <energy_score>  (507) 
-27.971916

>  <distance_score>  (507) 
1.421009

>  <gnina_score_min>  (507) 
5.382

>  <inchikey>  (507) 
KEIMELCBUBYBLC-XQRVVYSFSA-N

>  <exports>  (507) 
['/opt/xchem-fragalysis-2/maxwin/BulkDock/OUTPUTS/openbind_a71ev2a_c2_elabs_1LOUU54.sdf', '/opt/xchem-fragalysis-2/maxwin/BulkDock/OUTPUTS/openbind_a71ev2a_c2_elabs_1LSYIDY.sdf']

>  <name>  (507) 
P545779

>  <ref_pdb>  (507) 
A0884a

>  <subsites>  (507) 
None

>  <HIPPO Pose ID>  (507) 
545779

>  <ref_mols>  (507) 
A0884a

>  <HIPPO Compound ID>  (507) 
384309

>  <tags>  (507) 
openbind_a71ev2a_c2_elabs,syndirella_product,openbind_a71ev2a_c2_elabs_fragonly_scored_top80percent,openbind_a71ev2a_c2_elabs_scored,BulkDock Fragalysis export,openbind_a71ev2a_c2_elabs_scored_top80percent,openbind_a71ev2a_c2_elabs_activefrags_only_scored_5.2plus,syndirella_placed

>  <smina_score_min>  (507) 
-6.796

$$$$
P545782
     RDKit          3D

 21 22  0  0  0  0  0  0  0  0999 V2000
    4.6604   12.4227   27.1444 O   0  0  0  0  0  0  0  0  0  0  0  0
    5.0309   13.4426   26.7150 C   0  0  0  0  0  0  0  0  0  0  0  0
    4.2752   14.7044   26.9404 C   0  0  0  0  0  0  0  0  0  0  0  0
    4.7343   15.8191   27.5252 C   0  0  0  0  0  0  0  0  0  0  0  0
    6.5944   16.1340   28.3104 I   0  0  0  0  0  0  0  0  0  0  0  0
    6.2415   13.7687   25.8082 N   0  0  0  0  0  0  0  0  0  0  0  0
    7.1583   12.9261   25.1874 C   0  0  0  0  0  0  0  0  0  0  0  0
    7.1575   11.5513   25.3942 C   0  0  0  0  0  0  0  0  0  0  0  0
    8.0897   10.7569   24.7332 C   0  0  0  0  0  0  0  0  0  0  0  0
    9.0329   11.3318   23.8769 C   0  0  0  0  0  0  0  0  0  0  0  0
   10.0174   10.2296   23.0174 Cl  0  0  0  0  0  0  0  0  0  0  0  0
    9.0605   12.7212   23.6703 C   0  0  0  0  0  0  0  0  0  0  0  0
   10.0140   13.3628   22.8090 N   0  0  0  0  0  0  0  0  0  0  0  0
    9.5121   14.3446   21.8536 C   0  0  0  0  0  0  0  0  0  0  0  0
   10.5109   14.7994   20.8118 C   0  0  0  0  0  0  0  0  0  0  0  0
   11.9168   14.4602   21.1828 C   0  0  0  0  0  0  0  0  0  0  0  0
   12.8041   14.3605   20.3398 O   0  0  0  0  0  0  0  0  0  0  0  0
   12.1432   14.2947   22.5158 N   0  0  0  0  0  0  0  0  0  0  0  0
   11.3013   13.5642   23.3117 C   0  0  0  0  0  0  0  0  0  0  0  0
   11.7018   13.1392   24.3938 O   0  0  0  0  0  0  0  0  0  0  0  0
    8.1036   13.5033   24.3326 C   0  0  0  0  0  0  0  0  0  0  0  0
  1  2  2  0
  2  3  1  0
  3  4  2  0
  4  5  1  0
  2  6  1  0
  6  7  1  0
  7  8  2  0
  8  9  1  0
  9 10  2  0
 10 11  1  0
 10 12  1  0
 12 13  1  0
 13 14  1  0
 14 15  1  0
 15 16  1  0
 16 17  2  0
 16 18  1  0
 18 19  1  0
 19 20  2  0
 12 21  2  0
 21  7  1  0
 19 13  1  0
M  END
>  <alias>  (508) 
None

>  <rmsd(smina/fragmenstein)>  (508) 
0.486

>  <smiles>  (508) 
O=C(/C=C\I)Nc1ccc(Cl)c(N2CCC(=O)NC2=O)c1

>  <gnina_score>  (508) 
5.631

>  <inspiration_score>  (508) 
None

>  <energy_score>  (508) 
-25.49145

>  <distance_score>  (508) 
1.489898

>  <gnina_score_min>  (508) 
5.53

>  <inchikey>  (508) 
VHDWMDHRBQVLOT-HYXAFXHYSA-N

>  <exports>  (508) 
['/opt/xchem-fragalysis-2/maxwin/BulkDock/OUTPUTS/openbind_a71ev2a_c2_elabs_1LOUU54.sdf', '/opt/xchem-fragalysis-2/maxwin/BulkDock/OUTPUTS/openbind_a71ev2a_c2_elabs_1LSYIDY.sdf']

>  <name>  (508) 
P545782

>  <ref_pdb>  (508) 
A0884a

>  <subsites>  (508) 
None

>  <HIPPO Pose ID>  (508) 
545782

>  <ref_mols>  (508) 
A0884a

>  <HIPPO Compound ID>  (508) 
384311

>  <tags>  (508) 
openbind_a71ev2a_c2_elabs,syndirella_product,openbind_a71ev2a_c2_elabs_fragonly_scored_top80percent,BulkDock Fragalysis export,openbind_a71ev2a_c2_elabs_scored,openbind_a71ev2a_c2_elabs_scored_top80percent,openbind_a71ev2a_c2_elabs_activefrags_only_scored_5.2plus,openbind_a71ev2a_c2_elabs_activefrags_only_scored_5.5plus,syndirella_placed

>  <smina_score_min>  (508) 
-6.74

$$$$
P545784
     RDKit          3D

 21 22  0  0  0  0  0  0  0  0999 V2000
    6.1880   14.5863   26.2913 O   0  0  0  0  0  0  0  0  0  0  0  0
    5.8990   13.4581   26.3485 C   0  0  0  0  0  0  0  0  0  0  0  0
    4.7092   12.9714   27.1063 C   0  0  0  0  0  0  0  0  0  0  0  0
    3.7642   13.8498   27.4654 C   0  0  0  0  0  0  0  0  0  0  0  0
    2.0819   13.2839   28.4820 I   0  0  0  0  0  0  0  0  0  0  0  0
    6.5954   12.2116   25.7468 N   0  0  0  0  0  0  0  0  0  0  0  0
    7.6965   12.1116   24.9033 C   0  0  0  0  0  0  0  0  0  0  0  0
    8.1731   10.8341   24.5973 C   0  0  0  0  0  0  0  0  0  0  0  0
    9.2669   10.7070   23.7523 C   0  0  0  0  0  0  0  0  0  0  0  0
    9.9794    9.0655   23.2383 Br  0  0  0  0  0  0  0  0  0  0  0  0
    9.8926   11.8184   23.2327 C   0  0  0  0  0  0  0  0  0  0  0  0
    9.4246   13.0863   23.5359 C   0  0  0  0  0  0  0  0  0  0  0  0
   10.0936   14.1892   22.9464 N   0  0  0  0  0  0  0  0  0  0  0  0
    9.5061   14.6397   21.6717 C   0  0  0  0  0  0  0  0  0  0  0  0
   10.4360   15.4322   20.7790 C   0  0  0  0  0  0  0  0  0  0  0  0
   11.8190   14.9125   21.0329 C   0  0  0  0  0  0  0  0  0  0  0  0
   12.5117   14.3741   20.1777 O   0  0  0  0  0  0  0  0  0  0  0  0
   12.1777   15.0744   22.3443 N   0  0  0  0  0  0  0  0  0  0  0  0
   11.4690   14.2884   23.2064 C   0  0  0  0  0  0  0  0  0  0  0  0
   12.0079   13.7447   24.1705 O   0  0  0  0  0  0  0  0  0  0  0  0
    8.3126   13.2444   24.3589 C   0  0  0  0  0  0  0  0  0  0  0  0
  1  2  2  0
  2  3  1  0
  3  4  2  0
  4  5  1  0
  2  6  1  0
  6  7  1  0
  7  8  2  0
  8  9  1  0
  9 10  1  0
  9 11  2  0
 11 12  1  0
 12 13  1  0
 13 14  1  0
 14 15  1  0
 15 16  1  0
 16 17  2  0
 16 18  1  0
 18 19  1  0
 19 20  2  0
 12 21  2  0
 21  7  1  0
 19 13  1  0
M  END
>  <alias>  (509) 
None

>  <rmsd(smina/fragmenstein)>  (509) 
0.441

>  <smiles>  (509) 
O=C(/C=C/I)Nc1cc(Br)cc(N2CCC(=O)NC2=O)c1

>  <gnina_score>  (509) 
5.615

>  <inspiration_score>  (509) 
None

>  <energy_score>  (509) 
-20.217268

>  <distance_score>  (509) 
1.220915

>  <gnina_score_min>  (509) 
5.705

>  <inchikey>  (509) 
ZQVBKSKRQPJTRU-HNQUOIGGSA-N

>  <exports>  (509) 
['/opt/xchem-fragalysis-2/maxwin/BulkDock/OUTPUTS/openbind_a71ev2a_c2_elabs_1LOUU54.sdf', '/opt/xchem-fragalysis-2/maxwin/BulkDock/OUTPUTS/openbind_a71ev2a_c2_elabs_1LSYIDY.sdf']

>  <name>  (509) 
P545784

>  <ref_pdb>  (509) 
A0884a

>  <subsites>  (509) 
None

>  <HIPPO Pose ID>  (509) 
545784

>  <ref_mols>  (509) 
A0884a

>  <HIPPO Compound ID>  (509) 
384312

>  <tags>  (509) 
openbind_a71ev2a_c2_elabs,syndirella_product,openbind_a71ev2a_c2_elabs_fragonly_scored_top80percent,BulkDock Fragalysis export,openbind_a71ev2a_c2_elabs_scored,openbind_a71ev2a_c2_elabs_scored_top80percent,openbind_a71ev2a_c2_elabs_activefrags_only_scored_5.2plus,openbind_a71ev2a_c2_elabs_activefrags_only_scored_5.5plus,syndirella_placed

>  <smina_score_min>  (509) 
-6.612

$$$$
P545789
     RDKit          3D

 21 22  0  0  0  0  0  0  0  0999 V2000
    3.6071    8.8043   29.4368 C   0  0  0  0  0  0  0  0  0  0  0  0
    3.3662   10.3030   29.5179 C   0  0  0  0  0  0  0  0  0  0  0  0
    4.3537   11.0406   28.7201 C   0  0  0  0  0  0  0  0  0  0  0  0
    5.1713   11.6392   28.0732 C   0  0  0  0  0  0  0  0  0  0  0  0
    6.1838   12.3147   27.2811 C   0  0  0  0  0  0  0  0  0  0  0  0
    6.5116   13.3930   27.5726 O   0  0  0  0  0  0  0  0  0  0  0  0
    6.6582   11.4024   26.1354 N   0  0  0  0  0  0  0  0  0  0  0  0
    7.6777   11.5835   25.1879 C   0  0  0  0  0  0  0  0  0  0  0  0
    8.0864   10.3749   24.6031 C   0  0  0  0  0  0  0  0  0  0  0  0
    9.0855   10.3165   23.6431 C   0  0  0  0  0  0  0  0  0  0  0  0
    9.7290   11.4823   23.2754 C   0  0  0  0  0  0  0  0  0  0  0  0
    9.4016   12.7018   23.8877 C   0  0  0  0  0  0  0  0  0  0  0  0
   10.3180   13.7932   23.7567 N   0  0  0  0  0  0  0  0  0  0  0  0
   11.2076   13.9179   24.8025 C   0  0  0  0  0  0  0  0  0  0  0  0
   10.9832   14.3291   25.9332 O   0  0  0  0  0  0  0  0  0  0  0  0
   12.5547   13.4542   24.3135 C   0  0  0  0  0  0  0  0  0  0  0  0
   12.4141   13.9308   22.9880 N   0  0  0  0  0  0  0  0  0  0  0  0
   11.0876   13.9625   22.6334 C   0  0  0  0  0  0  0  0  0  0  0  0
   10.7199   14.1698   21.4931 O   0  0  0  0  0  0  0  0  0  0  0  0
    8.3137   12.7772   24.7999 C   0  0  0  0  0  0  0  0  0  0  0  0
    7.8552   14.1357   25.2574 C   0  0  0  0  0  0  0  0  0  0  0  0
  1  2  1  0
  2  3  1  0
  3  4  3  0
  4  5  1  0
  5  6  2  0
  5  7  1  0
  7  8  1  0
  8  9  2  0
  9 10  1  0
 10 11  2  0
 11 12  1  0
 12 13  1  0
 13 14  1  0
 14 15  2  0
 14 16  1  0
 16 17  1  0
 17 18  1  0
 18 19  2  0
 12 20  2  0
 20 21  1  0
 20  8  1  0
 18 13  1  0
M  END
>  <alias>  (510) 
None

>  <rmsd(smina/fragmenstein)>  (510) 
1.211

>  <smiles>  (510) 
CCC#CC(=O)Nc1cccc(N2C(=O)CNC2=O)c1C

>  <gnina_score>  (510) 
5.173

>  <inspiration_score>  (510) 
None

>  <energy_score>  (510) 
-8.22377

>  <distance_score>  (510) 
1.182005

>  <gnina_score_min>  (510) 
5.373

>  <inchikey>  (510) 
VTIVQVZJBSNVBG-UHFFFAOYSA-N

>  <exports>  (510) 
['/opt/xchem-fragalysis-2/maxwin/BulkDock/OUTPUTS/openbind_a71ev2a_c2_elabs_1LOUU54.sdf', '/opt/xchem-fragalysis-2/maxwin/BulkDock/OUTPUTS/openbind_a71ev2a_c2_elabs_1LSYIDY.sdf']

>  <name>  (510) 
P545789

>  <ref_pdb>  (510) 
A0884a

>  <subsites>  (510) 
None

>  <HIPPO Pose ID>  (510) 
545789

>  <ref_mols>  (510) 
A0884a

>  <HIPPO Compound ID>  (510) 
384317

>  <tags>  (510) 
openbind_a71ev2a_c2_elabs,syndirella_product,openbind_a71ev2a_c2_elabs_fragonly_scored_top80percent,openbind_a71ev2a_c2_elabs_scored,BulkDock Fragalysis export,openbind_a71ev2a_c2_elabs_scored_top80percent,openbind_a71ev2a_c2_elabs_activefrags_only_scored_5.2plus,syndirella_placed

>  <smina_score_min>  (510) 
-6.705

$$$$
P545790
     RDKit          3D

 21 22  0  0  0  0  0  0  0  0999 V2000
    1.2248   14.0266   28.4114 C   0  0  0  0  0  0  0  0  0  0  0  0
    2.6311   14.3171   28.9081 C   0  0  0  0  0  0  0  0  0  0  0  0
    3.6206   13.4807   28.2168 C   0  0  0  0  0  0  0  0  0  0  0  0
    4.4286   12.7963   27.6478 C   0  0  0  0  0  0  0  0  0  0  0  0
    5.3968   11.9745   26.9402 C   0  0  0  0  0  0  0  0  0  0  0  0
    5.3973   10.8049   27.1853 O   0  0  0  0  0  0  0  0  0  0  0  0
    6.1690   12.7348   26.0120 N   0  0  0  0  0  0  0  0  0  0  0  0
    7.2261   12.3611   25.1702 C   0  0  0  0  0  0  0  0  0  0  0  0
    7.6106   11.0185   25.0770 C   0  0  0  0  0  0  0  0  0  0  0  0
    8.6932   10.6422   24.2883 C   0  0  0  0  0  0  0  0  0  0  0  0
    9.4382   11.6141   23.6367 C   0  0  0  0  0  0  0  0  0  0  0  0
    9.0806   12.9674   23.7213 C   0  0  0  0  0  0  0  0  0  0  0  0
    9.9592   13.9270   23.1222 N   0  0  0  0  0  0  0  0  0  0  0  0
    9.6338   14.3064   21.7460 C   0  0  0  0  0  0  0  0  0  0  0  0
   10.6039   15.2785   21.1104 C   0  0  0  0  0  0  0  0  0  0  0  0
   12.0076   14.7936   21.3694 C   0  0  0  0  0  0  0  0  0  0  0  0
   12.2089   14.4961   22.7572 N   0  0  0  0  0  0  0  0  0  0  0  0
   11.2770   13.9374   23.5760 C   0  0  0  0  0  0  0  0  0  0  0  0
   11.6374   13.5070   24.6721 O   0  0  0  0  0  0  0  0  0  0  0  0
    7.9218   13.3509   24.4329 C   0  0  0  0  0  0  0  0  0  0  0  0
    7.5051   14.7962   24.4983 C   0  0  0  0  0  0  0  0  0  0  0  0
  1  2  1  0
  2  3  1  0
  3  4  3  0
  4  5  1  0
  5  6  2  0
  5  7  1  0
  7  8  1  0
  8  9  2  0
  9 10  1  0
 10 11  2  0
 11 12  1  0
 12 13  1  0
 13 14  1  0
 14 15  1  0
 15 16  1  0
 16 17  1  0
 17 18  1  0
 18 19  2  0
 12 20  2  0
 20 21  1  0
 20  8  1  0
 18 13  1  0
M  END
>  <alias>  (511) 
None

>  <rmsd(smina/fragmenstein)>  (511) 
0.494

>  <smiles>  (511) 
CCC#CC(=O)Nc1cccc(N2CCCNC2=O)c1C

>  <gnina_score>  (511) 
5.095

>  <inspiration_score>  (511) 
None

>  <energy_score>  (511) 
-36.634667

>  <distance_score>  (511) 
1.226309

>  <gnina_score_min>  (511) 
5.249

>  <inchikey>  (511) 
VCQXAGJWNXMEEM-UHFFFAOYSA-N

>  <exports>  (511) 
['/opt/xchem-fragalysis-2/maxwin/BulkDock/OUTPUTS/openbind_a71ev2a_c2_elabs_1LOUU54.sdf', '/opt/xchem-fragalysis-2/maxwin/BulkDock/OUTPUTS/openbind_a71ev2a_c2_elabs_1LSYIDY.sdf']

>  <name>  (511) 
P545790

>  <ref_pdb>  (511) 
A0884a

>  <subsites>  (511) 
None

>  <HIPPO Pose ID>  (511) 
545790

>  <ref_mols>  (511) 
A0884a

>  <HIPPO Compound ID>  (511) 
384318

>  <tags>  (511) 
openbind_a71ev2a_c2_elabs,syndirella_product,openbind_a71ev2a_c2_elabs_fragonly_scored_top80percent,openbind_a71ev2a_c2_elabs_scored,BulkDock Fragalysis export,openbind_a71ev2a_c2_elabs_scored_top80percent,openbind_a71ev2a_c2_elabs_activefrags_only_scored_5.2plus,syndirella_placed

>  <smina_score_min>  (511) 
-6.582

$$$$
P545793
     RDKit          3D

 21 22  0  0  0  0  0  0  0  0999 V2000
    9.9884   10.0990   23.1748 C   0  0  0  0  0  0  0  0  0  0  0  0
    9.1932   11.1661   23.8602 C   0  0  0  0  0  0  0  0  0  0  0  0
    8.1349   10.7324   24.6705 C   0  0  0  0  0  0  0  0  0  0  0  0
    7.2266   11.6401   25.2024 C   0  0  0  0  0  0  0  0  0  0  0  0
    7.3410   12.9911   24.8943 C   0  0  0  0  0  0  0  0  0  0  0  0
    6.3641   13.9024   25.2838 N   0  0  0  0  0  0  0  0  0  0  0  0
    5.1229   13.7229   26.2226 C   0  0  0  0  0  0  0  0  0  0  0  0
    4.6971   12.7614   26.7443 O   0  0  0  0  0  0  0  0  0  0  0  0
    4.4610   15.1165   26.4049 C   0  0  0  0  0  0  0  0  0  0  0  0
    3.1703   15.0032   27.2212 C   0  0  0  0  0  0  0  0  0  0  0  0
    5.4015   16.1322   27.0490 C   0  0  0  0  0  0  0  0  0  0  0  0
    3.9513   15.7501   24.6108 Br  0  0  0  0  0  0  0  0  0  0  0  0
    8.4306   13.4429   24.1436 C   0  0  0  0  0  0  0  0  0  0  0  0
    9.4030   12.5470   23.6721 C   0  0  0  0  0  0  0  0  0  0  0  0
   10.5661   13.0447   23.0273 N   0  0  0  0  0  0  0  0  0  0  0  0
   10.5604   14.0112   22.0596 C   0  0  0  0  0  0  0  0  0  0  0  0
    9.5965   14.4575   21.4569 O   0  0  0  0  0  0  0  0  0  0  0  0
   11.9607   14.5303   21.8411 C   0  0  0  0  0  0  0  0  0  0  0  0
   12.6330   13.9003   22.9185 N   0  0  0  0  0  0  0  0  0  0  0  0
   11.7509   13.1930   23.6938 C   0  0  0  0  0  0  0  0  0  0  0  0
   12.0238   12.9166   24.8480 O   0  0  0  0  0  0  0  0  0  0  0  0
  1  2  1  0
  2  3  2  0
  3  4  1  0
  4  5  2  0
  5  6  1  0
  6  7  1  0
  7  8  2  0
  7  9  1  0
  9 10  1  0
  9 11  1  0
  9 12  1  0
  5 13  1  0
 13 14  2  0
 14 15  1  0
 15 16  1  0
 16 17  2  0
 16 18  1  0
 18 19  1  0
 19 20  1  0
 20 21  2  0
 14  2  1  0
 20 15  1  0
M  END
>  <alias>  (512) 
None

>  <rmsd(smina/fragmenstein)>  (512) 
0.635

>  <smiles>  (512) 
Cc1ccc(NC(=O)C(C)(C)Br)cc1N1C(=O)CNC1=O

>  <gnina_score>  (512) 
5.333

>  <inspiration_score>  (512) 
None

>  <energy_score>  (512) 
-30.768102

>  <distance_score>  (512) 
1.888403

>  <gnina_score_min>  (512) 
5.343

>  <inchikey>  (512) 
KXYVIOVTALQQEM-UHFFFAOYSA-N

>  <exports>  (512) 
['/opt/xchem-fragalysis-2/maxwin/BulkDock/OUTPUTS/openbind_a71ev2a_c2_elabs_1LOUU54.sdf', '/opt/xchem-fragalysis-2/maxwin/BulkDock/OUTPUTS/openbind_a71ev2a_c2_elabs_1LSYIDY.sdf']

>  <name>  (512) 
P545793

>  <ref_pdb>  (512) 
A0884a

>  <subsites>  (512) 
None

>  <HIPPO Pose ID>  (512) 
545793

>  <ref_mols>  (512) 
A0884a

>  <HIPPO Compound ID>  (512) 
384325

>  <tags>  (512) 
openbind_a71ev2a_c2_elabs,syndirella_product,openbind_a71ev2a_c2_elabs_fragonly_scored_top80percent,openbind_a71ev2a_c2_elabs_scored,BulkDock Fragalysis export,openbind_a71ev2a_c2_elabs_scored_top80percent,openbind_a71ev2a_c2_elabs_activefrags_only_scored_5.2plus,syndirella_placed

>  <smina_score_min>  (512) 
-6.61

$$$$
P545794
     RDKit          3D

 21 22  0  0  0  0  0  0  0  0999 V2000
    5.4682   14.6420   28.6504 C   0  0  0  0  0  0  0  0  0  0  0  0
    4.5517   13.9175   27.6673 C   0  0  0  0  0  0  0  0  0  0  0  0
    3.2322   13.5429   28.3479 C   0  0  0  0  0  0  0  0  0  0  0  0
    4.1091   15.1381   26.1881 Br  0  0  0  0  0  0  0  0  0  0  0  0
    5.2278   12.6648   27.0487 C   0  0  0  0  0  0  0  0  0  0  0  0
    4.8268   11.5820   27.2545 O   0  0  0  0  0  0  0  0  0  0  0  0
    6.4848   13.1448   26.2518 N   0  0  0  0  0  0  0  0  0  0  0  0
    7.4073   12.4236   25.5007 C   0  0  0  0  0  0  0  0  0  0  0  0
    7.3112   11.0445   25.3458 C   0  0  0  0  0  0  0  0  0  0  0  0
    8.2376   10.3745   24.5506 C   0  0  0  0  0  0  0  0  0  0  0  0
    9.2621   11.0730   23.9270 C   0  0  0  0  0  0  0  0  0  0  0  0
   10.1395   10.3606   23.2110 F   0  0  0  0  0  0  0  0  0  0  0  0
    9.4198   12.4500   24.1233 C   0  0  0  0  0  0  0  0  0  0  0  0
   10.5138   13.1751   23.5585 N   0  0  0  0  0  0  0  0  0  0  0  0
   10.7286   13.0231   22.1406 C   0  0  0  0  0  0  0  0  0  0  0  0
   11.9910   13.6908   21.6202 C   0  0  0  0  0  0  0  0  0  0  0  0
   11.9591   15.1000   22.0914 C   0  0  0  0  0  0  0  0  0  0  0  0
   11.9010   15.0483   23.5171 N   0  0  0  0  0  0  0  0  0  0  0  0
   11.1401   14.1873   24.2462 C   0  0  0  0  0  0  0  0  0  0  0  0
   11.0534   14.3546   25.4604 O   0  0  0  0  0  0  0  0  0  0  0  0
    8.4602   13.1191   24.8965 C   0  0  0  0  0  0  0  0  0  0  0  0
  1  2  1  0
  2  3  1  0
  2  4  1  0
  2  5  1  0
  5  6  2  0
  5  7  1  0
  7  8  1  0
  8  9  2  0
  9 10  1  0
 10 11  2  0
 11 12  1  0
 11 13  1  0
 13 14  1  0
 14 15  1  0
 15 16  1  0
 16 17  1  0
 17 18  1  0
 18 19  1  0
 19 20  2  0
 13 21  2  0
 21  8  1  0
 19 14  1  0
M  END
>  <alias>  (513) 
None

>  <rmsd(smina/fragmenstein)>  (513) 
1.573

>  <smiles>  (513) 
CC(C)(Br)C(=O)Nc1ccc(F)c(N2CCCNC2=O)c1

>  <gnina_score>  (513) 
4.565

>  <inspiration_score>  (513) 
None

>  <energy_score>  (513) 
-22.149235

>  <distance_score>  (513) 
1.320417

>  <gnina_score_min>  (513) 
5.235

>  <inchikey>  (513) 
HNBITDUJDRILKJ-UHFFFAOYSA-N

>  <exports>  (513) 
['/opt/xchem-fragalysis-2/maxwin/BulkDock/OUTPUTS/openbind_a71ev2a_c2_elabs_1LOUU54.sdf', '/opt/xchem-fragalysis-2/maxwin/BulkDock/OUTPUTS/openbind_a71ev2a_c2_elabs_1LSYIDY.sdf']

>  <name>  (513) 
P545794

>  <ref_pdb>  (513) 
A0884a

>  <subsites>  (513) 
None

>  <HIPPO Pose ID>  (513) 
545794

>  <ref_mols>  (513) 
A0884a

>  <HIPPO Compound ID>  (513) 
384327

>  <tags>  (513) 
openbind_a71ev2a_c2_elabs,syndirella_product,openbind_a71ev2a_c2_elabs_fragonly_scored_top80percent,openbind_a71ev2a_c2_elabs_scored,BulkDock Fragalysis export,openbind_a71ev2a_c2_elabs_scored_top80percent,openbind_a71ev2a_c2_elabs_activefrags_only_scored_5.2plus,syndirella_placed

>  <smina_score_min>  (513) 
-6.192

$$$$
P545795
     RDKit          3D

 21 22  0  0  0  0  0  0  0  0999 V2000
    7.7392   14.6584   24.1623 C   0  0  0  0  0  0  0  0  0  0  0  0
    8.0098   13.1898   24.3486 C   0  0  0  0  0  0  0  0  0  0  0  0
    7.1232   12.3949   25.1086 C   0  0  0  0  0  0  0  0  0  0  0  0
    6.0599   13.0057   25.7790 N   0  0  0  0  0  0  0  0  0  0  0  0
    5.0383   12.4200   26.8085 C   0  0  0  0  0  0  0  0  0  0  0  0
    4.8890   11.3217   27.1879 O   0  0  0  0  0  0  0  0  0  0  0  0
    4.1566   13.6200   27.2918 C   0  0  0  0  0  0  0  0  0  0  0  0
    4.9714   14.5958   28.1393 C   0  0  0  0  0  0  0  0  0  0  0  0
    3.4042   14.3319   26.1651 C   0  0  0  0  0  0  0  0  0  0  0  0
    2.7452   12.8650   28.4860 Br  0  0  0  0  0  0  0  0  0  0  0  0
    7.3243   11.0165   25.2030 C   0  0  0  0  0  0  0  0  0  0  0  0
    8.3979   10.4216   24.5468 C   0  0  0  0  0  0  0  0  0  0  0  0
    9.3371   11.2133   23.9081 C   0  0  0  0  0  0  0  0  0  0  0  0
   10.4092   10.6175   23.3772 F   0  0  0  0  0  0  0  0  0  0  0  0
    9.1874   12.5990   23.8426 C   0  0  0  0  0  0  0  0  0  0  0  0
   10.2579   13.4129   23.4266 N   0  0  0  0  0  0  0  0  0  0  0  0
   11.5716   13.3404   24.0097 C   0  0  0  0  0  0  0  0  0  0  0  0
   12.3211   14.4051   23.2384 C   0  0  0  0  0  0  0  0  0  0  0  0
   11.6600   14.4275   21.9877 N   0  0  0  0  0  0  0  0  0  0  0  0
   10.3693   13.9636   22.1456 C   0  0  0  0  0  0  0  0  0  0  0  0
    9.5065   14.0914   21.3020 O   0  0  0  0  0  0  0  0  0  0  0  0
  1  2  1  0
  2  3  2  0
  3  4  1  0
  4  5  1  0
  5  6  2  0
  5  7  1  0
  7  8  1  0
  7  9  1  0
  7 10  1  0
  3 11  1  0
 11 12  2  0
 12 13  1  0
 13 14  1  0
 13 15  2  0
 15 16  1  0
 16 17  1  0
 17 18  1  0
 18 19  1  0
 19 20  1  0
 20 21  2  0
 15  2  1  0
 20 16  1  0
M  END
>  <alias>  (514) 
None

>  <rmsd(smina/fragmenstein)>  (514) 
1.071

>  <smiles>  (514) 
Cc1c(NC(=O)C(C)(C)Br)ccc(F)c1N1CCNC1=O

>  <gnina_score>  (514) 
5.617

>  <inspiration_score>  (514) 
None

>  <energy_score>  (514) 
-35.536992

>  <distance_score>  (514) 
1.669984

>  <gnina_score_min>  (514) 
5.534

>  <inchikey>  (514) 
AMOGLZBCHFGFPB-UHFFFAOYSA-N

>  <exports>  (514) 
['/opt/xchem-fragalysis-2/maxwin/BulkDock/OUTPUTS/openbind_a71ev2a_c2_elabs_1LOUU54.sdf', '/opt/xchem-fragalysis-2/maxwin/BulkDock/OUTPUTS/openbind_a71ev2a_c2_elabs_1LSYIDY.sdf']

>  <name>  (514) 
P545795

>  <ref_pdb>  (514) 
A0884a

>  <subsites>  (514) 
None

>  <HIPPO Pose ID>  (514) 
545795

>  <ref_mols>  (514) 
A0884a

>  <HIPPO Compound ID>  (514) 
384328

>  <tags>  (514) 
openbind_a71ev2a_c2_elabs,syndirella_product,openbind_a71ev2a_c2_elabs_fragonly_scored_top80percent,BulkDock Fragalysis export,openbind_a71ev2a_c2_elabs_scored,openbind_a71ev2a_c2_elabs_scored_top80percent,openbind_a71ev2a_c2_elabs_activefrags_only_scored_5.2plus,openbind_a71ev2a_c2_elabs_activefrags_only_scored_5.5plus,syndirella_placed

>  <smina_score_min>  (514) 
-6.286

$$$$
P545796
     RDKit          3D

 21 22  0  0  0  0  0  0  0  0999 V2000
    7.8138   14.4609   23.1263 C   0  0  0  0  0  0  0  0  0  0  0  0
    8.1003   13.0379   23.5151 C   0  0  0  0  0  0  0  0  0  0  0  0
    7.2833   12.3904   24.4730 C   0  0  0  0  0  0  0  0  0  0  0  0
    6.2709   13.1102   25.1180 N   0  0  0  0  0  0  0  0  0  0  0  0
    5.3016   12.6883   26.2527 C   0  0  0  0  0  0  0  0  0  0  0  0
    5.2496   11.7018   26.8763 O   0  0  0  0  0  0  0  0  0  0  0  0
    4.3529   13.8223   26.4710 C   0  0  0  0  0  0  0  0  0  0  0  0
    3.4918   13.7541   27.4949 C   0  0  0  0  0  0  0  0  0  0  0  0
    2.1264   15.2224   27.8866 I   0  0  0  0  0  0  0  0  0  0  0  0
    7.5176   11.0557   24.8143 C   0  0  0  0  0  0  0  0  0  0  0  0
    8.5207   10.3344   24.1757 C   0  0  0  0  0  0  0  0  0  0  0  0
    9.3852   10.9784   23.3009 C   0  0  0  0  0  0  0  0  0  0  0  0
    9.2571   12.3618   23.0512 C   0  0  0  0  0  0  0  0  0  0  0  0
   10.5069   13.0404   23.0543 N   0  0  0  0  0  0  0  0  0  0  0  0
   10.9458   14.1298   22.3726 C   0  0  0  0  0  0  0  0  0  0  0  0
   10.6524   14.5256   21.2608 O   0  0  0  0  0  0  0  0  0  0  0  0
   11.8432   14.8275   23.1714 N   0  0  0  0  0  0  0  0  0  0  0  0
   12.0994   14.1640   24.4071 C   0  0  1  0  0  0  0  0  0  0  0  0
   11.8457   14.9483   25.7025 C   0  0  0  0  0  0  0  0  0  0  0  0
   11.0010   13.1825   24.3016 C   0  0  0  0  0  0  0  0  0  0  0  0
   10.5255   12.6585   25.2907 O   0  0  0  0  0  0  0  0  0  0  0  0
  1  2  1  0
  2  3  2  0
  3  4  1  0
  4  5  1  0
  5  6  2  0
  5  7  1  0
  7  8  2  0
  8  9  1  0
  3 10  1  0
 10 11  2  0
 11 12  1  0
 12 13  2  0
 13 14  1  0
 14 15  1  0
 15 16  2  0
 15 17  1  0
 17 18  1  0
 18 19  1  1
 18 20  1  0
 20 21  2  0
 13  2  1  0
 20 14  1  0
M  END
>  <alias>  (515) 
None

>  <rmsd(smina/fragmenstein)>  (515) 
0.355

>  <smiles>  (515) 
Cc1c(NC(=O)/C=C/I)cccc1N1C(=O)N[C@@H](C)C1=O

>  <gnina_score>  (515) 
5.345

>  <inspiration_score>  (515) 
None

>  <energy_score>  (515) 
-12.746841

>  <distance_score>  (515) 
1.393971

>  <gnina_score_min>  (515) 
5.312

>  <inchikey>  (515) 
AGFKBSVOFKVXPW-UCUJLANTSA-N

>  <exports>  (515) 
['/opt/xchem-fragalysis-2/maxwin/BulkDock/OUTPUTS/openbind_a71ev2a_c2_elabs_1LOUU54.sdf', '/opt/xchem-fragalysis-2/maxwin/BulkDock/OUTPUTS/openbind_a71ev2a_c2_elabs_1LSYIDY.sdf']

>  <name>  (515) 
P545796

>  <ref_pdb>  (515) 
A0884a

>  <subsites>  (515) 
None

>  <HIPPO Pose ID>  (515) 
545796

>  <ref_mols>  (515) 
A0884a

>  <HIPPO Compound ID>  (515) 
384330

>  <tags>  (515) 
openbind_a71ev2a_c2_elabs,syndirella_product,openbind_a71ev2a_c2_elabs_fragonly_scored_top80percent,openbind_a71ev2a_c2_elabs_scored,BulkDock Fragalysis export,openbind_a71ev2a_c2_elabs_scored_top80percent,openbind_a71ev2a_c2_elabs_activefrags_only_scored_5.2plus,syndirella_placed

>  <smina_score_min>  (515) 
-4.531

$$$$
P545797
     RDKit          3D

 21 22  0  0  0  0  0  0  0  0999 V2000
    5.1219   11.6073   27.0484 O   0  0  0  0  0  0  0  0  0  0  0  0
    5.2680   12.6809   26.6135 C   0  0  0  0  0  0  0  0  0  0  0  0
    4.4026   13.8293   27.0203 C   0  0  0  0  0  0  0  0  0  0  0  0
    3.5069   13.6453   27.9994 C   0  0  0  0  0  0  0  0  0  0  0  0
    2.2536   15.1271   28.6390 I   0  0  0  0  0  0  0  0  0  0  0  0
    6.2676   13.2073   25.5519 N   0  0  0  0  0  0  0  0  0  0  0  0
    7.3167   12.5643   24.9012 C   0  0  0  0  0  0  0  0  0  0  0  0
    7.5423   11.1988   25.0397 C   0  0  0  0  0  0  0  0  0  0  0  0
    8.6012   10.6129   24.3556 C   0  0  0  0  0  0  0  0  0  0  0  0
    8.7604    9.2872   24.4191 F   0  0  0  0  0  0  0  0  0  0  0  0
    9.4809   11.3702   23.5935 C   0  0  0  0  0  0  0  0  0  0  0  0
    9.2605   12.7406   23.4561 C   0  0  0  0  0  0  0  0  0  0  0  0
   10.1493   13.5202   22.6695 N   0  0  0  0  0  0  0  0  0  0  0  0
    9.5914   14.4589   21.7064 C   0  0  0  0  0  0  0  0  0  0  0  0
   10.5669   14.9111   20.6413 C   0  0  0  0  0  0  0  0  0  0  0  0
   11.9805   14.5775   20.9965 C   0  0  0  0  0  0  0  0  0  0  0  0
   12.8463   14.4120   20.1430 O   0  0  0  0  0  0  0  0  0  0  0  0
   12.2408   14.4979   22.3304 N   0  0  0  0  0  0  0  0  0  0  0  0
   11.4470   13.7237   23.1309 C   0  0  0  0  0  0  0  0  0  0  0  0
   11.8994   13.2578   24.1755 O   0  0  0  0  0  0  0  0  0  0  0  0
    8.1546   13.3270   24.0821 C   0  0  0  0  0  0  0  0  0  0  0  0
  1  2  2  0
  2  3  1  0
  3  4  2  0
  4  5  1  0
  2  6  1  0
  6  7  1  0
  7  8  2  0
  8  9  1  0
  9 10  1  0
  9 11  2  0
 11 12  1  0
 12 13  1  0
 13 14  1  0
 14 15  1  0
 15 16  1  0
 16 17  2  0
 16 18  1  0
 18 19  1  0
 19 20  2  0
 12 21  2  0
 21  7  1  0
 19 13  1  0
M  END
>  <alias>  (516) 
None

>  <rmsd(smina/fragmenstein)>  (516) 
0.544

>  <smiles>  (516) 
O=C(/C=C/I)Nc1cc(F)cc(N2CCC(=O)NC2=O)c1

>  <gnina_score>  (516) 
5.216

>  <inspiration_score>  (516) 
None

>  <energy_score>  (516) 
-42.948809

>  <distance_score>  (516) 
1.213437

>  <gnina_score_min>  (516) 
5.351

>  <inchikey>  (516) 
BPWNRURRDZYWEJ-HNQUOIGGSA-N

>  <exports>  (516) 
['/opt/xchem-fragalysis-2/maxwin/BulkDock/OUTPUTS/openbind_a71ev2a_c2_elabs_1LOUU54.sdf', '/opt/xchem-fragalysis-2/maxwin/BulkDock/OUTPUTS/openbind_a71ev2a_c2_elabs_1LSYIDY.sdf']

>  <name>  (516) 
P545797

>  <ref_pdb>  (516) 
A0884a

>  <subsites>  (516) 
None

>  <HIPPO Pose ID>  (516) 
545797

>  <ref_mols>  (516) 
A0884a

>  <HIPPO Compound ID>  (516) 
384331

>  <tags>  (516) 
openbind_a71ev2a_c2_elabs,syndirella_product,openbind_a71ev2a_c2_elabs_fragonly_scored_top80percent,openbind_a71ev2a_c2_elabs_scored,BulkDock Fragalysis export,openbind_a71ev2a_c2_elabs_scored_top80percent,openbind_a71ev2a_c2_elabs_activefrags_only_scored_5.2plus,syndirella_placed

>  <smina_score_min>  (516) 
-6.916

$$$$
P545806
     RDKit          3D

 21 22  0  0  0  0  0  0  0  0999 V2000
    1.6990   15.5880   29.8681 C   0  0  0  0  0  0  0  0  0  0  0  0
    2.8179   16.1726   28.5744 S   0  0  0  0  0  0  0  0  0  0  0  0
    3.5711   14.6832   28.1125 C   0  0  0  0  0  0  0  0  0  0  0  0
    4.5608   14.6613   27.2091 C   0  0  0  0  0  0  0  0  0  0  0  0
    5.1726   13.3478   26.8434 C   0  0  0  0  0  0  0  0  0  0  0  0
    4.7018   12.3277   27.1658 O   0  0  0  0  0  0  0  0  0  0  0  0
    6.4590   13.6492   26.0269 N   0  0  0  0  0  0  0  0  0  0  0  0
    7.3447   12.7873   25.3833 C   0  0  0  0  0  0  0  0  0  0  0  0
    7.1679   11.4089   25.4104 C   0  0  0  0  0  0  0  0  0  0  0  0
    8.0299   10.5830   24.6937 C   0  0  0  0  0  0  0  0  0  0  0  0
    9.0804   11.1156   23.9377 C   0  0  0  0  0  0  0  0  0  0  0  0
    9.9091   10.1505   23.1484 C   0  0  0  0  0  0  0  0  0  0  0  0
    9.3284   12.4989   24.0026 C   0  0  0  0  0  0  0  0  0  0  0  0
   10.5003   13.0464   23.4308 N   0  0  0  0  0  0  0  0  0  0  0  0
   11.3914   13.7922   24.1576 C   0  0  0  0  0  0  0  0  0  0  0  0
   11.4276   13.9669   25.3702 O   0  0  0  0  0  0  0  0  0  0  0  0
   12.3290   14.4929   23.1987 C   0  0  0  0  0  0  0  0  0  0  0  0
   11.7130   14.2139   21.9592 N   0  0  0  0  0  0  0  0  0  0  0  0
   10.4924   13.6359   22.2018 C   0  0  0  0  0  0  0  0  0  0  0  0
    9.5478   13.8373   21.4610 O   0  0  0  0  0  0  0  0  0  0  0  0
    8.4358   13.3283   24.6994 C   0  0  0  0  0  0  0  0  0  0  0  0
  1  2  1  0
  2  3  1  0
  3  4  2  0
  4  5  1  0
  5  6  2  0
  5  7  1  0
  7  8  1  0
  8  9  2  0
  9 10  1  0
 10 11  2  0
 11 12  1  0
 11 13  1  0
 13 14  1  0
 14 15  1  0
 15 16  2  0
 15 17  1  0
 17 18  1  0
 18 19  1  0
 19 20  2  0
 13 21  2  0
 21  8  1  0
 19 14  1  0
M  END
>  <alias>  (517) 
None

>  <rmsd(smina/fragmenstein)>  (517) 
1.664

>  <smiles>  (517) 
CS/C=C/C(=O)Nc1ccc(C)c(N2C(=O)CNC2=O)c1

>  <gnina_score>  (517) 
5.281

>  <inspiration_score>  (517) 
None

>  <energy_score>  (517) 
-30.964517

>  <distance_score>  (517) 
1.747996

>  <gnina_score_min>  (517) 
5.317

>  <inchikey>  (517) 
GBLRUBUPSFKTTE-AATRIKPKSA-N

>  <exports>  (517) 
['/opt/xchem-fragalysis-2/maxwin/BulkDock/OUTPUTS/openbind_a71ev2a_c2_elabs_1LOUU54.sdf', '/opt/xchem-fragalysis-2/maxwin/BulkDock/OUTPUTS/openbind_a71ev2a_c2_elabs_1LSYIDY.sdf']

>  <name>  (517) 
P545806

>  <ref_pdb>  (517) 
A0884a

>  <subsites>  (517) 
None

>  <HIPPO Pose ID>  (517) 
545806

>  <ref_mols>  (517) 
A0884a

>  <HIPPO Compound ID>  (517) 
384335

>  <tags>  (517) 
openbind_a71ev2a_c2_elabs,syndirella_product,openbind_a71ev2a_c2_elabs_fragonly_scored_top80percent,openbind_a71ev2a_c2_elabs_scored,BulkDock Fragalysis export,openbind_a71ev2a_c2_elabs_scored_top80percent,openbind_a71ev2a_c2_elabs_activefrags_only_scored_5.2plus,syndirella_placed

>  <smina_score_min>  (517) 
-6.538

$$$$
P545809
     RDKit          3D

 21 22  0  0  0  0  0  0  0  0999 V2000
    1.6136   14.0554   30.0588 C   0  0  0  0  0  0  0  0  0  0  0  0
    2.3091   14.8059   28.5676 S   0  0  0  0  0  0  0  0  0  0  0  0
    3.4096   13.5621   28.0773 C   0  0  0  0  0  0  0  0  0  0  0  0
    4.2909   13.7670   27.0884 C   0  0  0  0  0  0  0  0  0  0  0  0
    5.1960   12.6459   26.6906 C   0  0  0  0  0  0  0  0  0  0  0  0
    5.0684   11.5658   27.1165 O   0  0  0  0  0  0  0  0  0  0  0  0
    6.1933   13.2007   25.6404 N   0  0  0  0  0  0  0  0  0  0  0  0
    7.2600   12.5843   24.9933 C   0  0  0  0  0  0  0  0  0  0  0  0
    7.4837   11.2097   25.1003 C   0  0  0  0  0  0  0  0  0  0  0  0
    8.5535   10.6271   24.4240 C   0  0  0  0  0  0  0  0  0  0  0  0
    9.4285   11.4291   23.7031 C   0  0  0  0  0  0  0  0  0  0  0  0
   10.4364   10.8407   23.0544 F   0  0  0  0  0  0  0  0  0  0  0  0
    9.2320   12.8091   23.6016 C   0  0  0  0  0  0  0  0  0  0  0  0
   10.1691   13.6303   22.9153 N   0  0  0  0  0  0  0  0  0  0  0  0
    9.6956   14.3913   21.7607 C   0  0  0  0  0  0  0  0  0  0  0  0
   10.7452   15.2253   21.0471 C   0  0  0  0  0  0  0  0  0  0  0  0
   12.1249   14.6583   21.2561 C   0  0  0  0  0  0  0  0  0  0  0  0
   12.3504   14.4045   22.6463 N   0  0  0  0  0  0  0  0  0  0  0  0
   11.4523   13.7368   23.4224 C   0  0  0  0  0  0  0  0  0  0  0  0
   11.8032   13.3211   24.5250 O   0  0  0  0  0  0  0  0  0  0  0  0
    8.1155   13.3776   24.2193 C   0  0  0  0  0  0  0  0  0  0  0  0
  1  2  1  0
  2  3  1  0
  3  4  2  0
  4  5  1  0
  5  6  2  0
  5  7  1  0
  7  8  1  0
  8  9  2  0
  9 10  1  0
 10 11  2  0
 11 12  1  0
 11 13  1  0
 13 14  1  0
 14 15  1  0
 15 16  1  0
 16 17  1  0
 17 18  1  0
 18 19  1  0
 19 20  2  0
 13 21  2  0
 21  8  1  0
 19 14  1  0
M  END
>  <alias>  (518) 
None

>  <rmsd(smina/fragmenstein)>  (518) 
0.623

>  <smiles>  (518) 
CS/C=C/C(=O)Nc1ccc(F)c(N2CCCNC2=O)c1

>  <gnina_score>  (518) 
5.14

>  <inspiration_score>  (518) 
None

>  <energy_score>  (518) 
-33.256902

>  <distance_score>  (518) 
1.238916

>  <gnina_score_min>  (518) 
5.227

>  <inchikey>  (518) 
SBBFTWVFLSCOAL-VMPITWQZSA-N

>  <exports>  (518) 
['/opt/xchem-fragalysis-2/maxwin/BulkDock/OUTPUTS/openbind_a71ev2a_c2_elabs_1LOUU54.sdf', '/opt/xchem-fragalysis-2/maxwin/BulkDock/OUTPUTS/openbind_a71ev2a_c2_elabs_1LSYIDY.sdf']

>  <name>  (518) 
P545809

>  <ref_pdb>  (518) 
A0884a

>  <subsites>  (518) 
None

>  <HIPPO Pose ID>  (518) 
545809

>  <ref_mols>  (518) 
A0884a

>  <HIPPO Compound ID>  (518) 
384337

>  <tags>  (518) 
openbind_a71ev2a_c2_elabs,syndirella_product,openbind_a71ev2a_c2_elabs_fragonly_scored_top80percent,openbind_a71ev2a_c2_elabs_scored,BulkDock Fragalysis export,openbind_a71ev2a_c2_elabs_scored_top80percent,openbind_a71ev2a_c2_elabs_activefrags_only_scored_5.2plus,syndirella_placed

>  <smina_score_min>  (518) 
-6.436

$$$$
P545811
     RDKit          3D

 21 22  0  0  0  0  0  0  0  0999 V2000
    4.6417   16.4618   29.2739 C   0  0  0  0  0  0  0  0  0  0  0  0
    3.7104   14.9223   29.0869 S   0  0  0  0  0  0  0  0  0  0  0  0
    4.8897   13.9345   28.2925 C   0  0  0  0  0  0  0  0  0  0  0  0
    4.5608   12.7260   27.8181 C   0  0  0  0  0  0  0  0  0  0  0  0
    5.5552   11.8360   27.1611 C   0  0  0  0  0  0  0  0  0  0  0  0
    5.6993   10.7331   27.5135 O   0  0  0  0  0  0  0  0  0  0  0  0
    6.2447   12.6230   26.0202 N   0  0  0  0  0  0  0  0  0  0  0  0
    7.2889   12.2555   25.1656 C   0  0  0  0  0  0  0  0  0  0  0  0
    7.6465   10.9069   25.0615 C   0  0  0  0  0  0  0  0  0  0  0  0
    8.7078   10.5217   24.2510 C   0  0  0  0  0  0  0  0  0  0  0  0
    9.4580   11.4942   23.6115 C   0  0  0  0  0  0  0  0  0  0  0  0
   10.4791   11.1022   22.8472 F   0  0  0  0  0  0  0  0  0  0  0  0
    9.1455   12.8544   23.7185 C   0  0  0  0  0  0  0  0  0  0  0  0
   10.0410   13.8304   23.2052 N   0  0  0  0  0  0  0  0  0  0  0  0
    9.9216   14.3169   21.8451 C   0  0  0  0  0  0  0  0  0  0  0  0
   11.2990   14.8698   21.5081 C   0  0  0  0  0  0  0  0  0  0  0  0
   12.1463   14.3497   22.5374 N   0  0  0  0  0  0  0  0  0  0  0  0
   11.4039   13.7877   23.5586 C   0  0  0  0  0  0  0  0  0  0  0  0
   11.8720   13.3777   24.6090 O   0  0  0  0  0  0  0  0  0  0  0  0
    7.9924   13.2422   24.4334 C   0  0  0  0  0  0  0  0  0  0  0  0
    7.5902   14.6919   24.4965 C   0  0  0  0  0  0  0  0  0  0  0  0
  1  2  1  0
  2  3  1  0
  3  4  2  0
  4  5  1  0
  5  6  2  0
  5  7  1  0
  7  8  1  0
  8  9  2  0
  9 10  1  0
 10 11  2  0
 11 12  1  0
 11 13  1  0
 13 14  1  0
 14 15  1  0
 15 16  1  0
 16 17  1  0
 17 18  1  0
 18 19  2  0
 13 20  2  0
 20 21  1  0
 20  8  1  0
 18 14  1  0
M  END
>  <alias>  (519) 
None

>  <rmsd(smina/fragmenstein)>  (519) 
0.547

>  <smiles>  (519) 
CS/C=C/C(=O)Nc1ccc(F)c(N2CCNC2=O)c1C

>  <gnina_score>  (519) 
5.158

>  <inspiration_score>  (519) 
None

>  <energy_score>  (519) 
-36.919453

>  <distance_score>  (519) 
1.196807

>  <gnina_score_min>  (519) 
5.241

>  <inchikey>  (519) 
VDDYONPYDRASCY-VMPITWQZSA-N

>  <exports>  (519) 
['/opt/xchem-fragalysis-2/maxwin/BulkDock/OUTPUTS/openbind_a71ev2a_c2_elabs_1LOUU54.sdf', '/opt/xchem-fragalysis-2/maxwin/BulkDock/OUTPUTS/openbind_a71ev2a_c2_elabs_1LSYIDY.sdf']

>  <name>  (519) 
P545811

>  <ref_pdb>  (519) 
A0884a

>  <subsites>  (519) 
None

>  <HIPPO Pose ID>  (519) 
545811

>  <ref_mols>  (519) 
A0884a

>  <HIPPO Compound ID>  (519) 
384338

>  <tags>  (519) 
openbind_a71ev2a_c2_elabs,syndirella_product,openbind_a71ev2a_c2_elabs_fragonly_scored_top80percent,openbind_a71ev2a_c2_elabs_scored,BulkDock Fragalysis export,openbind_a71ev2a_c2_elabs_scored_top80percent,openbind_a71ev2a_c2_elabs_activefrags_only_scored_5.2plus,syndirella_placed

>  <smina_score_min>  (519) 
-5.875

$$$$
P545814
     RDKit          3D

 21 22  0  0  0  0  0  0  0  0999 V2000
    2.0788   14.1592   30.1365 C   0  0  0  0  0  0  0  0  0  0  0  0
    2.8855   14.9090   28.7030 S   0  0  0  0  0  0  0  0  0  0  0  0
    3.8629   13.5864   28.1617 C   0  0  0  0  0  0  0  0  0  0  0  0
    4.6724   13.7172   27.1018 C   0  0  0  0  0  0  0  0  0  0  0  0
    5.4854   12.5430   26.6655 C   0  0  0  0  0  0  0  0  0  0  0  0
    5.2959   11.4654   27.0745 O   0  0  0  0  0  0  0  0  0  0  0  0
    6.5240   13.0589   25.6359 N   0  0  0  0  0  0  0  0  0  0  0  0
    7.5655   12.3961   24.9935 C   0  0  0  0  0  0  0  0  0  0  0  0
    7.6606   11.0069   25.0046 C   0  0  0  0  0  0  0  0  0  0  0  0
    8.6839   10.3745   24.2985 C   0  0  0  0  0  0  0  0  0  0  0  0
    9.6495   11.1248   23.6327 C   0  0  0  0  0  0  0  0  0  0  0  0
    9.5874   12.5176   23.6561 C   0  0  0  0  0  0  0  0  0  0  0  0
   10.5829   13.2866   22.9900 N   0  0  0  0  0  0  0  0  0  0  0  0
   10.1735   14.1173   21.9637 C   0  0  0  0  0  0  0  0  0  0  0  0
    9.0149   14.1725   21.5540 O   0  0  0  0  0  0  0  0  0  0  0  0
   11.1668   15.0517   21.3581 C   0  0  0  0  0  0  0  0  0  0  0  0
   12.5468   14.5323   21.5426 C   0  0  0  0  0  0  0  0  0  0  0  0
   12.7291   14.1879   22.9171 N   0  0  0  0  0  0  0  0  0  0  0  0
   11.8239   13.4262   23.5927 C   0  0  0  0  0  0  0  0  0  0  0  0
   12.1397   12.9836   24.6939 O   0  0  0  0  0  0  0  0  0  0  0  0
    8.5182   13.1498   24.3062 C   0  0  0  0  0  0  0  0  0  0  0  0
  1  2  1  0
  2  3  1  0
  3  4  2  0
  4  5  1  0
  5  6  2  0
  5  7  1  0
  7  8  1  0
  8  9  2  0
  9 10  1  0
 10 11  2  0
 11 12  1  0
 12 13  1  0
 13 14  1  0
 14 15  2  0
 14 16  1  0
 16 17  1  0
 17 18  1  0
 18 19  1  0
 19 20  2  0
 12 21  2  0
 21  8  1  0
 19 13  1  0
M  END
>  <alias>  (520) 
None

>  <rmsd(smina/fragmenstein)>  (520) 
1.344

>  <smiles>  (520) 
CS/C=C/C(=O)Nc1cccc(N2C(=O)CCNC2=O)c1

>  <gnina_score>  (520) 
4.904

>  <inspiration_score>  (520) 
None

>  <energy_score>  (520) 
-45.536649

>  <distance_score>  (520) 
1.713426

>  <gnina_score_min>  (520) 
5.218

>  <inchikey>  (520) 
AEDBMWJYBNCSCH-SOFGYWHQSA-N

>  <exports>  (520) 
['/opt/xchem-fragalysis-2/maxwin/BulkDock/OUTPUTS/openbind_a71ev2a_c2_elabs_1LOUU54.sdf', '/opt/xchem-fragalysis-2/maxwin/BulkDock/OUTPUTS/openbind_a71ev2a_c2_elabs_1LSYIDY.sdf']

>  <name>  (520) 
P545814

>  <ref_pdb>  (520) 
A0884a

>  <subsites>  (520) 
None

>  <HIPPO Pose ID>  (520) 
545814

>  <ref_mols>  (520) 
A0884a

>  <HIPPO Compound ID>  (520) 
384341

>  <tags>  (520) 
openbind_a71ev2a_c2_elabs,syndirella_product,openbind_a71ev2a_c2_elabs_fragonly_scored_top80percent,openbind_a71ev2a_c2_elabs_scored,BulkDock Fragalysis export,openbind_a71ev2a_c2_elabs_scored_top80percent,openbind_a71ev2a_c2_elabs_activefrags_only_scored_5.2plus,syndirella_placed

>  <smina_score_min>  (520) 
-6.922

$$$$
P545815
     RDKit          3D

 21 22  0  0  0  0  0  0  0  0999 V2000
    1.8501   11.5699   30.8205 C   0  0  0  0  0  0  0  0  0  0  0  0
    2.3575   12.6808   29.4865 S   0  0  0  0  0  0  0  0  0  0  0  0
    3.6017   11.7343   28.7436 C   0  0  0  0  0  0  0  0  0  0  0  0
    4.3692   12.2478   27.7722 C   0  0  0  0  0  0  0  0  0  0  0  0
    5.4028   11.3773   27.1335 C   0  0  0  0  0  0  0  0  0  0  0  0
    5.5575   10.2642   27.4478 O   0  0  0  0  0  0  0  0  0  0  0  0
    6.1000   12.2158   26.0341 N   0  0  0  0  0  0  0  0  0  0  0  0
    7.1613   11.8959   25.1872 C   0  0  0  0  0  0  0  0  0  0  0  0
    7.5877   10.5802   25.0380 C   0  0  0  0  0  0  0  0  0  0  0  0
    8.6602   10.2741   24.1996 C   0  0  0  0  0  0  0  0  0  0  0  0
    9.4148   11.2922   23.6362 C   0  0  0  0  0  0  0  0  0  0  0  0
    9.0809   12.6200   23.9123 C   0  0  0  0  0  0  0  0  0  0  0  0
   10.1204   13.5764   23.9320 N   0  0  0  0  0  0  0  0  0  0  0  0
   10.3918   14.2582   25.0974 C   0  0  0  0  0  0  0  0  0  0  0  0
    9.6641   14.5633   26.0357 O   0  0  0  0  0  0  0  0  0  0  0  0
   11.8484   14.5945   25.1214 C   0  0  0  0  0  0  0  0  0  0  0  0
   12.2035   14.3487   23.7735 N   0  0  0  0  0  0  0  0  0  0  0  0
   11.2429   13.5984   23.1553 C   0  0  0  0  0  0  0  0  0  0  0  0
   11.4864   13.0628   22.0967 O   0  0  0  0  0  0  0  0  0  0  0  0
    7.8428   12.9210   24.5202 C   0  0  0  0  0  0  0  0  0  0  0  0
    7.2763   14.3211   24.4814 C   0  0  0  0  0  0  0  0  0  0  0  0
  1  2  1  0
  2  3  1  0
  3  4  2  0
  4  5  1  0
  5  6  2  0
  5  7  1  0
  7  8  1  0
  8  9  2  0
  9 10  1  0
 10 11  2  0
 11 12  1  0
 12 13  1  0
 13 14  1  0
 14 15  2  0
 14 16  1  0
 16 17  1  0
 17 18  1  0
 18 19  2  0
 12 20  2  0
 20 21  1  0
 20  8  1  0
 18 13  1  0
M  END
>  <alias>  (521) 
None

>  <rmsd(smina/fragmenstein)>  (521) 
2.012

>  <smiles>  (521) 
CS/C=C/C(=O)Nc1cccc(N2C(=O)CNC2=O)c1C

>  <gnina_score>  (521) 
4.965

>  <inspiration_score>  (521) 
None

>  <energy_score>  (521) 
-41.764219

>  <distance_score>  (521) 
1.334461

>  <gnina_score_min>  (521) 
5.262

>  <inchikey>  (521) 
UTAOXWARBODFEP-VOTSOKGWSA-N

>  <exports>  (521) 
['/opt/xchem-fragalysis-2/maxwin/BulkDock/OUTPUTS/openbind_a71ev2a_c2_elabs_1LOUU54.sdf', '/opt/xchem-fragalysis-2/maxwin/BulkDock/OUTPUTS/openbind_a71ev2a_c2_elabs_1LSYIDY.sdf']

>  <name>  (521) 
P545815

>  <ref_pdb>  (521) 
A0884a

>  <subsites>  (521) 
None

>  <HIPPO Pose ID>  (521) 
545815

>  <ref_mols>  (521) 
A0884a

>  <HIPPO Compound ID>  (521) 
384342

>  <tags>  (521) 
openbind_a71ev2a_c2_elabs,syndirella_product,openbind_a71ev2a_c2_elabs_fragonly_scored_top80percent,openbind_a71ev2a_c2_elabs_scored,BulkDock Fragalysis export,openbind_a71ev2a_c2_elabs_scored_top80percent,openbind_a71ev2a_c2_elabs_activefrags_only_scored_5.2plus,syndirella_placed

>  <smina_score_min>  (521) 
-6.539

$$$$
P545819
     RDKit          3D

 21 22  0  0  0  0  0  0  0  0999 V2000
    6.7158   17.4560   28.0763 C   0  0  0  0  0  0  0  0  0  0  0  0
    6.9456   15.7064   27.6691 S   0  0  0  0  0  0  0  0  0  0  0  0
    5.2984   15.2146   27.4801 C   0  0  0  0  0  0  0  0  0  0  0  0
    4.8816   14.0035   27.0843 C   0  0  0  0  0  0  0  0  0  0  0  0
    5.6587   12.7871   26.6942 C   0  0  0  0  0  0  0  0  0  0  0  0
    5.2880   11.7261   27.0088 O   0  0  0  0  0  0  0  0  0  0  0  0
    6.8594   13.2094   25.8211 N   0  0  0  0  0  0  0  0  0  0  0  0
    7.7673   12.4406   25.1001 C   0  0  0  0  0  0  0  0  0  0  0  0
    7.6755   11.0545   25.0223 C   0  0  0  0  0  0  0  0  0  0  0  0
    8.5926   10.3418   24.2444 C   0  0  0  0  0  0  0  0  0  0  0  0
    9.6060   11.0001   23.5491 C   0  0  0  0  0  0  0  0  0  0  0  0
    9.7262   12.3834   23.6579 C   0  0  0  0  0  0  0  0  0  0  0  0
   10.7710   13.0512   22.9901 N   0  0  0  0  0  0  0  0  0  0  0  0
   11.8249   13.5809   23.6889 C   0  0  0  0  0  0  0  0  0  0  0  0
   12.1976   13.2790   24.8157 O   0  0  0  0  0  0  0  0  0  0  0  0
   12.4172   14.7216   22.8906 C   0  0  0  0  0  0  0  0  0  0  0  0
   11.5643   14.7512   21.7650 N   0  0  0  0  0  0  0  0  0  0  0  0
   10.4942   13.9299   21.9855 C   0  0  0  0  0  0  0  0  0  0  0  0
    9.4393   14.0992   21.4027 O   0  0  0  0  0  0  0  0  0  0  0  0
    8.8005   13.0954   24.4265 C   0  0  0  0  0  0  0  0  0  0  0  0
    8.9199   14.4296   24.5455 F   0  0  0  0  0  0  0  0  0  0  0  0
  1  2  1  0
  2  3  1  0
  3  4  2  0
  4  5  1  0
  5  6  2  0
  5  7  1  0
  7  8  1  0
  8  9  2  0
  9 10  1  0
 10 11  2  0
 11 12  1  0
 12 13  1  0
 13 14  1  0
 14 15  2  0
 14 16  1  0
 16 17  1  0
 17 18  1  0
 18 19  2  0
 12 20  2  0
 20 21  1  0
 20  8  1  0
 18 13  1  0
M  END
>  <alias>  (522) 
None

>  <rmsd(smina/fragmenstein)>  (522) 
1.03

>  <smiles>  (522) 
CS/C=C\C(=O)Nc1cccc(N2C(=O)CNC2=O)c1F

>  <gnina_score>  (522) 
5.349

>  <inspiration_score>  (522) 
None

>  <energy_score>  (522) 
-34.728265

>  <distance_score>  (522) 
1.562824

>  <gnina_score_min>  (522) 
5.366

>  <inchikey>  (522) 
VFUBKOLVQYJAMP-WAYWQWQTSA-N

>  <exports>  (522) 
['/opt/xchem-fragalysis-2/maxwin/BulkDock/OUTPUTS/openbind_a71ev2a_c2_elabs_1LOUU54.sdf', '/opt/xchem-fragalysis-2/maxwin/BulkDock/OUTPUTS/openbind_a71ev2a_c2_elabs_1LSYIDY.sdf']

>  <name>  (522) 
P545819

>  <ref_pdb>  (522) 
A0884a

>  <subsites>  (522) 
None

>  <HIPPO Pose ID>  (522) 
545819

>  <ref_mols>  (522) 
A0884a

>  <HIPPO Compound ID>  (522) 
384344

>  <tags>  (522) 
openbind_a71ev2a_c2_elabs,syndirella_product,openbind_a71ev2a_c2_elabs_fragonly_scored_top80percent,openbind_a71ev2a_c2_elabs_scored,BulkDock Fragalysis export,openbind_a71ev2a_c2_elabs_scored_top80percent,openbind_a71ev2a_c2_elabs_activefrags_only_scored_5.2plus,syndirella_placed

>  <smina_score_min>  (522) 
-6.354

$$$$
P545823
     RDKit          3D

 21 22  0  0  0  0  0  0  0  0999 V2000
    7.2642   14.4522   24.5406 C   0  0  0  0  0  0  0  0  0  0  0  0
    7.7634   13.0280   24.6074 C   0  0  0  0  0  0  0  0  0  0  0  0
    7.0222   12.0450   25.2821 C   0  0  0  0  0  0  0  0  0  0  0  0
    5.9733   12.4308   26.1163 N   0  0  0  0  0  0  0  0  0  0  0  0
    5.1919   11.6287   27.1856 C   0  0  0  0  0  0  0  0  0  0  0  0
    5.3554   10.5455   27.5874 O   0  0  0  0  0  0  0  0  0  0  0  0
    4.1086   12.5169   27.7067 C   0  0  0  0  0  0  0  0  0  0  0  0
    3.3189   12.0617   28.6886 C   0  0  0  0  0  0  0  0  0  0  0  0
    1.7731   13.1561   29.4536 I   0  0  0  0  0  0  0  0  0  0  0  0
    7.3835   10.7043   25.1672 C   0  0  0  0  0  0  0  0  0  0  0  0
    8.4677   10.3336   24.3751 C   0  0  0  0  0  0  0  0  0  0  0  0
    9.2826   11.3096   23.8294 C   0  0  0  0  0  0  0  0  0  0  0  0
   10.4367   10.9171   23.2861 F   0  0  0  0  0  0  0  0  0  0  0  0
    8.9983   12.6632   24.0271 C   0  0  0  0  0  0  0  0  0  0  0  0
   10.0681   13.5857   24.0222 N   0  0  0  0  0  0  0  0  0  0  0  0
   10.3893   14.2666   25.1725 C   0  0  0  0  0  0  0  0  0  0  0  0
    9.6867   14.5972   26.1215 O   0  0  0  0  0  0  0  0  0  0  0  0
   11.8498   14.5875   25.1467 C   0  0  0  0  0  0  0  0  0  0  0  0
   12.1702   14.2828   23.8030 N   0  0  0  0  0  0  0  0  0  0  0  0
   11.1489   13.6114   23.1886 C   0  0  0  0  0  0  0  0  0  0  0  0
   11.2847   13.1902   22.0619 O   0  0  0  0  0  0  0  0  0  0  0  0
  1  2  1  0
  2  3  2  0
  3  4  1  0
  4  5  1  0
  5  6  2  0
  5  7  1  0
  7  8  2  0
  8  9  1  0
  3 10  1  0
 10 11  2  0
 11 12  1  0
 12 13  1  0
 12 14  2  0
 14 15  1  0
 15 16  1  0
 16 17  2  0
 16 18  1  0
 18 19  1  0
 19 20  1  0
 20 21  2  0
 14  2  1  0
 20 15  1  0
M  END
>  <alias>  (523) 
None

>  <rmsd(smina/fragmenstein)>  (523) 
1.878

>  <smiles>  (523) 
Cc1c(NC(=O)/C=C/I)ccc(F)c1N1C(=O)CNC1=O

>  <gnina_score>  (523) 
5.147

>  <inspiration_score>  (523) 
None

>  <energy_score>  (523) 
-33.247608

>  <distance_score>  (523) 
1.383619

>  <gnina_score_min>  (523) 
5.415

>  <inchikey>  (523) 
FFTGTIDKVWENJT-SNAWJCMRSA-N

>  <exports>  (523) 
['/opt/xchem-fragalysis-2/maxwin/BulkDock/OUTPUTS/openbind_a71ev2a_c2_elabs_1LOUU54.sdf', '/opt/xchem-fragalysis-2/maxwin/BulkDock/OUTPUTS/openbind_a71ev2a_c2_elabs_1LSYIDY.sdf']

>  <name>  (523) 
P545823

>  <ref_pdb>  (523) 
A0884a

>  <subsites>  (523) 
None

>  <HIPPO Pose ID>  (523) 
545823

>  <ref_mols>  (523) 
A0884a

>  <HIPPO Compound ID>  (523) 
384349

>  <tags>  (523) 
openbind_a71ev2a_c2_elabs,syndirella_product,openbind_a71ev2a_c2_elabs_fragonly_scored_top80percent,openbind_a71ev2a_c2_elabs_scored,BulkDock Fragalysis export,openbind_a71ev2a_c2_elabs_scored_top80percent,openbind_a71ev2a_c2_elabs_activefrags_only_scored_5.2plus,syndirella_placed

>  <smina_score_min>  (523) 
-6.456

$$$$
P545825
     RDKit          3D

 21 22  0  0  0  0  0  0  0  0999 V2000
    8.0650   14.5436   24.2224 C   0  0  0  0  0  0  0  0  0  0  0  0
    8.3636   13.0737   24.2648 C   0  0  0  0  0  0  0  0  0  0  0  0
    7.5149   12.2115   24.9998 C   0  0  0  0  0  0  0  0  0  0  0  0
    6.4946   12.7448   25.7955 N   0  0  0  0  0  0  0  0  0  0  0  0
    5.5542   12.0555   26.8350 C   0  0  0  0  0  0  0  0  0  0  0  0
    5.4411   10.9254   27.1238 O   0  0  0  0  0  0  0  0  0  0  0  0
    4.7822   13.1740   27.5854 C   0  0  0  0  0  0  0  0  0  0  0  0
    3.7009   12.5795   28.4906 C   0  0  0  0  0  0  0  0  0  0  0  0
    5.7275   14.0583   28.3971 C   0  0  0  0  0  0  0  0  0  0  0  0
    3.8685   14.2918   26.2480 Br  0  0  0  0  0  0  0  0  0  0  0  0
    7.7260   10.8356   24.9715 C   0  0  0  0  0  0  0  0  0  0  0  0
    8.7775   10.3078   24.2324 C   0  0  0  0  0  0  0  0  0  0  0  0
    9.6866   11.1533   23.6107 C   0  0  0  0  0  0  0  0  0  0  0  0
    9.5262   12.5391   23.6598 C   0  0  0  0  0  0  0  0  0  0  0  0
   10.5810   13.3484   23.1792 N   0  0  0  0  0  0  0  0  0  0  0  0
   10.5549   14.1076   22.0445 C   0  0  0  0  0  0  0  0  0  0  0  0
    9.6200   14.2746   21.2792 O   0  0  0  0  0  0  0  0  0  0  0  0
   11.9121   14.7323   21.8282 C   0  0  0  0  0  0  0  0  0  0  0  0
   12.6122   14.2502   22.9653 N   0  0  0  0  0  0  0  0  0  0  0  0
   11.8420   13.3921   23.7096 C   0  0  0  0  0  0  0  0  0  0  0  0
   12.2803   12.8381   24.7023 O   0  0  0  0  0  0  0  0  0  0  0  0
  1  2  1  0
  2  3  2  0
  3  4  1  0
  4  5  1  0
  5  6  2  0
  5  7  1  0
  7  8  1  0
  7  9  1  0
  7 10  1  0
  3 11  1  0
 11 12  2  0
 12 13  1  0
 13 14  2  0
 14 15  1  0
 15 16  1  0
 16 17  2  0
 16 18  1  0
 18 19  1  0
 19 20  1  0
 20 21  2  0
 14  2  1  0
 20 15  1  0
M  END
>  <alias>  (524) 
None

>  <rmsd(smina/fragmenstein)>  (524) 
0.632

>  <smiles>  (524) 
Cc1c(NC(=O)C(C)(C)Br)cccc1N1C(=O)CNC1=O

>  <gnina_score>  (524) 
5.156

>  <inspiration_score>  (524) 
None

>  <energy_score>  (524) 
-27.861812

>  <distance_score>  (524) 
1.531369

>  <gnina_score_min>  (524) 
5.244

>  <inchikey>  (524) 
MYCVBJIHDXOVAQ-UHFFFAOYSA-N

>  <exports>  (524) 
['/opt/xchem-fragalysis-2/maxwin/BulkDock/OUTPUTS/openbind_a71ev2a_c2_elabs_1LOUU54.sdf', '/opt/xchem-fragalysis-2/maxwin/BulkDock/OUTPUTS/openbind_a71ev2a_c2_elabs_1LSYIDY.sdf']

>  <name>  (524) 
P545825

>  <ref_pdb>  (524) 
A0884a

>  <subsites>  (524) 
None

>  <HIPPO Pose ID>  (524) 
545825

>  <ref_mols>  (524) 
A0884a

>  <HIPPO Compound ID>  (524) 
384352

>  <tags>  (524) 
openbind_a71ev2a_c2_elabs,syndirella_product,openbind_a71ev2a_c2_elabs_fragonly_scored_top80percent,openbind_a71ev2a_c2_elabs_scored,BulkDock Fragalysis export,openbind_a71ev2a_c2_elabs_scored_top80percent,openbind_a71ev2a_c2_elabs_activefrags_only_scored_5.2plus,syndirella_placed

>  <smina_score_min>  (524) 
-6.986

$$$$
P545827
     RDKit          3D

 21 23  0  0  0  0  0  0  0  0999 V2000
    7.6319   14.7006   24.5535 C   0  0  0  0  0  0  0  0  0  0  0  0
    8.0096   13.2452   24.4711 C   0  0  0  0  0  0  0  0  0  0  0  0
    7.2931   12.2593   25.1923 C   0  0  0  0  0  0  0  0  0  0  0  0
    6.2513   12.6326   26.0485 N   0  0  0  0  0  0  0  0  0  0  0  0
    5.4387   11.7954   27.0709 C   0  0  0  0  0  0  0  0  0  0  0  0
    5.4619   10.6509   27.2998 O   0  0  0  0  0  0  0  0  0  0  0  0
    4.4991   12.7355   27.7561 C   0  0  0  0  0  0  0  0  0  0  0  0
    3.6520   12.2795   28.6555 C   0  0  0  0  0  0  0  0  0  0  0  0
    2.6222   12.6166   29.5577 C   0  0  0  0  0  0  0  0  0  0  0  0
    3.1635   11.1627   29.3642 C   0  0  0  0  0  0  0  0  0  0  0  0
    7.6374   10.9085   25.0710 C   0  0  0  0  0  0  0  0  0  0  0  0
    8.6937   10.5206   24.2541 C   0  0  0  0  0  0  0  0  0  0  0  0
    9.4508   11.4904   23.6188 C   0  0  0  0  0  0  0  0  0  0  0  0
   10.4624   11.0944   22.8436 F   0  0  0  0  0  0  0  0  0  0  0  0
    9.1526   12.8521   23.7411 C   0  0  0  0  0  0  0  0  0  0  0  0
   10.0486   13.8246   23.2219 N   0  0  0  0  0  0  0  0  0  0  0  0
    9.9215   14.3106   21.8624 C   0  0  0  0  0  0  0  0  0  0  0  0
   11.2962   14.8660   21.5190 C   0  0  0  0  0  0  0  0  0  0  0  0
   12.1502   14.3402   22.5400 N   0  0  0  0  0  0  0  0  0  0  0  0
   11.4136   13.7774   23.5652 C   0  0  0  0  0  0  0  0  0  0  0  0
   11.8887   13.3628   24.6106 O   0  0  0  0  0  0  0  0  0  0  0  0
  1  2  1  0
  2  3  2  0
  3  4  1  0
  4  5  1  0
  5  6  2  0
  5  7  1  0
  7  8  2  3
  8  9  1  0
  9 10  1  0
  3 11  1  0
 11 12  2  0
 12 13  1  0
 13 14  1  0
 13 15  2  0
 15 16  1  0
 16 17  1  0
 17 18  1  0
 18 19  1  0
 19 20  1  0
 20 21  2  0
 15  2  1  0
 20 16  1  0
 10  8  1  0
M  END
>  <alias>  (525) 
None

>  <rmsd(smina/fragmenstein)>  (525) 
0.599

>  <smiles>  (525) 
Cc1c(NC(=O)C=C2CC2)ccc(F)c1N1CCNC1=O

>  <gnina_score>  (525) 
5.259

>  <inspiration_score>  (525) 
None

>  <energy_score>  (525) 
-34.876362

>  <distance_score>  (525) 
1.199826

>  <gnina_score_min>  (525) 
5.323

>  <inchikey>  (525) 
PDNHDFLBPWHDMI-UHFFFAOYSA-N

>  <exports>  (525) 
['/opt/xchem-fragalysis-2/maxwin/BulkDock/OUTPUTS/openbind_a71ev2a_c2_elabs_1LOUU54.sdf', '/opt/xchem-fragalysis-2/maxwin/BulkDock/OUTPUTS/openbind_a71ev2a_c2_elabs_1LSYIDY.sdf']

>  <name>  (525) 
P545827

>  <ref_pdb>  (525) 
A0884a

>  <subsites>  (525) 
None

>  <HIPPO Pose ID>  (525) 
545827

>  <ref_mols>  (525) 
A0884a

>  <HIPPO Compound ID>  (525) 
384357

>  <tags>  (525) 
openbind_a71ev2a_c2_elabs,syndirella_product,openbind_a71ev2a_c2_elabs_fragonly_scored_top80percent,openbind_a71ev2a_c2_elabs_scored,BulkDock Fragalysis export,openbind_a71ev2a_c2_elabs_scored_top80percent,openbind_a71ev2a_c2_elabs_activefrags_only_scored_5.2plus,syndirella_placed

>  <smina_score_min>  (525) 
-6.206

$$$$
P545828
     RDKit          3D

 21 23  0  0  0  0  0  0  0  0999 V2000
    7.6517   14.6153   24.5191 C   0  0  0  0  0  0  0  0  0  0  0  0
    8.0706   13.1768   24.3761 C   0  0  0  0  0  0  0  0  0  0  0  0
    7.3920   12.1599   25.0873 C   0  0  0  0  0  0  0  0  0  0  0  0
    6.3147   12.4745   25.9232 N   0  0  0  0  0  0  0  0  0  0  0  0
    5.6498   11.6556   27.0602 C   0  0  0  0  0  0  0  0  0  0  0  0
    5.8489   10.5639   27.4221 O   0  0  0  0  0  0  0  0  0  0  0  0
    4.5933   12.5262   27.6621 C   0  0  0  0  0  0  0  0  0  0  0  0
    3.7931   12.0430   28.5896 C   0  0  0  0  0  0  0  0  0  0  0  0
    2.7063   12.3171   29.4449 C   0  0  0  0  0  0  0  0  0  0  0  0
    3.4338   10.9342   29.3833 C   0  0  0  0  0  0  0  0  0  0  0  0
    7.7872   10.8254   24.9602 C   0  0  0  0  0  0  0  0  0  0  0  0
    8.8606   10.4787   24.1469 C   0  0  0  0  0  0  0  0  0  0  0  0
    9.5847   11.4752   23.5073 C   0  0  0  0  0  0  0  0  0  0  0  0
    9.2184   12.8229   23.6340 C   0  0  0  0  0  0  0  0  0  0  0  0
   10.0715   13.8070   23.0414 N   0  0  0  0  0  0  0  0  0  0  0  0
    9.6910   14.2774   21.7089 C   0  0  0  0  0  0  0  0  0  0  0  0
   10.6575   15.2577   21.0786 C   0  0  0  0  0  0  0  0  0  0  0  0
   12.0637   14.7620   21.2980 C   0  0  0  0  0  0  0  0  0  0  0  0
   12.2908   14.4709   22.6813 N   0  0  0  0  0  0  0  0  0  0  0  0
   11.3812   13.8752   23.4992 C   0  0  0  0  0  0  0  0  0  0  0  0
   11.7536   13.4694   24.5994 O   0  0  0  0  0  0  0  0  0  0  0  0
  1  2  1  0
  2  3  2  0
  3  4  1  0
  4  5  1  0
  5  6  2  0
  5  7  1  0
  7  8  2  3
  8  9  1  0
  9 10  1  0
  3 11  1  0
 11 12  2  0
 12 13  1  0
 13 14  2  0
 14 15  1  0
 15 16  1  0
 16 17  1  0
 17 18  1  0
 18 19  1  0
 19 20  1  0
 20 21  2  0
 14  2  1  0
 20 15  1  0
 10  8  1  0
M  END
>  <alias>  (526) 
None

>  <rmsd(smina/fragmenstein)>  (526) 
0.41

>  <smiles>  (526) 
Cc1c(NC(=O)C=C2CC2)cccc1N1CCCNC1=O

>  <gnina_score>  (526) 
5.182

>  <inspiration_score>  (526) 
None

>  <energy_score>  (526) 
-34.348784

>  <distance_score>  (526) 
1.167298

>  <gnina_score_min>  (526) 
5.235

>  <inchikey>  (526) 
RVCCGFSCZHXFRD-UHFFFAOYSA-N

>  <exports>  (526) 
['/opt/xchem-fragalysis-2/maxwin/BulkDock/OUTPUTS/openbind_a71ev2a_c2_elabs_1LOUU54.sdf', '/opt/xchem-fragalysis-2/maxwin/BulkDock/OUTPUTS/openbind_a71ev2a_c2_elabs_1LSYIDY.sdf']

>  <name>  (526) 
P545828

>  <ref_pdb>  (526) 
A0884a

>  <subsites>  (526) 
None

>  <HIPPO Pose ID>  (526) 
545828

>  <ref_mols>  (526) 
A0884a

>  <HIPPO Compound ID>  (526) 
384362

>  <tags>  (526) 
openbind_a71ev2a_c2_elabs,syndirella_product,openbind_a71ev2a_c2_elabs_fragonly_scored_top80percent,openbind_a71ev2a_c2_elabs_scored,BulkDock Fragalysis export,openbind_a71ev2a_c2_elabs_scored_top80percent,openbind_a71ev2a_c2_elabs_activefrags_only_scored_5.2plus,syndirella_placed

>  <smina_score_min>  (526) 
-7.094

$$$$
P545831
     RDKit          3D

 21 22  0  0  0  0  0  0  0  0999 V2000
    4.1217   15.9800   27.4502 C   0  0  0  0  0  0  0  0  0  0  0  0
    5.0396   14.9821   27.0220 O   0  0  0  0  0  0  0  0  0  0  0  0
    4.5676   13.6673   27.3120 C   0  0  0  0  0  0  0  0  0  0  0  0
    5.4775   12.5674   26.7299 C   0  0  0  0  0  0  0  0  0  0  0  0
    5.3554   11.4287   26.9721 O   0  0  0  0  0  0  0  0  0  0  0  0
    6.4544   13.2930   25.7584 N   0  0  0  0  0  0  0  0  0  0  0  0
    7.5001   12.7939   24.9907 C   0  0  0  0  0  0  0  0  0  0  0  0
    7.7716   11.4301   24.8934 C   0  0  0  0  0  0  0  0  0  0  0  0
    8.8421   10.9879   24.1054 C   0  0  0  0  0  0  0  0  0  0  0  0
    9.1177    9.5495   23.8730 C   0  0  0  0  0  0  0  0  0  0  0  0
    9.6570   11.9074   23.4596 C   0  0  0  0  0  0  0  0  0  0  0  0
    9.3844   13.2648   23.5599 C   0  0  0  0  0  0  0  0  0  0  0  0
   10.1952   14.1840   22.8532 N   0  0  0  0  0  0  0  0  0  0  0  0
    9.6601   14.5706   21.5460 C   0  0  0  0  0  0  0  0  0  0  0  0
   10.6130   15.3617   20.6953 C   0  0  0  0  0  0  0  0  0  0  0  0
   11.9802   14.7756   20.8614 C   0  0  0  0  0  0  0  0  0  0  0  0
   12.6914   14.4090   19.9320 O   0  0  0  0  0  0  0  0  0  0  0  0
   12.3751   14.7019   22.1659 N   0  0  0  0  0  0  0  0  0  0  0  0
   11.5578   14.1726   23.1200 C   0  0  0  0  0  0  0  0  0  0  0  0
   12.0469   13.7102   24.1522 O   0  0  0  0  0  0  0  0  0  0  0  0
    8.2896   13.7100   24.2947 C   0  0  0  0  0  0  0  0  0  0  0  0
  1  2  1  0
  2  3  1  0
  3  4  1  0
  4  5  2  0
  4  6  1  0
  6  7  1  0
  7  8  2  0
  8  9  1  0
  9 10  1  0
  9 11  2  0
 11 12  1  0
 12 13  1  0
 13 14  1  0
 14 15  1  0
 15 16  1  0
 16 17  2  0
 16 18  1  0
 18 19  1  0
 19 20  2  0
 12 21  2  0
 21  7  1  0
 19 13  1  0
M  END
>  <alias>  (527) 
None

>  <rmsd(smina/fragmenstein)>  (527) 
0.627

>  <smiles>  (527) 
COCC(=O)Nc1cc(C)cc(N2CCC(=O)NC2=O)c1

>  <gnina_score>  (527) 
5.275

>  <inspiration_score>  (527) 
None

>  <energy_score>  (527) 
-25.442201

>  <distance_score>  (527) 
1.314008

>  <gnina_score_min>  (527) 
5.336

>  <inchikey>  (527) 
GAWYSHQSOXNRGT-UHFFFAOYSA-N

>  <exports>  (527) 
['/opt/xchem-fragalysis-2/maxwin/BulkDock/OUTPUTS/openbind_a71ev2a_c2_elabs_1LOUU54.sdf', '/opt/xchem-fragalysis-2/maxwin/BulkDock/OUTPUTS/openbind_a71ev2a_c2_elabs_1LSYIDY.sdf']

>  <name>  (527) 
P545831

>  <ref_pdb>  (527) 
A0884a

>  <subsites>  (527) 
None

>  <HIPPO Pose ID>  (527) 
545831

>  <ref_mols>  (527) 
A0884a

>  <HIPPO Compound ID>  (527) 
384368

>  <tags>  (527) 
openbind_a71ev2a_c2_elabs,syndirella_product,openbind_a71ev2a_c2_elabs_fragonly_scored_top80percent,openbind_a71ev2a_c2_elabs_scored,BulkDock Fragalysis export,openbind_a71ev2a_c2_elabs_scored_top80percent,openbind_a71ev2a_c2_elabs_activefrags_only_scored_5.2plus,syndirella_placed

>  <smina_score_min>  (527) 
-6.574

$$$$
P545833
     RDKit          3D

 21 22  0  0  0  0  0  0  0  0999 V2000
    3.3509   13.0759   28.1535 C   0  0  0  0  0  0  0  0  0  0  0  0
    4.5667   13.0304   27.4164 O   0  0  0  0  0  0  0  0  0  0  0  0
    5.0255   14.3484   27.1034 C   0  0  0  0  0  0  0  0  0  0  0  0
    6.3464   14.3690   26.3112 C   0  0  0  0  0  0  0  0  0  0  0  0
    6.9634   15.3429   26.1183 O   0  0  0  0  0  0  0  0  0  0  0  0
    6.6109   12.9040   25.8637 N   0  0  0  0  0  0  0  0  0  0  0  0
    7.5988   12.3764   25.0404 C   0  0  0  0  0  0  0  0  0  0  0  0
    8.4397   13.2027   24.2992 C   0  0  0  0  0  0  0  0  0  0  0  0
    9.4383   12.6414   23.4995 C   0  0  0  0  0  0  0  0  0  0  0  0
   10.2782   13.4577   22.7071 N   0  0  0  0  0  0  0  0  0  0  0  0
    9.6547   14.4138   21.8037 C   0  0  0  0  0  0  0  0  0  0  0  0
   10.5791   14.9137   20.7143 C   0  0  0  0  0  0  0  0  0  0  0  0
   12.0117   14.6183   21.0324 C   0  0  0  0  0  0  0  0  0  0  0  0
   12.8547   14.4461   20.1563 O   0  0  0  0  0  0  0  0  0  0  0  0
   12.3040   14.5552   22.3616 N   0  0  0  0  0  0  0  0  0  0  0  0
   11.5665   13.7262   23.1628 C   0  0  0  0  0  0  0  0  0  0  0  0
   12.0607   13.2408   24.1792 O   0  0  0  0  0  0  0  0  0  0  0  0
    9.5965   11.2538   23.4443 C   0  0  0  0  0  0  0  0  0  0  0  0
    8.7423   10.4262   24.1661 C   0  0  0  0  0  0  0  0  0  0  0  0
    7.7482   10.9931   24.9540 C   0  0  0  0  0  0  0  0  0  0  0  0
    6.9321   10.1932   25.6536 F   0  0  0  0  0  0  0  0  0  0  0  0
  1  2  1  0
  2  3  1  0
  3  4  1  0
  4  5  2  0
  4  6  1  0
  6  7  1  0
  7  8  2  0
  8  9  1  0
  9 10  1  0
 10 11  1  0
 11 12  1  0
 12 13  1  0
 13 14  2  0
 13 15  1  0
 15 16  1  0
 16 17  2  0
  9 18  2  0
 18 19  1  0
 19 20  2  0
 20 21  1  0
 20  7  1  0
 16 10  1  0
M  END
>  <alias>  (528) 
None

>  <rmsd(smina/fragmenstein)>  (528) 
0.323

>  <smiles>  (528) 
COCC(=O)Nc1cc(N2CCC(=O)NC2=O)ccc1F

>  <gnina_score>  (528) 
5.263

>  <inspiration_score>  (528) 
None

>  <energy_score>  (528) 
-40.667422

>  <distance_score>  (528) 
1.474403

>  <gnina_score_min>  (528) 
5.202

>  <inchikey>  (528) 
MDSGKLCWTWXDHW-UHFFFAOYSA-N

>  <exports>  (528) 
['/opt/xchem-fragalysis-2/maxwin/BulkDock/OUTPUTS/openbind_a71ev2a_c2_elabs_1LOUU54.sdf', '/opt/xchem-fragalysis-2/maxwin/BulkDock/OUTPUTS/openbind_a71ev2a_c2_elabs_1LSYIDY.sdf']

>  <name>  (528) 
P545833

>  <ref_pdb>  (528) 
A0884a

>  <subsites>  (528) 
None

>  <HIPPO Pose ID>  (528) 
545833

>  <ref_mols>  (528) 
A0884a

>  <HIPPO Compound ID>  (528) 
384370

>  <tags>  (528) 
openbind_a71ev2a_c2_elabs,syndirella_product,openbind_a71ev2a_c2_elabs_fragonly_scored_top80percent,openbind_a71ev2a_c2_elabs_scored,BulkDock Fragalysis export,openbind_a71ev2a_c2_elabs_scored_top80percent,openbind_a71ev2a_c2_elabs_activefrags_only_scored_5.2plus,syndirella_placed

>  <smina_score_min>  (528) 
-6.832

$$$$
P545834
     RDKit          3D

 21 22  0  0  0  0  0  0  0  0999 V2000
    3.5612   14.1743   29.3561 C   0  0  0  0  0  0  0  0  0  0  0  0
    3.1351   14.3045   28.0065 O   0  0  0  0  0  0  0  0  0  0  0  0
    4.2201   14.4137   27.0971 C   0  0  0  0  0  0  0  0  0  0  0  0
    4.9956   13.1077   26.7912 C   0  0  0  0  0  0  0  0  0  0  0  0
    4.7414   12.0680   27.2690 O   0  0  0  0  0  0  0  0  0  0  0  0
    6.0855   13.5003   25.7382 N   0  0  0  0  0  0  0  0  0  0  0  0
    7.0988   12.7396   25.1598 C   0  0  0  0  0  0  0  0  0  0  0  0
    7.1691   11.3658   25.3514 C   0  0  0  0  0  0  0  0  0  0  0  0
    8.1377   10.6263   24.6822 C   0  0  0  0  0  0  0  0  0  0  0  0
    9.0588   11.2453   23.8244 C   0  0  0  0  0  0  0  0  0  0  0  0
    9.9667   10.3311   23.0673 C   0  0  0  0  0  0  0  0  0  0  0  0
    9.0357   12.6447   23.6761 C   0  0  0  0  0  0  0  0  0  0  0  0
    9.9788   13.3350   22.8442 N   0  0  0  0  0  0  0  0  0  0  0  0
    9.4610   14.3279   21.9120 C   0  0  0  0  0  0  0  0  0  0  0  0
   10.4465   14.7943   20.8626 C   0  0  0  0  0  0  0  0  0  0  0  0
   11.8662   14.5271   21.2433 C   0  0  0  0  0  0  0  0  0  0  0  0
   12.7699   14.5213   20.4109 O   0  0  0  0  0  0  0  0  0  0  0  0
   12.0918   14.3121   22.5684 N   0  0  0  0  0  0  0  0  0  0  0  0
   11.2643   13.5472   23.3483 C   0  0  0  0  0  0  0  0  0  0  0  0
   11.6863   13.1022   24.4135 O   0  0  0  0  0  0  0  0  0  0  0  0
    8.0325   13.3744   24.3347 C   0  0  0  0  0  0  0  0  0  0  0  0
  1  2  1  0
  2  3  1  0
  3  4  1  0
  4  5  2  0
  4  6  1  0
  6  7  1  0
  7  8  2  0
  8  9  1  0
  9 10  2  0
 10 11  1  0
 10 12  1  0
 12 13  1  0
 13 14  1  0
 14 15  1  0
 15 16  1  0
 16 17  2  0
 16 18  1  0
 18 19  1  0
 19 20  2  0
 12 21  2  0
 21  7  1  0
 19 13  1  0
M  END
>  <alias>  (529) 
None

>  <rmsd(smina/fragmenstein)>  (529) 
0.709

>  <smiles>  (529) 
COCC(=O)Nc1ccc(C)c(N2CCC(=O)NC2=O)c1

>  <gnina_score>  (529) 
5.212

>  <inspiration_score>  (529) 
None

>  <energy_score>  (529) 
-34.102028

>  <distance_score>  (529) 
1.411403

>  <gnina_score_min>  (529) 
5.219

>  <inchikey>  (529) 
ISCUYBCHJVRWNW-UHFFFAOYSA-N

>  <exports>  (529) 
['/opt/xchem-fragalysis-2/maxwin/BulkDock/OUTPUTS/openbind_a71ev2a_c2_elabs_1LOUU54.sdf', '/opt/xchem-fragalysis-2/maxwin/BulkDock/OUTPUTS/openbind_a71ev2a_c2_elabs_1LSYIDY.sdf']

>  <name>  (529) 
P545834

>  <ref_pdb>  (529) 
A0884a

>  <subsites>  (529) 
None

>  <HIPPO Pose ID>  (529) 
545834

>  <ref_mols>  (529) 
A0884a

>  <HIPPO Compound ID>  (529) 
384371

>  <tags>  (529) 
openbind_a71ev2a_c2_elabs,syndirella_product,openbind_a71ev2a_c2_elabs_fragonly_scored_top80percent,openbind_a71ev2a_c2_elabs_scored,BulkDock Fragalysis export,openbind_a71ev2a_c2_elabs_scored_top80percent,openbind_a71ev2a_c2_elabs_activefrags_only_scored_5.2plus,syndirella_placed

>  <smina_score_min>  (529) 
-6.423

$$$$
P545836
     RDKit          3D

 21 22  0  0  0  0  0  0  0  0999 V2000
    3.1463   14.5114   28.9279 C   0  0  0  0  0  0  0  0  0  0  0  0
    2.8210   14.5190   27.5442 O   0  0  0  0  0  0  0  0  0  0  0  0
    3.9709   14.6019   26.7138 C   0  0  0  0  0  0  0  0  0  0  0  0
    4.8327   13.3195   26.5887 C   0  0  0  0  0  0  0  0  0  0  0  0
    4.5806   12.3071   27.1227 O   0  0  0  0  0  0  0  0  0  0  0  0
    6.0181   13.6965   25.6371 N   0  0  0  0  0  0  0  0  0  0  0  0
    7.0329   12.9071   25.1009 C   0  0  0  0  0  0  0  0  0  0  0  0
    7.1129   11.5451   25.3730 C   0  0  0  0  0  0  0  0  0  0  0  0
    8.0908   10.7750   24.7527 C   0  0  0  0  0  0  0  0  0  0  0  0
    9.0174   11.3670   23.8921 C   0  0  0  0  0  0  0  0  0  0  0  0
   10.0398   10.2835   23.0532 Cl  0  0  0  0  0  0  0  0  0  0  0  0
    8.9888   12.7507   23.6448 C   0  0  0  0  0  0  0  0  0  0  0  0
    9.9508   13.4060   22.8006 N   0  0  0  0  0  0  0  0  0  0  0  0
    9.4637   14.3752   21.8263 C   0  0  0  0  0  0  0  0  0  0  0  0
   10.4773   14.8218   20.7945 C   0  0  0  0  0  0  0  0  0  0  0  0
   11.8825   14.4932   21.1788 C   0  0  0  0  0  0  0  0  0  0  0  0
   12.7858   14.4336   20.3480 O   0  0  0  0  0  0  0  0  0  0  0  0
   12.0992   14.2944   22.5084 N   0  0  0  0  0  0  0  0  0  0  0  0
   11.2397   13.5844   23.3036 C   0  0  0  0  0  0  0  0  0  0  0  0
   11.6316   13.1671   24.3922 O   0  0  0  0  0  0  0  0  0  0  0  0
    7.9658   13.5036   24.2433 C   0  0  0  0  0  0  0  0  0  0  0  0
  1  2  1  0
  2  3  1  0
  3  4  1  0
  4  5  2  0
  4  6  1  0
  6  7  1  0
  7  8  2  0
  8  9  1  0
  9 10  2  0
 10 11  1  0
 10 12  1  0
 12 13  1  0
 13 14  1  0
 14 15  1  0
 15 16  1  0
 16 17  2  0
 16 18  1  0
 18 19  1  0
 19 20  2  0
 12 21  2  0
 21  7  1  0
 19 13  1  0
M  END
>  <alias>  (530) 
None

>  <rmsd(smina/fragmenstein)>  (530) 
0.693

>  <smiles>  (530) 
COCC(=O)Nc1ccc(Cl)c(N2CCC(=O)NC2=O)c1

>  <gnina_score>  (530) 
5.476

>  <inspiration_score>  (530) 
None

>  <energy_score>  (530) 
-124.478702

>  <distance_score>  (530) 
1.540883

>  <gnina_score_min>  (530) 
5.396

>  <inchikey>  (530) 
KYUWFXFFYBAVLZ-UHFFFAOYSA-N

>  <exports>  (530) 
['/opt/xchem-fragalysis-2/maxwin/BulkDock/OUTPUTS/openbind_a71ev2a_c2_elabs_1LOUU54.sdf', '/opt/xchem-fragalysis-2/maxwin/BulkDock/OUTPUTS/openbind_a71ev2a_c2_elabs_1LSYIDY.sdf']

>  <name>  (530) 
P545836

>  <ref_pdb>  (530) 
A0884a

>  <subsites>  (530) 
None

>  <HIPPO Pose ID>  (530) 
545836

>  <ref_mols>  (530) 
A0884a

>  <HIPPO Compound ID>  (530) 
384373

>  <tags>  (530) 
openbind_a71ev2a_c2_elabs,syndirella_product,openbind_a71ev2a_c2_elabs_fragonly_scored_top80percent,openbind_a71ev2a_c2_elabs_scored,BulkDock Fragalysis export,openbind_a71ev2a_c2_elabs_scored_top80percent,openbind_a71ev2a_c2_elabs_activefrags_only_scored_5.2plus,syndirella_placed

>  <smina_score_min>  (530) 
-6.415

$$$$
P545837
     RDKit          3D

 21 22  0  0  0  0  0  0  0  0999 V2000
    2.6422   13.0523   28.5131 C   0  0  0  0  0  0  0  0  0  0  0  0
    3.5264   12.1517   27.8592 O   0  0  0  0  0  0  0  0  0  0  0  0
    4.5984   12.8387   27.2229 C   0  0  0  0  0  0  0  0  0  0  0  0
    5.6586   11.8870   26.6188 C   0  0  0  0  0  0  0  0  0  0  0  0
    5.7350   10.7459   26.8681 O   0  0  0  0  0  0  0  0  0  0  0  0
    6.5015   12.7679   25.6410 N   0  0  0  0  0  0  0  0  0  0  0  0
    7.6213   12.4517   24.8784 C   0  0  0  0  0  0  0  0  0  0  0  0
    8.0420   11.1306   24.6896 C   0  0  0  0  0  0  0  0  0  0  0  0
    9.1442   10.8895   23.8750 C   0  0  0  0  0  0  0  0  0  0  0  0
    9.7609    9.1980   23.3964 Br  0  0  0  0  0  0  0  0  0  0  0  0
    9.8526   11.9289   23.3139 C   0  0  0  0  0  0  0  0  0  0  0  0
    9.4453   13.2351   23.5180 C   0  0  0  0  0  0  0  0  0  0  0  0
   10.1809   14.2605   22.8772 N   0  0  0  0  0  0  0  0  0  0  0  0
    9.6540   14.6169   21.5571 C   0  0  0  0  0  0  0  0  0  0  0  0
   10.6036   15.4063   20.7038 C   0  0  0  0  0  0  0  0  0  0  0  0
   11.9709   14.8245   20.8855 C   0  0  0  0  0  0  0  0  0  0  0  0
   12.6680   14.4131   19.9649 O   0  0  0  0  0  0  0  0  0  0  0  0
   12.3653   14.8017   22.1909 N   0  0  0  0  0  0  0  0  0  0  0  0
   11.5485   14.2902   23.1536 C   0  0  0  0  0  0  0  0  0  0  0  0
   12.0298   13.8389   24.1943 O   0  0  0  0  0  0  0  0  0  0  0  0
    8.3082   13.5064   24.2675 C   0  0  0  0  0  0  0  0  0  0  0  0
  1  2  1  0
  2  3  1  0
  3  4  1  0
  4  5  2  0
  4  6  1  0
  6  7  1  0
  7  8  2  0
  8  9  1  0
  9 10  1  0
  9 11  2  0
 11 12  1  0
 12 13  1  0
 13 14  1  0
 14 15  1  0
 15 16  1  0
 16 17  2  0
 16 18  1  0
 18 19  1  0
 19 20  2  0
 12 21  2  0
 21  7  1  0
 19 13  1  0
M  END
>  <alias>  (531) 
None

>  <rmsd(smina/fragmenstein)>  (531) 
0.332

>  <smiles>  (531) 
COCC(=O)Nc1cc(Br)cc(N2CCC(=O)NC2=O)c1

>  <gnina_score>  (531) 
5.467

>  <inspiration_score>  (531) 
None

>  <energy_score>  (531) 
-18.554888

>  <distance_score>  (531) 
1.26762

>  <gnina_score_min>  (531) 
5.445

>  <inchikey>  (531) 
KTUQTUYHUUONIV-UHFFFAOYSA-N

>  <exports>  (531) 
['/opt/xchem-fragalysis-2/maxwin/BulkDock/OUTPUTS/openbind_a71ev2a_c2_elabs_1LOUU54.sdf', '/opt/xchem-fragalysis-2/maxwin/BulkDock/OUTPUTS/openbind_a71ev2a_c2_elabs_1LSYIDY.sdf']

>  <name>  (531) 
P545837

>  <ref_pdb>  (531) 
A0884a

>  <subsites>  (531) 
None

>  <HIPPO Pose ID>  (531) 
545837

>  <ref_mols>  (531) 
A0884a

>  <HIPPO Compound ID>  (531) 
384374

>  <tags>  (531) 
openbind_a71ev2a_c2_elabs,syndirella_product,openbind_a71ev2a_c2_elabs_fragonly_scored_top80percent,openbind_a71ev2a_c2_elabs_scored,BulkDock Fragalysis export,openbind_a71ev2a_c2_elabs_scored_top80percent,openbind_a71ev2a_c2_elabs_activefrags_only_scored_5.2plus,syndirella_placed

>  <smina_score_min>  (531) 
-6.276

$$$$
P545843
     RDKit          3D

 21 22  0  0  0  0  0  0  0  0999 V2000
    2.2528   13.1361   27.7278 C   0  0  0  0  0  0  0  0  0  0  0  0
    3.3631   13.9724   28.0126 O   0  0  0  0  0  0  0  0  0  0  0  0
    4.2720   14.0722   26.9282 C   0  0  0  0  0  0  0  0  0  0  0  0
    5.1662   12.8409   26.6254 C   0  0  0  0  0  0  0  0  0  0  0  0
    5.0567   11.8007   27.1524 O   0  0  0  0  0  0  0  0  0  0  0  0
    6.1520   13.3102   25.5050 N   0  0  0  0  0  0  0  0  0  0  0  0
    7.2173   12.6468   24.9037 C   0  0  0  0  0  0  0  0  0  0  0  0
    7.4412   11.2830   25.0980 C   0  0  0  0  0  0  0  0  0  0  0  0
    8.5180   10.6634   24.4656 C   0  0  0  0  0  0  0  0  0  0  0  0
    9.3948   11.4193   23.6966 C   0  0  0  0  0  0  0  0  0  0  0  0
   10.4075   10.7932   23.0919 F   0  0  0  0  0  0  0  0  0  0  0  0
    9.1884   12.7871   23.4952 C   0  0  0  0  0  0  0  0  0  0  0  0
   10.0952   13.5490   22.7050 N   0  0  0  0  0  0  0  0  0  0  0  0
    9.5599   14.4626   21.7074 C   0  0  0  0  0  0  0  0  0  0  0  0
   10.5567   14.9100   20.6605 C   0  0  0  0  0  0  0  0  0  0  0  0
   11.9632   14.5546   21.0212 C   0  0  0  0  0  0  0  0  0  0  0  0
   12.8347   14.3997   20.1708 O   0  0  0  0  0  0  0  0  0  0  0  0
   12.2160   14.4571   22.3555 N   0  0  0  0  0  0  0  0  0  0  0  0
   11.3937   13.7267   23.1685 C   0  0  0  0  0  0  0  0  0  0  0  0
   11.8209   13.2933   24.2378 O   0  0  0  0  0  0  0  0  0  0  0  0
    8.0699   13.3882   24.0780 C   0  0  0  0  0  0  0  0  0  0  0  0
  1  2  1  0
  2  3  1  0
  3  4  1  0
  4  5  2  0
  4  6  1  0
  6  7  1  0
  7  8  2  0
  8  9  1  0
  9 10  2  0
 10 11  1  0
 10 12  1  0
 12 13  1  0
 13 14  1  0
 14 15  1  0
 15 16  1  0
 16 17  2  0
 16 18  1  0
 18 19  1  0
 19 20  2  0
 12 21  2  0
 21  7  1  0
 19 13  1  0
M  END
>  <alias>  (532) 
None

>  <rmsd(smina/fragmenstein)>  (532) 
0.306

>  <smiles>  (532) 
COCC(=O)Nc1ccc(F)c(N2CCC(=O)NC2=O)c1

>  <gnina_score>  (532) 
5.234

>  <inspiration_score>  (532) 
None

>  <energy_score>  (532) 
-32.155379

>  <distance_score>  (532) 
1.30164

>  <gnina_score_min>  (532) 
5.225

>  <inchikey>  (532) 
PNLVWLGQJQHUQI-UHFFFAOYSA-N

>  <exports>  (532) 
['/opt/xchem-fragalysis-2/maxwin/BulkDock/OUTPUTS/openbind_a71ev2a_c2_elabs_1LOUU54.sdf', '/opt/xchem-fragalysis-2/maxwin/BulkDock/OUTPUTS/openbind_a71ev2a_c2_elabs_1LSYIDY.sdf']

>  <name>  (532) 
P545843

>  <ref_pdb>  (532) 
A0884a

>  <subsites>  (532) 
None

>  <HIPPO Pose ID>  (532) 
545843

>  <ref_mols>  (532) 
A0884a

>  <HIPPO Compound ID>  (532) 
384381

>  <tags>  (532) 
openbind_a71ev2a_c2_elabs,syndirella_product,openbind_a71ev2a_c2_elabs_fragonly_scored_top80percent,openbind_a71ev2a_c2_elabs_scored,BulkDock Fragalysis export,openbind_a71ev2a_c2_elabs_scored_top80percent,openbind_a71ev2a_c2_elabs_activefrags_only_scored_5.2plus,syndirella_placed

>  <smina_score_min>  (532) 
-6.539

$$$$
P545844
     RDKit          3D

 21 22  0  0  0  0  0  0  0  0999 V2000
    7.7870   14.6418   24.6186 C   0  0  0  0  0  0  0  0  0  0  0  0
    8.0241   13.1654   24.4725 C   0  0  0  0  0  0  0  0  0  0  0  0
    7.2371   12.2415   25.2044 C   0  0  0  0  0  0  0  0  0  0  0  0
    6.1920   12.7026   26.0163 N   0  0  0  0  0  0  0  0  0  0  0  0
    5.4103   12.0300   27.0299 C   0  0  0  0  0  0  0  0  0  0  0  0
    5.4032   10.8815   27.3808 O   0  0  0  0  0  0  0  0  0  0  0  0
    4.5367   13.0569   27.8059 C   0  0  0  0  0  0  0  0  0  0  0  0
    3.5127   12.3593   28.7035 C   0  0  0  0  0  0  0  0  0  0  0  0
    5.4109   14.0042   28.6278 C   0  0  0  0  0  0  0  0  0  0  0  0
    3.5241   14.1323   26.5000 Br  0  0  0  0  0  0  0  0  0  0  0  0
    7.5258   10.8783   25.1399 C   0  0  0  0  0  0  0  0  0  0  0  0
    8.5764   10.4158   24.3538 C   0  0  0  0  0  0  0  0  0  0  0  0
    9.3646   11.3114   23.6449 C   0  0  0  0  0  0  0  0  0  0  0  0
    9.1032   12.6860   23.6854 C   0  0  0  0  0  0  0  0  0  0  0  0
    9.9946   13.5305   22.9462 N   0  0  0  0  0  0  0  0  0  0  0  0
    9.4429   14.4168   21.9236 C   0  0  0  0  0  0  0  0  0  0  0  0
   10.4358   14.8755   20.8720 C   0  0  0  0  0  0  0  0  0  0  0  0
   11.7814   15.1679   21.4802 C   0  0  0  0  0  0  0  0  0  0  0  0
   12.1871   14.1891   22.4430 N   0  0  0  0  0  0  0  0  0  0  0  0
   11.3446   13.5094   23.2633 C   0  0  0  0  0  0  0  0  0  0  0  0
   11.8313   12.9293   24.2345 O   0  0  0  0  0  0  0  0  0  0  0  0
  1  2  1  0
  2  3  2  0
  3  4  1  0
  4  5  1  0
  5  6  2  0
  5  7  1  0
  7  8  1  0
  7  9  1  0
  7 10  1  0
  3 11  1  0
 11 12  2  0
 12 13  1  0
 13 14  2  0
 14 15  1  0
 15 16  1  0
 16 17  1  0
 17 18  1  0
 18 19  1  0
 19 20  1  0
 20 21  2  0
 14  2  1  0
 20 15  1  0
M  END
>  <alias>  (533) 
None

>  <rmsd(smina/fragmenstein)>  (533) 
0.636

>  <smiles>  (533) 
Cc1c(NC(=O)C(C)(C)Br)cccc1N1CCCNC1=O

>  <gnina_score>  (533) 
5.173

>  <inspiration_score>  (533) 
None

>  <energy_score>  (533) 
-34.109352

>  <distance_score>  (533) 
1.180352

>  <gnina_score_min>  (533) 
5.273

>  <inchikey>  (533) 
MWZUHYLFYRJXLA-UHFFFAOYSA-N

>  <exports>  (533) 
['/opt/xchem-fragalysis-2/maxwin/BulkDock/OUTPUTS/openbind_a71ev2a_c2_elabs_1LOUU54.sdf', '/opt/xchem-fragalysis-2/maxwin/BulkDock/OUTPUTS/openbind_a71ev2a_c2_elabs_1LSYIDY.sdf']

>  <name>  (533) 
P545844

>  <ref_pdb>  (533) 
A0884a

>  <subsites>  (533) 
None

>  <HIPPO Pose ID>  (533) 
545844

>  <ref_mols>  (533) 
A0884a

>  <HIPPO Compound ID>  (533) 
384383

>  <tags>  (533) 
openbind_a71ev2a_c2_elabs,syndirella_product,openbind_a71ev2a_c2_elabs_fragonly_scored_top80percent,openbind_a71ev2a_c2_elabs_scored,BulkDock Fragalysis export,openbind_a71ev2a_c2_elabs_scored_top80percent,openbind_a71ev2a_c2_elabs_activefrags_only_scored_5.2plus,syndirella_placed

>  <smina_score_min>  (533) 
-6.725

$$$$
P545845
     RDKit          3D

 21 22  0  0  0  0  0  0  0  0999 V2000
    5.8376   16.2510   28.0859 C   0  0  0  0  0  0  0  0  0  0  0  0
    6.0173   14.7951   27.6555 C   0  0  0  0  0  0  0  0  0  0  0  0
    6.2881   13.9026   28.8662 C   0  0  0  0  0  0  0  0  0  0  0  0
    4.3221   14.2117   26.8316 Br  0  0  0  0  0  0  0  0  0  0  0  0
    7.1581   14.6569   26.6142 C   0  0  0  0  0  0  0  0  0  0  0  0
    7.9542   15.5034   26.4546 O   0  0  0  0  0  0  0  0  0  0  0  0
    7.0598   13.2253   25.9853 N   0  0  0  0  0  0  0  0  0  0  0  0
    7.9394   12.5437   25.1417 C   0  0  0  0  0  0  0  0  0  0  0  0
    7.7331   11.1730   24.9579 C   0  0  0  0  0  0  0  0  0  0  0  0
    8.6074   10.4303   24.1599 C   0  0  0  0  0  0  0  0  0  0  0  0
    9.6712   11.0506   23.5099 C   0  0  0  0  0  0  0  0  0  0  0  0
    9.8802   12.4180   23.6813 C   0  0  0  0  0  0  0  0  0  0  0  0
   10.9500   13.0552   23.0325 N   0  0  0  0  0  0  0  0  0  0  0  0
   10.7559   14.0343   22.0971 C   0  0  0  0  0  0  0  0  0  0  0  0
    9.7179   14.2962   21.5107 O   0  0  0  0  0  0  0  0  0  0  0  0
   12.0464   14.7726   21.8642 C   0  0  0  0  0  0  0  0  0  0  0  0
   12.8382   14.2271   22.9091 N   0  0  0  0  0  0  0  0  0  0  0  0
   12.1542   13.2861   23.6364 C   0  0  0  0  0  0  0  0  0  0  0  0
   12.5916   12.8086   24.6703 O   0  0  0  0  0  0  0  0  0  0  0  0
    9.0169   13.1546   24.4965 C   0  0  0  0  0  0  0  0  0  0  0  0
    9.2629   14.4607   24.6494 F   0  0  0  0  0  0  0  0  0  0  0  0
  1  2  1  0
  2  3  1  0
  2  4  1  0
  2  5  1  0
  5  6  2  0
  5  7  1  0
  7  8  1  0
  8  9  2  0
  9 10  1  0
 10 11  2  0
 11 12  1  0
 12 13  1  0
 13 14  1  0
 14 15  2  0
 14 16  1  0
 16 17  1  0
 17 18  1  0
 18 19  2  0
 12 20  2  0
 20 21  1  0
 20  8  1  0
 18 13  1  0
M  END
>  <alias>  (534) 
None

>  <rmsd(smina/fragmenstein)>  (534) 
0.688

>  <smiles>  (534) 
CC(C)(Br)C(=O)Nc1cccc(N2C(=O)CNC2=O)c1F

>  <gnina_score>  (534) 
5.285

>  <inspiration_score>  (534) 
None

>  <energy_score>  (534) 
-34.768469

>  <distance_score>  (534) 
1.990908

>  <gnina_score_min>  (534) 
5.211

>  <inchikey>  (534) 
OLTDBZMNBGNZMD-UHFFFAOYSA-N

>  <exports>  (534) 
['/opt/xchem-fragalysis-2/maxwin/BulkDock/OUTPUTS/openbind_a71ev2a_c2_elabs_1LOUU54.sdf', '/opt/xchem-fragalysis-2/maxwin/BulkDock/OUTPUTS/openbind_a71ev2a_c2_elabs_1LSYIDY.sdf']

>  <name>  (534) 
P545845

>  <ref_pdb>  (534) 
A0884a

>  <subsites>  (534) 
None

>  <HIPPO Pose ID>  (534) 
545845

>  <ref_mols>  (534) 
A0884a

>  <HIPPO Compound ID>  (534) 
384384

>  <tags>  (534) 
openbind_a71ev2a_c2_elabs,syndirella_product,openbind_a71ev2a_c2_elabs_fragonly_scored_top80percent,openbind_a71ev2a_c2_elabs_scored,BulkDock Fragalysis export,openbind_a71ev2a_c2_elabs_scored_top80percent,openbind_a71ev2a_c2_elabs_activefrags_only_scored_5.2plus,syndirella_placed

>  <smina_score_min>  (534) 
-6.532

$$$$
P545846
     RDKit          3D

 21 22  0  0  0  0  0  0  0  0999 V2000
    3.0364   14.1630   27.2438 C   0  0  0  0  0  0  0  0  0  0  0  0
    4.3238   14.4438   26.4649 C   0  0  0  0  0  0  0  0  0  0  0  0
    5.1342   15.5378   27.1572 C   0  0  0  0  0  0  0  0  0  0  0  0
    3.7918   15.0818   24.6794 Br  0  0  0  0  0  0  0  0  0  0  0  0
    5.1479   13.1409   26.2688 C   0  0  0  0  0  0  0  0  0  0  0  0
    4.8708   12.1421   26.8180 O   0  0  0  0  0  0  0  0  0  0  0  0
    6.3573   13.4831   25.3382 N   0  0  0  0  0  0  0  0  0  0  0  0
    7.3724   12.6719   24.8420 C   0  0  0  0  0  0  0  0  0  0  0  0
    7.4049   11.2985   25.0819 C   0  0  0  0  0  0  0  0  0  0  0  0
    8.4211   10.5226   24.5251 C   0  0  0  0  0  0  0  0  0  0  0  0
    9.4430   11.1295   23.8067 C   0  0  0  0  0  0  0  0  0  0  0  0
   10.4135   10.3597   23.3078 F   0  0  0  0  0  0  0  0  0  0  0  0
    9.4510   12.5059   23.5993 C   0  0  0  0  0  0  0  0  0  0  0  0
   10.5388   13.1252   22.9515 N   0  0  0  0  0  0  0  0  0  0  0  0
   11.6699   13.4713   23.6474 C   0  0  0  0  0  0  0  0  0  0  0  0
   12.0073   13.1020   24.7645 O   0  0  0  0  0  0  0  0  0  0  0  0
   12.3827   14.5729   22.8942 C   0  0  0  0  0  0  0  0  0  0  0  0
   11.5489   14.7296   21.7653 N   0  0  0  0  0  0  0  0  0  0  0  0
   10.3870   14.0370   21.9532 C   0  0  0  0  0  0  0  0  0  0  0  0
    9.3726   14.3282   21.3474 O   0  0  0  0  0  0  0  0  0  0  0  0
    8.3801   13.2697   24.0810 C   0  0  0  0  0  0  0  0  0  0  0  0
  1  2  1  0
  2  3  1  0
  2  4  1  0
  2  5  1  0
  5  6  2  0
  5  7  1  0
  7  8  1  0
  8  9  2  0
  9 10  1  0
 10 11  2  0
 11 12  1  0
 11 13  1  0
 13 14  1  0
 14 15  1  0
 15 16  2  0
 15 17  1  0
 17 18  1  0
 18 19  1  0
 19 20  2  0
 13 21  2  0
 21  8  1  0
 19 14  1  0
M  END
>  <alias>  (535) 
None

>  <rmsd(smina/fragmenstein)>  (535) 
1.041

>  <smiles>  (535) 
CC(C)(Br)C(=O)Nc1ccc(F)c(N2C(=O)CNC2=O)c1

>  <gnina_score>  (535) 
5.483

>  <inspiration_score>  (535) 
None

>  <energy_score>  (535) 
-36.145398

>  <distance_score>  (535) 
1.768034

>  <gnina_score_min>  (535) 
5.286

>  <inchikey>  (535) 
VYXBOZFOSKXIEQ-UHFFFAOYSA-N

>  <exports>  (535) 
['/opt/xchem-fragalysis-2/maxwin/BulkDock/OUTPUTS/openbind_a71ev2a_c2_elabs_1LOUU54.sdf', '/opt/xchem-fragalysis-2/maxwin/BulkDock/OUTPUTS/openbind_a71ev2a_c2_elabs_1LSYIDY.sdf']

>  <name>  (535) 
P545846

>  <ref_pdb>  (535) 
A0884a

>  <subsites>  (535) 
None

>  <HIPPO Pose ID>  (535) 
545846

>  <ref_mols>  (535) 
A0884a

>  <HIPPO Compound ID>  (535) 
384386

>  <tags>  (535) 
openbind_a71ev2a_c2_elabs,syndirella_product,openbind_a71ev2a_c2_elabs_fragonly_scored_top80percent,openbind_a71ev2a_c2_elabs_scored,BulkDock Fragalysis export,openbind_a71ev2a_c2_elabs_scored_top80percent,openbind_a71ev2a_c2_elabs_activefrags_only_scored_5.2plus,syndirella_placed

>  <smina_score_min>  (535) 
-6.933

$$$$
P545847
     RDKit          3D

 21 22  0  0  0  0  0  0  0  0999 V2000
    8.2423   14.5271   24.9168 C   0  0  0  0  0  0  0  0  0  0  0  0
    8.3589   13.0399   24.7609 C   0  0  0  0  0  0  0  0  0  0  0  0
    7.4694   12.1736   25.4350 C   0  0  0  0  0  0  0  0  0  0  0  0
    6.5626   12.6841   26.3685 N   0  0  0  0  0  0  0  0  0  0  0  0
    5.5492   11.9517   27.3002 C   0  0  0  0  0  0  0  0  0  0  0  0
    5.2673   10.8192   27.3708 O   0  0  0  0  0  0  0  0  0  0  0  0
    4.9154   13.0383   28.1647 C   0  0  0  0  0  0  0  0  0  0  0  0
    4.2399   12.4632   29.4063 C   0  0  0  0  0  0  0  0  0  0  0  0
    5.7009   11.8896   30.8862 I   0  0  0  0  0  0  0  0  0  0  0  0
    7.5266   10.8001   25.2006 C   0  0  0  0  0  0  0  0  0  0  0  0
    8.4559   10.2785   24.3069 C   0  0  0  0  0  0  0  0  0  0  0  0
    9.3511   11.1178   23.6728 C   0  0  0  0  0  0  0  0  0  0  0  0
   10.2479   10.5788   22.8419 F   0  0  0  0  0  0  0  0  0  0  0  0
    9.3567   12.4882   23.9271 C   0  0  0  0  0  0  0  0  0  0  0  0
   10.4372   13.2195   23.4009 N   0  0  0  0  0  0  0  0  0  0  0  0
   11.3683   13.8956   24.1352 C   0  0  0  0  0  0  0  0  0  0  0  0
   11.4562   13.9834   25.3536 O   0  0  0  0  0  0  0  0  0  0  0  0
   12.2950   14.6109   23.1715 C   0  0  0  0  0  0  0  0  0  0  0  0
   11.6574   14.3689   21.9339 N   0  0  0  0  0  0  0  0  0  0  0  0
   10.4575   13.7453   22.1476 C   0  0  0  0  0  0  0  0  0  0  0  0
    9.5371   13.8448   21.3597 O   0  0  0  0  0  0  0  0  0  0  0  0
  1  2  1  0
  2  3  2  0
  3  4  1  0
  4  5  1  0
  5  6  2  0
  5  7  1  0
  7  8  1  0
  8  9  1  0
  3 10  1  0
 10 11  2  0
 11 12  1  0
 12 13  1  0
 12 14  2  0
 14 15  1  0
 15 16  1  0
 16 17  2  0
 16 18  1  0
 18 19  1  0
 19 20  1  0
 20 21  2  0
 14  2  1  0
 20 15  1  0
M  END
>  <alias>  (536) 
None

>  <rmsd(smina/fragmenstein)>  (536) 
0.655

>  <smiles>  (536) 
Cc1c(NC(=O)CCI)ccc(F)c1N1C(=O)CNC1=O

>  <gnina_score>  (536) 
5.485

>  <inspiration_score>  (536) 
None

>  <energy_score>  (536) 
-40.58475

>  <distance_score>  (536) 
1.549702

>  <gnina_score_min>  (536) 
5.511

>  <inchikey>  (536) 
NVILCOFJTVFNCA-UHFFFAOYSA-N

>  <exports>  (536) 
['/opt/xchem-fragalysis-2/maxwin/BulkDock/OUTPUTS/openbind_a71ev2a_c2_elabs_1LOUU54.sdf', '/opt/xchem-fragalysis-2/maxwin/BulkDock/OUTPUTS/openbind_a71ev2a_c2_elabs_1LSYIDY.sdf']

>  <name>  (536) 
P545847

>  <ref_pdb>  (536) 
A0884a

>  <subsites>  (536) 
None

>  <HIPPO Pose ID>  (536) 
545847

>  <ref_mols>  (536) 
A0884a

>  <HIPPO Compound ID>  (536) 
384389

>  <tags>  (536) 
openbind_a71ev2a_c2_elabs,syndirella_product,openbind_a71ev2a_c2_elabs_fragonly_scored_top80percent,BulkDock Fragalysis export,openbind_a71ev2a_c2_elabs_scored,openbind_a71ev2a_c2_elabs_scored_top80percent,openbind_a71ev2a_c2_elabs_activefrags_only_scored_5.2plus,openbind_a71ev2a_c2_elabs_activefrags_only_scored_5.5plus,syndirella_placed

>  <smina_score_min>  (536) 
-6.19

$$$$
P545850
     RDKit          3D

 21 22  0  0  0  0  0  0  0  0999 V2000
   11.4768   14.6336   19.9296 C   0  0  0  0  0  0  0  0  0  0  0  0
   10.6620   15.1024   21.1257 C   0  0  0  0  0  0  0  0  0  0  0  0
    9.8590   16.3552   20.7892 C   0  0  0  0  0  0  0  0  0  0  0  0
   11.5308   15.1886   22.2778 N   0  0  0  0  0  0  0  0  0  0  0  0
   11.2742   14.1892   23.1995 C   0  0  0  0  0  0  0  0  0  0  0  0
   11.7553   14.1610   24.3238 O   0  0  0  0  0  0  0  0  0  0  0  0
   10.3283   13.3422   22.6826 N   0  0  0  0  0  0  0  0  0  0  0  0
    9.5509   12.5266   23.5322 C   0  0  0  0  0  0  0  0  0  0  0  0
    9.5699   11.1446   23.3594 C   0  0  0  0  0  0  0  0  0  0  0  0
    8.7071   10.3443   24.1032 C   0  0  0  0  0  0  0  0  0  0  0  0
    7.7985   10.9209   24.9923 C   0  0  0  0  0  0  0  0  0  0  0  0
    7.7905   12.3024   25.1763 C   0  0  0  0  0  0  0  0  0  0  0  0
    6.8632   12.8690   26.0432 N   0  0  0  0  0  0  0  0  0  0  0  0
    6.6881   14.3473   26.5144 C   0  0  0  0  0  0  0  0  0  0  0  0
    7.3442   15.2919   26.3038 O   0  0  0  0  0  0  0  0  0  0  0  0
    5.4146   14.3630   27.3476 C   0  0  0  0  0  0  0  0  0  0  0  0
    5.0669   15.7797   27.7921 C   0  0  0  0  0  0  0  0  0  0  0  0
    3.2754   15.7573   28.9735 I   0  0  0  0  0  0  0  0  0  0  0  0
    8.6812   13.1018   24.4646 C   0  0  0  0  0  0  0  0  0  0  0  0
    9.7082   14.0328   21.6615 C   0  0  0  0  0  0  0  0  0  0  0  0
    8.5536   13.8814   21.2670 O   0  0  0  0  0  0  0  0  0  0  0  0
  1  2  1  0
  2  3  1  0
  2  4  1  0
  4  5  1  0
  5  6  2  0
  5  7  1  0
  7  8  1  0
  8  9  2  0
  9 10  1  0
 10 11  2  0
 11 12  1  0
 12 13  1  0
 13 14  1  0
 14 15  2  0
 14 16  1  0
 16 17  1  0
 17 18  1  0
 12 19  2  0
  7 20  1  0
 20 21  2  0
 20  2  1  0
 19  8  1  0
M  END
>  <alias>  (537) 
None

>  <rmsd(smina/fragmenstein)>  (537) 
0.973

>  <smiles>  (537) 
CC1(C)NC(=O)N(c2cccc(NC(=O)CCI)c2)C1=O

>  <gnina_score>  (537) 
5.147

>  <inspiration_score>  (537) 
None

>  <energy_score>  (537) 
-6.842703

>  <distance_score>  (537) 
1.489665

>  <gnina_score_min>  (537) 
5.356

>  <inchikey>  (537) 
ICOUTQUMLOVSEW-UHFFFAOYSA-N

>  <exports>  (537) 
['/opt/xchem-fragalysis-2/maxwin/BulkDock/OUTPUTS/openbind_a71ev2a_c2_elabs_1LOUU54.sdf', '/opt/xchem-fragalysis-2/maxwin/BulkDock/OUTPUTS/openbind_a71ev2a_c2_elabs_1LSYIDY.sdf']

>  <name>  (537) 
P545850

>  <ref_pdb>  (537) 
A0884a

>  <subsites>  (537) 
None

>  <HIPPO Pose ID>  (537) 
545850

>  <ref_mols>  (537) 
A0884a

>  <HIPPO Compound ID>  (537) 
384393

>  <tags>  (537) 
openbind_a71ev2a_c2_elabs,syndirella_product,openbind_a71ev2a_c2_elabs_fragonly_scored_top80percent,openbind_a71ev2a_c2_elabs_scored,BulkDock Fragalysis export,openbind_a71ev2a_c2_elabs_scored_top80percent,openbind_a71ev2a_c2_elabs_activefrags_only_scored_5.2plus,syndirella_placed

>  <smina_score_min>  (537) 
-6.751

$$$$
P545851
     RDKit          3D

 21 22  0  0  0  0  0  0  0  0999 V2000
   11.5710   15.0454   26.1860 O   0  0  0  0  0  0  0  0  0  0  0  0
   10.9470   14.3973   25.3466 C   0  0  0  0  0  0  0  0  0  0  0  0
    9.4476   14.5423   25.2029 C   0  0  0  0  0  0  0  0  0  0  0  0
    9.1022   14.4689   23.7148 C   0  0  0  0  0  0  0  0  0  0  0  0
    9.6455   13.2710   23.1623 N   0  0  0  0  0  0  0  0  0  0  0  0
    9.0047   12.0800   23.5954 C   0  0  0  0  0  0  0  0  0  0  0  0
    7.8786   12.1099   24.4428 C   0  0  0  0  0  0  0  0  0  0  0  0
    7.4852   10.9770   25.1112 C   0  0  0  0  0  0  0  0  0  0  0  0
    6.7389   11.0451   26.2862 N   0  0  0  0  0  0  0  0  0  0  0  0
    6.3929   12.2659   27.1983 C   0  0  0  0  0  0  0  0  0  0  0  0
    6.6178   13.4058   27.0564 O   0  0  0  0  0  0  0  0  0  0  0  0
    5.7493   11.7364   28.4794 C   0  0  0  0  0  0  0  0  0  0  0  0
    4.3288   11.2397   28.3398 C   0  0  0  0  0  0  0  0  0  0  0  0
    2.9209   12.8245   28.1724 I   0  0  0  0  0  0  0  0  0  0  0  0
    8.0350    9.7794   24.7110 C   0  0  0  0  0  0  0  0  0  0  0  0
    9.0657    9.7085   23.7825 C   0  0  0  0  0  0  0  0  0  0  0  0
    9.5488   10.8636   23.2453 C   0  0  0  0  0  0  0  0  0  0  0  0
   10.4971   10.7840   22.3225 F   0  0  0  0  0  0  0  0  0  0  0  0
   11.0602   13.3314   23.2009 C   0  0  0  0  0  0  0  0  0  0  0  0
   11.7996   13.4401   22.2320 O   0  0  0  0  0  0  0  0  0  0  0  0
   11.5637   13.5432   24.4709 N   0  0  0  0  0  0  0  0  0  0  0  0
  1  2  2  0
  2  3  1  0
  3  4  1  0
  4  5  1  0
  5  6  1  0
  6  7  2  0
  7  8  1  0
  8  9  1  0
  9 10  1  0
 10 11  2  0
 10 12  1  0
 12 13  1  0
 13 14  1  0
  8 15  2  0
 15 16  1  0
 16 17  2  0
 17 18  1  0
  5 19  1  0
 19 20  2  0
 19 21  1  0
 21  2  1  0
 17  6  1  0
M  END
>  <alias>  (538) 
None

>  <rmsd(smina/fragmenstein)>  (538) 
1.005

>  <smiles>  (538) 
O=C1CCN(c2cc(NC(=O)CCI)ccc2F)C(=O)N1

>  <gnina_score>  (538) 
5.345

>  <inspiration_score>  (538) 
None

>  <energy_score>  (538) 
-9.928276

>  <distance_score>  (538) 
1.054729

>  <gnina_score_min>  (538) 
5.27

>  <inchikey>  (538) 
HDCWGNTXUQBOOA-UHFFFAOYSA-N

>  <exports>  (538) 
['/opt/xchem-fragalysis-2/maxwin/BulkDock/OUTPUTS/openbind_a71ev2a_c2_elabs_1LOUU54.sdf', '/opt/xchem-fragalysis-2/maxwin/BulkDock/OUTPUTS/openbind_a71ev2a_c2_elabs_1LSYIDY.sdf']

>  <name>  (538) 
P545851

>  <ref_pdb>  (538) 
A0884a

>  <subsites>  (538) 
None

>  <HIPPO Pose ID>  (538) 
545851

>  <ref_mols>  (538) 
A0884a

>  <HIPPO Compound ID>  (538) 
384394

>  <tags>  (538) 
openbind_a71ev2a_c2_elabs,syndirella_product,openbind_a71ev2a_c2_elabs_fragonly_scored_top80percent,openbind_a71ev2a_c2_elabs_scored,BulkDock Fragalysis export,openbind_a71ev2a_c2_elabs_scored_top80percent,openbind_a71ev2a_c2_elabs_activefrags_only_scored_5.2plus,syndirella_placed

>  <smina_score_min>  (538) 
-4.523

$$$$
P545852
     RDKit          3D

 21 22  0  0  0  0  0  0  0  0999 V2000
    7.6567   14.6990   24.5395 C   0  0  0  0  0  0  0  0  0  0  0  0
    8.0726   13.2586   24.3961 C   0  0  0  0  0  0  0  0  0  0  0  0
    7.4147   12.2445   25.1320 C   0  0  0  0  0  0  0  0  0  0  0  0
    6.3885   12.5819   26.0228 N   0  0  0  0  0  0  0  0  0  0  0  0
    5.6129   11.7052   27.0508 C   0  0  0  0  0  0  0  0  0  0  0  0
    5.7666   10.5893   27.3623 O   0  0  0  0  0  0  0  0  0  0  0  0
    4.5297   12.6097   27.6244 C   0  0  0  0  0  0  0  0  0  0  0  0
    3.6899   11.8685   28.6588 C   0  0  0  0  0  0  0  0  0  0  0  0
    2.0010   13.0473   29.2369 I   0  0  0  0  0  0  0  0  0  0  0  0
    7.8026   10.9089   24.9933 C   0  0  0  0  0  0  0  0  0  0  0  0
    8.8559   10.5611   24.1531 C   0  0  0  0  0  0  0  0  0  0  0  0
    9.5678   11.5569   23.4959 C   0  0  0  0  0  0  0  0  0  0  0  0
    9.2035   12.9059   23.6269 C   0  0  0  0  0  0  0  0  0  0  0  0
   10.0243   13.8995   22.9952 N   0  0  0  0  0  0  0  0  0  0  0  0
    9.5916   14.3182   21.6611 C   0  0  0  0  0  0  0  0  0  0  0  0
   10.5308   15.2557   20.9513 C   0  0  0  0  0  0  0  0  0  0  0  0
   11.9168   14.7331   21.1442 C   0  0  0  0  0  0  0  0  0  0  0  0
   12.6984   14.5225   20.2220 O   0  0  0  0  0  0  0  0  0  0  0  0
   12.2336   14.5119   22.4537 N   0  0  0  0  0  0  0  0  0  0  0  0
   11.3734   13.9349   23.3470 C   0  0  0  0  0  0  0  0  0  0  0  0
   11.8181   13.4703   24.3975 O   0  0  0  0  0  0  0  0  0  0  0  0
  1  2  1  0
  2  3  2  0
  3  4  1  0
  4  5  1  0
  5  6  2  0
  5  7  1  0
  7  8  1  0
  8  9  1  0
  3 10  1  0
 10 11  2  0
 11 12  1  0
 12 13  2  0
 13 14  1  0
 14 15  1  0
 15 16  1  0
 16 17  1  0
 17 18  2  0
 17 19  1  0
 19 20  1  0
 20 21  2  0
 13  2  1  0
 20 14  1  0
M  END
>  <alias>  (539) 
None

>  <rmsd(smina/fragmenstein)>  (539) 
0.44

>  <smiles>  (539) 
Cc1c(NC(=O)CCI)cccc1N1CCC(=O)NC1=O

>  <gnina_score>  (539) 
5.252

>  <inspiration_score>  (539) 
None

>  <energy_score>  (539) 
-20.330428

>  <distance_score>  (539) 
1.187414

>  <gnina_score_min>  (539) 
5.206

>  <inchikey>  (539) 
ZNSDYMLDSBOJSE-UHFFFAOYSA-N

>  <exports>  (539) 
['/opt/xchem-fragalysis-2/maxwin/BulkDock/OUTPUTS/openbind_a71ev2a_c2_elabs_1LOUU54.sdf', '/opt/xchem-fragalysis-2/maxwin/BulkDock/OUTPUTS/openbind_a71ev2a_c2_elabs_1LSYIDY.sdf']

>  <name>  (539) 
P545852

>  <ref_pdb>  (539) 
A0884a

>  <subsites>  (539) 
None

>  <HIPPO Pose ID>  (539) 
545852

>  <ref_mols>  (539) 
A0884a

>  <HIPPO Compound ID>  (539) 
384395

>  <tags>  (539) 
openbind_a71ev2a_c2_elabs,syndirella_product,openbind_a71ev2a_c2_elabs_fragonly_scored_top80percent,openbind_a71ev2a_c2_elabs_scored,BulkDock Fragalysis export,openbind_a71ev2a_c2_elabs_scored_top80percent,openbind_a71ev2a_c2_elabs_activefrags_only_scored_5.2plus,syndirella_placed

>  <smina_score_min>  (539) 
-6.9

$$$$
P545854
     RDKit          3D

 21 22  0  0  0  0  0  0  0  0999 V2000
    9.1109    9.5534   23.8934 C   0  0  0  0  0  0  0  0  0  0  0  0
    8.8308   10.9925   24.1147 C   0  0  0  0  0  0  0  0  0  0  0  0
    7.7445   11.4394   24.8769 C   0  0  0  0  0  0  0  0  0  0  0  0
    7.4462   12.8010   24.9278 C   0  0  0  0  0  0  0  0  0  0  0  0
    6.3615   13.2932   25.6469 N   0  0  0  0  0  0  0  0  0  0  0  0
    5.3591   12.5636   26.5923 C   0  0  0  0  0  0  0  0  0  0  0  0
    5.3414   11.4561   26.9685 O   0  0  0  0  0  0  0  0  0  0  0  0
    4.3077   13.6042   26.9591 C   0  0  0  0  0  0  0  0  0  0  0  0
    3.3023   13.0327   27.9525 C   0  0  0  0  0  0  0  0  0  0  0  0
    1.7315   14.4309   28.3348 I   0  0  0  0  0  0  0  0  0  0  0  0
    8.2366   13.7110   24.2261 C   0  0  0  0  0  0  0  0  0  0  0  0
    9.3611   13.2640   23.5372 C   0  0  0  0  0  0  0  0  0  0  0  0
   10.1865   14.1768   22.8407 N   0  0  0  0  0  0  0  0  0  0  0  0
    9.6597   14.5938   21.5399 C   0  0  0  0  0  0  0  0  0  0  0  0
   10.6259   15.3802   20.7004 C   0  0  0  0  0  0  0  0  0  0  0  0
   11.9889   14.7867   20.8745 C   0  0  0  0  0  0  0  0  0  0  0  0
   12.7013   14.4128   19.9482 O   0  0  0  0  0  0  0  0  0  0  0  0
   12.3723   14.7070   22.1814 N   0  0  0  0  0  0  0  0  0  0  0  0
   11.5482   14.1597   23.1188 C   0  0  0  0  0  0  0  0  0  0  0  0
   12.0285   13.6646   24.1403 O   0  0  0  0  0  0  0  0  0  0  0  0
    9.6505   11.9081   23.4712 C   0  0  0  0  0  0  0  0  0  0  0  0
  1  2  1  0
  2  3  2  0
  3  4  1  0
  4  5  1  0
  5  6  1  0
  6  7  2  0
  6  8  1  0
  8  9  1  0
  9 10  1  0
  4 11  2  0
 11 12  1  0
 12 13  1  0
 13 14  1  0
 14 15  1  0
 15 16  1  0
 16 17  2  0
 16 18  1  0
 18 19  1  0
 19 20  2  0
 12 21  2  0
 21  2  1  0
 19 13  1  0
M  END
>  <alias>  (540) 
None

>  <rmsd(smina/fragmenstein)>  (540) 
0.898

>  <smiles>  (540) 
Cc1cc(NC(=O)CCI)cc(N2CCC(=O)NC2=O)c1

>  <gnina_score>  (540) 
5.414

>  <inspiration_score>  (540) 
None

>  <energy_score>  (540) 
-16.144183

>  <distance_score>  (540) 
1.341802

>  <gnina_score_min>  (540) 
5.488

>  <inchikey>  (540) 
PLFRKBQKIIIUAC-UHFFFAOYSA-N

>  <exports>  (540) 
['/opt/xchem-fragalysis-2/maxwin/BulkDock/OUTPUTS/openbind_a71ev2a_c2_elabs_1LOUU54.sdf', '/opt/xchem-fragalysis-2/maxwin/BulkDock/OUTPUTS/openbind_a71ev2a_c2_elabs_1LSYIDY.sdf']

>  <name>  (540) 
P545854

>  <ref_pdb>  (540) 
A0884a

>  <subsites>  (540) 
None

>  <HIPPO Pose ID>  (540) 
545854

>  <ref_mols>  (540) 
A0884a

>  <HIPPO Compound ID>  (540) 
384397

>  <tags>  (540) 
openbind_a71ev2a_c2_elabs,syndirella_product,openbind_a71ev2a_c2_elabs_fragonly_scored_top80percent,openbind_a71ev2a_c2_elabs_scored,BulkDock Fragalysis export,openbind_a71ev2a_c2_elabs_scored_top80percent,openbind_a71ev2a_c2_elabs_activefrags_only_scored_5.2plus,syndirella_placed

>  <smina_score_min>  (540) 
-6.521

$$$$
P545856
     RDKit          3D

 21 22  0  0  0  0  0  0  0  0999 V2000
    9.8723   10.1331   23.1709 C   0  0  0  0  0  0  0  0  0  0  0  0
    9.0191   11.1158   23.9166 C   0  0  0  0  0  0  0  0  0  0  0  0
    8.0480   10.5611   24.7651 C   0  0  0  0  0  0  0  0  0  0  0  0
    7.0849   11.3533   25.3832 C   0  0  0  0  0  0  0  0  0  0  0  0
    7.0543   12.7157   25.1277 C   0  0  0  0  0  0  0  0  0  0  0  0
    6.0478   13.5361   25.6263 N   0  0  0  0  0  0  0  0  0  0  0  0
    4.9427   13.2506   26.6885 C   0  0  0  0  0  0  0  0  0  0  0  0
    4.6653   12.2598   27.2466 O   0  0  0  0  0  0  0  0  0  0  0  0
    4.1839   14.5574   26.9045 C   0  0  0  0  0  0  0  0  0  0  0  0
    4.9915   15.6210   27.6399 C   0  0  0  0  0  0  0  0  0  0  0  0
    5.3317   15.1094   29.6914 I   0  0  0  0  0  0  0  0  0  0  0  0
    8.0395   13.2875   24.3225 C   0  0  0  0  0  0  0  0  0  0  0  0
    9.0601   12.5132   23.7464 C   0  0  0  0  0  0  0  0  0  0  0  0
   10.0979   13.2068   23.0627 N   0  0  0  0  0  0  0  0  0  0  0  0
   11.4685   12.8152   23.2145 C   0  0  0  0  0  0  0  0  0  0  0  0
   12.3292   14.0252   23.4449 C   0  0  0  0  0  0  0  0  0  0  0  0
   12.1972   14.8657   22.2167 C   0  0  0  0  0  0  0  0  0  0  0  0
   13.1039   15.5122   21.7178 O   0  0  0  0  0  0  0  0  0  0  0  0
   10.9361   14.9206   21.7155 N   0  0  0  0  0  0  0  0  0  0  0  0
    9.8534   14.2367   22.1741 C   0  0  0  0  0  0  0  0  0  0  0  0
    8.7481   14.5805   21.7832 O   0  0  0  0  0  0  0  0  0  0  0  0
  1  2  1  0
  2  3  2  0
  3  4  1  0
  4  5  2  0
  5  6  1  0
  6  7  1  0
  7  8  2  0
  7  9  1  0
  9 10  1  0
 10 11  1  0
  5 12  1  0
 12 13  2  0
 13 14  1  0
 14 15  1  0
 15 16  1  0
 16 17  1  0
 17 18  2  0
 17 19  1  0
 19 20  1  0
 20 21  2  0
 13  2  1  0
 20 14  1  0
M  END
>  <alias>  (541) 
None

>  <rmsd(smina/fragmenstein)>  (541) 
0.618

>  <smiles>  (541) 
Cc1ccc(NC(=O)CCI)cc1N1CCC(=O)NC1=O

>  <gnina_score>  (541) 
5.59

>  <inspiration_score>  (541) 
None

>  <energy_score>  (541) 
-52.313632

>  <distance_score>  (541) 
1.969207

>  <gnina_score_min>  (541) 
5.624

>  <inchikey>  (541) 
HIGAFXANUISKCG-UHFFFAOYSA-N

>  <exports>  (541) 
['/opt/xchem-fragalysis-2/maxwin/BulkDock/OUTPUTS/openbind_a71ev2a_c2_elabs_1LOUU54.sdf', '/opt/xchem-fragalysis-2/maxwin/BulkDock/OUTPUTS/openbind_a71ev2a_c2_elabs_1LSYIDY.sdf']

>  <name>  (541) 
P545856

>  <ref_pdb>  (541) 
A0884a

>  <subsites>  (541) 
None

>  <HIPPO Pose ID>  (541) 
545856

>  <ref_mols>  (541) 
A0884a

>  <HIPPO Compound ID>  (541) 
384400

>  <tags>  (541) 
openbind_a71ev2a_c2_elabs,syndirella_product,openbind_a71ev2a_c2_elabs_fragonly_scored_top80percent,BulkDock Fragalysis export,openbind_a71ev2a_c2_elabs_scored,openbind_a71ev2a_c2_elabs_scored_top80percent,openbind_a71ev2a_c2_elabs_activefrags_only_scored_5.2plus,openbind_a71ev2a_c2_elabs_activefrags_only_scored_5.5plus,syndirella_placed

>  <smina_score_min>  (541) 
-6.794

$$$$
P545857
     RDKit          3D

 21 22  0  0  0  0  0  0  0  0999 V2000
    5.1942   10.0852   28.1123 C   0  0  0  0  0  0  0  0  0  0  0  0
    5.6347   10.6889   26.7906 C   0  0  0  0  0  0  0  0  0  0  0  0
    6.7836   11.4798   27.0303 O   0  0  0  0  0  0  0  0  0  0  0  0
    7.3526   12.0064   25.9008 C   0  0  0  0  0  0  0  0  0  0  0  0
    7.9688   11.1576   24.9590 C   0  0  0  0  0  0  0  0  0  0  0  0
    8.9034   11.6678   24.0509 C   0  0  0  0  0  0  0  0  0  0  0  0
    9.2680   13.0112   24.1417 C   0  0  0  0  0  0  0  0  0  0  0  0
   10.3069   13.5774   23.3932 N   0  0  0  0  0  0  0  0  0  0  0  0
   10.5736   13.2415   22.0391 C   0  0  0  0  0  0  0  0  0  0  0  0
   11.7759   14.0914   21.6738 C   0  0  0  0  0  0  0  0  0  0  0  0
   12.3984   14.2964   22.9413 N   0  0  0  0  0  0  0  0  0  0  0  0
   11.4837   14.0886   23.9683 C   0  0  0  0  0  0  0  0  0  0  0  0
   11.7035   14.2996   25.1482 O   0  0  0  0  0  0  0  0  0  0  0  0
    8.5946   13.8523   25.0255 C   0  0  0  0  0  0  0  0  0  0  0  0
    7.6078   13.3799   25.8885 C   0  0  0  0  0  0  0  0  0  0  0  0
    7.0264   14.3573   26.7089 N   0  0  0  0  0  0  0  0  0  0  0  0
    5.8296   14.2630   27.7030 C   0  0  0  0  0  0  0  0  0  0  0  0
    5.1003   13.3764   27.9296 O   0  0  0  0  0  0  0  0  0  0  0  0
    5.7266   15.6129   28.4028 C   0  0  0  0  0  0  0  0  0  0  0  0
    6.7000   15.7133   29.5708 C   0  0  0  0  0  0  0  0  0  0  0  0
    8.6034   16.5292   28.9840 I   0  0  0  0  0  0  0  0  0  0  0  0
  1  2  1  0
  2  3  1  0
  3  4  1  0
  4  5  2  0
  5  6  1  0
  6  7  2  0
  7  8  1  0
  8  9  1  0
  9 10  1  0
 10 11  1  0
 11 12  1  0
 12 13  2  0
  7 14  1  0
 14 15  2  0
 15 16  1  0
 16 17  1  0
 17 18  2  0
 17 19  1  0
 19 20  1  0
 20 21  1  0
 15  4  1  0
 12  8  1  0
M  END
>  <alias>  (542) 
None

>  <rmsd(smina/fragmenstein)>  (542) 
2.84

>  <smiles>  (542) 
CCOc1ccc(N2CCNC2=O)cc1NC(=O)CCI

>  <gnina_score>  (542) 
4.864

>  <inspiration_score>  (542) 
None

>  <energy_score>  (542) 
-26.320922

>  <distance_score>  (542) 
1.872582

>  <gnina_score_min>  (542) 
5.21

>  <inchikey>  (542) 
XOXINTVJUXENNT-UHFFFAOYSA-N

>  <exports>  (542) 
['/opt/xchem-fragalysis-2/maxwin/BulkDock/OUTPUTS/openbind_a71ev2a_c2_elabs_1LOUU54.sdf', '/opt/xchem-fragalysis-2/maxwin/BulkDock/OUTPUTS/openbind_a71ev2a_c2_elabs_1LSYIDY.sdf']

>  <name>  (542) 
P545857

>  <ref_pdb>  (542) 
A0884a

>  <subsites>  (542) 
None

>  <HIPPO Pose ID>  (542) 
545857

>  <ref_mols>  (542) 
A0884a

>  <HIPPO Compound ID>  (542) 
384401

>  <tags>  (542) 
openbind_a71ev2a_c2_elabs,syndirella_product,openbind_a71ev2a_c2_elabs_fragonly_scored_top80percent,openbind_a71ev2a_c2_elabs_scored,BulkDock Fragalysis export,openbind_a71ev2a_c2_elabs_scored_top80percent,openbind_a71ev2a_c2_elabs_activefrags_only_scored_5.2plus,syndirella_placed

>  <smina_score_min>  (542) 
-6.071

$$$$
P545858
     RDKit          3D

 21 22  0  0  0  0  0  0  0  0999 V2000
   13.0221   15.4982   21.4998 O   0  0  0  0  0  0  0  0  0  0  0  0
   12.2118   14.8480   22.1435 C   0  0  0  0  0  0  0  0  0  0  0  0
   12.5710   13.6723   22.9800 C   0  0  0  0  0  0  0  0  0  0  0  0
   11.4347   13.2962   23.8898 C   0  0  0  0  0  0  0  0  0  0  0  0
   10.2049   13.1535   23.1407 N   0  0  0  0  0  0  0  0  0  0  0  0
    9.1176   12.5152   23.8163 C   0  0  0  0  0  0  0  0  0  0  0  0
    8.0999   13.3143   24.3650 C   0  0  0  0  0  0  0  0  0  0  0  0
    7.0776   12.7512   25.1321 C   0  0  0  0  0  0  0  0  0  0  0  0
    6.0507   13.5707   25.5883 N   0  0  0  0  0  0  0  0  0  0  0  0
    4.8441   13.2553   26.5261 C   0  0  0  0  0  0  0  0  0  0  0  0
    4.5771   12.2804   27.1161 O   0  0  0  0  0  0  0  0  0  0  0  0
    3.9840   14.5133   26.5305 C   0  0  0  0  0  0  0  0  0  0  0  0
    2.6926   14.2752   27.3056 C   0  0  0  0  0  0  0  0  0  0  0  0
    1.4347   15.9984   27.2411 I   0  0  0  0  0  0  0  0  0  0  0  0
    7.0724   11.3819   25.3747 C   0  0  0  0  0  0  0  0  0  0  0  0
    8.0346   10.5716   24.7797 C   0  0  0  0  0  0  0  0  0  0  0  0
    9.0400   11.1272   23.9903 C   0  0  0  0  0  0  0  0  0  0  0  0
   10.0540   10.0169   23.1753 Cl  0  0  0  0  0  0  0  0  0  0  0  0
    9.9348   14.1578   22.2283 C   0  0  0  0  0  0  0  0  0  0  0  0
    8.8986   14.2448   21.5854 O   0  0  0  0  0  0  0  0  0  0  0  0
   10.8869   15.1098   22.0635 N   0  0  0  0  0  0  0  0  0  0  0  0
  1  2  2  0
  2  3  1  0
  3  4  1  0
  4  5  1  0
  5  6  1  0
  6  7  2  0
  7  8  1  0
  8  9  1  0
  9 10  1  0
 10 11  2  0
 10 12  1  0
 12 13  1  0
 13 14  1  0
  8 15  2  0
 15 16  1  0
 16 17  2  0
 17 18  1  0
  5 19  1  0
 19 20  2  0
 19 21  1  0
 21  2  1  0
 17  6  1  0
M  END
>  <alias>  (543) 
None

>  <rmsd(smina/fragmenstein)>  (543) 
0.965

>  <smiles>  (543) 
O=C1CCN(c2cc(NC(=O)CCI)ccc2Cl)C(=O)N1

>  <gnina_score>  (543) 
5.702

>  <inspiration_score>  (543) 
None

>  <energy_score>  (543) 
-24.550805

>  <distance_score>  (543) 
1.940641

>  <gnina_score_min>  (543) 
5.537

>  <inchikey>  (543) 
CYULDKDKCQTKFC-UHFFFAOYSA-N

>  <exports>  (543) 
['/opt/xchem-fragalysis-2/maxwin/BulkDock/OUTPUTS/openbind_a71ev2a_c2_elabs_1LOUU54.sdf', '/opt/xchem-fragalysis-2/maxwin/BulkDock/OUTPUTS/openbind_a71ev2a_c2_elabs_1LSYIDY.sdf']

>  <name>  (543) 
P545858

>  <ref_pdb>  (543) 
A0884a

>  <subsites>  (543) 
None

>  <HIPPO Pose ID>  (543) 
545858

>  <ref_mols>  (543) 
A0884a

>  <HIPPO Compound ID>  (543) 
384402

>  <tags>  (543) 
openbind_a71ev2a_c2_elabs,syndirella_product,openbind_a71ev2a_c2_elabs_fragonly_scored_top80percent,BulkDock Fragalysis export,openbind_a71ev2a_c2_elabs_scored,openbind_a71ev2a_c2_elabs_scored_top80percent,openbind_a71ev2a_c2_elabs_activefrags_only_scored_5.2plus,openbind_a71ev2a_c2_elabs_activefrags_only_scored_5.5plus,syndirella_placed

>  <smina_score_min>  (543) 
-6.851

$$$$
P545859
     RDKit          3D

 21 22  0  0  0  0  0  0  0  0999 V2000
   12.6773   14.5098   19.9787 O   0  0  0  0  0  0  0  0  0  0  0  0
   12.0760   14.8548   20.9839 C   0  0  0  0  0  0  0  0  0  0  0  0
   12.6435   15.0086   22.3486 C   0  0  0  0  0  0  0  0  0  0  0  0
   11.9656   13.9665   23.1889 C   0  0  0  0  0  0  0  0  0  0  0  0
   10.5056   14.0855   23.0936 N   0  0  0  0  0  0  0  0  0  0  0  0
    9.7560   13.0770   23.7414 C   0  0  0  0  0  0  0  0  0  0  0  0
    9.9848   11.7733   23.3631 C   0  0  0  0  0  0  0  0  0  0  0  0
    9.2294   10.7540   23.8910 C   0  0  0  0  0  0  0  0  0  0  0  0
    9.7884    9.0782   23.3202 Br  0  0  0  0  0  0  0  0  0  0  0  0
    8.1929   11.0097   24.7808 C   0  0  0  0  0  0  0  0  0  0  0  0
    7.9204   12.3378   25.1226 C   0  0  0  0  0  0  0  0  0  0  0  0
    6.8988   12.6866   26.0004 N   0  0  0  0  0  0  0  0  0  0  0  0
    5.9248   11.7955   26.8200 C   0  0  0  0  0  0  0  0  0  0  0  0
    5.7814   10.6357   26.8240 O   0  0  0  0  0  0  0  0  0  0  0  0
    5.1132   12.7106   27.7329 C   0  0  0  0  0  0  0  0  0  0  0  0
    4.2740   13.7412   26.9856 C   0  0  0  0  0  0  0  0  0  0  0  0
    5.2468   15.6585   26.9609 I   0  0  0  0  0  0  0  0  0  0  0  0
    8.6954   13.3761   24.5897 C   0  0  0  0  0  0  0  0  0  0  0  0
    9.9591   14.4694   21.8772 C   0  0  0  0  0  0  0  0  0  0  0  0
    8.8127   14.2030   21.5337 O   0  0  0  0  0  0  0  0  0  0  0  0
   10.7454   15.1078   20.9857 N   0  0  0  0  0  0  0  0  0  0  0  0
  1  2  2  0
  2  3  1  0
  3  4  1  0
  4  5  1  0
  5  6  1  0
  6  7  2  0
  7  8  1  0
  8  9  1  0
  8 10  2  0
 10 11  1  0
 11 12  1  0
 12 13  1  0
 13 14  2  0
 13 15  1  0
 15 16  1  0
 16 17  1  0
 11 18  2  0
  5 19  1  0
 19 20  2  0
 19 21  1  0
 21  2  1  0
 18  6  1  0
M  END
>  <alias>  (544) 
None

>  <rmsd(smina/fragmenstein)>  (544) 
0.244

>  <smiles>  (544) 
O=C1CCN(c2cc(Br)cc(NC(=O)CCI)c2)C(=O)N1

>  <gnina_score>  (544) 
5.813

>  <inspiration_score>  (544) 
None

>  <energy_score>  (544) 
-2.718605

>  <distance_score>  (544) 
1.88702

>  <gnina_score_min>  (544) 
5.825

>  <inchikey>  (544) 
RUPXFEGZXIDXDV-UHFFFAOYSA-N

>  <exports>  (544) 
['/opt/xchem-fragalysis-2/maxwin/BulkDock/OUTPUTS/openbind_a71ev2a_c2_elabs_1LOUU54.sdf', '/opt/xchem-fragalysis-2/maxwin/BulkDock/OUTPUTS/openbind_a71ev2a_c2_elabs_1LSYIDY.sdf']

>  <name>  (544) 
P545859

>  <ref_pdb>  (544) 
A0884a

>  <subsites>  (544) 
None

>  <HIPPO Pose ID>  (544) 
545859

>  <ref_mols>  (544) 
A0884a

>  <HIPPO Compound ID>  (544) 
384403

>  <tags>  (544) 
openbind_a71ev2a_c2_elabs,syndirella_product,openbind_a71ev2a_c2_elabs_fragonly_scored_top80percent,BulkDock Fragalysis export,openbind_a71ev2a_c2_elabs_scored,openbind_a71ev2a_c2_elabs_scored_top80percent,openbind_a71ev2a_c2_elabs_activefrags_only_scored_5.2plus,openbind_a71ev2a_c2_elabs_activefrags_only_scored_5.5plus,syndirella_placed

>  <smina_score_min>  (544) 
-6.435

$$$$
P545860
     RDKit          3D

 21 22  0  0  0  0  0  0  0  0999 V2000
    3.3336   12.5379   29.3651 C   0  0  0  0  0  0  0  0  0  0  0  0
    3.0755   12.7956   27.9908 O   0  0  0  0  0  0  0  0  0  0  0  0
    4.2336   13.2292   27.2894 C   0  0  0  0  0  0  0  0  0  0  0  0
    5.2386   12.1167   26.9008 C   0  0  0  0  0  0  0  0  0  0  0  0
    5.1507   11.0054   27.2607 O   0  0  0  0  0  0  0  0  0  0  0  0
    6.2834   12.7955   25.9557 N   0  0  0  0  0  0  0  0  0  0  0  0
    7.3333   12.2413   25.2169 C   0  0  0  0  0  0  0  0  0  0  0  0
    7.4807   10.8537   25.1765 C   0  0  0  0  0  0  0  0  0  0  0  0
    8.4815   10.2766   24.4051 C   0  0  0  0  0  0  0  0  0  0  0  0
    9.3874   11.0808   23.7428 C   0  0  0  0  0  0  0  0  0  0  0  0
   10.3683   10.4928   23.0539 F   0  0  0  0  0  0  0  0  0  0  0  0
    9.3165   12.4704   23.8254 C   0  0  0  0  0  0  0  0  0  0  0  0
   10.4142   13.1828   23.3057 N   0  0  0  0  0  0  0  0  0  0  0  0
   11.3354   13.8284   24.0809 C   0  0  0  0  0  0  0  0  0  0  0  0
   11.3987   13.8665   25.3033 O   0  0  0  0  0  0  0  0  0  0  0  0
   12.2686   14.5955   23.1675 C   0  0  0  0  0  0  0  0  0  0  0  0
   11.6319   14.4288   21.9163 N   0  0  0  0  0  0  0  0  0  0  0  0
   10.4338   13.7870   22.0884 C   0  0  0  0  0  0  0  0  0  0  0  0
    9.5200   13.9173   21.2970 O   0  0  0  0  0  0  0  0  0  0  0  0
    8.2296   13.0685   24.5022 C   0  0  0  0  0  0  0  0  0  0  0  0
    8.0560   14.5584   24.4898 C   0  0  0  0  0  0  0  0  0  0  0  0
  1  2  1  0
  2  3  1  0
  3  4  1  0
  4  5  2  0
  4  6  1  0
  6  7  1  0
  7  8  2  0
  8  9  1  0
  9 10  2  0
 10 11  1  0
 10 12  1  0
 12 13  1  0
 13 14  1  0
 14 15  2  0
 14 16  1  0
 16 17  1  0
 17 18  1  0
 18 19  2  0
 12 20  2  0
 20 21  1  0
 20  7  1  0
 18 13  1  0
M  END
>  <alias>  (545) 
None

>  <rmsd(smina/fragmenstein)>  (545) 
0.526

>  <smiles>  (545) 
COCC(=O)Nc1ccc(F)c(N2C(=O)CNC2=O)c1C

>  <gnina_score>  (545) 
5.348

>  <inspiration_score>  (545) 
None

>  <energy_score>  (545) 
-32.706294

>  <distance_score>  (545) 
1.588419

>  <gnina_score_min>  (545) 
5.301

>  <inchikey>  (545) 
ICSBMRKMGRXDKM-UHFFFAOYSA-N

>  <exports>  (545) 
['/opt/xchem-fragalysis-2/maxwin/BulkDock/OUTPUTS/openbind_a71ev2a_c2_elabs_1LOUU54.sdf', '/opt/xchem-fragalysis-2/maxwin/BulkDock/OUTPUTS/openbind_a71ev2a_c2_elabs_1LSYIDY.sdf']

>  <name>  (545) 
P545860

>  <ref_pdb>  (545) 
A0884a

>  <subsites>  (545) 
None

>  <HIPPO Pose ID>  (545) 
545860

>  <ref_mols>  (545) 
A0884a

>  <HIPPO Compound ID>  (545) 
384406

>  <tags>  (545) 
openbind_a71ev2a_c2_elabs,syndirella_product,openbind_a71ev2a_c2_elabs_fragonly_scored_top80percent,openbind_a71ev2a_c2_elabs_scored,BulkDock Fragalysis export,openbind_a71ev2a_c2_elabs_scored_top80percent,openbind_a71ev2a_c2_elabs_activefrags_only_scored_5.2plus,syndirella_placed

>  <smina_score_min>  (545) 
-6.081

$$$$
P545864
     RDKit          3D

 21 22  0  0  0  0  0  0  0  0999 V2000
    3.6400   14.6655   25.4189 C   0  0  0  0  0  0  0  0  0  0  0  0
    4.2234   14.1306   26.7249 C   0  0  0  0  0  0  0  0  0  0  0  0
    3.0980   13.8265   27.7177 C   0  0  0  0  0  0  0  0  0  0  0  0
    5.3551   15.5243   27.5421 Br  0  0  0  0  0  0  0  0  0  0  0  0
    5.1270   12.8841   26.5173 C   0  0  0  0  0  0  0  0  0  0  0  0
    4.8738   11.8446   26.9975 O   0  0  0  0  0  0  0  0  0  0  0  0
    6.2998   13.3043   25.5740 N   0  0  0  0  0  0  0  0  0  0  0  0
    7.2984   12.5413   24.9817 C   0  0  0  0  0  0  0  0  0  0  0  0
    7.3603   11.1561   25.1235 C   0  0  0  0  0  0  0  0  0  0  0  0
    8.3745   10.4332   24.4921 C   0  0  0  0  0  0  0  0  0  0  0  0
    9.3614   11.0946   23.7696 C   0  0  0  0  0  0  0  0  0  0  0  0
    9.3149   12.4859   23.6510 C   0  0  0  0  0  0  0  0  0  0  0  0
   10.4122   13.1588   23.0596 N   0  0  0  0  0  0  0  0  0  0  0  0
   11.5039   13.3531   23.8776 C   0  0  0  0  0  0  0  0  0  0  0  0
   11.5040   13.2842   25.1030 O   0  0  0  0  0  0  0  0  0  0  0  0
   12.7278   13.7336   23.1355 C   0  0  0  0  0  0  0  0  0  0  0  0
   12.4304   15.0203   22.4427 C   0  0  0  0  0  0  0  0  0  0  0  0
   11.2263   14.8797   21.6892 N   0  0  0  0  0  0  0  0  0  0  0  0
   10.1958   14.0727   22.0538 C   0  0  0  0  0  0  0  0  0  0  0  0
    9.1291   14.2360   21.4739 O   0  0  0  0  0  0  0  0  0  0  0  0
    8.2648   13.2049   24.2284 C   0  0  0  0  0  0  0  0  0  0  0  0
  1  2  1  0
  2  3  1  0
  2  4  1  0
  2  5  1  0
  5  6  2  0
  5  7  1  0
  7  8  1  0
  8  9  2  0
  9 10  1  0
 10 11  2  0
 11 12  1  0
 12 13  1  0
 13 14  1  0
 14 15  2  0
 14 16  1  0
 16 17  1  0
 17 18  1  0
 18 19  1  0
 19 20  2  0
 12 21  2  0
 21  8  1  0
 19 13  1  0
M  END
>  <alias>  (546) 
None

>  <rmsd(smina/fragmenstein)>  (546) 
0.584

>  <smiles>  (546) 
CC(C)(Br)C(=O)Nc1cccc(N2C(=O)CCNC2=O)c1

>  <gnina_score>  (546) 
5.303

>  <inspiration_score>  (546) 
None

>  <energy_score>  (546) 
-28.426541

>  <distance_score>  (546) 
1.764576

>  <gnina_score_min>  (546) 
5.346

>  <inchikey>  (546) 
DAKDNCFFVXJMHF-UHFFFAOYSA-N

>  <exports>  (546) 
['/opt/xchem-fragalysis-2/maxwin/BulkDock/OUTPUTS/openbind_a71ev2a_c2_elabs_1LOUU54.sdf', '/opt/xchem-fragalysis-2/maxwin/BulkDock/OUTPUTS/openbind_a71ev2a_c2_elabs_1LSYIDY.sdf']

>  <name>  (546) 
P545864

>  <ref_pdb>  (546) 
A0884a

>  <subsites>  (546) 
None

>  <HIPPO Pose ID>  (546) 
545864

>  <ref_mols>  (546) 
A0884a

>  <HIPPO Compound ID>  (546) 
384410

>  <tags>  (546) 
openbind_a71ev2a_c2_elabs,syndirella_product,openbind_a71ev2a_c2_elabs_fragonly_scored_top80percent,openbind_a71ev2a_c2_elabs_scored,BulkDock Fragalysis export,openbind_a71ev2a_c2_elabs_scored_top80percent,openbind_a71ev2a_c2_elabs_activefrags_only_scored_5.2plus,syndirella_placed

>  <smina_score_min>  (546) 
-6.513

$$$$
P545866
     RDKit          3D

 21 22  0  0  0  0  0  0  0  0999 V2000
    4.9976   14.0843   29.2584 C   0  0  0  0  0  0  0  0  0  0  0  0
    5.3662   13.1592   28.3626 C   0  0  0  0  0  0  0  0  0  0  0  0
    4.4775   11.6841   28.2372 Cl  0  0  0  0  0  0  0  0  0  0  0  0
    6.5797   13.3988   27.4874 C   0  0  0  0  0  0  0  0  0  0  0  0
    7.3167   14.2816   27.7015 O   0  0  0  0  0  0  0  0  0  0  0  0
    6.6029   12.3149   26.3731 N   0  0  0  0  0  0  0  0  0  0  0  0
    7.5563   12.0480   25.3862 C   0  0  0  0  0  0  0  0  0  0  0  0
    7.6747   10.7013   25.0264 C   0  0  0  0  0  0  0  0  0  0  0  0
    8.6626   10.2917   24.1413 C   0  0  0  0  0  0  0  0  0  0  0  0
    9.5419   11.2232   23.6255 C   0  0  0  0  0  0  0  0  0  0  0  0
   10.4421   10.8097   22.7337 F   0  0  0  0  0  0  0  0  0  0  0  0
    9.4524   12.5739   23.9571 C   0  0  0  0  0  0  0  0  0  0  0  0
   10.4116   13.4708   23.4390 N   0  0  0  0  0  0  0  0  0  0  0  0
   11.7667   13.3459   23.6110 C   0  0  0  0  0  0  0  0  0  0  0  0
   12.3562   12.7054   24.4703 O   0  0  0  0  0  0  0  0  0  0  0  0
   12.4640   14.1328   22.5214 C   0  0  0  0  0  0  0  0  0  0  0  0
   11.3657   14.8148   21.9371 N   0  0  0  0  0  0  0  0  0  0  0  0
   10.2061   14.1849   22.3000 C   0  0  0  0  0  0  0  0  0  0  0  0
    9.2019   14.2472   21.6179 O   0  0  0  0  0  0  0  0  0  0  0  0
    8.3918   13.0130   24.7860 C   0  0  0  0  0  0  0  0  0  0  0  0
    8.1489   14.4839   24.9690 C   0  0  0  0  0  0  0  0  0  0  0  0
  1  2  2  0
  2  3  1  0
  2  4  1  0
  4  5  2  0
  4  6  1  0
  6  7  1  0
  7  8  2  0
  8  9  1  0
  9 10  2  0
 10 11  1  0
 10 12  1  0
 12 13  1  0
 13 14  1  0
 14 15  2  0
 14 16  1  0
 16 17  1  0
 17 18  1  0
 18 19  2  0
 12 20  2  0
 20 21  1  0
 20  7  1  0
 18 13  1  0
M  END
>  <alias>  (547) 
None

>  <rmsd(smina/fragmenstein)>  (547) 
0.456

>  <smiles>  (547) 
C=C(Cl)C(=O)Nc1ccc(F)c(N2C(=O)CNC2=O)c1C

>  <gnina_score>  (547) 
5.316

>  <inspiration_score>  (547) 
None

>  <energy_score>  (547) 
-28.22824

>  <distance_score>  (547) 
1.690542

>  <gnina_score_min>  (547) 
5.333

>  <inchikey>  (547) 
JIMZIIVOGSBXBC-UHFFFAOYSA-N

>  <exports>  (547) 
['/opt/xchem-fragalysis-2/maxwin/BulkDock/OUTPUTS/openbind_a71ev2a_c2_elabs_1LOUU54.sdf', '/opt/xchem-fragalysis-2/maxwin/BulkDock/OUTPUTS/openbind_a71ev2a_c2_elabs_1LSYIDY.sdf']

>  <name>  (547) 
P545866

>  <ref_pdb>  (547) 
A0884a

>  <subsites>  (547) 
None

>  <HIPPO Pose ID>  (547) 
545866

>  <ref_mols>  (547) 
A0884a

>  <HIPPO Compound ID>  (547) 
384418

>  <tags>  (547) 
openbind_a71ev2a_c2_elabs,syndirella_product,openbind_a71ev2a_c2_elabs_fragonly_scored_top80percent,openbind_a71ev2a_c2_elabs_scored,BulkDock Fragalysis export,openbind_a71ev2a_c2_elabs_scored_top80percent,openbind_a71ev2a_c2_elabs_activefrags_only_scored_5.2plus,syndirella_placed

>  <smina_score_min>  (547) 
-6.621

$$$$
P545869
     RDKit          3D

 21 22  0  0  0  0  0  0  0  0999 V2000
    3.3510   13.6051   27.8515 C   0  0  0  0  0  0  0  0  0  0  0  0
    4.2950   13.7998   26.9205 C   0  0  0  0  0  0  0  0  0  0  0  0
    4.4021   15.3251   26.1208 Cl  0  0  0  0  0  0  0  0  0  0  0  0
    5.2577   12.6796   26.5760 C   0  0  0  0  0  0  0  0  0  0  0  0
    5.1624   11.6267   27.0763 O   0  0  0  0  0  0  0  0  0  0  0  0
    6.2975   13.2187   25.5587 N   0  0  0  0  0  0  0  0  0  0  0  0
    7.3377   12.5703   24.9003 C   0  0  0  0  0  0  0  0  0  0  0  0
    7.5506   11.2014   25.0250 C   0  0  0  0  0  0  0  0  0  0  0  0
    8.6072   10.6138   24.3383 C   0  0  0  0  0  0  0  0  0  0  0  0
    8.7586    9.2865   24.3945 F   0  0  0  0  0  0  0  0  0  0  0  0
    9.4900   11.3707   23.5791 C   0  0  0  0  0  0  0  0  0  0  0  0
    9.2781   12.7435   23.4504 C   0  0  0  0  0  0  0  0  0  0  0  0
   10.1661   13.5202   22.6600 N   0  0  0  0  0  0  0  0  0  0  0  0
    9.6094   14.4700   21.7065 C   0  0  0  0  0  0  0  0  0  0  0  0
   10.5820   14.9178   20.6367 C   0  0  0  0  0  0  0  0  0  0  0  0
   11.9955   14.5821   20.9920 C   0  0  0  0  0  0  0  0  0  0  0  0
   12.8556   14.3928   20.1362 O   0  0  0  0  0  0  0  0  0  0  0  0
   12.2533   14.5105   22.3274 N   0  0  0  0  0  0  0  0  0  0  0  0
   11.4628   13.7306   23.1264 C   0  0  0  0  0  0  0  0  0  0  0  0
   11.9137   13.2543   24.1668 O   0  0  0  0  0  0  0  0  0  0  0  0
    8.1817   13.3339   24.0884 C   0  0  0  0  0  0  0  0  0  0  0  0
  1  2  2  0
  2  3  1  0
  2  4  1  0
  4  5  2  0
  4  6  1  0
  6  7  1  0
  7  8  2  0
  8  9  1  0
  9 10  1  0
  9 11  2  0
 11 12  1  0
 12 13  1  0
 13 14  1  0
 14 15  1  0
 15 16  1  0
 16 17  2  0
 16 18  1  0
 18 19  1  0
 19 20  2  0
 12 21  2  0
 21  7  1  0
 19 13  1  0
M  END
>  <alias>  (548) 
None

>  <rmsd(smina/fragmenstein)>  (548) 
0.523

>  <smiles>  (548) 
C=C(Cl)C(=O)Nc1cc(F)cc(N2CCC(=O)NC2=O)c1

>  <gnina_score>  (548) 
5.265

>  <inspiration_score>  (548) 
None

>  <energy_score>  (548) 
-46.3781

>  <distance_score>  (548) 
1.218256

>  <gnina_score_min>  (548) 
5.287

>  <inchikey>  (548) 
CAUWORMSAWPGCP-UHFFFAOYSA-N

>  <exports>  (548) 
['/opt/xchem-fragalysis-2/maxwin/BulkDock/OUTPUTS/openbind_a71ev2a_c2_elabs_1LOUU54.sdf', '/opt/xchem-fragalysis-2/maxwin/BulkDock/OUTPUTS/openbind_a71ev2a_c2_elabs_1LSYIDY.sdf']

>  <name>  (548) 
P545869

>  <ref_pdb>  (548) 
A0884a

>  <subsites>  (548) 
None

>  <HIPPO Pose ID>  (548) 
545869

>  <ref_mols>  (548) 
A0884a

>  <HIPPO Compound ID>  (548) 
384420

>  <tags>  (548) 
openbind_a71ev2a_c2_elabs,syndirella_product,openbind_a71ev2a_c2_elabs_fragonly_scored_top80percent,openbind_a71ev2a_c2_elabs_scored,BulkDock Fragalysis export,openbind_a71ev2a_c2_elabs_scored_top80percent,openbind_a71ev2a_c2_elabs_activefrags_only_scored_5.2plus,syndirella_placed

>  <smina_score_min>  (548) 
-6.958

$$$$
P545870
     RDKit          3D

 21 22  0  0  0  0  0  0  0  0999 V2000
    4.8257   16.0074   26.7706 C   0  0  0  0  0  0  0  0  0  0  0  0
    5.2083   14.7560   26.4862 C   0  0  0  0  0  0  0  0  0  0  0  0
    4.2842   13.4177   27.0663 Cl  0  0  0  0  0  0  0  0  0  0  0  0
    6.4714   14.5191   25.6866 C   0  0  0  0  0  0  0  0  0  0  0  0
    7.2626   15.3674   25.5353 O   0  0  0  0  0  0  0  0  0  0  0  0
    6.4378   13.0638   25.1402 N   0  0  0  0  0  0  0  0  0  0  0  0
    7.3806   12.3535   24.4036 C   0  0  0  0  0  0  0  0  0  0  0  0
    7.5297   11.0011   24.7201 C   0  0  0  0  0  0  0  0  0  0  0  0
    8.5413   10.2546   24.1258 C   0  0  0  0  0  0  0  0  0  0  0  0
    9.4659   10.8775   23.2963 C   0  0  0  0  0  0  0  0  0  0  0  0
    9.3690   12.2563   23.0238 C   0  0  0  0  0  0  0  0  0  0  0  0
   10.6161   12.9429   23.0472 N   0  0  0  0  0  0  0  0  0  0  0  0
   11.0267   14.0530   22.3757 C   0  0  0  0  0  0  0  0  0  0  0  0
   10.7313   14.4533   21.2656 O   0  0  0  0  0  0  0  0  0  0  0  0
   11.8896   14.7778   23.1875 N   0  0  0  0  0  0  0  0  0  0  0  0
   12.1232   14.1371   24.4380 C   0  0  1  0  0  0  0  0  0  0  0  0
   11.8388   14.9393   25.7145 C   0  0  0  0  0  0  0  0  0  0  0  0
   11.0398   13.1413   24.3139 C   0  0  0  0  0  0  0  0  0  0  0  0
   10.5181   12.6480   25.2964 O   0  0  0  0  0  0  0  0  0  0  0  0
    8.2155   12.9555   23.4471 C   0  0  0  0  0  0  0  0  0  0  0  0
    7.9299   14.3160   22.8892 C   0  0  0  0  0  0  0  0  0  0  0  0
  1  2  2  0
  2  3  1  0
  2  4  1  0
  4  5  2  0
  4  6  1  0
  6  7  1  0
  7  8  2  0
  8  9  1  0
  9 10  2  0
 10 11  1  0
 11 12  1  0
 12 13  1  0
 13 14  2  0
 13 15  1  0
 15 16  1  0
 16 17  1  1
 16 18  1  0
 18 19  2  0
 11 20  2  0
 20 21  1  0
 20  7  1  0
 18 12  1  0
M  END
>  <alias>  (549) 
None

>  <rmsd(smina/fragmenstein)>  (549) 
0.629

>  <smiles>  (549) 
C=C(Cl)C(=O)Nc1cccc(N2C(=O)N[C@@H](C)C2=O)c1C

>  <gnina_score>  (549) 
5.263

>  <inspiration_score>  (549) 
None

>  <energy_score>  (549) 
-3.719546

>  <distance_score>  (549) 
1.7942

>  <gnina_score_min>  (549) 
5.242

>  <inchikey>  (549) 
BITYQRSKODWSOT-VIFPVBQESA-N

>  <exports>  (549) 
['/opt/xchem-fragalysis-2/maxwin/BulkDock/OUTPUTS/openbind_a71ev2a_c2_elabs_1LOUU54.sdf', '/opt/xchem-fragalysis-2/maxwin/BulkDock/OUTPUTS/openbind_a71ev2a_c2_elabs_1LSYIDY.sdf']

>  <name>  (549) 
P545870

>  <ref_pdb>  (549) 
A0884a

>  <subsites>  (549) 
None

>  <HIPPO Pose ID>  (549) 
545870

>  <ref_mols>  (549) 
A0884a

>  <HIPPO Compound ID>  (549) 
384421

>  <tags>  (549) 
openbind_a71ev2a_c2_elabs,syndirella_product,openbind_a71ev2a_c2_elabs_fragonly_scored_top80percent,openbind_a71ev2a_c2_elabs_scored,BulkDock Fragalysis export,openbind_a71ev2a_c2_elabs_scored_top80percent,openbind_a71ev2a_c2_elabs_activefrags_only_scored_5.2plus,syndirella_placed

>  <smina_score_min>  (549) 
-4.616

$$$$
P545871
     RDKit          3D

 21 22  0  0  0  0  0  0  0  0999 V2000
    3.4031   13.5815   28.0942 C   0  0  0  0  0  0  0  0  0  0  0  0
    4.3671   13.8028   27.1901 C   0  0  0  0  0  0  0  0  0  0  0  0
    4.6197   15.4001   26.5869 Cl  0  0  0  0  0  0  0  0  0  0  0  0
    5.2338   12.6530   26.7132 C   0  0  0  0  0  0  0  0  0  0  0  0
    5.0720   11.5670   27.1164 O   0  0  0  0  0  0  0  0  0  0  0  0
    6.2377   13.1961   25.6616 N   0  0  0  0  0  0  0  0  0  0  0  0
    7.2724   12.5570   24.9859 C   0  0  0  0  0  0  0  0  0  0  0  0
    7.4982   11.1855   25.1148 C   0  0  0  0  0  0  0  0  0  0  0  0
    8.5520   10.5902   24.4243 C   0  0  0  0  0  0  0  0  0  0  0  0
    9.4034   11.3752   23.6579 C   0  0  0  0  0  0  0  0  0  0  0  0
   10.3882   10.7721   22.9883 F   0  0  0  0  0  0  0  0  0  0  0  0
    9.1961   12.7505   23.5205 C   0  0  0  0  0  0  0  0  0  0  0  0
   10.0868   13.5356   22.7361 N   0  0  0  0  0  0  0  0  0  0  0  0
    9.5341   14.4443   21.7451 C   0  0  0  0  0  0  0  0  0  0  0  0
   10.5254   14.9249   20.7059 C   0  0  0  0  0  0  0  0  0  0  0  0
   11.9360   14.5577   21.0439 C   0  0  0  0  0  0  0  0  0  0  0  0
   12.7979   14.4048   20.1827 O   0  0  0  0  0  0  0  0  0  0  0  0
   12.2022   14.4525   22.3752 N   0  0  0  0  0  0  0  0  0  0  0  0
   11.3871   13.7177   23.1907 C   0  0  0  0  0  0  0  0  0  0  0  0
   11.8235   13.2780   24.2536 O   0  0  0  0  0  0  0  0  0  0  0  0
    8.1002   13.3316   24.1638 C   0  0  0  0  0  0  0  0  0  0  0  0
  1  2  2  0
  2  3  1  0
  2  4  1  0
  4  5  2  0
  4  6  1  0
  6  7  1  0
  7  8  2  0
  8  9  1  0
  9 10  2  0
 10 11  1  0
 10 12  1  0
 12 13  1  0
 13 14  1  0
 14 15  1  0
 15 16  1  0
 16 17  2  0
 16 18  1  0
 18 19  1  0
 19 20  2  0
 12 21  2  0
 21  7  1  0
 19 13  1  0
M  END
>  <alias>  (550) 
None

>  <rmsd(smina/fragmenstein)>  (550) 
0.656

>  <smiles>  (550) 
C=C(Cl)C(=O)Nc1ccc(F)c(N2CCC(=O)NC2=O)c1

>  <gnina_score>  (550) 
5.357

>  <inspiration_score>  (550) 
None

>  <energy_score>  (550) 
-16.302603

>  <distance_score>  (550) 
1.221082

>  <gnina_score_min>  (550) 
5.29

>  <inchikey>  (550) 
SSPJRTYYUQDQSX-UHFFFAOYSA-N

>  <exports>  (550) 
['/opt/xchem-fragalysis-2/maxwin/BulkDock/OUTPUTS/openbind_a71ev2a_c2_elabs_1LOUU54.sdf', '/opt/xchem-fragalysis-2/maxwin/BulkDock/OUTPUTS/openbind_a71ev2a_c2_elabs_1LSYIDY.sdf']

>  <name>  (550) 
P545871

>  <ref_pdb>  (550) 
A0884a

>  <subsites>  (550) 
None

>  <HIPPO Pose ID>  (550) 
545871

>  <ref_mols>  (550) 
A0884a

>  <HIPPO Compound ID>  (550) 
384423

>  <tags>  (550) 
openbind_a71ev2a_c2_elabs,syndirella_product,openbind_a71ev2a_c2_elabs_fragonly_scored_top80percent,openbind_a71ev2a_c2_elabs_scored,BulkDock Fragalysis export,openbind_a71ev2a_c2_elabs_scored_top80percent,openbind_a71ev2a_c2_elabs_activefrags_only_scored_5.2plus,syndirella_placed

>  <smina_score_min>  (550) 
-6.893

$$$$
P545873
     RDKit          3D

 21 22  0  0  0  0  0  0  0  0999 V2000
    3.9352   11.9355   28.4397 C   0  0  0  0  0  0  0  0  0  0  0  0
    4.7842   12.4884   27.5626 C   0  0  0  0  0  0  0  0  0  0  0  0
    4.7037   14.1837   27.2503 Cl  0  0  0  0  0  0  0  0  0  0  0  0
    5.8121   11.6233   26.8585 C   0  0  0  0  0  0  0  0  0  0  0  0
    5.8461   10.4686   27.0289 O   0  0  0  0  0  0  0  0  0  0  0  0
    6.7129   12.5365   25.9915 N   0  0  0  0  0  0  0  0  0  0  0  0
    7.7443   12.2176   25.1132 C   0  0  0  0  0  0  0  0  0  0  0  0
    8.0952   10.9029   24.8023 C   0  0  0  0  0  0  0  0  0  0  0  0
    9.1556   10.6764   23.9241 C   0  0  0  0  0  0  0  0  0  0  0  0
    9.6663    9.1294   23.4495 Cl  0  0  0  0  0  0  0  0  0  0  0  0
    9.8889   11.7209   23.4019 C   0  0  0  0  0  0  0  0  0  0  0  0
    9.5652   13.0139   23.7509 C   0  0  0  0  0  0  0  0  0  0  0  0
   10.3269   14.0656   23.2279 N   0  0  0  0  0  0  0  0  0  0  0  0
   11.7204   14.1810   23.5881 C   0  0  0  0  0  0  0  0  0  0  0  0
   12.6214   14.0690   22.3860 C   0  0  0  0  0  0  0  0  0  0  0  0
   12.0283   14.6944   21.1623 C   0  0  0  0  0  0  0  0  0  0  0  0
   12.5164   14.5965   20.0422 O   0  0  0  0  0  0  0  0  0  0  0  0
   10.8571   15.3376   21.3707 N   0  0  0  0  0  0  0  0  0  0  0  0
    9.9356   14.5915   22.0144 C   0  0  0  0  0  0  0  0  0  0  0  0
    8.8563   14.3720   21.4855 O   0  0  0  0  0  0  0  0  0  0  0  0
    8.4652   13.2775   24.5615 C   0  0  0  0  0  0  0  0  0  0  0  0
  1  2  2  0
  2  3  1  0
  2  4  1  0
  4  5  2  0
  4  6  1  0
  6  7  1  0
  7  8  2  0
  8  9  1  0
  9 10  1  0
  9 11  2  0
 11 12  1  0
 12 13  1  0
 13 14  1  0
 14 15  1  0
 15 16  1  0
 16 17  2  0
 16 18  1  0
 18 19  1  0
 19 20  2  0
 12 21  2  0
 21  7  1  0
 19 13  1  0
M  END
>  <alias>  (551) 
None

>  <rmsd(smina/fragmenstein)>  (551) 
0.303

>  <smiles>  (551) 
C=C(Cl)C(=O)Nc1cc(Cl)cc(N2CCC(=O)NC2=O)c1

>  <gnina_score>  (551) 
5.516

>  <inspiration_score>  (551) 
None

>  <energy_score>  (551) 
-11.188104

>  <distance_score>  (551) 
1.855131

>  <gnina_score_min>  (551) 
5.659

>  <inchikey>  (551) 
PLRIZTUOHRHPHR-UHFFFAOYSA-N

>  <exports>  (551) 
['/opt/xchem-fragalysis-2/maxwin/BulkDock/OUTPUTS/openbind_a71ev2a_c2_elabs_1LOUU54.sdf', '/opt/xchem-fragalysis-2/maxwin/BulkDock/OUTPUTS/openbind_a71ev2a_c2_elabs_1LSYIDY.sdf']

>  <name>  (551) 
P545873

>  <ref_pdb>  (551) 
A0884a

>  <subsites>  (551) 
None

>  <HIPPO Pose ID>  (551) 
545873

>  <ref_mols>  (551) 
A0884a

>  <HIPPO Compound ID>  (551) 
384427

>  <tags>  (551) 
openbind_a71ev2a_c2_elabs,syndirella_product,openbind_a71ev2a_c2_elabs_fragonly_scored_top80percent,BulkDock Fragalysis export,openbind_a71ev2a_c2_elabs_scored,openbind_a71ev2a_c2_elabs_scored_top80percent,openbind_a71ev2a_c2_elabs_activefrags_only_scored_5.2plus,openbind_a71ev2a_c2_elabs_activefrags_only_scored_5.5plus,syndirella_placed

>  <smina_score_min>  (551) 
-6.798

$$$$
P545875
     RDKit          3D

 21 22  0  0  0  0  0  0  0  0999 V2000
    3.6383   15.3001   25.8692 C   0  0  0  0  0  0  0  0  0  0  0  0
    4.1222   14.5707   26.8825 C   0  0  0  0  0  0  0  0  0  0  0  0
    3.7627   14.9697   28.5191 Cl  0  0  0  0  0  0  0  0  0  0  0  0
    4.9291   13.3239   26.6547 C   0  0  0  0  0  0  0  0  0  0  0  0
    4.6551   12.3079   27.1656 O   0  0  0  0  0  0  0  0  0  0  0  0
    6.1061   13.6897   25.7051 N   0  0  0  0  0  0  0  0  0  0  0  0
    7.0917   12.8879   25.1379 C   0  0  0  0  0  0  0  0  0  0  0  0
    7.1338   11.5163   25.3649 C   0  0  0  0  0  0  0  0  0  0  0  0
    8.0978   10.7425   24.7282 C   0  0  0  0  0  0  0  0  0  0  0  0
    9.0343   11.3357   23.8790 C   0  0  0  0  0  0  0  0  0  0  0  0
   10.0380   10.2493   23.0231 Cl  0  0  0  0  0  0  0  0  0  0  0  0
    9.0316   12.7245   23.6630 C   0  0  0  0  0  0  0  0  0  0  0  0
    9.9872   13.3783   22.8116 N   0  0  0  0  0  0  0  0  0  0  0  0
    9.4910   14.3584   21.8532 C   0  0  0  0  0  0  0  0  0  0  0  0
   10.4930   14.8069   20.8118 C   0  0  0  0  0  0  0  0  0  0  0  0
   11.9028   14.4947   21.1933 C   0  0  0  0  0  0  0  0  0  0  0  0
   12.8018   14.4396   20.3575 O   0  0  0  0  0  0  0  0  0  0  0  0
   12.1227   14.2987   22.5231 N   0  0  0  0  0  0  0  0  0  0  0  0
   11.2752   13.5699   23.3148 C   0  0  0  0  0  0  0  0  0  0  0  0
   11.6719   13.1414   24.3969 O   0  0  0  0  0  0  0  0  0  0  0  0
    8.0375   13.4862   24.2969 C   0  0  0  0  0  0  0  0  0  0  0  0
  1  2  2  0
  2  3  1  0
  2  4  1  0
  4  5  2  0
  4  6  1  0
  6  7  1  0
  7  8  2  0
  8  9  1  0
  9 10  2  0
 10 11  1  0
 10 12  1  0
 12 13  1  0
 13 14  1  0
 14 15  1  0
 15 16  1  0
 16 17  2  0
 16 18  1  0
 18 19  1  0
 19 20  2  0
 12 21  2  0
 21  7  1  0
 19 13  1  0
M  END
>  <alias>  (552) 
None

>  <rmsd(smina/fragmenstein)>  (552) 
0.533

>  <smiles>  (552) 
C=C(Cl)C(=O)Nc1ccc(Cl)c(N2CCC(=O)NC2=O)c1

>  <gnina_score>  (552) 
5.616

>  <inspiration_score>  (552) 
None

>  <energy_score>  (552) 
-35.154476

>  <distance_score>  (552) 
1.489774

>  <gnina_score_min>  (552) 
5.548

>  <inchikey>  (552) 
WQCAKZAPGMAWDS-UHFFFAOYSA-N

>  <exports>  (552) 
['/opt/xchem-fragalysis-2/maxwin/BulkDock/OUTPUTS/openbind_a71ev2a_c2_elabs_1LOUU54.sdf', '/opt/xchem-fragalysis-2/maxwin/BulkDock/OUTPUTS/openbind_a71ev2a_c2_elabs_1LSYIDY.sdf']

>  <name>  (552) 
P545875

>  <ref_pdb>  (552) 
A0884a

>  <subsites>  (552) 
None

>  <HIPPO Pose ID>  (552) 
545875

>  <ref_mols>  (552) 
A0884a

>  <HIPPO Compound ID>  (552) 
384431

>  <tags>  (552) 
openbind_a71ev2a_c2_elabs,syndirella_product,openbind_a71ev2a_c2_elabs_fragonly_scored_top80percent,BulkDock Fragalysis export,openbind_a71ev2a_c2_elabs_scored,openbind_a71ev2a_c2_elabs_scored_top80percent,openbind_a71ev2a_c2_elabs_activefrags_only_scored_5.2plus,openbind_a71ev2a_c2_elabs_activefrags_only_scored_5.5plus,syndirella_placed

>  <smina_score_min>  (552) 
-6.795

$$$$
P545876
     RDKit          3D

 21 22  0  0  0  0  0  0  0  0999 V2000
    5.5845   13.9531   28.3165 C   0  0  0  0  0  0  0  0  0  0  0  0
    5.1163   12.8420   27.7310 C   0  0  0  0  0  0  0  0  0  0  0  0
    3.4892   12.3394   28.0173 Cl  0  0  0  0  0  0  0  0  0  0  0  0
    5.9830   11.9098   26.9200 C   0  0  0  0  0  0  0  0  0  0  0  0
    5.9383   10.7517   27.0685 O   0  0  0  0  0  0  0  0  0  0  0  0
    6.8551   12.7688   25.9637 N   0  0  0  0  0  0  0  0  0  0  0  0
    7.8788   12.3982   25.0958 C   0  0  0  0  0  0  0  0  0  0  0  0
    8.1670   11.0618   24.8025 C   0  0  0  0  0  0  0  0  0  0  0  0
    9.2065   10.7873   23.9207 C   0  0  0  0  0  0  0  0  0  0  0  0
    9.7509    9.1024   23.3630 Br  0  0  0  0  0  0  0  0  0  0  0  0
    9.9696   11.7941   23.3782 C   0  0  0  0  0  0  0  0  0  0  0  0
    9.7311   13.1067   23.7149 C   0  0  0  0  0  0  0  0  0  0  0  0
   10.4946   14.1015   23.0589 N   0  0  0  0  0  0  0  0  0  0  0  0
   11.9542   13.9656   23.1451 C   0  0  0  0  0  0  0  0  0  0  0  0
   12.6370   15.0095   22.3106 C   0  0  0  0  0  0  0  0  0  0  0  0
   12.0697   14.8558   20.9455 C   0  0  0  0  0  0  0  0  0  0  0  0
   12.6704   14.5001   19.9439 O   0  0  0  0  0  0  0  0  0  0  0  0
   10.7399   15.1157   20.9474 N   0  0  0  0  0  0  0  0  0  0  0  0
    9.9482   14.4889   21.8427 C   0  0  0  0  0  0  0  0  0  0  0  0
    8.7967   14.2361   21.5078 O   0  0  0  0  0  0  0  0  0  0  0  0
    8.6481   13.4238   24.5300 C   0  0  0  0  0  0  0  0  0  0  0  0
  1  2  2  0
  2  3  1  0
  2  4  1  0
  4  5  2  0
  4  6  1  0
  6  7  1  0
  7  8  2  0
  8  9  1  0
  9 10  1  0
  9 11  2  0
 11 12  1  0
 12 13  1  0
 13 14  1  0
 14 15  1  0
 15 16  1  0
 16 17  2  0
 16 18  1  0
 18 19  1  0
 19 20  2  0
 12 21  2  0
 21  7  1  0
 19 13  1  0
M  END
>  <alias>  (553) 
None

>  <rmsd(smina/fragmenstein)>  (553) 
0.327

>  <smiles>  (553) 
C=C(Cl)C(=O)Nc1cc(Br)cc(N2CCC(=O)NC2=O)c1

>  <gnina_score>  (553) 
5.708

>  <inspiration_score>  (553) 
None

>  <energy_score>  (553) 
-23.587132

>  <distance_score>  (553) 
1.906546

>  <gnina_score_min>  (553) 
5.735

>  <inchikey>  (553) 
MKPUZCARQYFGNS-UHFFFAOYSA-N

>  <exports>  (553) 
['/opt/xchem-fragalysis-2/maxwin/BulkDock/OUTPUTS/openbind_a71ev2a_c2_elabs_1LOUU54.sdf', '/opt/xchem-fragalysis-2/maxwin/BulkDock/OUTPUTS/openbind_a71ev2a_c2_elabs_1LSYIDY.sdf']

>  <name>  (553) 
P545876

>  <ref_pdb>  (553) 
A0884a

>  <subsites>  (553) 
None

>  <HIPPO Pose ID>  (553) 
545876

>  <ref_mols>  (553) 
A0884a

>  <HIPPO Compound ID>  (553) 
384432

>  <tags>  (553) 
openbind_a71ev2a_c2_elabs,syndirella_product,openbind_a71ev2a_c2_elabs_fragonly_scored_top80percent,BulkDock Fragalysis export,openbind_a71ev2a_c2_elabs_scored,openbind_a71ev2a_c2_elabs_scored_top80percent,openbind_a71ev2a_c2_elabs_activefrags_only_scored_5.2plus,openbind_a71ev2a_c2_elabs_activefrags_only_scored_5.5plus,syndirella_placed

>  <smina_score_min>  (553) 
-6.594

$$$$
P545877
     RDKit          3D

 21 22  0  0  0  0  0  0  0  0999 V2000
    7.9188   14.6513   24.0387 C   0  0  0  0  0  0  0  0  0  0  0  0
    8.2161   13.1914   24.2152 C   0  0  0  0  0  0  0  0  0  0  0  0
    7.3313   12.4007   24.9941 C   0  0  0  0  0  0  0  0  0  0  0  0
    6.3008   13.0213   25.7090 N   0  0  0  0  0  0  0  0  0  0  0  0
    5.2902   12.4360   26.7400 C   0  0  0  0  0  0  0  0  0  0  0  0
    5.1168   11.3321   27.0892 O   0  0  0  0  0  0  0  0  0  0  0  0
    4.4720   13.6056   27.3179 C   0  0  0  0  0  0  0  0  0  0  0  0
    3.6492   14.3403   26.2632 C   0  0  0  0  0  0  0  0  0  0  0  0
    5.3526   14.5627   28.1172 C   0  0  0  0  0  0  0  0  0  0  0  0
    7.5126   11.0213   25.0829 C   0  0  0  0  0  0  0  0  0  0  0  0
    8.5737   10.4216   24.4192 C   0  0  0  0  0  0  0  0  0  0  0  0
    9.5139   11.2102   23.7751 C   0  0  0  0  0  0  0  0  0  0  0  0
   10.5564   10.5978   23.2133 F   0  0  0  0  0  0  0  0  0  0  0  0
    9.3891   12.5985   23.6954 C   0  0  0  0  0  0  0  0  0  0  0  0
   10.4790   13.3438   23.1850 N   0  0  0  0  0  0  0  0  0  0  0  0
   10.5069   14.0543   22.0207 C   0  0  0  0  0  0  0  0  0  0  0  0
    9.5912   14.2250   21.2332 O   0  0  0  0  0  0  0  0  0  0  0  0
   11.8886   14.6313   21.8152 C   0  0  0  0  0  0  0  0  0  0  0  0
   12.5438   14.1726   22.9890 N   0  0  0  0  0  0  0  0  0  0  0  0
   11.7104   13.4178   23.7731 C   0  0  0  0  0  0  0  0  0  0  0  0
   12.0646   12.9893   24.8568 O   0  0  0  0  0  0  0  0  0  0  0  0
  1  2  1  0
  2  3  2  0
  3  4  1  0
  4  5  1  0
  5  6  2  0
  5  7  1  0
  7  8  1  0
  7  9  1  0
  3 10  1  0
 10 11  2  0
 11 12  1  0
 12 13  1  0
 12 14  2  0
 14 15  1  0
 15 16  1  0
 16 17  2  0
 16 18  1  0
 18 19  1  0
 19 20  1  0
 20 21  2  0
 14  2  1  0
 20 15  1  0
M  END
>  <alias>  (554) 
None

>  <rmsd(smina/fragmenstein)>  (554) 
0.829

>  <smiles>  (554) 
Cc1c(NC(=O)C(C)C)ccc(F)c1N1C(=O)CNC1=O

>  <gnina_score>  (554) 
5.312

>  <inspiration_score>  (554) 
None

>  <energy_score>  (554) 
-17.793201

>  <distance_score>  (554) 
1.604844

>  <gnina_score_min>  (554) 
5.28

>  <inchikey>  (554) 
FVKHTMOAJJTWGA-UHFFFAOYSA-N

>  <exports>  (554) 
['/opt/xchem-fragalysis-2/maxwin/BulkDock/OUTPUTS/openbind_a71ev2a_c2_elabs_1LOUU54.sdf', '/opt/xchem-fragalysis-2/maxwin/BulkDock/OUTPUTS/openbind_a71ev2a_c2_elabs_1LSYIDY.sdf']

>  <name>  (554) 
P545877

>  <ref_pdb>  (554) 
A0884a

>  <subsites>  (554) 
None

>  <HIPPO Pose ID>  (554) 
545877

>  <ref_mols>  (554) 
A0884a

>  <HIPPO Compound ID>  (554) 
384435

>  <tags>  (554) 
openbind_a71ev2a_c2_elabs,syndirella_product,openbind_a71ev2a_c2_elabs_fragonly_scored_top80percent,openbind_a71ev2a_c2_elabs_scored,BulkDock Fragalysis export,openbind_a71ev2a_c2_elabs_scored_top80percent,openbind_a71ev2a_c2_elabs_activefrags_only_scored_5.2plus,syndirella_placed

>  <smina_score_min>  (554) 
-6.492

$$$$
P545878
     RDKit          3D

 21 22  0  0  0  0  0  0  0  0999 V2000
    3.6249   13.0101   29.4352 C   0  0  0  0  0  0  0  0  0  0  0  0
    2.8244   13.2799   27.8330 S   0  0  0  0  0  0  0  0  0  0  0  0
    4.2834   13.7684   26.8526 C   0  0  0  0  0  0  0  0  0  0  0  0
    5.2326   12.5990   26.5485 C   0  0  0  0  0  0  0  0  0  0  0  0
    5.1666   11.5432   27.0510 O   0  0  0  0  0  0  0  0  0  0  0  0
    6.2059   13.1385   25.4478 N   0  0  0  0  0  0  0  0  0  0  0  0
    7.3057   12.5381   24.8419 C   0  0  0  0  0  0  0  0  0  0  0  0
    7.5591   11.1780   24.9899 C   0  0  0  0  0  0  0  0  0  0  0  0
    8.6405   10.6130   24.3261 C   0  0  0  0  0  0  0  0  0  0  0  0
    8.8187    9.2894   24.3848 F   0  0  0  0  0  0  0  0  0  0  0  0
    9.5165   11.3888   23.5797 C   0  0  0  0  0  0  0  0  0  0  0  0
    9.2723   12.7552   23.4368 C   0  0  0  0  0  0  0  0  0  0  0  0
   10.1581   13.5465   22.6584 N   0  0  0  0  0  0  0  0  0  0  0  0
    9.6039   14.4844   21.6924 C   0  0  0  0  0  0  0  0  0  0  0  0
   10.5816   14.9298   20.6260 C   0  0  0  0  0  0  0  0  0  0  0  0
   11.9931   14.5864   20.9823 C   0  0  0  0  0  0  0  0  0  0  0  0
   12.8518   14.3864   20.1276 O   0  0  0  0  0  0  0  0  0  0  0  0
   12.2507   14.5223   22.3180 N   0  0  0  0  0  0  0  0  0  0  0  0
   11.4576   13.7486   23.1195 C   0  0  0  0  0  0  0  0  0  0  0  0
   11.9080   13.2708   24.1595 O   0  0  0  0  0  0  0  0  0  0  0  0
    8.1429   13.3198   24.0408 C   0  0  0  0  0  0  0  0  0  0  0  0
  1  2  1  0
  2  3  1  0
  3  4  1  0
  4  5  2  0
  4  6  1  0
  6  7  1  0
  7  8  2  0
  8  9  1  0
  9 10  1  0
  9 11  2  0
 11 12  1  0
 12 13  1  0
 13 14  1  0
 14 15  1  0
 15 16  1  0
 16 17  2  0
 16 18  1  0
 18 19  1  0
 19 20  2  0
 12 21  2  0
 21  7  1  0
 19 13  1  0
M  END
>  <alias>  (555) 
None

>  <rmsd(smina/fragmenstein)>  (555) 
0.31

>  <smiles>  (555) 
CSCC(=O)Nc1cc(F)cc(N2CCC(=O)NC2=O)c1

>  <gnina_score>  (555) 
5.263

>  <inspiration_score>  (555) 
None

>  <energy_score>  (555) 
-30.903376

>  <distance_score>  (555) 
1.23122

>  <gnina_score_min>  (555) 
5.27

>  <inchikey>  (555) 
OODVJDYLHCQUGO-UHFFFAOYSA-N

>  <exports>  (555) 
['/opt/xchem-fragalysis-2/maxwin/BulkDock/OUTPUTS/openbind_a71ev2a_c2_elabs_1LOUU54.sdf', '/opt/xchem-fragalysis-2/maxwin/BulkDock/OUTPUTS/openbind_a71ev2a_c2_elabs_1LSYIDY.sdf']

>  <name>  (555) 
P545878

>  <ref_pdb>  (555) 
A0884a

>  <subsites>  (555) 
None

>  <HIPPO Pose ID>  (555) 
545878

>  <ref_mols>  (555) 
A0884a

>  <HIPPO Compound ID>  (555) 
384436

>  <tags>  (555) 
openbind_a71ev2a_c2_elabs,syndirella_product,openbind_a71ev2a_c2_elabs_fragonly_scored_top80percent,openbind_a71ev2a_c2_elabs_scored,BulkDock Fragalysis export,openbind_a71ev2a_c2_elabs_scored_top80percent,openbind_a71ev2a_c2_elabs_activefrags_only_scored_5.2plus,syndirella_placed

>  <smina_score_min>  (555) 
-6.571

$$$$
P545880
     RDKit          3D

 21 22  0  0  0  0  0  0  0  0999 V2000
    8.4378   14.5284   24.7870 C   0  0  0  0  0  0  0  0  0  0  0  0
    8.4739   13.0455   24.5892 C   0  0  0  0  0  0  0  0  0  0  0  0
    7.5040   12.2163   25.1988 C   0  0  0  0  0  0  0  0  0  0  0  0
    6.4406   12.7774   25.9135 N   0  0  0  0  0  0  0  0  0  0  0  0
    5.3562   12.1025   26.8159 C   0  0  0  0  0  0  0  0  0  0  0  0
    5.2393   10.9882   27.1561 O   0  0  0  0  0  0  0  0  0  0  0  0
    4.4019   13.2135   27.2500 C   0  0  0  0  0  0  0  0  0  0  0  0
    3.0959   12.6596   27.6259 C   0  0  0  0  0  0  0  0  0  0  0  0
    2.0471   12.2251   27.8746 N   0  0  0  0  0  0  0  0  0  0  0  0
    7.6040   10.8323   25.0832 C   0  0  0  0  0  0  0  0  0  0  0  0
    8.6061   10.2722   24.2999 C   0  0  0  0  0  0  0  0  0  0  0  0
    9.5404   11.0827   23.6778 C   0  0  0  0  0  0  0  0  0  0  0  0
   10.4460   10.5013   22.8924 F   0  0  0  0  0  0  0  0  0  0  0  0
    9.5245   12.4651   23.8356 C   0  0  0  0  0  0  0  0  0  0  0  0
   10.5716   13.2254   23.2667 N   0  0  0  0  0  0  0  0  0  0  0  0
   10.4577   14.0384   22.1778 C   0  0  0  0  0  0  0  0  0  0  0  0
    9.4495   14.2568   21.5271 O   0  0  0  0  0  0  0  0  0  0  0  0
   11.8013   14.6580   21.8698 C   0  0  0  0  0  0  0  0  0  0  0  0
   12.5692   14.1702   22.9619 N   0  0  0  0  0  0  0  0  0  0  0  0
   11.8426   13.3206   23.7579 C   0  0  0  0  0  0  0  0  0  0  0  0
   12.3092   12.8369   24.7729 O   0  0  0  0  0  0  0  0  0  0  0  0
  1  2  1  0
  2  3  2  0
  3  4  1  0
  4  5  1  0
  5  6  2  0
  5  7  1  0
  7  8  1  0
  8  9  3  0
  3 10  1  0
 10 11  2  0
 11 12  1  0
 12 13  1  0
 12 14  2  0
 14 15  1  0
 15 16  1  0
 16 17  2  0
 16 18  1  0
 18 19  1  0
 19 20  1  0
 20 21  2  0
 14  2  1  0
 20 15  1  0
M  END
>  <alias>  (556) 
None

>  <rmsd(smina/fragmenstein)>  (556) 
0.519

>  <smiles>  (556) 
Cc1c(NC(=O)CC#N)ccc(F)c1N1C(=O)CNC1=O

>  <gnina_score>  (556) 
5.24

>  <inspiration_score>  (556) 
None

>  <energy_score>  (556) 
-25.856398

>  <distance_score>  (556) 
1.553035

>  <gnina_score_min>  (556) 
5.227

>  <inchikey>  (556) 
NODCJYHLXPJIQQ-UHFFFAOYSA-N

>  <exports>  (556) 
['/opt/xchem-fragalysis-2/maxwin/BulkDock/OUTPUTS/openbind_a71ev2a_c2_elabs_1LOUU54.sdf', '/opt/xchem-fragalysis-2/maxwin/BulkDock/OUTPUTS/openbind_a71ev2a_c2_elabs_1LSYIDY.sdf']

>  <name>  (556) 
P545880

>  <ref_pdb>  (556) 
A0884a

>  <subsites>  (556) 
None

>  <HIPPO Pose ID>  (556) 
545880

>  <ref_mols>  (556) 
A0884a

>  <HIPPO Compound ID>  (556) 
384444

>  <tags>  (556) 
openbind_a71ev2a_c2_elabs,syndirella_product,openbind_a71ev2a_c2_elabs_fragonly_scored_top80percent,openbind_a71ev2a_c2_elabs_scored,BulkDock Fragalysis export,openbind_a71ev2a_c2_elabs_scored_top80percent,openbind_a71ev2a_c2_elabs_activefrags_only_scored_5.2plus,syndirella_placed

>  <smina_score_min>  (556) 
-6.259

$$$$
P545882
     RDKit          3D

 21 22  0  0  0  0  0  0  0  0999 V2000
    1.9285   12.8542   27.5741 N   0  0  0  0  0  0  0  0  0  0  0  0
    2.9755   13.2682   27.2867 C   0  0  0  0  0  0  0  0  0  0  0  0
    4.2867   13.7897   26.8806 C   0  0  0  0  0  0  0  0  0  0  0  0
    5.2248   12.6389   26.5242 C   0  0  0  0  0  0  0  0  0  0  0  0
    5.1111   11.5655   26.9789 O   0  0  0  0  0  0  0  0  0  0  0  0
    6.2345   13.1875   25.4638 N   0  0  0  0  0  0  0  0  0  0  0  0
    7.3208   12.5728   24.8486 C   0  0  0  0  0  0  0  0  0  0  0  0
    7.5680   11.2120   25.0043 C   0  0  0  0  0  0  0  0  0  0  0  0
    8.6386   10.6350   24.3331 C   0  0  0  0  0  0  0  0  0  0  0  0
    8.8097    9.3110   24.4012 F   0  0  0  0  0  0  0  0  0  0  0  0
    9.5129   11.3998   23.5739 C   0  0  0  0  0  0  0  0  0  0  0  0
    9.2762   12.7670   23.4254 C   0  0  0  0  0  0  0  0  0  0  0  0
   10.1646   13.5506   22.6427 N   0  0  0  0  0  0  0  0  0  0  0  0
    9.6137   14.4923   21.6779 C   0  0  0  0  0  0  0  0  0  0  0  0
   10.5907   14.9272   20.6069 C   0  0  0  0  0  0  0  0  0  0  0  0
   12.0015   14.5861   20.9674 C   0  0  0  0  0  0  0  0  0  0  0  0
   12.8617   14.3814   20.1155 O   0  0  0  0  0  0  0  0  0  0  0  0
   12.2571   14.5263   22.3036 N   0  0  0  0  0  0  0  0  0  0  0  0
   11.4659   13.7474   23.1019 C   0  0  0  0  0  0  0  0  0  0  0  0
   11.9191   13.2609   24.1371 O   0  0  0  0  0  0  0  0  0  0  0  0
    8.1545   13.3428   24.0333 C   0  0  0  0  0  0  0  0  0  0  0  0
  1  2  3  0
  2  3  1  0
  3  4  1  0
  4  5  2  0
  4  6  1  0
  6  7  1  0
  7  8  2  0
  8  9  1  0
  9 10  1  0
  9 11  2  0
 11 12  1  0
 12 13  1  0
 13 14  1  0
 14 15  1  0
 15 16  1  0
 16 17  2  0
 16 18  1  0
 18 19  1  0
 19 20  2  0
 12 21  2  0
 21  7  1  0
 19 13  1  0
M  END
>  <alias>  (557) 
None

>  <rmsd(smina/fragmenstein)>  (557) 
0.25

>  <smiles>  (557) 
N#CCC(=O)Nc1cc(F)cc(N2CCC(=O)NC2=O)c1

>  <gnina_score>  (557) 
5.25

>  <inspiration_score>  (557) 
None

>  <energy_score>  (557) 
-11.787201

>  <distance_score>  (557) 
1.236473

>  <gnina_score_min>  (557) 
5.27

>  <inchikey>  (557) 
MIDYFRWORYLFKX-UHFFFAOYSA-N

>  <exports>  (557) 
['/opt/xchem-fragalysis-2/maxwin/BulkDock/OUTPUTS/openbind_a71ev2a_c2_elabs_1LOUU54.sdf', '/opt/xchem-fragalysis-2/maxwin/BulkDock/OUTPUTS/openbind_a71ev2a_c2_elabs_1LSYIDY.sdf']

>  <name>  (557) 
P545882

>  <ref_pdb>  (557) 
A0884a

>  <subsites>  (557) 
None

>  <HIPPO Pose ID>  (557) 
545882

>  <ref_mols>  (557) 
A0884a

>  <HIPPO Compound ID>  (557) 
384446

>  <tags>  (557) 
openbind_a71ev2a_c2_elabs,syndirella_product,openbind_a71ev2a_c2_elabs_fragonly_scored_top80percent,openbind_a71ev2a_c2_elabs_scored,BulkDock Fragalysis export,openbind_a71ev2a_c2_elabs_scored_top80percent,openbind_a71ev2a_c2_elabs_activefrags_only_scored_5.2plus,syndirella_placed

>  <smina_score_min>  (557) 
-6.724

$$$$
P545884
     RDKit          3D

 21 22  0  0  0  0  0  0  0  0999 V2000
    5.3037   15.2199   29.0928 N   0  0  0  0  0  0  0  0  0  0  0  0
    4.8637   14.6813   28.1636 C   0  0  0  0  0  0  0  0  0  0  0  0
    4.3158   14.0249   26.9785 C   0  0  0  0  0  0  0  0  0  0  0  0
    5.1818   12.8297   26.6178 C   0  0  0  0  0  0  0  0  0  0  0  0
    4.9825   11.7595   27.0509 O   0  0  0  0  0  0  0  0  0  0  0  0
    6.3019   13.3394   25.6547 N   0  0  0  0  0  0  0  0  0  0  0  0
    7.3029   12.6424   24.9844 C   0  0  0  0  0  0  0  0  0  0  0  0
    7.4747   11.2650   25.1269 C   0  0  0  0  0  0  0  0  0  0  0  0
    8.5062   10.6229   24.4415 C   0  0  0  0  0  0  0  0  0  0  0  0
    9.3829   11.3645   23.6584 C   0  0  0  0  0  0  0  0  0  0  0  0
   10.3385   10.7152   22.9880 F   0  0  0  0  0  0  0  0  0  0  0  0
    9.2249   12.7446   23.5063 C   0  0  0  0  0  0  0  0  0  0  0  0
   10.1291   13.4934   22.7018 N   0  0  0  0  0  0  0  0  0  0  0  0
    9.5892   14.4417   21.7419 C   0  0  0  0  0  0  0  0  0  0  0  0
   10.5724   14.8869   20.6818 C   0  0  0  0  0  0  0  0  0  0  0  0
   11.9840   14.5430   21.0364 C   0  0  0  0  0  0  0  0  0  0  0  0
   12.8485   14.3908   20.1771 O   0  0  0  0  0  0  0  0  0  0  0  0
   12.2373   14.4383   22.3704 N   0  0  0  0  0  0  0  0  0  0  0  0
   11.4258   13.6823   23.1726 C   0  0  0  0  0  0  0  0  0  0  0  0
   11.8580   13.2253   24.2293 O   0  0  0  0  0  0  0  0  0  0  0  0
    8.1599   13.3741   24.1553 C   0  0  0  0  0  0  0  0  0  0  0  0
  1  2  3  0
  2  3  1  0
  3  4  1  0
  4  5  2  0
  4  6  1  0
  6  7  1  0
  7  8  2  0
  8  9  1  0
  9 10  2  0
 10 11  1  0
 10 12  1  0
 12 13  1  0
 13 14  1  0
 14 15  1  0
 15 16  1  0
 16 17  2  0
 16 18  1  0
 18 19  1  0
 19 20  2  0
 12 21  2  0
 21  7  1  0
 19 13  1  0
M  END
>  <alias>  (558) 
None

>  <rmsd(smina/fragmenstein)>  (558) 
0.783

>  <smiles>  (558) 
N#CCC(=O)Nc1ccc(F)c(N2CCC(=O)NC2=O)c1

>  <gnina_score>  (558) 
5.262

>  <inspiration_score>  (558) 
None

>  <energy_score>  (558) 
-7.043315

>  <distance_score>  (558) 
1.262058

>  <gnina_score_min>  (558) 
5.266

>  <inchikey>  (558) 
KFMSEZIFGBQEKR-UHFFFAOYSA-N

>  <exports>  (558) 
['/opt/xchem-fragalysis-2/maxwin/BulkDock/OUTPUTS/openbind_a71ev2a_c2_elabs_1LOUU54.sdf', '/opt/xchem-fragalysis-2/maxwin/BulkDock/OUTPUTS/openbind_a71ev2a_c2_elabs_1LSYIDY.sdf']

>  <name>  (558) 
P545884

>  <ref_pdb>  (558) 
A0884a

>  <subsites>  (558) 
None

>  <HIPPO Pose ID>  (558) 
545884

>  <ref_mols>  (558) 
A0884a

>  <HIPPO Compound ID>  (558) 
384449

>  <tags>  (558) 
openbind_a71ev2a_c2_elabs,syndirella_product,openbind_a71ev2a_c2_elabs_fragonly_scored_top80percent,openbind_a71ev2a_c2_elabs_scored,BulkDock Fragalysis export,openbind_a71ev2a_c2_elabs_scored_top80percent,openbind_a71ev2a_c2_elabs_activefrags_only_scored_5.2plus,syndirella_placed

>  <smina_score_min>  (558) 
-6.633

$$$$
P545886
     RDKit          3D

 21 22  0  0  0  0  0  0  0  0999 V2000
    9.0852    9.5561   23.9049 C   0  0  0  0  0  0  0  0  0  0  0  0
    8.8100   10.9962   24.1266 C   0  0  0  0  0  0  0  0  0  0  0  0
    7.7145   11.4463   24.8732 C   0  0  0  0  0  0  0  0  0  0  0  0
    7.4246   12.8100   24.9303 C   0  0  0  0  0  0  0  0  0  0  0  0
    6.3237   13.2954   25.6285 N   0  0  0  0  0  0  0  0  0  0  0  0
    5.3320   12.5666   26.5942 C   0  0  0  0  0  0  0  0  0  0  0  0
    5.3414   11.4696   27.0043 O   0  0  0  0  0  0  0  0  0  0  0  0
    4.2662   13.5932   26.9658 C   0  0  0  0  0  0  0  0  0  0  0  0
    3.0477   12.9344   27.4508 C   0  0  0  0  0  0  0  0  0  0  0  0
    2.0638   12.4221   27.7981 N   0  0  0  0  0  0  0  0  0  0  0  0
    8.2322   13.7192   24.2484 C   0  0  0  0  0  0  0  0  0  0  0  0
    9.3603   13.2670   23.5676 C   0  0  0  0  0  0  0  0  0  0  0  0
   10.1910   14.1754   22.8709 N   0  0  0  0  0  0  0  0  0  0  0  0
    9.6708   14.5778   21.5642 C   0  0  0  0  0  0  0  0  0  0  0  0
   10.6391   15.3629   20.7269 C   0  0  0  0  0  0  0  0  0  0  0  0
   12.0011   14.7673   20.9014 C   0  0  0  0  0  0  0  0  0  0  0  0
   12.7144   14.4054   19.9713 O   0  0  0  0  0  0  0  0  0  0  0  0
   12.3818   14.6830   22.2087 N   0  0  0  0  0  0  0  0  0  0  0  0
   11.5525   14.1474   23.1490 C   0  0  0  0  0  0  0  0  0  0  0  0
   12.0285   13.6548   24.1731 O   0  0  0  0  0  0  0  0  0  0  0  0
    9.6423   11.9096   23.4974 C   0  0  0  0  0  0  0  0  0  0  0  0
  1  2  1  0
  2  3  2  0
  3  4  1  0
  4  5  1  0
  5  6  1  0
  6  7  2  0
  6  8  1  0
  8  9  1  0
  9 10  3  0
  4 11  2  0
 11 12  1  0
 12 13  1  0
 13 14  1  0
 14 15  1  0
 15 16  1  0
 16 17  2  0
 16 18  1  0
 18 19  1  0
 19 20  2  0
 12 21  2  0
 21  2  1  0
 19 13  1  0
M  END
>  <alias>  (559) 
None

>  <rmsd(smina/fragmenstein)>  (559) 
0.828

>  <smiles>  (559) 
Cc1cc(NC(=O)CC#N)cc(N2CCC(=O)NC2=O)c1

>  <gnina_score>  (559) 
5.352

>  <inspiration_score>  (559) 
None

>  <energy_score>  (559) 
-9.985863

>  <distance_score>  (559) 
1.346283

>  <gnina_score_min>  (559) 
5.407

>  <inchikey>  (559) 
PGEDEOFCPUPKGL-UHFFFAOYSA-N

>  <exports>  (559) 
['/opt/xchem-fragalysis-2/maxwin/BulkDock/OUTPUTS/openbind_a71ev2a_c2_elabs_1LOUU54.sdf', '/opt/xchem-fragalysis-2/maxwin/BulkDock/OUTPUTS/openbind_a71ev2a_c2_elabs_1LSYIDY.sdf']

>  <name>  (559) 
P545886

>  <ref_pdb>  (559) 
A0884a

>  <subsites>  (559) 
None

>  <HIPPO Pose ID>  (559) 
545886

>  <ref_mols>  (559) 
A0884a

>  <HIPPO Compound ID>  (559) 
384452

>  <tags>  (559) 
openbind_a71ev2a_c2_elabs,syndirella_product,openbind_a71ev2a_c2_elabs_fragonly_scored_top80percent,openbind_a71ev2a_c2_elabs_scored,BulkDock Fragalysis export,openbind_a71ev2a_c2_elabs_scored_top80percent,openbind_a71ev2a_c2_elabs_activefrags_only_scored_5.2plus,syndirella_placed

>  <smina_score_min>  (559) 
-6.607

$$$$
P545887
     RDKit          3D

 21 22  0  0  0  0  0  0  0  0999 V2000
    1.9908   12.4907   27.6856 N   0  0  0  0  0  0  0  0  0  0  0  0
    2.9933   13.0055   27.4014 C   0  0  0  0  0  0  0  0  0  0  0  0
    4.2444   13.6542   26.9909 C   0  0  0  0  0  0  0  0  0  0  0  0
    5.2868   12.6110   26.5953 C   0  0  0  0  0  0  0  0  0  0  0  0
    5.2616   11.5038   26.9760 O   0  0  0  0  0  0  0  0  0  0  0  0
    6.3065   13.3363   25.6572 N   0  0  0  0  0  0  0  0  0  0  0  0
    7.3995   12.8380   24.9544 C   0  0  0  0  0  0  0  0  0  0  0  0
    7.6781   11.4728   24.9051 C   0  0  0  0  0  0  0  0  0  0  0  0
    8.7657   11.0314   24.1565 C   0  0  0  0  0  0  0  0  0  0  0  0
    9.0718    9.3835   23.9230 Cl  0  0  0  0  0  0  0  0  0  0  0  0
    9.6116   11.9169   23.5194 C   0  0  0  0  0  0  0  0  0  0  0  0
    9.3381   13.2747   23.5804 C   0  0  0  0  0  0  0  0  0  0  0  0
   10.1754   14.1757   22.8813 N   0  0  0  0  0  0  0  0  0  0  0  0
    9.6642   14.5784   21.5703 C   0  0  0  0  0  0  0  0  0  0  0  0
   10.6396   15.3595   20.7377 C   0  0  0  0  0  0  0  0  0  0  0  0
   11.9946   14.7508   20.9160 C   0  0  0  0  0  0  0  0  0  0  0  0
   12.6981   14.3648   19.9895 O   0  0  0  0  0  0  0  0  0  0  0  0
   12.3726   14.6697   22.2245 N   0  0  0  0  0  0  0  0  0  0  0  0
   11.5375   14.1423   23.1636 C   0  0  0  0  0  0  0  0  0  0  0  0
   12.0001   13.6499   24.1940 O   0  0  0  0  0  0  0  0  0  0  0  0
    8.2144   13.7378   24.2649 C   0  0  0  0  0  0  0  0  0  0  0  0
  1  2  3  0
  2  3  1  0
  3  4  1  0
  4  5  2  0
  4  6  1  0
  6  7  1  0
  7  8  2  0
  8  9  1  0
  9 10  1  0
  9 11  2  0
 11 12  1  0
 12 13  1  0
 13 14  1  0
 14 15  1  0
 15 16  1  0
 16 17  2  0
 16 18  1  0
 18 19  1  0
 19 20  2  0
 12 21  2  0
 21  7  1  0
 19 13  1  0
M  END
>  <alias>  (560) 
None

>  <rmsd(smina/fragmenstein)>  (560) 
1.0

>  <smiles>  (560) 
N#CCC(=O)Nc1cc(Cl)cc(N2CCC(=O)NC2=O)c1

>  <gnina_score>  (560) 
5.315

>  <inspiration_score>  (560) 
None

>  <energy_score>  (560) 
-26.11646

>  <distance_score>  (560) 
1.362226

>  <gnina_score_min>  (560) 
5.375

>  <inchikey>  (560) 
ZUBCFGVICRTPGL-UHFFFAOYSA-N

>  <exports>  (560) 
['/opt/xchem-fragalysis-2/maxwin/BulkDock/OUTPUTS/openbind_a71ev2a_c2_elabs_1LOUU54.sdf', '/opt/xchem-fragalysis-2/maxwin/BulkDock/OUTPUTS/openbind_a71ev2a_c2_elabs_1LSYIDY.sdf']

>  <name>  (560) 
P545887

>  <ref_pdb>  (560) 
A0884a

>  <subsites>  (560) 
None

>  <HIPPO Pose ID>  (560) 
545887

>  <ref_mols>  (560) 
A0884a

>  <HIPPO Compound ID>  (560) 
384453

>  <tags>  (560) 
openbind_a71ev2a_c2_elabs,syndirella_product,openbind_a71ev2a_c2_elabs_fragonly_scored_top80percent,openbind_a71ev2a_c2_elabs_scored,BulkDock Fragalysis export,openbind_a71ev2a_c2_elabs_scored_top80percent,openbind_a71ev2a_c2_elabs_activefrags_only_scored_5.2plus,syndirella_placed

>  <smina_score_min>  (560) 
-6.542

$$$$
P545888
     RDKit          3D

 21 22  0  0  0  0  0  0  0  0999 V2000
    3.6202   13.3825   27.5247 N   0  0  0  0  0  0  0  0  0  0  0  0
    3.7565   13.8692   26.4794 C   0  0  0  0  0  0  0  0  0  0  0  0
    3.9090   14.3720   25.1170 C   0  0  0  0  0  0  0  0  0  0  0  0
    5.3548   14.4108   24.6455 C   0  0  0  0  0  0  0  0  0  0  0  0
    5.7633   15.3476   24.0741 O   0  0  0  0  0  0  0  0  0  0  0  0
    6.0369   13.0416   24.9605 N   0  0  0  0  0  0  0  0  0  0  0  0
    7.2721   12.5375   24.5687 C   0  0  0  0  0  0  0  0  0  0  0  0
    8.1518   13.3257   23.8332 C   0  0  0  0  0  0  0  0  0  0  0  0
    9.3478   12.7901   23.3564 C   0  0  0  0  0  0  0  0  0  0  0  0
   10.2373   13.5847   22.5900 N   0  0  0  0  0  0  0  0  0  0  0  0
    9.6876   14.5364   21.6310 C   0  0  0  0  0  0  0  0  0  0  0  0
   10.6513   14.9279   20.5343 C   0  0  0  0  0  0  0  0  0  0  0  0
   12.0607   14.5890   20.8984 C   0  0  0  0  0  0  0  0  0  0  0  0
   12.9110   14.3496   20.0456 O   0  0  0  0  0  0  0  0  0  0  0  0
   12.3231   14.5595   22.2344 N   0  0  0  0  0  0  0  0  0  0  0  0
   11.5436   13.7714   23.0364 C   0  0  0  0  0  0  0  0  0  0  0  0
   12.0122   13.2675   24.0566 O   0  0  0  0  0  0  0  0  0  0  0  0
    9.6353   11.4413   23.5885 C   0  0  0  0  0  0  0  0  0  0  0  0
    8.7537   10.6435   24.3151 C   0  0  0  0  0  0  0  0  0  0  0  0
    7.5966   11.2069   24.8333 C   0  0  0  0  0  0  0  0  0  0  0  0
    6.7539   10.4400   25.5400 F   0  0  0  0  0  0  0  0  0  0  0  0
  1  2  3  0
  2  3  1  0
  3  4  1  0
  4  5  2  0
  4  6  1  0
  6  7  1  0
  7  8  2  0
  8  9  1  0
  9 10  1  0
 10 11  1  0
 11 12  1  0
 12 13  1  0
 13 14  2  0
 13 15  1  0
 15 16  1  0
 16 17  2  0
  9 18  2  0
 18 19  1  0
 19 20  2  0
 20 21  1  0
 20  7  1  0
 16 10  1  0
M  END
>  <alias>  (561) 
None

>  <rmsd(smina/fragmenstein)>  (561) 
0.591

>  <smiles>  (561) 
N#CCC(=O)Nc1cc(N2CCC(=O)NC2=O)ccc1F

>  <gnina_score>  (561) 
5.309

>  <inspiration_score>  (561) 
None

>  <energy_score>  (561) 
-12.657233

>  <distance_score>  (561) 
1.925647

>  <gnina_score_min>  (561) 
5.362

>  <inchikey>  (561) 
BQMXRLFNNKXNKR-UHFFFAOYSA-N

>  <exports>  (561) 
['/opt/xchem-fragalysis-2/maxwin/BulkDock/OUTPUTS/openbind_a71ev2a_c2_elabs_1LOUU54.sdf', '/opt/xchem-fragalysis-2/maxwin/BulkDock/OUTPUTS/openbind_a71ev2a_c2_elabs_1LSYIDY.sdf']

>  <name>  (561) 
P545888

>  <ref_pdb>  (561) 
A0884a

>  <subsites>  (561) 
None

>  <HIPPO Pose ID>  (561) 
545888

>  <ref_mols>  (561) 
A0884a

>  <HIPPO Compound ID>  (561) 
384454

>  <tags>  (561) 
openbind_a71ev2a_c2_elabs,syndirella_product,openbind_a71ev2a_c2_elabs_fragonly_scored_top80percent,openbind_a71ev2a_c2_elabs_scored,BulkDock Fragalysis export,openbind_a71ev2a_c2_elabs_scored_top80percent,openbind_a71ev2a_c2_elabs_activefrags_only_scored_5.2plus,syndirella_placed

>  <smina_score_min>  (561) 
-7.045

$$$$
P545889
     RDKit          3D

 21 22  0  0  0  0  0  0  0  0999 V2000
    9.9864   10.3505   23.0511 C   0  0  0  0  0  0  0  0  0  0  0  0
    9.0768   11.2624   23.8073 C   0  0  0  0  0  0  0  0  0  0  0  0
    8.1704   10.6382   24.6751 C   0  0  0  0  0  0  0  0  0  0  0  0
    7.1977   11.3711   25.3419 C   0  0  0  0  0  0  0  0  0  0  0  0
    7.0991   12.7401   25.1254 C   0  0  0  0  0  0  0  0  0  0  0  0
    6.0587   13.4783   25.6815 N   0  0  0  0  0  0  0  0  0  0  0  0
    4.9358   13.0536   26.6856 C   0  0  0  0  0  0  0  0  0  0  0  0
    4.6751   12.0018   27.1321 O   0  0  0  0  0  0  0  0  0  0  0  0
    4.1048   14.3001   26.9720 C   0  0  0  0  0  0  0  0  0  0  0  0
    2.7289   13.9204   27.3139 C   0  0  0  0  0  0  0  0  0  0  0  0
    1.6338   13.6274   27.5674 N   0  0  0  0  0  0  0  0  0  0  0  0
    8.0179   13.3815   24.2894 C   0  0  0  0  0  0  0  0  0  0  0  0
    9.0357   12.6604   23.6445 C   0  0  0  0  0  0  0  0  0  0  0  0
    9.9797   13.3550   22.8170 N   0  0  0  0  0  0  0  0  0  0  0  0
    9.4684   14.3465   21.8791 C   0  0  0  0  0  0  0  0  0  0  0  0
   10.4616   14.8112   20.8351 C   0  0  0  0  0  0  0  0  0  0  0  0
   11.8765   14.5177   21.2153 C   0  0  0  0  0  0  0  0  0  0  0  0
   12.7775   14.4710   20.3810 O   0  0  0  0  0  0  0  0  0  0  0  0
   12.0972   14.3239   22.5447 N   0  0  0  0  0  0  0  0  0  0  0  0
   11.2663   13.5610   23.3226 C   0  0  0  0  0  0  0  0  0  0  0  0
   11.6854   13.1088   24.3861 O   0  0  0  0  0  0  0  0  0  0  0  0
  1  2  1  0
  2  3  2  0
  3  4  1  0
  4  5  2  0
  5  6  1  0
  6  7  1  0
  7  8  2  0
  7  9  1  0
  9 10  1  0
 10 11  3  0
  5 12  1  0
 12 13  2  0
 13 14  1  0
 14 15  1  0
 15 16  1  0
 16 17  1  0
 17 18  2  0
 17 19  1  0
 19 20  1  0
 20 21  2  0
 13  2  1  0
 20 14  1  0
M  END
>  <alias>  (562) 
None

>  <rmsd(smina/fragmenstein)>  (562) 
0.319

>  <smiles>  (562) 
Cc1ccc(NC(=O)CC#N)cc1N1CCC(=O)NC1=O

>  <gnina_score>  (562) 
5.353

>  <inspiration_score>  (562) 
None

>  <energy_score>  (562) 
-28.954935

>  <distance_score>  (562) 
1.408115

>  <gnina_score_min>  (562) 
5.317

>  <inchikey>  (562) 
PZPKIENJLPJDLW-UHFFFAOYSA-N

>  <exports>  (562) 
['/opt/xchem-fragalysis-2/maxwin/BulkDock/OUTPUTS/openbind_a71ev2a_c2_elabs_1LOUU54.sdf', '/opt/xchem-fragalysis-2/maxwin/BulkDock/OUTPUTS/openbind_a71ev2a_c2_elabs_1LSYIDY.sdf']

>  <name>  (562) 
P545889

>  <ref_pdb>  (562) 
A0884a

>  <subsites>  (562) 
None

>  <HIPPO Pose ID>  (562) 
545889

>  <ref_mols>  (562) 
A0884a

>  <HIPPO Compound ID>  (562) 
384455

>  <tags>  (562) 
openbind_a71ev2a_c2_elabs,syndirella_product,openbind_a71ev2a_c2_elabs_fragonly_scored_top80percent,openbind_a71ev2a_c2_elabs_scored,BulkDock Fragalysis export,openbind_a71ev2a_c2_elabs_scored_top80percent,openbind_a71ev2a_c2_elabs_activefrags_only_scored_5.2plus,syndirella_placed

>  <smina_score_min>  (562) 
-6.426

$$$$
P545891
     RDKit          3D

 21 22  0  0  0  0  0  0  0  0999 V2000
    1.4343   13.5169   27.1192 N   0  0  0  0  0  0  0  0  0  0  0  0
    2.5159   13.8945   26.9267 C   0  0  0  0  0  0  0  0  0  0  0  0
    3.8784   14.3700   26.6582 C   0  0  0  0  0  0  0  0  0  0  0  0
    4.8359   13.1852   26.5837 C   0  0  0  0  0  0  0  0  0  0  0  0
    4.6539   12.1860   27.1678 O   0  0  0  0  0  0  0  0  0  0  0  0
    5.9836   13.5890   25.5999 N   0  0  0  0  0  0  0  0  0  0  0  0
    7.0385   12.8405   25.0876 C   0  0  0  0  0  0  0  0  0  0  0  0
    7.1378   11.4779   25.3539 C   0  0  0  0  0  0  0  0  0  0  0  0
    8.1264   10.7254   24.7342 C   0  0  0  0  0  0  0  0  0  0  0  0
    9.0440   11.3355   23.8791 C   0  0  0  0  0  0  0  0  0  0  0  0
   10.0607   10.2643   23.0213 Cl  0  0  0  0  0  0  0  0  0  0  0  0
    9.0029   12.7214   23.6451 C   0  0  0  0  0  0  0  0  0  0  0  0
    9.9599   13.3895   22.8065 N   0  0  0  0  0  0  0  0  0  0  0  0
    9.4707   14.3685   21.8455 C   0  0  0  0  0  0  0  0  0  0  0  0
   10.4796   14.8139   20.8094 C   0  0  0  0  0  0  0  0  0  0  0  0
   11.8876   14.4974   21.1949 C   0  0  0  0  0  0  0  0  0  0  0  0
   12.7896   14.4477   20.3622 O   0  0  0  0  0  0  0  0  0  0  0  0
   12.1031   14.2948   22.5239 N   0  0  0  0  0  0  0  0  0  0  0  0
   11.2490   13.5697   23.3114 C   0  0  0  0  0  0  0  0  0  0  0  0
   11.6411   13.1380   24.3938 O   0  0  0  0  0  0  0  0  0  0  0  0
    7.9689   13.4589   24.2446 C   0  0  0  0  0  0  0  0  0  0  0  0
  1  2  3  0
  2  3  1  0
  3  4  1  0
  4  5  2  0
  4  6  1  0
  6  7  1  0
  7  8  2  0
  8  9  1  0
  9 10  2  0
 10 11  1  0
 10 12  1  0
 12 13  1  0
 13 14  1  0
 14 15  1  0
 15 16  1  0
 16 17  2  0
 16 18  1  0
 18 19  1  0
 19 20  2  0
 12 21  2  0
 21  7  1  0
 19 13  1  0
M  END
>  <alias>  (563) 
None

>  <rmsd(smina/fragmenstein)>  (563) 
0.44

>  <smiles>  (563) 
N#CCC(=O)Nc1ccc(Cl)c(N2CCC(=O)NC2=O)c1

>  <gnina_score>  (563) 
5.566

>  <inspiration_score>  (563) 
None

>  <energy_score>  (563) 
-29.37606

>  <distance_score>  (563) 
1.4946

>  <gnina_score_min>  (563) 
5.48

>  <inchikey>  (563) 
KPFJYYOAKBUEOI-UHFFFAOYSA-N

>  <exports>  (563) 
['/opt/xchem-fragalysis-2/maxwin/BulkDock/OUTPUTS/openbind_a71ev2a_c2_elabs_1LOUU54.sdf', '/opt/xchem-fragalysis-2/maxwin/BulkDock/OUTPUTS/openbind_a71ev2a_c2_elabs_1LSYIDY.sdf']

>  <name>  (563) 
P545891

>  <ref_pdb>  (563) 
A0884a

>  <subsites>  (563) 
None

>  <HIPPO Pose ID>  (563) 
545891

>  <ref_mols>  (563) 
A0884a

>  <HIPPO Compound ID>  (563) 
384457

>  <tags>  (563) 
openbind_a71ev2a_c2_elabs,syndirella_product,openbind_a71ev2a_c2_elabs_fragonly_scored_top80percent,openbind_a71ev2a_c2_elabs_scored,BulkDock Fragalysis export,openbind_a71ev2a_c2_elabs_scored_top80percent,openbind_a71ev2a_c2_elabs_activefrags_only_scored_5.2plus,syndirella_placed

>  <smina_score_min>  (563) 
-6.384

$$$$
P545892
     RDKit          3D

 21 22  0  0  0  0  0  0  0  0999 V2000
    2.4066   11.9518   28.0336 N   0  0  0  0  0  0  0  0  0  0  0  0
    3.3927   12.4729   27.7073 C   0  0  0  0  0  0  0  0  0  0  0  0
    4.5982   13.1638   27.2395 C   0  0  0  0  0  0  0  0  0  0  0  0
    5.6214   12.1820   26.6730 C   0  0  0  0  0  0  0  0  0  0  0  0
    5.6652   11.0501   26.9669 O   0  0  0  0  0  0  0  0  0  0  0  0
    6.5473   13.0203   25.7335 N   0  0  0  0  0  0  0  0  0  0  0  0
    7.6113   12.6257   24.9275 C   0  0  0  0  0  0  0  0  0  0  0  0
    7.9755   11.2857   24.7562 C   0  0  0  0  0  0  0  0  0  0  0  0
    9.0556   10.9877   23.9274 C   0  0  0  0  0  0  0  0  0  0  0  0
    9.6168    9.2685   23.4905 Br  0  0  0  0  0  0  0  0  0  0  0  0
    9.7913   11.9845   23.3254 C   0  0  0  0  0  0  0  0  0  0  0  0
    9.4311   13.3066   23.5038 C   0  0  0  0  0  0  0  0  0  0  0  0
   10.1891   14.2944   22.8356 N   0  0  0  0  0  0  0  0  0  0  0  0
    9.6656   14.6359   21.5089 C   0  0  0  0  0  0  0  0  0  0  0  0
   10.6143   15.4255   20.6556 C   0  0  0  0  0  0  0  0  0  0  0  0
   11.9825   14.8461   20.8419 C   0  0  0  0  0  0  0  0  0  0  0  0
   12.6863   14.4310   19.9271 O   0  0  0  0  0  0  0  0  0  0  0  0
   12.3748   14.8188   22.1483 N   0  0  0  0  0  0  0  0  0  0  0  0
   11.5567   14.3058   23.1084 C   0  0  0  0  0  0  0  0  0  0  0  0
   12.0371   13.8396   24.1440 O   0  0  0  0  0  0  0  0  0  0  0  0
    8.3234   13.6365   24.2738 C   0  0  0  0  0  0  0  0  0  0  0  0
  1  2  3  0
  2  3  1  0
  3  4  1  0
  4  5  2  0
  4  6  1  0
  6  7  1  0
  7  8  2  0
  8  9  1  0
  9 10  1  0
  9 11  2  0
 11 12  1  0
 12 13  1  0
 13 14  1  0
 14 15  1  0
 15 16  1  0
 16 17  2  0
 16 18  1  0
 18 19  1  0
 19 20  2  0
 12 21  2  0
 21  7  1  0
 19 13  1  0
M  END
>  <alias>  (564) 
None

>  <rmsd(smina/fragmenstein)>  (564) 
0.635

>  <smiles>  (564) 
N#CCC(=O)Nc1cc(Br)cc(N2CCC(=O)NC2=O)c1

>  <gnina_score>  (564) 
5.395

>  <inspiration_score>  (564) 
None

>  <energy_score>  (564) 
-26.121114

>  <distance_score>  (564) 
1.291044

>  <gnina_score_min>  (564) 
5.465

>  <inchikey>  (564) 
HXDFLFMYIAHIPV-UHFFFAOYSA-N

>  <exports>  (564) 
['/opt/xchem-fragalysis-2/maxwin/BulkDock/OUTPUTS/openbind_a71ev2a_c2_elabs_1LOUU54.sdf', '/opt/xchem-fragalysis-2/maxwin/BulkDock/OUTPUTS/openbind_a71ev2a_c2_elabs_1LSYIDY.sdf']

>  <name>  (564) 
P545892

>  <ref_pdb>  (564) 
A0884a

>  <subsites>  (564) 
None

>  <HIPPO Pose ID>  (564) 
545892

>  <ref_mols>  (564) 
A0884a

>  <HIPPO Compound ID>  (564) 
384458

>  <tags>  (564) 
openbind_a71ev2a_c2_elabs,syndirella_product,openbind_a71ev2a_c2_elabs_fragonly_scored_top80percent,openbind_a71ev2a_c2_elabs_scored,BulkDock Fragalysis export,openbind_a71ev2a_c2_elabs_scored_top80percent,openbind_a71ev2a_c2_elabs_activefrags_only_scored_5.2plus,syndirella_placed

>  <smina_score_min>  (564) 
-6.262

$$$$
P545893
     RDKit          3D

 21 22  0  0  0  0  0  0  0  0999 V2000
    7.9233   14.5636   24.3385 C   0  0  0  0  0  0  0  0  0  0  0  0
    8.1354   13.0767   24.3607 C   0  0  0  0  0  0  0  0  0  0  0  0
    7.2850   12.2491   25.1267 C   0  0  0  0  0  0  0  0  0  0  0  0
    6.2505   12.8074   25.8857 N   0  0  0  0  0  0  0  0  0  0  0  0
    5.2934   12.1519   26.9339 C   0  0  0  0  0  0  0  0  0  0  0  0
    5.2796   11.0665   27.3738 O   0  0  0  0  0  0  0  0  0  0  0  0
    4.2988   13.2304   27.3580 C   0  0  0  0  0  0  0  0  0  0  0  0
    2.9962   12.6307   27.6701 C   0  0  0  0  0  0  0  0  0  0  0  0
    1.9510   12.1631   27.8687 N   0  0  0  0  0  0  0  0  0  0  0  0
    7.4786   10.8669   25.1356 C   0  0  0  0  0  0  0  0  0  0  0  0
    8.5016   10.2915   24.3887 C   0  0  0  0  0  0  0  0  0  0  0  0
    9.3899   11.0935   23.6923 C   0  0  0  0  0  0  0  0  0  0  0  0
    9.2378   12.4850   23.7016 C   0  0  0  0  0  0  0  0  0  0  0  0
   10.3367   13.2236   23.1881 N   0  0  0  0  0  0  0  0  0  0  0  0
   11.3825   13.4637   24.0538 C   0  0  0  0  0  0  0  0  0  0  0  0
   11.3032   13.5110   25.2777 O   0  0  0  0  0  0  0  0  0  0  0  0
   12.6690   13.7152   23.3520 C   0  0  0  0  0  0  0  0  0  0  0  0
   12.4530   14.9381   22.5198 C   0  0  0  0  0  0  0  0  0  0  0  0
   11.3053   14.7392   21.6924 N   0  0  0  0  0  0  0  0  0  0  0  0
   10.2342   13.9766   22.0421 C   0  0  0  0  0  0  0  0  0  0  0  0
    9.2429   14.0388   21.3270 O   0  0  0  0  0  0  0  0  0  0  0  0
  1  2  1  0
  2  3  2  0
  3  4  1  0
  4  5  1  0
  5  6  2  0
  5  7  1  0
  7  8  1  0
  8  9  3  0
  3 10  1  0
 10 11  2  0
 11 12  1  0
 12 13  2  0
 13 14  1  0
 14 15  1  0
 15 16  2  0
 15 17  1  0
 17 18  1  0
 18 19  1  0
 19 20  1  0
 20 21  2  0
 13  2  1  0
 20 14  1  0
M  END
>  <alias>  (565) 
None

>  <rmsd(smina/fragmenstein)>  (565) 
0.846

>  <smiles>  (565) 
Cc1c(NC(=O)CC#N)cccc1N1C(=O)CCNC1=O

>  <gnina_score>  (565) 
5.358

>  <inspiration_score>  (565) 
None

>  <energy_score>  (565) 
-13.616119

>  <distance_score>  (565) 
1.665369

>  <gnina_score_min>  (565) 
5.27

>  <inchikey>  (565) 
OEYKBQCHAZYKLM-UHFFFAOYSA-N

>  <exports>  (565) 
['/opt/xchem-fragalysis-2/maxwin/BulkDock/OUTPUTS/openbind_a71ev2a_c2_elabs_1LOUU54.sdf', '/opt/xchem-fragalysis-2/maxwin/BulkDock/OUTPUTS/openbind_a71ev2a_c2_elabs_1LSYIDY.sdf']

>  <name>  (565) 
P545893

>  <ref_pdb>  (565) 
A0884a

>  <subsites>  (565) 
None

>  <HIPPO Pose ID>  (565) 
545893

>  <ref_mols>  (565) 
A0884a

>  <HIPPO Compound ID>  (565) 
384459

>  <tags>  (565) 
openbind_a71ev2a_c2_elabs,syndirella_product,openbind_a71ev2a_c2_elabs_fragonly_scored_top80percent,openbind_a71ev2a_c2_elabs_scored,BulkDock Fragalysis export,openbind_a71ev2a_c2_elabs_scored_top80percent,openbind_a71ev2a_c2_elabs_activefrags_only_scored_5.2plus,syndirella_placed

>  <smina_score_min>  (565) 
-6.282

$$$$
P545898
     RDKit          3D

 21 22  0  0  0  0  0  0  0  0999 V2000
    2.4253   12.8507   28.8325 C   0  0  0  0  0  0  0  0  0  0  0  0
    3.3395   13.0839   27.9405 C   0  0  0  0  0  0  0  0  0  0  0  0
    4.2579   13.3153   27.0478 C   0  0  0  0  0  0  0  0  0  0  0  0
    5.2815   12.2779   26.7133 C   0  0  0  0  0  0  0  0  0  0  0  0
    5.2822   11.2178   27.2040 O   0  0  0  0  0  0  0  0  0  0  0  0
    6.2516   12.9075   25.6777 N   0  0  0  0  0  0  0  0  0  0  0  0
    7.3302   12.3468   24.9857 C   0  0  0  0  0  0  0  0  0  0  0  0
    7.5479   10.9704   25.0568 C   0  0  0  0  0  0  0  0  0  0  0  0
    8.6236   10.4053   24.3896 C   0  0  0  0  0  0  0  0  0  0  0  0
    9.5455   11.2265   23.7637 C   0  0  0  0  0  0  0  0  0  0  0  0
   10.6008   10.6485   23.1920 F   0  0  0  0  0  0  0  0  0  0  0  0
    9.3929   12.6130   23.7119 C   0  0  0  0  0  0  0  0  0  0  0  0
   10.4686   13.3906   23.2195 N   0  0  0  0  0  0  0  0  0  0  0  0
   10.4925   14.0785   22.0412 C   0  0  0  0  0  0  0  0  0  0  0  0
    9.5753   14.2286   21.2513 O   0  0  0  0  0  0  0  0  0  0  0  0
   11.8725   14.6540   21.8216 C   0  0  0  0  0  0  0  0  0  0  0  0
   12.5358   14.2071   22.9954 N   0  0  0  0  0  0  0  0  0  0  0  0
   11.7134   13.4422   23.7820 C   0  0  0  0  0  0  0  0  0  0  0  0
   12.0901   12.9821   24.8451 O   0  0  0  0  0  0  0  0  0  0  0  0
    8.2040   13.1735   24.2331 C   0  0  0  0  0  0  0  0  0  0  0  0
    7.8918   14.6341   24.0876 C   0  0  0  0  0  0  0  0  0  0  0  0
  1  2  2  0
  2  3  2  0
  3  4  1  0
  4  5  2  0
  4  6  1  0
  6  7  1  0
  7  8  2  0
  8  9  1  0
  9 10  2  0
 10 11  1  0
 10 12  1  0
 12 13  1  0
 13 14  1  0
 14 15  2  0
 14 16  1  0
 16 17  1  0
 17 18  1  0
 18 19  2  0
 12 20  2  0
 20 21  1  0
 20  7  1  0
 18 13  1  0
M  END
>  <alias>  (566) 
None

>  <rmsd(smina/fragmenstein)>  (566) 
0.691

>  <smiles>  (566) 
C=C=CC(=O)Nc1ccc(F)c(N2C(=O)CNC2=O)c1C

>  <gnina_score>  (566) 
5.301

>  <inspiration_score>  (566) 
None

>  <energy_score>  (566) 
-46.175653

>  <distance_score>  (566) 
1.605222

>  <gnina_score_min>  (566) 
5.256

>  <inchikey>  (566) 
XINFTBLACZUMMH-UHFFFAOYSA-N

>  <exports>  (566) 
['/opt/xchem-fragalysis-2/maxwin/BulkDock/OUTPUTS/openbind_a71ev2a_c2_elabs_1LOUU54.sdf', '/opt/xchem-fragalysis-2/maxwin/BulkDock/OUTPUTS/openbind_a71ev2a_c2_elabs_1LSYIDY.sdf']

>  <name>  (566) 
P545898

>  <ref_pdb>  (566) 
A0884a

>  <subsites>  (566) 
None

>  <HIPPO Pose ID>  (566) 
545898

>  <ref_mols>  (566) 
A0884a

>  <HIPPO Compound ID>  (566) 
384474

>  <tags>  (566) 
openbind_a71ev2a_c2_elabs,syndirella_product,openbind_a71ev2a_c2_elabs_fragonly_scored_top80percent,openbind_a71ev2a_c2_elabs_scored,BulkDock Fragalysis export,openbind_a71ev2a_c2_elabs_scored_top80percent,openbind_a71ev2a_c2_elabs_activefrags_only_scored_5.2plus,syndirella_placed

>  <smina_score_min>  (566) 
-6.527

$$$$
P545900
     RDKit          3D

 21 22  0  0  0  0  0  0  0  0999 V2000
    4.0534   12.5370   28.5235 C   0  0  0  0  0  0  0  0  0  0  0  0
    4.6647   13.5180   27.9311 C   0  0  0  0  0  0  0  0  0  0  0  0
    5.2624   14.5200   27.3566 C   0  0  0  0  0  0  0  0  0  0  0  0
    6.4077   14.4259   26.4022 C   0  0  0  0  0  0  0  0  0  0  0  0
    6.9827   15.3967   26.1022 O   0  0  0  0  0  0  0  0  0  0  0  0
    6.5969   12.9618   25.9331 N   0  0  0  0  0  0  0  0  0  0  0  0
    7.5567   12.3977   25.1025 C   0  0  0  0  0  0  0  0  0  0  0  0
    7.6636   11.0139   25.0350 C   0  0  0  0  0  0  0  0  0  0  0  0
    8.6630   10.4506   24.2506 C   0  0  0  0  0  0  0  0  0  0  0  0
    8.7749    9.1207   24.2103 F   0  0  0  0  0  0  0  0  0  0  0  0
    9.5392   11.2334   23.5123 C   0  0  0  0  0  0  0  0  0  0  0  0
    9.4024   12.6192   23.5464 C   0  0  0  0  0  0  0  0  0  0  0  0
   10.2491   13.4212   22.7415 N   0  0  0  0  0  0  0  0  0  0  0  0
    9.6264   14.3795   21.8384 C   0  0  0  0  0  0  0  0  0  0  0  0
   10.5509   14.8892   20.7531 C   0  0  0  0  0  0  0  0  0  0  0  0
   11.9846   14.5968   21.0665 C   0  0  0  0  0  0  0  0  0  0  0  0
   12.8330   14.4556   20.1907 O   0  0  0  0  0  0  0  0  0  0  0  0
   12.2797   14.5133   22.3942 N   0  0  0  0  0  0  0  0  0  0  0  0
   11.5349   13.6947   23.1997 C   0  0  0  0  0  0  0  0  0  0  0  0
   12.0225   13.2332   24.2300 O   0  0  0  0  0  0  0  0  0  0  0  0
    8.4148   13.1995   24.3478 C   0  0  0  0  0  0  0  0  0  0  0  0
  1  2  2  0
  2  3  2  0
  3  4  1  0
  4  5  2  0
  4  6  1  0
  6  7  1  0
  7  8  2  0
  8  9  1  0
  9 10  1  0
  9 11  2  0
 11 12  1  0
 12 13  1  0
 13 14  1  0
 14 15  1  0
 15 16  1  0
 16 17  2  0
 16 18  1  0
 18 19  1  0
 19 20  2  0
 12 21  2  0
 21  7  1  0
 19 13  1  0
M  END
>  <alias>  (567) 
None

>  <rmsd(smina/fragmenstein)>  (567) 
0.569

>  <smiles>  (567) 
C=C=CC(=O)Nc1cc(F)cc(N2CCC(=O)NC2=O)c1

>  <gnina_score>  (567) 
5.181

>  <inspiration_score>  (567) 
None

>  <energy_score>  (567) 
-51.004326

>  <distance_score>  (567) 
1.505283

>  <gnina_score_min>  (567) 
5.291

>  <inchikey>  (567) 
LWKXYCCKFGZVPL-UHFFFAOYSA-N

>  <exports>  (567) 
['/opt/xchem-fragalysis-2/maxwin/BulkDock/OUTPUTS/openbind_a71ev2a_c2_elabs_1LOUU54.sdf', '/opt/xchem-fragalysis-2/maxwin/BulkDock/OUTPUTS/openbind_a71ev2a_c2_elabs_1LSYIDY.sdf']

>  <name>  (567) 
P545900

>  <ref_pdb>  (567) 
A0884a

>  <subsites>  (567) 
None

>  <HIPPO Pose ID>  (567) 
545900

>  <ref_mols>  (567) 
A0884a

>  <HIPPO Compound ID>  (567) 
384476

>  <tags>  (567) 
openbind_a71ev2a_c2_elabs,syndirella_product,openbind_a71ev2a_c2_elabs_fragonly_scored_top80percent,openbind_a71ev2a_c2_elabs_scored,BulkDock Fragalysis export,openbind_a71ev2a_c2_elabs_scored_top80percent,openbind_a71ev2a_c2_elabs_activefrags_only_scored_5.2plus,syndirella_placed

>  <smina_score_min>  (567) 
-7.018

$$$$
P545901
     RDKit          3D

 21 22  0  0  0  0  0  0  0  0999 V2000
    2.8000   12.7546   29.1032 C   0  0  0  0  0  0  0  0  0  0  0  0
    3.6029   12.9248   28.0972 C   0  0  0  0  0  0  0  0  0  0  0  0
    4.4093   13.0915   27.0895 C   0  0  0  0  0  0  0  0  0  0  0  0
    5.4433   12.0643   26.7556 C   0  0  0  0  0  0  0  0  0  0  0  0
    5.5575   11.0705   27.3586 O   0  0  0  0  0  0  0  0  0  0  0  0
    6.2317   12.5914   25.5265 N   0  0  0  0  0  0  0  0  0  0  0  0
    7.3477   12.0632   24.8688 C   0  0  0  0  0  0  0  0  0  0  0  0
    7.6034   10.7028   25.0055 C   0  0  0  0  0  0  0  0  0  0  0  0
    8.6506   10.1154   24.3129 C   0  0  0  0  0  0  0  0  0  0  0  0
    9.5136   10.8843   23.5545 C   0  0  0  0  0  0  0  0  0  0  0  0
    9.3366   12.2653   23.4546 C   0  0  0  0  0  0  0  0  0  0  0  0
   10.4235   13.0036   22.9105 N   0  0  0  0  0  0  0  0  0  0  0  0
   10.3637   14.2124   22.2964 C   0  0  0  0  0  0  0  0  0  0  0  0
    9.5738   14.5995   21.4584 O   0  0  0  0  0  0  0  0  0  0  0  0
   11.3838   15.0063   22.7500 N   0  0  0  0  0  0  0  0  0  0  0  0
   12.1868   14.3165   23.6853 C   0  0  1  0  0  0  0  0  0  0  0  0
   11.8575   14.6229   25.1512 C   0  0  0  0  0  0  0  0  0  0  0  0
   11.6519   12.9369   23.5101 C   0  0  0  0  0  0  0  0  0  0  0  0
   12.2175   12.0041   24.0529 O   0  0  0  0  0  0  0  0  0  0  0  0
    8.1965   12.8679   24.0705 C   0  0  0  0  0  0  0  0  0  0  0  0
    7.9349   14.3460   23.9613 C   0  0  0  0  0  0  0  0  0  0  0  0
  1  2  2  0
  2  3  2  0
  3  4  1  0
  4  5  2  0
  4  6  1  0
  6  7  1  0
  7  8  2  0
  8  9  1  0
  9 10  2  0
 10 11  1  0
 11 12  1  0
 12 13  1  0
 13 14  2  0
 13 15  1  0
 15 16  1  0
 16 17  1  1
 16 18  1  0
 18 19  2  0
 11 20  2  0
 20 21  1  0
 20  7  1  0
 18 12  1  0
M  END
>  <alias>  (568) 
None

>  <rmsd(smina/fragmenstein)>  (568) 
0.564

>  <smiles>  (568) 
C=C=CC(=O)Nc1cccc(N2C(=O)N[C@@H](C)C2=O)c1C

>  <gnina_score>  (568) 
5.256

>  <inspiration_score>  (568) 
None

>  <energy_score>  (568) 
-3.475308

>  <distance_score>  (568) 
1.455028

>  <gnina_score_min>  (568) 
5.299

>  <inchikey>  (568) 
BEJVZLGXYCDVCG-JTQLQIEISA-N

>  <exports>  (568) 
['/opt/xchem-fragalysis-2/maxwin/BulkDock/OUTPUTS/openbind_a71ev2a_c2_elabs_1LOUU54.sdf', '/opt/xchem-fragalysis-2/maxwin/BulkDock/OUTPUTS/openbind_a71ev2a_c2_elabs_1LSYIDY.sdf']

>  <name>  (568) 
P545901

>  <ref_pdb>  (568) 
A0884a

>  <subsites>  (568) 
None

>  <HIPPO Pose ID>  (568) 
545901

>  <ref_mols>  (568) 
A0884a

>  <HIPPO Compound ID>  (568) 
384477

>  <tags>  (568) 
openbind_a71ev2a_c2_elabs,syndirella_product,openbind_a71ev2a_c2_elabs_fragonly_scored_top80percent,openbind_a71ev2a_c2_elabs_scored,BulkDock Fragalysis export,openbind_a71ev2a_c2_elabs_scored_top80percent,openbind_a71ev2a_c2_elabs_activefrags_only_scored_5.2plus,syndirella_placed

>  <smina_score_min>  (568) 
-5.174

$$$$
P545902
     RDKit          3D

 21 22  0  0  0  0  0  0  0  0999 V2000
    4.3228   12.6686   28.8915 C   0  0  0  0  0  0  0  0  0  0  0  0
    4.9666   13.6275   28.2977 C   0  0  0  0  0  0  0  0  0  0  0  0
    5.5960   14.6098   27.7233 C   0  0  0  0  0  0  0  0  0  0  0  0
    6.6742   14.4791   26.6981 C   0  0  0  0  0  0  0  0  0  0  0  0
    7.2899   15.4238   26.3929 O   0  0  0  0  0  0  0  0  0  0  0  0
    6.7434   13.0218   26.1726 N   0  0  0  0  0  0  0  0  0  0  0  0
    7.6148   12.4300   25.2669 C   0  0  0  0  0  0  0  0  0  0  0  0
    7.6221   11.0399   25.1387 C   0  0  0  0  0  0  0  0  0  0  0  0
    8.5371   10.4316   24.2803 C   0  0  0  0  0  0  0  0  0  0  0  0
    9.4064   11.2122   23.5290 C   0  0  0  0  0  0  0  0  0  0  0  0
   10.2090   10.6022   22.6525 F   0  0  0  0  0  0  0  0  0  0  0  0
    9.3787   12.6038   23.6177 C   0  0  0  0  0  0  0  0  0  0  0  0
   10.2289   13.3875   22.7953 N   0  0  0  0  0  0  0  0  0  0  0  0
    9.6019   14.3388   21.8919 C   0  0  0  0  0  0  0  0  0  0  0  0
   10.5252   14.8622   20.8131 C   0  0  0  0  0  0  0  0  0  0  0  0
   11.9637   14.5903   21.1252 C   0  0  0  0  0  0  0  0  0  0  0  0
   12.8166   14.5028   20.2465 O   0  0  0  0  0  0  0  0  0  0  0  0
   12.2603   14.4777   22.4503 N   0  0  0  0  0  0  0  0  0  0  0  0
   11.5069   13.6728   23.2623 C   0  0  0  0  0  0  0  0  0  0  0  0
   11.9795   13.2400   24.3117 O   0  0  0  0  0  0  0  0  0  0  0  0
    8.4842   13.2101   24.5009 C   0  0  0  0  0  0  0  0  0  0  0  0
  1  2  2  0
  2  3  2  0
  3  4  1  0
  4  5  2  0
  4  6  1  0
  6  7  1  0
  7  8  2  0
  8  9  1  0
  9 10  2  0
 10 11  1  0
 10 12  1  0
 12 13  1  0
 13 14  1  0
 14 15  1  0
 15 16  1  0
 16 17  2  0
 16 18  1  0
 18 19  1  0
 19 20  2  0
 12 21  2  0
 21  7  1  0
 19 13  1  0
M  END
>  <alias>  (569) 
None

>  <rmsd(smina/fragmenstein)>  (569) 
0.296

>  <smiles>  (569) 
C=C=CC(=O)Nc1ccc(F)c(N2CCC(=O)NC2=O)c1

>  <gnina_score>  (569) 
5.299

>  <inspiration_score>  (569) 
None

>  <energy_score>  (569) 
-20.384343

>  <distance_score>  (569) 
1.55012

>  <gnina_score_min>  (569) 
5.269

>  <inchikey>  (569) 
JGPBPUYCEURJEE-UHFFFAOYSA-N

>  <exports>  (569) 
['/opt/xchem-fragalysis-2/maxwin/BulkDock/OUTPUTS/openbind_a71ev2a_c2_elabs_1LOUU54.sdf', '/opt/xchem-fragalysis-2/maxwin/BulkDock/OUTPUTS/openbind_a71ev2a_c2_elabs_1LSYIDY.sdf']

>  <name>  (569) 
P545902

>  <ref_pdb>  (569) 
A0884a

>  <subsites>  (569) 
None

>  <HIPPO Pose ID>  (569) 
545902

>  <ref_mols>  (569) 
A0884a

>  <HIPPO Compound ID>  (569) 
384479

>  <tags>  (569) 
openbind_a71ev2a_c2_elabs,syndirella_product,openbind_a71ev2a_c2_elabs_fragonly_scored_top80percent,openbind_a71ev2a_c2_elabs_scored,BulkDock Fragalysis export,openbind_a71ev2a_c2_elabs_scored_top80percent,openbind_a71ev2a_c2_elabs_activefrags_only_scored_5.2plus,syndirella_placed

>  <smina_score_min>  (569) 
-6.895

$$$$
P545905
     RDKit          3D

 21 22  0  0  0  0  0  0  0  0999 V2000
    4.5335   16.2139   26.8985 C   0  0  0  0  0  0  0  0  0  0  0  0
    4.4883   14.9263   27.0631 C   0  0  0  0  0  0  0  0  0  0  0  0
    4.4370   13.6381   27.2335 C   0  0  0  0  0  0  0  0  0  0  0  0
    5.4095   12.6418   26.6878 C   0  0  0  0  0  0  0  0  0  0  0  0
    5.2958   11.5142   26.9736 O   0  0  0  0  0  0  0  0  0  0  0  0
    6.4578   13.3503   25.7939 N   0  0  0  0  0  0  0  0  0  0  0  0
    7.4875   12.8253   25.0194 C   0  0  0  0  0  0  0  0  0  0  0  0
    7.7349   11.4566   24.9249 C   0  0  0  0  0  0  0  0  0  0  0  0
    8.7975   10.9941   24.1370 C   0  0  0  0  0  0  0  0  0  0  0  0
    9.0504    9.5515   23.9080 C   0  0  0  0  0  0  0  0  0  0  0  0
    9.6289   11.8967   23.4886 C   0  0  0  0  0  0  0  0  0  0  0  0
    9.3806   13.2579   23.5878 C   0  0  0  0  0  0  0  0  0  0  0  0
   10.2073   14.1630   22.8840 N   0  0  0  0  0  0  0  0  0  0  0  0
    9.6823   14.5592   21.5778 C   0  0  0  0  0  0  0  0  0  0  0  0
   10.6450   15.3476   20.7376 C   0  0  0  0  0  0  0  0  0  0  0  0
   12.0058   14.7489   20.9064 C   0  0  0  0  0  0  0  0  0  0  0  0
   12.7071   14.3718   19.9738 O   0  0  0  0  0  0  0  0  0  0  0  0
   12.3940   14.6716   22.2120 N   0  0  0  0  0  0  0  0  0  0  0  0
   11.5697   14.1352   23.1567 C   0  0  0  0  0  0  0  0  0  0  0  0
   12.0486   13.6445   24.1803 O   0  0  0  0  0  0  0  0  0  0  0  0
    8.2943   13.7245   24.3217 C   0  0  0  0  0  0  0  0  0  0  0  0
  1  2  2  0
  2  3  2  0
  3  4  1  0
  4  5  2  0
  4  6  1  0
  6  7  1  0
  7  8  2  0
  8  9  1  0
  9 10  1  0
  9 11  2  0
 11 12  1  0
 12 13  1  0
 13 14  1  0
 14 15  1  0
 15 16  1  0
 16 17  2  0
 16 18  1  0
 18 19  1  0
 19 20  2  0
 12 21  2  0
 21  7  1  0
 19 13  1  0
M  END
>  <alias>  (570) 
None

>  <rmsd(smina/fragmenstein)>  (570) 
0.652

>  <smiles>  (570) 
C=C=CC(=O)Nc1cc(C)cc(N2CCC(=O)NC2=O)c1

>  <gnina_score>  (570) 
5.429

>  <inspiration_score>  (570) 
None

>  <energy_score>  (570) 
-20.663887

>  <distance_score>  (570) 
1.316326

>  <gnina_score_min>  (570) 
5.458

>  <inchikey>  (570) 
JYIDDAXUYDJOMQ-UHFFFAOYSA-N

>  <exports>  (570) 
['/opt/xchem-fragalysis-2/maxwin/BulkDock/OUTPUTS/openbind_a71ev2a_c2_elabs_1LOUU54.sdf', '/opt/xchem-fragalysis-2/maxwin/BulkDock/OUTPUTS/openbind_a71ev2a_c2_elabs_1LSYIDY.sdf']

>  <name>  (570) 
P545905

>  <ref_pdb>  (570) 
A0884a

>  <subsites>  (570) 
None

>  <HIPPO Pose ID>  (570) 
545905

>  <ref_mols>  (570) 
A0884a

>  <HIPPO Compound ID>  (570) 
384482

>  <tags>  (570) 
openbind_a71ev2a_c2_elabs,syndirella_product,openbind_a71ev2a_c2_elabs_fragonly_scored_top80percent,openbind_a71ev2a_c2_elabs_scored,BulkDock Fragalysis export,openbind_a71ev2a_c2_elabs_scored_top80percent,openbind_a71ev2a_c2_elabs_activefrags_only_scored_5.2plus,syndirella_placed

>  <smina_score_min>  (570) 
-6.909

$$$$
P545906
     RDKit          3D

 21 22  0  0  0  0  0  0  0  0999 V2000
    2.8962   12.3605   29.0914 C   0  0  0  0  0  0  0  0  0  0  0  0
    3.7241   12.7463   28.1686 C   0  0  0  0  0  0  0  0  0  0  0  0
    4.5564   13.1277   27.2436 C   0  0  0  0  0  0  0  0  0  0  0  0
    5.5772   12.1835   26.6944 C   0  0  0  0  0  0  0  0  0  0  0  0
    5.6455   11.0693   27.0364 O   0  0  0  0  0  0  0  0  0  0  0  0
    6.4112   12.9662   25.6463 N   0  0  0  0  0  0  0  0  0  0  0  0
    7.5202   12.5774   24.9013 C   0  0  0  0  0  0  0  0  0  0  0  0
    7.8902   11.2358   24.7879 C   0  0  0  0  0  0  0  0  0  0  0  0
    8.9849   10.9036   23.9960 C   0  0  0  0  0  0  0  0  0  0  0  0
    9.4280    9.2978   23.6751 Cl  0  0  0  0  0  0  0  0  0  0  0  0
    9.7474   11.8791   23.3860 C   0  0  0  0  0  0  0  0  0  0  0  0
    9.3889   13.2126   23.5148 C   0  0  0  0  0  0  0  0  0  0  0  0
   10.1656   14.1916   22.8466 N   0  0  0  0  0  0  0  0  0  0  0  0
    9.6330   14.5874   21.5394 C   0  0  0  0  0  0  0  0  0  0  0  0
   10.5871   15.3803   20.6907 C   0  0  0  0  0  0  0  0  0  0  0  0
   11.9563   14.8007   20.8647 C   0  0  0  0  0  0  0  0  0  0  0  0
   12.6714   14.4262   19.9420 O   0  0  0  0  0  0  0  0  0  0  0  0
   12.3466   14.7409   22.1712 N   0  0  0  0  0  0  0  0  0  0  0  0
   11.5292   14.2093   23.1225 C   0  0  0  0  0  0  0  0  0  0  0  0
   12.0132   13.7569   24.1619 O   0  0  0  0  0  0  0  0  0  0  0  0
    8.2514   13.5659   24.2357 C   0  0  0  0  0  0  0  0  0  0  0  0
  1  2  2  0
  2  3  2  0
  3  4  1  0
  4  5  2  0
  4  6  1  0
  6  7  1  0
  7  8  2  0
  8  9  1  0
  9 10  1  0
  9 11  2  0
 11 12  1  0
 12 13  1  0
 13 14  1  0
 14 15  1  0
 15 16  1  0
 16 17  2  0
 16 18  1  0
 18 19  1  0
 19 20  2  0
 12 21  2  0
 21  7  1  0
 19 13  1  0
M  END
>  <alias>  (571) 
None

>  <rmsd(smina/fragmenstein)>  (571) 
0.525

>  <smiles>  (571) 
C=C=CC(=O)Nc1cc(Cl)cc(N2CCC(=O)NC2=O)c1

>  <gnina_score>  (571) 
5.446

>  <inspiration_score>  (571) 
None

>  <energy_score>  (571) 
-27.463043

>  <distance_score>  (571) 
1.254018

>  <gnina_score_min>  (571) 
5.563

>  <inchikey>  (571) 
AJZJIVGDCDTPIA-UHFFFAOYSA-N

>  <exports>  (571) 
['/opt/xchem-fragalysis-2/maxwin/BulkDock/OUTPUTS/openbind_a71ev2a_c2_elabs_1LOUU54.sdf', '/opt/xchem-fragalysis-2/maxwin/BulkDock/OUTPUTS/openbind_a71ev2a_c2_elabs_1LSYIDY.sdf']

>  <name>  (571) 
P545906

>  <ref_pdb>  (571) 
A0884a

>  <subsites>  (571) 
None

>  <HIPPO Pose ID>  (571) 
545906

>  <ref_mols>  (571) 
A0884a

>  <HIPPO Compound ID>  (571) 
384483

>  <tags>  (571) 
openbind_a71ev2a_c2_elabs,syndirella_product,openbind_a71ev2a_c2_elabs_fragonly_scored_top80percent,BulkDock Fragalysis export,openbind_a71ev2a_c2_elabs_scored,openbind_a71ev2a_c2_elabs_scored_top80percent,openbind_a71ev2a_c2_elabs_activefrags_only_scored_5.2plus,openbind_a71ev2a_c2_elabs_activefrags_only_scored_5.5plus,syndirella_placed

>  <smina_score_min>  (571) 
-7.104

$$$$
P545907
     RDKit          3D

 21 22  0  0  0  0  0  0  0  0999 V2000
    4.7018   16.2921   26.4263 C   0  0  0  0  0  0  0  0  0  0  0  0
    4.5873   15.0435   26.7624 C   0  0  0  0  0  0  0  0  0  0  0  0
    4.4689   13.7939   27.1003 C   0  0  0  0  0  0  0  0  0  0  0  0
    5.3405   12.6748   26.6297 C   0  0  0  0  0  0  0  0  0  0  0  0
    5.1817   11.6040   27.0697 O   0  0  0  0  0  0  0  0  0  0  0  0
    6.3375   13.1827   25.5559 N   0  0  0  0  0  0  0  0  0  0  0  0
    7.3744   12.5186   24.8929 C   0  0  0  0  0  0  0  0  0  0  0  0
    8.1925   13.3049   24.0710 C   0  0  0  0  0  0  0  0  0  0  0  0
    9.3053   12.7508   23.4305 C   0  0  0  0  0  0  0  0  0  0  0  0
   10.1781   13.5562   22.6573 N   0  0  0  0  0  0  0  0  0  0  0  0
    9.6086   14.4746   21.6827 C   0  0  0  0  0  0  0  0  0  0  0  0
   10.5843   14.9341   20.6199 C   0  0  0  0  0  0  0  0  0  0  0  0
   11.9922   14.5574   20.9579 C   0  0  0  0  0  0  0  0  0  0  0  0
   12.8336   14.3165   20.0982 O   0  0  0  0  0  0  0  0  0  0  0  0
   12.2674   14.5252   22.2911 N   0  0  0  0  0  0  0  0  0  0  0  0
   11.4794   13.7620   23.1069 C   0  0  0  0  0  0  0  0  0  0  0  0
   11.9399   13.3004   24.1499 O   0  0  0  0  0  0  0  0  0  0  0  0
    9.5587   11.3834   23.5458 C   0  0  0  0  0  0  0  0  0  0  0  0
    8.7134   10.5821   24.3062 C   0  0  0  0  0  0  0  0  0  0  0  0
    7.6485   11.1535   24.9992 C   0  0  0  0  0  0  0  0  0  0  0  0
    6.8929   10.3391   25.7409 F   0  0  0  0  0  0  0  0  0  0  0  0
  1  2  2  0
  2  3  2  0
  3  4  1  0
  4  5  2  0
  4  6  1  0
  6  7  1  0
  7  8  2  0
  8  9  1  0
  9 10  1  0
 10 11  1  0
 11 12  1  0
 12 13  1  0
 13 14  2  0
 13 15  1  0
 15 16  1  0
 16 17  2  0
  9 18  2  0
 18 19  1  0
 19 20  2  0
 20 21  1  0
 20  7  1  0
 16 10  1  0
M  END
>  <alias>  (572) 
None

>  <rmsd(smina/fragmenstein)>  (572) 
0.915

>  <smiles>  (572) 
C=C=CC(=O)Nc1cc(N2CCC(=O)NC2=O)ccc1F

>  <gnina_score>  (572) 
5.411

>  <inspiration_score>  (572) 
None

>  <energy_score>  (572) 
-21.413238

>  <distance_score>  (572) 
1.184245

>  <gnina_score_min>  (572) 
5.409

>  <inchikey>  (572) 
FWPOJDAKCQFHOS-UHFFFAOYSA-N

>  <exports>  (572) 
['/opt/xchem-fragalysis-2/maxwin/BulkDock/OUTPUTS/openbind_a71ev2a_c2_elabs_1LOUU54.sdf', '/opt/xchem-fragalysis-2/maxwin/BulkDock/OUTPUTS/openbind_a71ev2a_c2_elabs_1LSYIDY.sdf']

>  <name>  (572) 
P545907

>  <ref_pdb>  (572) 
A0884a

>  <subsites>  (572) 
None

>  <HIPPO Pose ID>  (572) 
545907

>  <ref_mols>  (572) 
A0884a

>  <HIPPO Compound ID>  (572) 
384485

>  <tags>  (572) 
openbind_a71ev2a_c2_elabs,syndirella_product,openbind_a71ev2a_c2_elabs_fragonly_scored_top80percent,openbind_a71ev2a_c2_elabs_scored,BulkDock Fragalysis export,openbind_a71ev2a_c2_elabs_scored_top80percent,openbind_a71ev2a_c2_elabs_activefrags_only_scored_5.2plus,syndirella_placed

>  <smina_score_min>  (572) 
-7.367

$$$$
P545909
     RDKit          3D

 21 22  0  0  0  0  0  0  0  0999 V2000
    2.4257   14.7734   28.8526 C   0  0  0  0  0  0  0  0  0  0  0  0
    3.3316   14.7167   27.9242 C   0  0  0  0  0  0  0  0  0  0  0  0
    4.2410   14.6630   26.9948 C   0  0  0  0  0  0  0  0  0  0  0  0
    4.9707   13.3910   26.7056 C   0  0  0  0  0  0  0  0  0  0  0  0
    4.6932   12.3771   27.2171 O   0  0  0  0  0  0  0  0  0  0  0  0
    6.0642   13.7211   25.6514 N   0  0  0  0  0  0  0  0  0  0  0  0
    7.0631   12.9199   25.1034 C   0  0  0  0  0  0  0  0  0  0  0  0
    7.1161   11.5523   25.3522 C   0  0  0  0  0  0  0  0  0  0  0  0
    8.0890   10.7764   24.7314 C   0  0  0  0  0  0  0  0  0  0  0  0
    9.0259   11.3648   23.8789 C   0  0  0  0  0  0  0  0  0  0  0  0
   10.0399   10.2738   23.0401 Cl  0  0  0  0  0  0  0  0  0  0  0  0
    9.0142   12.7506   23.6427 C   0  0  0  0  0  0  0  0  0  0  0  0
    9.9746   13.4016   22.7940 N   0  0  0  0  0  0  0  0  0  0  0  0
    9.4853   14.3763   21.8245 C   0  0  0  0  0  0  0  0  0  0  0  0
   10.4948   14.8198   20.7875 C   0  0  0  0  0  0  0  0  0  0  0  0
   11.9001   14.4995   21.1774 C   0  0  0  0  0  0  0  0  0  0  0  0
   12.8035   14.4250   20.3481 O   0  0  0  0  0  0  0  0  0  0  0  0
   12.1133   14.3152   22.5101 N   0  0  0  0  0  0  0  0  0  0  0  0
   11.2628   13.5870   23.2987 C   0  0  0  0  0  0  0  0  0  0  0  0
   11.6582   13.1536   24.3798 O   0  0  0  0  0  0  0  0  0  0  0  0
    8.0073   13.5124   24.2562 C   0  0  0  0  0  0  0  0  0  0  0  0
  1  2  2  0
  2  3  2  0
  3  4  1  0
  4  5  2  0
  4  6  1  0
  6  7  1  0
  7  8  2  0
  8  9  1  0
  9 10  2  0
 10 11  1  0
 10 12  1  0
 12 13  1  0
 13 14  1  0
 14 15  1  0
 15 16  1  0
 16 17  2  0
 16 18  1  0
 18 19  1  0
 19 20  2  0
 12 21  2  0
 21  7  1  0
 19 13  1  0
M  END
>  <alias>  (573) 
None

>  <rmsd(smina/fragmenstein)>  (573) 
0.425

>  <smiles>  (573) 
C=C=CC(=O)Nc1ccc(Cl)c(N2CCC(=O)NC2=O)c1

>  <gnina_score>  (573) 
5.54

>  <inspiration_score>  (573) 
None

>  <energy_score>  (573) 
-52.231359

>  <distance_score>  (573) 
1.507223

>  <gnina_score_min>  (573) 
5.511

>  <inchikey>  (573) 
YAKWQVFCHCGESU-UHFFFAOYSA-N

>  <exports>  (573) 
['/opt/xchem-fragalysis-2/maxwin/BulkDock/OUTPUTS/openbind_a71ev2a_c2_elabs_1LOUU54.sdf', '/opt/xchem-fragalysis-2/maxwin/BulkDock/OUTPUTS/openbind_a71ev2a_c2_elabs_1LSYIDY.sdf']

>  <name>  (573) 
P545909

>  <ref_pdb>  (573) 
A0884a

>  <subsites>  (573) 
None

>  <HIPPO Pose ID>  (573) 
545909

>  <ref_mols>  (573) 
A0884a

>  <HIPPO Compound ID>  (573) 
384487

>  <tags>  (573) 
openbind_a71ev2a_c2_elabs,syndirella_product,openbind_a71ev2a_c2_elabs_fragonly_scored_top80percent,BulkDock Fragalysis export,openbind_a71ev2a_c2_elabs_scored,openbind_a71ev2a_c2_elabs_scored_top80percent,openbind_a71ev2a_c2_elabs_activefrags_only_scored_5.2plus,openbind_a71ev2a_c2_elabs_activefrags_only_scored_5.5plus,syndirella_placed

>  <smina_score_min>  (573) 
-6.688

$$$$
P545910
     RDKit          3D

 21 22  0  0  0  0  0  0  0  0999 V2000
    4.4907   15.2705   27.2789 C   0  0  0  0  0  0  0  0  0  0  0  0
    4.6701   13.9904   27.4048 C   0  0  0  0  0  0  0  0  0  0  0  0
    4.8449   12.7084   27.5321 C   0  0  0  0  0  0  0  0  0  0  0  0
    5.8169   11.8751   26.7603 C   0  0  0  0  0  0  0  0  0  0  0  0
    5.8511   10.7224   26.9449 O   0  0  0  0  0  0  0  0  0  0  0  0
    6.6290   12.7589   25.7837 N   0  0  0  0  0  0  0  0  0  0  0  0
    7.6787   12.4339   24.9311 C   0  0  0  0  0  0  0  0  0  0  0  0
    8.0890   11.1142   24.7154 C   0  0  0  0  0  0  0  0  0  0  0  0
    9.1587   10.8782   23.8567 C   0  0  0  0  0  0  0  0  0  0  0  0
    9.7819    9.1880   23.3808 Br  0  0  0  0  0  0  0  0  0  0  0  0
    9.8410   11.9206   23.2687 C   0  0  0  0  0  0  0  0  0  0  0  0
    9.4390   13.2254   23.4921 C   0  0  0  0  0  0  0  0  0  0  0  0
   10.1682   14.2584   22.8562 N   0  0  0  0  0  0  0  0  0  0  0  0
    9.6433   14.6214   21.5359 C   0  0  0  0  0  0  0  0  0  0  0  0
   10.5900   15.4221   20.6883 C   0  0  0  0  0  0  0  0  0  0  0  0
   11.9619   14.8517   20.8730 C   0  0  0  0  0  0  0  0  0  0  0  0
   12.6711   14.4504   19.9561 O   0  0  0  0  0  0  0  0  0  0  0  0
   12.3508   14.8193   22.1802 N   0  0  0  0  0  0  0  0  0  0  0  0
   11.5346   14.2960   23.1367 C   0  0  0  0  0  0  0  0  0  0  0  0
   12.0178   13.8388   24.1748 O   0  0  0  0  0  0  0  0  0  0  0  0
    8.3344   13.4915   24.2899 C   0  0  0  0  0  0  0  0  0  0  0  0
  1  2  2  0
  2  3  2  0
  3  4  1  0
  4  5  2  0
  4  6  1  0
  6  7  1  0
  7  8  2  0
  8  9  1  0
  9 10  1  0
  9 11  2  0
 11 12  1  0
 12 13  1  0
 13 14  1  0
 14 15  1  0
 15 16  1  0
 16 17  2  0
 16 18  1  0
 18 19  1  0
 19 20  2  0
 12 21  2  0
 21  7  1  0
 19 13  1  0
M  END
>  <alias>  (574) 
None

>  <rmsd(smina/fragmenstein)>  (574) 
0.235

>  <smiles>  (574) 
C=C=CC(=O)Nc1cc(Br)cc(N2CCC(=O)NC2=O)c1

>  <gnina_score>  (574) 
5.551

>  <inspiration_score>  (574) 
None

>  <energy_score>  (574) 
-31.518598

>  <distance_score>  (574) 
1.235307

>  <gnina_score_min>  (574) 
5.588

>  <inchikey>  (574) 
KHSTUQRYCOVVJJ-UHFFFAOYSA-N

>  <exports>  (574) 
['/opt/xchem-fragalysis-2/maxwin/BulkDock/OUTPUTS/openbind_a71ev2a_c2_elabs_1LOUU54.sdf', '/opt/xchem-fragalysis-2/maxwin/BulkDock/OUTPUTS/openbind_a71ev2a_c2_elabs_1LSYIDY.sdf']

>  <name>  (574) 
P545910

>  <ref_pdb>  (574) 
A0884a

>  <subsites>  (574) 
None

>  <HIPPO Pose ID>  (574) 
545910

>  <ref_mols>  (574) 
A0884a

>  <HIPPO Compound ID>  (574) 
384488

>  <tags>  (574) 
openbind_a71ev2a_c2_elabs,syndirella_product,openbind_a71ev2a_c2_elabs_fragonly_scored_top80percent,BulkDock Fragalysis export,openbind_a71ev2a_c2_elabs_scored,openbind_a71ev2a_c2_elabs_scored_top80percent,openbind_a71ev2a_c2_elabs_activefrags_only_scored_5.2plus,openbind_a71ev2a_c2_elabs_activefrags_only_scored_5.5plus,syndirella_placed

>  <smina_score_min>  (574) 
-6.582

$$$$
P545911
     RDKit          3D

 21 22  0  0  0  0  0  0  0  0999 V2000
    4.7474   15.7943   27.2778 C   0  0  0  0  0  0  0  0  0  0  0  0
    4.6490   14.5145   27.4783 C   0  0  0  0  0  0  0  0  0  0  0  0
    4.5465   13.2339   27.6812 C   0  0  0  0  0  0  0  0  0  0  0  0
    5.3608   12.1732   27.0108 C   0  0  0  0  0  0  0  0  0  0  0  0
    5.1836   11.0519   27.2886 O   0  0  0  0  0  0  0  0  0  0  0  0
    6.3310   12.8125   25.9862 N   0  0  0  0  0  0  0  0  0  0  0  0
    7.3189   12.2308   25.1855 C   0  0  0  0  0  0  0  0  0  0  0  0
    7.4792   10.8465   25.1586 C   0  0  0  0  0  0  0  0  0  0  0  0
    8.4844   10.2684   24.3886 C   0  0  0  0  0  0  0  0  0  0  0  0
    9.3831   11.0658   23.6986 C   0  0  0  0  0  0  0  0  0  0  0  0
    9.2600   12.4584   23.7407 C   0  0  0  0  0  0  0  0  0  0  0  0
   10.3652   13.1862   23.2277 N   0  0  0  0  0  0  0  0  0  0  0  0
   11.3744   13.5039   24.1123 C   0  0  0  0  0  0  0  0  0  0  0  0
   11.2563   13.6741   25.3226 O   0  0  0  0  0  0  0  0  0  0  0  0
   12.6779   13.7036   23.4235 C   0  0  0  0  0  0  0  0  0  0  0  0
   12.4831   14.8961   22.5406 C   0  0  0  0  0  0  0  0  0  0  0  0
   11.3375   14.6819   21.7137 N   0  0  0  0  0  0  0  0  0  0  0  0
   10.2629   13.9274   22.0730 C   0  0  0  0  0  0  0  0  0  0  0  0
    9.2671   13.9978   21.3654 O   0  0  0  0  0  0  0  0  0  0  0  0
    8.1779   13.0552   24.4252 C   0  0  0  0  0  0  0  0  0  0  0  0
    7.9827   14.5443   24.4204 C   0  0  0  0  0  0  0  0  0  0  0  0
  1  2  2  0
  2  3  2  0
  3  4  1  0
  4  5  2  0
  4  6  1  0
  6  7  1  0
  7  8  2  0
  8  9  1  0
  9 10  2  0
 10 11  1  0
 11 12  1  0
 12 13  1  0
 13 14  2  0
 13 15  1  0
 15 16  1  0
 16 17  1  0
 17 18  1  0
 18 19  2  0
 11 20  2  0
 20 21  1  0
 20  7  1  0
 18 12  1  0
M  END
>  <alias>  (575) 
None

>  <rmsd(smina/fragmenstein)>  (575) 
0.511

>  <smiles>  (575) 
C=C=CC(=O)Nc1cccc(N2C(=O)CCNC2=O)c1C

>  <gnina_score>  (575) 
5.394

>  <inspiration_score>  (575) 
None

>  <energy_score>  (575) 
-37.461377

>  <distance_score>  (575) 
1.628199

>  <gnina_score_min>  (575) 
5.449

>  <inchikey>  (575) 
ZQDZFYOBAVEXDF-UHFFFAOYSA-N

>  <exports>  (575) 
['/opt/xchem-fragalysis-2/maxwin/BulkDock/OUTPUTS/openbind_a71ev2a_c2_elabs_1LOUU54.sdf', '/opt/xchem-fragalysis-2/maxwin/BulkDock/OUTPUTS/openbind_a71ev2a_c2_elabs_1LSYIDY.sdf']

>  <name>  (575) 
P545911

>  <ref_pdb>  (575) 
A0884a

>  <subsites>  (575) 
None

>  <HIPPO Pose ID>  (575) 
545911

>  <ref_mols>  (575) 
A0884a

>  <HIPPO Compound ID>  (575) 
384489

>  <tags>  (575) 
openbind_a71ev2a_c2_elabs,syndirella_product,openbind_a71ev2a_c2_elabs_fragonly_scored_top80percent,openbind_a71ev2a_c2_elabs_scored,BulkDock Fragalysis export,openbind_a71ev2a_c2_elabs_scored_top80percent,openbind_a71ev2a_c2_elabs_activefrags_only_scored_5.2plus,syndirella_placed

>  <smina_score_min>  (575) 
-6.626

$$$$
P545917
     RDKit          3D

 21 22  0  0  0  0  0  0  0  0999 V2000
    2.3507   16.1237   27.9659 C   0  0  0  0  0  0  0  0  0  0  0  0
    2.4393   14.8076   28.7198 C   0  0  0  0  0  0  0  0  0  0  0  0
    3.4103   13.9010   28.0938 C   0  0  0  0  0  0  0  0  0  0  0  0
    4.2069   13.1612   27.5806 C   0  0  0  0  0  0  0  0  0  0  0  0
    5.1748   12.2835   26.9435 C   0  0  0  0  0  0  0  0  0  0  0  0
    5.1565   11.1314   27.2591 O   0  0  0  0  0  0  0  0  0  0  0  0
    5.9802   12.9789   25.9922 N   0  0  0  0  0  0  0  0  0  0  0  0
    7.0552   12.5451   25.2050 C   0  0  0  0  0  0  0  0  0  0  0  0
    7.4227   11.1935   25.1956 C   0  0  0  0  0  0  0  0  0  0  0  0
    8.5240   10.7671   24.4608 C   0  0  0  0  0  0  0  0  0  0  0  0
    9.3101   11.7024   23.8092 C   0  0  0  0  0  0  0  0  0  0  0  0
   10.3857   11.2695   23.1413 F   0  0  0  0  0  0  0  0  0  0  0  0
    8.9858   13.0652   23.8181 C   0  0  0  0  0  0  0  0  0  0  0  0
    9.9087   14.0101   23.2873 N   0  0  0  0  0  0  0  0  0  0  0  0
    9.8536   14.3640   21.8791 C   0  0  0  0  0  0  0  0  0  0  0  0
   11.2458   14.8811   21.5512 C   0  0  0  0  0  0  0  0  0  0  0  0
   12.0494   14.4177   22.6406 N   0  0  0  0  0  0  0  0  0  0  0  0
   11.2684   13.9342   23.6732 C   0  0  0  0  0  0  0  0  0  0  0  0
   11.7053   13.5558   24.7497 O   0  0  0  0  0  0  0  0  0  0  0  0
    7.7906   13.4874   24.4421 C   0  0  0  0  0  0  0  0  0  0  0  0
    7.3600   14.9287   24.3711 C   0  0  0  0  0  0  0  0  0  0  0  0
  1  2  1  0
  2  3  1  0
  3  4  3  0
  4  5  1  0
  5  6  2  0
  5  7  1  0
  7  8  1  0
  8  9  2  0
  9 10  1  0
 10 11  2  0
 11 12  1  0
 11 13  1  0
 13 14  1  0
 14 15  1  0
 15 16  1  0
 16 17  1  0
 17 18  1  0
 18 19  2  0
 13 20  2  0
 20 21  1  0
 20  8  1  0
 18 14  1  0
M  END
>  <alias>  (576) 
None

>  <rmsd(smina/fragmenstein)>  (576) 
0.659

>  <smiles>  (576) 
CCC#CC(=O)Nc1ccc(F)c(N2CCNC2=O)c1C

>  <gnina_score>  (576) 
5.173

>  <inspiration_score>  (576) 
None

>  <energy_score>  (576) 
-40.865995

>  <distance_score>  (576) 
1.339538

>  <gnina_score_min>  (576) 
5.26

>  <inchikey>  (576) 
JSGUOIDFFWUSLK-UHFFFAOYSA-N

>  <exports>  (576) 
['/opt/xchem-fragalysis-2/maxwin/BulkDock/OUTPUTS/openbind_a71ev2a_c2_elabs_1LOUU54.sdf', '/opt/xchem-fragalysis-2/maxwin/BulkDock/OUTPUTS/openbind_a71ev2a_c2_elabs_1LSYIDY.sdf']

>  <name>  (576) 
P545917

>  <ref_pdb>  (576) 
A0884a

>  <subsites>  (576) 
None

>  <HIPPO Pose ID>  (576) 
545917

>  <ref_mols>  (576) 
A0884a

>  <HIPPO Compound ID>  (576) 
384495

>  <tags>  (576) 
openbind_a71ev2a_c2_elabs,syndirella_product,openbind_a71ev2a_c2_elabs_fragonly_scored_top80percent,openbind_a71ev2a_c2_elabs_scored,BulkDock Fragalysis export,openbind_a71ev2a_c2_elabs_scored_top80percent,openbind_a71ev2a_c2_elabs_activefrags_only_scored_5.2plus,syndirella_placed

>  <smina_score_min>  (576) 
-5.779

$$$$
P545918
     RDKit          3D

 21 22  0  0  0  0  0  0  0  0999 V2000
    2.5057   14.4220   29.0518 C   0  0  0  0  0  0  0  0  0  0  0  0
    3.4040   14.4138   28.1144 C   0  0  0  0  0  0  0  0  0  0  0  0
    4.3068   14.4080   27.1772 C   0  0  0  0  0  0  0  0  0  0  0  0
    5.0292   13.1513   26.8132 C   0  0  0  0  0  0  0  0  0  0  0  0
    4.7457   12.1109   27.2643 O   0  0  0  0  0  0  0  0  0  0  0  0
    6.1222   13.5356   25.7774 N   0  0  0  0  0  0  0  0  0  0  0  0
    7.1142   12.7610   25.1796 C   0  0  0  0  0  0  0  0  0  0  0  0
    7.1690   11.3848   25.3583 C   0  0  0  0  0  0  0  0  0  0  0  0
    8.1303   10.6403   24.6829 C   0  0  0  0  0  0  0  0  0  0  0  0
    9.0556   11.2558   23.8268 C   0  0  0  0  0  0  0  0  0  0  0  0
    9.9605   10.3391   23.0686 C   0  0  0  0  0  0  0  0  0  0  0  0
    9.0421   12.6560   23.6850 C   0  0  0  0  0  0  0  0  0  0  0  0
    9.9834   13.3429   22.8498 N   0  0  0  0  0  0  0  0  0  0  0  0
    9.4611   14.3215   21.9038 C   0  0  0  0  0  0  0  0  0  0  0  0
   10.4497   14.7971   20.8608 C   0  0  0  0  0  0  0  0  0  0  0  0
   11.8648   14.4909   21.2270 C   0  0  0  0  0  0  0  0  0  0  0  0
   12.7591   14.4424   20.3876 O   0  0  0  0  0  0  0  0  0  0  0  0
   12.0998   14.3038   22.5547 N   0  0  0  0  0  0  0  0  0  0  0  0
   11.2691   13.5582   23.3488 C   0  0  0  0  0  0  0  0  0  0  0  0
   11.6892   13.1361   24.4241 O   0  0  0  0  0  0  0  0  0  0  0  0
    8.0508   13.3912   24.3542 C   0  0  0  0  0  0  0  0  0  0  0  0
  1  2  2  0
  2  3  2  0
  3  4  1  0
  4  5  2  0
  4  6  1  0
  6  7  1  0
  7  8  2  0
  8  9  1  0
  9 10  2  0
 10 11  1  0
 10 12  1  0
 12 13  1  0
 13 14  1  0
 14 15  1  0
 15 16  1  0
 16 17  2  0
 16 18  1  0
 18 19  1  0
 19 20  2  0
 12 21  2  0
 21  7  1  0
 19 13  1  0
M  END
>  <alias>  (577) 
None

>  <rmsd(smina/fragmenstein)>  (577) 
0.55

>  <smiles>  (577) 
C=C=CC(=O)Nc1ccc(C)c(N2CCC(=O)NC2=O)c1

>  <gnina_score>  (577) 
5.321

>  <inspiration_score>  (577) 
None

>  <energy_score>  (577) 
-14.362596

>  <distance_score>  (577) 
1.399593

>  <gnina_score_min>  (577) 
5.334

>  <inchikey>  (577) 
KFECRZNZKSVLKU-UHFFFAOYSA-N

>  <exports>  (577) 
['/opt/xchem-fragalysis-2/maxwin/BulkDock/OUTPUTS/openbind_a71ev2a_c2_elabs_1LOUU54.sdf', '/opt/xchem-fragalysis-2/maxwin/BulkDock/OUTPUTS/openbind_a71ev2a_c2_elabs_1LSYIDY.sdf']

>  <name>  (577) 
P545918

>  <ref_pdb>  (577) 
A0884a

>  <subsites>  (577) 
None

>  <HIPPO Pose ID>  (577) 
545918

>  <ref_mols>  (577) 
A0884a

>  <HIPPO Compound ID>  (577) 
384497

>  <tags>  (577) 
openbind_a71ev2a_c2_elabs,syndirella_product,openbind_a71ev2a_c2_elabs_fragonly_scored_top80percent,openbind_a71ev2a_c2_elabs_scored,BulkDock Fragalysis export,openbind_a71ev2a_c2_elabs_scored_top80percent,openbind_a71ev2a_c2_elabs_activefrags_only_scored_5.2plus,syndirella_placed

>  <smina_score_min>  (577) 
-6.735

$$$$
P545922
     RDKit          3D

 21 22  0  0  0  0  0  0  0  0999 V2000
    9.0038    9.5749   23.9410 C   0  0  0  0  0  0  0  0  0  0  0  0
    8.7639   11.0232   24.1513 C   0  0  0  0  0  0  0  0  0  0  0  0
    7.6926   11.5069   24.9155 C   0  0  0  0  0  0  0  0  0  0  0  0
    7.4512   12.8789   24.9794 C   0  0  0  0  0  0  0  0  0  0  0  0
    6.4088   13.4258   25.7222 N   0  0  0  0  0  0  0  0  0  0  0  0
    5.3208   12.7350   26.6016 C   0  0  0  0  0  0  0  0  0  0  0  0
    5.1849   11.6100   26.8950 O   0  0  0  0  0  0  0  0  0  0  0  0
    4.3845   13.8588   27.0884 C   0  0  0  0  0  0  0  0  0  0  0  0
    3.5405   14.4224   25.9454 C   0  0  0  0  0  0  0  0  0  0  0  0
    3.4708   13.3483   28.2034 C   0  0  0  0  0  0  0  0  0  0  0  0
    8.2731   13.7591   24.2763 C   0  0  0  0  0  0  0  0  0  0  0  0
    9.3677   13.2741   23.5668 C   0  0  0  0  0  0  0  0  0  0  0  0
   10.2041   14.1641   22.8559 N   0  0  0  0  0  0  0  0  0  0  0  0
    9.6777   14.5765   21.5537 C   0  0  0  0  0  0  0  0  0  0  0  0
   10.6421   15.3672   20.7164 C   0  0  0  0  0  0  0  0  0  0  0  0
   12.0050   14.7731   20.8870 C   0  0  0  0  0  0  0  0  0  0  0  0
   12.7164   14.4051   19.9577 O   0  0  0  0  0  0  0  0  0  0  0  0
   12.3892   14.6849   22.1935 N   0  0  0  0  0  0  0  0  0  0  0  0
   11.5650   14.1369   23.1308 C   0  0  0  0  0  0  0  0  0  0  0  0
   12.0441   13.6371   24.1505 O   0  0  0  0  0  0  0  0  0  0  0  0
    9.6112   11.9098   23.4992 C   0  0  0  0  0  0  0  0  0  0  0  0
  1  2  1  0
  2  3  2  0
  3  4  1  0
  4  5  1  0
  5  6  1  0
  6  7  2  0
  6  8  1  0
  8  9  1  0
  8 10  1  0
  4 11  2  0
 11 12  1  0
 12 13  1  0
 13 14  1  0
 14 15  1  0
 15 16  1  0
 16 17  2  0
 16 18  1  0
 18 19  1  0
 19 20  2  0
 12 21  2  0
 21  2  1  0
 19 13  1  0
M  END
>  <alias>  (578) 
None

>  <rmsd(smina/fragmenstein)>  (578) 
0.752

>  <smiles>  (578) 
Cc1cc(NC(=O)C(C)C)cc(N2CCC(=O)NC2=O)c1

>  <gnina_score>  (578) 
5.436

>  <inspiration_score>  (578) 
None

>  <energy_score>  (578) 
-22.872154

>  <distance_score>  (578) 
1.367325

>  <gnina_score_min>  (578) 
5.501

>  <inchikey>  (578) 
JFSPPMYXUQXGHQ-UHFFFAOYSA-N

>  <exports>  (578) 
['/opt/xchem-fragalysis-2/maxwin/BulkDock/OUTPUTS/openbind_a71ev2a_c2_elabs_1LOUU54.sdf', '/opt/xchem-fragalysis-2/maxwin/BulkDock/OUTPUTS/openbind_a71ev2a_c2_elabs_1LSYIDY.sdf']

>  <name>  (578) 
P545922

>  <ref_pdb>  (578) 
A0884a

>  <subsites>  (578) 
None

>  <HIPPO Pose ID>  (578) 
545922

>  <ref_mols>  (578) 
A0884a

>  <HIPPO Compound ID>  (578) 
384502

>  <tags>  (578) 
openbind_a71ev2a_c2_elabs,syndirella_product,openbind_a71ev2a_c2_elabs_fragonly_scored_top80percent,BulkDock Fragalysis export,openbind_a71ev2a_c2_elabs_scored,openbind_a71ev2a_c2_elabs_scored_top80percent,openbind_a71ev2a_c2_elabs_activefrags_only_scored_5.2plus,openbind_a71ev2a_c2_elabs_activefrags_only_scored_5.5plus,syndirella_placed

>  <smina_score_min>  (578) 
-6.9

$$$$
P545923
     RDKit          3D

 21 22  0  0  0  0  0  0  0  0999 V2000
    5.1174   14.7781   28.1041 C   0  0  0  0  0  0  0  0  0  0  0  0
    4.3686   13.7960   27.2036 C   0  0  0  0  0  0  0  0  0  0  0  0
    3.0704   13.3560   27.8812 C   0  0  0  0  0  0  0  0  0  0  0  0
    5.2527   12.5779   26.8801 C   0  0  0  0  0  0  0  0  0  0  0  0
    5.0912   11.5203   27.3545 O   0  0  0  0  0  0  0  0  0  0  0  0
    6.3457   13.0844   25.8868 N   0  0  0  0  0  0  0  0  0  0  0  0
    7.3644   12.3912   25.2292 C   0  0  0  0  0  0  0  0  0  0  0  0
    8.3049   13.1618   24.5455 C   0  0  0  0  0  0  0  0  0  0  0  0
    9.3670   12.5630   23.8543 C   0  0  0  0  0  0  0  0  0  0  0  0
   10.3005   13.3504   23.1453 N   0  0  0  0  0  0  0  0  0  0  0  0
   11.6188   13.5121   23.7015 C   0  0  0  0  0  0  0  0  0  0  0  0
   12.6034   13.8085   22.6066 C   0  0  0  0  0  0  0  0  0  0  0  0
   12.0440   14.6336   21.4958 C   0  0  0  0  0  0  0  0  0  0  0  0
   12.6448   14.8081   20.4405 O   0  0  0  0  0  0  0  0  0  0  0  0
   10.8106   15.1363   21.7291 N   0  0  0  0  0  0  0  0  0  0  0  0
    9.8596   14.3796   22.3379 C   0  0  0  0  0  0  0  0  0  0  0  0
    8.6761   14.5967   22.1171 O   0  0  0  0  0  0  0  0  0  0  0  0
    9.4687   11.1757   23.8018 C   0  0  0  0  0  0  0  0  0  0  0  0
    8.5218   10.4006   24.4621 C   0  0  0  0  0  0  0  0  0  0  0  0
    7.4932   11.0055   25.1867 C   0  0  0  0  0  0  0  0  0  0  0  0
    6.6160   10.2051   25.7972 F   0  0  0  0  0  0  0  0  0  0  0  0
  1  2  1  0
  2  3  1  0
  2  4  1  0
  4  5  2  0
  4  6  1  0
  6  7  1  0
  7  8  2  0
  8  9  1  0
  9 10  1  0
 10 11  1  0
 11 12  1  0
 12 13  1  0
 13 14  2  0
 13 15  1  0
 15 16  1  0
 16 17  2  0
  9 18  2  0
 18 19  1  0
 19 20  2  0
 20 21  1  0
 20  7  1  0
 16 10  1  0
M  END
>  <alias>  (579) 
None

>  <rmsd(smina/fragmenstein)>  (579) 
1.102

>  <smiles>  (579) 
CC(C)C(=O)Nc1cc(N2CCC(=O)NC2=O)ccc1F

>  <gnina_score>  (579) 
5.364

>  <inspiration_score>  (579) 
None

>  <energy_score>  (579) 
-23.085052

>  <distance_score>  (579) 
1.680309

>  <gnina_score_min>  (579) 
5.403

>  <inchikey>  (579) 
ISUMLGZBLVEYJT-UHFFFAOYSA-N

>  <exports>  (579) 
['/opt/xchem-fragalysis-2/maxwin/BulkDock/OUTPUTS/openbind_a71ev2a_c2_elabs_1LOUU54.sdf', '/opt/xchem-fragalysis-2/maxwin/BulkDock/OUTPUTS/openbind_a71ev2a_c2_elabs_1LSYIDY.sdf']

>  <name>  (579) 
P545923

>  <ref_pdb>  (579) 
A0884a

>  <subsites>  (579) 
None

>  <HIPPO Pose ID>  (579) 
545923

>  <ref_mols>  (579) 
A0884a

>  <HIPPO Compound ID>  (579) 
384504

>  <tags>  (579) 
openbind_a71ev2a_c2_elabs,syndirella_product,openbind_a71ev2a_c2_elabs_fragonly_scored_top80percent,openbind_a71ev2a_c2_elabs_scored,BulkDock Fragalysis export,openbind_a71ev2a_c2_elabs_scored_top80percent,openbind_a71ev2a_c2_elabs_activefrags_only_scored_5.2plus,syndirella_placed

>  <smina_score_min>  (579) 
-6.804

$$$$
P545924
     RDKit          3D

 21 22  0  0  0  0  0  0  0  0999 V2000
    9.9604   10.3415   23.0609 C   0  0  0  0  0  0  0  0  0  0  0  0
    9.0622   11.2693   23.8129 C   0  0  0  0  0  0  0  0  0  0  0  0
    8.1350   10.6654   24.6763 C   0  0  0  0  0  0  0  0  0  0  0  0
    7.1814   11.4211   25.3501 C   0  0  0  0  0  0  0  0  0  0  0  0
    7.1375   12.7963   25.1626 C   0  0  0  0  0  0  0  0  0  0  0  0
    6.1575   13.5852   25.7577 N   0  0  0  0  0  0  0  0  0  0  0  0
    4.9886   13.1968   26.7185 C   0  0  0  0  0  0  0  0  0  0  0  0
    4.7231   12.1690   27.2134 O   0  0  0  0  0  0  0  0  0  0  0  0
    4.1633   14.4789   26.9299 C   0  0  0  0  0  0  0  0  0  0  0  0
    3.1839   14.3023   28.0904 C   0  0  0  0  0  0  0  0  0  0  0  0
    3.4025   14.8421   25.6553 C   0  0  0  0  0  0  0  0  0  0  0  0
    8.0760   13.4144   24.3307 C   0  0  0  0  0  0  0  0  0  0  0  0
    9.0584   12.6688   23.6607 C   0  0  0  0  0  0  0  0  0  0  0  0
   10.0020   13.3474   22.8194 N   0  0  0  0  0  0  0  0  0  0  0  0
    9.4840   14.3385   21.8813 C   0  0  0  0  0  0  0  0  0  0  0  0
   10.4705   14.8054   20.8321 C   0  0  0  0  0  0  0  0  0  0  0  0
   11.8864   14.5193   21.2117 C   0  0  0  0  0  0  0  0  0  0  0  0
   12.7873   14.4684   20.3780 O   0  0  0  0  0  0  0  0  0  0  0  0
   12.1105   14.3331   22.5421 N   0  0  0  0  0  0  0  0  0  0  0  0
   11.2878   13.5633   23.3222 C   0  0  0  0  0  0  0  0  0  0  0  0
   11.7140   13.1116   24.3834 O   0  0  0  0  0  0  0  0  0  0  0  0
  1  2  1  0
  2  3  2  0
  3  4  1  0
  4  5  2  0
  5  6  1  0
  6  7  1  0
  7  8  2  0
  7  9  1  0
  9 10  1  0
  9 11  1  0
  5 12  1  0
 12 13  2  0
 13 14  1  0
 14 15  1  0
 15 16  1  0
 16 17  1  0
 17 18  2  0
 17 19  1  0
 19 20  1  0
 20 21  2  0
 13  2  1  0
 20 14  1  0
M  END
>  <alias>  (580) 
None

>  <rmsd(smina/fragmenstein)>  (580) 
0.632

>  <smiles>  (580) 
Cc1ccc(NC(=O)C(C)C)cc1N1CCC(=O)NC1=O

>  <gnina_score>  (580) 
5.447

>  <inspiration_score>  (580) 
None

>  <energy_score>  (580) 
-42.186025

>  <distance_score>  (580) 
1.431246

>  <gnina_score_min>  (580) 
5.407

>  <inchikey>  (580) 
CFJGHVUSPCCSAE-UHFFFAOYSA-N

>  <exports>  (580) 
['/opt/xchem-fragalysis-2/maxwin/BulkDock/OUTPUTS/openbind_a71ev2a_c2_elabs_1LOUU54.sdf', '/opt/xchem-fragalysis-2/maxwin/BulkDock/OUTPUTS/openbind_a71ev2a_c2_elabs_1LSYIDY.sdf']

>  <name>  (580) 
P545924

>  <ref_pdb>  (580) 
A0884a

>  <subsites>  (580) 
None

>  <HIPPO Pose ID>  (580) 
545924

>  <ref_mols>  (580) 
A0884a

>  <HIPPO Compound ID>  (580) 
384505

>  <tags>  (580) 
openbind_a71ev2a_c2_elabs,syndirella_product,openbind_a71ev2a_c2_elabs_fragonly_scored_top80percent,openbind_a71ev2a_c2_elabs_scored,BulkDock Fragalysis export,openbind_a71ev2a_c2_elabs_scored_top80percent,openbind_a71ev2a_c2_elabs_activefrags_only_scored_5.2plus,syndirella_placed

>  <smina_score_min>  (580) 
-6.943

$$$$
P545925
     RDKit          3D

 21 22  0  0  0  0  0  0  0  0999 V2000
    5.1122   15.6209   27.8396 C   0  0  0  0  0  0  0  0  0  0  0  0
    4.2257   14.7310   26.9701 C   0  0  0  0  0  0  0  0  0  0  0  0
    2.8892   14.4778   27.6681 C   0  0  0  0  0  0  0  0  0  0  0  0
    4.9339   13.4000   26.6591 C   0  0  0  0  0  0  0  0  0  0  0  0
    4.5997   12.3705   27.1068 O   0  0  0  0  0  0  0  0  0  0  0  0
    6.0840   13.7428   25.6583 N   0  0  0  0  0  0  0  0  0  0  0  0
    7.0715   12.9330   25.1056 C   0  0  0  0  0  0  0  0  0  0  0  0
    7.1244   11.5671   25.3631 C   0  0  0  0  0  0  0  0  0  0  0  0
    8.0913   10.7864   24.7386 C   0  0  0  0  0  0  0  0  0  0  0  0
    9.0255   11.3693   23.8787 C   0  0  0  0  0  0  0  0  0  0  0  0
   10.0362   10.2733   23.0423 Cl  0  0  0  0  0  0  0  0  0  0  0  0
    9.0150   12.7538   23.6362 C   0  0  0  0  0  0  0  0  0  0  0  0
    9.9763   13.4015   22.7860 N   0  0  0  0  0  0  0  0  0  0  0  0
    9.4891   14.3782   21.8173 C   0  0  0  0  0  0  0  0  0  0  0  0
   10.4993   14.8194   20.7800 C   0  0  0  0  0  0  0  0  0  0  0  0
   11.9039   14.4987   21.1716 C   0  0  0  0  0  0  0  0  0  0  0  0
   12.8079   14.4233   20.3432 O   0  0  0  0  0  0  0  0  0  0  0  0
   12.1157   14.3147   22.5045 N   0  0  0  0  0  0  0  0  0  0  0  0
   11.2643   13.5866   23.2923 C   0  0  0  0  0  0  0  0  0  0  0  0
   11.6580   13.1532   24.3741 O   0  0  0  0  0  0  0  0  0  0  0  0
    8.0113   13.5194   24.2496 C   0  0  0  0  0  0  0  0  0  0  0  0
  1  2  1  0
  2  3  1  0
  2  4  1  0
  4  5  2  0
  4  6  1  0
  6  7  1  0
  7  8  2  0
  8  9  1  0
  9 10  2  0
 10 11  1  0
 10 12  1  0
 12 13  1  0
 13 14  1  0
 14 15  1  0
 15 16  1  0
 16 17  2  0
 16 18  1  0
 18 19  1  0
 19 20  2  0
 12 21  2  0
 21  7  1  0
 19 13  1  0
M  END
>  <alias>  (581) 
None

>  <rmsd(smina/fragmenstein)>  (581) 
0.534

>  <smiles>  (581) 
CC(C)C(=O)Nc1ccc(Cl)c(N2CCC(=O)NC2=O)c1

>  <gnina_score>  (581) 
5.573

>  <inspiration_score>  (581) 
None

>  <energy_score>  (581) 
-8.87066

>  <distance_score>  (581) 
1.524709

>  <gnina_score_min>  (581) 
5.503

>  <inchikey>  (581) 
YOPGQRAWLZCKRA-UHFFFAOYSA-N

>  <exports>  (581) 
['/opt/xchem-fragalysis-2/maxwin/BulkDock/OUTPUTS/openbind_a71ev2a_c2_elabs_1LOUU54.sdf', '/opt/xchem-fragalysis-2/maxwin/BulkDock/OUTPUTS/openbind_a71ev2a_c2_elabs_1LSYIDY.sdf']

>  <name>  (581) 
P545925

>  <ref_pdb>  (581) 
A0884a

>  <subsites>  (581) 
None

>  <HIPPO Pose ID>  (581) 
545925

>  <ref_mols>  (581) 
A0884a

>  <HIPPO Compound ID>  (581) 
384507

>  <tags>  (581) 
openbind_a71ev2a_c2_elabs,syndirella_product,openbind_a71ev2a_c2_elabs_fragonly_scored_top80percent,BulkDock Fragalysis export,openbind_a71ev2a_c2_elabs_scored,openbind_a71ev2a_c2_elabs_scored_top80percent,openbind_a71ev2a_c2_elabs_activefrags_only_scored_5.2plus,openbind_a71ev2a_c2_elabs_activefrags_only_scored_5.5plus,syndirella_placed

>  <smina_score_min>  (581) 
-6.787

$$$$
P545926
     RDKit          3D

 21 22  0  0  0  0  0  0  0  0999 V2000
    4.0941   13.8525   26.9936 C   0  0  0  0  0  0  0  0  0  0  0  0
    5.0144   12.9033   27.7554 C   0  0  0  0  0  0  0  0  0  0  0  0
    5.9251   13.6531   28.7240 C   0  0  0  0  0  0  0  0  0  0  0  0
    5.8271   11.9698   26.8395 C   0  0  0  0  0  0  0  0  0  0  0  0
    5.7478   10.8060   26.9261 O   0  0  0  0  0  0  0  0  0  0  0  0
    6.7114   12.8536   25.9137 N   0  0  0  0  0  0  0  0  0  0  0  0
    7.7073   12.4994   25.0091 C   0  0  0  0  0  0  0  0  0  0  0  0
    8.0642   11.1696   24.7600 C   0  0  0  0  0  0  0  0  0  0  0  0
    9.1154   10.9120   23.8831 C   0  0  0  0  0  0  0  0  0  0  0  0
    9.7139    9.2142   23.4073 Br  0  0  0  0  0  0  0  0  0  0  0  0
    9.8130   11.9389   23.2866 C   0  0  0  0  0  0  0  0  0  0  0  0
    9.4519   13.2510   23.5309 C   0  0  0  0  0  0  0  0  0  0  0  0
   10.1882   14.2688   22.8815 N   0  0  0  0  0  0  0  0  0  0  0  0
    9.6672   14.6066   21.5542 C   0  0  0  0  0  0  0  0  0  0  0  0
   10.6138   15.4025   20.7044 C   0  0  0  0  0  0  0  0  0  0  0  0
   11.9813   14.8220   20.8875 C   0  0  0  0  0  0  0  0  0  0  0  0
   12.6785   14.4095   19.9675 O   0  0  0  0  0  0  0  0  0  0  0  0
   12.3748   14.7979   22.1934 N   0  0  0  0  0  0  0  0  0  0  0  0
   11.5562   14.2901   23.1570 C   0  0  0  0  0  0  0  0  0  0  0  0
   12.0358   13.8357   24.1972 O   0  0  0  0  0  0  0  0  0  0  0  0
    8.3839   13.5429   24.3677 C   0  0  0  0  0  0  0  0  0  0  0  0
  1  2  1  0
  2  3  1  0
  2  4  1  0
  4  5  2  0
  4  6  1  0
  6  7  1  0
  7  8  2  0
  8  9  1  0
  9 10  1  0
  9 11  2  0
 11 12  1  0
 12 13  1  0
 13 14  1  0
 14 15  1  0
 15 16  1  0
 16 17  2  0
 16 18  1  0
 18 19  1  0
 19 20  2  0
 12 21  2  0
 21  7  1  0
 19 13  1  0
M  END
>  <alias>  (582) 
None

>  <rmsd(smina/fragmenstein)>  (582) 
0.28

>  <smiles>  (582) 
CC(C)C(=O)Nc1cc(Br)cc(N2CCC(=O)NC2=O)c1

>  <gnina_score>  (582) 
5.596

>  <inspiration_score>  (582) 
None

>  <energy_score>  (582) 
-23.023743

>  <distance_score>  (582) 
1.233673

>  <gnina_score_min>  (582) 
5.652

>  <inchikey>  (582) 
BFBWIQYJNPZOSO-UHFFFAOYSA-N

>  <exports>  (582) 
['/opt/xchem-fragalysis-2/maxwin/BulkDock/OUTPUTS/openbind_a71ev2a_c2_elabs_1LOUU54.sdf', '/opt/xchem-fragalysis-2/maxwin/BulkDock/OUTPUTS/openbind_a71ev2a_c2_elabs_1LSYIDY.sdf']

>  <name>  (582) 
P545926

>  <ref_pdb>  (582) 
A0884a

>  <subsites>  (582) 
None

>  <HIPPO Pose ID>  (582) 
545926

>  <ref_mols>  (582) 
A0884a

>  <HIPPO Compound ID>  (582) 
384508

>  <tags>  (582) 
openbind_a71ev2a_c2_elabs,syndirella_product,openbind_a71ev2a_c2_elabs_fragonly_scored_top80percent,BulkDock Fragalysis export,openbind_a71ev2a_c2_elabs_scored,openbind_a71ev2a_c2_elabs_scored_top80percent,openbind_a71ev2a_c2_elabs_activefrags_only_scored_5.2plus,openbind_a71ev2a_c2_elabs_activefrags_only_scored_5.5plus,syndirella_placed

>  <smina_score_min>  (582) 
-6.637

$$$$
P545927
     RDKit          3D

 21 22  0  0  0  0  0  0  0  0999 V2000
    7.9904   14.5529   24.4407 C   0  0  0  0  0  0  0  0  0  0  0  0
    8.1752   13.0625   24.4320 C   0  0  0  0  0  0  0  0  0  0  0  0
    7.3261   12.2364   25.2019 C   0  0  0  0  0  0  0  0  0  0  0  0
    6.3620   12.8120   26.0370 N   0  0  0  0  0  0  0  0  0  0  0  0
    5.3911   12.1544   27.0669 C   0  0  0  0  0  0  0  0  0  0  0  0
    5.1989   11.0267   27.3145 O   0  0  0  0  0  0  0  0  0  0  0  0
    4.6556   13.3146   27.7636 C   0  0  0  0  0  0  0  0  0  0  0  0
    3.6370   13.9644   26.8291 C   0  0  0  0  0  0  0  0  0  0  0  0
    3.9604   12.8239   29.0337 C   0  0  0  0  0  0  0  0  0  0  0  0
    7.4803   10.8514   25.1608 C   0  0  0  0  0  0  0  0  0  0  0  0
    8.4778   10.2747   24.3791 C   0  0  0  0  0  0  0  0  0  0  0  0
    9.3704   11.0736   23.6829 C   0  0  0  0  0  0  0  0  0  0  0  0
    9.2464   12.4662   23.7274 C   0  0  0  0  0  0  0  0  0  0  0  0
   10.3466   13.1981   23.2062 N   0  0  0  0  0  0  0  0  0  0  0  0
   11.3847   13.4644   24.0734 C   0  0  0  0  0  0  0  0  0  0  0  0
   11.3012   13.5385   25.2954 O   0  0  0  0  0  0  0  0  0  0  0  0
   12.6713   13.7105   23.3697 C   0  0  0  0  0  0  0  0  0  0  0  0
   12.4518   14.9259   22.5274 C   0  0  0  0  0  0  0  0  0  0  0  0
   11.3004   14.7203   21.7062 N   0  0  0  0  0  0  0  0  0  0  0  0
   10.2332   13.9549   22.0633 C   0  0  0  0  0  0  0  0  0  0  0  0
    9.2347   14.0220   21.3587 O   0  0  0  0  0  0  0  0  0  0  0  0
  1  2  1  0
  2  3  2  0
  3  4  1  0
  4  5  1  0
  5  6  2  0
  5  7  1  0
  7  8  1  0
  7  9  1  0
  3 10  1  0
 10 11  2  0
 11 12  1  0
 12 13  2  0
 13 14  1  0
 14 15  1  0
 15 16  2  0
 15 17  1  0
 17 18  1  0
 18 19  1  0
 19 20  1  0
 20 21  2  0
 13  2  1  0
 20 14  1  0
M  END
>  <alias>  (583) 
None

>  <rmsd(smina/fragmenstein)>  (583) 
0.706

>  <smiles>  (583) 
Cc1c(NC(=O)C(C)C)cccc1N1C(=O)CCNC1=O

>  <gnina_score>  (583) 
5.393

>  <inspiration_score>  (583) 
None

>  <energy_score>  (583) 
-25.019975

>  <distance_score>  (583) 
1.642996

>  <gnina_score_min>  (583) 
5.434

>  <inchikey>  (583) 
POFBHFAESAHLPU-UHFFFAOYSA-N

>  <exports>  (583) 
['/opt/xchem-fragalysis-2/maxwin/BulkDock/OUTPUTS/openbind_a71ev2a_c2_elabs_1LOUU54.sdf', '/opt/xchem-fragalysis-2/maxwin/BulkDock/OUTPUTS/openbind_a71ev2a_c2_elabs_1LSYIDY.sdf']

>  <name>  (583) 
P545927

>  <ref_pdb>  (583) 
A0884a

>  <subsites>  (583) 
None

>  <HIPPO Pose ID>  (583) 
545927

>  <ref_mols>  (583) 
A0884a

>  <HIPPO Compound ID>  (583) 
384509

>  <tags>  (583) 
openbind_a71ev2a_c2_elabs,syndirella_product,openbind_a71ev2a_c2_elabs_fragonly_scored_top80percent,openbind_a71ev2a_c2_elabs_scored,BulkDock Fragalysis export,openbind_a71ev2a_c2_elabs_scored_top80percent,openbind_a71ev2a_c2_elabs_activefrags_only_scored_5.2plus,syndirella_placed

>  <smina_score_min>  (583) 
-6.613

$$$$
P545945
     RDKit          3D

 21 23  0  0  0  0  0  0  0  0999 V2000
    6.2795   15.1752   28.2995 C   0  0  0  0  0  0  0  0  0  0  0  0
    4.8529   15.0690   27.8752 C   0  0  2  0  0  0  0  0  0  0  0  0
    3.9587   14.0571   28.5352 C   0  0  0  0  0  0  0  0  0  0  0  0
    4.3193   13.8962   27.0743 C   0  0  2  0  0  0  0  0  0  0  0  0
    5.1966   12.7706   26.6385 C   0  0  0  0  0  0  0  0  0  0  0  0
    4.9992   11.6918   27.0326 O   0  0  0  0  0  0  0  0  0  0  0  0
    6.2353   13.2895   25.6282 N   0  0  0  0  0  0  0  0  0  0  0  0
    7.2758   12.6302   24.9830 C   0  0  0  0  0  0  0  0  0  0  0  0
    7.4662   11.2519   25.0992 C   0  0  0  0  0  0  0  0  0  0  0  0
    8.5261   10.6416   24.4303 C   0  0  0  0  0  0  0  0  0  0  0  0
    9.4188   11.4181   23.7014 C   0  0  0  0  0  0  0  0  0  0  0  0
   10.4146   10.8017   23.0600 F   0  0  0  0  0  0  0  0  0  0  0  0
    9.2508   12.8005   23.5873 C   0  0  0  0  0  0  0  0  0  0  0  0
   10.1991   13.5985   22.8908 N   0  0  0  0  0  0  0  0  0  0  0  0
    9.7291   14.3837   21.7500 C   0  0  0  0  0  0  0  0  0  0  0  0
   10.7827   15.2183   21.0440 C   0  0  0  0  0  0  0  0  0  0  0  0
   12.1609   14.6516   21.2584 C   0  0  0  0  0  0  0  0  0  0  0  0
   12.3768   14.3867   22.6485 N   0  0  0  0  0  0  0  0  0  0  0  0
   11.4734   13.7190   23.4173 C   0  0  0  0  0  0  0  0  0  0  0  0
   11.8095   13.3130   24.5282 O   0  0  0  0  0  0  0  0  0  0  0  0
    8.1510   13.3975   24.2060 C   0  0  0  0  0  0  0  0  0  0  0  0
  2  1  1  1
  2  3  1  0
  3  4  1  0
  4  5  1  1
  5  6  2  0
  5  7  1  0
  7  8  1  0
  8  9  2  0
  9 10  1  0
 10 11  2  0
 11 12  1  0
 11 13  1  0
 13 14  1  0
 14 15  1  0
 15 16  1  0
 16 17  1  0
 17 18  1  0
 18 19  1  0
 19 20  2  0
 13 21  2  0
  4  2  1  0
 21  8  1  0
 19 14  1  0
M  END
>  <alias>  (584) 
None

>  <rmsd(smina/fragmenstein)>  (584) 
0.463

>  <smiles>  (584) 
C[C@@H]1C[C@@H]1C(=O)Nc1ccc(F)c(N2CCCNC2=O)c1

>  <gnina_score>  (584) 
5.246

>  <inspiration_score>  (584) 
None

>  <energy_score>  (584) 
-41.332382

>  <distance_score>  (584) 
1.247695

>  <gnina_score_min>  (584) 
5.318

>  <inchikey>  (584) 
QJGYIXBTECHIEJ-KOLCDFICSA-N

>  <exports>  (584) 
['/opt/xchem-fragalysis-2/maxwin/BulkDock/OUTPUTS/openbind_a71ev2a_c2_elabs_1LOUU54.sdf', '/opt/xchem-fragalysis-2/maxwin/BulkDock/OUTPUTS/openbind_a71ev2a_c2_elabs_1LSYIDY.sdf']

>  <name>  (584) 
P545945

>  <ref_pdb>  (584) 
A0884a

>  <subsites>  (584) 
None

>  <HIPPO Pose ID>  (584) 
545945

>  <ref_mols>  (584) 
A0884a

>  <HIPPO Compound ID>  (584) 
384515

>  <tags>  (584) 
openbind_a71ev2a_c2_elabs,syndirella_product,openbind_a71ev2a_c2_elabs_fragonly_scored_top80percent,openbind_a71ev2a_c2_elabs_scored,BulkDock Fragalysis export,openbind_a71ev2a_c2_elabs_scored_top80percent,openbind_a71ev2a_c2_elabs_activefrags_only_scored_5.2plus,syndirella_placed

>  <smina_score_min>  (584) 
-6.699

$$$$
P545949
     RDKit          3D

 21 23  0  0  0  0  0  0  0  0999 V2000
    8.1887   14.4643   25.4380 C   0  0  0  0  0  0  0  0  0  0  0  0
    8.3119   13.0615   24.9120 C   0  0  0  0  0  0  0  0  0  0  0  0
    7.5999   11.9844   25.4850 C   0  0  0  0  0  0  0  0  0  0  0  0
    6.7745   12.0801   26.6136 N   0  0  0  0  0  0  0  0  0  0  0  0
    5.7794   13.1748   27.0340 C   0  0  0  0  0  0  0  0  0  0  0  0
    5.5433   14.2066   26.5495 O   0  0  0  0  0  0  0  0  0  0  0  0
    5.1076   12.8441   28.3334 C   0  0  1  0  0  0  0  0  0  0  0  0
    3.6362   12.4886   28.3122 C   0  0  0  0  0  0  0  0  0  0  0  0
    4.6303   11.5081   28.8689 C   0  0  1  0  0  0  0  0  0  0  0  0
    4.8080   10.1824   28.2200 C   0  0  0  0  0  0  0  0  0  0  0  0
    7.8361   10.6757   25.0389 C   0  0  0  0  0  0  0  0  0  0  0  0
    8.7558   10.4143   24.0316 C   0  0  0  0  0  0  0  0  0  0  0  0
    9.4465   11.4674   23.4628 C   0  0  0  0  0  0  0  0  0  0  0  0
   10.3188   11.1965   22.4889 F   0  0  0  0  0  0  0  0  0  0  0  0
    9.2410   12.7876   23.8775 C   0  0  0  0  0  0  0  0  0  0  0  0
   10.0564   13.8229   23.3452 N   0  0  0  0  0  0  0  0  0  0  0  0
    9.8846   14.2703   21.9763 C   0  0  0  0  0  0  0  0  0  0  0  0
   11.2313   14.8542   21.5752 C   0  0  0  0  0  0  0  0  0  0  0  0
   12.1153   14.4446   22.6238 N   0  0  0  0  0  0  0  0  0  0  0  0
   11.4296   13.8345   23.6554 C   0  0  0  0  0  0  0  0  0  0  0  0
   11.9523   13.4142   24.6752 O   0  0  0  0  0  0  0  0  0  0  0  0
  1  2  1  0
  2  3  2  0
  3  4  1  0
  4  5  1  0
  5  6  2  0
  7  5  1  6
  7  8  1  0
  8  9  1  0
  9 10  1  6
  3 11  1  0
 11 12  2  0
 12 13  1  0
 13 14  1  0
 13 15  2  0
 15 16  1  0
 16 17  1  0
 17 18  1  0
 18 19  1  0
 19 20  1  0
 20 21  2  0
 15  2  1  0
 20 16  1  0
  9  7  1  0
M  END
>  <alias>  (585) 
None

>  <rmsd(smina/fragmenstein)>  (585) 
0.42

>  <smiles>  (585) 
Cc1c(NC(=O)[C@H]2C[C@H]2C)ccc(F)c1N1CCNC1=O

>  <gnina_score>  (585) 
5.254

>  <inspiration_score>  (585) 
None

>  <energy_score>  (585) 
-23.047816

>  <distance_score>  (585) 
1.034456

>  <gnina_score_min>  (585) 
5.236

>  <inchikey>  (585) 
WPNJIANHFBXPQS-SCZZXKLOSA-N

>  <exports>  (585) 
['/opt/xchem-fragalysis-2/maxwin/BulkDock/OUTPUTS/openbind_a71ev2a_c2_elabs_1LOUU54.sdf', '/opt/xchem-fragalysis-2/maxwin/BulkDock/OUTPUTS/openbind_a71ev2a_c2_elabs_1LSYIDY.sdf']

>  <name>  (585) 
P545949

>  <ref_pdb>  (585) 
A0884a

>  <subsites>  (585) 
None

>  <HIPPO Pose ID>  (585) 
545949

>  <ref_mols>  (585) 
A0884a

>  <HIPPO Compound ID>  (585) 
384516

>  <tags>  (585) 
openbind_a71ev2a_c2_elabs,syndirella_product,openbind_a71ev2a_c2_elabs_fragonly_scored_top80percent,openbind_a71ev2a_c2_elabs_scored,BulkDock Fragalysis export,openbind_a71ev2a_c2_elabs_scored_top80percent,openbind_a71ev2a_c2_elabs_activefrags_only_scored_5.2plus,syndirella_placed

>  <smina_score_min>  (585) 
-6.298

$$$$
P545952
     RDKit          3D

 21 23  0  0  0  0  0  0  0  0999 V2000
    3.5428   14.7524   24.5276 C   0  0  0  0  0  0  0  0  0  0  0  0
    3.6253   15.0764   25.9811 C   0  0  1  0  0  0  0  0  0  0  0  0
    2.8811   14.2222   26.9692 C   0  0  0  0  0  0  0  0  0  0  0  0
    4.3943   14.2303   26.9765 C   0  0  1  0  0  0  0  0  0  0  0  0
    5.1587   13.0073   26.5869 C   0  0  0  0  0  0  0  0  0  0  0  0
    4.8811   11.9772   27.0574 O   0  0  0  0  0  0  0  0  0  0  0  0
    6.3100   13.3949   25.6399 N   0  0  0  0  0  0  0  0  0  0  0  0
    7.2738   12.6061   25.0175 C   0  0  0  0  0  0  0  0  0  0  0  0
    7.3108   11.2191   25.1569 C   0  0  0  0  0  0  0  0  0  0  0  0
    8.3127   10.4761   24.5266 C   0  0  0  0  0  0  0  0  0  0  0  0
    9.3106   11.1174   23.8001 C   0  0  0  0  0  0  0  0  0  0  0  0
    9.2866   12.5087   23.6755 C   0  0  0  0  0  0  0  0  0  0  0  0
   10.3980   13.1603   23.0841 N   0  0  0  0  0  0  0  0  0  0  0  0
   11.4808   13.3636   23.9122 C   0  0  0  0  0  0  0  0  0  0  0  0
   11.4633   13.3253   25.1389 O   0  0  0  0  0  0  0  0  0  0  0  0
   12.7187   13.7178   23.1782 C   0  0  0  0  0  0  0  0  0  0  0  0
   12.4391   14.9965   22.4621 C   0  0  0  0  0  0  0  0  0  0  0  0
   11.2434   14.8519   21.6957 N   0  0  0  0  0  0  0  0  0  0  0  0
   10.2002   14.0616   22.0630 C   0  0  0  0  0  0  0  0  0  0  0  0
    9.1407   14.2299   21.4718 O   0  0  0  0  0  0  0  0  0  0  0  0
    8.2501   13.2481   24.2556 C   0  0  0  0  0  0  0  0  0  0  0  0
  2  1  1  6
  2  3  1  0
  3  4  1  0
  4  5  1  6
  5  6  2  0
  5  7  1  0
  7  8  1  0
  8  9  2  0
  9 10  1  0
 10 11  2  0
 11 12  1  0
 12 13  1  0
 13 14  1  0
 14 15  2  0
 14 16  1  0
 16 17  1  0
 17 18  1  0
 18 19  1  0
 19 20  2  0
 12 21  2  0
  4  2  1  0
 21  8  1  0
 19 13  1  0
M  END
>  <alias>  (586) 
None

>  <rmsd(smina/fragmenstein)>  (586) 
1.018

>  <smiles>  (586) 
C[C@H]1C[C@H]1C(=O)Nc1cccc(N2C(=O)CCNC2=O)c1

>  <gnina_score>  (586) 
5.327

>  <inspiration_score>  (586) 
None

>  <energy_score>  (586) 
-35.365597

>  <distance_score>  (586) 
1.764025

>  <gnina_score_min>  (586) 
5.305

>  <inchikey>  (586) 
QZDABHULGOMQHG-JOYOIKCWSA-N

>  <exports>  (586) 
['/opt/xchem-fragalysis-2/maxwin/BulkDock/OUTPUTS/openbind_a71ev2a_c2_elabs_1LOUU54.sdf', '/opt/xchem-fragalysis-2/maxwin/BulkDock/OUTPUTS/openbind_a71ev2a_c2_elabs_1LSYIDY.sdf']

>  <name>  (586) 
P545952

>  <ref_pdb>  (586) 
A0884a

>  <subsites>  (586) 
None

>  <HIPPO Pose ID>  (586) 
545952

>  <ref_mols>  (586) 
A0884a

>  <HIPPO Compound ID>  (586) 
384519

>  <tags>  (586) 
openbind_a71ev2a_c2_elabs,syndirella_product,openbind_a71ev2a_c2_elabs_fragonly_scored_top80percent,openbind_a71ev2a_c2_elabs_scored,BulkDock Fragalysis export,openbind_a71ev2a_c2_elabs_scored_top80percent,openbind_a71ev2a_c2_elabs_activefrags_only_scored_5.2plus,syndirella_placed

>  <smina_score_min>  (586) 
-6.814

$$$$
P545954
     RDKit          3D

 21 23  0  0  0  0  0  0  0  0999 V2000
    8.2919   14.3457   25.0622 C   0  0  0  0  0  0  0  0  0  0  0  0
    8.3755   12.9158   24.6255 C   0  0  0  0  0  0  0  0  0  0  0  0
    7.6180   11.8993   25.2423 C   0  0  0  0  0  0  0  0  0  0  0  0
    6.6468   12.0463   26.2488 N   0  0  0  0  0  0  0  0  0  0  0  0
    5.8373   13.2840   26.6872 C   0  0  0  0  0  0  0  0  0  0  0  0
    5.7918   14.3560   26.2338 O   0  0  0  0  0  0  0  0  0  0  0  0
    5.0826   13.0114   27.9502 C   0  0  2  0  0  0  0  0  0  0  0  0
    4.3457   11.7245   28.2382 C   0  0  0  0  0  0  0  0  0  0  0  0
    3.5695   12.9659   27.8969 C   0  0  1  0  0  0  0  0  0  0  0  0
    2.7675   13.6716   28.9360 C   0  0  0  0  0  0  0  0  0  0  0  0
    7.8867   10.5610   24.9175 C   0  0  0  0  0  0  0  0  0  0  0  0
    8.8666   10.2142   23.9951 C   0  0  0  0  0  0  0  0  0  0  0  0
    9.5875   11.2064   23.3630 C   0  0  0  0  0  0  0  0  0  0  0  0
    9.3427   12.5496   23.6525 C   0  0  0  0  0  0  0  0  0  0  0  0
   10.1580   13.4841   22.9559 N   0  0  0  0  0  0  0  0  0  0  0  0
    9.5267   14.3600   21.9781 C   0  0  0  0  0  0  0  0  0  0  0  0
   10.4739   14.8641   20.9072 C   0  0  0  0  0  0  0  0  0  0  0  0
   11.8295   15.2159   21.4668 C   0  0  0  0  0  0  0  0  0  0  0  0
   12.2718   14.3714   22.5371 N   0  0  0  0  0  0  0  0  0  0  0  0
   11.4654   13.6572   23.3631 C   0  0  0  0  0  0  0  0  0  0  0  0
   11.9362   13.2152   24.4101 O   0  0  0  0  0  0  0  0  0  0  0  0
  1  2  1  0
  2  3  2  0
  3  4  1  0
  4  5  1  0
  5  6  2  0
  7  5  1  6
  7  8  1  0
  8  9  1  0
  9 10  1  1
  3 11  1  0
 11 12  2  0
 12 13  1  0
 13 14  2  0
 14 15  1  0
 15 16  1  0
 16 17  1  0
 17 18  1  0
 18 19  1  0
 19 20  1  0
 20 21  2  0
 14  2  1  0
 20 15  1  0
  9  7  1  0
M  END
>  <alias>  (587) 
None

>  <rmsd(smina/fragmenstein)>  (587) 
0.826

>  <smiles>  (587) 
Cc1c(NC(=O)[C@@H]2C[C@H]2C)cccc1N1CCCNC1=O

>  <gnina_score>  (587) 
5.217

>  <inspiration_score>  (587) 
None

>  <energy_score>  (587) 
-29.081924

>  <distance_score>  (587) 
0.964446

>  <gnina_score_min>  (587) 
5.256

>  <inchikey>  (587) 
RXMCRGQJSAUUPB-ZYHUDNBSSA-N

>  <exports>  (587) 
['/opt/xchem-fragalysis-2/maxwin/BulkDock/OUTPUTS/openbind_a71ev2a_c2_elabs_1LOUU54.sdf', '/opt/xchem-fragalysis-2/maxwin/BulkDock/OUTPUTS/openbind_a71ev2a_c2_elabs_1LSYIDY.sdf']

>  <name>  (587) 
P545954

>  <ref_pdb>  (587) 
A0884a

>  <subsites>  (587) 
None

>  <HIPPO Pose ID>  (587) 
545954

>  <ref_mols>  (587) 
A0884a

>  <HIPPO Compound ID>  (587) 
384521

>  <tags>  (587) 
openbind_a71ev2a_c2_elabs,syndirella_product,openbind_a71ev2a_c2_elabs_fragonly_scored_top80percent,openbind_a71ev2a_c2_elabs_scored,BulkDock Fragalysis export,openbind_a71ev2a_c2_elabs_scored_top80percent,openbind_a71ev2a_c2_elabs_activefrags_only_scored_5.2plus,syndirella_placed

>  <smina_score_min>  (587) 
-6.626

$$$$
P545956
     RDKit          3D

 21 23  0  0  0  0  0  0  0  0999 V2000
    9.9423   15.1064   21.1155 C   0  0  0  0  0  0  0  0  0  0  0  0
   11.3771   15.3860   21.4104 C   0  0  2  0  0  0  0  0  0  0  0  0
   12.3999   14.4044   20.9620 C   0  0  0  0  0  0  0  0  0  0  0  0
   12.2657   14.6516   22.4237 C   0  0  2  0  0  0  0  0  0  0  0  0
   11.4875   14.0344   23.5200 C   0  0  0  0  0  0  0  0  0  0  0  0
   11.5472   14.5597   24.5565 O   0  0  0  0  0  0  0  0  0  0  0  0
   10.6444   12.8421   23.0577 N   0  0  0  0  0  0  0  0  0  0  0  0
    9.6633   12.1282   23.7165 C   0  0  0  0  0  0  0  0  0  0  0  0
    9.4915   10.7822   23.4880 C   0  0  0  0  0  0  0  0  0  0  0  0
    8.5185   10.1267   24.2231 C   0  0  0  0  0  0  0  0  0  0  0  0
    7.6871   10.8049   25.1264 C   0  0  0  0  0  0  0  0  0  0  0  0
    7.8093   12.1814   25.3388 C   0  0  0  0  0  0  0  0  0  0  0  0
    6.9389   12.8917   26.2206 N   0  0  0  0  0  0  0  0  0  0  0  0
    5.8232   12.3726   26.8419 C   0  0  0  0  0  0  0  0  0  0  0  0
    5.4348   11.2116   26.9017 O   0  0  0  0  0  0  0  0  0  0  0  0
    5.0811   13.4956   27.5399 C   0  0  0  0  0  0  0  0  0  0  0  0
    5.9992   14.5693   27.3733 N   0  0  0  0  0  0  0  0  0  0  0  0
    7.1367   14.1710   26.7015 C   0  0  0  0  0  0  0  0  0  0  0  0
    8.1340   14.8754   26.7145 O   0  0  0  0  0  0  0  0  0  0  0  0
    8.8076   12.8232   24.5960 C   0  0  0  0  0  0  0  0  0  0  0  0
    8.8732   14.1621   24.5799 F   0  0  0  0  0  0  0  0  0  0  0  0
  2  1  1  1
  2  3  1  0
  3  4  1  0
  4  5  1  1
  5  6  2  0
  5  7  1  0
  7  8  1  0
  8  9  2  0
  9 10  1  0
 10 11  2  0
 11 12  1  0
 12 13  1  0
 13 14  1  0
 14 15  2  0
 14 16  1  0
 16 17  1  0
 17 18  1  0
 18 19  2  0
 12 20  2  0
 20 21  1  0
  4  2  1  0
 20  8  1  0
 18 13  1  0
M  END
>  <alias>  (588) 
None

>  <rmsd(smina/fragmenstein)>  (588) 
0.742

>  <smiles>  (588) 
C[C@@H]1C[C@@H]1C(=O)Nc1cccc(N2C(=O)CNC2=O)c1F

>  <gnina_score>  (588) 
5.328

>  <inspiration_score>  (588) 
None

>  <energy_score>  (588) 
-31.875406

>  <distance_score>  (588) 
0.964887

>  <gnina_score_min>  (588) 
5.208

>  <inchikey>  (588) 
IHESQXWRUUZUFC-SFYZADRCSA-N

>  <exports>  (588) 
['/opt/xchem-fragalysis-2/maxwin/BulkDock/OUTPUTS/openbind_a71ev2a_c2_elabs_1LOUU54.sdf', '/opt/xchem-fragalysis-2/maxwin/BulkDock/OUTPUTS/openbind_a71ev2a_c2_elabs_1LSYIDY.sdf']

>  <name>  (588) 
P545956

>  <ref_pdb>  (588) 
A0884a

>  <subsites>  (588) 
None

>  <HIPPO Pose ID>  (588) 
545956

>  <ref_mols>  (588) 
A0884a

>  <HIPPO Compound ID>  (588) 
384522

>  <tags>  (588) 
openbind_a71ev2a_c2_elabs,syndirella_product,openbind_a71ev2a_c2_elabs_fragonly_scored_top80percent,openbind_a71ev2a_c2_elabs_scored,BulkDock Fragalysis export,openbind_a71ev2a_c2_elabs_scored_top80percent,openbind_a71ev2a_c2_elabs_activefrags_only_scored_5.2plus,syndirella_placed

>  <smina_score_min>  (588) 
-6.857

$$$$
P545961
     RDKit          3D

 21 23  0  0  0  0  0  0  0  0999 V2000
   10.1251   15.3087   20.6261 C   0  0  0  0  0  0  0  0  0  0  0  0
   11.5267   14.7993   20.5961 C   0  0  1  0  0  0  0  0  0  0  0  0
   12.5821   15.4453   21.4429 C   0  0  0  0  0  0  0  0  0  0  0  0
   12.1295   14.0623   21.7769 C   0  0  1  0  0  0  0  0  0  0  0  0
   11.3573   13.8263   23.0130 C   0  0  0  0  0  0  0  0  0  0  0  0
   11.3384   14.6139   23.8670 O   0  0  0  0  0  0  0  0  0  0  0  0
   10.5968   12.5102   22.8619 N   0  0  0  0  0  0  0  0  0  0  0  0
    9.6182   11.9462   23.6502 C   0  0  0  0  0  0  0  0  0  0  0  0
    9.3775   10.5938   23.5446 C   0  0  0  0  0  0  0  0  0  0  0  0
    8.3845   10.0592   24.3375 C   0  0  0  0  0  0  0  0  0  0  0  0
    7.5903   10.8638   25.1538 C   0  0  0  0  0  0  0  0  0  0  0  0
    6.5771   10.2374   25.7546 F   0  0  0  0  0  0  0  0  0  0  0  0
    7.7995   12.2391   25.2735 C   0  0  0  0  0  0  0  0  0  0  0  0
    6.9626   13.0924   26.0574 N   0  0  0  0  0  0  0  0  0  0  0  0
    5.9803   12.6942   26.9440 C   0  0  0  0  0  0  0  0  0  0  0  0
    5.7482   11.5919   27.4252 O   0  0  0  0  0  0  0  0  0  0  0  0
    5.1706   13.9121   27.3499 C   0  0  0  0  0  0  0  0  0  0  0  0
    5.9664   14.9575   26.8041 N   0  0  0  0  0  0  0  0  0  0  0  0
    7.0283   14.4709   26.0776 C   0  0  0  0  0  0  0  0  0  0  0  0
    7.8624   15.2303   25.6102 O   0  0  0  0  0  0  0  0  0  0  0  0
    8.8618   12.7526   24.5145 C   0  0  0  0  0  0  0  0  0  0  0  0
  2  1  1  1
  2  3  1  0
  3  4  1  0
  4  5  1  1
  5  6  2  0
  5  7  1  0
  7  8  1  0
  8  9  2  0
  9 10  1  0
 10 11  2  0
 11 12  1  0
 11 13  1  0
 13 14  1  0
 14 15  1  0
 15 16  2  0
 15 17  1  0
 17 18  1  0
 18 19  1  0
 19 20  2  0
 13 21  2  0
  4  2  1  0
 21  8  1  0
 19 14  1  0
M  END
>  <alias>  (589) 
None

>  <rmsd(smina/fragmenstein)>  (589) 
1.057

>  <smiles>  (589) 
C[C@H]1C[C@H]1C(=O)Nc1ccc(F)c(N2C(=O)CNC2=O)c1

>  <gnina_score>  (589) 
5.248

>  <inspiration_score>  (589) 
None

>  <energy_score>  (589) 
-20.457699

>  <distance_score>  (589) 
0.983321

>  <gnina_score_min>  (589) 
5.274

>  <inchikey>  (589) 
XKSRAZVVSPIFOD-IONNQARKSA-N

>  <exports>  (589) 
['/opt/xchem-fragalysis-2/maxwin/BulkDock/OUTPUTS/openbind_a71ev2a_c2_elabs_1LOUU54.sdf', '/opt/xchem-fragalysis-2/maxwin/BulkDock/OUTPUTS/openbind_a71ev2a_c2_elabs_1LSYIDY.sdf']

>  <name>  (589) 
P545961

>  <ref_pdb>  (589) 
A0884a

>  <subsites>  (589) 
None

>  <HIPPO Pose ID>  (589) 
545961

>  <ref_mols>  (589) 
A0884a

>  <HIPPO Compound ID>  (589) 
384524

>  <tags>  (589) 
openbind_a71ev2a_c2_elabs,syndirella_product,openbind_a71ev2a_c2_elabs_fragonly_scored_top80percent,openbind_a71ev2a_c2_elabs_scored,BulkDock Fragalysis export,openbind_a71ev2a_c2_elabs_scored_top80percent,openbind_a71ev2a_c2_elabs_activefrags_only_scored_5.2plus,syndirella_placed

>  <smina_score_min>  (589) 
-6.85

$$$$
P545964
     RDKit          3D

 21 22  0  0  0  0  0  0  0  0999 V2000
    3.4690   15.3978   24.4256 C   0  0  0  0  0  0  0  0  0  0  0  0
    4.3009   15.2360   25.6969 C   0  0  0  0  0  0  0  0  0  0  0  0
    3.4139   15.4097   26.9295 C   0  0  0  0  0  0  0  0  0  0  0  0
    4.9870   13.8589   25.7153 C   0  0  0  0  0  0  0  0  0  0  0  0
    4.6244   12.9659   26.3815 O   0  0  0  0  0  0  0  0  0  0  0  0
    6.1434   13.9348   24.6655 N   0  0  0  0  0  0  0  0  0  0  0  0
    7.1041   12.9932   24.3110 C   0  0  0  0  0  0  0  0  0  0  0  0
    7.0704   11.6910   24.8264 C   0  0  0  0  0  0  0  0  0  0  0  0
    8.0185   10.7505   24.4305 C   0  0  0  0  0  0  0  0  0  0  0  0
    9.0597   11.1496   23.6098 C   0  0  0  0  0  0  0  0  0  0  0  0
   10.0602   10.2840   23.3975 F   0  0  0  0  0  0  0  0  0  0  0  0
    9.2050   12.5045   23.2372 C   0  0  0  0  0  0  0  0  0  0  0  0
   10.5277   13.0361   23.3243 N   0  0  0  0  0  0  0  0  0  0  0  0
   11.0374   12.8666   24.6603 C   0  0  0  0  0  0  0  0  0  0  0  0
   10.8423   14.1024   25.4542 C   0  0  0  0  0  0  0  0  0  0  0  0
   11.7296   15.0494   24.8176 C   0  0  0  0  0  0  0  0  0  0  0  0
   12.0860   15.9840   25.5339 O   0  0  0  0  0  0  0  0  0  0  0  0
   11.8905   14.9117   23.4547 N   0  0  0  0  0  0  0  0  0  0  0  0
   10.9961   14.1816   22.6873 C   0  0  0  0  0  0  0  0  0  0  0  0
   10.6299   14.5988   21.5990 O   0  0  0  0  0  0  0  0  0  0  0  0
    8.1479   13.3914   23.4701 C   0  0  0  0  0  0  0  0  0  0  0  0
  1  2  1  0
  2  3  1  0
  2  4  1  0
  4  5  2  0
  4  6  1  0
  6  7  1  0
  7  8  2  0
  8  9  1  0
  9 10  2  0
 10 11  1  0
 10 12  1  0
 12 13  1  0
 13 14  1  0
 14 15  1  0
 15 16  1  0
 16 17  2  0
 16 18  1  0
 18 19  1  0
 19 20  2  0
 12 21  2  0
 21  7  1  0
 19 13  1  0
M  END
>  <alias>  (590) 
None

>  <rmsd(smina/fragmenstein)>  (590) 
0.394

>  <smiles>  (590) 
CC(C)C(=O)Nc1ccc(F)c(N2CCC(=O)NC2=O)c1

>  <gnina_score>  (590) 
5.446

>  <inspiration_score>  (590) 
None

>  <energy_score>  (590) 
-3.445411

>  <distance_score>  (590) 
1.829806

>  <gnina_score_min>  (590) 
5.574

>  <inchikey>  (590) 
CQZUEGBCZORNIC-UHFFFAOYSA-N

>  <exports>  (590) 
['/opt/xchem-fragalysis-2/maxwin/BulkDock/OUTPUTS/openbind_a71ev2a_c2_elabs_1LOUU54.sdf', '/opt/xchem-fragalysis-2/maxwin/BulkDock/OUTPUTS/openbind_a71ev2a_c2_elabs_1LSYIDY.sdf']

>  <name>  (590) 
P545964

>  <ref_pdb>  (590) 
A0884a

>  <subsites>  (590) 
None

>  <HIPPO Pose ID>  (590) 
545964

>  <ref_mols>  (590) 
A0884a

>  <HIPPO Compound ID>  (590) 
384528

>  <tags>  (590) 
openbind_a71ev2a_c2_elabs,syndirella_product,openbind_a71ev2a_c2_elabs_fragonly_scored_top80percent,BulkDock Fragalysis export,openbind_a71ev2a_c2_elabs_scored,openbind_a71ev2a_c2_elabs_scored_top80percent,openbind_a71ev2a_c2_elabs_activefrags_only_scored_5.2plus,openbind_a71ev2a_c2_elabs_activefrags_only_scored_5.5plus,syndirella_placed

>  <smina_score_min>  (590) 
-4.999

$$$$
P545968
     RDKit          3D

 21 23  0  0  0  0  0  0  0  0999 V2000
    8.1327   14.5001   24.4971 C   0  0  0  0  0  0  0  0  0  0  0  0
    8.3259   13.0128   24.4783 C   0  0  0  0  0  0  0  0  0  0  0  0
    7.4442   12.1652   25.1819 C   0  0  0  0  0  0  0  0  0  0  0  0
    6.4149   12.6984   25.9641 N   0  0  0  0  0  0  0  0  0  0  0  0
    5.5015   12.0211   27.0389 C   0  0  0  0  0  0  0  0  0  0  0  0
    5.4249   10.9017   27.3713 O   0  0  0  0  0  0  0  0  0  0  0  0
    4.6271   13.1598   27.5795 C   0  0  0  0  0  0  0  0  0  0  0  0
    3.7433   12.9255   28.7750 C   0  0  0  0  0  0  0  0  0  0  0  0
    3.0221   11.6318   29.0535 C   0  0  0  0  0  0  0  0  0  0  0  0
    4.1618   12.0672   29.9403 C   0  0  0  0  0  0  0  0  0  0  0  0
    7.5933   10.7833   25.0925 C   0  0  0  0  0  0  0  0  0  0  0  0
    8.5935   10.2336   24.2969 C   0  0  0  0  0  0  0  0  0  0  0  0
    9.4983   11.0523   23.6413 C   0  0  0  0  0  0  0  0  0  0  0  0
    9.4074   12.4384   23.7732 C   0  0  0  0  0  0  0  0  0  0  0  0
   10.4926   13.1730   23.2616 N   0  0  0  0  0  0  0  0  0  0  0  0
   11.3907   13.8427   24.0458 C   0  0  0  0  0  0  0  0  0  0  0  0
   11.4531   13.8823   25.2682 O   0  0  0  0  0  0  0  0  0  0  0  0
   12.3045   14.6375   23.1375 C   0  0  0  0  0  0  0  0  0  0  0  0
   11.6751   14.4665   21.8837 N   0  0  0  0  0  0  0  0  0  0  0  0
   10.4896   13.8010   22.0550 C   0  0  0  0  0  0  0  0  0  0  0  0
    9.5719   13.9319   21.2681 O   0  0  0  0  0  0  0  0  0  0  0  0
  1  2  1  0
  2  3  2  0
  3  4  1  0
  4  5  1  0
  5  6  2  0
  5  7  1  0
  7  8  1  0
  8  9  1  0
  9 10  1  0
  3 11  1  0
 11 12  2  0
 12 13  1  0
 13 14  2  0
 14 15  1  0
 15 16  1  0
 16 17  2  0
 16 18  1  0
 18 19  1  0
 19 20  1  0
 20 21  2  0
 14  2  1  0
 20 15  1  0
 10  8  1  0
M  END
>  <alias>  (591) 
None

>  <rmsd(smina/fragmenstein)>  (591) 
0.652

>  <smiles>  (591) 
Cc1c(NC(=O)CC2CC2)cccc1N1C(=O)CNC1=O

>  <gnina_score>  (591) 
5.207

>  <inspiration_score>  (591) 
None

>  <energy_score>  (591) 
-7.385942

>  <distance_score>  (591) 
1.539485

>  <gnina_score_min>  (591) 
5.31

>  <inchikey>  (591) 
NMLRVKKRNFTNIZ-UHFFFAOYSA-N

>  <exports>  (591) 
['/opt/xchem-fragalysis-2/maxwin/BulkDock/OUTPUTS/openbind_a71ev2a_c2_elabs_1LOUU54.sdf', '/opt/xchem-fragalysis-2/maxwin/BulkDock/OUTPUTS/openbind_a71ev2a_c2_elabs_1LSYIDY.sdf']

>  <name>  (591) 
P545968

>  <ref_pdb>  (591) 
A0884a

>  <subsites>  (591) 
None

>  <HIPPO Pose ID>  (591) 
545968

>  <ref_mols>  (591) 
A0884a

>  <HIPPO Compound ID>  (591) 
384533

>  <tags>  (591) 
openbind_a71ev2a_c2_elabs,syndirella_product,openbind_a71ev2a_c2_elabs_fragonly_scored_top80percent,openbind_a71ev2a_c2_elabs_scored,BulkDock Fragalysis export,openbind_a71ev2a_c2_elabs_scored_top80percent,openbind_a71ev2a_c2_elabs_activefrags_only_scored_5.2plus,syndirella_placed

>  <smina_score_min>  (591) 
-6.293

$$$$
P545969
     RDKit          3D

 21 23  0  0  0  0  0  0  0  0999 V2000
    7.9580   14.5139   24.5789 C   0  0  0  0  0  0  0  0  0  0  0  0
    8.2090   13.0462   24.3828 C   0  0  0  0  0  0  0  0  0  0  0  0
    7.4531   12.0906   25.1011 C   0  0  0  0  0  0  0  0  0  0  0  0
    6.4208   12.5066   25.9485 N   0  0  0  0  0  0  0  0  0  0  0  0
    5.5897   11.7063   27.0035 C   0  0  0  0  0  0  0  0  0  0  0  0
    5.6980   10.6020   27.3734 O   0  0  0  0  0  0  0  0  0  0  0  0
    4.5561   12.7126   27.5262 C   0  0  0  0  0  0  0  0  0  0  0  0
    3.6976   12.3609   28.7113 C   0  0  0  0  0  0  0  0  0  0  0  0
    4.2505   11.6492   29.9188 C   0  0  0  0  0  0  0  0  0  0  0  0
    3.2253   10.9691   29.0472 C   0  0  0  0  0  0  0  0  0  0  0  0
    7.7559   10.7343   24.9939 C   0  0  0  0  0  0  0  0  0  0  0  0
    8.7893   10.3068   24.1672 C   0  0  0  0  0  0  0  0  0  0  0  0
    9.5469   11.2341   23.4672 C   0  0  0  0  0  0  0  0  0  0  0  0
    9.2736   12.6028   23.5621 C   0  0  0  0  0  0  0  0  0  0  0  0
   10.1567   13.4757   22.8549 N   0  0  0  0  0  0  0  0  0  0  0  0
    9.6143   14.3966   21.8620 C   0  0  0  0  0  0  0  0  0  0  0  0
   10.6279   14.8772   20.8406 C   0  0  0  0  0  0  0  0  0  0  0  0
   11.9405   15.2095   21.5014 C   0  0  0  0  0  0  0  0  0  0  0  0
   12.3282   14.2743   22.5146 N   0  0  0  0  0  0  0  0  0  0  0  0
   11.4624   13.5862   23.3049 C   0  0  0  0  0  0  0  0  0  0  0  0
   11.8868   13.1044   24.3546 O   0  0  0  0  0  0  0  0  0  0  0  0
  1  2  1  0
  2  3  2  0
  3  4  1  0
  4  5  1  0
  5  6  2  0
  5  7  1  0
  7  8  1  0
  8  9  1  0
  9 10  1  0
  3 11  1  0
 11 12  2  0
 12 13  1  0
 13 14  2  0
 14 15  1  0
 15 16  1  0
 16 17  1  0
 17 18  1  0
 18 19  1  0
 19 20  1  0
 20 21  2  0
 14  2  1  0
 20 15  1  0
 10  8  1  0
M  END
>  <alias>  (592) 
None

>  <rmsd(smina/fragmenstein)>  (592) 
0.57

>  <smiles>  (592) 
Cc1c(NC(=O)CC2CC2)cccc1N1CCCNC1=O

>  <gnina_score>  (592) 
5.226

>  <inspiration_score>  (592) 
None

>  <energy_score>  (592) 
-35.874968

>  <distance_score>  (592) 
1.108622

>  <gnina_score_min>  (592) 
5.228

>  <inchikey>  (592) 
NLNMPACWYOQUQW-UHFFFAOYSA-N

>  <exports>  (592) 
['/opt/xchem-fragalysis-2/maxwin/BulkDock/OUTPUTS/openbind_a71ev2a_c2_elabs_1LOUU54.sdf', '/opt/xchem-fragalysis-2/maxwin/BulkDock/OUTPUTS/openbind_a71ev2a_c2_elabs_1LSYIDY.sdf']

>  <name>  (592) 
P545969

>  <ref_pdb>  (592) 
A0884a

>  <subsites>  (592) 
None

>  <HIPPO Pose ID>  (592) 
545969

>  <ref_mols>  (592) 
A0884a

>  <HIPPO Compound ID>  (592) 
384534

>  <tags>  (592) 
openbind_a71ev2a_c2_elabs,syndirella_product,openbind_a71ev2a_c2_elabs_fragonly_scored_top80percent,openbind_a71ev2a_c2_elabs_scored,BulkDock Fragalysis export,openbind_a71ev2a_c2_elabs_scored_top80percent,openbind_a71ev2a_c2_elabs_activefrags_only_scored_5.2plus,syndirella_placed

>  <smina_score_min>  (592) 
-6.274

$$$$
P545970
     RDKit          3D

 21 23  0  0  0  0  0  0  0  0999 V2000
    5.1764   11.6669   26.9783 O   0  0  0  0  0  0  0  0  0  0  0  0
    5.5579   12.7418   26.7133 C   0  0  0  0  0  0  0  0  0  0  0  0
    4.8840   14.0139   27.2264 C   0  0  0  0  0  0  0  0  0  0  0  0
    3.8310   14.5182   26.2843 C   0  0  0  0  0  0  0  0  0  0  0  0
    2.3967   14.0793   26.4294 C   0  0  0  0  0  0  0  0  0  0  0  0
    2.7886   15.4895   26.7748 C   0  0  0  0  0  0  0  0  0  0  0  0
    6.7260   13.1997   25.7850 N   0  0  0  0  0  0  0  0  0  0  0  0
    7.6809   12.4537   25.0991 C   0  0  0  0  0  0  0  0  0  0  0  0
    7.6311   11.0634   25.0439 C   0  0  0  0  0  0  0  0  0  0  0  0
    8.5725   10.3643   24.2836 C   0  0  0  0  0  0  0  0  0  0  0  0
    9.5792   11.0407   23.5970 C   0  0  0  0  0  0  0  0  0  0  0  0
    9.6691   12.4280   23.6971 C   0  0  0  0  0  0  0  0  0  0  0  0
   10.7308   13.0974   23.0602 N   0  0  0  0  0  0  0  0  0  0  0  0
   11.7271   13.6985   23.7834 C   0  0  0  0  0  0  0  0  0  0  0  0
   12.0071   13.5164   24.9621 O   0  0  0  0  0  0  0  0  0  0  0  0
   12.3951   14.7447   22.9180 C   0  0  0  0  0  0  0  0  0  0  0  0
   11.5877   14.7046   21.7596 N   0  0  0  0  0  0  0  0  0  0  0  0
   10.4991   13.9102   21.9916 C   0  0  0  0  0  0  0  0  0  0  0  0
    9.4644   14.0538   21.3675 O   0  0  0  0  0  0  0  0  0  0  0  0
    8.7086   13.1276   24.4340 C   0  0  0  0  0  0  0  0  0  0  0  0
    8.7892   14.4656   24.5391 F   0  0  0  0  0  0  0  0  0  0  0  0
  1  2  2  0
  2  3  1  0
  3  4  1  0
  4  5  1  0
  5  6  1  0
  2  7  1  0
  7  8  1  0
  8  9  2  0
  9 10  1  0
 10 11  2  0
 11 12  1  0
 12 13  1  0
 13 14  1  0
 14 15  2  0
 14 16  1  0
 16 17  1  0
 17 18  1  0
 18 19  2  0
 12 20  2  0
 20 21  1  0
  6  4  1  0
 20  8  1  0
 18 13  1  0
M  END
>  <alias>  (593) 
None

>  <rmsd(smina/fragmenstein)>  (593) 
0.696

>  <smiles>  (593) 
O=C(CC1CC1)Nc1cccc(N2C(=O)CNC2=O)c1F

>  <gnina_score>  (593) 
5.42

>  <inspiration_score>  (593) 
None

>  <energy_score>  (593) 
-33.265258

>  <distance_score>  (593) 
1.57124

>  <gnina_score_min>  (593) 
5.397

>  <inchikey>  (593) 
BBQYCTXYWWYPBQ-UHFFFAOYSA-N

>  <exports>  (593) 
['/opt/xchem-fragalysis-2/maxwin/BulkDock/OUTPUTS/openbind_a71ev2a_c2_elabs_1LOUU54.sdf', '/opt/xchem-fragalysis-2/maxwin/BulkDock/OUTPUTS/openbind_a71ev2a_c2_elabs_1LSYIDY.sdf']

>  <name>  (593) 
P545970

>  <ref_pdb>  (593) 
A0884a

>  <subsites>  (593) 
None

>  <HIPPO Pose ID>  (593) 
545970

>  <ref_mols>  (593) 
A0884a

>  <HIPPO Compound ID>  (593) 
384535

>  <tags>  (593) 
openbind_a71ev2a_c2_elabs,syndirella_product,openbind_a71ev2a_c2_elabs_fragonly_scored_top80percent,openbind_a71ev2a_c2_elabs_scored,BulkDock Fragalysis export,openbind_a71ev2a_c2_elabs_scored_top80percent,openbind_a71ev2a_c2_elabs_activefrags_only_scored_5.2plus,syndirella_placed

>  <smina_score_min>  (593) 
-6.508

$$$$
P545971
     RDKit          3D

 21 23  0  0  0  0  0  0  0  0999 V2000
    4.8769   12.0277   26.8202 O   0  0  0  0  0  0  0  0  0  0  0  0
    5.1458   13.0392   26.2950 C   0  0  0  0  0  0  0  0  0  0  0  0
    4.2954   14.3101   26.3851 C   0  0  0  0  0  0  0  0  0  0  0  0
    3.0368   14.1333   27.1873 C   0  0  0  0  0  0  0  0  0  0  0  0
    3.0300   14.3831   28.6732 C   0  0  0  0  0  0  0  0  0  0  0  0
    2.3267   15.3385   27.7486 C   0  0  0  0  0  0  0  0  0  0  0  0
    6.3561   13.4141   25.3799 N   0  0  0  0  0  0  0  0  0  0  0  0
    7.3831   12.6244   24.8726 C   0  0  0  0  0  0  0  0  0  0  0  0
    7.4267   11.2476   25.0895 C   0  0  0  0  0  0  0  0  0  0  0  0
    8.4441   10.4882   24.5137 C   0  0  0  0  0  0  0  0  0  0  0  0
    9.4563   11.1133   23.7980 C   0  0  0  0  0  0  0  0  0  0  0  0
   10.4240   10.3569   23.2746 F   0  0  0  0  0  0  0  0  0  0  0  0
    9.4550   12.4929   23.6132 C   0  0  0  0  0  0  0  0  0  0  0  0
   10.5280   13.1275   22.9557 N   0  0  0  0  0  0  0  0  0  0  0  0
   11.6813   13.4525   23.6254 C   0  0  0  0  0  0  0  0  0  0  0  0
   12.0516   13.0567   24.7226 O   0  0  0  0  0  0  0  0  0  0  0  0
   12.3765   14.5676   22.8743 C   0  0  0  0  0  0  0  0  0  0  0  0
   11.5104   14.7517   21.7738 N   0  0  0  0  0  0  0  0  0  0  0  0
   10.3550   14.0524   21.9735 C   0  0  0  0  0  0  0  0  0  0  0  0
    9.3293   14.3449   21.3876 O   0  0  0  0  0  0  0  0  0  0  0  0
    8.3829   13.2419   24.1163 C   0  0  0  0  0  0  0  0  0  0  0  0
  1  2  2  0
  2  3  1  0
  3  4  1  0
  4  5  1  0
  5  6  1  0
  2  7  1  0
  7  8  1  0
  8  9  2  0
  9 10  1  0
 10 11  2  0
 11 12  1  0
 11 13  1  0
 13 14  1  0
 14 15  1  0
 15 16  2  0
 15 17  1  0
 17 18  1  0
 18 19  1  0
 19 20  2  0
 13 21  2  0
  6  4  1  0
 21  8  1  0
 19 14  1  0
M  END
>  <alias>  (594) 
None

>  <rmsd(smina/fragmenstein)>  (594) 
1.275

>  <smiles>  (594) 
O=C(CC1CC1)Nc1ccc(F)c(N2C(=O)CNC2=O)c1

>  <gnina_score>  (594) 
5.334

>  <inspiration_score>  (594) 
None

>  <energy_score>  (594) 
-36.380817

>  <distance_score>  (594) 
1.751068

>  <gnina_score_min>  (594) 
5.294

>  <inchikey>  (594) 
WOFQJXKWIPXMFJ-UHFFFAOYSA-N

>  <exports>  (594) 
['/opt/xchem-fragalysis-2/maxwin/BulkDock/OUTPUTS/openbind_a71ev2a_c2_elabs_1LOUU54.sdf', '/opt/xchem-fragalysis-2/maxwin/BulkDock/OUTPUTS/openbind_a71ev2a_c2_elabs_1LSYIDY.sdf']

>  <name>  (594) 
P545971

>  <ref_pdb>  (594) 
A0884a

>  <subsites>  (594) 
None

>  <HIPPO Pose ID>  (594) 
545971

>  <ref_mols>  (594) 
A0884a

>  <HIPPO Compound ID>  (594) 
384537

>  <tags>  (594) 
openbind_a71ev2a_c2_elabs,syndirella_product,openbind_a71ev2a_c2_elabs_fragonly_scored_top80percent,openbind_a71ev2a_c2_elabs_scored,BulkDock Fragalysis export,openbind_a71ev2a_c2_elabs_scored_top80percent,openbind_a71ev2a_c2_elabs_activefrags_only_scored_5.2plus,syndirella_placed

>  <smina_score_min>  (594) 
-6.577

$$$$
P545972
     RDKit          3D

 21 22  0  0  0  0  0  0  0  0999 V2000
    3.5637   13.6027   29.2453 C   0  0  0  0  0  0  0  0  0  0  0  0
    3.0708   13.5948   27.8050 C   0  0  0  0  0  0  0  0  0  0  0  0
    4.1813   13.9038   26.8019 C   0  0  0  0  0  0  0  0  0  0  0  0
    5.1452   12.7369   26.5839 C   0  0  0  0  0  0  0  0  0  0  0  0
    5.0502   11.6951   27.1074 O   0  0  0  0  0  0  0  0  0  0  0  0
    6.2018   13.2623   25.5635 N   0  0  0  0  0  0  0  0  0  0  0  0
    7.2554   12.6057   24.9362 C   0  0  0  0  0  0  0  0  0  0  0  0
    7.4723   11.2366   25.1000 C   0  0  0  0  0  0  0  0  0  0  0  0
    8.5347   10.6216   24.4401 C   0  0  0  0  0  0  0  0  0  0  0  0
    9.4022   11.3852   23.6689 C   0  0  0  0  0  0  0  0  0  0  0  0
   10.3929   10.7608   23.0275 F   0  0  0  0  0  0  0  0  0  0  0  0
    9.2046   12.7584   23.4990 C   0  0  0  0  0  0  0  0  0  0  0  0
   10.1051   13.5253   22.7070 N   0  0  0  0  0  0  0  0  0  0  0  0
    9.5640   14.4583   21.7314 C   0  0  0  0  0  0  0  0  0  0  0  0
   10.5522   14.9088   20.6774 C   0  0  0  0  0  0  0  0  0  0  0  0
   11.9639   14.5737   21.0395 C   0  0  0  0  0  0  0  0  0  0  0  0
   12.8376   14.4308   20.1883 O   0  0  0  0  0  0  0  0  0  0  0  0
   12.2140   14.4674   22.3737 N   0  0  0  0  0  0  0  0  0  0  0  0
   11.4031   13.7099   23.1735 C   0  0  0  0  0  0  0  0  0  0  0  0
   11.8385   13.2493   24.2280 O   0  0  0  0  0  0  0  0  0  0  0  0
    8.1032   13.3581   24.1154 C   0  0  0  0  0  0  0  0  0  0  0  0
  1  2  1  0
  2  3  1  0
  3  4  1  0
  4  5  2  0
  4  6  1  0
  6  7  1  0
  7  8  2  0
  8  9  1  0
  9 10  2  0
 10 11  1  0
 10 12  1  0
 12 13  1  0
 13 14  1  0
 14 15  1  0
 15 16  1  0
 16 17  2  0
 16 18  1  0
 18 19  1  0
 19 20  2  0
 12 21  2  0
 21  7  1  0
 19 13  1  0
M  END
>  <alias>  (595) 
None

>  <rmsd(smina/fragmenstein)>  (595) 
0.494

>  <smiles>  (595) 
CCCC(=O)Nc1ccc(F)c(N2CCC(=O)NC2=O)c1

>  <gnina_score>  (595) 
5.34

>  <inspiration_score>  (595) 
None

>  <energy_score>  (595) 
-28.083429

>  <distance_score>  (595) 
1.273839

>  <gnina_score_min>  (595) 
5.351

>  <inchikey>  (595) 
CQNGDIMSUFLHHG-UHFFFAOYSA-N

>  <exports>  (595) 
['/opt/xchem-fragalysis-2/maxwin/BulkDock/OUTPUTS/openbind_a71ev2a_c2_elabs_1LOUU54.sdf', '/opt/xchem-fragalysis-2/maxwin/BulkDock/OUTPUTS/openbind_a71ev2a_c2_elabs_1LSYIDY.sdf']

>  <name>  (595) 
P545972

>  <ref_pdb>  (595) 
A0884a

>  <subsites>  (595) 
None

>  <HIPPO Pose ID>  (595) 
545972

>  <ref_mols>  (595) 
A0884a

>  <HIPPO Compound ID>  (595) 
384540

>  <tags>  (595) 
openbind_a71ev2a_c2_elabs,syndirella_product,openbind_a71ev2a_c2_elabs_fragonly_scored_top80percent,openbind_a71ev2a_c2_elabs_scored,BulkDock Fragalysis export,openbind_a71ev2a_c2_elabs_scored_top80percent,openbind_a71ev2a_c2_elabs_activefrags_only_scored_5.2plus,syndirella_placed

>  <smina_score_min>  (595) 
-6.426

$$$$
P545974
     RDKit          3D

 21 22  0  0  0  0  0  0  0  0999 V2000
    3.7138   15.3352   28.7952 C   0  0  0  0  0  0  0  0  0  0  0  0
    3.1987   15.1354   27.3766 C   0  0  0  0  0  0  0  0  0  0  0  0
    4.3244   15.0856   26.3450 C   0  0  0  0  0  0  0  0  0  0  0  0
    5.1073   13.7725   26.3644 C   0  0  0  0  0  0  0  0  0  0  0  0
    4.8491   12.8556   27.0458 O   0  0  0  0  0  0  0  0  0  0  0  0
    6.2505   13.9635   25.3116 N   0  0  0  0  0  0  0  0  0  0  0  0
    7.2172   13.0536   24.8342 C   0  0  0  0  0  0  0  0  0  0  0  0
    8.1167   13.6424   23.9266 C   0  0  0  0  0  0  0  0  0  0  0  0
    9.2158   12.9555   23.4034 C   0  0  0  0  0  0  0  0  0  0  0  0
   10.1566   13.6224   22.5732 N   0  0  0  0  0  0  0  0  0  0  0  0
    9.6664   14.5658   21.5780 C   0  0  0  0  0  0  0  0  0  0  0  0
   10.6624   14.8940   20.4906 C   0  0  0  0  0  0  0  0  0  0  0  0
   12.0530   14.5139   20.8810 C   0  0  0  0  0  0  0  0  0  0  0  0
   12.9066   14.2493   20.0396 O   0  0  0  0  0  0  0  0  0  0  0  0
   12.2931   14.4929   22.2208 N   0  0  0  0  0  0  0  0  0  0  0  0
   11.4642   13.7725   23.0383 C   0  0  0  0  0  0  0  0  0  0  0  0
   11.8938   13.3052   24.0919 O   0  0  0  0  0  0  0  0  0  0  0  0
    9.3841   11.6143   23.7176 C   0  0  0  0  0  0  0  0  0  0  0  0
    8.4642   10.9888   24.5571 C   0  0  0  0  0  0  0  0  0  0  0  0
    7.3935   11.6997   25.1511 C   0  0  0  0  0  0  0  0  0  0  0  0
    6.5245   10.9384   26.0976 C   0  0  0  0  0  0  0  0  0  0  0  0
  1  2  1  0
  2  3  1  0
  3  4  1  0
  4  5  2  0
  4  6  1  0
  6  7  1  0
  7  8  2  0
  8  9  1  0
  9 10  1  0
 10 11  1  0
 11 12  1  0
 12 13  1  0
 13 14  2  0
 13 15  1  0
 15 16  1  0
 16 17  2  0
  9 18  2  0
 18 19  1  0
 19 20  2  0
 20 21  1  0
 20  7  1  0
 16 10  1  0
M  END
>  <alias>  (596) 
None

>  <rmsd(smina/fragmenstein)>  (596) 
0.985

>  <smiles>  (596) 
CCCC(=O)Nc1cc(N2CCC(=O)NC2=O)ccc1C

>  <gnina_score>  (596) 
5.25

>  <inspiration_score>  (596) 
None

>  <energy_score>  (596) 
-9.562641

>  <distance_score>  (596) 
1.619779

>  <gnina_score_min>  (596) 
5.201

>  <inchikey>  (596) 
UFJGSYVPOCGJQI-UHFFFAOYSA-N

>  <exports>  (596) 
['/opt/xchem-fragalysis-2/maxwin/BulkDock/OUTPUTS/openbind_a71ev2a_c2_elabs_1LOUU54.sdf', '/opt/xchem-fragalysis-2/maxwin/BulkDock/OUTPUTS/openbind_a71ev2a_c2_elabs_1LSYIDY.sdf']

>  <name>  (596) 
P545974

>  <ref_pdb>  (596) 
A0884a

>  <subsites>  (596) 
None

>  <HIPPO Pose ID>  (596) 
545974

>  <ref_mols>  (596) 
A0884a

>  <HIPPO Compound ID>  (596) 
384542

>  <tags>  (596) 
openbind_a71ev2a_c2_elabs,syndirella_product,openbind_a71ev2a_c2_elabs_fragonly_scored_top80percent,openbind_a71ev2a_c2_elabs_scored,BulkDock Fragalysis export,openbind_a71ev2a_c2_elabs_scored_top80percent,openbind_a71ev2a_c2_elabs_activefrags_only_scored_5.2plus,syndirella_placed

>  <smina_score_min>  (596) 
-6.759

$$$$
P545975
     RDKit          3D

 21 22  0  0  0  0  0  0  0  0999 V2000
    2.4213   15.5392   28.4116 C   0  0  0  0  0  0  0  0  0  0  0  0
    3.1366   14.2341   28.1039 C   0  0  0  0  0  0  0  0  0  0  0  0
    4.3032   14.4479   27.1422 C   0  0  0  0  0  0  0  0  0  0  0  0
    5.0224   13.1407   26.8165 C   0  0  0  0  0  0  0  0  0  0  0  0
    4.7352   12.0995   27.2677 O   0  0  0  0  0  0  0  0  0  0  0  0
    6.1257   13.5242   25.7801 N   0  0  0  0  0  0  0  0  0  0  0  0
    7.1184   12.7475   25.1876 C   0  0  0  0  0  0  0  0  0  0  0  0
    7.1685   11.3710   25.3634 C   0  0  0  0  0  0  0  0  0  0  0  0
    8.1280   10.6252   24.6864 C   0  0  0  0  0  0  0  0  0  0  0  0
    9.0551   11.2393   23.8308 C   0  0  0  0  0  0  0  0  0  0  0  0
    9.9581   10.3222   23.0710 C   0  0  0  0  0  0  0  0  0  0  0  0
    9.0462   12.6397   23.6925 C   0  0  0  0  0  0  0  0  0  0  0  0
    9.9871   13.3264   22.8563 N   0  0  0  0  0  0  0  0  0  0  0  0
    9.4639   14.3174   21.9242 C   0  0  0  0  0  0  0  0  0  0  0  0
   10.4465   14.7887   20.8745 C   0  0  0  0  0  0  0  0  0  0  0  0
   11.8656   14.5144   21.2511 C   0  0  0  0  0  0  0  0  0  0  0  0
   12.7658   14.4934   20.4163 O   0  0  0  0  0  0  0  0  0  0  0  0
   12.0947   14.3126   22.5774 N   0  0  0  0  0  0  0  0  0  0  0  0
   11.2717   13.5456   23.3594 C   0  0  0  0  0  0  0  0  0  0  0  0
   11.6965   13.1037   24.4248 O   0  0  0  0  0  0  0  0  0  0  0  0
    8.0580   13.3763   24.3649 C   0  0  0  0  0  0  0  0  0  0  0  0
  1  2  1  0
  2  3  1  0
  3  4  1  0
  4  5  2  0
  4  6  1  0
  6  7  1  0
  7  8  2  0
  8  9  1  0
  9 10  2  0
 10 11  1  0
 10 12  1  0
 12 13  1  0
 13 14  1  0
 14 15  1  0
 15 16  1  0
 16 17  2  0
 16 18  1  0
 18 19  1  0
 19 20  2  0
 12 21  2  0
 21  7  1  0
 19 13  1  0
M  END
>  <alias>  (597) 
None

>  <rmsd(smina/fragmenstein)>  (597) 
0.992

>  <smiles>  (597) 
CCCC(=O)Nc1ccc(C)c(N2CCC(=O)NC2=O)c1

>  <gnina_score>  (597) 
5.336

>  <inspiration_score>  (597) 
None

>  <energy_score>  (597) 
-29.247474

>  <distance_score>  (597) 
1.40538

>  <gnina_score_min>  (597) 
5.39

>  <inchikey>  (597) 
CBNJWGYNSJDQGE-UHFFFAOYSA-N

>  <exports>  (597) 
['/opt/xchem-fragalysis-2/maxwin/BulkDock/OUTPUTS/openbind_a71ev2a_c2_elabs_1LOUU54.sdf', '/opt/xchem-fragalysis-2/maxwin/BulkDock/OUTPUTS/openbind_a71ev2a_c2_elabs_1LSYIDY.sdf']

>  <name>  (597) 
P545975

>  <ref_pdb>  (597) 
A0884a

>  <subsites>  (597) 
None

>  <HIPPO Pose ID>  (597) 
545975

>  <ref_mols>  (597) 
A0884a

>  <HIPPO Compound ID>  (597) 
384546

>  <tags>  (597) 
openbind_a71ev2a_c2_elabs,syndirella_product,openbind_a71ev2a_c2_elabs_fragonly_scored_top80percent,openbind_a71ev2a_c2_elabs_scored,BulkDock Fragalysis export,openbind_a71ev2a_c2_elabs_scored_top80percent,openbind_a71ev2a_c2_elabs_activefrags_only_scored_5.2plus,syndirella_placed

>  <smina_score_min>  (597) 
-6.587

$$$$
P545976
     RDKit          3D

 21 22  0  0  0  0  0  0  0  0999 V2000
    5.3955   15.0542   29.3120 C   0  0  0  0  0  0  0  0  0  0  0  0
    5.1518   15.6396   27.9284 C   0  0  0  0  0  0  0  0  0  0  0  0
    4.2916   14.7321   27.0520 C   0  0  0  0  0  0  0  0  0  0  0  0
    4.9756   13.4136   26.7036 C   0  0  0  0  0  0  0  0  0  0  0  0
    4.6336   12.3839   27.1436 O   0  0  0  0  0  0  0  0  0  0  0  0
    6.1160   13.7527   25.6945 N   0  0  0  0  0  0  0  0  0  0  0  0
    7.0865   12.9369   25.1209 C   0  0  0  0  0  0  0  0  0  0  0  0
    7.1304   11.5689   25.3683 C   0  0  0  0  0  0  0  0  0  0  0  0
    8.0902   10.7855   24.7359 C   0  0  0  0  0  0  0  0  0  0  0  0
    9.0249   11.3673   23.8759 C   0  0  0  0  0  0  0  0  0  0  0  0
   10.0325   10.2704   23.0369 Cl  0  0  0  0  0  0  0  0  0  0  0  0
    9.0196   12.7528   23.6389 C   0  0  0  0  0  0  0  0  0  0  0  0
    9.9799   13.3992   22.7868 N   0  0  0  0  0  0  0  0  0  0  0  0
    9.4908   14.3762   21.8192 C   0  0  0  0  0  0  0  0  0  0  0  0
   10.4996   14.8188   20.7813 C   0  0  0  0  0  0  0  0  0  0  0  0
   11.9048   14.4993   21.1719 C   0  0  0  0  0  0  0  0  0  0  0  0
   12.8082   14.4240   20.3429 O   0  0  0  0  0  0  0  0  0  0  0  0
   12.1177   14.3160   22.5048 N   0  0  0  0  0  0  0  0  0  0  0  0
   11.2677   13.5866   23.2929 C   0  0  0  0  0  0  0  0  0  0  0  0
   11.6622   13.1534   24.3746 O   0  0  0  0  0  0  0  0  0  0  0  0
    8.0244   13.5216   24.2618 C   0  0  0  0  0  0  0  0  0  0  0  0
  1  2  1  0
  2  3  1  0
  3  4  1  0
  4  5  2  0
  4  6  1  0
  6  7  1  0
  7  8  2  0
  8  9  1  0
  9 10  2  0
 10 11  1  0
 10 12  1  0
 12 13  1  0
 13 14  1  0
 14 15  1  0
 15 16  1  0
 16 17  2  0
 16 18  1  0
 18 19  1  0
 19 20  2  0
 12 21  2  0
 21  7  1  0
 19 13  1  0
M  END
>  <alias>  (598) 
None

>  <rmsd(smina/fragmenstein)>  (598) 
1.178

>  <smiles>  (598) 
CCCC(=O)Nc1ccc(Cl)c(N2CCC(=O)NC2=O)c1

>  <gnina_score>  (598) 
5.532

>  <inspiration_score>  (598) 
None

>  <energy_score>  (598) 
-16.780641

>  <distance_score>  (598) 
1.513451

>  <gnina_score_min>  (598) 
5.533

>  <inchikey>  (598) 
VVRJISQLTWSTNE-UHFFFAOYSA-N

>  <exports>  (598) 
['/opt/xchem-fragalysis-2/maxwin/BulkDock/OUTPUTS/openbind_a71ev2a_c2_elabs_1LOUU54.sdf', '/opt/xchem-fragalysis-2/maxwin/BulkDock/OUTPUTS/openbind_a71ev2a_c2_elabs_1LSYIDY.sdf']

>  <name>  (598) 
P545976

>  <ref_pdb>  (598) 
A0884a

>  <subsites>  (598) 
None

>  <HIPPO Pose ID>  (598) 
545976

>  <ref_mols>  (598) 
A0884a

>  <HIPPO Compound ID>  (598) 
384548

>  <tags>  (598) 
openbind_a71ev2a_c2_elabs,syndirella_product,openbind_a71ev2a_c2_elabs_fragonly_scored_top80percent,BulkDock Fragalysis export,openbind_a71ev2a_c2_elabs_scored,openbind_a71ev2a_c2_elabs_scored_top80percent,openbind_a71ev2a_c2_elabs_activefrags_only_scored_5.2plus,openbind_a71ev2a_c2_elabs_activefrags_only_scored_5.5plus,syndirella_placed

>  <smina_score_min>  (598) 
-6.629

$$$$
P545977
     RDKit          3D

 21 22  0  0  0  0  0  0  0  0999 V2000
    2.9986   13.1381   29.1575 C   0  0  0  0  0  0  0  0  0  0  0  0
    3.9720   12.1765   28.4961 C   0  0  0  0  0  0  0  0  0  0  0  0
    4.8048   12.8732   27.4227 C   0  0  0  0  0  0  0  0  0  0  0  0
    5.7765   11.9153   26.7360 C   0  0  0  0  0  0  0  0  0  0  0  0
    5.8264   10.7663   26.9441 O   0  0  0  0  0  0  0  0  0  0  0  0
    6.5923   12.7977   25.7443 N   0  0  0  0  0  0  0  0  0  0  0  0
    7.6570   12.4709   24.9110 C   0  0  0  0  0  0  0  0  0  0  0  0
    8.0720   11.1495   24.7152 C   0  0  0  0  0  0  0  0  0  0  0  0
    9.1475   10.9045   23.8668 C   0  0  0  0  0  0  0  0  0  0  0  0
    9.7610    9.2085   23.3999 Br  0  0  0  0  0  0  0  0  0  0  0  0
    9.8369   11.9411   23.2762 C   0  0  0  0  0  0  0  0  0  0  0  0
    9.4318   13.2483   23.4814 C   0  0  0  0  0  0  0  0  0  0  0  0
   10.1600   14.2745   22.8315 N   0  0  0  0  0  0  0  0  0  0  0  0
    9.6285   14.6213   21.5085 C   0  0  0  0  0  0  0  0  0  0  0  0
   10.5723   15.4116   20.6476 C   0  0  0  0  0  0  0  0  0  0  0  0
   11.9441   14.8403   20.8308 C   0  0  0  0  0  0  0  0  0  0  0  0
   12.6545   14.4362   19.9170 O   0  0  0  0  0  0  0  0  0  0  0  0
   12.3404   14.8192   22.1366 N   0  0  0  0  0  0  0  0  0  0  0  0
   11.5268   14.3129   23.1042 C   0  0  0  0  0  0  0  0  0  0  0  0
   12.0148   13.8845   24.1523 O   0  0  0  0  0  0  0  0  0  0  0  0
    8.3171   13.5219   24.2636 C   0  0  0  0  0  0  0  0  0  0  0  0
  1  2  1  0
  2  3  1  0
  3  4  1  0
  4  5  2  0
  4  6  1  0
  6  7  1  0
  7  8  2  0
  8  9  1  0
  9 10  1  0
  9 11  2  0
 11 12  1  0
 12 13  1  0
 13 14  1  0
 14 15  1  0
 15 16  1  0
 16 17  2  0
 16 18  1  0
 18 19  1  0
 19 20  2  0
 12 21  2  0
 21  7  1  0
 19 13  1  0
M  END
>  <alias>  (599) 
None

>  <rmsd(smina/fragmenstein)>  (599) 
0.302

>  <smiles>  (599) 
CCCC(=O)Nc1cc(Br)cc(N2CCC(=O)NC2=O)c1

>  <gnina_score>  (599) 
5.545

>  <inspiration_score>  (599) 
None

>  <energy_score>  (599) 
-27.777199

>  <distance_score>  (599) 
1.258633

>  <gnina_score_min>  (599) 
5.558

>  <inchikey>  (599) 
JGXNPBRJVFJWJT-UHFFFAOYSA-N

>  <exports>  (599) 
['/opt/xchem-fragalysis-2/maxwin/BulkDock/OUTPUTS/openbind_a71ev2a_c2_elabs_1LOUU54.sdf', '/opt/xchem-fragalysis-2/maxwin/BulkDock/OUTPUTS/openbind_a71ev2a_c2_elabs_1LSYIDY.sdf']

>  <name>  (599) 
P545977

>  <ref_pdb>  (599) 
A0884a

>  <subsites>  (599) 
None

>  <HIPPO Pose ID>  (599) 
545977

>  <ref_mols>  (599) 
A0884a

>  <HIPPO Compound ID>  (599) 
384549

>  <tags>  (599) 
openbind_a71ev2a_c2_elabs,syndirella_product,openbind_a71ev2a_c2_elabs_fragonly_scored_top80percent,BulkDock Fragalysis export,openbind_a71ev2a_c2_elabs_scored,openbind_a71ev2a_c2_elabs_scored_top80percent,openbind_a71ev2a_c2_elabs_activefrags_only_scored_5.2plus,openbind_a71ev2a_c2_elabs_activefrags_only_scored_5.5plus,syndirella_placed

>  <smina_score_min>  (599) 
-6.244

$$$$
P545983
     RDKit          3D

 21 22  0  0  0  0  0  0  0  0999 V2000
    3.7309   13.5593   29.2200 C   0  0  0  0  0  0  0  0  0  0  0  0
    3.2062   13.5811   27.7911 C   0  0  0  0  0  0  0  0  0  0  0  0
    4.3027   13.8715   26.7673 C   0  0  0  0  0  0  0  0  0  0  0  0
    5.2369   12.6857   26.5255 C   0  0  0  0  0  0  0  0  0  0  0  0
    5.1062   11.6313   27.0144 O   0  0  0  0  0  0  0  0  0  0  0  0
    6.3166   13.2107   25.5272 N   0  0  0  0  0  0  0  0  0  0  0  0
    7.3595   12.5377   24.8804 C   0  0  0  0  0  0  0  0  0  0  0  0
    8.1839   13.3130   24.0553 C   0  0  0  0  0  0  0  0  0  0  0  0
    9.2987   12.7495   23.4262 C   0  0  0  0  0  0  0  0  0  0  0  0
   10.1779   13.5447   22.6497 N   0  0  0  0  0  0  0  0  0  0  0  0
    9.6177   14.4804   21.6878 C   0  0  0  0  0  0  0  0  0  0  0  0
   10.5929   14.9258   20.6199 C   0  0  0  0  0  0  0  0  0  0  0  0
   12.0022   14.5623   20.9663 C   0  0  0  0  0  0  0  0  0  0  0  0
   12.8466   14.3360   20.1050 O   0  0  0  0  0  0  0  0  0  0  0  0
   12.2689   14.5187   22.3007 N   0  0  0  0  0  0  0  0  0  0  0  0
   11.4781   13.7495   23.1088 C   0  0  0  0  0  0  0  0  0  0  0  0
   11.9312   13.2766   24.1496 O   0  0  0  0  0  0  0  0  0  0  0  0
    9.5492   11.3832   23.5584 C   0  0  0  0  0  0  0  0  0  0  0  0
    8.6993   10.5923   24.3243 C   0  0  0  0  0  0  0  0  0  0  0  0
    7.6321   11.1735   25.0057 C   0  0  0  0  0  0  0  0  0  0  0  0
    6.8726   10.3684   25.7541 F   0  0  0  0  0  0  0  0  0  0  0  0
  1  2  1  0
  2  3  1  0
  3  4  1  0
  4  5  2  0
  4  6  1  0
  6  7  1  0
  7  8  2  0
  8  9  1  0
  9 10  1  0
 10 11  1  0
 11 12  1  0
 12 13  1  0
 13 14  2  0
 13 15  1  0
 15 16  1  0
 16 17  2  0
  9 18  2  0
 18 19  1  0
 19 20  2  0
 20 21  1  0
 20  7  1  0
 16 10  1  0
M  END
>  <alias>  (600) 
None

>  <rmsd(smina/fragmenstein)>  (600) 
0.79

>  <smiles>  (600) 
CCCC(=O)Nc1cc(N2CCC(=O)NC2=O)ccc1F

>  <gnina_score>  (600) 
5.368

>  <inspiration_score>  (600) 
None

>  <energy_score>  (600) 
-8.570901

>  <distance_score>  (600) 
1.229351

>  <gnina_score_min>  (600) 
5.282

>  <inchikey>  (600) 
NCZJCNWIEHSCNT-UHFFFAOYSA-N

>  <exports>  (600) 
['/opt/xchem-fragalysis-2/maxwin/BulkDock/OUTPUTS/openbind_a71ev2a_c2_elabs_1LOUU54.sdf', '/opt/xchem-fragalysis-2/maxwin/BulkDock/OUTPUTS/openbind_a71ev2a_c2_elabs_1LSYIDY.sdf']

>  <name>  (600) 
P545983

>  <ref_pdb>  (600) 
A0884a

>  <subsites>  (600) 
None

>  <HIPPO Pose ID>  (600) 
545983

>  <ref_mols>  (600) 
A0884a

>  <HIPPO Compound ID>  (600) 
384557

>  <tags>  (600) 
openbind_a71ev2a_c2_elabs,syndirella_product,openbind_a71ev2a_c2_elabs_fragonly_scored_top80percent,openbind_a71ev2a_c2_elabs_scored,BulkDock Fragalysis export,openbind_a71ev2a_c2_elabs_scored_top80percent,openbind_a71ev2a_c2_elabs_activefrags_only_scored_5.2plus,syndirella_placed

>  <smina_score_min>  (600) 
-6.797

$$$$
P545984
     RDKit          3D

 21 23  0  0  0  0  0  0  0  0999 V2000
    7.6692   14.7249   24.6078 C   0  0  0  0  0  0  0  0  0  0  0  0
    8.0283   13.2649   24.5254 C   0  0  0  0  0  0  0  0  0  0  0  0
    7.3027   12.2938   25.2570 C   0  0  0  0  0  0  0  0  0  0  0  0
    6.3204   12.7011   26.1678 N   0  0  0  0  0  0  0  0  0  0  0  0
    5.5178   11.8815   27.2256 C   0  0  0  0  0  0  0  0  0  0  0  0
    5.5019   10.7312   27.4406 O   0  0  0  0  0  0  0  0  0  0  0  0
    4.7118   12.8961   28.0359 C   0  0  0  0  0  0  0  0  0  0  0  0
    3.4956   13.4085   27.3187 C   0  0  0  0  0  0  0  0  0  0  0  0
    2.1242   12.8648   27.6301 C   0  0  0  0  0  0  0  0  0  0  0  0
    2.5001   14.2489   28.0777 C   0  0  0  0  0  0  0  0  0  0  0  0
    7.5980   10.9355   25.1064 C   0  0  0  0  0  0  0  0  0  0  0  0
    8.6357   10.5297   24.2716 C   0  0  0  0  0  0  0  0  0  0  0  0
    9.4121   11.4851   23.6342 C   0  0  0  0  0  0  0  0  0  0  0  0
   10.4063   11.0694   22.8456 F   0  0  0  0  0  0  0  0  0  0  0  0
    9.1464   12.8521   23.7686 C   0  0  0  0  0  0  0  0  0  0  0  0
   10.0485   13.8121   23.2382 N   0  0  0  0  0  0  0  0  0  0  0  0
    9.9187   14.2956   21.8784 C   0  0  0  0  0  0  0  0  0  0  0  0
   11.2927   14.8519   21.5328 C   0  0  0  0  0  0  0  0  0  0  0  0
   12.1489   14.3217   22.5501 N   0  0  0  0  0  0  0  0  0  0  0  0
   11.4136   13.7607   23.5775 C   0  0  0  0  0  0  0  0  0  0  0  0
   11.8900   13.3463   24.6221 O   0  0  0  0  0  0  0  0  0  0  0  0
  1  2  1  0
  2  3  2  0
  3  4  1  0
  4  5  1  0
  5  6  2  0
  5  7  1  0
  7  8  1  0
  8  9  1  0
  9 10  1  0
  3 11  1  0
 11 12  2  0
 12 13  1  0
 13 14  1  0
 13 15  2  0
 15 16  1  0
 16 17  1  0
 17 18  1  0
 18 19  1  0
 19 20  1  0
 20 21  2  0
 15  2  1  0
 20 16  1  0
 10  8  1  0
M  END
>  <alias>  (601) 
None

>  <rmsd(smina/fragmenstein)>  (601) 
0.872

>  <smiles>  (601) 
Cc1c(NC(=O)CC2CC2)ccc(F)c1N1CCNC1=O

>  <gnina_score>  (601) 
5.212

>  <inspiration_score>  (601) 
None

>  <energy_score>  (601) 
-28.186017

>  <distance_score>  (601) 
1.203613

>  <gnina_score_min>  (601) 
5.238

>  <inchikey>  (601) 
CVEVCPLJMPQUIR-UHFFFAOYSA-N

>  <exports>  (601) 
['/opt/xchem-fragalysis-2/maxwin/BulkDock/OUTPUTS/openbind_a71ev2a_c2_elabs_1LOUU54.sdf', '/opt/xchem-fragalysis-2/maxwin/BulkDock/OUTPUTS/openbind_a71ev2a_c2_elabs_1LSYIDY.sdf']

>  <name>  (601) 
P545984

>  <ref_pdb>  (601) 
A0884a

>  <subsites>  (601) 
None

>  <HIPPO Pose ID>  (601) 
545984

>  <ref_mols>  (601) 
A0884a

>  <HIPPO Compound ID>  (601) 
384559

>  <tags>  (601) 
openbind_a71ev2a_c2_elabs,syndirella_product,openbind_a71ev2a_c2_elabs_fragonly_scored_top80percent,openbind_a71ev2a_c2_elabs_scored,BulkDock Fragalysis export,openbind_a71ev2a_c2_elabs_scored_top80percent,openbind_a71ev2a_c2_elabs_activefrags_only_scored_5.2plus,syndirella_placed

>  <smina_score_min>  (601) 
-5.882

$$$$
P545985
     RDKit          3D

 21 23  0  0  0  0  0  0  0  0999 V2000
    4.9456   11.8410   26.9462 O   0  0  0  0  0  0  0  0  0  0  0  0
    5.1452   12.8979   26.4828 C   0  0  0  0  0  0  0  0  0  0  0  0
    4.3107   14.1443   26.7920 C   0  0  0  0  0  0  0  0  0  0  0  0
    3.1532   13.8766   27.7131 C   0  0  0  0  0  0  0  0  0  0  0  0
    2.0307   14.8771   27.8154 C   0  0  0  0  0  0  0  0  0  0  0  0
    1.7900   13.5442   27.1618 C   0  0  0  0  0  0  0  0  0  0  0  0
    6.2155   13.3611   25.4424 N   0  0  0  0  0  0  0  0  0  0  0  0
    7.2702   12.6646   24.8610 C   0  0  0  0  0  0  0  0  0  0  0  0
    7.4477   11.2962   25.0710 C   0  0  0  0  0  0  0  0  0  0  0  0
    8.5050   10.6349   24.4516 C   0  0  0  0  0  0  0  0  0  0  0  0
    9.4141   11.3543   23.6858 C   0  0  0  0  0  0  0  0  0  0  0  0
   10.4035   10.6807   23.0934 F   0  0  0  0  0  0  0  0  0  0  0  0
    9.2675   12.7308   23.4817 C   0  0  0  0  0  0  0  0  0  0  0  0
   10.2460   13.4618   22.7430 N   0  0  0  0  0  0  0  0  0  0  0  0
    9.7956   14.4381   21.7574 C   0  0  0  0  0  0  0  0  0  0  0  0
   10.8789   14.8968   20.8006 C   0  0  0  0  0  0  0  0  0  0  0  0
   12.1383   15.2062   21.5654 C   0  0  0  0  0  0  0  0  0  0  0  0
   12.4523   14.2142   22.5499 N   0  0  0  0  0  0  0  0  0  0  0  0
   11.5231   13.5388   23.2792 C   0  0  0  0  0  0  0  0  0  0  0  0
   11.8572   13.0740   24.3680 O   0  0  0  0  0  0  0  0  0  0  0  0
    8.1601   13.3731   24.0439 C   0  0  0  0  0  0  0  0  0  0  0  0
  1  2  2  0
  2  3  1  0
  3  4  1  0
  4  5  1  0
  5  6  1  0
  2  7  1  0
  7  8  1  0
  8  9  2  0
  9 10  1  0
 10 11  2  0
 11 12  1  0
 11 13  1  0
 13 14  1  0
 14 15  1  0
 15 16  1  0
 16 17  1  0
 17 18  1  0
 18 19  1  0
 19 20  2  0
 13 21  2  0
  6  4  1  0
 21  8  1  0
 19 14  1  0
M  END
>  <alias>  (602) 
None

>  <rmsd(smina/fragmenstein)>  (602) 
0.493

>  <smiles>  (602) 
O=C(CC1CC1)Nc1ccc(F)c(N2CCCNC2=O)c1

>  <gnina_score>  (602) 
5.267

>  <inspiration_score>  (602) 
None

>  <energy_score>  (602) 
-20.982123

>  <distance_score>  (602) 
1.298667

>  <gnina_score_min>  (602) 
5.261

>  <inchikey>  (602) 
RNGIQRBWJZMENW-UHFFFAOYSA-N

>  <exports>  (602) 
['/opt/xchem-fragalysis-2/maxwin/BulkDock/OUTPUTS/openbind_a71ev2a_c2_elabs_1LOUU54.sdf', '/opt/xchem-fragalysis-2/maxwin/BulkDock/OUTPUTS/openbind_a71ev2a_c2_elabs_1LSYIDY.sdf']

>  <name>  (602) 
P545985

>  <ref_pdb>  (602) 
A0884a

>  <subsites>  (602) 
None

>  <HIPPO Pose ID>  (602) 
545985

>  <ref_mols>  (602) 
A0884a

>  <HIPPO Compound ID>  (602) 
384560

>  <tags>  (602) 
openbind_a71ev2a_c2_elabs,syndirella_product,openbind_a71ev2a_c2_elabs_fragonly_scored_top80percent,openbind_a71ev2a_c2_elabs_scored,BulkDock Fragalysis export,openbind_a71ev2a_c2_elabs_scored_top80percent,openbind_a71ev2a_c2_elabs_activefrags_only_scored_5.2plus,syndirella_placed

>  <smina_score_min>  (602) 
-6.053

$$$$
P545986
     RDKit          3D

 21 22  0  0  0  0  0  0  0  0999 V2000
    3.5911   15.2053   25.8966 C   0  0  0  0  0  0  0  0  0  0  0  0
    4.1278   14.5377   26.9305 C   0  0  0  0  0  0  0  0  0  0  0  0
    3.9289   14.9008   28.3659 C   0  0  0  0  0  0  0  0  0  0  0  0
    4.9226   13.2942   26.6773 C   0  0  0  0  0  0  0  0  0  0  0  0
    4.6273   12.2660   27.1460 O   0  0  0  0  0  0  0  0  0  0  0  0
    6.1092   13.6741   25.7533 N   0  0  0  0  0  0  0  0  0  0  0  0
    7.0855   12.8768   25.1615 C   0  0  0  0  0  0  0  0  0  0  0  0
    7.1423   11.5061   25.3906 C   0  0  0  0  0  0  0  0  0  0  0  0
    8.1016   10.7384   24.7399 C   0  0  0  0  0  0  0  0  0  0  0  0
    9.0259   11.3384   23.8824 C   0  0  0  0  0  0  0  0  0  0  0  0
   10.0357   10.2608   23.0224 Cl  0  0  0  0  0  0  0  0  0  0  0  0
    9.0104   12.7269   23.6647 C   0  0  0  0  0  0  0  0  0  0  0  0
    9.9627   13.3875   22.8146 N   0  0  0  0  0  0  0  0  0  0  0  0
    9.4617   14.3575   21.8472 C   0  0  0  0  0  0  0  0  0  0  0  0
   10.4664   14.8149   20.8107 C   0  0  0  0  0  0  0  0  0  0  0  0
   11.8759   14.5004   21.1910 C   0  0  0  0  0  0  0  0  0  0  0  0
   12.7802   14.4510   20.3616 O   0  0  0  0  0  0  0  0  0  0  0  0
   12.0988   14.3034   22.5199 N   0  0  0  0  0  0  0  0  0  0  0  0
   11.2507   13.5792   23.3140 C   0  0  0  0  0  0  0  0  0  0  0  0
   11.6511   13.1617   24.3992 O   0  0  0  0  0  0  0  0  0  0  0  0
    8.0135   13.4809   24.3034 C   0  0  0  0  0  0  0  0  0  0  0  0
  1  2  2  0
  2  3  1  0
  2  4  1  0
  4  5  2  0
  4  6  1  0
  6  7  1  0
  7  8  2  0
  8  9  1  0
  9 10  2  0
 10 11  1  0
 10 12  1  0
 12 13  1  0
 13 14  1  0
 14 15  1  0
 15 16  1  0
 16 17  2  0
 16 18  1  0
 18 19  1  0
 19 20  2  0
 12 21  2  0
 21  7  1  0
 19 13  1  0
M  END
>  <alias>  (603) 
None

>  <rmsd(smina/fragmenstein)>  (603) 
0.509

>  <smiles>  (603) 
C=C(C)C(=O)Nc1ccc(Cl)c(N2CCC(=O)NC2=O)c1

>  <gnina_score>  (603) 
5.619

>  <inspiration_score>  (603) 
None

>  <energy_score>  (603) 
-28.726211

>  <distance_score>  (603) 
1.484686

>  <gnina_score_min>  (603) 
5.53

>  <inchikey>  (603) 
HUYMUBSWSGDXNF-UHFFFAOYSA-N

>  <exports>  (603) 
['/opt/xchem-fragalysis-2/maxwin/BulkDock/OUTPUTS/openbind_a71ev2a_c2_elabs_1LOUU54.sdf', '/opt/xchem-fragalysis-2/maxwin/BulkDock/OUTPUTS/openbind_a71ev2a_c2_elabs_1LSYIDY.sdf']

>  <name>  (603) 
P545986

>  <ref_pdb>  (603) 
A0884a

>  <subsites>  (603) 
None

>  <HIPPO Pose ID>  (603) 
545986

>  <ref_mols>  (603) 
A0884a

>  <HIPPO Compound ID>  (603) 
384561

>  <tags>  (603) 
openbind_a71ev2a_c2_elabs,syndirella_product,openbind_a71ev2a_c2_elabs_fragonly_scored_top80percent,BulkDock Fragalysis export,openbind_a71ev2a_c2_elabs_scored,openbind_a71ev2a_c2_elabs_scored_top80percent,openbind_a71ev2a_c2_elabs_activefrags_only_scored_5.2plus,openbind_a71ev2a_c2_elabs_activefrags_only_scored_5.5plus,syndirella_placed

>  <smina_score_min>  (603) 
-6.804

$$$$
P545987
     RDKit          3D

 21 22  0  0  0  0  0  0  0  0999 V2000
    4.0158   13.6458   26.7557 C   0  0  0  0  0  0  0  0  0  0  0  0
    4.7982   12.7993   27.4448 C   0  0  0  0  0  0  0  0  0  0  0  0
    4.7285   12.6134   28.9268 C   0  0  0  0  0  0  0  0  0  0  0  0
    5.7728   11.9082   26.7311 C   0  0  0  0  0  0  0  0  0  0  0  0
    5.7883   10.7547   26.9033 O   0  0  0  0  0  0  0  0  0  0  0  0
    6.6823   12.8037   25.8572 N   0  0  0  0  0  0  0  0  0  0  0  0
    7.7026   12.4657   24.9724 C   0  0  0  0  0  0  0  0  0  0  0  0
    8.0879   11.1413   24.7383 C   0  0  0  0  0  0  0  0  0  0  0  0
    9.1437   10.8954   23.8646 C   0  0  0  0  0  0  0  0  0  0  0  0
    9.7548    9.2010   23.3893 Br  0  0  0  0  0  0  0  0  0  0  0  0
    9.8284   11.9311   23.2677 C   0  0  0  0  0  0  0  0  0  0  0  0
    9.4464   13.2394   23.5036 C   0  0  0  0  0  0  0  0  0  0  0  0
   10.1770   14.2663   22.8606 N   0  0  0  0  0  0  0  0  0  0  0  0
    9.6536   14.6184   21.5367 C   0  0  0  0  0  0  0  0  0  0  0  0
   10.5979   15.4209   20.6889 C   0  0  0  0  0  0  0  0  0  0  0  0
   11.9698   14.8505   20.8730 C   0  0  0  0  0  0  0  0  0  0  0  0
   12.6773   14.4472   19.9556 O   0  0  0  0  0  0  0  0  0  0  0  0
   12.3600   14.8189   22.1799 N   0  0  0  0  0  0  0  0  0  0  0  0
   11.5440   14.2990   23.1386 C   0  0  0  0  0  0  0  0  0  0  0  0
   12.0274   13.8407   24.1761 O   0  0  0  0  0  0  0  0  0  0  0  0
    8.3643   13.5173   24.3278 C   0  0  0  0  0  0  0  0  0  0  0  0
  1  2  2  0
  2  3  1  0
  2  4  1  0
  4  5  2  0
  4  6  1  0
  6  7  1  0
  7  8  2  0
  8  9  1  0
  9 10  1  0
  9 11  2  0
 11 12  1  0
 12 13  1  0
 13 14  1  0
 14 15  1  0
 15 16  1  0
 16 17  2  0
 16 18  1  0
 18 19  1  0
 19 20  2  0
 12 21  2  0
 21  7  1  0
 19 13  1  0
M  END
>  <alias>  (604) 
None

>  <rmsd(smina/fragmenstein)>  (604) 
0.287

>  <smiles>  (604) 
C=C(C)C(=O)Nc1cc(Br)cc(N2CCC(=O)NC2=O)c1

>  <gnina_score>  (604) 
5.614

>  <inspiration_score>  (604) 
None

>  <energy_score>  (604) 
-10.452054

>  <distance_score>  (604) 
1.241525

>  <gnina_score_min>  (604) 
5.628

>  <inchikey>  (604) 
KHPDGYKOODZPSQ-UHFFFAOYSA-N

>  <exports>  (604) 
['/opt/xchem-fragalysis-2/maxwin/BulkDock/OUTPUTS/openbind_a71ev2a_c2_elabs_1LOUU54.sdf', '/opt/xchem-fragalysis-2/maxwin/BulkDock/OUTPUTS/openbind_a71ev2a_c2_elabs_1LSYIDY.sdf']

>  <name>  (604) 
P545987

>  <ref_pdb>  (604) 
A0884a

>  <subsites>  (604) 
None

>  <HIPPO Pose ID>  (604) 
545987

>  <ref_mols>  (604) 
A0884a

>  <HIPPO Compound ID>  (604) 
384562

>  <tags>  (604) 
openbind_a71ev2a_c2_elabs,syndirella_product,openbind_a71ev2a_c2_elabs_fragonly_scored_top80percent,BulkDock Fragalysis export,openbind_a71ev2a_c2_elabs_scored,openbind_a71ev2a_c2_elabs_scored_top80percent,openbind_a71ev2a_c2_elabs_activefrags_only_scored_5.2plus,openbind_a71ev2a_c2_elabs_activefrags_only_scored_5.5plus,syndirella_placed

>  <smina_score_min>  (604) 
-6.618

$$$$
P545988
     RDKit          3D

 21 22  0  0  0  0  0  0  0  0999 V2000
    5.5405   14.0060   28.3988 C   0  0  0  0  0  0  0  0  0  0  0  0
    4.9994   12.8632   27.9446 C   0  0  0  0  0  0  0  0  0  0  0  0
    3.5960   12.4389   28.2339 C   0  0  0  0  0  0  0  0  0  0  0  0
    5.8481   11.8723   27.2018 C   0  0  0  0  0  0  0  0  0  0  0  0
    5.9499   10.7655   27.5580 O   0  0  0  0  0  0  0  0  0  0  0  0
    6.5093   12.6083   26.0098 N   0  0  0  0  0  0  0  0  0  0  0  0
    7.4761   12.1722   25.0947 C   0  0  0  0  0  0  0  0  0  0  0  0
    7.7929   10.8163   25.0137 C   0  0  0  0  0  0  0  0  0  0  0  0
    8.8213   10.3805   24.1841 C   0  0  0  0  0  0  0  0  0  0  0  0
    9.5736   11.3032   23.4700 C   0  0  0  0  0  0  0  0  0  0  0  0
    9.2652   12.6687   23.5194 C   0  0  0  0  0  0  0  0  0  0  0  0
   10.1184   13.5595   22.7925 N   0  0  0  0  0  0  0  0  0  0  0  0
    9.6143   14.1869   21.6498 C   0  0  0  0  0  0  0  0  0  0  0  0
    8.4567   14.0494   21.2396 O   0  0  0  0  0  0  0  0  0  0  0  0
   10.5470   15.1316   20.9322 C   0  0  0  0  0  0  0  0  0  0  0  0
   11.9791   14.7215   21.1416 C   0  0  0  0  0  0  0  0  0  0  0  0
   12.2352   14.5329   22.5342 N   0  0  0  0  0  0  0  0  0  0  0  0
   11.4065   13.7579   23.2828 C   0  0  0  0  0  0  0  0  0  0  0  0
   11.8446   13.3460   24.3524 O   0  0  0  0  0  0  0  0  0  0  0  0
    8.1614   13.1116   24.2880 C   0  0  0  0  0  0  0  0  0  0  0  0
    7.7597   14.5614   24.3417 C   0  0  0  0  0  0  0  0  0  0  0  0
  1  2  2  0
  2  3  1  0
  2  4  1  0
  4  5  2  0
  4  6  1  0
  6  7  1  0
  7  8  2  0
  8  9  1  0
  9 10  2  0
 10 11  1  0
 11 12  1  0
 12 13  1  0
 13 14  2  0
 13 15  1  0
 15 16  1  0
 16 17  1  0
 17 18  1  0
 18 19  2  0
 11 20  2  0
 20 21  1  0
 20  7  1  0
 18 12  1  0
M  END
>  <alias>  (605) 
None

>  <rmsd(smina/fragmenstein)>  (605) 
0.431

>  <smiles>  (605) 
C=C(C)C(=O)Nc1cccc(N2C(=O)CCNC2=O)c1C

>  <gnina_score>  (605) 
5.268

>  <inspiration_score>  (605) 
None

>  <energy_score>  (605) 
-17.980184

>  <distance_score>  (605) 
1.345893

>  <gnina_score_min>  (605) 
5.253

>  <inchikey>  (605) 
PTIPFXGIMRLYKX-UHFFFAOYSA-N

>  <exports>  (605) 
['/opt/xchem-fragalysis-2/maxwin/BulkDock/OUTPUTS/openbind_a71ev2a_c2_elabs_1LOUU54.sdf', '/opt/xchem-fragalysis-2/maxwin/BulkDock/OUTPUTS/openbind_a71ev2a_c2_elabs_1LSYIDY.sdf']

>  <name>  (605) 
P545988

>  <ref_pdb>  (605) 
A0884a

>  <subsites>  (605) 
None

>  <HIPPO Pose ID>  (605) 
545988

>  <ref_mols>  (605) 
A0884a

>  <HIPPO Compound ID>  (605) 
384563

>  <tags>  (605) 
openbind_a71ev2a_c2_elabs,syndirella_product,openbind_a71ev2a_c2_elabs_fragonly_scored_top80percent,openbind_a71ev2a_c2_elabs_scored,BulkDock Fragalysis export,openbind_a71ev2a_c2_elabs_scored_top80percent,openbind_a71ev2a_c2_elabs_activefrags_only_scored_5.2plus,syndirella_placed

>  <smina_score_min>  (605) 
-7.161

$$$$
P545989
     RDKit          3D

 21 22  0  0  0  0  0  0  0  0999 V2000
    2.3468   14.1833   28.4542 C   0  0  0  0  0  0  0  0  0  0  0  0
    3.2956   13.0469   28.1105 C   0  0  0  0  0  0  0  0  0  0  0  0
    4.3398   13.4800   27.0841 C   0  0  0  0  0  0  0  0  0  0  0  0
    5.2793   12.3371   26.7049 C   0  0  0  0  0  0  0  0  0  0  0  0
    5.2232   11.2596   27.1564 O   0  0  0  0  0  0  0  0  0  0  0  0
    6.2283   12.9287   25.6175 N   0  0  0  0  0  0  0  0  0  0  0  0
    7.3230   12.3574   24.9593 C   0  0  0  0  0  0  0  0  0  0  0  0
    7.5326   10.9814   25.0492 C   0  0  0  0  0  0  0  0  0  0  0  0
    8.6136   10.4050   24.4009 C   0  0  0  0  0  0  0  0  0  0  0  0
    9.5470   11.2146   23.7753 C   0  0  0  0  0  0  0  0  0  0  0  0
   10.6013   10.6216   23.2168 F   0  0  0  0  0  0  0  0  0  0  0  0
    9.4040   12.6017   23.7068 C   0  0  0  0  0  0  0  0  0  0  0  0
   10.4873   13.3672   23.2105 N   0  0  0  0  0  0  0  0  0  0  0  0
   10.5094   14.0787   22.0462 C   0  0  0  0  0  0  0  0  0  0  0  0
    9.5940   14.2428   21.2563 O   0  0  0  0  0  0  0  0  0  0  0  0
   11.8879   14.6599   21.8359 C   0  0  0  0  0  0  0  0  0  0  0  0
   12.5585   14.1747   22.9882 N   0  0  0  0  0  0  0  0  0  0  0  0
   11.7355   13.4042   23.7680 C   0  0  0  0  0  0  0  0  0  0  0  0
   12.1192   12.9222   24.8185 O   0  0  0  0  0  0  0  0  0  0  0  0
    8.2120   13.1726   24.2107 C   0  0  0  0  0  0  0  0  0  0  0  0
    7.9060   14.6335   24.0539 C   0  0  0  0  0  0  0  0  0  0  0  0
  1  2  1  0
  2  3  1  0
  3  4  1  0
  4  5  2  0
  4  6  1  0
  6  7  1  0
  7  8  2  0
  8  9  1  0
  9 10  2  0
 10 11  1  0
 10 12  1  0
 12 13  1  0
 13 14  1  0
 14 15  2  0
 14 16  1  0
 16 17  1  0
 17 18  1  0
 18 19  2  0
 12 20  2  0
 20 21  1  0
 20  7  1  0
 18 13  1  0
M  END
>  <alias>  (606) 
None

>  <rmsd(smina/fragmenstein)>  (606) 
0.765

>  <smiles>  (606) 
CCCC(=O)Nc1ccc(F)c(N2C(=O)CNC2=O)c1C

>  <gnina_score>  (606) 
5.275

>  <inspiration_score>  (606) 
None

>  <energy_score>  (606) 
-30.43173

>  <distance_score>  (606) 
1.606582

>  <gnina_score_min>  (606) 
5.282

>  <inchikey>  (606) 
CYGZBIVZEUCYCC-UHFFFAOYSA-N

>  <exports>  (606) 
['/opt/xchem-fragalysis-2/maxwin/BulkDock/OUTPUTS/openbind_a71ev2a_c2_elabs_1LOUU54.sdf', '/opt/xchem-fragalysis-2/maxwin/BulkDock/OUTPUTS/openbind_a71ev2a_c2_elabs_1LSYIDY.sdf']

>  <name>  (606) 
P545989

>  <ref_pdb>  (606) 
A0884a

>  <subsites>  (606) 
None

>  <HIPPO Pose ID>  (606) 
545989

>  <ref_mols>  (606) 
A0884a

>  <HIPPO Compound ID>  (606) 
384565

>  <tags>  (606) 
openbind_a71ev2a_c2_elabs,syndirella_product,openbind_a71ev2a_c2_elabs_fragonly_scored_top80percent,openbind_a71ev2a_c2_elabs_scored,BulkDock Fragalysis export,openbind_a71ev2a_c2_elabs_scored_top80percent,openbind_a71ev2a_c2_elabs_activefrags_only_scored_5.2plus,syndirella_placed

>  <smina_score_min>  (606) 
-6.239

$$$$
P545990
     RDKit          3D

 21 22  0  0  0  0  0  0  0  0999 V2000
    5.7302   14.7682   29.0064 C   0  0  0  0  0  0  0  0  0  0  0  0
    4.8355   14.4734   27.8103 C   0  0  0  0  0  0  0  0  0  0  0  0
    5.2626   13.2156   27.0556 C   0  0  0  0  0  0  0  0  0  0  0  0
    6.5291   13.4093   26.2224 C   0  0  0  0  0  0  0  0  0  0  0  0
    7.0668   14.4365   26.0702 O   0  0  0  0  0  0  0  0  0  0  0  0
    6.8824   11.9920   25.6717 N   0  0  0  0  0  0  0  0  0  0  0  0
    7.8716   11.5914   24.7841 C   0  0  0  0  0  0  0  0  0  0  0  0
    8.1486   10.2472   24.6320 C   0  0  0  0  0  0  0  0  0  0  0  0
    9.1661    9.8524   23.7687 C   0  0  0  0  0  0  0  0  0  0  0  0
    9.8899   10.7819   23.0393 C   0  0  0  0  0  0  0  0  0  0  0  0
    9.6549   12.1328   23.1935 C   0  0  0  0  0  0  0  0  0  0  0  0
   10.4477   13.0911   22.4760 N   0  0  0  0  0  0  0  0  0  0  0  0
   11.8088   13.0488   22.4412 C   0  0  0  0  0  0  0  0  0  0  0  0
   12.5425   13.0146   21.4637 O   0  0  0  0  0  0  0  0  0  0  0  0
   12.3406   13.6173   23.5837 N   0  0  0  0  0  0  0  0  0  0  0  0
   11.3973   14.6294   23.9330 C   0  0  2  0  0  0  0  0  0  0  0  0
   10.9136   14.3856   25.3581 C   0  0  0  0  0  0  0  0  0  0  0  0
   11.8330   14.9589   26.4153 C   0  0  0  0  0  0  0  0  0  0  0  0
   10.2884   14.3585   22.8971 C   0  0  0  0  0  0  0  0  0  0  0  0
    9.3586   15.0706   22.5594 O   0  0  0  0  0  0  0  0  0  0  0  0
    8.5984   12.5212   24.0477 C   0  0  0  0  0  0  0  0  0  0  0  0
  1  2  1  0
  2  3  1  0
  3  4  1  0
  4  5  2  0
  4  6  1  0
  6  7  1  0
  7  8  2  0
  8  9  1  0
  9 10  2  0
 10 11  1  0
 11 12  1  0
 12 13  1  0
 13 14  2  0
 13 15  1  0
 15 16  1  0
 16 17  1  1
 17 18  1  0
 16 19  1  0
 19 20  2  0
 11 21  2  0
 21  7  1  0
 19 12  1  0
M  END
>  <alias>  (607) 
None

>  <rmsd(smina/fragmenstein)>  (607) 
0.596

>  <smiles>  (607) 
CCCC(=O)Nc1cccc(N2C(=O)N[C@H](CC)C2=O)c1

>  <gnina_score>  (607) 
5.28

>  <inspiration_score>  (607) 
None

>  <energy_score>  (607) 
-12.799645

>  <distance_score>  (607) 
1.235171

>  <gnina_score_min>  (607) 
5.202

>  <inchikey>  (607) 
XXYOBSYLQZIHGY-GFCCVEGCSA-N

>  <exports>  (607) 
['/opt/xchem-fragalysis-2/maxwin/BulkDock/OUTPUTS/openbind_a71ev2a_c2_elabs_1LOUU54.sdf', '/opt/xchem-fragalysis-2/maxwin/BulkDock/OUTPUTS/openbind_a71ev2a_c2_elabs_1LSYIDY.sdf']

>  <name>  (607) 
P545990

>  <ref_pdb>  (607) 
A0884a

>  <subsites>  (607) 
None

>  <HIPPO Pose ID>  (607) 
545990

>  <ref_mols>  (607) 
A0884a

>  <HIPPO Compound ID>  (607) 
384566

>  <tags>  (607) 
openbind_a71ev2a_c2_elabs,syndirella_product,openbind_a71ev2a_c2_elabs_fragonly_scored_top80percent,openbind_a71ev2a_c2_elabs_scored,BulkDock Fragalysis export,openbind_a71ev2a_c2_elabs_scored_top80percent,openbind_a71ev2a_c2_elabs_activefrags_only_scored_5.2plus,syndirella_placed

>  <smina_score_min>  (607) 
-3.348

$$$$
P546012
     RDKit          3D

 21 22  0  0  0  0  0  0  0  0999 V2000
    5.1192   11.5412   27.1935 O   0  0  0  0  0  0  0  0  0  0  0  0
    5.2409   12.6270   26.7741 C   0  0  0  0  0  0  0  0  0  0  0  0
    6.2250   13.1925   25.7018 N   0  0  0  0  0  0  0  0  0  0  0  0
    7.2772   12.5786   25.0283 C   0  0  0  0  0  0  0  0  0  0  0  0
    7.4817   11.1984   25.0967 C   0  0  0  0  0  0  0  0  0  0  0  0
    8.5446   10.6202   24.4050 C   0  0  0  0  0  0  0  0  0  0  0  0
    9.4226   11.4285   23.6942 C   0  0  0  0  0  0  0  0  0  0  0  0
   10.4182   10.8439   23.0237 F   0  0  0  0  0  0  0  0  0  0  0  0
    9.2395   12.8122   23.6245 C   0  0  0  0  0  0  0  0  0  0  0  0
   10.1728   13.6376   22.9397 N   0  0  0  0  0  0  0  0  0  0  0  0
    9.6989   14.3821   21.7745 C   0  0  0  0  0  0  0  0  0  0  0  0
   10.7442   15.2222   21.0623 C   0  0  0  0  0  0  0  0  0  0  0  0
   12.1253   14.6574   21.2683 C   0  0  0  0  0  0  0  0  0  0  0  0
   12.3551   14.4032   22.6581 N   0  0  0  0  0  0  0  0  0  0  0  0
   11.4584   13.7401   23.4392 C   0  0  0  0  0  0  0  0  0  0  0  0
   11.8109   13.3239   24.5412 O   0  0  0  0  0  0  0  0  0  0  0  0
    8.1391   13.3804   24.2705 C   0  0  0  0  0  0  0  0  0  0  0  0
    4.3616   13.8327   27.1829 C   0  0  2  0  0  0  0  0  0  0  0  0
    5.1997   14.9756   27.4047 O   0  0  0  0  0  0  0  0  0  0  0  0
    3.5316   13.5520   28.4281 C   0  0  0  0  0  0  0  0  0  0  0  0
    1.8919   12.5883   27.9972 Br  0  0  0  0  0  0  0  0  0  0  0  0
  1  2  2  0
  2  3  1  0
  3  4  1  0
  4  5  2  0
  5  6  1  0
  6  7  2  0
  7  8  1  0
  7  9  1  0
  9 10  1  0
 10 11  1  0
 11 12  1  0
 12 13  1  0
 13 14  1  0
 14 15  1  0
 15 16  2  0
  9 17  2  0
  2 18  1  0
 18 19  1  1
 18 20  1  0
 20 21  1  0
 17  4  1  0
 15 10  1  0
M  END
>  <alias>  (608) 
None

>  <rmsd(smina/fragmenstein)>  (608) 
0.301

>  <smiles>  (608) 
O=C(Nc1ccc(F)c(N2CCCNC2=O)c1)[C@H](O)CBr

>  <gnina_score>  (608) 
5.15

>  <inspiration_score>  (608) 
None

>  <energy_score>  (608) 
-17.747536

>  <distance_score>  (608) 
1.238328

>  <gnina_score_min>  (608) 
5.211

>  <inchikey>  (608) 
YOSVGYUNSUDTPO-LLVKDONJSA-N

>  <exports>  (608) 
['/opt/xchem-fragalysis-2/maxwin/BulkDock/OUTPUTS/openbind_a71ev2a_c2_elabs_1LOUU54.sdf', '/opt/xchem-fragalysis-2/maxwin/BulkDock/OUTPUTS/openbind_a71ev2a_c2_elabs_1LSYIDY.sdf']

>  <name>  (608) 
P546012

>  <ref_pdb>  (608) 
A0884a

>  <subsites>  (608) 
None

>  <HIPPO Pose ID>  (608) 
546012

>  <ref_mols>  (608) 
A0884a

>  <HIPPO Compound ID>  (608) 
384592

>  <tags>  (608) 
openbind_a71ev2a_c2_elabs,syndirella_product,openbind_a71ev2a_c2_elabs_fragonly_scored_top80percent,openbind_a71ev2a_c2_elabs_scored,BulkDock Fragalysis export,openbind_a71ev2a_c2_elabs_scored_top80percent,openbind_a71ev2a_c2_elabs_activefrags_only_scored_5.2plus,syndirella_placed

>  <smina_score_min>  (608) 
-6.44

$$$$
P546021
     RDKit          3D

 21 22  0  0  0  0  0  0  0  0999 V2000
    5.2162   11.6886   26.9765 O   0  0  0  0  0  0  0  0  0  0  0  0
    5.6860   12.7480   26.8118 C   0  0  0  0  0  0  0  0  0  0  0  0
    6.8859   13.1938   25.9196 N   0  0  0  0  0  0  0  0  0  0  0  0
    7.7728   12.4402   25.1554 C   0  0  0  0  0  0  0  0  0  0  0  0
    7.6683   11.0568   25.0436 C   0  0  0  0  0  0  0  0  0  0  0  0
    8.5726   10.3550   24.2406 C   0  0  0  0  0  0  0  0  0  0  0  0
    9.5829   11.0218   23.5495 C   0  0  0  0  0  0  0  0  0  0  0  0
    9.7154   12.4014   23.6898 C   0  0  0  0  0  0  0  0  0  0  0  0
   10.7659   13.0689   23.0322 N   0  0  0  0  0  0  0  0  0  0  0  0
   11.7921   13.6400   23.7380 C   0  0  0  0  0  0  0  0  0  0  0  0
   12.1265   13.3961   24.8906 O   0  0  0  0  0  0  0  0  0  0  0  0
   12.4115   14.7370   22.9002 C   0  0  0  0  0  0  0  0  0  0  0  0
   11.5775   14.7233   21.7599 N   0  0  0  0  0  0  0  0  0  0  0  0
   10.5029   13.9112   21.9939 C   0  0  0  0  0  0  0  0  0  0  0  0
    9.4535   14.0639   21.3970 O   0  0  0  0  0  0  0  0  0  0  0  0
    8.8036   13.1030   24.4845 C   0  0  0  0  0  0  0  0  0  0  0  0
    8.9350   14.4326   24.6353 F   0  0  0  0  0  0  0  0  0  0  0  0
    5.1350   14.0539   27.4288 C   0  0  2  0  0  0  0  0  0  0  0  0
    6.2227   14.8284   27.9472 O   0  0  0  0  0  0  0  0  0  0  0  0
    4.1051   13.7220   28.5006 C   0  0  0  0  0  0  0  0  0  0  0  0
    3.2111   15.3412   29.1202 Br  0  0  0  0  0  0  0  0  0  0  0  0
  1  2  2  0
  2  3  1  0
  3  4  1  0
  4  5  2  0
  5  6  1  0
  6  7  2  0
  7  8  1  0
  8  9  1  0
  9 10  1  0
 10 11  2  0
 10 12  1  0
 12 13  1  0
 13 14  1  0
 14 15  2  0
  8 16  2  0
 16 17  1  0
  2 18  1  0
 18 19  1  1
 18 20  1  0
 20 21  1  0
 16  4  1  0
 14  9  1  0
M  END
>  <alias>  (609) 
None

>  <rmsd(smina/fragmenstein)>  (609) 
0.811

>  <smiles>  (609) 
O=C(Nc1cccc(N2C(=O)CNC2=O)c1F)[C@H](O)CBr

>  <gnina_score>  (609) 
5.157

>  <inspiration_score>  (609) 
None

>  <energy_score>  (609) 
-47.911828

>  <distance_score>  (609) 
1.555593

>  <gnina_score_min>  (609) 
5.206

>  <inchikey>  (609) 
DYYGOJKGXHVXJG-MRVPVSSYSA-N

>  <exports>  (609) 
['/opt/xchem-fragalysis-2/maxwin/BulkDock/OUTPUTS/openbind_a71ev2a_c2_elabs_1LOUU54.sdf', '/opt/xchem-fragalysis-2/maxwin/BulkDock/OUTPUTS/openbind_a71ev2a_c2_elabs_1LSYIDY.sdf']

>  <name>  (609) 
P546021

>  <ref_pdb>  (609) 
A0884a

>  <subsites>  (609) 
None

>  <HIPPO Pose ID>  (609) 
546021

>  <ref_mols>  (609) 
A0884a

>  <HIPPO Compound ID>  (609) 
384599

>  <tags>  (609) 
openbind_a71ev2a_c2_elabs,syndirella_product,openbind_a71ev2a_c2_elabs_fragonly_scored_top80percent,openbind_a71ev2a_c2_elabs_scored,BulkDock Fragalysis export,openbind_a71ev2a_c2_elabs_scored_top80percent,openbind_a71ev2a_c2_elabs_activefrags_only_scored_5.2plus,syndirella_placed

>  <smina_score_min>  (609) 
-6.328

$$$$
P546022
     RDKit          3D

 21 22  0  0  0  0  0  0  0  0999 V2000
    3.7920   15.1626   28.2372 C   0  0  0  0  0  0  0  0  0  0  0  0
    4.8055   14.1141   28.0818 N   0  0  0  0  0  0  0  0  0  0  0  0
    5.7165   14.1384   29.2337 C   0  0  0  0  0  0  0  0  0  0  0  0
    4.1491   12.7877   27.9602 C   0  0  0  0  0  0  0  0  0  0  0  0
    5.0938   11.7270   27.3485 C   0  0  0  0  0  0  0  0  0  0  0  0
    4.9750   10.5784   27.5340 O   0  0  0  0  0  0  0  0  0  0  0  0
    6.0905   12.5030   26.4423 N   0  0  0  0  0  0  0  0  0  0  0  0
    7.0432   12.0379   25.5436 C   0  0  0  0  0  0  0  0  0  0  0  0
    7.2516   10.6937   25.2763 C   0  0  0  0  0  0  0  0  0  0  0  0
    8.2908   10.3086   24.4233 C   0  0  0  0  0  0  0  0  0  0  0  0
    9.1748   11.2523   23.9179 C   0  0  0  0  0  0  0  0  0  0  0  0
   10.2470   10.8075   23.2580 F   0  0  0  0  0  0  0  0  0  0  0  0
    9.0379   12.5932   24.2715 C   0  0  0  0  0  0  0  0  0  0  0  0
   10.1438   13.4650   24.2457 N   0  0  0  0  0  0  0  0  0  0  0  0
   10.4337   14.2894   25.3068 C   0  0  0  0  0  0  0  0  0  0  0  0
    9.7122   14.7426   26.1899 O   0  0  0  0  0  0  0  0  0  0  0  0
   11.8882   14.6224   25.2617 C   0  0  0  0  0  0  0  0  0  0  0  0
   12.2917   14.0006   24.0531 N   0  0  0  0  0  0  0  0  0  0  0  0
   11.2274   13.4186   23.4166 C   0  0  0  0  0  0  0  0  0  0  0  0
   11.3169   13.0480   22.2659 O   0  0  0  0  0  0  0  0  0  0  0  0
    7.8944   12.9833   24.9816 C   0  0  0  0  0  0  0  0  0  0  0  0
  1  2  1  0
  2  3  1  0
  2  4  1  0
  4  5  1  0
  5  6  2  0
  5  7  1  0
  7  8  1  0
  8  9  2  0
  9 10  1  0
 10 11  2  0
 11 12  1  0
 11 13  1  0
 13 14  1  0
 14 15  1  0
 15 16  2  0
 15 17  1  0
 17 18  1  0
 18 19  1  0
 19 20  2  0
 13 21  2  0
 21  8  1  0
 19 14  1  0
M  END
>  <alias>  (610) 
None

>  <rmsd(smina/fragmenstein)>  (610) 
2.188

>  <smiles>  (610) 
CN(C)CC(=O)Nc1ccc(F)c(N2C(=O)CNC2=O)c1

>  <gnina_score>  (610) 
4.861

>  <inspiration_score>  (610) 
None

>  <energy_score>  (610) 
-42.056806

>  <distance_score>  (610) 
1.431538

>  <gnina_score_min>  (610) 
5.249

>  <inchikey>  (610) 
MJPGEGSOKAIYGJ-UHFFFAOYSA-N

>  <exports>  (610) 
['/opt/xchem-fragalysis-2/maxwin/BulkDock/OUTPUTS/openbind_a71ev2a_c2_elabs_1LOUU54.sdf', '/opt/xchem-fragalysis-2/maxwin/BulkDock/OUTPUTS/openbind_a71ev2a_c2_elabs_1LSYIDY.sdf']

>  <name>  (610) 
P546022

>  <ref_pdb>  (610) 
A0884a

>  <subsites>  (610) 
None

>  <HIPPO Pose ID>  (610) 
546022

>  <ref_mols>  (610) 
A0884a

>  <HIPPO Compound ID>  (610) 
384602

>  <tags>  (610) 
openbind_a71ev2a_c2_elabs,syndirella_product,openbind_a71ev2a_c2_elabs_fragonly_scored_top80percent,openbind_a71ev2a_c2_elabs_scored,BulkDock Fragalysis export,openbind_a71ev2a_c2_elabs_scored_top80percent,openbind_a71ev2a_c2_elabs_activefrags_only_scored_5.2plus,syndirella_placed

>  <smina_score_min>  (610) 
-6.26

$$$$
P546023
     RDKit          3D

 21 22  0  0  0  0  0  0  0  0999 V2000
    3.1616   14.3642   26.4073 C   0  0  0  0  0  0  0  0  0  0  0  0
    3.1222   13.8254   27.7625 N   0  0  0  0  0  0  0  0  0  0  0  0
    2.0329   12.8699   27.9285 C   0  0  0  0  0  0  0  0  0  0  0  0
    4.4120   13.3002   28.2370 C   0  0  0  0  0  0  0  0  0  0  0  0
    5.0057   12.1472   27.3907 C   0  0  0  0  0  0  0  0  0  0  0  0
    4.7458   11.0199   27.5685 O   0  0  0  0  0  0  0  0  0  0  0  0
    6.0201   12.8069   26.4068 N   0  0  0  0  0  0  0  0  0  0  0  0
    6.9507   12.2297   25.5453 C   0  0  0  0  0  0  0  0  0  0  0  0
    7.1290   10.8669   25.3608 C   0  0  0  0  0  0  0  0  0  0  0  0
    8.1727   10.4078   24.5379 C   0  0  0  0  0  0  0  0  0  0  0  0
    9.0983   11.2926   23.9783 C   0  0  0  0  0  0  0  0  0  0  0  0
    8.9862   12.6506   24.2748 C   0  0  0  0  0  0  0  0  0  0  0  0
   10.1117   13.4938   24.2263 N   0  0  0  0  0  0  0  0  0  0  0  0
   10.4447   14.2957   25.2962 C   0  0  0  0  0  0  0  0  0  0  0  0
    9.7826   14.7012   26.2454 O   0  0  0  0  0  0  0  0  0  0  0  0
   11.8938   14.6305   25.1974 C   0  0  0  0  0  0  0  0  0  0  0  0
   12.2162   14.1324   23.9116 N   0  0  0  0  0  0  0  0  0  0  0  0
   11.1829   13.4060   23.3888 C   0  0  0  0  0  0  0  0  0  0  0  0
   11.2988   12.8159   22.3372 O   0  0  0  0  0  0  0  0  0  0  0  0
    7.8397   13.1059   24.9330 C   0  0  0  0  0  0  0  0  0  0  0  0
    7.6284   14.4269   25.0773 F   0  0  0  0  0  0  0  0  0  0  0  0
  1  2  1  0
  2  3  1  0
  2  4  1  0
  4  5  1  0
  5  6  2  0
  5  7  1  0
  7  8  1  0
  8  9  2  0
  9 10  1  0
 10 11  2  0
 11 12  1  0
 12 13  1  0
 13 14  1  0
 14 15  2  0
 14 16  1  0
 16 17  1  0
 17 18  1  0
 18 19  2  0
 12 20  2  0
 20 21  1  0
 20  8  1  0
 18 13  1  0
M  END
>  <alias>  (611) 
None

>  <rmsd(smina/fragmenstein)>  (611) 
2.315

>  <smiles>  (611) 
CN(C)CC(=O)Nc1cccc(N2C(=O)CNC2=O)c1F

>  <gnina_score>  (611) 
4.854

>  <inspiration_score>  (611) 
None

>  <energy_score>  (611) 
-44.005791

>  <distance_score>  (611) 
1.468267

>  <gnina_score_min>  (611) 
5.2

>  <inchikey>  (611) 
OSWMRINRLWNNGL-UHFFFAOYSA-N

>  <exports>  (611) 
['/opt/xchem-fragalysis-2/maxwin/BulkDock/OUTPUTS/openbind_a71ev2a_c2_elabs_1LOUU54.sdf', '/opt/xchem-fragalysis-2/maxwin/BulkDock/OUTPUTS/openbind_a71ev2a_c2_elabs_1LSYIDY.sdf']

>  <name>  (611) 
P546023

>  <ref_pdb>  (611) 
A0884a

>  <subsites>  (611) 
None

>  <HIPPO Pose ID>  (611) 
546023

>  <ref_mols>  (611) 
A0884a

>  <HIPPO Compound ID>  (611) 
384604

>  <tags>  (611) 
openbind_a71ev2a_c2_elabs,syndirella_product,openbind_a71ev2a_c2_elabs_fragonly_scored_top80percent,openbind_a71ev2a_c2_elabs_scored,BulkDock Fragalysis export,openbind_a71ev2a_c2_elabs_scored_top80percent,openbind_a71ev2a_c2_elabs_activefrags_only_scored_5.2plus,syndirella_placed

>  <smina_score_min>  (611) 
-6.647

$$$$
P546029
     RDKit          3D

 21 22  0  0  0  0  0  0  0  0999 V2000
    9.9271   10.1566   23.1139 C   0  0  0  0  0  0  0  0  0  0  0  0
    9.0875   11.0844   23.9347 C   0  0  0  0  0  0  0  0  0  0  0  0
    8.0453   10.5059   24.6673 C   0  0  0  0  0  0  0  0  0  0  0  0
    7.1827   11.2846   25.4306 C   0  0  0  0  0  0  0  0  0  0  0  0
    7.3653   12.6596   25.4923 C   0  0  0  0  0  0  0  0  0  0  0  0
    6.4886   13.4742   26.2011 N   0  0  0  0  0  0  0  0  0  0  0  0
    5.2919   13.1056   27.1321 C   0  0  0  0  0  0  0  0  0  0  0  0
    4.8164   12.0637   27.3809 O   0  0  0  0  0  0  0  0  0  0  0  0
    4.8378   14.4233   27.8028 C   0  0  0  0  0  0  0  0  0  0  0  0
    5.2193   15.6181   27.0088 N   0  0  0  0  0  0  0  0  0  0  0  0
    4.3112   15.7826   25.8600 C   0  0  0  0  0  0  0  0  0  0  0  0
    5.1540   16.8216   27.8433 C   0  0  0  0  0  0  0  0  0  0  0  0
    8.4476   13.2459   24.8296 C   0  0  0  0  0  0  0  0  0  0  0  0
    9.3301   12.4648   24.0686 C   0  0  0  0  0  0  0  0  0  0  0  0
   10.4923   13.0435   23.5100 N   0  0  0  0  0  0  0  0  0  0  0  0
   11.3673   13.8182   24.2242 C   0  0  0  0  0  0  0  0  0  0  0  0
   11.3868   14.0376   25.4296 O   0  0  0  0  0  0  0  0  0  0  0  0
   12.3241   14.4759   23.2523 C   0  0  0  0  0  0  0  0  0  0  0  0
   11.7283   14.1505   22.0141 N   0  0  0  0  0  0  0  0  0  0  0  0
   10.5024   13.5860   22.2601 C   0  0  0  0  0  0  0  0  0  0  0  0
    9.5684   13.7682   21.5015 O   0  0  0  0  0  0  0  0  0  0  0  0
  1  2  1  0
  2  3  2  0
  3  4  1  0
  4  5  2  0
  5  6  1  0
  6  7  1  0
  7  8  2  0
  7  9  1  0
  9 10  1  0
 10 11  1  0
 10 12  1  0
  5 13  1  0
 13 14  2  0
 14 15  1  0
 15 16  1  0
 16 17  2  0
 16 18  1  0
 18 19  1  0
 19 20  1  0
 20 21  2  0
 14  2  1  0
 20 15  1  0
M  END
>  <alias>  (612) 
None

>  <rmsd(smina/fragmenstein)>  (612) 
0.951

>  <smiles>  (612) 
Cc1ccc(NC(=O)CN(C)C)cc1N1C(=O)CNC1=O

>  <gnina_score>  (612) 
5.343

>  <inspiration_score>  (612) 
None

>  <energy_score>  (612) 
-30.111624

>  <distance_score>  (612) 
1.680985

>  <gnina_score_min>  (612) 
5.235

>  <inchikey>  (612) 
CWACVDSKAWPLOM-UHFFFAOYSA-N

>  <exports>  (612) 
['/opt/xchem-fragalysis-2/maxwin/BulkDock/OUTPUTS/openbind_a71ev2a_c2_elabs_1LOUU54.sdf', '/opt/xchem-fragalysis-2/maxwin/BulkDock/OUTPUTS/openbind_a71ev2a_c2_elabs_1LSYIDY.sdf']

>  <name>  (612) 
P546029

>  <ref_pdb>  (612) 
A0884a

>  <subsites>  (612) 
None

>  <HIPPO Pose ID>  (612) 
546029

>  <ref_mols>  (612) 
A0884a

>  <HIPPO Compound ID>  (612) 
384612

>  <tags>  (612) 
openbind_a71ev2a_c2_elabs,syndirella_product,openbind_a71ev2a_c2_elabs_fragonly_scored_top80percent,openbind_a71ev2a_c2_elabs_scored,BulkDock Fragalysis export,openbind_a71ev2a_c2_elabs_scored_top80percent,openbind_a71ev2a_c2_elabs_activefrags_only_scored_5.2plus,syndirella_placed

>  <smina_score_min>  (612) 
-6.334

$$$$
P546035
     RDKit          3D

 21 22  0  0  0  0  0  0  0  0999 V2000
    3.8014   15.2999   24.4273 C   0  0  0  0  0  0  0  0  0  0  0  0
    4.0651   15.7364   25.8446 C   0  0  0  0  0  0  0  0  0  0  0  0
    3.5123   17.0912   26.1946 C   0  0  0  0  0  0  0  0  0  0  0  0
    4.7178   15.0034   26.7664 C   0  0  0  0  0  0  0  0  0  0  0  0
    5.2984   13.6617   26.4944 C   0  0  0  0  0  0  0  0  0  0  0  0
    4.8532   12.6852   26.9543 O   0  0  0  0  0  0  0  0  0  0  0  0
    6.4999   13.8640   25.5353 N   0  0  0  0  0  0  0  0  0  0  0  0
    7.4246   12.9487   25.0390 C   0  0  0  0  0  0  0  0  0  0  0  0
    7.2744   11.5847   25.2607 C   0  0  0  0  0  0  0  0  0  0  0  0
    8.1512   10.6872   24.6634 C   0  0  0  0  0  0  0  0  0  0  0  0
    9.2082   11.1378   23.8605 C   0  0  0  0  0  0  0  0  0  0  0  0
    9.9896   10.0844   23.1406 C   0  0  0  0  0  0  0  0  0  0  0  0
    9.4394   12.5218   23.7304 C   0  0  0  0  0  0  0  0  0  0  0  0
   10.5862   13.0281   23.0629 N   0  0  0  0  0  0  0  0  0  0  0  0
   10.5432   13.9920   22.0931 C   0  0  0  0  0  0  0  0  0  0  0  0
    9.5591   14.4213   21.5110 O   0  0  0  0  0  0  0  0  0  0  0  0
   11.9293   14.5335   21.8419 C   0  0  0  0  0  0  0  0  0  0  0  0
   12.6338   13.9228   22.9093 N   0  0  0  0  0  0  0  0  0  0  0  0
   11.7842   13.1945   23.7021 C   0  0  0  0  0  0  0  0  0  0  0  0
   12.0962   12.9090   24.8442 O   0  0  0  0  0  0  0  0  0  0  0  0
    8.5047   13.4141   24.2809 C   0  0  0  0  0  0  0  0  0  0  0  0
  1  2  1  0
  2  3  1  0
  2  4  2  3
  4  5  1  0
  5  6  2  0
  5  7  1  0
  7  8  1  0
  8  9  2  0
  9 10  1  0
 10 11  2  0
 11 12  1  0
 11 13  1  0
 13 14  1  0
 14 15  1  0
 15 16  2  0
 15 17  1  0
 17 18  1  0
 18 19  1  0
 19 20  2  0
 13 21  2  0
 21  8  1  0
 19 14  1  0
M  END
>  <alias>  (613) 
None

>  <rmsd(smina/fragmenstein)>  (613) 
0.818

>  <smiles>  (613) 
CC(C)=CC(=O)Nc1ccc(C)c(N2C(=O)CNC2=O)c1

>  <gnina_score>  (613) 
5.289

>  <inspiration_score>  (613) 
None

>  <energy_score>  (613) 
-13.93585

>  <distance_score>  (613) 
1.812762

>  <gnina_score_min>  (613) 
5.253

>  <inchikey>  (613) 
WDGGIXDUFRISJL-UHFFFAOYSA-N

>  <exports>  (613) 
['/opt/xchem-fragalysis-2/maxwin/BulkDock/OUTPUTS/openbind_a71ev2a_c2_elabs_1LOUU54.sdf', '/opt/xchem-fragalysis-2/maxwin/BulkDock/OUTPUTS/openbind_a71ev2a_c2_elabs_1LSYIDY.sdf']

>  <name>  (613) 
P546035

>  <ref_pdb>  (613) 
A0884a

>  <subsites>  (613) 
None

>  <HIPPO Pose ID>  (613) 
546035

>  <ref_mols>  (613) 
A0884a

>  <HIPPO Compound ID>  (613) 
384621

>  <tags>  (613) 
openbind_a71ev2a_c2_elabs,syndirella_product,openbind_a71ev2a_c2_elabs_fragonly_scored_top80percent,openbind_a71ev2a_c2_elabs_scored,BulkDock Fragalysis export,openbind_a71ev2a_c2_elabs_scored_top80percent,openbind_a71ev2a_c2_elabs_activefrags_only_scored_5.2plus,syndirella_placed

>  <smina_score_min>  (613) 
-6.84

$$$$
P546037
     RDKit          3D

 21 22  0  0  0  0  0  0  0  0999 V2000
    2.9900   15.2588   28.6123 C   0  0  0  0  0  0  0  0  0  0  0  0
    3.8913   14.0889   28.3199 C   0  0  0  0  0  0  0  0  0  0  0  0
    4.2202   13.2416   29.5191 C   0  0  0  0  0  0  0  0  0  0  0  0
    4.3481   13.8760   27.0709 C   0  0  0  0  0  0  0  0  0  0  0  0
    5.1948   12.7108   26.6692 C   0  0  0  0  0  0  0  0  0  0  0  0
    5.0010   11.6232   27.0457 O   0  0  0  0  0  0  0  0  0  0  0  0
    6.2396   13.2536   25.6614 N   0  0  0  0  0  0  0  0  0  0  0  0
    7.2833   12.6077   25.0064 C   0  0  0  0  0  0  0  0  0  0  0  0
    7.4760   11.2283   25.1050 C   0  0  0  0  0  0  0  0  0  0  0  0
    8.5330   10.6267   24.4238 C   0  0  0  0  0  0  0  0  0  0  0  0
    9.4200   11.4124   23.6981 C   0  0  0  0  0  0  0  0  0  0  0  0
   10.4115   10.8048   23.0418 F   0  0  0  0  0  0  0  0  0  0  0  0
    9.2499   12.7958   23.6010 C   0  0  0  0  0  0  0  0  0  0  0  0
   10.1926   13.6007   22.9048 N   0  0  0  0  0  0  0  0  0  0  0  0
    9.7175   14.3794   21.7624 C   0  0  0  0  0  0  0  0  0  0  0  0
   10.7694   15.2083   21.0464 C   0  0  0  0  0  0  0  0  0  0  0  0
   12.1487   14.6439   21.2621 C   0  0  0  0  0  0  0  0  0  0  0  0
   12.3679   14.3937   22.6542 N   0  0  0  0  0  0  0  0  0  0  0  0
   11.4687   13.7230   23.4261 C   0  0  0  0  0  0  0  0  0  0  0  0
   11.8106   13.3162   24.5347 O   0  0  0  0  0  0  0  0  0  0  0  0
    8.1538   13.3853   24.2337 C   0  0  0  0  0  0  0  0  0  0  0  0
  1  2  1  0
  2  3  1  0
  2  4  2  3
  4  5  1  0
  5  6  2  0
  5  7  1  0
  7  8  1  0
  8  9  2  0
  9 10  1  0
 10 11  2  0
 11 12  1  0
 11 13  1  0
 13 14  1  0
 14 15  1  0
 15 16  1  0
 16 17  1  0
 17 18  1  0
 18 19  1  0
 19 20  2  0
 13 21  2  0
 21  8  1  0
 19 14  1  0
M  END
>  <alias>  (614) 
None

>  <rmsd(smina/fragmenstein)>  (614) 
0.873

>  <smiles>  (614) 
CC(C)=CC(=O)Nc1ccc(F)c(N2CCCNC2=O)c1

>  <gnina_score>  (614) 
5.235

>  <inspiration_score>  (614) 
None

>  <energy_score>  (614) 
-35.999234

>  <distance_score>  (614) 
1.240701

>  <gnina_score_min>  (614) 
5.278

>  <inchikey>  (614) 
CBCNVLLJTIFVSR-UHFFFAOYSA-N

>  <exports>  (614) 
['/opt/xchem-fragalysis-2/maxwin/BulkDock/OUTPUTS/openbind_a71ev2a_c2_elabs_1LOUU54.sdf', '/opt/xchem-fragalysis-2/maxwin/BulkDock/OUTPUTS/openbind_a71ev2a_c2_elabs_1LSYIDY.sdf']

>  <name>  (614) 
P546037

>  <ref_pdb>  (614) 
A0884a

>  <subsites>  (614) 
None

>  <HIPPO Pose ID>  (614) 
546037

>  <ref_mols>  (614) 
A0884a

>  <HIPPO Compound ID>  (614) 
384623

>  <tags>  (614) 
openbind_a71ev2a_c2_elabs,syndirella_product,openbind_a71ev2a_c2_elabs_fragonly_scored_top80percent,openbind_a71ev2a_c2_elabs_scored,BulkDock Fragalysis export,openbind_a71ev2a_c2_elabs_scored_top80percent,openbind_a71ev2a_c2_elabs_activefrags_only_scored_5.2plus,syndirella_placed

>  <smina_score_min>  (614) 
-6.702

$$$$
P546038
     RDKit          3D

 21 22  0  0  0  0  0  0  0  0999 V2000
    4.5550   11.6471   29.9771 C   0  0  0  0  0  0  0  0  0  0  0  0
    4.0530   12.6573   28.9810 C   0  0  0  0  0  0  0  0  0  0  0  0
    3.0227   13.6101   29.5272 C   0  0  0  0  0  0  0  0  0  0  0  0
    4.4590   12.7537   27.7004 C   0  0  0  0  0  0  0  0  0  0  0  0
    5.4115   11.8065   27.0405 C   0  0  0  0  0  0  0  0  0  0  0  0
    5.4134   10.6594   27.2515 O   0  0  0  0  0  0  0  0  0  0  0  0
    6.2468   12.6447   26.0413 N   0  0  0  0  0  0  0  0  0  0  0  0
    7.2911   12.2676   25.1898 C   0  0  0  0  0  0  0  0  0  0  0  0
    7.6323   10.9157   25.0707 C   0  0  0  0  0  0  0  0  0  0  0  0
    8.6900   10.5242   24.2573 C   0  0  0  0  0  0  0  0  0  0  0  0
    9.4504   11.4914   23.6220 C   0  0  0  0  0  0  0  0  0  0  0  0
   10.4615   11.0914   22.8481 F   0  0  0  0  0  0  0  0  0  0  0  0
    9.1555   12.8540   23.7420 C   0  0  0  0  0  0  0  0  0  0  0  0
   10.0535   13.8234   23.2207 N   0  0  0  0  0  0  0  0  0  0  0  0
    9.9240   14.3123   21.8626 C   0  0  0  0  0  0  0  0  0  0  0  0
   11.2985   14.8676   21.5182 C   0  0  0  0  0  0  0  0  0  0  0  0
   12.1544   14.3362   22.5347 N   0  0  0  0  0  0  0  0  0  0  0  0
   11.4190   13.7734   23.5611 C   0  0  0  0  0  0  0  0  0  0  0  0
   11.8962   13.3569   24.6047 O   0  0  0  0  0  0  0  0  0  0  0  0
    8.0123   13.2508   24.4698 C   0  0  0  0  0  0  0  0  0  0  0  0
    7.6363   14.7067   24.5497 C   0  0  0  0  0  0  0  0  0  0  0  0
  1  2  1  0
  2  3  1  0
  2  4  2  3
  4  5  1  0
  5  6  2  0
  5  7  1  0
  7  8  1  0
  8  9  2  0
  9 10  1  0
 10 11  2  0
 11 12  1  0
 11 13  1  0
 13 14  1  0
 14 15  1  0
 15 16  1  0
 16 17  1  0
 17 18  1  0
 18 19  2  0
 13 20  2  0
 20 21  1  0
 20  8  1  0
 18 14  1  0
M  END
>  <alias>  (615) 
None

>  <rmsd(smina/fragmenstein)>  (615) 
0.646

>  <smiles>  (615) 
CC(C)=CC(=O)Nc1ccc(F)c(N2CCNC2=O)c1C

>  <gnina_score>  (615) 
5.315

>  <inspiration_score>  (615) 
None

>  <energy_score>  (615) 
-46.328856

>  <distance_score>  (615) 
1.200719

>  <gnina_score_min>  (615) 
5.303

>  <inchikey>  (615) 
IUEXVBKMOGFDRF-UHFFFAOYSA-N

>  <exports>  (615) 
['/opt/xchem-fragalysis-2/maxwin/BulkDock/OUTPUTS/openbind_a71ev2a_c2_elabs_1LOUU54.sdf', '/opt/xchem-fragalysis-2/maxwin/BulkDock/OUTPUTS/openbind_a71ev2a_c2_elabs_1LSYIDY.sdf']

>  <name>  (615) 
P546038

>  <ref_pdb>  (615) 
A0884a

>  <subsites>  (615) 
None

>  <HIPPO Pose ID>  (615) 
546038

>  <ref_mols>  (615) 
A0884a

>  <HIPPO Compound ID>  (615) 
384624

>  <tags>  (615) 
openbind_a71ev2a_c2_elabs,syndirella_product,openbind_a71ev2a_c2_elabs_fragonly_scored_top80percent,openbind_a71ev2a_c2_elabs_scored,BulkDock Fragalysis export,openbind_a71ev2a_c2_elabs_scored_top80percent,openbind_a71ev2a_c2_elabs_activefrags_only_scored_5.2plus,syndirella_placed

>  <smina_score_min>  (615) 
-6.15

$$$$
P546039
     RDKit          3D

 21 22  0  0  0  0  0  0  0  0999 V2000
    2.8372   14.6219   27.4715 C   0  0  0  0  0  0  0  0  0  0  0  0
    4.1128   14.5118   26.6821 C   0  0  0  0  0  0  0  0  0  0  0  0
    3.9270   14.5610   25.1863 C   0  0  0  0  0  0  0  0  0  0  0  0
    5.3043   14.4300   27.3048 C   0  0  0  0  0  0  0  0  0  0  0  0
    6.5964   14.3323   26.5751 C   0  0  0  0  0  0  0  0  0  0  0  0
    7.3718   15.2039   26.5503 O   0  0  0  0  0  0  0  0  0  0  0  0
    6.6625   12.9116   25.9600 N   0  0  0  0  0  0  0  0  0  0  0  0
    7.6178   12.3286   25.1406 C   0  0  0  0  0  0  0  0  0  0  0  0
    7.6754   10.9436   25.0099 C   0  0  0  0  0  0  0  0  0  0  0  0
    8.6564   10.3654   24.2003 C   0  0  0  0  0  0  0  0  0  0  0  0
    9.5498   11.1655   23.4913 C   0  0  0  0  0  0  0  0  0  0  0  0
    9.4539   12.5531   23.5855 C   0  0  0  0  0  0  0  0  0  0  0  0
   10.2791   13.3913   22.7967 N   0  0  0  0  0  0  0  0  0  0  0  0
   11.5975   13.5722   23.2043 C   0  0  0  0  0  0  0  0  0  0  0  0
   12.1546   12.9623   24.1154 O   0  0  0  0  0  0  0  0  0  0  0  0
   12.3242   14.6971   22.5464 C   0  0  0  0  0  0  0  0  0  0  0  0
   11.9345   14.7248   21.1025 C   0  0  0  0  0  0  0  0  0  0  0  0
   10.5145   14.9025   21.0208 N   0  0  0  0  0  0  0  0  0  0  0  0
    9.6712   14.1290   21.7752 C   0  0  0  0  0  0  0  0  0  0  0  0
    8.4725   14.1114   21.4976 O   0  0  0  0  0  0  0  0  0  0  0  0
    8.5011   13.1316   24.4261 C   0  0  0  0  0  0  0  0  0  0  0  0
  1  2  1  0
  2  3  1  0
  2  4  2  3
  4  5  1  0
  5  6  2  0
  5  7  1  0
  7  8  1  0
  8  9  2  0
  9 10  1  0
 10 11  2  0
 11 12  1  0
 12 13  1  0
 13 14  1  0
 14 15  2  0
 14 16  1  0
 16 17  1  0
 17 18  1  0
 18 19  1  0
 19 20  2  0
 12 21  2  0
 21  8  1  0
 19 13  1  0
M  END
>  <alias>  (616) 
None

>  <rmsd(smina/fragmenstein)>  (616) 
0.459

>  <smiles>  (616) 
CC(C)=CC(=O)Nc1cccc(N2C(=O)CCNC2=O)c1

>  <gnina_score>  (616) 
5.359

>  <inspiration_score>  (616) 
None

>  <energy_score>  (616) 
-34.798716

>  <distance_score>  (616) 
1.66218

>  <gnina_score_min>  (616) 
5.429

>  <inchikey>  (616) 
SONGFDOTLMPASR-UHFFFAOYSA-N

>  <exports>  (616) 
['/opt/xchem-fragalysis-2/maxwin/BulkDock/OUTPUTS/openbind_a71ev2a_c2_elabs_1LOUU54.sdf', '/opt/xchem-fragalysis-2/maxwin/BulkDock/OUTPUTS/openbind_a71ev2a_c2_elabs_1LSYIDY.sdf']

>  <name>  (616) 
P546039

>  <ref_pdb>  (616) 
A0884a

>  <subsites>  (616) 
None

>  <HIPPO Pose ID>  (616) 
546039

>  <ref_mols>  (616) 
A0884a

>  <HIPPO Compound ID>  (616) 
384627

>  <tags>  (616) 
openbind_a71ev2a_c2_elabs,syndirella_product,openbind_a71ev2a_c2_elabs_fragonly_scored_top80percent,openbind_a71ev2a_c2_elabs_scored,BulkDock Fragalysis export,openbind_a71ev2a_c2_elabs_scored_top80percent,openbind_a71ev2a_c2_elabs_activefrags_only_scored_5.2plus,syndirella_placed

>  <smina_score_min>  (616) 
-7.338

$$$$
P546040
     RDKit          3D

 21 22  0  0  0  0  0  0  0  0999 V2000
    3.4279   14.2149   29.3801 C   0  0  0  0  0  0  0  0  0  0  0  0
    4.3384   13.1198   28.8912 C   0  0  0  0  0  0  0  0  0  0  0  0
    4.7818   12.1566   29.9589 C   0  0  0  0  0  0  0  0  0  0  0  0
    4.7013   13.0630   27.5956 C   0  0  0  0  0  0  0  0  0  0  0  0
    5.5422   11.9806   26.9987 C   0  0  0  0  0  0  0  0  0  0  0  0
    5.4315   10.8544   27.2816 O   0  0  0  0  0  0  0  0  0  0  0  0
    6.4750   12.6710   25.9728 N   0  0  0  0  0  0  0  0  0  0  0  0
    7.4980   12.1442   25.1768 C   0  0  0  0  0  0  0  0  0  0  0  0
    7.6413   10.7639   25.0610 C   0  0  0  0  0  0  0  0  0  0  0  0
    8.6365   10.2253   24.2517 C   0  0  0  0  0  0  0  0  0  0  0  0
    9.5379   11.0520   23.6015 C   0  0  0  0  0  0  0  0  0  0  0  0
    9.4522   12.4355   23.7550 C   0  0  0  0  0  0  0  0  0  0  0  0
   10.5201   13.1816   23.2213 N   0  0  0  0  0  0  0  0  0  0  0  0
   11.4506   13.8274   23.9881 C   0  0  0  0  0  0  0  0  0  0  0  0
   11.5778   13.8056   25.2061 O   0  0  0  0  0  0  0  0  0  0  0  0
   12.3074   14.6793   23.0752 C   0  0  0  0  0  0  0  0  0  0  0  0
   11.6302   14.5397   21.8431 N   0  0  0  0  0  0  0  0  0  0  0  0
   10.4685   13.8387   22.0307 C   0  0  0  0  0  0  0  0  0  0  0  0
    9.5277   13.9553   21.2694 O   0  0  0  0  0  0  0  0  0  0  0  0
    8.3797   13.0004   24.4825 C   0  0  0  0  0  0  0  0  0  0  0  0
    8.1913   14.4875   24.5301 C   0  0  0  0  0  0  0  0  0  0  0  0
  1  2  1  0
  2  3  1  0
  2  4  2  3
  4  5  1  0
  5  6  2  0
  5  7  1  0
  7  8  1  0
  8  9  2  0
  9 10  1  0
 10 11  2  0
 11 12  1  0
 12 13  1  0
 13 14  1  0
 14 15  2  0
 14 16  1  0
 16 17  1  0
 17 18  1  0
 18 19  2  0
 12 20  2  0
 20 21  1  0
 20  8  1  0
 18 13  1  0
M  END
>  <alias>  (617) 
None

>  <rmsd(smina/fragmenstein)>  (617) 
0.798

>  <smiles>  (617) 
CC(C)=CC(=O)Nc1cccc(N2C(=O)CNC2=O)c1C

>  <gnina_score>  (617) 
5.248

>  <inspiration_score>  (617) 
None

>  <energy_score>  (617) 
-28.736394

>  <distance_score>  (617) 
1.533767

>  <gnina_score_min>  (617) 
5.347

>  <inchikey>  (617) 
UCEJYIINYSTKPT-UHFFFAOYSA-N

>  <exports>  (617) 
['/opt/xchem-fragalysis-2/maxwin/BulkDock/OUTPUTS/openbind_a71ev2a_c2_elabs_1LOUU54.sdf', '/opt/xchem-fragalysis-2/maxwin/BulkDock/OUTPUTS/openbind_a71ev2a_c2_elabs_1LSYIDY.sdf']

>  <name>  (617) 
P546040

>  <ref_pdb>  (617) 
A0884a

>  <subsites>  (617) 
None

>  <HIPPO Pose ID>  (617) 
546040

>  <ref_mols>  (617) 
A0884a

>  <HIPPO Compound ID>  (617) 
384628

>  <tags>  (617) 
openbind_a71ev2a_c2_elabs,syndirella_product,openbind_a71ev2a_c2_elabs_fragonly_scored_top80percent,openbind_a71ev2a_c2_elabs_scored,BulkDock Fragalysis export,openbind_a71ev2a_c2_elabs_scored_top80percent,openbind_a71ev2a_c2_elabs_activefrags_only_scored_5.2plus,syndirella_placed

>  <smina_score_min>  (617) 
-6.617

$$$$
P546041
     RDKit          3D

 21 22  0  0  0  0  0  0  0  0999 V2000
    3.3138   14.5523   28.6473 C   0  0  0  0  0  0  0  0  0  0  0  0
    4.0046   13.7124   27.6042 C   0  0  0  0  0  0  0  0  0  0  0  0
    3.6626   14.0931   26.1877 C   0  0  0  0  0  0  0  0  0  0  0  0
    4.8197   12.7062   27.9781 C   0  0  0  0  0  0  0  0  0  0  0  0
    5.5759   11.7784   27.0859 C   0  0  0  0  0  0  0  0  0  0  0  0
    5.4680   10.6216   27.1809 O   0  0  0  0  0  0  0  0  0  0  0  0
    6.4563   12.6276   26.1432 N   0  0  0  0  0  0  0  0  0  0  0  0
    7.4290   12.2409   25.2132 C   0  0  0  0  0  0  0  0  0  0  0  0
    7.7355   10.8908   25.0273 C   0  0  0  0  0  0  0  0  0  0  0  0
    8.7679   10.5105   24.1716 C   0  0  0  0  0  0  0  0  0  0  0  0
    9.5261   11.4814   23.5278 C   0  0  0  0  0  0  0  0  0  0  0  0
    9.2257   12.8403   23.6892 C   0  0  0  0  0  0  0  0  0  0  0  0
   10.0843   13.8049   23.0755 N   0  0  0  0  0  0  0  0  0  0  0  0
    9.7024   14.2526   21.7354 C   0  0  0  0  0  0  0  0  0  0  0  0
   10.6590   15.2379   21.0982 C   0  0  0  0  0  0  0  0  0  0  0  0
   12.0690   14.7538   21.3189 C   0  0  0  0  0  0  0  0  0  0  0  0
   12.3005   14.4676   22.7049 N   0  0  0  0  0  0  0  0  0  0  0  0
   11.3922   13.8823   23.5315 C   0  0  0  0  0  0  0  0  0  0  0  0
   11.7602   13.5050   24.6437 O   0  0  0  0  0  0  0  0  0  0  0  0
    8.1292   13.2317   24.4871 C   0  0  0  0  0  0  0  0  0  0  0  0
    7.7628   14.6846   24.6267 C   0  0  0  0  0  0  0  0  0  0  0  0
  1  2  1  0
  2  3  1  0
  2  4  2  3
  4  5  1  0
  5  6  2  0
  5  7  1  0
  7  8  1  0
  8  9  2  0
  9 10  1  0
 10 11  2  0
 11 12  1  0
 12 13  1  0
 13 14  1  0
 14 15  1  0
 15 16  1  0
 16 17  1  0
 17 18  1  0
 18 19  2  0
 12 20  2  0
 20 21  1  0
 20  8  1  0
 18 13  1  0
M  END
>  <alias>  (618) 
None

>  <rmsd(smina/fragmenstein)>  (618) 
0.364

>  <smiles>  (618) 
CC(C)=CC(=O)Nc1cccc(N2CCCNC2=O)c1C

>  <gnina_score>  (618) 
5.128

>  <inspiration_score>  (618) 
None

>  <energy_score>  (618) 
-20.173524

>  <distance_score>  (618) 
1.138975

>  <gnina_score_min>  (618) 
5.268

>  <inchikey>  (618) 
IDZBKMWBFWXABO-UHFFFAOYSA-N

>  <exports>  (618) 
['/opt/xchem-fragalysis-2/maxwin/BulkDock/OUTPUTS/openbind_a71ev2a_c2_elabs_1LOUU54.sdf', '/opt/xchem-fragalysis-2/maxwin/BulkDock/OUTPUTS/openbind_a71ev2a_c2_elabs_1LSYIDY.sdf']

>  <name>  (618) 
P546041

>  <ref_pdb>  (618) 
A0884a

>  <subsites>  (618) 
None

>  <HIPPO Pose ID>  (618) 
546041

>  <ref_mols>  (618) 
A0884a

>  <HIPPO Compound ID>  (618) 
384629

>  <tags>  (618) 
openbind_a71ev2a_c2_elabs,syndirella_product,openbind_a71ev2a_c2_elabs_fragonly_scored_top80percent,openbind_a71ev2a_c2_elabs_scored,BulkDock Fragalysis export,openbind_a71ev2a_c2_elabs_scored_top80percent,openbind_a71ev2a_c2_elabs_activefrags_only_scored_5.2plus,syndirella_placed

>  <smina_score_min>  (618) 
-6.929

$$$$
P546042
     RDKit          3D

 21 22  0  0  0  0  0  0  0  0999 V2000
    4.4091   11.5190   30.1650 C   0  0  0  0  0  0  0  0  0  0  0  0
    3.9201   12.4873   29.1221 C   0  0  0  0  0  0  0  0  0  0  0  0
    2.9036   13.4786   29.6238 C   0  0  0  0  0  0  0  0  0  0  0  0
    4.3294   12.5217   27.8392 C   0  0  0  0  0  0  0  0  0  0  0  0
    5.2780   11.5439   27.2166 C   0  0  0  0  0  0  0  0  0  0  0  0
    5.3196   10.4178   27.5132 O   0  0  0  0  0  0  0  0  0  0  0  0
    6.0792   12.3302   26.1545 N   0  0  0  0  0  0  0  0  0  0  0  0
    7.1262   11.9281   25.3329 C   0  0  0  0  0  0  0  0  0  0  0  0
    7.4469   10.5994   25.1051 C   0  0  0  0  0  0  0  0  0  0  0  0
    8.5164   10.2751   24.2609 C   0  0  0  0  0  0  0  0  0  0  0  0
    9.3400   11.2683   23.7365 C   0  0  0  0  0  0  0  0  0  0  0  0
    9.1010   12.5958   24.0902 C   0  0  0  0  0  0  0  0  0  0  0  0
   10.1506   13.5313   24.0724 N   0  0  0  0  0  0  0  0  0  0  0  0
   10.4310   14.2824   25.1919 C   0  0  0  0  0  0  0  0  0  0  0  0
    9.7275   14.6247   26.1353 O   0  0  0  0  0  0  0  0  0  0  0  0
   11.8810   14.6346   25.1642 C   0  0  0  0  0  0  0  0  0  0  0  0
   12.2213   14.2997   23.8301 N   0  0  0  0  0  0  0  0  0  0  0  0
   11.2452   13.5335   23.2597 C   0  0  0  0  0  0  0  0  0  0  0  0
   11.4403   12.9774   22.2014 O   0  0  0  0  0  0  0  0  0  0  0  0
    7.9193   12.9153   24.7661 C   0  0  0  0  0  0  0  0  0  0  0  0
    7.5778   14.2008   24.9628 F   0  0  0  0  0  0  0  0  0  0  0  0
  1  2  1  0
  2  3  1  0
  2  4  2  3
  4  5  1  0
  5  6  2  0
  5  7  1  0
  7  8  1  0
  8  9  2  0
  9 10  1  0
 10 11  2  0
 11 12  1  0
 12 13  1  0
 13 14  1  0
 14 15  2  0
 14 16  1  0
 16 17  1  0
 17 18  1  0
 18 19  2  0
 12 20  2  0
 20 21  1  0
 20  8  1  0
 18 13  1  0
M  END
>  <alias>  (619) 
None

>  <rmsd(smina/fragmenstein)>  (619) 
2.375

>  <smiles>  (619) 
CC(C)=CC(=O)Nc1cccc(N2C(=O)CNC2=O)c1F

>  <gnina_score>  (619) 
5.088

>  <inspiration_score>  (619) 
None

>  <energy_score>  (619) 
-36.807445

>  <distance_score>  (619) 
1.352958

>  <gnina_score_min>  (619) 
5.266

>  <inchikey>  (619) 
XILSZTNMDBICEA-UHFFFAOYSA-N

>  <exports>  (619) 
['/opt/xchem-fragalysis-2/maxwin/BulkDock/OUTPUTS/openbind_a71ev2a_c2_elabs_1LOUU54.sdf', '/opt/xchem-fragalysis-2/maxwin/BulkDock/OUTPUTS/openbind_a71ev2a_c2_elabs_1LSYIDY.sdf']

>  <name>  (619) 
P546042

>  <ref_pdb>  (619) 
A0884a

>  <subsites>  (619) 
None

>  <HIPPO Pose ID>  (619) 
546042

>  <ref_mols>  (619) 
A0884a

>  <HIPPO Compound ID>  (619) 
384630

>  <tags>  (619) 
openbind_a71ev2a_c2_elabs,syndirella_product,openbind_a71ev2a_c2_elabs_fragonly_scored_top80percent,openbind_a71ev2a_c2_elabs_scored,BulkDock Fragalysis export,openbind_a71ev2a_c2_elabs_scored_top80percent,openbind_a71ev2a_c2_elabs_activefrags_only_scored_5.2plus,syndirella_placed

>  <smina_score_min>  (619) 
-7.091

$$$$
P546043
     RDKit          3D

 21 22  0  0  0  0  0  0  0  0999 V2000
    3.2641   15.6138   28.5512 C   0  0  0  0  0  0  0  0  0  0  0  0
    4.0626   14.3589   28.3173 C   0  0  0  0  0  0  0  0  0  0  0  0
    4.2261   13.4886   29.5335 C   0  0  0  0  0  0  0  0  0  0  0  0
    4.5745   14.0950   27.1001 C   0  0  0  0  0  0  0  0  0  0  0  0
    5.3271   12.8525   26.7506 C   0  0  0  0  0  0  0  0  0  0  0  0
    5.0054   11.7868   27.1010 O   0  0  0  0  0  0  0  0  0  0  0  0
    6.5317   13.3046   25.8854 N   0  0  0  0  0  0  0  0  0  0  0  0
    7.4974   12.5562   25.2202 C   0  0  0  0  0  0  0  0  0  0  0  0
    7.4333   11.1630   25.1647 C   0  0  0  0  0  0  0  0  0  0  0  0
    8.3736   10.4518   24.4202 C   0  0  0  0  0  0  0  0  0  0  0  0
    9.3833   11.1305   23.7561 C   0  0  0  0  0  0  0  0  0  0  0  0
   10.2672   10.4244   23.0453 F   0  0  0  0  0  0  0  0  0  0  0  0
    9.5032   12.5149   23.8632 C   0  0  0  0  0  0  0  0  0  0  0  0
   10.6183   13.1453   23.2865 N   0  0  0  0  0  0  0  0  0  0  0  0
   11.5220   13.8644   24.0180 C   0  0  0  0  0  0  0  0  0  0  0  0
   11.6066   13.9490   25.2375 O   0  0  0  0  0  0  0  0  0  0  0  0
   12.3830   14.6603   23.0601 C   0  0  0  0  0  0  0  0  0  0  0  0
   11.7157   14.4372   21.8347 N   0  0  0  0  0  0  0  0  0  0  0  0
   10.5429   13.7742   22.0822 C   0  0  0  0  0  0  0  0  0  0  0  0
    9.5669   13.9288   21.3716 O   0  0  0  0  0  0  0  0  0  0  0  0
    8.5413   13.2327   24.5807 C   0  0  0  0  0  0  0  0  0  0  0  0
  1  2  1  0
  2  3  1  0
  2  4  2  3
  4  5  1  0
  5  6  2  0
  5  7  1  0
  7  8  1  0
  8  9  2  0
  9 10  1  0
 10 11  2  0
 11 12  1  0
 11 13  1  0
 13 14  1  0
 14 15  1  0
 15 16  2  0
 15 17  1  0
 17 18  1  0
 18 19  1  0
 19 20  2  0
 13 21  2  0
 21  8  1  0
 19 14  1  0
M  END
>  <alias>  (620) 
None

>  <rmsd(smina/fragmenstein)>  (620) 
1.059

>  <smiles>  (620) 
CC(C)=CC(=O)Nc1ccc(F)c(N2C(=O)CNC2=O)c1

>  <gnina_score>  (620) 
5.29

>  <inspiration_score>  (620) 
None

>  <energy_score>  (620) 
-40.432352

>  <distance_score>  (620) 
1.609921

>  <gnina_score_min>  (620) 
5.252

>  <inchikey>  (620) 
KKFMCGDLVDDBEA-UHFFFAOYSA-N

>  <exports>  (620) 
['/opt/xchem-fragalysis-2/maxwin/BulkDock/OUTPUTS/openbind_a71ev2a_c2_elabs_1LOUU54.sdf', '/opt/xchem-fragalysis-2/maxwin/BulkDock/OUTPUTS/openbind_a71ev2a_c2_elabs_1LSYIDY.sdf']

>  <name>  (620) 
P546043

>  <ref_pdb>  (620) 
A0884a

>  <subsites>  (620) 
None

>  <HIPPO Pose ID>  (620) 
546043

>  <ref_mols>  (620) 
A0884a

>  <HIPPO Compound ID>  (620) 
384632

>  <tags>  (620) 
openbind_a71ev2a_c2_elabs,syndirella_product,openbind_a71ev2a_c2_elabs_fragonly_scored_top80percent,openbind_a71ev2a_c2_elabs_scored,BulkDock Fragalysis export,openbind_a71ev2a_c2_elabs_scored_top80percent,openbind_a71ev2a_c2_elabs_activefrags_only_scored_5.2plus,syndirella_placed

>  <smina_score_min>  (620) 
-6.719

$$$$
P546044
     RDKit          3D

 21 22  0  0  0  0  0  0  0  0999 V2000
    3.8652   15.2484   26.3974 C   0  0  0  0  0  0  0  0  0  0  0  0
    4.3952   14.4062   27.2989 C   0  0  0  0  0  0  0  0  0  0  0  0
    4.3062   14.5917   28.7789 C   0  0  0  0  0  0  0  0  0  0  0  0
    5.0638   13.1445   26.8438 C   0  0  0  0  0  0  0  0  0  0  0  0
    4.7107   12.0935   27.2114 O   0  0  0  0  0  0  0  0  0  0  0  0
    6.1971   13.5369   25.8603 N   0  0  0  0  0  0  0  0  0  0  0  0
    7.1544   12.7511   25.2242 C   0  0  0  0  0  0  0  0  0  0  0  0
    7.1911   11.3722   25.3825 C   0  0  0  0  0  0  0  0  0  0  0  0
    8.1341   10.6243   24.6851 C   0  0  0  0  0  0  0  0  0  0  0  0
    9.0583   11.2383   23.8262 C   0  0  0  0  0  0  0  0  0  0  0  0
    9.9563   10.3207   23.0618 C   0  0  0  0  0  0  0  0  0  0  0  0
    9.0578   12.6396   23.6974 C   0  0  0  0  0  0  0  0  0  0  0  0
    9.9961   13.3258   22.8572 N   0  0  0  0  0  0  0  0  0  0  0  0
    9.4691   14.3157   21.9250 C   0  0  0  0  0  0  0  0  0  0  0  0
   10.4522   14.7944   20.8775 C   0  0  0  0  0  0  0  0  0  0  0  0
   11.8688   14.4908   21.2424 C   0  0  0  0  0  0  0  0  0  0  0  0
   12.7595   14.4213   20.3997 O   0  0  0  0  0  0  0  0  0  0  0  0
   12.1014   14.3161   22.5723 N   0  0  0  0  0  0  0  0  0  0  0  0
   11.2814   13.5497   23.3581 C   0  0  0  0  0  0  0  0  0  0  0  0
   11.7103   13.1057   24.4210 O   0  0  0  0  0  0  0  0  0  0  0  0
    8.0858   13.3786   24.3903 C   0  0  0  0  0  0  0  0  0  0  0  0
  1  2  2  0
  2  3  1  0
  2  4  1  0
  4  5  2  0
  4  6  1  0
  6  7  1  0
  7  8  2  0
  8  9  1  0
  9 10  2  0
 10 11  1  0
 10 12  1  0
 12 13  1  0
 13 14  1  0
 14 15  1  0
 15 16  1  0
 16 17  2  0
 16 18  1  0
 18 19  1  0
 19 20  2  0
 12 21  2  0
 21  7  1  0
 19 13  1  0
M  END
>  <alias>  (621) 
None

>  <rmsd(smina/fragmenstein)>  (621) 
0.579

>  <smiles>  (621) 
C=C(C)C(=O)Nc1ccc(C)c(N2CCC(=O)NC2=O)c1

>  <gnina_score>  (621) 
5.399

>  <inspiration_score>  (621) 
None

>  <energy_score>  (621) 
-14.875482

>  <distance_score>  (621) 
1.380386

>  <gnina_score_min>  (621) 
5.361

>  <inchikey>  (621) 
JQIMXJMYAJMUSI-UHFFFAOYSA-N

>  <exports>  (621) 
['/opt/xchem-fragalysis-2/maxwin/BulkDock/OUTPUTS/openbind_a71ev2a_c2_elabs_1LOUU54.sdf', '/opt/xchem-fragalysis-2/maxwin/BulkDock/OUTPUTS/openbind_a71ev2a_c2_elabs_1LSYIDY.sdf']

>  <name>  (621) 
P546044

>  <ref_pdb>  (621) 
A0884a

>  <subsites>  (621) 
None

>  <HIPPO Pose ID>  (621) 
546044

>  <ref_mols>  (621) 
A0884a

>  <HIPPO Compound ID>  (621) 
384634

>  <tags>  (621) 
openbind_a71ev2a_c2_elabs,syndirella_product,openbind_a71ev2a_c2_elabs_fragonly_scored_top80percent,openbind_a71ev2a_c2_elabs_scored,BulkDock Fragalysis export,openbind_a71ev2a_c2_elabs_scored_top80percent,openbind_a71ev2a_c2_elabs_activefrags_only_scored_5.2plus,syndirella_placed

>  <smina_score_min>  (621) 
-6.854

$$$$
P546045
     RDKit          3D

 21 22  0  0  0  0  0  0  0  0999 V2000
    4.9282   15.2200   27.3109 C   0  0  0  0  0  0  0  0  0  0  0  0
    4.3788   14.1058   26.8007 C   0  0  0  0  0  0  0  0  0  0  0  0
    2.9160   13.9336   26.5511 C   0  0  0  0  0  0  0  0  0  0  0  0
    5.2413   12.9129   26.5090 C   0  0  0  0  0  0  0  0  0  0  0  0
    5.0256   11.8614   26.9674 O   0  0  0  0  0  0  0  0  0  0  0  0
    6.3627   13.3778   25.5451 N   0  0  0  0  0  0  0  0  0  0  0  0
    7.3622   12.6458   24.8925 C   0  0  0  0  0  0  0  0  0  0  0  0
    8.2065   13.3809   24.0500 C   0  0  0  0  0  0  0  0  0  0  0  0
    9.2953   12.7758   23.4143 C   0  0  0  0  0  0  0  0  0  0  0  0
   10.1862   13.5404   22.6180 N   0  0  0  0  0  0  0  0  0  0  0  0
    9.6349   14.4931   21.6636 C   0  0  0  0  0  0  0  0  0  0  0  0
   10.6063   14.9172   20.5836 C   0  0  0  0  0  0  0  0  0  0  0  0
   12.0177   14.5824   20.9465 C   0  0  0  0  0  0  0  0  0  0  0  0
   12.8779   14.3754   20.0951 O   0  0  0  0  0  0  0  0  0  0  0  0
   12.2733   14.5276   22.2830 N   0  0  0  0  0  0  0  0  0  0  0  0
   11.4857   13.7440   23.0812 C   0  0  0  0  0  0  0  0  0  0  0  0
   11.9417   13.2597   24.1163 O   0  0  0  0  0  0  0  0  0  0  0  0
    9.5066   11.4049   23.5665 C   0  0  0  0  0  0  0  0  0  0  0  0
    8.6375   10.6526   24.3532 C   0  0  0  0  0  0  0  0  0  0  0  0
    7.5908   11.2754   25.0339 C   0  0  0  0  0  0  0  0  0  0  0  0
    6.8247   10.5083   25.8157 F   0  0  0  0  0  0  0  0  0  0  0  0
  1  2  2  0
  2  3  1  0
  2  4  1  0
  4  5  2  0
  4  6  1  0
  6  7  1  0
  7  8  2  0
  8  9  1  0
  9 10  1  0
 10 11  1  0
 11 12  1  0
 12 13  1  0
 13 14  2  0
 13 15  1  0
 15 16  1  0
 16 17  2  0
  9 18  2  0
 18 19  1  0
 19 20  2  0
 20 21  1  0
 20  7  1  0
 16 10  1  0
M  END
>  <alias>  (622) 
None

>  <rmsd(smina/fragmenstein)>  (622) 
0.719

>  <smiles>  (622) 
C=C(C)C(=O)Nc1cc(N2CCC(=O)NC2=O)ccc1F

>  <gnina_score>  (622) 
5.375

>  <inspiration_score>  (622) 
None

>  <energy_score>  (622) 
-17.010566

>  <distance_score>  (622) 
1.267741

>  <gnina_score_min>  (622) 
5.324

>  <inchikey>  (622) 
NUEOTNDNVCAUHE-UHFFFAOYSA-N

>  <exports>  (622) 
['/opt/xchem-fragalysis-2/maxwin/BulkDock/OUTPUTS/openbind_a71ev2a_c2_elabs_1LOUU54.sdf', '/opt/xchem-fragalysis-2/maxwin/BulkDock/OUTPUTS/openbind_a71ev2a_c2_elabs_1LSYIDY.sdf']

>  <name>  (622) 
P546045

>  <ref_pdb>  (622) 
A0884a

>  <subsites>  (622) 
None

>  <HIPPO Pose ID>  (622) 
546045

>  <ref_mols>  (622) 
A0884a

>  <HIPPO Compound ID>  (622) 
384635

>  <tags>  (622) 
openbind_a71ev2a_c2_elabs,syndirella_product,openbind_a71ev2a_c2_elabs_fragonly_scored_top80percent,openbind_a71ev2a_c2_elabs_scored,BulkDock Fragalysis export,openbind_a71ev2a_c2_elabs_scored_top80percent,openbind_a71ev2a_c2_elabs_activefrags_only_scored_5.2plus,syndirella_placed

>  <smina_score_min>  (622) 
-7.072

$$$$
P546047
     RDKit          3D

 21 22  0  0  0  0  0  0  0  0999 V2000
    7.2812   14.5263   24.5589 C   0  0  0  0  0  0  0  0  0  0  0  0
    7.7310   13.0884   24.6736 C   0  0  0  0  0  0  0  0  0  0  0  0
    6.9388   12.1491   25.3555 C   0  0  0  0  0  0  0  0  0  0  0  0
    5.9138   12.6028   26.1909 N   0  0  0  0  0  0  0  0  0  0  0  0
    5.1064   11.8586   27.2981 C   0  0  0  0  0  0  0  0  0  0  0  0
    5.1248   10.7351   27.6236 O   0  0  0  0  0  0  0  0  0  0  0  0
    4.2584   12.9044   28.0105 C   0  0  0  0  0  0  0  0  0  0  0  0
    3.0277   13.2753   27.2149 C   0  0  0  0  0  0  0  0  0  0  0  0
    2.1188   12.2634   27.2948 F   0  0  0  0  0  0  0  0  0  0  0  0
    7.2424   10.7929   25.2570 C   0  0  0  0  0  0  0  0  0  0  0  0
    8.3217   10.3686   24.4806 C   0  0  0  0  0  0  0  0  0  0  0  0
    9.1855   11.3008   23.9292 C   0  0  0  0  0  0  0  0  0  0  0  0
   10.3229   10.8513   23.3915 F   0  0  0  0  0  0  0  0  0  0  0  0
    8.9576   12.6673   24.1116 C   0  0  0  0  0  0  0  0  0  0  0  0
   10.0624   13.5491   24.1013 N   0  0  0  0  0  0  0  0  0  0  0  0
   10.3868   14.2722   25.2255 C   0  0  0  0  0  0  0  0  0  0  0  0
    9.6861   14.6408   26.1627 O   0  0  0  0  0  0  0  0  0  0  0  0
   11.8475   14.5950   25.1840 C   0  0  0  0  0  0  0  0  0  0  0  0
   12.1865   14.1735   23.8772 N   0  0  0  0  0  0  0  0  0  0  0  0
   11.1466   13.5225   23.2722 C   0  0  0  0  0  0  0  0  0  0  0  0
   11.2654   13.0797   22.1515 O   0  0  0  0  0  0  0  0  0  0  0  0
  1  2  1  0
  2  3  2  0
  3  4  1  0
  4  5  1  0
  5  6  2  0
  5  7  1  0
  7  8  1  0
  8  9  1  0
  3 10  1  0
 10 11  2  0
 11 12  1  0
 12 13  1  0
 12 14  2  0
 14 15  1  0
 15 16  1  0
 16 17  2  0
 16 18  1  0
 18 19  1  0
 19 20  1  0
 20 21  2  0
 14  2  1  0
 20 15  1  0
M  END
>  <alias>  (623) 
None

>  <rmsd(smina/fragmenstein)>  (623) 
1.832

>  <smiles>  (623) 
Cc1c(NC(=O)CCF)ccc(F)c1N1C(=O)CNC1=O

>  <gnina_score>  (623) 
5.091

>  <inspiration_score>  (623) 
None

>  <energy_score>  (623) 
-32.685025

>  <distance_score>  (623) 
1.4218

>  <gnina_score_min>  (623) 
5.361

>  <inchikey>  (623) 
VIRZZPPIANWSMT-UHFFFAOYSA-N

>  <exports>  (623) 
['/opt/xchem-fragalysis-2/maxwin/BulkDock/OUTPUTS/openbind_a71ev2a_c2_elabs_1LOUU54.sdf', '/opt/xchem-fragalysis-2/maxwin/BulkDock/OUTPUTS/openbind_a71ev2a_c2_elabs_1LSYIDY.sdf']

>  <name>  (623) 
P546047

>  <ref_pdb>  (623) 
A0884a

>  <subsites>  (623) 
None

>  <HIPPO Pose ID>  (623) 
546047

>  <ref_mols>  (623) 
A0884a

>  <HIPPO Compound ID>  (623) 
384640

>  <tags>  (623) 
openbind_a71ev2a_c2_elabs,syndirella_product,openbind_a71ev2a_c2_elabs_fragonly_scored_top80percent,openbind_a71ev2a_c2_elabs_scored,BulkDock Fragalysis export,openbind_a71ev2a_c2_elabs_scored_top80percent,openbind_a71ev2a_c2_elabs_activefrags_only_scored_5.2plus,syndirella_placed

>  <smina_score_min>  (623) 
-6.263

$$$$
P546050
     RDKit          3D

 21 22  0  0  0  0  0  0  0  0999 V2000
   12.1258   14.6362   19.6607 O   0  0  0  0  0  0  0  0  0  0  0  0
   11.5504   14.7925   20.7319 C   0  0  0  0  0  0  0  0  0  0  0  0
   10.1662   15.3425   20.8448 C   0  0  0  0  0  0  0  0  0  0  0  0
    9.3428   14.5055   21.7954 C   0  0  0  0  0  0  0  0  0  0  0  0
   10.0976   13.7454   22.7954 N   0  0  0  0  0  0  0  0  0  0  0  0
    9.3539   12.7906   23.5493 C   0  0  0  0  0  0  0  0  0  0  0  0
    9.6567   11.4303   23.4891 C   0  0  0  0  0  0  0  0  0  0  0  0
    8.8484   10.5156   24.1529 C   0  0  0  0  0  0  0  0  0  0  0  0
    9.1089    9.2088   24.0507 F   0  0  0  0  0  0  0  0  0  0  0  0
    7.7572   10.9255   24.9080 C   0  0  0  0  0  0  0  0  0  0  0  0
    7.4607   12.2804   24.9856 C   0  0  0  0  0  0  0  0  0  0  0  0
    6.3620   12.6891   25.7313 N   0  0  0  0  0  0  0  0  0  0  0  0
    5.8788   14.1192   26.1202 C   0  0  0  0  0  0  0  0  0  0  0  0
    6.2887   15.1674   25.8073 O   0  0  0  0  0  0  0  0  0  0  0  0
    4.6688   13.9145   27.0095 C   0  0  0  0  0  0  0  0  0  0  0  0
    4.0720   15.2379   27.4351 C   0  0  0  0  0  0  0  0  0  0  0  0
    3.0083   14.9745   28.2456 F   0  0  0  0  0  0  0  0  0  0  0  0
    8.2475   13.2071   24.2968 C   0  0  0  0  0  0  0  0  0  0  0  0
   11.4816   13.7622   22.8492 C   0  0  0  0  0  0  0  0  0  0  0  0
   12.1551   13.1371   23.6633 O   0  0  0  0  0  0  0  0  0  0  0  0
   12.1237   14.5450   21.9435 N   0  0  0  0  0  0  0  0  0  0  0  0
  1  2  2  0
  2  3  1  0
  3  4  1  0
  4  5  1  0
  5  6  1  0
  6  7  2  0
  7  8  1  0
  8  9  1  0
  8 10  2  0
 10 11  1  0
 11 12  1  0
 12 13  1  0
 13 14  2  0
 13 15  1  0
 15 16  1  0
 16 17  1  0
 11 18  2  0
  5 19  1  0
 19 20  2  0
 19 21  1  0
 21  2  1  0
 18  6  1  0
M  END
>  <alias>  (624) 
None

>  <rmsd(smina/fragmenstein)>  (624) 
0.345

>  <smiles>  (624) 
O=C1CCN(c2cc(F)cc(NC(=O)CCF)c2)C(=O)N1

>  <gnina_score>  (624) 
5.198

>  <inspiration_score>  (624) 
None

>  <energy_score>  (624) 
-22.592933

>  <distance_score>  (624) 
1.597368

>  <gnina_score_min>  (624) 
5.291

>  <inchikey>  (624) 
GGHQDQVIIBZOHX-UHFFFAOYSA-N

>  <exports>  (624) 
['/opt/xchem-fragalysis-2/maxwin/BulkDock/OUTPUTS/openbind_a71ev2a_c2_elabs_1LOUU54.sdf', '/opt/xchem-fragalysis-2/maxwin/BulkDock/OUTPUTS/openbind_a71ev2a_c2_elabs_1LSYIDY.sdf']

>  <name>  (624) 
P546050

>  <ref_pdb>  (624) 
A0884a

>  <subsites>  (624) 
None

>  <HIPPO Pose ID>  (624) 
546050

>  <ref_mols>  (624) 
A0884a

>  <HIPPO Compound ID>  (624) 
384642

>  <tags>  (624) 
openbind_a71ev2a_c2_elabs,syndirella_product,openbind_a71ev2a_c2_elabs_fragonly_scored_top80percent,openbind_a71ev2a_c2_elabs_scored,BulkDock Fragalysis export,openbind_a71ev2a_c2_elabs_scored_top80percent,openbind_a71ev2a_c2_elabs_activefrags_only_scored_5.2plus,syndirella_placed

>  <smina_score_min>  (624) 
-6.612

$$$$
P546052
     RDKit          3D

 21 22  0  0  0  0  0  0  0  0999 V2000
   13.4004   12.9526   24.7862 O   0  0  0  0  0  0  0  0  0  0  0  0
   12.3816   13.3947   24.2740 C   0  0  0  0  0  0  0  0  0  0  0  0
   11.4345   14.2794   25.0263 C   0  0  0  0  0  0  0  0  0  0  0  0
   10.1252   14.3484   24.2757 C   0  0  0  0  0  0  0  0  0  0  0  0
    9.7769   13.0618   23.7824 N   0  0  0  0  0  0  0  0  0  0  0  0
    8.6580   12.3617   24.2959 C   0  0  0  0  0  0  0  0  0  0  0  0
    7.5789   13.0846   24.8317 C   0  0  0  0  0  0  0  0  0  0  0  0
    6.5847   12.4628   25.5879 C   0  0  0  0  0  0  0  0  0  0  0  0
    5.6114   13.2667   26.1753 N   0  0  0  0  0  0  0  0  0  0  0  0
    4.3956   12.8892   27.0788 C   0  0  0  0  0  0  0  0  0  0  0  0
    4.0761   11.8568   27.5265 O   0  0  0  0  0  0  0  0  0  0  0  0
    3.6192   14.1856   27.2673 C   0  0  0  0  0  0  0  0  0  0  0  0
    2.5218   14.0296   28.2976 C   0  0  0  0  0  0  0  0  0  0  0  0
    3.0780   14.0476   29.5393 F   0  0  0  0  0  0  0  0  0  0  0  0
    6.6136   11.0865   25.7411 C   0  0  0  0  0  0  0  0  0  0  0  0
    7.6057   10.3479   25.1027 C   0  0  0  0  0  0  0  0  0  0  0  0
    8.6294   10.9710   24.4111 C   0  0  0  0  0  0  0  0  0  0  0  0
    9.6318   10.1859   24.0058 F   0  0  0  0  0  0  0  0  0  0  0  0
   10.7305   12.5069   22.9631 C   0  0  0  0  0  0  0  0  0  0  0  0
   10.5339   11.5271   22.2754 O   0  0  0  0  0  0  0  0  0  0  0  0
   11.9646   13.0813   23.0216 N   0  0  0  0  0  0  0  0  0  0  0  0
  1  2  2  0
  2  3  1  0
  3  4  1  0
  4  5  1  0
  5  6  1  0
  6  7  2  0
  7  8  1  0
  8  9  1  0
  9 10  1  0
 10 11  2  0
 10 12  1  0
 12 13  1  0
 13 14  1  0
  8 15  2  0
 15 16  1  0
 16 17  2  0
 17 18  1  0
  5 19  1  0
 19 20  2  0
 19 21  1  0
 21  2  1  0
 17  6  1  0
M  END
>  <alias>  (625) 
None

>  <rmsd(smina/fragmenstein)>  (625) 
2.211

>  <smiles>  (625) 
O=C1CCN(c2cc(NC(=O)CCF)ccc2F)C(=O)N1

>  <gnina_score>  (625) 
5.126

>  <inspiration_score>  (625) 
None

>  <energy_score>  (625) 
-35.849264

>  <distance_score>  (625) 
1.97614

>  <gnina_score_min>  (625) 
5.226

>  <inchikey>  (625) 
MRDSPPQAECCLEK-UHFFFAOYSA-N

>  <exports>  (625) 
['/opt/xchem-fragalysis-2/maxwin/BulkDock/OUTPUTS/openbind_a71ev2a_c2_elabs_1LOUU54.sdf', '/opt/xchem-fragalysis-2/maxwin/BulkDock/OUTPUTS/openbind_a71ev2a_c2_elabs_1LSYIDY.sdf']

>  <name>  (625) 
P546052

>  <ref_pdb>  (625) 
A0884a

>  <subsites>  (625) 
None

>  <HIPPO Pose ID>  (625) 
546052

>  <ref_mols>  (625) 
A0884a

>  <HIPPO Compound ID>  (625) 
384644

>  <tags>  (625) 
openbind_a71ev2a_c2_elabs,syndirella_product,openbind_a71ev2a_c2_elabs_fragonly_scored_top80percent,openbind_a71ev2a_c2_elabs_scored,BulkDock Fragalysis export,openbind_a71ev2a_c2_elabs_scored_top80percent,openbind_a71ev2a_c2_elabs_activefrags_only_scored_5.2plus,syndirella_placed

>  <smina_score_min>  (625) 
-6.177

$$$$
P546054
     RDKit          3D

 21 22  0  0  0  0  0  0  0  0999 V2000
    9.1216    9.5587   23.8867 C   0  0  0  0  0  0  0  0  0  0  0  0
    8.8403   10.9983   24.1066 C   0  0  0  0  0  0  0  0  0  0  0  0
    7.7341   11.4429   24.8410 C   0  0  0  0  0  0  0  0  0  0  0  0
    7.4357   12.8041   24.8882 C   0  0  0  0  0  0  0  0  0  0  0  0
    6.3205   13.2921   25.5592 N   0  0  0  0  0  0  0  0  0  0  0  0
    5.3665   12.5959   26.5732 C   0  0  0  0  0  0  0  0  0  0  0  0
    5.3285   11.4848   26.9385 O   0  0  0  0  0  0  0  0  0  0  0  0
    4.4046   13.6527   27.0964 C   0  0  0  0  0  0  0  0  0  0  0  0
    3.7039   14.3953   25.9808 C   0  0  0  0  0  0  0  0  0  0  0  0
    4.5814   15.3039   25.4680 F   0  0  0  0  0  0  0  0  0  0  0  0
    8.2418   13.7165   24.2090 C   0  0  0  0  0  0  0  0  0  0  0  0
    9.3780   13.2723   23.5391 C   0  0  0  0  0  0  0  0  0  0  0  0
   10.1962   14.1848   22.8328 N   0  0  0  0  0  0  0  0  0  0  0  0
    9.6579   14.5873   21.5310 C   0  0  0  0  0  0  0  0  0  0  0  0
   10.6171   15.3665   20.6769 C   0  0  0  0  0  0  0  0  0  0  0  0
   11.9816   14.7750   20.8460 C   0  0  0  0  0  0  0  0  0  0  0  0
   12.6923   14.4006   19.9194 O   0  0  0  0  0  0  0  0  0  0  0  0
   12.3758   14.7071   22.1510 N   0  0  0  0  0  0  0  0  0  0  0  0
   11.5577   14.1750   23.1023 C   0  0  0  0  0  0  0  0  0  0  0  0
   12.0456   13.7114   24.1347 O   0  0  0  0  0  0  0  0  0  0  0  0
    9.6720   11.9165   23.4808 C   0  0  0  0  0  0  0  0  0  0  0  0
  1  2  1  0
  2  3  2  0
  3  4  1  0
  4  5  1  0
  5  6  1  0
  6  7  2  0
  6  8  1  0
  8  9  1  0
  9 10  1  0
  4 11  2  0
 11 12  1  0
 12 13  1  0
 13 14  1  0
 14 15  1  0
 15 16  1  0
 16 17  2  0
 16 18  1  0
 18 19  1  0
 19 20  2  0
 12 21  2  0
 21  2  1  0
 19 13  1  0
M  END
>  <alias>  (626) 
None

>  <rmsd(smina/fragmenstein)>  (626) 
0.714

>  <smiles>  (626) 
Cc1cc(NC(=O)CCF)cc(N2CCC(=O)NC2=O)c1

>  <gnina_score>  (626) 
5.436

>  <inspiration_score>  (626) 
None

>  <energy_score>  (626) 
-26.059198

>  <distance_score>  (626) 
1.340713

>  <gnina_score_min>  (626) 
5.4

>  <inchikey>  (626) 
YEGQAWBYEFEBFG-UHFFFAOYSA-N

>  <exports>  (626) 
['/opt/xchem-fragalysis-2/maxwin/BulkDock/OUTPUTS/openbind_a71ev2a_c2_elabs_1LOUU54.sdf', '/opt/xchem-fragalysis-2/maxwin/BulkDock/OUTPUTS/openbind_a71ev2a_c2_elabs_1LSYIDY.sdf']

>  <name>  (626) 
P546054

>  <ref_pdb>  (626) 
A0884a

>  <subsites>  (626) 
None

>  <HIPPO Pose ID>  (626) 
546054

>  <ref_mols>  (626) 
A0884a

>  <HIPPO Compound ID>  (626) 
384647

>  <tags>  (626) 
openbind_a71ev2a_c2_elabs,syndirella_product,openbind_a71ev2a_c2_elabs_fragonly_scored_top80percent,openbind_a71ev2a_c2_elabs_scored,BulkDock Fragalysis export,openbind_a71ev2a_c2_elabs_scored_top80percent,openbind_a71ev2a_c2_elabs_activefrags_only_scored_5.2plus,syndirella_placed

>  <smina_score_min>  (626) 
-6.637

$$$$
P546055
     RDKit          3D

 21 22  0  0  0  0  0  0  0  0999 V2000
    9.9557   10.3622   23.0662 C   0  0  0  0  0  0  0  0  0  0  0  0
    9.0565   11.2938   23.8127 C   0  0  0  0  0  0  0  0  0  0  0  0
    8.1277   10.6949   24.6778 C   0  0  0  0  0  0  0  0  0  0  0  0
    7.1725   11.4552   25.3450 C   0  0  0  0  0  0  0  0  0  0  0  0
    7.1290   12.8299   25.1502 C   0  0  0  0  0  0  0  0  0  0  0  0
    6.1507   13.6231   25.7459 N   0  0  0  0  0  0  0  0  0  0  0  0
    5.0576   13.2625   26.8003 C   0  0  0  0  0  0  0  0  0  0  0  0
    4.7665   12.2296   27.2676 O   0  0  0  0  0  0  0  0  0  0  0  0
    4.3643   14.5704   27.1340 C   0  0  0  0  0  0  0  0  0  0  0  0
    3.2597   14.3479   28.1435 C   0  0  0  0  0  0  0  0  0  0  0  0
    2.6805   15.5464   28.4248 F   0  0  0  0  0  0  0  0  0  0  0  0
    8.0669   13.4423   24.3135 C   0  0  0  0  0  0  0  0  0  0  0  0
    9.0513   12.6925   23.6509 C   0  0  0  0  0  0  0  0  0  0  0  0
    9.9978   13.3662   22.8093 N   0  0  0  0  0  0  0  0  0  0  0  0
    9.4836   14.3486   21.8590 C   0  0  0  0  0  0  0  0  0  0  0  0
   10.4763   14.8135   20.8142 C   0  0  0  0  0  0  0  0  0  0  0  0
   11.8886   14.5091   21.1919 C   0  0  0  0  0  0  0  0  0  0  0  0
   12.7886   14.4406   20.3586 O   0  0  0  0  0  0  0  0  0  0  0  0
   12.1139   14.3316   22.5234 N   0  0  0  0  0  0  0  0  0  0  0  0
   11.2837   13.5778   23.3108 C   0  0  0  0  0  0  0  0  0  0  0  0
   11.7054   13.1385   24.3793 O   0  0  0  0  0  0  0  0  0  0  0  0
  1  2  1  0
  2  3  2  0
  3  4  1  0
  4  5  2  0
  5  6  1  0
  6  7  1  0
  7  8  2  0
  7  9  1  0
  9 10  1  0
 10 11  1  0
  5 12  1  0
 12 13  2  0
 13 14  1  0
 14 15  1  0
 15 16  1  0
 16 17  1  0
 17 18  2  0
 17 19  1  0
 19 20  1  0
 20 21  2  0
 13  2  1  0
 20 14  1  0
M  END
>  <alias>  (627) 
None

>  <rmsd(smina/fragmenstein)>  (627) 
1.043

>  <smiles>  (627) 
Cc1ccc(NC(=O)CCF)cc1N1CCC(=O)NC1=O

>  <gnina_score>  (627) 
5.296

>  <inspiration_score>  (627) 
None

>  <energy_score>  (627) 
-34.531147

>  <distance_score>  (627) 
1.432825

>  <gnina_score_min>  (627) 
5.351

>  <inchikey>  (627) 
DZNBAQBVPJDYOB-UHFFFAOYSA-N

>  <exports>  (627) 
['/opt/xchem-fragalysis-2/maxwin/BulkDock/OUTPUTS/openbind_a71ev2a_c2_elabs_1LOUU54.sdf', '/opt/xchem-fragalysis-2/maxwin/BulkDock/OUTPUTS/openbind_a71ev2a_c2_elabs_1LSYIDY.sdf']

>  <name>  (627) 
P546055

>  <ref_pdb>  (627) 
A0884a

>  <subsites>  (627) 
None

>  <HIPPO Pose ID>  (627) 
546055

>  <ref_mols>  (627) 
A0884a

>  <HIPPO Compound ID>  (627) 
384650

>  <tags>  (627) 
openbind_a71ev2a_c2_elabs,syndirella_product,openbind_a71ev2a_c2_elabs_fragonly_scored_top80percent,openbind_a71ev2a_c2_elabs_scored,BulkDock Fragalysis export,openbind_a71ev2a_c2_elabs_scored_top80percent,openbind_a71ev2a_c2_elabs_activefrags_only_scored_5.2plus,syndirella_placed

>  <smina_score_min>  (627) 
-6.611

$$$$
P546056
     RDKit          3D

 21 22  0  0  0  0  0  0  0  0999 V2000
   13.0054   15.5183   21.5064 O   0  0  0  0  0  0  0  0  0  0  0  0
   12.2074   14.8514   22.1490 C   0  0  0  0  0  0  0  0  0  0  0  0
   12.5925   13.6981   23.0061 C   0  0  0  0  0  0  0  0  0  0  0  0
   11.4675   13.3316   23.9331 C   0  0  0  0  0  0  0  0  0  0  0  0
   10.2496   13.1206   23.1809 N   0  0  0  0  0  0  0  0  0  0  0  0
    9.1744   12.4913   23.8801 C   0  0  0  0  0  0  0  0  0  0  0  0
    8.2305   13.3042   24.5276 C   0  0  0  0  0  0  0  0  0  0  0  0
    7.2090   12.7470   25.3006 C   0  0  0  0  0  0  0  0  0  0  0  0
    6.3088   13.6088   25.9158 N   0  0  0  0  0  0  0  0  0  0  0  0
    5.1077   13.3095   26.8637 C   0  0  0  0  0  0  0  0  0  0  0  0
    4.6486   12.2889   27.2069 O   0  0  0  0  0  0  0  0  0  0  0  0
    4.5398   14.6549   27.2849 C   0  0  0  0  0  0  0  0  0  0  0  0
    5.5031   15.3713   28.2046 C   0  0  0  0  0  0  0  0  0  0  0  0
    6.5859   15.7818   27.4848 F   0  0  0  0  0  0  0  0  0  0  0  0
    7.1198   11.3666   25.4328 C   0  0  0  0  0  0  0  0  0  0  0  0
    8.0281   10.5489   24.7639 C   0  0  0  0  0  0  0  0  0  0  0  0
    9.0427   11.1014   23.9824 C   0  0  0  0  0  0  0  0  0  0  0  0
   10.0238    9.9957   23.1225 Cl  0  0  0  0  0  0  0  0  0  0  0  0
    9.9443   14.1018   22.2516 C   0  0  0  0  0  0  0  0  0  0  0  0
    8.8969   14.1549   21.6233 O   0  0  0  0  0  0  0  0  0  0  0  0
   10.8748   15.0696   22.0522 N   0  0  0  0  0  0  0  0  0  0  0  0
  1  2  2  0
  2  3  1  0
  3  4  1  0
  4  5  1  0
  5  6  1  0
  6  7  2  0
  7  8  1  0
  8  9  1  0
  9 10  1  0
 10 11  2  0
 10 12  1  0
 12 13  1  0
 13 14  1  0
  8 15  2  0
 15 16  1  0
 16 17  2  0
 17 18  1  0
  5 19  1  0
 19 20  2  0
 19 21  1  0
 21  2  1  0
 17  6  1  0
M  END
>  <alias>  (628) 
None

>  <rmsd(smina/fragmenstein)>  (628) 
1.139

>  <smiles>  (628) 
O=C1CCN(c2cc(NC(=O)CCF)ccc2Cl)C(=O)N1

>  <gnina_score>  (628) 
5.592

>  <inspiration_score>  (628) 
None

>  <energy_score>  (628) 
-29.120585

>  <distance_score>  (628) 
1.880023

>  <gnina_score_min>  (628) 
5.472

>  <inchikey>  (628) 
VGXALHGTTYUQJS-UHFFFAOYSA-N

>  <exports>  (628) 
['/opt/xchem-fragalysis-2/maxwin/BulkDock/OUTPUTS/openbind_a71ev2a_c2_elabs_1LOUU54.sdf', '/opt/xchem-fragalysis-2/maxwin/BulkDock/OUTPUTS/openbind_a71ev2a_c2_elabs_1LSYIDY.sdf']

>  <name>  (628) 
P546056

>  <ref_pdb>  (628) 
A0884a

>  <subsites>  (628) 
None

>  <HIPPO Pose ID>  (628) 
546056

>  <ref_mols>  (628) 
A0884a

>  <HIPPO Compound ID>  (628) 
384652

>  <tags>  (628) 
openbind_a71ev2a_c2_elabs,syndirella_product,openbind_a71ev2a_c2_elabs_fragonly_scored_top80percent,openbind_a71ev2a_c2_elabs_scored,BulkDock Fragalysis export,openbind_a71ev2a_c2_elabs_scored_top80percent,openbind_a71ev2a_c2_elabs_activefrags_only_scored_5.2plus,syndirella_placed

>  <smina_score_min>  (628) 
-6.667

$$$$
P546082
     RDKit          3D

 21 22  0  0  0  0  0  0  0  0999 V2000
    3.9507   13.9196   26.6045 C   0  0  0  0  0  0  0  0  0  0  0  0
    4.5770   13.0791   27.4441 C   0  0  0  0  0  0  0  0  0  0  0  0
    4.3807   13.0677   28.9256 C   0  0  0  0  0  0  0  0  0  0  0  0
    5.4824   12.0141   26.9023 C   0  0  0  0  0  0  0  0  0  0  0  0
    5.3233   10.8853   27.1513 O   0  0  0  0  0  0  0  0  0  0  0  0
    6.5726   12.7100   26.0509 N   0  0  0  0  0  0  0  0  0  0  0  0
    7.6033   12.1687   25.2773 C   0  0  0  0  0  0  0  0  0  0  0  0
    7.6629   10.7953   25.0581 C   0  0  0  0  0  0  0  0  0  0  0  0
    8.6292   10.2702   24.2074 C   0  0  0  0  0  0  0  0  0  0  0  0
    9.5550   11.1044   23.6046 C   0  0  0  0  0  0  0  0  0  0  0  0
   10.4053   10.5675   22.7300 F   0  0  0  0  0  0  0  0  0  0  0  0
    9.5826   12.4697   23.8702 C   0  0  0  0  0  0  0  0  0  0  0  0
   10.6136   13.2531   23.3100 N   0  0  0  0  0  0  0  0  0  0  0  0
   10.4879   14.0275   22.1943 C   0  0  0  0  0  0  0  0  0  0  0  0
    9.4776   14.2101   21.5363 O   0  0  0  0  0  0  0  0  0  0  0  0
   11.8211   14.6606   21.8727 C   0  0  0  0  0  0  0  0  0  0  0  0
   12.5982   14.2108   22.9761 N   0  0  0  0  0  0  0  0  0  0  0  0
   11.8899   13.3562   23.7847 C   0  0  0  0  0  0  0  0  0  0  0  0
   12.3781   12.8636   24.7859 O   0  0  0  0  0  0  0  0  0  0  0  0
    8.5840   13.0160   24.7106 C   0  0  0  0  0  0  0  0  0  0  0  0
    8.6001   14.4794   25.0306 C   0  0  0  0  0  0  0  0  0  0  0  0
  1  2  2  0
  2  3  1  0
  2  4  1  0
  4  5  2  0
  4  6  1  0
  6  7  1  0
  7  8  2  0
  8  9  1  0
  9 10  2  0
 10 11  1  0
 10 12  1  0
 12 13  1  0
 13 14  1  0
 14 15  2  0
 14 16  1  0
 16 17  1  0
 17 18  1  0
 18 19  2  0
 12 20  2  0
 20 21  1  0
 20  7  1  0
 18 13  1  0
M  END
>  <alias>  (629) 
None

>  <rmsd(smina/fragmenstein)>  (629) 
0.422

>  <smiles>  (629) 
C=C(C)C(=O)Nc1ccc(F)c(N2C(=O)CNC2=O)c1C

>  <gnina_score>  (629) 
5.314

>  <inspiration_score>  (629) 
None

>  <energy_score>  (629) 
-32.703344

>  <distance_score>  (629) 
1.525325

>  <gnina_score_min>  (629) 
5.317

>  <inchikey>  (629) 
YEULHPFKBMYBEL-UHFFFAOYSA-N

>  <exports>  (629) 
['/opt/xchem-fragalysis-2/maxwin/BulkDock/OUTPUTS/openbind_a71ev2a_c2_elabs_1LOUU54.sdf', '/opt/xchem-fragalysis-2/maxwin/BulkDock/OUTPUTS/openbind_a71ev2a_c2_elabs_1LSYIDY.sdf']

>  <name>  (629) 
P546082

>  <ref_pdb>  (629) 
A0884a

>  <subsites>  (629) 
None

>  <HIPPO Pose ID>  (629) 
546082

>  <ref_mols>  (629) 
A0884a

>  <HIPPO Compound ID>  (629) 
384684

>  <tags>  (629) 
openbind_a71ev2a_c2_elabs,syndirella_product,openbind_a71ev2a_c2_elabs_fragonly_scored_top80percent,openbind_a71ev2a_c2_elabs_scored,BulkDock Fragalysis export,openbind_a71ev2a_c2_elabs_scored_top80percent,openbind_a71ev2a_c2_elabs_activefrags_only_scored_5.2plus,syndirella_placed

>  <smina_score_min>  (629) 
-6.599

$$$$
P546083
     RDKit          3D

 21 22  0  0  0  0  0  0  0  0999 V2000
    4.6424   15.9763   25.8042 C   0  0  0  0  0  0  0  0  0  0  0  0
    4.1532   14.7464   25.5854 C   0  0  0  0  0  0  0  0  0  0  0  0
    2.7216   14.4514   25.2734 C   0  0  0  0  0  0  0  0  0  0  0  0
    5.0462   13.5498   25.6965 C   0  0  0  0  0  0  0  0  0  0  0  0
    4.8180   12.6754   26.4367 O   0  0  0  0  0  0  0  0  0  0  0  0
    6.1988   13.7257   24.6732 N   0  0  0  0  0  0  0  0  0  0  0  0
    7.2146   12.8523   24.2979 C   0  0  0  0  0  0  0  0  0  0  0  0
    7.2376   11.5314   24.7490 C   0  0  0  0  0  0  0  0  0  0  0  0
    8.2249   10.6668   24.2950 C   0  0  0  0  0  0  0  0  0  0  0  0
    8.2101    9.3888   24.6847 F   0  0  0  0  0  0  0  0  0  0  0  0
    9.2576   11.1230   23.4954 C   0  0  0  0  0  0  0  0  0  0  0  0
    9.3396   12.4975   23.2107 C   0  0  0  0  0  0  0  0  0  0  0  0
   10.6348   13.0682   23.3588 N   0  0  0  0  0  0  0  0  0  0  0  0
   11.0994   12.9183   24.7139 C   0  0  0  0  0  0  0  0  0  0  0  0
   10.8833   14.1537   25.5048 C   0  0  0  0  0  0  0  0  0  0  0  0
   11.7580   15.1224   24.8786 C   0  0  0  0  0  0  0  0  0  0  0  0
   12.0706   16.0876   25.5855 O   0  0  0  0  0  0  0  0  0  0  0  0
   11.9375   14.9808   23.5138 N   0  0  0  0  0  0  0  0  0  0  0  0
   11.0913   14.2170   22.7260 C   0  0  0  0  0  0  0  0  0  0  0  0
   10.7580   14.6077   21.6181 O   0  0  0  0  0  0  0  0  0  0  0  0
    8.2465   13.3307   23.4864 C   0  0  0  0  0  0  0  0  0  0  0  0
  1  2  2  0
  2  3  1  0
  2  4  1  0
  4  5  2  0
  4  6  1  0
  6  7  1  0
  7  8  2  0
  8  9  1  0
  9 10  1  0
  9 11  2  0
 11 12  1  0
 12 13  1  0
 13 14  1  0
 14 15  1  0
 15 16  1  0
 16 17  2  0
 16 18  1  0
 18 19  1  0
 19 20  2  0
 12 21  2  0
 21  7  1  0
 19 13  1  0
M  END
>  <alias>  (630) 
None

>  <rmsd(smina/fragmenstein)>  (630) 
0.92

>  <smiles>  (630) 
C=C(C)C(=O)Nc1cc(F)cc(N2CCC(=O)NC2=O)c1

>  <gnina_score>  (630) 
5.512

>  <inspiration_score>  (630) 
None

>  <energy_score>  (630) 
-0.377405

>  <distance_score>  (630) 
1.691242

>  <gnina_score_min>  (630) 
5.594

>  <inchikey>  (630) 
NULOWXANUYQGSR-UHFFFAOYSA-N

>  <exports>  (630) 
['/opt/xchem-fragalysis-2/maxwin/BulkDock/OUTPUTS/openbind_a71ev2a_c2_elabs_1LOUU54.sdf', '/opt/xchem-fragalysis-2/maxwin/BulkDock/OUTPUTS/openbind_a71ev2a_c2_elabs_1LSYIDY.sdf']

>  <name>  (630) 
P546083

>  <ref_pdb>  (630) 
A0884a

>  <subsites>  (630) 
None

>  <HIPPO Pose ID>  (630) 
546083

>  <ref_mols>  (630) 
A0884a

>  <HIPPO Compound ID>  (630) 
384686

>  <tags>  (630) 
openbind_a71ev2a_c2_elabs,syndirella_product,openbind_a71ev2a_c2_elabs_fragonly_scored_top80percent,BulkDock Fragalysis export,openbind_a71ev2a_c2_elabs_scored,openbind_a71ev2a_c2_elabs_scored_top80percent,openbind_a71ev2a_c2_elabs_activefrags_only_scored_5.2plus,openbind_a71ev2a_c2_elabs_activefrags_only_scored_5.5plus,syndirella_placed

>  <smina_score_min>  (630) 
-4.317

$$$$
P546084
     RDKit          3D

 21 22  0  0  0  0  0  0  0  0999 V2000
    3.9192   13.4479   27.2970 C   0  0  0  0  0  0  0  0  0  0  0  0
    4.7653   12.5884   27.8881 C   0  0  0  0  0  0  0  0  0  0  0  0
    4.8565   12.3920   29.3682 C   0  0  0  0  0  0  0  0  0  0  0  0
    5.6462   11.6894   27.0694 C   0  0  0  0  0  0  0  0  0  0  0  0
    5.6653   10.5351   27.2381 O   0  0  0  0  0  0  0  0  0  0  0  0
    6.4288   12.5694   26.0651 N   0  0  0  0  0  0  0  0  0  0  0  0
    7.4362   12.2320   25.1530 C   0  0  0  0  0  0  0  0  0  0  0  0
    7.8037   10.8951   24.9791 C   0  0  0  0  0  0  0  0  0  0  0  0
    8.8525   10.5536   24.1297 C   0  0  0  0  0  0  0  0  0  0  0  0
    9.5723   11.5544   23.4878 C   0  0  0  0  0  0  0  0  0  0  0  0
    9.2208   12.9039   23.6437 C   0  0  0  0  0  0  0  0  0  0  0  0
   10.0354   13.9010   23.0089 N   0  0  0  0  0  0  0  0  0  0  0  0
    9.5889   14.3239   21.6786 C   0  0  0  0  0  0  0  0  0  0  0  0
   10.5273   15.2521   20.9543 C   0  0  0  0  0  0  0  0  0  0  0  0
   11.9093   14.7188   21.1404 C   0  0  0  0  0  0  0  0  0  0  0  0
   12.6774   14.4703   20.2176 O   0  0  0  0  0  0  0  0  0  0  0  0
   12.2380   14.5211   22.4508 N   0  0  0  0  0  0  0  0  0  0  0  0
   11.3872   13.9373   23.3479 C   0  0  0  0  0  0  0  0  0  0  0  0
   11.8438   13.4711   24.3932 O   0  0  0  0  0  0  0  0  0  0  0  0
    8.1010   13.2521   24.4307 C   0  0  0  0  0  0  0  0  0  0  0  0
    7.6834   14.6906   24.5864 C   0  0  0  0  0  0  0  0  0  0  0  0
  1  2  2  0
  2  3  1  0
  2  4  1  0
  4  5  2  0
  4  6  1  0
  6  7  1  0
  7  8  2  0
  8  9  1  0
  9 10  2  0
 10 11  1  0
 11 12  1  0
 12 13  1  0
 13 14  1  0
 14 15  1  0
 15 16  2  0
 15 17  1  0
 17 18  1  0
 18 19  2  0
 11 20  2  0
 20 21  1  0
 20  7  1  0
 18 12  1  0
M  END
>  <alias>  (631) 
None

>  <rmsd(smina/fragmenstein)>  (631) 
0.238

>  <smiles>  (631) 
C=C(C)C(=O)Nc1cccc(N2CCC(=O)NC2=O)c1C

>  <gnina_score>  (631) 
5.249

>  <inspiration_score>  (631) 
None

>  <energy_score>  (631) 
-19.310063

>  <distance_score>  (631) 
1.167586

>  <gnina_score_min>  (631) 
5.251

>  <inchikey>  (631) 
ZAGWFYZGUMVLEN-UHFFFAOYSA-N

>  <exports>  (631) 
['/opt/xchem-fragalysis-2/maxwin/BulkDock/OUTPUTS/openbind_a71ev2a_c2_elabs_1LOUU54.sdf', '/opt/xchem-fragalysis-2/maxwin/BulkDock/OUTPUTS/openbind_a71ev2a_c2_elabs_1LSYIDY.sdf']

>  <name>  (631) 
P546084

>  <ref_pdb>  (631) 
A0884a

>  <subsites>  (631) 
None

>  <HIPPO Pose ID>  (631) 
546084

>  <ref_mols>  (631) 
A0884a

>  <HIPPO Compound ID>  (631) 
384690

>  <tags>  (631) 
openbind_a71ev2a_c2_elabs,syndirella_product,openbind_a71ev2a_c2_elabs_fragonly_scored_top80percent,openbind_a71ev2a_c2_elabs_scored,BulkDock Fragalysis export,openbind_a71ev2a_c2_elabs_scored_top80percent,openbind_a71ev2a_c2_elabs_activefrags_only_scored_5.2plus,syndirella_placed

>  <smina_score_min>  (631) 
-7.18

$$$$
P546085
     RDKit          3D

 21 22  0  0  0  0  0  0  0  0999 V2000
    4.8058   15.5860   28.2110 C   0  0  0  0  0  0  0  0  0  0  0  0
    4.7989   15.0149   26.9959 C   0  0  0  0  0  0  0  0  0  0  0  0
    3.9486   15.4992   25.8637 C   0  0  0  0  0  0  0  0  0  0  0  0
    5.6031   13.7563   26.8310 C   0  0  0  0  0  0  0  0  0  0  0  0
    5.5770   12.8981   27.6239 O   0  0  0  0  0  0  0  0  0  0  0  0
    6.3748   13.8624   25.4882 N   0  0  0  0  0  0  0  0  0  0  0  0
    7.3187   13.0001   24.9087 C   0  0  0  0  0  0  0  0  0  0  0  0
    8.1866   13.6186   23.9980 C   0  0  0  0  0  0  0  0  0  0  0  0
    9.2594   12.9329   23.4236 C   0  0  0  0  0  0  0  0  0  0  0  0
   10.1832   13.6135   22.5874 N   0  0  0  0  0  0  0  0  0  0  0  0
    9.6661   14.5406   21.5892 C   0  0  0  0  0  0  0  0  0  0  0  0
   10.6546   14.8977   20.5024 C   0  0  0  0  0  0  0  0  0  0  0  0
   12.0488   14.5148   20.8777 C   0  0  0  0  0  0  0  0  0  0  0  0
   12.8960   14.2394   20.0341 O   0  0  0  0  0  0  0  0  0  0  0  0
   12.3040   14.5099   22.2151 N   0  0  0  0  0  0  0  0  0  0  0  0
   11.4892   13.7860   23.0429 C   0  0  0  0  0  0  0  0  0  0  0  0
   11.9330   13.3380   24.0992 O   0  0  0  0  0  0  0  0  0  0  0  0
    9.4228   11.5780   23.6901 C   0  0  0  0  0  0  0  0  0  0  0  0
    8.5082   10.9252   24.5159 C   0  0  0  0  0  0  0  0  0  0  0  0
    7.4543   11.6250   25.1430 C   0  0  0  0  0  0  0  0  0  0  0  0
    6.5096   10.8364   25.9945 C   0  0  0  0  0  0  0  0  0  0  0  0
  1  2  2  0
  2  3  1  0
  2  4  1  0
  4  5  2  0
  4  6  1  0
  6  7  1  0
  7  8  2  0
  8  9  1  0
  9 10  1  0
 10 11  1  0
 11 12  1  0
 12 13  1  0
 13 14  2  0
 13 15  1  0
 15 16  1  0
 16 17  2  0
  9 18  2  0
 18 19  1  0
 19 20  2  0
 20 21  1  0
 20  7  1  0
 16 10  1  0
M  END
>  <alias>  (632) 
None

>  <rmsd(smina/fragmenstein)>  (632) 
0.905

>  <smiles>  (632) 
C=C(C)C(=O)Nc1cc(N2CCC(=O)NC2=O)ccc1C

>  <gnina_score>  (632) 
5.262

>  <inspiration_score>  (632) 
None

>  <energy_score>  (632) 
-24.853297

>  <distance_score>  (632) 
1.519908

>  <gnina_score_min>  (632) 
5.209

>  <inchikey>  (632) 
ILBQVDQRVAMFFH-UHFFFAOYSA-N

>  <exports>  (632) 
['/opt/xchem-fragalysis-2/maxwin/BulkDock/OUTPUTS/openbind_a71ev2a_c2_elabs_1LOUU54.sdf', '/opt/xchem-fragalysis-2/maxwin/BulkDock/OUTPUTS/openbind_a71ev2a_c2_elabs_1LSYIDY.sdf']

>  <name>  (632) 
P546085

>  <ref_pdb>  (632) 
A0884a

>  <subsites>  (632) 
None

>  <HIPPO Pose ID>  (632) 
546085

>  <ref_mols>  (632) 
A0884a

>  <HIPPO Compound ID>  (632) 
384691

>  <tags>  (632) 
openbind_a71ev2a_c2_elabs,syndirella_product,openbind_a71ev2a_c2_elabs_fragonly_scored_top80percent,openbind_a71ev2a_c2_elabs_scored,BulkDock Fragalysis export,openbind_a71ev2a_c2_elabs_scored_top80percent,openbind_a71ev2a_c2_elabs_activefrags_only_scored_5.2plus,syndirella_placed

>  <smina_score_min>  (632) 
-6.901

$$$$
P546093
     RDKit          3D

 21 22  0  0  0  0  0  0  0  0999 V2000
    5.9927   15.0159   28.8015 C   0  0  0  0  0  0  0  0  0  0  0  0
    5.3123   15.0988   27.5541 O   0  0  0  0  0  0  0  0  0  0  0  0
    4.4847   13.9587   27.3075 C   0  0  1  0  0  0  0  0  0  0  0  0
    3.4730   14.3549   26.2398 C   0  0  0  0  0  0  0  0  0  0  0  0
    5.2932   12.7303   26.8198 C   0  0  0  0  0  0  0  0  0  0  0  0
    5.0300   11.6254   27.1046 O   0  0  0  0  0  0  0  0  0  0  0  0
    6.4347   13.2977   25.9201 N   0  0  0  0  0  0  0  0  0  0  0  0
    7.3853   12.6400   25.1448 C   0  0  0  0  0  0  0  0  0  0  0  0
    7.5102   11.2489   25.1421 C   0  0  0  0  0  0  0  0  0  0  0  0
    8.5131   10.6438   24.3830 C   0  0  0  0  0  0  0  0  0  0  0  0
    9.3980   11.4321   23.6561 C   0  0  0  0  0  0  0  0  0  0  0  0
   10.3291   10.8257   22.9148 F   0  0  0  0  0  0  0  0  0  0  0  0
    9.2827   12.8241   23.6475 C   0  0  0  0  0  0  0  0  0  0  0  0
   10.2135   13.6331   22.9437 N   0  0  0  0  0  0  0  0  0  0  0  0
    9.7281   14.3614   21.7730 C   0  0  0  0  0  0  0  0  0  0  0  0
   10.7635   15.2079   21.0544 C   0  0  0  0  0  0  0  0  0  0  0  0
   12.1484   14.6533   21.2636 C   0  0  0  0  0  0  0  0  0  0  0  0
   12.3837   14.4282   22.6592 N   0  0  0  0  0  0  0  0  0  0  0  0
   11.4936   13.7620   23.4471 C   0  0  0  0  0  0  0  0  0  0  0  0
   11.8489   13.3680   24.5560 O   0  0  0  0  0  0  0  0  0  0  0  0
    8.2565   13.4236   24.3795 C   0  0  0  0  0  0  0  0  0  0  0  0
  1  2  1  0
  2  3  1  0
  3  4  1  6
  3  5  1  0
  5  6  2  0
  5  7  1  0
  7  8  1  0
  8  9  2  0
  9 10  1  0
 10 11  2  0
 11 12  1  0
 11 13  1  0
 13 14  1  0
 14 15  1  0
 15 16  1  0
 16 17  1  0
 17 18  1  0
 18 19  1  0
 19 20  2  0
 13 21  2  0
 21  8  1  0
 19 14  1  0
M  END
>  <alias>  (633) 
None

>  <rmsd(smina/fragmenstein)>  (633) 
0.319

>  <smiles>  (633) 
CO[C@@H](C)C(=O)Nc1ccc(F)c(N2CCCNC2=O)c1

>  <gnina_score>  (633) 
5.168

>  <inspiration_score>  (633) 
None

>  <energy_score>  (633) 
-40.999689

>  <distance_score>  (633) 
1.227608

>  <gnina_score_min>  (633) 
5.26

>  <inchikey>  (633) 
HDMUOHKYDOBSKJ-VIFPVBQESA-N

>  <exports>  (633) 
['/opt/xchem-fragalysis-2/maxwin/BulkDock/OUTPUTS/openbind_a71ev2a_c2_elabs_1LOUU54.sdf', '/opt/xchem-fragalysis-2/maxwin/BulkDock/OUTPUTS/openbind_a71ev2a_c2_elabs_1LSYIDY.sdf']

>  <name>  (633) 
P546093

>  <ref_pdb>  (633) 
A0884a

>  <subsites>  (633) 
None

>  <HIPPO Pose ID>  (633) 
546093

>  <ref_mols>  (633) 
A0884a

>  <HIPPO Compound ID>  (633) 
384700

>  <tags>  (633) 
openbind_a71ev2a_c2_elabs,syndirella_product,openbind_a71ev2a_c2_elabs_fragonly_scored_top80percent,openbind_a71ev2a_c2_elabs_scored,BulkDock Fragalysis export,openbind_a71ev2a_c2_elabs_scored_top80percent,openbind_a71ev2a_c2_elabs_activefrags_only_scored_5.2plus,syndirella_placed

>  <smina_score_min>  (633) 
-6.446

$$$$
P546095
     RDKit          3D

 21 22  0  0  0  0  0  0  0  0999 V2000
    5.0380   15.1528   29.2404 C   0  0  0  0  0  0  0  0  0  0  0  0
    5.4274   14.3023   28.1691 O   0  0  0  0  0  0  0  0  0  0  0  0
    4.5864   13.1479   28.0309 C   0  0  1  0  0  0  0  0  0  0  0  0
    3.3605   13.4918   27.1975 C   0  0  0  0  0  0  0  0  0  0  0  0
    5.3705   11.9999   27.3411 C   0  0  0  0  0  0  0  0  0  0  0  0
    5.1477   10.8636   27.5132 O   0  0  0  0  0  0  0  0  0  0  0  0
    6.4572   12.6942   26.4668 N   0  0  0  0  0  0  0  0  0  0  0  0
    7.3960   12.1508   25.5837 C   0  0  0  0  0  0  0  0  0  0  0  0
    7.3995   10.7907   25.2962 C   0  0  0  0  0  0  0  0  0  0  0  0
    8.3683   10.2603   24.4482 C   0  0  0  0  0  0  0  0  0  0  0  0
    9.3221   11.0784   23.8632 C   0  0  0  0  0  0  0  0  0  0  0  0
   10.1943   10.5043   23.0280 F   0  0  0  0  0  0  0  0  0  0  0  0
    9.3490   12.4506   24.1169 C   0  0  0  0  0  0  0  0  0  0  0  0
   10.3172   13.2898   23.5082 N   0  0  0  0  0  0  0  0  0  0  0  0
   11.6112   12.8978   23.0467 C   0  0  0  0  0  0  0  0  0  0  0  0
   12.1929   14.1647   22.4403 C   0  0  0  0  0  0  0  0  0  0  0  0
   11.0264   14.8846   22.0670 N   0  0  0  0  0  0  0  0  0  0  0  0
    9.9300   14.3802   22.7332 C   0  0  0  0  0  0  0  0  0  0  0  0
    8.8071   14.8310   22.6461 O   0  0  0  0  0  0  0  0  0  0  0  0
    8.3896   12.9886   25.0215 C   0  0  0  0  0  0  0  0  0  0  0  0
    8.4741   14.4263   25.4836 C   0  0  0  0  0  0  0  0  0  0  0  0
  1  2  1  0
  2  3  1  0
  3  4  1  6
  3  5  1  0
  5  6  2  0
  5  7  1  0
  7  8  1  0
  8  9  2  0
  9 10  1  0
 10 11  2  0
 11 12  1  0
 11 13  1  0
 13 14  1  0
 14 15  1  0
 15 16  1  0
 16 17  1  0
 17 18  1  0
 18 19  2  0
 13 20  2  0
 20 21  1  0
 20  8  1  0
 18 14  1  0
M  END
>  <alias>  (634) 
None

>  <rmsd(smina/fragmenstein)>  (634) 
0.534

>  <smiles>  (634) 
CO[C@@H](C)C(=O)Nc1ccc(F)c(N2CCNC2=O)c1C

>  <gnina_score>  (634) 
5.243

>  <inspiration_score>  (634) 
None

>  <energy_score>  (634) 
-45.083752

>  <distance_score>  (634) 
1.583653

>  <gnina_score_min>  (634) 
5.409

>  <inchikey>  (634) 
RTDZZHHYCMQKOP-VIFPVBQESA-N

>  <exports>  (634) 
['/opt/xchem-fragalysis-2/maxwin/BulkDock/OUTPUTS/openbind_a71ev2a_c2_elabs_1LOUU54.sdf', '/opt/xchem-fragalysis-2/maxwin/BulkDock/OUTPUTS/openbind_a71ev2a_c2_elabs_1LSYIDY.sdf']

>  <name>  (634) 
P546095

>  <ref_pdb>  (634) 
A0884a

>  <subsites>  (634) 
None

>  <HIPPO Pose ID>  (634) 
546095

>  <ref_mols>  (634) 
A0884a

>  <HIPPO Compound ID>  (634) 
384701

>  <tags>  (634) 
openbind_a71ev2a_c2_elabs,syndirella_product,openbind_a71ev2a_c2_elabs_fragonly_scored_top80percent,openbind_a71ev2a_c2_elabs_scored,BulkDock Fragalysis export,openbind_a71ev2a_c2_elabs_scored_top80percent,openbind_a71ev2a_c2_elabs_activefrags_only_scored_5.2plus,syndirella_placed

>  <smina_score_min>  (634) 
-6.226

$$$$
P546097
     RDKit          3D

 21 22  0  0  0  0  0  0  0  0999 V2000
    4.6881   16.2103   26.6728 C   0  0  0  0  0  0  0  0  0  0  0  0
    5.3431   15.0125   27.0801 O   0  0  0  0  0  0  0  0  0  0  0  0
    4.4975   13.8589   27.0085 C   0  0  2  0  0  0  0  0  0  0  0  0
    3.7879   13.6547   28.3400 C   0  0  0  0  0  0  0  0  0  0  0  0
    5.3335   12.6040   26.6337 C   0  0  0  0  0  0  0  0  0  0  0  0
    5.1167   11.5196   27.0181 O   0  0  0  0  0  0  0  0  0  0  0  0
    6.3853   13.1194   25.6041 N   0  0  0  0  0  0  0  0  0  0  0  0
    7.4017   12.4458   24.9401 C   0  0  0  0  0  0  0  0  0  0  0  0
    7.6023   11.0737   25.0518 C   0  0  0  0  0  0  0  0  0  0  0  0
    8.6484   10.4688   24.3498 C   0  0  0  0  0  0  0  0  0  0  0  0
    9.5243   11.2369   23.5826 C   0  0  0  0  0  0  0  0  0  0  0  0
    9.3242   12.6128   23.4694 C   0  0  0  0  0  0  0  0  0  0  0  0
   10.2037   13.4242   22.6997 N   0  0  0  0  0  0  0  0  0  0  0  0
   11.5173   13.5604   23.1483 C   0  0  0  0  0  0  0  0  0  0  0  0
   12.0196   12.9536   24.0934 O   0  0  0  0  0  0  0  0  0  0  0  0
   12.3058   14.6608   22.5199 C   0  0  0  0  0  0  0  0  0  0  0  0
   11.9610   14.7185   21.0667 C   0  0  0  0  0  0  0  0  0  0  0  0
   10.5501   14.9482   20.9499 N   0  0  0  0  0  0  0  0  0  0  0  0
    9.6579   14.1992   21.6707 C   0  0  0  0  0  0  0  0  0  0  0  0
    8.4666   14.2385   21.3647 O   0  0  0  0  0  0  0  0  0  0  0  0
    8.2439   13.2058   24.1296 C   0  0  0  0  0  0  0  0  0  0  0  0
  1  2  1  0
  2  3  1  0
  3  4  1  1
  3  5  1  0
  5  6  2  0
  5  7  1  0
  7  8  1  0
  8  9  2  0
  9 10  1  0
 10 11  2  0
 11 12  1  0
 12 13  1  0
 13 14  1  0
 14 15  2  0
 14 16  1  0
 16 17  1  0
 17 18  1  0
 18 19  1  0
 19 20  2  0
 12 21  2  0
 21  8  1  0
 19 13  1  0
M  END
>  <alias>  (635) 
None

>  <rmsd(smina/fragmenstein)>  (635) 
0.869

>  <smiles>  (635) 
CO[C@H](C)C(=O)Nc1cccc(N2C(=O)CCNC2=O)c1

>  <gnina_score>  (635) 
5.162

>  <inspiration_score>  (635) 
None

>  <energy_score>  (635) 
-27.212177

>  <distance_score>  (635) 
1.393949

>  <gnina_score_min>  (635) 
5.265

>  <inchikey>  (635) 
QVOGFGLRRMAFGG-SECBINFHSA-N

>  <exports>  (635) 
['/opt/xchem-fragalysis-2/maxwin/BulkDock/OUTPUTS/openbind_a71ev2a_c2_elabs_1LOUU54.sdf', '/opt/xchem-fragalysis-2/maxwin/BulkDock/OUTPUTS/openbind_a71ev2a_c2_elabs_1LSYIDY.sdf']

>  <name>  (635) 
P546097

>  <ref_pdb>  (635) 
A0884a

>  <subsites>  (635) 
None

>  <HIPPO Pose ID>  (635) 
546097

>  <ref_mols>  (635) 
A0884a

>  <HIPPO Compound ID>  (635) 
384704

>  <tags>  (635) 
openbind_a71ev2a_c2_elabs,syndirella_product,openbind_a71ev2a_c2_elabs_fragonly_scored_top80percent,openbind_a71ev2a_c2_elabs_scored,BulkDock Fragalysis export,openbind_a71ev2a_c2_elabs_scored_top80percent,openbind_a71ev2a_c2_elabs_activefrags_only_scored_5.2plus,syndirella_placed

>  <smina_score_min>  (635) 
-6.937

$$$$
P546108
     RDKit          3D

 21 23  0  0  0  0  0  0  0  0999 V2000
    7.9249   14.4987   24.5705 C   0  0  0  0  0  0  0  0  0  0  0  0
    8.1960   13.0338   24.3787 C   0  0  0  0  0  0  0  0  0  0  0  0
    7.4427   12.0683   25.0870 C   0  0  0  0  0  0  0  0  0  0  0  0
    6.3839   12.4617   25.9109 N   0  0  0  0  0  0  0  0  0  0  0  0
    5.6228   11.6841   27.0056 C   0  0  0  0  0  0  0  0  0  0  0  0
    5.8093   10.6198   27.4452 O   0  0  0  0  0  0  0  0  0  0  0  0
    4.5388   12.5671   27.5316 C   0  0  0  0  0  0  0  0  0  0  0  0
    3.8983   13.6324   27.0149 C   0  0  0  0  0  0  0  0  0  0  0  0
    3.0101   13.7888   28.2330 C   0  0  0  0  0  0  0  0  0  0  0  0
    3.6703   12.4958   28.7590 C   0  0  0  0  0  0  0  0  0  0  0  0
    7.7615   10.7149   24.9799 C   0  0  0  0  0  0  0  0  0  0  0  0
    8.8056   10.2991   24.1617 C   0  0  0  0  0  0  0  0  0  0  0  0
    9.5587   11.2357   23.4703 C   0  0  0  0  0  0  0  0  0  0  0  0
    9.2721   12.6018   23.5668 C   0  0  0  0  0  0  0  0  0  0  0  0
   10.1500   13.4826   22.8631 N   0  0  0  0  0  0  0  0  0  0  0  0
    9.6029   14.3985   21.8682 C   0  0  0  0  0  0  0  0  0  0  0  0
   10.6128   14.8785   20.8430 C   0  0  0  0  0  0  0  0  0  0  0  0
   11.9285   15.2113   21.4972 C   0  0  0  0  0  0  0  0  0  0  0  0
   12.3206   14.2779   22.5103 N   0  0  0  0  0  0  0  0  0  0  0  0
   11.4585   13.5904   23.3049 C   0  0  0  0  0  0  0  0  0  0  0  0
   11.8886   13.1065   24.3512 O   0  0  0  0  0  0  0  0  0  0  0  0
  1  2  1  0
  2  3  2  0
  3  4  1  0
  4  5  1  0
  5  6  2  0
  5  7  1  0
  7  8  2  0
  8  9  1  0
  9 10  1  0
  3 11  1  0
 11 12  2  0
 12 13  1  0
 13 14  2  0
 14 15  1  0
 15 16  1  0
 16 17  1  0
 17 18  1  0
 18 19  1  0
 19 20  1  0
 20 21  2  0
 14  2  1  0
 20 15  1  0
 10  7  1  0
M  END
>  <alias>  (636) 
None

>  <rmsd(smina/fragmenstein)>  (636) 
0.407

>  <smiles>  (636) 
Cc1c(NC(=O)C2=CCC2)cccc1N1CCCNC1=O

>  <gnina_score>  (636) 
5.209

>  <inspiration_score>  (636) 
None

>  <energy_score>  (636) 
-28.202337

>  <distance_score>  (636) 
1.103705

>  <gnina_score_min>  (636) 
5.274

>  <inchikey>  (636) 
MHNVOSJRYPIPOZ-UHFFFAOYSA-N

>  <exports>  (636) 
['/opt/xchem-fragalysis-2/maxwin/BulkDock/OUTPUTS/openbind_a71ev2a_c2_elabs_1LOUU54.sdf', '/opt/xchem-fragalysis-2/maxwin/BulkDock/OUTPUTS/openbind_a71ev2a_c2_elabs_1LSYIDY.sdf']

>  <name>  (636) 
P546108

>  <ref_pdb>  (636) 
A0884a

>  <subsites>  (636) 
None

>  <HIPPO Pose ID>  (636) 
546108

>  <ref_mols>  (636) 
A0884a

>  <HIPPO Compound ID>  (636) 
384713

>  <tags>  (636) 
openbind_a71ev2a_c2_elabs,syndirella_product,openbind_a71ev2a_c2_elabs_fragonly_scored_top80percent,openbind_a71ev2a_c2_elabs_scored,BulkDock Fragalysis export,openbind_a71ev2a_c2_elabs_scored_top80percent,openbind_a71ev2a_c2_elabs_activefrags_only_scored_5.2plus,syndirella_placed

>  <smina_score_min>  (636) 
-6.643

$$$$
P546109
     RDKit          3D

 21 22  0  0  0  0  0  0  0  0999 V2000
    8.0653   14.5688   24.4803 C   0  0  0  0  0  0  0  0  0  0  0  0
    8.2308   13.0785   24.5154 C   0  0  0  0  0  0  0  0  0  0  0  0
    7.3225   12.2714   25.2383 C   0  0  0  0  0  0  0  0  0  0  0  0
    6.2967   12.8587   25.9853 N   0  0  0  0  0  0  0  0  0  0  0  0
    5.2794   12.2238   26.9820 C   0  0  0  0  0  0  0  0  0  0  0  0
    5.0975   11.1045   27.2686 O   0  0  0  0  0  0  0  0  0  0  0  0
    4.4474   13.3798   27.5144 C   0  0  0  0  0  0  0  0  0  0  0  0
    3.3904   12.8648   28.4753 C   0  0  0  0  0  0  0  0  0  0  0  0
    2.3490   14.1980   29.0250 Cl  0  0  0  0  0  0  0  0  0  0  0  0
    7.4431   10.8817   25.2004 C   0  0  0  0  0  0  0  0  0  0  0  0
    8.4375   10.2852   24.4333 C   0  0  0  0  0  0  0  0  0  0  0  0
    9.3597   11.0709   23.7691 C   0  0  0  0  0  0  0  0  0  0  0  0
   10.3366   10.4638   23.0898 F   0  0  0  0  0  0  0  0  0  0  0  0
    9.3093   12.4618   23.8431 C   0  0  0  0  0  0  0  0  0  0  0  0
   10.4195   13.1569   23.3254 N   0  0  0  0  0  0  0  0  0  0  0  0
   11.3284   13.8170   24.1029 C   0  0  0  0  0  0  0  0  0  0  0  0
   11.3721   13.8811   25.3251 O   0  0  0  0  0  0  0  0  0  0  0  0
   12.2769   14.5658   23.1906 C   0  0  0  0  0  0  0  0  0  0  0  0
   11.6591   14.3781   21.9331 N   0  0  0  0  0  0  0  0  0  0  0  0
   10.4519   13.7526   22.1041 C   0  0  0  0  0  0  0  0  0  0  0  0
    9.5427   13.8968   21.3097 O   0  0  0  0  0  0  0  0  0  0  0  0
  1  2  1  0
  2  3  2  0
  3  4  1  0
  4  5  1  0
  5  6  2  0
  5  7  1  0
  7  8  1  0
  8  9  1  0
  3 10  1  0
 10 11  2  0
 11 12  1  0
 12 13  1  0
 12 14  2  0
 14 15  1  0
 15 16  1  0
 16 17  2  0
 16 18  1  0
 18 19  1  0
 19 20  1  0
 20 21  2  0
 14  2  1  0
 20 15  1  0
M  END
>  <alias>  (637) 
None

>  <rmsd(smina/fragmenstein)>  (637) 
0.493

>  <smiles>  (637) 
Cc1c(NC(=O)CCCl)ccc(F)c1N1C(=O)CNC1=O

>  <gnina_score>  (637) 
5.427

>  <inspiration_score>  (637) 
None

>  <energy_score>  (637) 
-32.344387

>  <distance_score>  (637) 
1.5732

>  <gnina_score_min>  (637) 
5.373

>  <inchikey>  (637) 
KETGSZWQYOSUBN-UHFFFAOYSA-N

>  <exports>  (637) 
['/opt/xchem-fragalysis-2/maxwin/BulkDock/OUTPUTS/openbind_a71ev2a_c2_elabs_1LOUU54.sdf', '/opt/xchem-fragalysis-2/maxwin/BulkDock/OUTPUTS/openbind_a71ev2a_c2_elabs_1LSYIDY.sdf']

>  <name>  (637) 
P546109

>  <ref_pdb>  (637) 
A0884a

>  <subsites>  (637) 
None

>  <HIPPO Pose ID>  (637) 
546109

>  <ref_mols>  (637) 
A0884a

>  <HIPPO Compound ID>  (637) 
384714

>  <tags>  (637) 
openbind_a71ev2a_c2_elabs,syndirella_product,openbind_a71ev2a_c2_elabs_fragonly_scored_top80percent,openbind_a71ev2a_c2_elabs_scored,BulkDock Fragalysis export,openbind_a71ev2a_c2_elabs_scored_top80percent,openbind_a71ev2a_c2_elabs_activefrags_only_scored_5.2plus,syndirella_placed

>  <smina_score_min>  (637) 
-6.053

$$$$
P546112
     RDKit          3D

 21 22  0  0  0  0  0  0  0  0999 V2000
   13.0797   15.5660   21.4177 O   0  0  0  0  0  0  0  0  0  0  0  0
   12.2884   14.9304   22.0989 C   0  0  0  0  0  0  0  0  0  0  0  0
   12.6680   13.7590   22.9348 C   0  0  0  0  0  0  0  0  0  0  0  0
   11.5524   13.3720   23.8583 C   0  0  0  0  0  0  0  0  0  0  0  0
   10.3335   13.2178   23.0959 N   0  0  0  0  0  0  0  0  0  0  0  0
    9.2935   12.4863   23.7094 C   0  0  0  0  0  0  0  0  0  0  0  0
    9.3828   11.1042   23.8072 C   0  0  0  0  0  0  0  0  0  0  0  0
    8.4016   10.4248   24.5112 C   0  0  0  0  0  0  0  0  0  0  0  0
    8.4532    9.0924   24.5673 F   0  0  0  0  0  0  0  0  0  0  0  0
    7.3643   11.0900   25.1588 C   0  0  0  0  0  0  0  0  0  0  0  0
    7.2540   12.4674   25.0209 C   0  0  0  0  0  0  0  0  0  0  0  0
    6.2228   13.1962   25.6013 N   0  0  0  0  0  0  0  0  0  0  0  0
    5.1375   12.7670   26.6333 C   0  0  0  0  0  0  0  0  0  0  0  0
    4.9005   11.7170   27.0914 O   0  0  0  0  0  0  0  0  0  0  0  0
    4.3219   14.0096   26.9692 C   0  0  0  0  0  0  0  0  0  0  0  0
    5.1052   15.0540   27.7463 C   0  0  0  0  0  0  0  0  0  0  0  0
    5.6383   14.4444   29.3310 Cl  0  0  0  0  0  0  0  0  0  0  0  0
    8.2045   13.1612   24.2748 C   0  0  0  0  0  0  0  0  0  0  0  0
   10.0281   14.2343   22.2123 C   0  0  0  0  0  0  0  0  0  0  0  0
    8.9888   14.3076   21.5720 O   0  0  0  0  0  0  0  0  0  0  0  0
   10.9641   15.2004   22.0559 N   0  0  0  0  0  0  0  0  0  0  0  0
  1  2  2  0
  2  3  1  0
  3  4  1  0
  4  5  1  0
  5  6  1  0
  6  7  2  0
  7  8  1  0
  8  9  1  0
  8 10  2  0
 10 11  1  0
 11 12  1  0
 12 13  1  0
 13 14  2  0
 13 15  1  0
 15 16  1  0
 16 17  1  0
 11 18  2  0
  5 19  1  0
 19 20  2  0
 19 21  1  0
 21  2  1  0
 18  6  1  0
M  END
>  <alias>  (638) 
None

>  <rmsd(smina/fragmenstein)>  (638) 
1.952

>  <smiles>  (638) 
O=C1CCN(c2cc(F)cc(NC(=O)CCCl)c2)C(=O)N1

>  <gnina_score>  (638) 
5.362

>  <inspiration_score>  (638) 
None

>  <energy_score>  (638) 
-19.830974

>  <distance_score>  (638) 
1.745089

>  <gnina_score_min>  (638) 
5.218

>  <inchikey>  (638) 
SMJWUCRZAFZYRY-UHFFFAOYSA-N

>  <exports>  (638) 
['/opt/xchem-fragalysis-2/maxwin/BulkDock/OUTPUTS/openbind_a71ev2a_c2_elabs_1LOUU54.sdf', '/opt/xchem-fragalysis-2/maxwin/BulkDock/OUTPUTS/openbind_a71ev2a_c2_elabs_1LSYIDY.sdf']

>  <name>  (638) 
P546112

>  <ref_pdb>  (638) 
A0884a

>  <subsites>  (638) 
None

>  <HIPPO Pose ID>  (638) 
546112

>  <ref_mols>  (638) 
A0884a

>  <HIPPO Compound ID>  (638) 
384716

>  <tags>  (638) 
openbind_a71ev2a_c2_elabs,syndirella_product,openbind_a71ev2a_c2_elabs_fragonly_scored_top80percent,openbind_a71ev2a_c2_elabs_scored,BulkDock Fragalysis export,openbind_a71ev2a_c2_elabs_scored_top80percent,openbind_a71ev2a_c2_elabs_activefrags_only_scored_5.2plus,syndirella_placed

>  <smina_score_min>  (638) 
-6.513

$$$$
P546116
     RDKit          3D

 21 22  0  0  0  0  0  0  0  0999 V2000
    8.9639    9.6026   23.9762 C   0  0  0  0  0  0  0  0  0  0  0  0
    8.7320   11.0558   24.1690 C   0  0  0  0  0  0  0  0  0  0  0  0
    7.6451   11.5554   24.9014 C   0  0  0  0  0  0  0  0  0  0  0  0
    7.3988   12.9284   24.9268 C   0  0  0  0  0  0  0  0  0  0  0  0
    6.3329   13.4917   25.6221 N   0  0  0  0  0  0  0  0  0  0  0  0
    5.2981   12.8404   26.5878 C   0  0  0  0  0  0  0  0  0  0  0  0
    5.1385   11.7199   26.8838 O   0  0  0  0  0  0  0  0  0  0  0  0
    4.4101   13.9601   27.1054 C   0  0  0  0  0  0  0  0  0  0  0  0
    3.3433   14.3030   26.0834 C   0  0  0  0  0  0  0  0  0  0  0  0
    2.2537   15.5545   26.7293 Cl  0  0  0  0  0  0  0  0  0  0  0  0
    8.2340   13.7929   24.2205 C   0  0  0  0  0  0  0  0  0  0  0  0
    9.3477   13.2957   23.5498 C   0  0  0  0  0  0  0  0  0  0  0  0
   10.1907   14.1728   22.8291 N   0  0  0  0  0  0  0  0  0  0  0  0
    9.6651   14.5756   21.5229 C   0  0  0  0  0  0  0  0  0  0  0  0
   10.6327   15.3562   20.6801 C   0  0  0  0  0  0  0  0  0  0  0  0
   11.9930   14.7566   20.8529 C   0  0  0  0  0  0  0  0  0  0  0  0
   12.7074   14.3887   19.9267 O   0  0  0  0  0  0  0  0  0  0  0  0
   12.3782   14.6723   22.1599 N   0  0  0  0  0  0  0  0  0  0  0  0
   11.5499   14.1459   23.1061 C   0  0  0  0  0  0  0  0  0  0  0  0
   12.0262   13.6790   24.1422 O   0  0  0  0  0  0  0  0  0  0  0  0
    9.5953   11.9303   23.5194 C   0  0  0  0  0  0  0  0  0  0  0  0
  1  2  1  0
  2  3  2  0
  3  4  1  0
  4  5  1  0
  5  6  1  0
  6  7  2  0
  6  8  1  0
  8  9  1  0
  9 10  1  0
  4 11  2  0
 11 12  1  0
 12 13  1  0
 13 14  1  0
 14 15  1  0
 15 16  1  0
 16 17  2  0
 16 18  1  0
 18 19  1  0
 19 20  2  0
 12 21  2  0
 21  2  1  0
 19 13  1  0
M  END
>  <alias>  (639) 
None

>  <rmsd(smina/fragmenstein)>  (639) 
0.871

>  <smiles>  (639) 
Cc1cc(NC(=O)CCCl)cc(N2CCC(=O)NC2=O)c1

>  <gnina_score>  (639) 
5.444

>  <inspiration_score>  (639) 
None

>  <energy_score>  (639) 
-10.247341

>  <distance_score>  (639) 
1.395686

>  <gnina_score_min>  (639) 
5.442

>  <inchikey>  (639) 
NKLLVEJBHTYNRN-UHFFFAOYSA-N

>  <exports>  (639) 
['/opt/xchem-fragalysis-2/maxwin/BulkDock/OUTPUTS/openbind_a71ev2a_c2_elabs_1LOUU54.sdf', '/opt/xchem-fragalysis-2/maxwin/BulkDock/OUTPUTS/openbind_a71ev2a_c2_elabs_1LSYIDY.sdf']

>  <name>  (639) 
P546116

>  <ref_pdb>  (639) 
A0884a

>  <subsites>  (639) 
None

>  <HIPPO Pose ID>  (639) 
546116

>  <ref_mols>  (639) 
A0884a

>  <HIPPO Compound ID>  (639) 
384722

>  <tags>  (639) 
openbind_a71ev2a_c2_elabs,syndirella_product,openbind_a71ev2a_c2_elabs_fragonly_scored_top80percent,openbind_a71ev2a_c2_elabs_scored,BulkDock Fragalysis export,openbind_a71ev2a_c2_elabs_scored_top80percent,openbind_a71ev2a_c2_elabs_activefrags_only_scored_5.2plus,syndirella_placed

>  <smina_score_min>  (639) 
-6.51

$$$$
P546117
     RDKit          3D

 21 22  0  0  0  0  0  0  0  0999 V2000
    9.9644   10.3137   23.0540 C   0  0  0  0  0  0  0  0  0  0  0  0
    9.0558   11.2135   23.8268 C   0  0  0  0  0  0  0  0  0  0  0  0
    8.1458   10.5796   24.6847 C   0  0  0  0  0  0  0  0  0  0  0  0
    7.1957   11.3075   25.3915 C   0  0  0  0  0  0  0  0  0  0  0  0
    7.1286   12.6855   25.2342 C   0  0  0  0  0  0  0  0  0  0  0  0
    6.1558   13.4401   25.8843 N   0  0  0  0  0  0  0  0  0  0  0  0
    5.0820   13.0185   26.9379 C   0  0  0  0  0  0  0  0  0  0  0  0
    4.9065   11.9923   27.4722 O   0  0  0  0  0  0  0  0  0  0  0  0
    4.2558   14.2708   27.2051 C   0  0  0  0  0  0  0  0  0  0  0  0
    3.1736   14.0397   28.2490 C   0  0  0  0  0  0  0  0  0  0  0  0
    1.7818   13.1433   27.5831 Cl  0  0  0  0  0  0  0  0  0  0  0  0
    8.0398   13.3339   24.3938 C   0  0  0  0  0  0  0  0  0  0  0  0
    9.0295   12.6148   23.7031 C   0  0  0  0  0  0  0  0  0  0  0  0
    9.9640   13.3177   22.8732 N   0  0  0  0  0  0  0  0  0  0  0  0
    9.4337   14.3100   21.9482 C   0  0  0  0  0  0  0  0  0  0  0  0
   10.4129   14.7898   20.8987 C   0  0  0  0  0  0  0  0  0  0  0  0
   11.8359   14.5317   21.2743 C   0  0  0  0  0  0  0  0  0  0  0  0
   12.7382   14.5348   20.4413 O   0  0  0  0  0  0  0  0  0  0  0  0
   12.0676   14.3148   22.5974 N   0  0  0  0  0  0  0  0  0  0  0  0
   11.2479   13.5418   23.3766 C   0  0  0  0  0  0  0  0  0  0  0  0
   11.6748   13.1003   24.4413 O   0  0  0  0  0  0  0  0  0  0  0  0
  1  2  1  0
  2  3  2  0
  3  4  1  0
  4  5  2  0
  5  6  1  0
  6  7  1  0
  7  8  2  0
  7  9  1  0
  9 10  1  0
 10 11  1  0
  5 12  1  0
 12 13  2  0
 13 14  1  0
 14 15  1  0
 15 16  1  0
 16 17  1  0
 17 18  2  0
 17 19  1  0
 19 20  1  0
 20 21  2  0
 13  2  1  0
 20 14  1  0
M  END
>  <alias>  (640) 
None

>  <rmsd(smina/fragmenstein)>  (640) 
0.935

>  <smiles>  (640) 
Cc1ccc(NC(=O)CCCl)cc1N1CCC(=O)NC1=O

>  <gnina_score>  (640) 
5.355

>  <inspiration_score>  (640) 
None

>  <energy_score>  (640) 
-37.030389

>  <distance_score>  (640) 
1.370845

>  <gnina_score_min>  (640) 
5.332

>  <inchikey>  (640) 
YHGFLXMXJCYMLZ-UHFFFAOYSA-N

>  <exports>  (640) 
['/opt/xchem-fragalysis-2/maxwin/BulkDock/OUTPUTS/openbind_a71ev2a_c2_elabs_1LOUU54.sdf', '/opt/xchem-fragalysis-2/maxwin/BulkDock/OUTPUTS/openbind_a71ev2a_c2_elabs_1LSYIDY.sdf']

>  <name>  (640) 
P546117

>  <ref_pdb>  (640) 
A0884a

>  <subsites>  (640) 
None

>  <HIPPO Pose ID>  (640) 
546117

>  <ref_mols>  (640) 
A0884a

>  <HIPPO Compound ID>  (640) 
384725

>  <tags>  (640) 
openbind_a71ev2a_c2_elabs,syndirella_product,openbind_a71ev2a_c2_elabs_fragonly_scored_top80percent,openbind_a71ev2a_c2_elabs_scored,BulkDock Fragalysis export,openbind_a71ev2a_c2_elabs_scored_top80percent,openbind_a71ev2a_c2_elabs_activefrags_only_scored_5.2plus,syndirella_placed

>  <smina_score_min>  (640) 
-6.372

$$$$
P546118
     RDKit          3D

 21 22  0  0  0  0  0  0  0  0999 V2000
    8.8437   14.7364   21.8881 O   0  0  0  0  0  0  0  0  0  0  0  0
    9.9477   14.3836   22.2747 C   0  0  0  0  0  0  0  0  0  0  0  0
   11.0168   15.1280   21.8901 N   0  0  0  0  0  0  0  0  0  0  0  0
   12.3871   14.7604   22.0859 C   0  0  0  0  0  0  0  0  0  0  0  0
   12.4736   14.0132   23.3875 C   0  0  0  0  0  0  0  0  0  0  0  0
   11.5374   12.8484   23.2349 C   0  0  0  0  0  0  0  0  0  0  0  0
   10.1850   13.3101   23.1034 N   0  0  0  0  0  0  0  0  0  0  0  0
    9.1449   12.5558   23.7120 C   0  0  0  0  0  0  0  0  0  0  0  0
    8.0495   13.2203   24.2759 C   0  0  0  0  0  0  0  0  0  0  0  0
    7.1244   12.5285   25.0624 C   0  0  0  0  0  0  0  0  0  0  0  0
    6.0973   13.2514   25.6589 N   0  0  0  0  0  0  0  0  0  0  0  0
    4.9610   12.7881   26.6400 C   0  0  0  0  0  0  0  0  0  0  0  0
    4.7730   11.7451   27.1484 O   0  0  0  0  0  0  0  0  0  0  0  0
    4.0534   14.0238   26.8717 C   0  0  0  0  0  0  0  0  0  0  0  0
    4.1969   14.5284   28.1277 F   0  0  0  0  0  0  0  0  0  0  0  0
    4.3383   15.0436   26.0137 F   0  0  0  0  0  0  0  0  0  0  0  0
    2.7336   13.7331   26.7137 F   0  0  0  0  0  0  0  0  0  0  0  0
    7.2521   11.1519   25.2405 C   0  0  0  0  0  0  0  0  0  0  0  0
    8.2833   10.4669   24.6036 C   0  0  0  0  0  0  0  0  0  0  0  0
    9.2269   11.1668   23.8660 C   0  0  0  0  0  0  0  0  0  0  0  0
   10.2137   10.4665   23.2942 F   0  0  0  0  0  0  0  0  0  0  0  0
  1  2  2  0
  2  3  1  0
  3  4  1  0
  4  5  1  0
  5  6  1  0
  6  7  1  0
  7  8  1  0
  8  9  2  0
  9 10  1  0
 10 11  1  0
 11 12  1  0
 12 13  2  0
 12 14  1  0
 14 15  1  0
 14 16  1  0
 14 17  1  0
 10 18  2  0
 18 19  1  0
 19 20  2  0
 20 21  1  0
  7  2  1  0
 20  8  1  0
M  END
>  <alias>  (641) 
None

>  <rmsd(smina/fragmenstein)>  (641) 
0.473

>  <smiles>  (641) 
O=C1NCCCN1c1cc(NC(=O)C(F)(F)F)ccc1F

>  <gnina_score>  (641) 
5.368

>  <inspiration_score>  (641) 
None

>  <energy_score>  (641) 
-39.498792

>  <distance_score>  (641) 
1.848099

>  <gnina_score_min>  (641) 
5.436

>  <inchikey>  (641) 
KNXPDDNRSAHRQH-UHFFFAOYSA-N

>  <exports>  (641) 
['/opt/xchem-fragalysis-2/maxwin/BulkDock/OUTPUTS/openbind_a71ev2a_c2_elabs_1LOUU54.sdf', '/opt/xchem-fragalysis-2/maxwin/BulkDock/OUTPUTS/openbind_a71ev2a_c2_elabs_1LSYIDY.sdf']

>  <name>  (641) 
P546118

>  <ref_pdb>  (641) 
A0884a

>  <subsites>  (641) 
None

>  <HIPPO Pose ID>  (641) 
546118

>  <ref_mols>  (641) 
A0884a

>  <HIPPO Compound ID>  (641) 
384729

>  <tags>  (641) 
openbind_a71ev2a_c2_elabs,syndirella_product,openbind_a71ev2a_c2_elabs_fragonly_scored_top80percent,openbind_a71ev2a_c2_elabs_scored,BulkDock Fragalysis export,openbind_a71ev2a_c2_elabs_scored_top80percent,openbind_a71ev2a_c2_elabs_activefrags_only_scored_5.2plus,syndirella_placed

>  <smina_score_min>  (641) 
-6.856

$$$$
P546120
     RDKit          3D

 21 22  0  0  0  0  0  0  0  0999 V2000
    7.2845   14.3561   24.4605 C   0  0  0  0  0  0  0  0  0  0  0  0
    7.8330   12.9492   24.5210 C   0  0  0  0  0  0  0  0  0  0  0  0
    7.1361   11.9412   25.1975 C   0  0  0  0  0  0  0  0  0  0  0  0
    6.0871   12.2899   26.0471 N   0  0  0  0  0  0  0  0  0  0  0  0
    5.3509   11.4541   27.1517 C   0  0  0  0  0  0  0  0  0  0  0  0
    5.4672   10.3259   27.4550 O   0  0  0  0  0  0  0  0  0  0  0  0
    4.3387   12.4169   27.8239 C   0  0  0  0  0  0  0  0  0  0  0  0
    3.0543   11.9766   27.7020 F   0  0  0  0  0  0  0  0  0  0  0  0
    4.3673   13.6665   27.2766 F   0  0  0  0  0  0  0  0  0  0  0  0
    4.5758   12.5726   29.1539 F   0  0  0  0  0  0  0  0  0  0  0  0
    7.5435   10.6178   25.0630 C   0  0  0  0  0  0  0  0  0  0  0  0
    8.6165   10.2897   24.2325 C   0  0  0  0  0  0  0  0  0  0  0  0
    9.3889   11.2916   23.6627 C   0  0  0  0  0  0  0  0  0  0  0  0
    9.0705   12.6261   23.9234 C   0  0  0  0  0  0  0  0  0  0  0  0
   10.1207   13.5703   23.9429 N   0  0  0  0  0  0  0  0  0  0  0  0
   10.3929   14.2586   25.1045 C   0  0  0  0  0  0  0  0  0  0  0  0
    9.6653   14.5663   26.0422 O   0  0  0  0  0  0  0  0  0  0  0  0
   11.8489   14.5971   25.1257 C   0  0  0  0  0  0  0  0  0  0  0  0
   12.2082   14.3291   23.7832 N   0  0  0  0  0  0  0  0  0  0  0  0
   11.2446   13.5798   23.1687 C   0  0  0  0  0  0  0  0  0  0  0  0
   11.4854   13.0353   22.1140 O   0  0  0  0  0  0  0  0  0  0  0  0
  1  2  1  0
  2  3  2  0
  3  4  1  0
  4  5  1  0
  5  6  2  0
  5  7  1  0
  7  8  1  0
  7  9  1  0
  7 10  1  0
  3 11  1  0
 11 12  2  0
 12 13  1  0
 13 14  2  0
 14 15  1  0
 15 16  1  0
 16 17  2  0
 16 18  1  0
 18 19  1  0
 19 20  1  0
 20 21  2  0
 14  2  1  0
 20 15  1  0
M  END
>  <alias>  (642) 
None

>  <rmsd(smina/fragmenstein)>  (642) 
1.676

>  <smiles>  (642) 
Cc1c(NC(=O)C(F)(F)F)cccc1N1C(=O)CNC1=O

>  <gnina_score>  (642) 
4.847

>  <inspiration_score>  (642) 
None

>  <energy_score>  (642) 
-23.580467

>  <distance_score>  (642) 
1.341707

>  <gnina_score_min>  (642) 
5.232

>  <inchikey>  (642) 
HYXGBEJBAXFGRI-UHFFFAOYSA-N

>  <exports>  (642) 
['/opt/xchem-fragalysis-2/maxwin/BulkDock/OUTPUTS/openbind_a71ev2a_c2_elabs_1LOUU54.sdf', '/opt/xchem-fragalysis-2/maxwin/BulkDock/OUTPUTS/openbind_a71ev2a_c2_elabs_1LSYIDY.sdf']

>  <name>  (642) 
P546120

>  <ref_pdb>  (642) 
A0884a

>  <subsites>  (642) 
None

>  <HIPPO Pose ID>  (642) 
546120

>  <ref_mols>  (642) 
A0884a

>  <HIPPO Compound ID>  (642) 
384734

>  <tags>  (642) 
openbind_a71ev2a_c2_elabs,syndirella_product,openbind_a71ev2a_c2_elabs_fragonly_scored_top80percent,openbind_a71ev2a_c2_elabs_scored,BulkDock Fragalysis export,openbind_a71ev2a_c2_elabs_scored_top80percent,openbind_a71ev2a_c2_elabs_activefrags_only_scored_5.2plus,syndirella_placed

>  <smina_score_min>  (642) 
-7.109

$$$$
P546134
     RDKit          3D

 21 22  0  0  0  0  0  0  0  0999 V2000
   13.0228   15.4634   21.4693 O   0  0  0  0  0  0  0  0  0  0  0  0
   12.2174   14.8419   22.1474 C   0  0  0  0  0  0  0  0  0  0  0  0
   12.5829   13.7099   23.0443 C   0  0  0  0  0  0  0  0  0  0  0  0
   11.4389   13.3832   23.9650 C   0  0  0  0  0  0  0  0  0  0  0  0
   10.2356   13.1530   23.1923 N   0  0  0  0  0  0  0  0  0  0  0  0
    9.1487   12.5272   23.8754 C   0  0  0  0  0  0  0  0  0  0  0  0
    8.1656   13.3400   24.4644 C   0  0  0  0  0  0  0  0  0  0  0  0
    7.1324   12.7837   25.2217 C   0  0  0  0  0  0  0  0  0  0  0  0
    6.1552   13.6270   25.7403 N   0  0  0  0  0  0  0  0  0  0  0  0
    4.9505   13.3214   26.6850 C   0  0  0  0  0  0  0  0  0  0  0  0
    4.5560   12.3025   27.1052 O   0  0  0  0  0  0  0  0  0  0  0  0
    4.2860   14.6632   26.9535 C   0  0  0  0  0  0  0  0  0  0  0  0
    3.0670   14.4741   27.8390 C   0  0  0  0  0  0  0  0  0  0  0  0
    2.2743   16.0351   28.1511 Cl  0  0  0  0  0  0  0  0  0  0  0  0
    7.0811   11.4063   25.4089 C   0  0  0  0  0  0  0  0  0  0  0  0
    8.0181   10.5869   24.7844 C   0  0  0  0  0  0  0  0  0  0  0  0
    9.0367   11.1376   24.0082 C   0  0  0  0  0  0  0  0  0  0  0  0
   10.0410   10.0259   23.1817 Cl  0  0  0  0  0  0  0  0  0  0  0  0
    9.9500   14.1209   22.2420 C   0  0  0  0  0  0  0  0  0  0  0  0
    8.9164   14.1604   21.5897 O   0  0  0  0  0  0  0  0  0  0  0  0
   10.8885   15.0807   22.0453 N   0  0  0  0  0  0  0  0  0  0  0  0
  1  2  2  0
  2  3  1  0
  3  4  1  0
  4  5  1  0
  5  6  1  0
  6  7  2  0
  7  8  1  0
  8  9  1  0
  9 10  1  0
 10 11  2  0
 10 12  1  0
 12 13  1  0
 13 14  1  0
  8 15  2  0
 15 16  1  0
 16 17  2  0
 17 18  1  0
  5 19  1  0
 19 20  2  0
 19 21  1  0
 21  2  1  0
 17  6  1  0
M  END
>  <alias>  (643) 
None

>  <rmsd(smina/fragmenstein)>  (643) 
1.039

>  <smiles>  (643) 
O=C1CCN(c2cc(NC(=O)CCCl)ccc2Cl)C(=O)N1

>  <gnina_score>  (643) 
5.614

>  <inspiration_score>  (643) 
None

>  <energy_score>  (643) 
-48.740071

>  <distance_score>  (643) 
1.921396

>  <gnina_score_min>  (643) 
5.558

>  <inchikey>  (643) 
VXJJVDOFCDSTRP-UHFFFAOYSA-N

>  <exports>  (643) 
['/opt/xchem-fragalysis-2/maxwin/BulkDock/OUTPUTS/openbind_a71ev2a_c2_elabs_1LOUU54.sdf', '/opt/xchem-fragalysis-2/maxwin/BulkDock/OUTPUTS/openbind_a71ev2a_c2_elabs_1LSYIDY.sdf']

>  <name>  (643) 
P546134

>  <ref_pdb>  (643) 
A0884a

>  <subsites>  (643) 
None

>  <HIPPO Pose ID>  (643) 
546134

>  <ref_mols>  (643) 
A0884a

>  <HIPPO Compound ID>  (643) 
384757

>  <tags>  (643) 
openbind_a71ev2a_c2_elabs,syndirella_product,openbind_a71ev2a_c2_elabs_fragonly_scored_top80percent,BulkDock Fragalysis export,openbind_a71ev2a_c2_elabs_scored,openbind_a71ev2a_c2_elabs_scored_top80percent,openbind_a71ev2a_c2_elabs_activefrags_only_scored_5.2plus,openbind_a71ev2a_c2_elabs_activefrags_only_scored_5.5plus,syndirella_placed

>  <smina_score_min>  (643) 
-6.826

$$$$
P546135
     RDKit          3D

 21 22  0  0  0  0  0  0  0  0999 V2000
    1.2529   13.6396   29.6671 C   0  0  0  0  0  0  0  0  0  0  0  0
    1.7639   12.3819   28.4655 S   0  0  0  0  0  0  0  0  0  0  0  0
    3.8052   12.6380   28.4261 S   0  0  0  0  0  0  0  0  0  0  0  0
    3.9993   14.0374   27.2699 C   0  0  0  0  0  0  0  0  0  0  0  0
    5.3957   14.0830   26.6457 C   0  0  0  0  0  0  0  0  0  0  0  0
    5.9957   15.0809   26.5315 O   0  0  0  0  0  0  0  0  0  0  0  0
    5.7296   12.6419   26.1529 N   0  0  0  0  0  0  0  0  0  0  0  0
    6.8644   12.1436   25.5307 C   0  0  0  0  0  0  0  0  0  0  0  0
    6.9843   10.7776   25.3823 C   0  0  0  0  0  0  0  0  0  0  0  0
    8.0216   10.2646   24.6173 C   0  0  0  0  0  0  0  0  0  0  0  0
    8.9845   11.0863   24.0138 C   0  0  0  0  0  0  0  0  0  0  0  0
    9.9654   10.3463   23.1652 C   0  0  0  0  0  0  0  0  0  0  0  0
    8.9930   12.4513   24.3539 C   0  0  0  0  0  0  0  0  0  0  0  0
   10.1481   13.2733   24.3011 N   0  0  0  0  0  0  0  0  0  0  0  0
   10.4477   14.1864   25.2866 C   0  0  0  0  0  0  0  0  0  0  0  0
    9.7536   14.7017   26.1563 O   0  0  0  0  0  0  0  0  0  0  0  0
   11.8923   14.5417   25.1773 C   0  0  0  0  0  0  0  0  0  0  0  0
   12.2935   13.8223   24.0286 N   0  0  0  0  0  0  0  0  0  0  0  0
   11.1920   13.2683   23.4255 C   0  0  0  0  0  0  0  0  0  0  0  0
   11.2294   13.0011   22.2435 O   0  0  0  0  0  0  0  0  0  0  0  0
    7.8686   12.9652   25.0364 C   0  0  0  0  0  0  0  0  0  0  0  0
  1  2  1  0
  2  3  1  0
  3  4  1  0
  4  5  1  0
  5  6  2  0
  5  7  1  0
  7  8  1  0
  8  9  2  0
  9 10  1  0
 10 11  2  0
 11 12  1  0
 11 13  1  0
 13 14  1  0
 14 15  1  0
 15 16  2  0
 15 17  1  0
 17 18  1  0
 18 19  1  0
 19 20  2  0
 13 21  2  0
 21  8  1  0
 19 14  1  0
M  END
>  <alias>  (644) 
None

>  <rmsd(smina/fragmenstein)>  (644) 
2.004

>  <smiles>  (644) 
CSSCC(=O)Nc1ccc(C)c(N2C(=O)CNC2=O)c1

>  <gnina_score>  (644) 
5.146

>  <inspiration_score>  (644) 
None

>  <energy_score>  (644) 
-24.62746

>  <distance_score>  (644) 
1.636096

>  <gnina_score_min>  (644) 
5.308

>  <inchikey>  (644) 
NYIXDNXVKQSQMM-UHFFFAOYSA-N

>  <exports>  (644) 
['/opt/xchem-fragalysis-2/maxwin/BulkDock/OUTPUTS/openbind_a71ev2a_c2_elabs_1LOUU54.sdf', '/opt/xchem-fragalysis-2/maxwin/BulkDock/OUTPUTS/openbind_a71ev2a_c2_elabs_1LSYIDY.sdf']

>  <name>  (644) 
P546135

>  <ref_pdb>  (644) 
A0884a

>  <subsites>  (644) 
None

>  <HIPPO Pose ID>  (644) 
546135

>  <ref_mols>  (644) 
A0884a

>  <HIPPO Compound ID>  (644) 
384760

>  <tags>  (644) 
openbind_a71ev2a_c2_elabs,syndirella_product,openbind_a71ev2a_c2_elabs_fragonly_scored_top80percent,openbind_a71ev2a_c2_elabs_scored,BulkDock Fragalysis export,openbind_a71ev2a_c2_elabs_scored_top80percent,openbind_a71ev2a_c2_elabs_activefrags_only_scored_5.2plus,syndirella_placed

>  <smina_score_min>  (644) 
-5.957

$$$$
P546137
     RDKit          3D

 21 22  0  0  0  0  0  0  0  0999 V2000
    3.4738    9.0044   29.0396 C   0  0  0  0  0  0  0  0  0  0  0  0
    2.5911   10.5902   29.0865 S   0  0  0  0  0  0  0  0  0  0  0  0
    4.0881   11.9340   29.5337 S   0  0  0  0  0  0  0  0  0  0  0  0
    4.6400   12.5514   27.9092 C   0  0  0  0  0  0  0  0  0  0  0  0
    5.6500   11.6251   27.2254 C   0  0  0  0  0  0  0  0  0  0  0  0
    5.7951   10.4955   27.4969 O   0  0  0  0  0  0  0  0  0  0  0  0
    6.3307   12.4968   26.1169 N   0  0  0  0  0  0  0  0  0  0  0  0
    7.3558   12.1842   25.2196 C   0  0  0  0  0  0  0  0  0  0  0  0
    7.7155   10.8422   25.0485 C   0  0  0  0  0  0  0  0  0  0  0  0
    8.7519   10.4904   24.1927 C   0  0  0  0  0  0  0  0  0  0  0  0
    9.4743   11.4886   23.5645 C   0  0  0  0  0  0  0  0  0  0  0  0
   10.4633   11.1316   22.7432 F   0  0  0  0  0  0  0  0  0  0  0  0
    9.1634   12.8420   23.7388 C   0  0  0  0  0  0  0  0  0  0  0  0
   10.0390   13.8385   23.2301 N   0  0  0  0  0  0  0  0  0  0  0  0
    9.9075   14.3216   21.8698 C   0  0  0  0  0  0  0  0  0  0  0  0
   11.2779   14.8846   21.5218 C   0  0  0  0  0  0  0  0  0  0  0  0
   12.1373   14.3622   22.5396 N   0  0  0  0  0  0  0  0  0  0  0  0
   11.4072   13.7963   23.5673 C   0  0  0  0  0  0  0  0  0  0  0  0
   11.8873   13.3771   24.6085 O   0  0  0  0  0  0  0  0  0  0  0  0
    8.0383   13.2018   24.5131 C   0  0  0  0  0  0  0  0  0  0  0  0
    7.6660   14.6527   24.6638 C   0  0  0  0  0  0  0  0  0  0  0  0
  1  2  1  0
  2  3  1  0
  3  4  1  0
  4  5  1  0
  5  6  2  0
  5  7  1  0
  7  8  1  0
  8  9  2  0
  9 10  1  0
 10 11  2  0
 11 12  1  0
 11 13  1  0
 13 14  1  0
 14 15  1  0
 15 16  1  0
 16 17  1  0
 17 18  1  0
 18 19  2  0
 13 20  2  0
 20 21  1  0
 20  8  1  0
 18 14  1  0
M  END
>  <alias>  (645) 
None

>  <rmsd(smina/fragmenstein)>  (645) 
0.361

>  <smiles>  (645) 
CSSCC(=O)Nc1ccc(F)c(N2CCNC2=O)c1C

>  <gnina_score>  (645) 
5.279

>  <inspiration_score>  (645) 
None

>  <energy_score>  (645) 
-27.172481

>  <distance_score>  (645) 
1.212238

>  <gnina_score_min>  (645) 
5.224

>  <inchikey>  (645) 
NIZMNPXOJPURRZ-UHFFFAOYSA-N

>  <exports>  (645) 
['/opt/xchem-fragalysis-2/maxwin/BulkDock/OUTPUTS/openbind_a71ev2a_c2_elabs_1LOUU54.sdf', '/opt/xchem-fragalysis-2/maxwin/BulkDock/OUTPUTS/openbind_a71ev2a_c2_elabs_1LSYIDY.sdf']

>  <name>  (645) 
P546137

>  <ref_pdb>  (645) 
A0884a

>  <subsites>  (645) 
None

>  <HIPPO Pose ID>  (645) 
546137

>  <ref_mols>  (645) 
A0884a

>  <HIPPO Compound ID>  (645) 
384763

>  <tags>  (645) 
openbind_a71ev2a_c2_elabs,syndirella_product,openbind_a71ev2a_c2_elabs_fragonly_scored_top80percent,openbind_a71ev2a_c2_elabs_scored,BulkDock Fragalysis export,openbind_a71ev2a_c2_elabs_scored_top80percent,openbind_a71ev2a_c2_elabs_activefrags_only_scored_5.2plus,syndirella_placed

>  <smina_score_min>  (645) 
-5.792

$$$$
P546138
     RDKit          3D

 21 22  0  0  0  0  0  0  0  0999 V2000
    4.9666   10.9101   30.5508 C   0  0  0  0  0  0  0  0  0  0  0  0
    4.0007   12.4315   30.3657 S   0  0  0  0  0  0  0  0  0  0  0  0
    3.1864   12.2277   28.4856 S   0  0  0  0  0  0  0  0  0  0  0  0
    4.4701   12.9173   27.3940 C   0  0  0  0  0  0  0  0  0  0  0  0
    5.5142   11.8775   26.9687 C   0  0  0  0  0  0  0  0  0  0  0  0
    5.6054   10.7993   27.4155 O   0  0  0  0  0  0  0  0  0  0  0  0
    6.3784   12.6006   25.8841 N   0  0  0  0  0  0  0  0  0  0  0  0
    7.4221   12.1263   25.0997 C   0  0  0  0  0  0  0  0  0  0  0  0
    7.7736   10.7825   25.0626 C   0  0  0  0  0  0  0  0  0  0  0  0
    8.8322   10.3609   24.2539 C   0  0  0  0  0  0  0  0  0  0  0  0
    9.5599   11.2820   23.5040 C   0  0  0  0  0  0  0  0  0  0  0  0
    9.1909   12.6263   23.5114 C   0  0  0  0  0  0  0  0  0  0  0  0
    9.8255   13.5616   22.6423 N   0  0  0  0  0  0  0  0  0  0  0  0
   11.2132   13.7178   22.7105 C   0  0  0  0  0  0  0  0  0  0  0  0
   11.9420   13.1781   23.5470 O   0  0  0  0  0  0  0  0  0  0  0  0
   11.8189   14.7506   21.8039 C   0  0  0  0  0  0  0  0  0  0  0  0
   10.9448   14.9923   20.6067 C   0  0  0  0  0  0  0  0  0  0  0  0
    9.6023   15.2389   21.0212 N   0  0  0  0  0  0  0  0  0  0  0  0
    8.9875   14.3279   21.8252 C   0  0  0  0  0  0  0  0  0  0  0  0
    7.7651   14.2097   21.7454 O   0  0  0  0  0  0  0  0  0  0  0  0
    8.1143   13.0385   24.3093 C   0  0  0  0  0  0  0  0  0  0  0  0
  1  2  1  0
  2  3  1  0
  3  4  1  0
  4  5  1  0
  5  6  2  0
  5  7  1  0
  7  8  1  0
  8  9  2  0
  9 10  1  0
 10 11  2  0
 11 12  1  0
 12 13  1  0
 13 14  1  0
 14 15  2  0
 14 16  1  0
 16 17  1  0
 17 18  1  0
 18 19  1  0
 19 20  2  0
 12 21  2  0
 21  8  1  0
 19 13  1  0
M  END
>  <alias>  (646) 
None

>  <rmsd(smina/fragmenstein)>  (646) 
0.792

>  <smiles>  (646) 
CSSCC(=O)Nc1cccc(N2C(=O)CCNC2=O)c1

>  <gnina_score>  (646) 
5.153

>  <inspiration_score>  (646) 
None

>  <energy_score>  (646) 
-36.81687

>  <distance_score>  (646) 
1.400983

>  <gnina_score_min>  (646) 
5.332

>  <inchikey>  (646) 
MMDNYNZMVVOEFZ-UHFFFAOYSA-N

>  <exports>  (646) 
['/opt/xchem-fragalysis-2/maxwin/BulkDock/OUTPUTS/openbind_a71ev2a_c2_elabs_1LOUU54.sdf', '/opt/xchem-fragalysis-2/maxwin/BulkDock/OUTPUTS/openbind_a71ev2a_c2_elabs_1LSYIDY.sdf']

>  <name>  (646) 
P546138

>  <ref_pdb>  (646) 
A0884a

>  <subsites>  (646) 
None

>  <HIPPO Pose ID>  (646) 
546138

>  <ref_mols>  (646) 
A0884a

>  <HIPPO Compound ID>  (646) 
384766

>  <tags>  (646) 
openbind_a71ev2a_c2_elabs,syndirella_product,openbind_a71ev2a_c2_elabs_fragonly_scored_top80percent,openbind_a71ev2a_c2_elabs_scored,BulkDock Fragalysis export,openbind_a71ev2a_c2_elabs_scored_top80percent,openbind_a71ev2a_c2_elabs_activefrags_only_scored_5.2plus,syndirella_placed

>  <smina_score_min>  (646) 
-6.785

$$$$
P546139
     RDKit          3D

 21 22  0  0  0  0  0  0  0  0999 V2000
    0.9236   13.9179   27.6554 C   0  0  0  0  0  0  0  0  0  0  0  0
    2.1606   14.1375   28.9620 S   0  0  0  0  0  0  0  0  0  0  0  0
    3.3714   12.4984   28.6775 S   0  0  0  0  0  0  0  0  0  0  0  0
    4.5340   13.1004   27.4133 C   0  0  0  0  0  0  0  0  0  0  0  0
    5.4410   11.9753   26.8971 C   0  0  0  0  0  0  0  0  0  0  0  0
    5.3337   10.8455   27.1869 O   0  0  0  0  0  0  0  0  0  0  0  0
    6.4095   12.6749   25.8840 N   0  0  0  0  0  0  0  0  0  0  0  0
    7.4616   12.1524   25.1270 C   0  0  0  0  0  0  0  0  0  0  0  0
    7.6362   10.7717   25.0592 C   0  0  0  0  0  0  0  0  0  0  0  0
    8.6448   10.2275   24.2718 C   0  0  0  0  0  0  0  0  0  0  0  0
    9.5378   11.0524   23.6096 C   0  0  0  0  0  0  0  0  0  0  0  0
    9.4270   12.4381   23.7260 C   0  0  0  0  0  0  0  0  0  0  0  0
   10.5022   13.1823   23.2076 N   0  0  0  0  0  0  0  0  0  0  0  0
   11.4225   13.8199   23.9930 C   0  0  0  0  0  0  0  0  0  0  0  0
   11.5199   13.8028   25.2134 O   0  0  0  0  0  0  0  0  0  0  0  0
   12.3067   14.6599   23.0967 C   0  0  0  0  0  0  0  0  0  0  0  0
   11.6525   14.5265   21.8511 N   0  0  0  0  0  0  0  0  0  0  0  0
   10.4779   13.8413   22.0181 C   0  0  0  0  0  0  0  0  0  0  0  0
    9.5525   13.9720   21.2403 O   0  0  0  0  0  0  0  0  0  0  0  0
    8.3345   13.0059   24.4202 C   0  0  0  0  0  0  0  0  0  0  0  0
    8.1292   14.4916   24.4372 C   0  0  0  0  0  0  0  0  0  0  0  0
  1  2  1  0
  2  3  1  0
  3  4  1  0
  4  5  1  0
  5  6  2  0
  5  7  1  0
  7  8  1  0
  8  9  2  0
  9 10  1  0
 10 11  2  0
 11 12  1  0
 12 13  1  0
 13 14  1  0
 14 15  2  0
 14 16  1  0
 16 17  1  0
 17 18  1  0
 18 19  2  0
 12 20  2  0
 20 21  1  0
 20  8  1  0
 18 13  1  0
M  END
>  <alias>  (647) 
None

>  <rmsd(smina/fragmenstein)>  (647) 
0.797

>  <smiles>  (647) 
CSSCC(=O)Nc1cccc(N2C(=O)CNC2=O)c1C

>  <gnina_score>  (647) 
5.22

>  <inspiration_score>  (647) 
None

>  <energy_score>  (647) 
-22.995924

>  <distance_score>  (647) 
1.546256

>  <gnina_score_min>  (647) 
5.346

>  <inchikey>  (647) 
XIDXCVVPFHKEIO-UHFFFAOYSA-N

>  <exports>  (647) 
['/opt/xchem-fragalysis-2/maxwin/BulkDock/OUTPUTS/openbind_a71ev2a_c2_elabs_1LOUU54.sdf', '/opt/xchem-fragalysis-2/maxwin/BulkDock/OUTPUTS/openbind_a71ev2a_c2_elabs_1LSYIDY.sdf']

>  <name>  (647) 
P546139

>  <ref_pdb>  (647) 
A0884a

>  <subsites>  (647) 
None

>  <HIPPO Pose ID>  (647) 
546139

>  <ref_mols>  (647) 
A0884a

>  <HIPPO Compound ID>  (647) 
384767

>  <tags>  (647) 
openbind_a71ev2a_c2_elabs,syndirella_product,openbind_a71ev2a_c2_elabs_fragonly_scored_top80percent,openbind_a71ev2a_c2_elabs_scored,BulkDock Fragalysis export,openbind_a71ev2a_c2_elabs_scored_top80percent,openbind_a71ev2a_c2_elabs_activefrags_only_scored_5.2plus,syndirella_placed

>  <smina_score_min>  (647) 
-6.132

$$$$
P546140
     RDKit          3D

 21 22  0  0  0  0  0  0  0  0999 V2000
    5.7961   16.5290   27.5733 C   0  0  0  0  0  0  0  0  0  0  0  0
    6.8587   15.1171   27.9761 S   0  0  0  0  0  0  0  0  0  0  0  0
    5.5576   13.8330   28.9248 S   0  0  0  0  0  0  0  0  0  0  0  0
    4.7270   12.9590   27.5617 C   0  0  0  0  0  0  0  0  0  0  0  0
    5.6550   11.9290   26.9231 C   0  0  0  0  0  0  0  0  0  0  0  0
    5.7000   10.8092   27.2627 O   0  0  0  0  0  0  0  0  0  0  0  0
    6.4158   12.6698   25.7799 N   0  0  0  0  0  0  0  0  0  0  0  0
    7.4211   12.2187   24.9162 C   0  0  0  0  0  0  0  0  0  0  0  0
    7.7729   10.8683   24.9207 C   0  0  0  0  0  0  0  0  0  0  0  0
    8.8373   10.4225   24.1513 C   0  0  0  0  0  0  0  0  0  0  0  0
    9.5990   11.3403   23.4420 C   0  0  0  0  0  0  0  0  0  0  0  0
    9.2727   12.7056   23.4144 C   0  0  0  0  0  0  0  0  0  0  0  0
   10.2203   13.5622   22.7620 N   0  0  0  0  0  0  0  0  0  0  0  0
    9.7997   14.4791   21.7091 C   0  0  0  0  0  0  0  0  0  0  0  0
   10.9044   14.8799   20.7489 C   0  0  0  0  0  0  0  0  0  0  0  0
   12.1393   15.2396   21.5296 C   0  0  0  0  0  0  0  0  0  0  0  0
   12.4382   14.2899   22.5581 N   0  0  0  0  0  0  0  0  0  0  0  0
   11.5020   13.6324   23.2945 C   0  0  0  0  0  0  0  0  0  0  0  0
   11.8490   13.1423   24.3686 O   0  0  0  0  0  0  0  0  0  0  0  0
    8.1060   13.1444   24.0824 C   0  0  0  0  0  0  0  0  0  0  0  0
    7.6463   14.5760   24.0243 C   0  0  0  0  0  0  0  0  0  0  0  0
  1  2  1  0
  2  3  1  0
  3  4  1  0
  4  5  1  0
  5  6  2  0
  5  7  1  0
  7  8  1  0
  8  9  2  0
  9 10  1  0
 10 11  2  0
 11 12  1  0
 12 13  1  0
 13 14  1  0
 14 15  1  0
 15 16  1  0
 16 17  1  0
 17 18  1  0
 18 19  2  0
 12 20  2  0
 20 21  1  0
 20  8  1  0
 18 13  1  0
M  END
>  <alias>  (648) 
None

>  <rmsd(smina/fragmenstein)>  (648) 
0.382

>  <smiles>  (648) 
CSSCC(=O)Nc1cccc(N2CCCNC2=O)c1C

>  <gnina_score>  (648) 
5.227

>  <inspiration_score>  (648) 
None

>  <energy_score>  (648) 
-45.791274

>  <distance_score>  (648) 
1.101061

>  <gnina_score_min>  (648) 
5.255

>  <inchikey>  (648) 
KALURUJREROAOR-UHFFFAOYSA-N

>  <exports>  (648) 
['/opt/xchem-fragalysis-2/maxwin/BulkDock/OUTPUTS/openbind_a71ev2a_c2_elabs_1LOUU54.sdf', '/opt/xchem-fragalysis-2/maxwin/BulkDock/OUTPUTS/openbind_a71ev2a_c2_elabs_1LSYIDY.sdf']

>  <name>  (648) 
P546140

>  <ref_pdb>  (648) 
A0884a

>  <subsites>  (648) 
None

>  <HIPPO Pose ID>  (648) 
546140

>  <ref_mols>  (648) 
A0884a

>  <HIPPO Compound ID>  (648) 
384768

>  <tags>  (648) 
openbind_a71ev2a_c2_elabs,syndirella_product,openbind_a71ev2a_c2_elabs_fragonly_scored_top80percent,openbind_a71ev2a_c2_elabs_scored,BulkDock Fragalysis export,openbind_a71ev2a_c2_elabs_scored_top80percent,openbind_a71ev2a_c2_elabs_activefrags_only_scored_5.2plus,syndirella_placed

>  <smina_score_min>  (648) 
-6.117

$$$$
P546141
     RDKit          3D

 21 22  0  0  0  0  0  0  0  0999 V2000
    6.1916   17.5088   27.8222 C   0  0  0  0  0  0  0  0  0  0  0  0
    7.2179   16.0125   27.8564 S   0  0  0  0  0  0  0  0  0  0  0  0
    6.0252   14.6965   28.9011 S   0  0  0  0  0  0  0  0  0  0  0  0
    4.9075   14.0297   27.6258 C   0  0  0  0  0  0  0  0  0  0  0  0
    5.4979   12.7766   26.9814 C   0  0  0  0  0  0  0  0  0  0  0  0
    5.0229   11.7134   27.1109 O   0  0  0  0  0  0  0  0  0  0  0  0
    6.7072   13.2450   26.1118 N   0  0  0  0  0  0  0  0  0  0  0  0
    7.5960   12.5129   25.3341 C   0  0  0  0  0  0  0  0  0  0  0  0
    7.4830   11.1315   25.1819 C   0  0  0  0  0  0  0  0  0  0  0  0
    8.3795   10.4497   24.3592 C   0  0  0  0  0  0  0  0  0  0  0  0
    9.3777   11.1470   23.6951 C   0  0  0  0  0  0  0  0  0  0  0  0
   10.2082   10.4691   22.8973 F   0  0  0  0  0  0  0  0  0  0  0  0
    9.5424   12.5166   23.8918 C   0  0  0  0  0  0  0  0  0  0  0  0
   10.6484   13.1597   23.3131 N   0  0  0  0  0  0  0  0  0  0  0  0
   11.5469   13.9023   24.0262 C   0  0  0  0  0  0  0  0  0  0  0  0
   11.6383   14.0101   25.2433 O   0  0  0  0  0  0  0  0  0  0  0  0
   12.3986   14.6824   23.0466 C   0  0  0  0  0  0  0  0  0  0  0  0
   11.7351   14.4204   21.8267 N   0  0  0  0  0  0  0  0  0  0  0  0
   10.5684   13.7538   22.0917 C   0  0  0  0  0  0  0  0  0  0  0  0
    9.5884   13.8881   21.3822 O   0  0  0  0  0  0  0  0  0  0  0  0
    8.6356   13.2035   24.7027 C   0  0  0  0  0  0  0  0  0  0  0  0
  1  2  1  0
  2  3  1  0
  3  4  1  0
  4  5  1  0
  5  6  2  0
  5  7  1  0
  7  8  1  0
  8  9  2  0
  9 10  1  0
 10 11  2  0
 11 12  1  0
 11 13  1  0
 13 14  1  0
 14 15  1  0
 15 16  2  0
 15 17  1  0
 17 18  1  0
 18 19  1  0
 19 20  2  0
 13 21  2  0
 21  8  1  0
 19 14  1  0
M  END
>  <alias>  (649) 
None

>  <rmsd(smina/fragmenstein)>  (649) 
1.003

>  <smiles>  (649) 
CSSCC(=O)Nc1ccc(F)c(N2C(=O)CNC2=O)c1

>  <gnina_score>  (649) 
5.464

>  <inspiration_score>  (649) 
None

>  <energy_score>  (649) 
-42.686943

>  <distance_score>  (649) 
1.571446

>  <gnina_score_min>  (649) 
5.339

>  <inchikey>  (649) 
HWZUOVURURLTDK-UHFFFAOYSA-N

>  <exports>  (649) 
['/opt/xchem-fragalysis-2/maxwin/BulkDock/OUTPUTS/openbind_a71ev2a_c2_elabs_1LOUU54.sdf', '/opt/xchem-fragalysis-2/maxwin/BulkDock/OUTPUTS/openbind_a71ev2a_c2_elabs_1LSYIDY.sdf']

>  <name>  (649) 
P546141

>  <ref_pdb>  (649) 
A0884a

>  <subsites>  (649) 
None

>  <HIPPO Pose ID>  (649) 
546141

>  <ref_mols>  (649) 
A0884a

>  <HIPPO Compound ID>  (649) 
384772

>  <tags>  (649) 
openbind_a71ev2a_c2_elabs,syndirella_product,openbind_a71ev2a_c2_elabs_fragonly_scored_top80percent,openbind_a71ev2a_c2_elabs_scored,BulkDock Fragalysis export,openbind_a71ev2a_c2_elabs_scored_top80percent,openbind_a71ev2a_c2_elabs_activefrags_only_scored_5.2plus,syndirella_placed

>  <smina_score_min>  (649) 
-6.203

$$$$
P546142
     RDKit          3D

 21 22  0  0  0  0  0  0  0  0999 V2000
   12.4101   15.8453   23.1454 O   0  0  0  0  0  0  0  0  0  0  0  0
   12.0194   14.8122   22.6434 C   0  0  0  0  0  0  0  0  0  0  0  0
   12.5124   13.4940   23.0555 C   0  0  0  0  0  0  0  0  0  0  0  0
   11.3610   12.9058   23.7939 C   0  0  0  0  0  0  0  0  0  0  0  0
   10.1216   12.9419   23.0415 N   0  0  0  0  0  0  0  0  0  0  0  0
    9.0202   12.3503   23.7351 C   0  0  0  0  0  0  0  0  0  0  0  0
    8.0593   13.1876   24.3268 C   0  0  0  0  0  0  0  0  0  0  0  0
    7.0648   12.6631   25.1547 C   0  0  0  0  0  0  0  0  0  0  0  0
    6.1242   13.5291   25.7024 N   0  0  0  0  0  0  0  0  0  0  0  0
    4.9692   13.2599   26.7278 C   0  0  0  0  0  0  0  0  0  0  0  0
    4.5927   12.2543   27.2018 O   0  0  0  0  0  0  0  0  0  0  0  0
    4.3495   14.6378   27.0234 C   0  0  2  0  0  0  0  0  0  0  0  0
    5.0805   15.6506   26.4719 F   0  0  0  0  0  0  0  0  0  0  0  0
    4.2917   14.8792   28.7810 Cl  0  0  0  0  0  0  0  0  0  0  0  0
    7.0263   11.2957   25.4027 C   0  0  0  0  0  0  0  0  0  0  0  0
    7.9498   10.4531   24.7894 C   0  0  0  0  0  0  0  0  0  0  0  0
    8.9357   10.9674   23.9528 C   0  0  0  0  0  0  0  0  0  0  0  0
    9.9343    9.8203   23.1547 Cl  0  0  0  0  0  0  0  0  0  0  0  0
    9.9150   13.9777   22.1441 C   0  0  0  0  0  0  0  0  0  0  0  0
    8.8211   14.2693   21.6776 O   0  0  0  0  0  0  0  0  0  0  0  0
   10.9686   14.7596   21.8087 N   0  0  0  0  0  0  0  0  0  0  0  0
  1  2  2  0
  2  3  1  0
  3  4  1  0
  4  5  1  0
  5  6  1  0
  6  7  2  0
  7  8  1  0
  8  9  1  0
  9 10  1  0
 10 11  2  0
 10 12  1  0
 12 13  1  6
 12 14  1  0
  8 15  2  0
 15 16  1  0
 16 17  2  0
 17 18  1  0
  5 19  1  0
 19 20  2  0
 19 21  1  0
 21  2  1  0
 17  6  1  0
M  END
>  <alias>  (650) 
None

>  <rmsd(smina/fragmenstein)>  (650) 
1.628

>  <smiles>  (650) 
O=C1CCN(c2cc(NC(=O)[C@H](F)Cl)ccc2Cl)C(=O)N1

>  <gnina_score>  (650) 
5.583

>  <inspiration_score>  (650) 
None

>  <energy_score>  (650) 
-34.094941

>  <distance_score>  (650) 
1.922993

>  <gnina_score_min>  (650) 
5.415

>  <inchikey>  (650) 
XVQKSLDXACDBQC-JTQLQIEISA-N

>  <exports>  (650) 
['/opt/xchem-fragalysis-2/maxwin/BulkDock/OUTPUTS/openbind_a71ev2a_c2_elabs_1LOUU54.sdf', '/opt/xchem-fragalysis-2/maxwin/BulkDock/OUTPUTS/openbind_a71ev2a_c2_elabs_1LSYIDY.sdf']

>  <name>  (650) 
P546142

>  <ref_pdb>  (650) 
A0884a

>  <subsites>  (650) 
None

>  <HIPPO Pose ID>  (650) 
546142

>  <ref_mols>  (650) 
A0884a

>  <HIPPO Compound ID>  (650) 
384774

>  <tags>  (650) 
openbind_a71ev2a_c2_elabs,syndirella_product,openbind_a71ev2a_c2_elabs_fragonly_scored_top80percent,openbind_a71ev2a_c2_elabs_scored,BulkDock Fragalysis export,openbind_a71ev2a_c2_elabs_scored_top80percent,openbind_a71ev2a_c2_elabs_activefrags_only_scored_5.2plus,syndirella_placed

>  <smina_score_min>  (650) 
-6.492

$$$$
P546145
     RDKit          3D

 21 22  0  0  0  0  0  0  0  0999 V2000
    7.9768   14.4107   24.6409 C   0  0  0  0  0  0  0  0  0  0  0  0
    8.3529   12.9673   24.4644 C   0  0  0  0  0  0  0  0  0  0  0  0
    7.6595   11.9349   25.1272 C   0  0  0  0  0  0  0  0  0  0  0  0
    6.6826   12.1041   26.1134 N   0  0  0  0  0  0  0  0  0  0  0  0
    6.4621   13.2702   27.1373 C   0  0  0  0  0  0  0  0  0  0  0  0
    7.1118   14.2224   27.3558 O   0  0  0  0  0  0  0  0  0  0  0  0
    5.2003   12.9042   27.9289 C   0  0  1  0  0  0  0  0  0  0  0  0
    4.4666   11.9243   27.3164 F   0  0  0  0  0  0  0  0  0  0  0  0
    5.7071   12.2929   29.5196 Cl  0  0  0  0  0  0  0  0  0  0  0  0
    7.9368   10.5970   24.8189 C   0  0  0  0  0  0  0  0  0  0  0  0
    8.9540   10.2601   23.9363 C   0  0  0  0  0  0  0  0  0  0  0  0
    9.6940   11.2635   23.3375 C   0  0  0  0  0  0  0  0  0  0  0  0
    9.4067   12.6104   23.5868 C   0  0  0  0  0  0  0  0  0  0  0  0
   10.1961   13.5727   22.8863 N   0  0  0  0  0  0  0  0  0  0  0  0
    9.6462   14.1774   21.7508 C   0  0  0  0  0  0  0  0  0  0  0  0
    8.4838   14.0014   21.3687 O   0  0  0  0  0  0  0  0  0  0  0  0
   10.5379   15.1375   21.0028 C   0  0  0  0  0  0  0  0  0  0  0  0
   11.9821   14.7529   21.1745 C   0  0  0  0  0  0  0  0  0  0  0  0
   12.2853   14.5751   22.5597 N   0  0  0  0  0  0  0  0  0  0  0  0
   11.4985   13.7777   23.3285 C   0  0  0  0  0  0  0  0  0  0  0  0
   11.9864   13.3333   24.3628 O   0  0  0  0  0  0  0  0  0  0  0  0
  1  2  1  0
  2  3  2  0
  3  4  1  0
  4  5  1  0
  5  6  2  0
  5  7  1  0
  7  8  1  6
  7  9  1  0
  3 10  1  0
 10 11  2  0
 11 12  1  0
 12 13  2  0
 13 14  1  0
 14 15  1  0
 15 16  2  0
 15 17  1  0
 17 18  1  0
 18 19  1  0
 19 20  1  0
 20 21  2  0
 13  2  1  0
 20 14  1  0
M  END
>  <alias>  (651) 
None

>  <rmsd(smina/fragmenstein)>  (651) 
0.626

>  <smiles>  (651) 
Cc1c(NC(=O)[C@@H](F)Cl)cccc1N1C(=O)CCNC1=O

>  <gnina_score>  (651) 
5.222

>  <inspiration_score>  (651) 
None

>  <energy_score>  (651) 
-14.957282

>  <distance_score>  (651) 
1.326426

>  <gnina_score_min>  (651) 
5.235

>  <inchikey>  (651) 
JNZLUWDFNBFADV-LLVKDONJSA-N

>  <exports>  (651) 
['/opt/xchem-fragalysis-2/maxwin/BulkDock/OUTPUTS/openbind_a71ev2a_c2_elabs_1LOUU54.sdf', '/opt/xchem-fragalysis-2/maxwin/BulkDock/OUTPUTS/openbind_a71ev2a_c2_elabs_1LSYIDY.sdf']

>  <name>  (651) 
P546145

>  <ref_pdb>  (651) 
A0884a

>  <subsites>  (651) 
None

>  <HIPPO Pose ID>  (651) 
546145

>  <ref_mols>  (651) 
A0884a

>  <HIPPO Compound ID>  (651) 
384776

>  <tags>  (651) 
openbind_a71ev2a_c2_elabs,syndirella_product,openbind_a71ev2a_c2_elabs_fragonly_scored_top80percent,openbind_a71ev2a_c2_elabs_scored,BulkDock Fragalysis export,openbind_a71ev2a_c2_elabs_scored_top80percent,openbind_a71ev2a_c2_elabs_activefrags_only_scored_5.2plus,syndirella_placed

>  <smina_score_min>  (651) 
-7.113

$$$$
P546150
     RDKit          3D

 21 22  0  0  0  0  0  0  0  0999 V2000
    7.9340   14.6375   24.1164 C   0  0  0  0  0  0  0  0  0  0  0  0
    8.2313   13.1731   24.2552 C   0  0  0  0  0  0  0  0  0  0  0  0
    7.3496   12.3554   25.0077 C   0  0  0  0  0  0  0  0  0  0  0  0
    6.3010   12.9390   25.7264 N   0  0  0  0  0  0  0  0  0  0  0  0
    5.3251   12.3201   26.7812 C   0  0  0  0  0  0  0  0  0  0  0  0
    5.2052   11.2125   27.1468 O   0  0  0  0  0  0  0  0  0  0  0  0
    4.4735   13.4926   27.2961 C   0  0  2  0  0  0  0  0  0  0  0  0
    4.8675   14.6878   26.7638 F   0  0  0  0  0  0  0  0  0  0  0  0
    4.6269   13.5843   29.0612 Cl  0  0  0  0  0  0  0  0  0  0  0  0
    7.5389   10.9748   25.0582 C   0  0  0  0  0  0  0  0  0  0  0  0
    8.6052   10.3997   24.3827 C   0  0  0  0  0  0  0  0  0  0  0  0
    9.5371   11.2108   23.7565 C   0  0  0  0  0  0  0  0  0  0  0  0
   10.5784   10.6196   23.1726 F   0  0  0  0  0  0  0  0  0  0  0  0
    9.4045   12.5995   23.7146 C   0  0  0  0  0  0  0  0  0  0  0  0
   10.4827   13.3662   23.2124 N   0  0  0  0  0  0  0  0  0  0  0  0
   10.5009   14.0673   22.0420 C   0  0  0  0  0  0  0  0  0  0  0  0
    9.5796   14.2244   21.2583 O   0  0  0  0  0  0  0  0  0  0  0  0
   11.8788   14.6487   21.8244 C   0  0  0  0  0  0  0  0  0  0  0  0
   12.5456   14.1926   22.9927 N   0  0  0  0  0  0  0  0  0  0  0  0
   11.7250   13.4254   23.7783 C   0  0  0  0  0  0  0  0  0  0  0  0
   12.0986   12.9694   24.8439 O   0  0  0  0  0  0  0  0  0  0  0  0
  1  2  1  0
  2  3  2  0
  3  4  1  0
  4  5  1  0
  5  6  2  0
  5  7  1  0
  7  8  1  6
  7  9  1  0
  3 10  1  0
 10 11  2  0
 11 12  1  0
 12 13  1  0
 12 14  2  0
 14 15  1  0
 15 16  1  0
 16 17  2  0
 16 18  1  0
 18 19  1  0
 19 20  1  0
 20 21  2  0
 14  2  1  0
 20 15  1  0
M  END
>  <alias>  (652) 
None

>  <rmsd(smina/fragmenstein)>  (652) 
0.763

>  <smiles>  (652) 
Cc1c(NC(=O)[C@H](F)Cl)ccc(F)c1N1C(=O)CNC1=O

>  <gnina_score>  (652) 
5.239

>  <inspiration_score>  (652) 
None

>  <energy_score>  (652) 
-48.034957

>  <distance_score>  (652) 
1.595905

>  <gnina_score_min>  (652) 
5.207

>  <inchikey>  (652) 
WFJGPTXCOQTRPS-JTQLQIEISA-N

>  <exports>  (652) 
['/opt/xchem-fragalysis-2/maxwin/BulkDock/OUTPUTS/openbind_a71ev2a_c2_elabs_1LOUU54.sdf', '/opt/xchem-fragalysis-2/maxwin/BulkDock/OUTPUTS/openbind_a71ev2a_c2_elabs_1LSYIDY.sdf']

>  <name>  (652) 
P546150

>  <ref_pdb>  (652) 
A0884a

>  <subsites>  (652) 
None

>  <HIPPO Pose ID>  (652) 
546150

>  <ref_mols>  (652) 
A0884a

>  <HIPPO Compound ID>  (652) 
384783

>  <tags>  (652) 
openbind_a71ev2a_c2_elabs,syndirella_product,openbind_a71ev2a_c2_elabs_fragonly_scored_top80percent,openbind_a71ev2a_c2_elabs_scored,BulkDock Fragalysis export,openbind_a71ev2a_c2_elabs_scored_top80percent,openbind_a71ev2a_c2_elabs_activefrags_only_scored_5.2plus,syndirella_placed

>  <smina_score_min>  (652) 
-6.482

$$$$
P546160
     RDKit          3D

 21 22  0  0  0  0  0  0  0  0999 V2000
    7.7931   14.4971   23.0511 C   0  0  0  0  0  0  0  0  0  0  0  0
    8.0706   13.0861   23.4875 C   0  0  0  0  0  0  0  0  0  0  0  0
    7.2371   12.4736   24.4553 C   0  0  0  0  0  0  0  0  0  0  0  0
    6.2477   13.2338   25.0919 N   0  0  0  0  0  0  0  0  0  0  0  0
    5.2560   12.8522   26.2454 C   0  0  0  0  0  0  0  0  0  0  0  0
    5.1743   11.8706   26.8839 O   0  0  0  0  0  0  0  0  0  0  0  0
    4.4090   14.1163   26.4863 C   0  0  1  0  0  0  0  0  0  0  0  0
    4.4540   14.9761   25.4261 F   0  0  0  0  0  0  0  0  0  0  0  0
    2.7211   13.6866   26.8168 Cl  0  0  0  0  0  0  0  0  0  0  0  0
    7.4496   11.1434   24.8283 C   0  0  0  0  0  0  0  0  0  0  0  0
    8.4488   10.3933   24.2148 C   0  0  0  0  0  0  0  0  0  0  0  0
    9.3305   11.0062   23.3331 C   0  0  0  0  0  0  0  0  0  0  0  0
    9.2241   12.3866   23.0515 C   0  0  0  0  0  0  0  0  0  0  0  0
   10.4836   13.0490   23.0580 N   0  0  0  0  0  0  0  0  0  0  0  0
   10.9496   14.1269   22.3759 C   0  0  0  0  0  0  0  0  0  0  0  0
   10.6747   14.5265   21.2606 O   0  0  0  0  0  0  0  0  0  0  0  0
   11.8600   14.8070   23.1765 N   0  0  0  0  0  0  0  0  0  0  0  0
   12.0965   14.1409   24.4149 C   0  0  1  0  0  0  0  0  0  0  0  0
   11.8464   14.9363   25.7045 C   0  0  0  0  0  0  0  0  0  0  0  0
   10.9818   13.1769   24.3052 C   0  0  0  0  0  0  0  0  0  0  0  0
   10.4969   12.6561   25.2916 O   0  0  0  0  0  0  0  0  0  0  0  0
  1  2  1  0
  2  3  2  0
  3  4  1  0
  4  5  1  0
  5  6  2  0
  5  7  1  0
  7  8  1  6
  7  9  1  0
  3 10  1  0
 10 11  2  0
 11 12  1  0
 12 13  2  0
 13 14  1  0
 14 15  1  0
 15 16  2  0
 15 17  1  0
 17 18  1  0
 18 19  1  1
 18 20  1  0
 20 21  2  0
 13  2  1  0
 20 14  1  0
M  END
>  <alias>  (653) 
None

>  <rmsd(smina/fragmenstein)>  (653) 
0.539

>  <smiles>  (653) 
Cc1c(NC(=O)[C@@H](F)Cl)cccc1N1C(=O)N[C@@H](C)C1=O

>  <gnina_score>  (653) 
5.294

>  <inspiration_score>  (653) 
None

>  <energy_score>  (653) 
-4.055149

>  <distance_score>  (653) 
1.442124

>  <gnina_score_min>  (653) 
5.255

>  <inchikey>  (653) 
NTAJROBCIBKZQL-OIBJUYFYSA-N

>  <exports>  (653) 
['/opt/xchem-fragalysis-2/maxwin/BulkDock/OUTPUTS/openbind_a71ev2a_c2_elabs_1LOUU54.sdf', '/opt/xchem-fragalysis-2/maxwin/BulkDock/OUTPUTS/openbind_a71ev2a_c2_elabs_1LSYIDY.sdf']

>  <name>  (653) 
P546160

>  <ref_pdb>  (653) 
A0884a

>  <subsites>  (653) 
None

>  <HIPPO Pose ID>  (653) 
546160

>  <ref_mols>  (653) 
A0884a

>  <HIPPO Compound ID>  (653) 
384787

>  <tags>  (653) 
openbind_a71ev2a_c2_elabs,syndirella_product,openbind_a71ev2a_c2_elabs_fragonly_scored_top80percent,openbind_a71ev2a_c2_elabs_scored,BulkDock Fragalysis export,openbind_a71ev2a_c2_elabs_scored_top80percent,openbind_a71ev2a_c2_elabs_activefrags_only_scored_5.2plus,syndirella_placed

>  <smina_score_min>  (653) 
-4.747

$$$$
P546161
     RDKit          3D

 21 22  0  0  0  0  0  0  0  0999 V2000
   13.0775   15.6003   21.5686 O   0  0  0  0  0  0  0  0  0  0  0  0
   12.2033   14.9465   22.1144 C   0  0  0  0  0  0  0  0  0  0  0  0
   12.4023   14.1260   23.3452 C   0  0  0  0  0  0  0  0  0  0  0  0
   11.5527   12.9002   23.1838 C   0  0  0  0  0  0  0  0  0  0  0  0
   10.1758   13.3021   23.1126 N   0  0  0  0  0  0  0  0  0  0  0  0
    9.1727   12.5335   23.7543 C   0  0  0  0  0  0  0  0  0  0  0  0
    8.0931   13.1915   24.3545 C   0  0  0  0  0  0  0  0  0  0  0  0
    7.1692   12.4869   25.1300 C   0  0  0  0  0  0  0  0  0  0  0  0
    6.1702   13.2120   25.7688 N   0  0  0  0  0  0  0  0  0  0  0  0
    5.0689   12.7504   26.7804 C   0  0  0  0  0  0  0  0  0  0  0  0
    4.7925   11.6773   27.1650 O   0  0  0  0  0  0  0  0  0  0  0  0
    4.3366   14.0308   27.2153 C   0  0  2  0  0  0  0  0  0  0  0  0
    4.8246   15.1394   26.5841 F   0  0  0  0  0  0  0  0  0  0  0  0
    4.5489   14.2367   28.9647 Cl  0  0  0  0  0  0  0  0  0  0  0  0
    7.2811   11.1042   25.2560 C   0  0  0  0  0  0  0  0  0  0  0  0
    8.3089   10.4315   24.5964 C   0  0  0  0  0  0  0  0  0  0  0  0
    9.2560   11.1446   23.8750 C   0  0  0  0  0  0  0  0  0  0  0  0
   10.2379   10.4617   23.2762 F   0  0  0  0  0  0  0  0  0  0  0  0
    9.8709   14.2873   22.1974 C   0  0  0  0  0  0  0  0  0  0  0  0
    8.7412   14.5745   21.8329 O   0  0  0  0  0  0  0  0  0  0  0  0
   10.9170   14.9823   21.6768 N   0  0  0  0  0  0  0  0  0  0  0  0
  1  2  2  0
  2  3  1  0
  3  4  1  0
  4  5  1  0
  5  6  1  0
  6  7  2  0
  7  8  1  0
  8  9  1  0
  9 10  1  0
 10 11  2  0
 10 12  1  0
 12 13  1  6
 12 14  1  0
  8 15  2  0
 15 16  1  0
 16 17  2  0
 17 18  1  0
  5 19  1  0
 19 20  2  0
 19 21  1  0
 21  2  1  0
 17  6  1  0
M  END
>  <alias>  (654) 
None

>  <rmsd(smina/fragmenstein)>  (654) 
1.512

>  <smiles>  (654) 
O=C1CCN(c2cc(NC(=O)[C@H](F)Cl)ccc2F)C(=O)N1

>  <gnina_score>  (654) 
5.401

>  <inspiration_score>  (654) 
None

>  <energy_score>  (654) 
-46.027772

>  <distance_score>  (654) 
1.847559

>  <gnina_score_min>  (654) 
5.424

>  <inchikey>  (654) 
RLTGBDUXZNUKOV-JTQLQIEISA-N

>  <exports>  (654) 
['/opt/xchem-fragalysis-2/maxwin/BulkDock/OUTPUTS/openbind_a71ev2a_c2_elabs_1LOUU54.sdf', '/opt/xchem-fragalysis-2/maxwin/BulkDock/OUTPUTS/openbind_a71ev2a_c2_elabs_1LSYIDY.sdf']

>  <name>  (654) 
P546161

>  <ref_pdb>  (654) 
A0884a

>  <subsites>  (654) 
None

>  <HIPPO Pose ID>  (654) 
546161

>  <ref_mols>  (654) 
A0884a

>  <HIPPO Compound ID>  (654) 
384788

>  <tags>  (654) 
openbind_a71ev2a_c2_elabs,syndirella_product,openbind_a71ev2a_c2_elabs_fragonly_scored_top80percent,openbind_a71ev2a_c2_elabs_scored,BulkDock Fragalysis export,openbind_a71ev2a_c2_elabs_scored_top80percent,openbind_a71ev2a_c2_elabs_activefrags_only_scored_5.2plus,syndirella_placed

>  <smina_score_min>  (654) 
-7.071

$$$$
P546163
     RDKit          3D

 21 22  0  0  0  0  0  0  0  0999 V2000
    7.8899   14.4651   24.8848 C   0  0  0  0  0  0  0  0  0  0  0  0
    8.3024   13.0505   24.5909 C   0  0  0  0  0  0  0  0  0  0  0  0
    7.6439   11.9446   25.1657 C   0  0  0  0  0  0  0  0  0  0  0  0
    6.6430   12.0119   26.1400 N   0  0  0  0  0  0  0  0  0  0  0  0
    6.4269   13.0371   27.3098 C   0  0  0  0  0  0  0  0  0  0  0  0
    7.0129   14.0177   27.5786 O   0  0  0  0  0  0  0  0  0  0  0  0
    5.1599   12.5965   28.0694 C   0  0  2  0  0  0  0  0  0  0  0  0
    5.0082   13.2343   29.2633 F   0  0  0  0  0  0  0  0  0  0  0  0
    5.1986   10.8391   28.3883 Cl  0  0  0  0  0  0  0  0  0  0  0  0
    7.9765   10.6417   24.7677 C   0  0  0  0  0  0  0  0  0  0  0  0
    9.0083   10.4071   23.8693 C   0  0  0  0  0  0  0  0  0  0  0  0
    9.7081   11.4844   23.3503 C   0  0  0  0  0  0  0  0  0  0  0  0
    9.3702   12.8008   23.6999 C   0  0  0  0  0  0  0  0  0  0  0  0
   10.1209   13.8647   23.0981 N   0  0  0  0  0  0  0  0  0  0  0  0
    9.6238   14.3099   21.7926 C   0  0  0  0  0  0  0  0  0  0  0  0
   10.5369   15.2319   21.0291 C   0  0  0  0  0  0  0  0  0  0  0  0
   11.9326   14.7314   21.1979 C   0  0  0  0  0  0  0  0  0  0  0  0
   12.6880   14.4911   20.2622 O   0  0  0  0  0  0  0  0  0  0  0  0
   12.2886   14.5642   22.5046 N   0  0  0  0  0  0  0  0  0  0  0  0
   11.4786   13.9277   23.4025 C   0  0  0  0  0  0  0  0  0  0  0  0
   11.9748   13.4197   24.4089 O   0  0  0  0  0  0  0  0  0  0  0  0
  1  2  1  0
  2  3  2  0
  3  4  1  0
  4  5  1  0
  5  6  2  0
  5  7  1  0
  7  8  1  1
  7  9  1  0
  3 10  1  0
 10 11  2  0
 11 12  1  0
 12 13  2  0
 13 14  1  0
 14 15  1  0
 15 16  1  0
 16 17  1  0
 17 18  2  0
 17 19  1  0
 19 20  1  0
 20 21  2  0
 13  2  1  0
 20 14  1  0
M  END
>  <alias>  (655) 
None

>  <rmsd(smina/fragmenstein)>  (655) 
0.342

>  <smiles>  (655) 
Cc1c(NC(=O)[C@H](F)Cl)cccc1N1CCC(=O)NC1=O

>  <gnina_score>  (655) 
5.197

>  <inspiration_score>  (655) 
None

>  <energy_score>  (655) 
-15.186231

>  <distance_score>  (655) 
1.089847

>  <gnina_score_min>  (655) 
5.213

>  <inchikey>  (655) 
FFTWSVSGLSMRCD-NSHDSACASA-N

>  <exports>  (655) 
['/opt/xchem-fragalysis-2/maxwin/BulkDock/OUTPUTS/openbind_a71ev2a_c2_elabs_1LOUU54.sdf', '/opt/xchem-fragalysis-2/maxwin/BulkDock/OUTPUTS/openbind_a71ev2a_c2_elabs_1LSYIDY.sdf']

>  <name>  (655) 
P546163

>  <ref_pdb>  (655) 
A0884a

>  <subsites>  (655) 
None

>  <HIPPO Pose ID>  (655) 
546163

>  <ref_mols>  (655) 
A0884a

>  <HIPPO Compound ID>  (655) 
384789

>  <tags>  (655) 
openbind_a71ev2a_c2_elabs,syndirella_product,openbind_a71ev2a_c2_elabs_fragonly_scored_top80percent,openbind_a71ev2a_c2_elabs_scored,BulkDock Fragalysis export,openbind_a71ev2a_c2_elabs_scored_top80percent,openbind_a71ev2a_c2_elabs_activefrags_only_scored_5.2plus,syndirella_placed

>  <smina_score_min>  (655) 
-7.194

$$$$
P546166
     RDKit          3D

 21 22  0  0  0  0  0  0  0  0999 V2000
    9.1548    9.5481   23.8667 C   0  0  0  0  0  0  0  0  0  0  0  0
    8.8590   10.9848   24.0847 C   0  0  0  0  0  0  0  0  0  0  0  0
    7.7462   11.4208   24.8128 C   0  0  0  0  0  0  0  0  0  0  0  0
    7.4387   12.7803   24.8622 C   0  0  0  0  0  0  0  0  0  0  0  0
    6.3108   13.2502   25.5237 N   0  0  0  0  0  0  0  0  0  0  0  0
    5.3404   12.5264   26.5205 C   0  0  0  0  0  0  0  0  0  0  0  0
    5.3060   11.4063   26.8691 O   0  0  0  0  0  0  0  0  0  0  0  0
    4.2834   13.5653   26.9346 C   0  0  1  0  0  0  0  0  0  0  0  0
    3.2470   13.0076   27.6258 F   0  0  0  0  0  0  0  0  0  0  0  0
    5.0627   14.7935   27.9546 Cl  0  0  0  0  0  0  0  0  0  0  0  0
    8.2455   13.7009   24.1966 C   0  0  0  0  0  0  0  0  0  0  0  0
    9.3869   13.2634   23.5313 C   0  0  0  0  0  0  0  0  0  0  0  0
   10.2079   14.1816   22.8379 N   0  0  0  0  0  0  0  0  0  0  0  0
    9.6767   14.5989   21.5384 C   0  0  0  0  0  0  0  0  0  0  0  0
   10.6404   15.3838   20.6958 C   0  0  0  0  0  0  0  0  0  0  0  0
   12.0033   14.7900   20.8692 C   0  0  0  0  0  0  0  0  0  0  0  0
   12.7105   14.4066   19.9430 O   0  0  0  0  0  0  0  0  0  0  0  0
   12.3902   14.7198   22.1756 N   0  0  0  0  0  0  0  0  0  0  0  0
   11.5698   14.1692   23.1138 C   0  0  0  0  0  0  0  0  0  0  0  0
   12.0520   13.6730   24.1339 O   0  0  0  0  0  0  0  0  0  0  0  0
    9.6869   11.9095   23.4664 C   0  0  0  0  0  0  0  0  0  0  0  0
  1  2  1  0
  2  3  2  0
  3  4  1  0
  4  5  1  0
  5  6  1  0
  6  7  2  0
  6  8  1  0
  8  9  1  1
  8 10  1  0
  4 11  2  0
 11 12  1  0
 12 13  1  0
 13 14  1  0
 14 15  1  0
 15 16  1  0
 16 17  2  0
 16 18  1  0
 18 19  1  0
 19 20  2  0
 12 21  2  0
 21  2  1  0
 19 13  1  0
M  END
>  <alias>  (656) 
None

>  <rmsd(smina/fragmenstein)>  (656) 
0.747

>  <smiles>  (656) 
Cc1cc(NC(=O)[C@@H](F)Cl)cc(N2CCC(=O)NC2=O)c1

>  <gnina_score>  (656) 
5.357

>  <inspiration_score>  (656) 
None

>  <energy_score>  (656) 
-26.199068

>  <distance_score>  (656) 
1.344902

>  <gnina_score_min>  (656) 
5.44

>  <inchikey>  (656) 
UZFGZXDYABDYRY-LLVKDONJSA-N

>  <exports>  (656) 
['/opt/xchem-fragalysis-2/maxwin/BulkDock/OUTPUTS/openbind_a71ev2a_c2_elabs_1LOUU54.sdf', '/opt/xchem-fragalysis-2/maxwin/BulkDock/OUTPUTS/openbind_a71ev2a_c2_elabs_1LSYIDY.sdf']

>  <name>  (656) 
P546166

>  <ref_pdb>  (656) 
A0884a

>  <subsites>  (656) 
None

>  <HIPPO Pose ID>  (656) 
546166

>  <ref_mols>  (656) 
A0884a

>  <HIPPO Compound ID>  (656) 
384791

>  <tags>  (656) 
openbind_a71ev2a_c2_elabs,syndirella_product,openbind_a71ev2a_c2_elabs_fragonly_scored_top80percent,openbind_a71ev2a_c2_elabs_scored,BulkDock Fragalysis export,openbind_a71ev2a_c2_elabs_scored_top80percent,openbind_a71ev2a_c2_elabs_activefrags_only_scored_5.2plus,syndirella_placed

>  <smina_score_min>  (656) 
-6.974

$$$$
P546169
     RDKit          3D

 21 22  0  0  0  0  0  0  0  0999 V2000
    9.9499   10.3096   23.0582 C   0  0  0  0  0  0  0  0  0  0  0  0
    9.0546   11.2238   23.8307 C   0  0  0  0  0  0  0  0  0  0  0  0
    8.1231   10.6066   24.6789 C   0  0  0  0  0  0  0  0  0  0  0  0
    7.1852   11.3531   25.3852 C   0  0  0  0  0  0  0  0  0  0  0  0
    7.1719   12.7358   25.2593 C   0  0  0  0  0  0  0  0  0  0  0  0
    6.2314   13.5219   25.9196 N   0  0  0  0  0  0  0  0  0  0  0  0
    5.1106   13.1247   26.9402 C   0  0  0  0  0  0  0  0  0  0  0  0
    4.7645   12.0681   27.3157 O   0  0  0  0  0  0  0  0  0  0  0  0
    4.4800   14.4491   27.4022 C   0  0  2  0  0  0  0  0  0  0  0  0
    5.1155   15.5335   26.8662 F   0  0  0  0  0  0  0  0  0  0  0  0
    4.5892   14.5530   29.1705 Cl  0  0  0  0  0  0  0  0  0  0  0  0
    8.1110   13.3667   24.4382 C   0  0  0  0  0  0  0  0  0  0  0  0
    9.0663   12.6263   23.7236 C   0  0  0  0  0  0  0  0  0  0  0  0
    9.9972   13.3142   22.8785 N   0  0  0  0  0  0  0  0  0  0  0  0
    9.4549   14.2988   21.9496 C   0  0  0  0  0  0  0  0  0  0  0  0
   10.4235   14.7800   20.8919 C   0  0  0  0  0  0  0  0  0  0  0  0
   11.8513   14.5624   21.2721 C   0  0  0  0  0  0  0  0  0  0  0  0
   12.7586   14.6196   20.4469 O   0  0  0  0  0  0  0  0  0  0  0  0
   12.0919   14.3231   22.5900 N   0  0  0  0  0  0  0  0  0  0  0  0
   11.2780   13.5526   23.3776 C   0  0  0  0  0  0  0  0  0  0  0  0
   11.7090   13.1314   24.4490 O   0  0  0  0  0  0  0  0  0  0  0  0
  1  2  1  0
  2  3  2  0
  3  4  1  0
  4  5  2  0
  5  6  1  0
  6  7  1  0
  7  8  2  0
  7  9  1  0
  9 10  1  6
  9 11  1  0
  5 12  1  0
 12 13  2  0
 13 14  1  0
 14 15  1  0
 15 16  1  0
 16 17  1  0
 17 18  2  0
 17 19  1  0
 19 20  1  0
 20 21  2  0
 13  2  1  0
 20 14  1  0
M  END
>  <alias>  (657) 
None

>  <rmsd(smina/fragmenstein)>  (657) 
0.639

>  <smiles>  (657) 
Cc1ccc(NC(=O)[C@H](F)Cl)cc1N1CCC(=O)NC1=O

>  <gnina_score>  (657) 
5.279

>  <inspiration_score>  (657) 
None

>  <energy_score>  (657) 
-16.347543

>  <distance_score>  (657) 
1.374823

>  <gnina_score_min>  (657) 
5.287

>  <inchikey>  (657) 
CRJZHGUJFNZIFE-NSHDSACASA-N

>  <exports>  (657) 
['/opt/xchem-fragalysis-2/maxwin/BulkDock/OUTPUTS/openbind_a71ev2a_c2_elabs_1LOUU54.sdf', '/opt/xchem-fragalysis-2/maxwin/BulkDock/OUTPUTS/openbind_a71ev2a_c2_elabs_1LSYIDY.sdf']

>  <name>  (657) 
P546169

>  <ref_pdb>  (657) 
A0884a

>  <subsites>  (657) 
None

>  <HIPPO Pose ID>  (657) 
546169

>  <ref_mols>  (657) 
A0884a

>  <HIPPO Compound ID>  (657) 
384794

>  <tags>  (657) 
openbind_a71ev2a_c2_elabs,syndirella_product,openbind_a71ev2a_c2_elabs_fragonly_scored_top80percent,openbind_a71ev2a_c2_elabs_scored,BulkDock Fragalysis export,openbind_a71ev2a_c2_elabs_scored_top80percent,openbind_a71ev2a_c2_elabs_activefrags_only_scored_5.2plus,syndirella_placed

>  <smina_score_min>  (657) 
-6.751

$$$$
P546177
     RDKit          3D

 21 22  0  0  0  0  0  0  0  0999 V2000
   11.4087   14.6660   19.8875 C   0  0  0  0  0  0  0  0  0  0  0  0
   10.5959   15.1371   21.0847 C   0  0  0  0  0  0  0  0  0  0  0  0
    9.8325   16.4191   20.7662 C   0  0  0  0  0  0  0  0  0  0  0  0
   11.4582   15.1822   22.2453 N   0  0  0  0  0  0  0  0  0  0  0  0
   11.1654   14.1828   23.1555 C   0  0  0  0  0  0  0  0  0  0  0  0
   11.6378   14.1328   24.2828 O   0  0  0  0  0  0  0  0  0  0  0  0
   10.1871   13.3793   22.6268 N   0  0  0  0  0  0  0  0  0  0  0  0
    9.3983   12.5641   23.4654 C   0  0  0  0  0  0  0  0  0  0  0  0
    9.5564   11.1814   23.4057 C   0  0  0  0  0  0  0  0  0  0  0  0
    8.7505   10.3603   24.1882 C   0  0  0  0  0  0  0  0  0  0  0  0
    7.7905   10.9144   25.0373 C   0  0  0  0  0  0  0  0  0  0  0  0
    7.6287   12.2966   25.0996 C   0  0  0  0  0  0  0  0  0  0  0  0
    6.6824   12.8815   25.9358 N   0  0  0  0  0  0  0  0  0  0  0  0
    5.8299   12.2633   27.0946 C   0  0  0  0  0  0  0  0  0  0  0  0
    5.7424   11.1535   27.4647 O   0  0  0  0  0  0  0  0  0  0  0  0
    5.0774   13.4353   27.7441 C   0  0  1  0  0  0  0  0  0  0  0  0
    5.4278   14.6392   27.2024 F   0  0  0  0  0  0  0  0  0  0  0  0
    3.3330   13.1906   27.5538 Cl  0  0  0  0  0  0  0  0  0  0  0  0
    8.4257   13.1224   24.3058 C   0  0  0  0  0  0  0  0  0  0  0  0
    9.6037   14.0893   21.6002 C   0  0  0  0  0  0  0  0  0  0  0  0
    8.4537   13.9595   21.1864 O   0  0  0  0  0  0  0  0  0  0  0  0
  1  2  1  0
  2  3  1  0
  2  4  1  0
  4  5  1  0
  5  6  2  0
  5  7  1  0
  7  8  1  0
  8  9  2  0
  9 10  1  0
 10 11  2  0
 11 12  1  0
 12 13  1  0
 13 14  1  0
 14 15  2  0
 14 16  1  0
 16 17  1  6
 16 18  1  0
 12 19  2  0
  7 20  1  0
 20 21  2  0
 20  2  1  0
 19  8  1  0
M  END
>  <alias>  (658) 
None

>  <rmsd(smina/fragmenstein)>  (658) 
1.017

>  <smiles>  (658) 
CC1(C)NC(=O)N(c2cccc(NC(=O)[C@@H](F)Cl)c2)C1=O

>  <gnina_score>  (658) 
5.131

>  <inspiration_score>  (658) 
None

>  <energy_score>  (658) 
-17.347108

>  <distance_score>  (658) 
1.094955

>  <gnina_score_min>  (658) 
5.282

>  <inchikey>  (658) 
HPMREXZAAROBNL-SECBINFHSA-N

>  <exports>  (658) 
['/opt/xchem-fragalysis-2/maxwin/BulkDock/OUTPUTS/openbind_a71ev2a_c2_elabs_1LOUU54.sdf', '/opt/xchem-fragalysis-2/maxwin/BulkDock/OUTPUTS/openbind_a71ev2a_c2_elabs_1LSYIDY.sdf']

>  <name>  (658) 
P546177

>  <ref_pdb>  (658) 
A0884a

>  <subsites>  (658) 
None

>  <HIPPO Pose ID>  (658) 
546177

>  <ref_mols>  (658) 
A0884a

>  <HIPPO Compound ID>  (658) 
384800

>  <tags>  (658) 
openbind_a71ev2a_c2_elabs,syndirella_product,openbind_a71ev2a_c2_elabs_fragonly_scored_top80percent,openbind_a71ev2a_c2_elabs_scored,BulkDock Fragalysis export,openbind_a71ev2a_c2_elabs_scored_top80percent,openbind_a71ev2a_c2_elabs_activefrags_only_scored_5.2plus,syndirella_placed

>  <smina_score_min>  (658) 
-7.024

$$$$
P546186
     RDKit          3D

 21 22  0  0  0  0  0  0  0  0999 V2000
    3.3698   13.0436   28.1653 C   0  0  0  0  0  0  0  0  0  0  0  0
    4.5169   13.5814   27.3649 C   0  0  0  0  0  0  0  0  0  0  0  0
    4.7332   14.7746   27.1860 O   0  0  0  0  0  0  0  0  0  0  0  0
    5.4687   12.5476   26.7530 C   0  0  0  0  0  0  0  0  0  0  0  0
    5.3448   11.4115   26.9796 O   0  0  0  0  0  0  0  0  0  0  0  0
    6.5057   13.2862   25.8830 N   0  0  0  0  0  0  0  0  0  0  0  0
    7.5150   12.7903   25.0622 C   0  0  0  0  0  0  0  0  0  0  0  0
    7.7642   11.4240   24.9307 C   0  0  0  0  0  0  0  0  0  0  0  0
    8.8176   10.9806   24.1206 C   0  0  0  0  0  0  0  0  0  0  0  0
    9.0873    9.5432   23.8802 C   0  0  0  0  0  0  0  0  0  0  0  0
    9.6311   11.8984   23.4735 C   0  0  0  0  0  0  0  0  0  0  0  0
    9.3789   13.2570   23.6030 C   0  0  0  0  0  0  0  0  0  0  0  0
   10.1971   14.1741   22.9039 N   0  0  0  0  0  0  0  0  0  0  0  0
    9.6716   14.5635   21.5949 C   0  0  0  0  0  0  0  0  0  0  0  0
   10.6318   15.3525   20.7515 C   0  0  0  0  0  0  0  0  0  0  0  0
   11.9935   14.7561   20.9212 C   0  0  0  0  0  0  0  0  0  0  0  0
   12.6937   14.3724   19.9907 O   0  0  0  0  0  0  0  0  0  0  0  0
   12.3833   14.6840   22.2265 N   0  0  0  0  0  0  0  0  0  0  0  0
   11.5613   14.1464   23.1723 C   0  0  0  0  0  0  0  0  0  0  0  0
   12.0431   13.6497   24.1919 O   0  0  0  0  0  0  0  0  0  0  0  0
    8.3068   13.7072   24.3696 C   0  0  0  0  0  0  0  0  0  0  0  0
  1  2  1  0
  2  3  2  0
  2  4  1  0
  4  5  2  0
  4  6  1  0
  6  7  1  0
  7  8  2  0
  8  9  1  0
  9 10  1  0
  9 11  2  0
 11 12  1  0
 12 13  1  0
 13 14  1  0
 14 15  1  0
 15 16  1  0
 16 17  2  0
 16 18  1  0
 18 19  1  0
 19 20  2  0
 12 21  2  0
 21  7  1  0
 19 13  1  0
M  END
>  <alias>  (659) 
None

>  <rmsd(smina/fragmenstein)>  (659) 
0.635

>  <smiles>  (659) 
CC(=O)C(=O)Nc1cc(C)cc(N2CCC(=O)NC2=O)c1

>  <gnina_score>  (659) 
5.268

>  <inspiration_score>  (659) 
None

>  <energy_score>  (659) 
-32.571492

>  <distance_score>  (659) 
1.300203

>  <gnina_score_min>  (659) 
5.357

>  <inchikey>  (659) 
USLWFSKSVUFTFJ-UHFFFAOYSA-N

>  <exports>  (659) 
['/opt/xchem-fragalysis-2/maxwin/BulkDock/OUTPUTS/openbind_a71ev2a_c2_elabs_1LOUU54.sdf', '/opt/xchem-fragalysis-2/maxwin/BulkDock/OUTPUTS/openbind_a71ev2a_c2_elabs_1LSYIDY.sdf']

>  <name>  (659) 
P546186

>  <ref_pdb>  (659) 
A0884a

>  <subsites>  (659) 
None

>  <HIPPO Pose ID>  (659) 
546186

>  <ref_mols>  (659) 
A0884a

>  <HIPPO Compound ID>  (659) 
384810

>  <tags>  (659) 
openbind_a71ev2a_c2_elabs,syndirella_product,openbind_a71ev2a_c2_elabs_fragonly_scored_top80percent,openbind_a71ev2a_c2_elabs_scored,BulkDock Fragalysis export,openbind_a71ev2a_c2_elabs_scored_top80percent,openbind_a71ev2a_c2_elabs_activefrags_only_scored_5.2plus,syndirella_placed

>  <smina_score_min>  (659) 
-6.991

$$$$
P546187
     RDKit          3D

 21 22  0  0  0  0  0  0  0  0999 V2000
    3.3870   13.4754   28.0501 C   0  0  0  0  0  0  0  0  0  0  0  0
    4.5714   13.8156   27.1977 C   0  0  0  0  0  0  0  0  0  0  0  0
    4.9164   14.9573   26.9151 O   0  0  0  0  0  0  0  0  0  0  0  0
    5.3890   12.6376   26.6617 C   0  0  0  0  0  0  0  0  0  0  0  0
    5.1685   11.5483   27.0110 O   0  0  0  0  0  0  0  0  0  0  0  0
    6.4177   13.1730   25.6427 N   0  0  0  0  0  0  0  0  0  0  0  0
    7.4237   12.5088   24.9326 C   0  0  0  0  0  0  0  0  0  0  0  0
    8.2402   13.3007   24.1150 C   0  0  0  0  0  0  0  0  0  0  0  0
    9.3237   12.7397   23.4308 C   0  0  0  0  0  0  0  0  0  0  0  0
   10.1912   13.5434   22.6510 N   0  0  0  0  0  0  0  0  0  0  0  0
    9.6157   14.4813   21.6979 C   0  0  0  0  0  0  0  0  0  0  0  0
   10.5803   14.9376   20.6237 C   0  0  0  0  0  0  0  0  0  0  0  0
   11.9973   14.6053   20.9717 C   0  0  0  0  0  0  0  0  0  0  0  0
   12.8518   14.3995   20.1142 O   0  0  0  0  0  0  0  0  0  0  0  0
   12.2646   14.5537   22.3060 N   0  0  0  0  0  0  0  0  0  0  0  0
   11.4902   13.7604   23.1061 C   0  0  0  0  0  0  0  0  0  0  0  0
   11.9584   13.2717   24.1337 O   0  0  0  0  0  0  0  0  0  0  0  0
    9.5582   11.3663   23.5117 C   0  0  0  0  0  0  0  0  0  0  0  0
    8.7180   10.5623   24.2740 C   0  0  0  0  0  0  0  0  0  0  0  0
    7.6745   11.1360   24.9971 C   0  0  0  0  0  0  0  0  0  0  0  0
    6.9268   10.3196   25.7450 F   0  0  0  0  0  0  0  0  0  0  0  0
  1  2  1  0
  2  3  2  0
  2  4  1  0
  4  5  2  0
  4  6  1  0
  6  7  1  0
  7  8  2  0
  8  9  1  0
  9 10  1  0
 10 11  1  0
 11 12  1  0
 12 13  1  0
 13 14  2  0
 13 15  1  0
 15 16  1  0
 16 17  2  0
  9 18  2  0
 18 19  1  0
 19 20  2  0
 20 21  1  0
 20  7  1  0
 16 10  1  0
M  END
>  <alias>  (660) 
None

>  <rmsd(smina/fragmenstein)>  (660) 
0.298

>  <smiles>  (660) 
CC(=O)C(=O)Nc1cc(N2CCC(=O)NC2=O)ccc1F

>  <gnina_score>  (660) 
5.252

>  <inspiration_score>  (660) 
None

>  <energy_score>  (660) 
-19.826014

>  <distance_score>  (660) 
1.166523

>  <gnina_score_min>  (660) 
5.249

>  <inchikey>  (660) 
VHWFIEPLPCUJKI-UHFFFAOYSA-N

>  <exports>  (660) 
['/opt/xchem-fragalysis-2/maxwin/BulkDock/OUTPUTS/openbind_a71ev2a_c2_elabs_1LOUU54.sdf', '/opt/xchem-fragalysis-2/maxwin/BulkDock/OUTPUTS/openbind_a71ev2a_c2_elabs_1LSYIDY.sdf']

>  <name>  (660) 
P546187

>  <ref_pdb>  (660) 
A0884a

>  <subsites>  (660) 
None

>  <HIPPO Pose ID>  (660) 
546187

>  <ref_mols>  (660) 
A0884a

>  <HIPPO Compound ID>  (660) 
384812

>  <tags>  (660) 
openbind_a71ev2a_c2_elabs,syndirella_product,openbind_a71ev2a_c2_elabs_fragonly_scored_top80percent,openbind_a71ev2a_c2_elabs_scored,BulkDock Fragalysis export,openbind_a71ev2a_c2_elabs_scored_top80percent,openbind_a71ev2a_c2_elabs_activefrags_only_scored_5.2plus,syndirella_placed

>  <smina_score_min>  (660) 
-7.199

$$$$
P546188
     RDKit          3D

 21 22  0  0  0  0  0  0  0  0999 V2000
    3.0922   14.1940   28.0693 C   0  0  0  0  0  0  0  0  0  0  0  0
    4.4247   14.3754   27.4086 C   0  0  0  0  0  0  0  0  0  0  0  0
    4.9724   15.4587   27.2397 O   0  0  0  0  0  0  0  0  0  0  0  0
    5.1279   13.1023   26.9277 C   0  0  0  0  0  0  0  0  0  0  0  0
    4.7269   12.0483   27.2239 O   0  0  0  0  0  0  0  0  0  0  0  0
    6.3435   13.5046   26.0646 N   0  0  0  0  0  0  0  0  0  0  0  0
    7.2329   12.7207   25.3333 C   0  0  0  0  0  0  0  0  0  0  0  0
    7.2195   11.3343   25.4169 C   0  0  0  0  0  0  0  0  0  0  0  0
    8.1309   10.5899   24.6751 C   0  0  0  0  0  0  0  0  0  0  0  0
    9.0603   11.2121   23.8289 C   0  0  0  0  0  0  0  0  0  0  0  0
    9.9485   10.3029   23.0436 C   0  0  0  0  0  0  0  0  0  0  0  0
    9.0901   12.6163   23.7511 C   0  0  0  0  0  0  0  0  0  0  0  0
   10.0151   13.3064   22.9013 N   0  0  0  0  0  0  0  0  0  0  0  0
    9.4646   14.2910   21.9772 C   0  0  0  0  0  0  0  0  0  0  0  0
   10.4317   14.7846   20.9215 C   0  0  0  0  0  0  0  0  0  0  0  0
   11.8566   14.5040   21.2749 C   0  0  0  0  0  0  0  0  0  0  0  0
   12.7427   14.4514   20.4261 O   0  0  0  0  0  0  0  0  0  0  0  0
   12.1026   14.3287   22.6024 N   0  0  0  0  0  0  0  0  0  0  0  0
   11.2983   13.5535   23.3954 C   0  0  0  0  0  0  0  0  0  0  0  0
   11.7387   13.1166   24.4563 O   0  0  0  0  0  0  0  0  0  0  0  0
    8.1646   13.3559   24.5056 C   0  0  0  0  0  0  0  0  0  0  0  0
  1  2  1  0
  2  3  2  0
  2  4  1  0
  4  5  2  0
  4  6  1  0
  6  7  1  0
  7  8  2  0
  8  9  1  0
  9 10  2  0
 10 11  1  0
 10 12  1  0
 12 13  1  0
 13 14  1  0
 14 15  1  0
 15 16  1  0
 16 17  2  0
 16 18  1  0
 18 19  1  0
 19 20  2  0
 12 21  2  0
 21  7  1  0
 19 13  1  0
M  END
>  <alias>  (661) 
None

>  <rmsd(smina/fragmenstein)>  (661) 
0.903

>  <smiles>  (661) 
CC(=O)C(=O)Nc1ccc(C)c(N2CCC(=O)NC2=O)c1

>  <gnina_score>  (661) 
5.248

>  <inspiration_score>  (661) 
None

>  <energy_score>  (661) 
-16.732752

>  <distance_score>  (661) 
1.353128

>  <gnina_score_min>  (661) 
5.208

>  <inchikey>  (661) 
WTXWHTSEXSLDJO-UHFFFAOYSA-N

>  <exports>  (661) 
['/opt/xchem-fragalysis-2/maxwin/BulkDock/OUTPUTS/openbind_a71ev2a_c2_elabs_1LOUU54.sdf', '/opt/xchem-fragalysis-2/maxwin/BulkDock/OUTPUTS/openbind_a71ev2a_c2_elabs_1LSYIDY.sdf']

>  <name>  (661) 
P546188

>  <ref_pdb>  (661) 
A0884a

>  <subsites>  (661) 
None

>  <HIPPO Pose ID>  (661) 
546188

>  <ref_mols>  (661) 
A0884a

>  <HIPPO Compound ID>  (661) 
384813

>  <tags>  (661) 
openbind_a71ev2a_c2_elabs,syndirella_product,openbind_a71ev2a_c2_elabs_fragonly_scored_top80percent,openbind_a71ev2a_c2_elabs_scored,BulkDock Fragalysis export,openbind_a71ev2a_c2_elabs_scored_top80percent,openbind_a71ev2a_c2_elabs_activefrags_only_scored_5.2plus,syndirella_placed

>  <smina_score_min>  (661) 
-6.857

$$$$
P546189
     RDKit          3D

 21 22  0  0  0  0  0  0  0  0999 V2000
    3.1888   14.4719   28.0689 C   0  0  0  0  0  0  0  0  0  0  0  0
    4.5947   14.5156   27.5550 C   0  0  0  0  0  0  0  0  0  0  0  0
    5.3144   15.5080   27.5714 O   0  0  0  0  0  0  0  0  0  0  0  0
    5.1570   13.2095   26.9906 C   0  0  0  0  0  0  0  0  0  0  0  0
    4.7054   12.1787   27.2948 O   0  0  0  0  0  0  0  0  0  0  0  0
    6.3365   13.5482   26.0534 N   0  0  0  0  0  0  0  0  0  0  0  0
    7.2343   12.7149   25.3929 C   0  0  0  0  0  0  0  0  0  0  0  0
    7.1220   11.3295   25.4480 C   0  0  0  0  0  0  0  0  0  0  0  0
    8.0256   10.5322   24.7502 C   0  0  0  0  0  0  0  0  0  0  0  0
    9.0466   11.1079   23.9967 C   0  0  0  0  0  0  0  0  0  0  0  0
   10.0223   10.0285   23.0994 Cl  0  0  0  0  0  0  0  0  0  0  0  0
    9.1961   12.4992   23.9616 C   0  0  0  0  0  0  0  0  0  0  0  0
   10.2633   13.1380   23.2641 N   0  0  0  0  0  0  0  0  0  0  0  0
   11.4651   13.4173   24.0216 C   0  0  0  0  0  0  0  0  0  0  0  0
   12.5931   13.7235   23.0744 C   0  0  0  0  0  0  0  0  0  0  0  0
   12.2043   14.8306   22.1555 C   0  0  0  0  0  0  0  0  0  0  0  0
   12.9971   15.4553   21.4648 O   0  0  0  0  0  0  0  0  0  0  0  0
   10.8696   15.0408   22.0520 N   0  0  0  0  0  0  0  0  0  0  0  0
    9.9442   14.0776   22.2962 C   0  0  0  0  0  0  0  0  0  0  0  0
    8.8965   14.0903   21.6658 O   0  0  0  0  0  0  0  0  0  0  0  0
    8.2697   13.2959   24.6548 C   0  0  0  0  0  0  0  0  0  0  0  0
  1  2  1  0
  2  3  2  0
  2  4  1  0
  4  5  2  0
  4  6  1  0
  6  7  1  0
  7  8  2  0
  8  9  1  0
  9 10  2  0
 10 11  1  0
 10 12  1  0
 12 13  1  0
 13 14  1  0
 14 15  1  0
 15 16  1  0
 16 17  2  0
 16 18  1  0
 18 19  1  0
 19 20  2  0
 12 21  2  0
 21  7  1  0
 19 13  1  0
M  END
>  <alias>  (662) 
None

>  <rmsd(smina/fragmenstein)>  (662) 
1.448

>  <smiles>  (662) 
CC(=O)C(=O)Nc1ccc(Cl)c(N2CCC(=O)NC2=O)c1

>  <gnina_score>  (662) 
5.466

>  <inspiration_score>  (662) 
None

>  <energy_score>  (662) 
-35.805671

>  <distance_score>  (662) 
1.853745

>  <gnina_score_min>  (662) 
5.386

>  <inchikey>  (662) 
FPJWSNJNBMBLQM-UHFFFAOYSA-N

>  <exports>  (662) 
['/opt/xchem-fragalysis-2/maxwin/BulkDock/OUTPUTS/openbind_a71ev2a_c2_elabs_1LOUU54.sdf', '/opt/xchem-fragalysis-2/maxwin/BulkDock/OUTPUTS/openbind_a71ev2a_c2_elabs_1LSYIDY.sdf']

>  <name>  (662) 
P546189

>  <ref_pdb>  (662) 
A0884a

>  <subsites>  (662) 
None

>  <HIPPO Pose ID>  (662) 
546189

>  <ref_mols>  (662) 
A0884a

>  <HIPPO Compound ID>  (662) 
384815

>  <tags>  (662) 
openbind_a71ev2a_c2_elabs,syndirella_product,openbind_a71ev2a_c2_elabs_fragonly_scored_top80percent,openbind_a71ev2a_c2_elabs_scored,BulkDock Fragalysis export,openbind_a71ev2a_c2_elabs_scored_top80percent,openbind_a71ev2a_c2_elabs_activefrags_only_scored_5.2plus,syndirella_placed

>  <smina_score_min>  (662) 
-7.207

$$$$
P546190
     RDKit          3D

 21 22  0  0  0  0  0  0  0  0999 V2000
    4.0837   12.0292   28.6648 C   0  0  0  0  0  0  0  0  0  0  0  0
    4.9591   12.7264   27.6684 C   0  0  0  0  0  0  0  0  0  0  0  0
    4.9718   13.9389   27.4895 O   0  0  0  0  0  0  0  0  0  0  0  0
    5.9032   11.8409   26.8483 C   0  0  0  0  0  0  0  0  0  0  0  0
    5.9845   10.6988   27.0584 O   0  0  0  0  0  0  0  0  0  0  0  0
    6.6502   12.7250   25.8322 N   0  0  0  0  0  0  0  0  0  0  0  0
    7.6872   12.4168   24.9557 C   0  0  0  0  0  0  0  0  0  0  0  0
    8.0913   11.0987   24.7153 C   0  0  0  0  0  0  0  0  0  0  0  0
    9.1572   10.8708   23.8497 C   0  0  0  0  0  0  0  0  0  0  0  0
    9.7871    9.1847   23.3680 Br  0  0  0  0  0  0  0  0  0  0  0  0
    9.8343   11.9187   23.2668 C   0  0  0  0  0  0  0  0  0  0  0  0
    9.4349   13.2216   23.5074 C   0  0  0  0  0  0  0  0  0  0  0  0
   10.1621   14.2586   22.8744 N   0  0  0  0  0  0  0  0  0  0  0  0
    9.6386   14.6212   21.5529 C   0  0  0  0  0  0  0  0  0  0  0  0
   10.5849   15.4233   20.7057 C   0  0  0  0  0  0  0  0  0  0  0  0
   11.9572   14.8541   20.8901 C   0  0  0  0  0  0  0  0  0  0  0  0
   12.6676   14.4554   19.9728 O   0  0  0  0  0  0  0  0  0  0  0  0
   12.3454   14.8186   22.1975 N   0  0  0  0  0  0  0  0  0  0  0  0
   11.5292   14.2942   23.1535 C   0  0  0  0  0  0  0  0  0  0  0  0
   12.0131   13.8318   24.1891 O   0  0  0  0  0  0  0  0  0  0  0  0
    8.3400   13.4814   24.3225 C   0  0  0  0  0  0  0  0  0  0  0  0
  1  2  1  0
  2  3  2  0
  2  4  1  0
  4  5  2  0
  4  6  1  0
  6  7  1  0
  7  8  2  0
  8  9  1  0
  9 10  1  0
  9 11  2  0
 11 12  1  0
 12 13  1  0
 13 14  1  0
 14 15  1  0
 15 16  1  0
 16 17  2  0
 16 18  1  0
 18 19  1  0
 19 20  2  0
 12 21  2  0
 21  7  1  0
 19 13  1  0
M  END
>  <alias>  (663) 
None

>  <rmsd(smina/fragmenstein)>  (663) 
0.276

>  <smiles>  (663) 
CC(=O)C(=O)Nc1cc(Br)cc(N2CCC(=O)NC2=O)c1

>  <gnina_score>  (663) 
5.435

>  <inspiration_score>  (663) 
None

>  <energy_score>  (663) 
-5.851807

>  <distance_score>  (663) 
1.240337

>  <gnina_score_min>  (663) 
5.429

>  <inchikey>  (663) 
ZHVVSJYFQVYFRD-UHFFFAOYSA-N

>  <exports>  (663) 
['/opt/xchem-fragalysis-2/maxwin/BulkDock/OUTPUTS/openbind_a71ev2a_c2_elabs_1LOUU54.sdf', '/opt/xchem-fragalysis-2/maxwin/BulkDock/OUTPUTS/openbind_a71ev2a_c2_elabs_1LSYIDY.sdf']

>  <name>  (663) 
P546190

>  <ref_pdb>  (663) 
A0884a

>  <subsites>  (663) 
None

>  <HIPPO Pose ID>  (663) 
546190

>  <ref_mols>  (663) 
A0884a

>  <HIPPO Compound ID>  (663) 
384817

>  <tags>  (663) 
openbind_a71ev2a_c2_elabs,syndirella_product,openbind_a71ev2a_c2_elabs_fragonly_scored_top80percent,openbind_a71ev2a_c2_elabs_scored,BulkDock Fragalysis export,openbind_a71ev2a_c2_elabs_scored_top80percent,openbind_a71ev2a_c2_elabs_activefrags_only_scored_5.2plus,syndirella_placed

>  <smina_score_min>  (663) 
-6.56

$$$$
P546191
     RDKit          3D

 21 22  0  0  0  0  0  0  0  0999 V2000
    8.4790   14.5886   25.5911 C   0  0  0  0  0  0  0  0  0  0  0  0
    8.4430   13.1320   25.2186 C   0  0  0  0  0  0  0  0  0  0  0  0
    7.4770   12.3008   25.8315 C   0  0  0  0  0  0  0  0  0  0  0  0
    6.7975   12.7593   26.9524 N   0  0  0  0  0  0  0  0  0  0  0  0
    5.3255   12.5195   27.4151 C   0  0  0  0  0  0  0  0  0  0  0  0
    4.4464   11.9593   26.8829 O   0  0  0  0  0  0  0  0  0  0  0  0
    5.1813   13.0750   28.8397 C   0  0  1  0  0  0  0  0  0  0  0  0
    5.9256   12.2250   29.8617 C   0  0  0  0  0  0  0  0  0  0  0  0
    5.8625   14.9108   28.8999 Br  0  0  0  0  0  0  0  0  0  0  0  0
    7.3049   10.9852   25.4037 C   0  0  0  0  0  0  0  0  0  0  0  0
    8.1648   10.4585   24.4440 C   0  0  0  0  0  0  0  0  0  0  0  0
    9.1253   11.2608   23.8441 C   0  0  0  0  0  0  0  0  0  0  0  0
    9.9533   10.6993   22.9514 F   0  0  0  0  0  0  0  0  0  0  0  0
    9.2967   12.5913   24.2346 C   0  0  0  0  0  0  0  0  0  0  0  0
   10.3898   13.2728   23.6782 N   0  0  0  0  0  0  0  0  0  0  0  0
   11.3749   13.9481   24.3406 C   0  0  0  0  0  0  0  0  0  0  0  0
   11.4941   14.1245   25.5422 O   0  0  0  0  0  0  0  0  0  0  0  0
   12.3361   14.4958   23.3057 C   0  0  0  0  0  0  0  0  0  0  0  0
   11.7294   14.0844   22.1001 N   0  0  0  0  0  0  0  0  0  0  0  0
   10.4870   13.5957   22.3654 C   0  0  0  0  0  0  0  0  0  0  0  0
    9.5903   13.6468   21.5429 O   0  0  0  0  0  0  0  0  0  0  0  0
  1  2  1  0
  2  3  2  0
  3  4  1  0
  4  5  1  0
  5  6  2  0
  5  7  1  0
  7  8  1  1
  7  9  1  0
  3 10  1  0
 10 11  2  0
 11 12  1  0
 12 13  1  0
 12 14  2  0
 14 15  1  0
 15 16  1  0
 16 17  2  0
 16 18  1  0
 18 19  1  0
 19 20  1  0
 20 21  2  0
 14  2  1  0
 20 15  1  0
M  END
>  <alias>  (664) 
None

>  <rmsd(smina/fragmenstein)>  (664) 
0.897

>  <smiles>  (664) 
Cc1c(NC(=O)[C@@H](C)Br)ccc(F)c1N1C(=O)CNC1=O

>  <gnina_score>  (664) 
5.438

>  <inspiration_score>  (664) 
None

>  <energy_score>  (664) 
-18.615662

>  <distance_score>  (664) 
1.545422

>  <gnina_score_min>  (664) 
5.429

>  <inchikey>  (664) 
ZDNFBLLBVAMXIE-SSDOTTSWSA-N

>  <exports>  (664) 
['/opt/xchem-fragalysis-2/maxwin/BulkDock/OUTPUTS/openbind_a71ev2a_c2_elabs_1LOUU54.sdf', '/opt/xchem-fragalysis-2/maxwin/BulkDock/OUTPUTS/openbind_a71ev2a_c2_elabs_1LSYIDY.sdf']

>  <name>  (664) 
P546191

>  <ref_pdb>  (664) 
A0884a

>  <subsites>  (664) 
None

>  <HIPPO Pose ID>  (664) 
546191

>  <ref_mols>  (664) 
A0884a

>  <HIPPO Compound ID>  (664) 
384819

>  <tags>  (664) 
openbind_a71ev2a_c2_elabs,syndirella_product,openbind_a71ev2a_c2_elabs_fragonly_scored_top80percent,openbind_a71ev2a_c2_elabs_scored,BulkDock Fragalysis export,openbind_a71ev2a_c2_elabs_scored_top80percent,openbind_a71ev2a_c2_elabs_activefrags_only_scored_5.2plus,syndirella_placed

>  <smina_score_min>  (664) 
-6.671

$$$$
P546195
     RDKit          3D

 21 22  0  0  0  0  0  0  0  0999 V2000
    3.1140   13.5875   27.6784 C   0  0  0  0  0  0  0  0  0  0  0  0
    4.3418   13.9721   26.8727 C   0  0  1  0  0  0  0  0  0  0  0  0
    5.3965   15.2529   27.9140 Br  0  0  0  0  0  0  0  0  0  0  0  0
    5.2616   12.7790   26.5788 C   0  0  0  0  0  0  0  0  0  0  0  0
    5.1086   11.7155   27.0460 O   0  0  0  0  0  0  0  0  0  0  0  0
    6.3464   13.2999   25.5806 N   0  0  0  0  0  0  0  0  0  0  0  0
    7.3595   12.6199   24.9129 C   0  0  0  0  0  0  0  0  0  0  0  0
    7.5386   11.2463   25.0339 C   0  0  0  0  0  0  0  0  0  0  0  0
    8.5828   10.6356   24.3466 C   0  0  0  0  0  0  0  0  0  0  0  0
    8.7120    9.3064   24.4123 F   0  0  0  0  0  0  0  0  0  0  0  0
    9.4780   11.3719   23.5801 C   0  0  0  0  0  0  0  0  0  0  0  0
    9.2944   12.7485   23.4510 C   0  0  0  0  0  0  0  0  0  0  0  0
   10.1864   13.5091   22.6498 N   0  0  0  0  0  0  0  0  0  0  0  0
    9.6311   14.4676   21.7029 C   0  0  0  0  0  0  0  0  0  0  0  0
   10.5984   14.9059   20.6253 C   0  0  0  0  0  0  0  0  0  0  0  0
   12.0123   14.5758   20.9821 C   0  0  0  0  0  0  0  0  0  0  0  0
   12.8725   14.3863   20.1267 O   0  0  0  0  0  0  0  0  0  0  0  0
   12.2702   14.5055   22.3178 N   0  0  0  0  0  0  0  0  0  0  0  0
   11.4844   13.7176   23.1141 C   0  0  0  0  0  0  0  0  0  0  0  0
   11.9400   13.2333   24.1491 O   0  0  0  0  0  0  0  0  0  0  0  0
    8.2192   13.3637   24.1004 C   0  0  0  0  0  0  0  0  0  0  0  0
  2  1  1  1
  2  3  1  0
  2  4  1  0
  4  5  2  0
  4  6  1  0
  6  7  1  0
  7  8  2  0
  8  9  1  0
  9 10  1  0
  9 11  2  0
 11 12  1  0
 12 13  1  0
 13 14  1  0
 14 15  1  0
 15 16  1  0
 16 17  2  0
 16 18  1  0
 18 19  1  0
 19 20  2  0
 12 21  2  0
 21  7  1  0
 19 13  1  0
M  END
>  <alias>  (665) 
None

>  <rmsd(smina/fragmenstein)>  (665) 
0.888

>  <smiles>  (665) 
C[C@@H](Br)C(=O)Nc1cc(F)cc(N2CCC(=O)NC2=O)c1

>  <gnina_score>  (665) 
5.244

>  <inspiration_score>  (665) 
None

>  <energy_score>  (665) 
-26.507847

>  <distance_score>  (665) 
1.241418

>  <gnina_score_min>  (665) 
5.281

>  <inchikey>  (665) 
WVCUKTICAGUQEX-SSDOTTSWSA-N

>  <exports>  (665) 
['/opt/xchem-fragalysis-2/maxwin/BulkDock/OUTPUTS/openbind_a71ev2a_c2_elabs_1LOUU54.sdf', '/opt/xchem-fragalysis-2/maxwin/BulkDock/OUTPUTS/openbind_a71ev2a_c2_elabs_1LSYIDY.sdf']

>  <name>  (665) 
P546195

>  <ref_pdb>  (665) 
A0884a

>  <subsites>  (665) 
None

>  <HIPPO Pose ID>  (665) 
546195

>  <ref_mols>  (665) 
A0884a

>  <HIPPO Compound ID>  (665) 
384821

>  <tags>  (665) 
openbind_a71ev2a_c2_elabs,syndirella_product,openbind_a71ev2a_c2_elabs_fragonly_scored_top80percent,openbind_a71ev2a_c2_elabs_scored,BulkDock Fragalysis export,openbind_a71ev2a_c2_elabs_scored_top80percent,openbind_a71ev2a_c2_elabs_activefrags_only_scored_5.2plus,syndirella_placed

>  <smina_score_min>  (665) 
-7.049

$$$$
P546200
     RDKit          3D

 21 22  0  0  0  0  0  0  0  0999 V2000
    5.5712   14.7319   28.6875 C   0  0  0  0  0  0  0  0  0  0  0  0
    4.6317   14.0342   27.7236 C   0  0  1  0  0  0  0  0  0  0  0  0
    4.0543   15.2630   26.3272 Br  0  0  0  0  0  0  0  0  0  0  0  0
    5.2405   12.7885   27.0699 C   0  0  0  0  0  0  0  0  0  0  0  0
    4.8407   11.7148   27.3196 O   0  0  0  0  0  0  0  0  0  0  0  0
    6.4261   13.2402   26.1576 N   0  0  0  0  0  0  0  0  0  0  0  0
    7.3767   12.4887   25.4741 C   0  0  0  0  0  0  0  0  0  0  0  0
    7.2601   11.1073   25.3474 C   0  0  0  0  0  0  0  0  0  0  0  0
    8.2020   10.3997   24.6058 C   0  0  0  0  0  0  0  0  0  0  0  0
    9.2620   11.0656   24.0088 C   0  0  0  0  0  0  0  0  0  0  0  0
   10.1626   10.3225   23.3540 F   0  0  0  0  0  0  0  0  0  0  0  0
    9.4365   12.4466   24.1727 C   0  0  0  0  0  0  0  0  0  0  0  0
   10.5572   13.1300   23.6094 N   0  0  0  0  0  0  0  0  0  0  0  0
   10.7973   12.9341   22.2036 C   0  0  0  0  0  0  0  0  0  0  0  0
   12.1981   13.3459   21.8321 C   0  0  0  0  0  0  0  0  0  0  0  0
   12.3261   14.7746   22.1476 C   0  0  0  0  0  0  0  0  0  0  0  0
   12.8637   15.5766   21.4005 O   0  0  0  0  0  0  0  0  0  0  0  0
   11.8508   15.0666   23.3868 N   0  0  0  0  0  0  0  0  0  0  0  0
   11.1430   14.2269   24.2174 C   0  0  0  0  0  0  0  0  0  0  0  0
   11.0598   14.4580   25.4209 O   0  0  0  0  0  0  0  0  0  0  0  0
    8.4642   13.1524   24.8948 C   0  0  0  0  0  0  0  0  0  0  0  0
  2  1  1  1
  2  3  1  0
  2  4  1  0
  4  5  2  0
  4  6  1  0
  6  7  1  0
  7  8  2  0
  8  9  1  0
  9 10  2  0
 10 11  1  0
 10 12  1  0
 12 13  1  0
 13 14  1  0
 14 15  1  0
 15 16  1  0
 16 17  2  0
 16 18  1  0
 18 19  1  0
 19 20  2  0
 12 21  2  0
 21  7  1  0
 19 13  1  0
M  END
>  <alias>  (666) 
None

>  <rmsd(smina/fragmenstein)>  (666) 
1.358

>  <smiles>  (666) 
C[C@@H](Br)C(=O)Nc1ccc(F)c(N2CCC(=O)NC2=O)c1

>  <gnina_score>  (666) 
4.872

>  <inspiration_score>  (666) 
None

>  <energy_score>  (666) 
-21.316463

>  <distance_score>  (666) 
1.336578

>  <gnina_score_min>  (666) 
5.238

>  <inchikey>  (666) 
RHWMFUPHRPICKL-SSDOTTSWSA-N

>  <exports>  (666) 
['/opt/xchem-fragalysis-2/maxwin/BulkDock/OUTPUTS/openbind_a71ev2a_c2_elabs_1LOUU54.sdf', '/opt/xchem-fragalysis-2/maxwin/BulkDock/OUTPUTS/openbind_a71ev2a_c2_elabs_1LSYIDY.sdf']

>  <name>  (666) 
P546200

>  <ref_pdb>  (666) 
A0884a

>  <subsites>  (666) 
None

>  <HIPPO Pose ID>  (666) 
546200

>  <ref_mols>  (666) 
A0884a

>  <HIPPO Compound ID>  (666) 
384824

>  <tags>  (666) 
openbind_a71ev2a_c2_elabs,syndirella_product,openbind_a71ev2a_c2_elabs_fragonly_scored_top80percent,openbind_a71ev2a_c2_elabs_scored,BulkDock Fragalysis export,openbind_a71ev2a_c2_elabs_scored_top80percent,openbind_a71ev2a_c2_elabs_activefrags_only_scored_5.2plus,syndirella_placed

>  <smina_score_min>  (666) 
-5.807

$$$$
P546202
     RDKit          3D

 21 22  0  0  0  0  0  0  0  0999 V2000
    7.7352   14.7176   24.6790 C   0  0  0  0  0  0  0  0  0  0  0  0
    8.1161   13.2709   24.5121 C   0  0  0  0  0  0  0  0  0  0  0  0
    7.4562   12.2627   25.2528 C   0  0  0  0  0  0  0  0  0  0  0  0
    6.5475   12.6207   26.2589 N   0  0  0  0  0  0  0  0  0  0  0  0
    5.6738   11.7311   27.1990 C   0  0  0  0  0  0  0  0  0  0  0  0
    5.6398   10.5675   27.3260 O   0  0  0  0  0  0  0  0  0  0  0  0
    4.8652   12.6904   28.0848 C   0  0  2  0  0  0  0  0  0  0  0  0
    4.0067   11.9611   29.1036 C   0  0  0  0  0  0  0  0  0  0  0  0
    3.7015   13.7676   26.9464 Br  0  0  0  0  0  0  0  0  0  0  0  0
    7.7704   10.9183   25.0374 C   0  0  0  0  0  0  0  0  0  0  0  0
    8.7836   10.5604   24.1502 C   0  0  0  0  0  0  0  0  0  0  0  0
    9.5131   11.5490   23.4996 C   0  0  0  0  0  0  0  0  0  0  0  0
    9.1969   12.9036   23.6799 C   0  0  0  0  0  0  0  0  0  0  0  0
   10.0151   13.8923   23.0386 N   0  0  0  0  0  0  0  0  0  0  0  0
    9.5765   14.3026   21.7039 C   0  0  0  0  0  0  0  0  0  0  0  0
   10.5015   15.2527   20.9911 C   0  0  0  0  0  0  0  0  0  0  0  0
   11.8958   14.7513   21.1805 C   0  0  0  0  0  0  0  0  0  0  0  0
   12.6842   14.5707   20.2581 O   0  0  0  0  0  0  0  0  0  0  0  0
   12.2182   14.5110   22.4854 N   0  0  0  0  0  0  0  0  0  0  0  0
   11.3656   13.9267   23.3811 C   0  0  0  0  0  0  0  0  0  0  0  0
   11.8170   13.4578   24.4269 O   0  0  0  0  0  0  0  0  0  0  0  0
  1  2  1  0
  2  3  2  0
  3  4  1  0
  4  5  1  0
  5  6  2  0
  5  7  1  0
  7  8  1  1
  7  9  1  0
  3 10  1  0
 10 11  2  0
 11 12  1  0
 12 13  2  0
 13 14  1  0
 14 15  1  0
 15 16  1  0
 16 17  1  0
 17 18  2  0
 17 19  1  0
 19 20  1  0
 20 21  2  0
 13  2  1  0
 20 14  1  0
M  END
>  <alias>  (667) 
None

>  <rmsd(smina/fragmenstein)>  (667) 
0.359

>  <smiles>  (667) 
Cc1c(NC(=O)[C@H](C)Br)cccc1N1CCC(=O)NC1=O

>  <gnina_score>  (667) 
5.232

>  <inspiration_score>  (667) 
None

>  <energy_score>  (667) 
-31.662692

>  <distance_score>  (667) 
1.178151

>  <gnina_score_min>  (667) 
5.237

>  <inchikey>  (667) 
IWFYKJCKMDQXHI-VIFPVBQESA-N

>  <exports>  (667) 
['/opt/xchem-fragalysis-2/maxwin/BulkDock/OUTPUTS/openbind_a71ev2a_c2_elabs_1LOUU54.sdf', '/opt/xchem-fragalysis-2/maxwin/BulkDock/OUTPUTS/openbind_a71ev2a_c2_elabs_1LSYIDY.sdf']

>  <name>  (667) 
P546202

>  <ref_pdb>  (667) 
A0884a

>  <subsites>  (667) 
None

>  <HIPPO Pose ID>  (667) 
546202

>  <ref_mols>  (667) 
A0884a

>  <HIPPO Compound ID>  (667) 
384825

>  <tags>  (667) 
openbind_a71ev2a_c2_elabs,syndirella_product,openbind_a71ev2a_c2_elabs_fragonly_scored_top80percent,openbind_a71ev2a_c2_elabs_scored,BulkDock Fragalysis export,openbind_a71ev2a_c2_elabs_scored_top80percent,openbind_a71ev2a_c2_elabs_activefrags_only_scored_5.2plus,syndirella_placed

>  <smina_score_min>  (667) 
-7.249

$$$$
P546205
     RDKit          3D

 21 22  0  0  0  0  0  0  0  0999 V2000
    9.1139    9.5560   23.8805 C   0  0  0  0  0  0  0  0  0  0  0  0
    8.8358   10.9958   24.1028 C   0  0  0  0  0  0  0  0  0  0  0  0
    7.7563   11.4421   24.8758 C   0  0  0  0  0  0  0  0  0  0  0  0
    7.4768   12.8058   24.9540 C   0  0  0  0  0  0  0  0  0  0  0  0
    6.4200   13.3050   25.7062 N   0  0  0  0  0  0  0  0  0  0  0  0
    5.4407   12.5802   26.6868 C   0  0  0  0  0  0  0  0  0  0  0  0
    5.3305   11.4428   26.9464 O   0  0  0  0  0  0  0  0  0  0  0  0
    4.5196   13.6669   27.2568 C   0  0  1  0  0  0  0  0  0  0  0  0
    3.3739   13.1002   28.0766 C   0  0  0  0  0  0  0  0  0  0  0  0
    5.6244   14.7878   28.4228 Br  0  0  0  0  0  0  0  0  0  0  0  0
    8.2696   13.7181   24.2578 C   0  0  0  0  0  0  0  0  0  0  0  0
    9.3761   13.2698   23.5425 C   0  0  0  0  0  0  0  0  0  0  0  0
   10.1915   14.1856   22.8373 N   0  0  0  0  0  0  0  0  0  0  0  0
    9.6595   14.5771   21.5300 C   0  0  0  0  0  0  0  0  0  0  0  0
   10.6173   15.3640   20.6814 C   0  0  0  0  0  0  0  0  0  0  0  0
   11.9824   14.7744   20.8521 C   0  0  0  0  0  0  0  0  0  0  0  0
   12.6945   14.4018   19.9260 O   0  0  0  0  0  0  0  0  0  0  0  0
   12.3738   14.7037   22.1579 N   0  0  0  0  0  0  0  0  0  0  0  0
   11.5533   14.1742   23.1088 C   0  0  0  0  0  0  0  0  0  0  0  0
   12.0380   13.7112   24.1428 O   0  0  0  0  0  0  0  0  0  0  0  0
    9.6550   11.9124   23.4586 C   0  0  0  0  0  0  0  0  0  0  0  0
  1  2  1  0
  2  3  2  0
  3  4  1  0
  4  5  1  0
  5  6  1  0
  6  7  2  0
  6  8  1  0
  8  9  1  1
  8 10  1  0
  4 11  2  0
 11 12  1  0
 12 13  1  0
 13 14  1  0
 14 15  1  0
 15 16  1  0
 16 17  2  0
 16 18  1  0
 18 19  1  0
 19 20  2  0
 12 21  2  0
 21  2  1  0
 19 13  1  0
M  END
>  <alias>  (668) 
None

>  <rmsd(smina/fragmenstein)>  (668) 
0.769

>  <smiles>  (668) 
Cc1cc(NC(=O)[C@@H](C)Br)cc(N2CCC(=O)NC2=O)c1

>  <gnina_score>  (668) 
5.387

>  <inspiration_score>  (668) 
None

>  <energy_score>  (668) 
-36.867245

>  <distance_score>  (668) 
1.323507

>  <gnina_score_min>  (668) 
5.523

>  <inchikey>  (668) 
ZEWZQSHDZFQXNE-SECBINFHSA-N

>  <exports>  (668) 
['/opt/xchem-fragalysis-2/maxwin/BulkDock/OUTPUTS/openbind_a71ev2a_c2_elabs_1LOUU54.sdf', '/opt/xchem-fragalysis-2/maxwin/BulkDock/OUTPUTS/openbind_a71ev2a_c2_elabs_1LSYIDY.sdf']

>  <name>  (668) 
P546205

>  <ref_pdb>  (668) 
A0884a

>  <subsites>  (668) 
None

>  <HIPPO Pose ID>  (668) 
546205

>  <ref_mols>  (668) 
A0884a

>  <HIPPO Compound ID>  (668) 
384827

>  <tags>  (668) 
openbind_a71ev2a_c2_elabs,syndirella_product,openbind_a71ev2a_c2_elabs_fragonly_scored_top80percent,BulkDock Fragalysis export,openbind_a71ev2a_c2_elabs_scored,openbind_a71ev2a_c2_elabs_scored_top80percent,openbind_a71ev2a_c2_elabs_activefrags_only_scored_5.2plus,openbind_a71ev2a_c2_elabs_activefrags_only_scored_5.5plus,syndirella_placed

>  <smina_score_min>  (668) 
-6.915

$$$$
P546207
     RDKit          3D

 21 22  0  0  0  0  0  0  0  0999 V2000
    3.5633   14.6088   25.9488 C   0  0  0  0  0  0  0  0  0  0  0  0
    4.3078   13.9239   27.0778 C   0  0  2  0  0  0  0  0  0  0  0  0
    5.3098   15.2315   28.1249 Br  0  0  0  0  0  0  0  0  0  0  0  0
    5.2757   12.8282   26.6143 C   0  0  0  0  0  0  0  0  0  0  0  0
    5.0946   11.7007   26.8785 O   0  0  0  0  0  0  0  0  0  0  0  0
    6.3961   13.4988   25.7593 N   0  0  0  0  0  0  0  0  0  0  0  0
    7.4216   12.9315   25.0099 C   0  0  0  0  0  0  0  0  0  0  0  0
    7.6415   11.5575   24.9604 C   0  0  0  0  0  0  0  0  0  0  0  0
    8.7013   11.0721   24.1969 C   0  0  0  0  0  0  0  0  0  0  0  0
    8.9547    9.4105   23.9990 Cl  0  0  0  0  0  0  0  0  0  0  0  0
    9.5656   11.9199   23.5294 C   0  0  0  0  0  0  0  0  0  0  0  0
    9.3381   13.2862   23.5801 C   0  0  0  0  0  0  0  0  0  0  0  0
   10.1847   14.1608   22.8614 N   0  0  0  0  0  0  0  0  0  0  0  0
    9.6680   14.5706   21.5553 C   0  0  0  0  0  0  0  0  0  0  0  0
   10.6379   15.3629   20.7263 C   0  0  0  0  0  0  0  0  0  0  0  0
   11.9992   14.7652   20.8982 C   0  0  0  0  0  0  0  0  0  0  0  0
   12.7161   14.4159   19.9663 O   0  0  0  0  0  0  0  0  0  0  0  0
   12.3773   14.6600   22.2053 N   0  0  0  0  0  0  0  0  0  0  0  0
   11.5443   14.1246   23.1420 C   0  0  0  0  0  0  0  0  0  0  0  0
   12.0103   13.6286   24.1686 O   0  0  0  0  0  0  0  0  0  0  0  0
    8.2538   13.7931   24.2934 C   0  0  0  0  0  0  0  0  0  0  0  0
  2  1  1  6
  2  3  1  0
  2  4  1  0
  4  5  2  0
  4  6  1  0
  6  7  1  0
  7  8  2  0
  8  9  1  0
  9 10  1  0
  9 11  2  0
 11 12  1  0
 12 13  1  0
 13 14  1  0
 14 15  1  0
 15 16  1  0
 16 17  2  0
 16 18  1  0
 18 19  1  0
 19 20  2  0
 12 21  2  0
 21  7  1  0
 19 13  1  0
M  END
>  <alias>  (669) 
None

>  <rmsd(smina/fragmenstein)>  (669) 
0.811

>  <smiles>  (669) 
C[C@H](Br)C(=O)Nc1cc(Cl)cc(N2CCC(=O)NC2=O)c1

>  <gnina_score>  (669) 
5.322

>  <inspiration_score>  (669) 
None

>  <energy_score>  (669) 
-28.657567

>  <distance_score>  (669) 
1.394588

>  <gnina_score_min>  (669) 
5.419

>  <inchikey>  (669) 
ZGVZSPZJDBPSRH-ZETCQYMHSA-N

>  <exports>  (669) 
['/opt/xchem-fragalysis-2/maxwin/BulkDock/OUTPUTS/openbind_a71ev2a_c2_elabs_1LOUU54.sdf', '/opt/xchem-fragalysis-2/maxwin/BulkDock/OUTPUTS/openbind_a71ev2a_c2_elabs_1LSYIDY.sdf']

>  <name>  (669) 
P546207

>  <ref_pdb>  (669) 
A0884a

>  <subsites>  (669) 
None

>  <HIPPO Pose ID>  (669) 
546207

>  <ref_mols>  (669) 
A0884a

>  <HIPPO Compound ID>  (669) 
384828

>  <tags>  (669) 
openbind_a71ev2a_c2_elabs,syndirella_product,openbind_a71ev2a_c2_elabs_fragonly_scored_top80percent,openbind_a71ev2a_c2_elabs_scored,BulkDock Fragalysis export,openbind_a71ev2a_c2_elabs_scored_top80percent,openbind_a71ev2a_c2_elabs_activefrags_only_scored_5.2plus,syndirella_placed

>  <smina_score_min>  (669) 
-6.758

$$$$
P546208
     RDKit          3D

 21 22  0  0  0  0  0  0  0  0999 V2000
    5.0885   14.9173   27.7475 C   0  0  0  0  0  0  0  0  0  0  0  0
    4.3626   13.9247   26.8586 C   0  0  2  0  0  0  0  0  0  0  0  0
    2.7317   13.3272   27.7650 Br  0  0  0  0  0  0  0  0  0  0  0  0
    5.2394   12.7041   26.5308 C   0  0  0  0  0  0  0  0  0  0  0  0
    5.1136   11.6495   27.0250 O   0  0  0  0  0  0  0  0  0  0  0  0
    6.2494   13.1994   25.4383 N   0  0  0  0  0  0  0  0  0  0  0  0
    7.3247   12.5421   24.8320 C   0  0  0  0  0  0  0  0  0  0  0  0
    8.1491   13.3182   24.0079 C   0  0  0  0  0  0  0  0  0  0  0  0
    9.2872   12.7647   23.4122 C   0  0  0  0  0  0  0  0  0  0  0  0
   10.1699   13.5625   22.6416 N   0  0  0  0  0  0  0  0  0  0  0  0
    9.6166   14.4931   21.6707 C   0  0  0  0  0  0  0  0  0  0  0  0
   10.5972   14.9303   20.6044 C   0  0  0  0  0  0  0  0  0  0  0  0
   12.0037   14.5610   20.9556 C   0  0  0  0  0  0  0  0  0  0  0  0
   12.8488   14.3265   20.0972 O   0  0  0  0  0  0  0  0  0  0  0  0
   12.2672   14.5223   22.2906 N   0  0  0  0  0  0  0  0  0  0  0  0
   11.4716   13.7595   23.0997 C   0  0  0  0  0  0  0  0  0  0  0  0
   11.9212   13.2864   24.1420 O   0  0  0  0  0  0  0  0  0  0  0  0
    9.5560   11.4044   23.5706 C   0  0  0  0  0  0  0  0  0  0  0  0
    8.7058   10.6109   24.3332 C   0  0  0  0  0  0  0  0  0  0  0  0
    7.6195   11.1855   24.9878 C   0  0  0  0  0  0  0  0  0  0  0  0
    6.8557   10.3802   25.7314 F   0  0  0  0  0  0  0  0  0  0  0  0
  2  1  1  1
  2  3  1  0
  2  4  1  0
  4  5  2  0
  4  6  1  0
  6  7  1  0
  7  8  2  0
  8  9  1  0
  9 10  1  0
 10 11  1  0
 11 12  1  0
 12 13  1  0
 13 14  2  0
 13 15  1  0
 15 16  1  0
 16 17  2  0
  9 18  2  0
 18 19  1  0
 19 20  2  0
 20 21  1  0
 20  7  1  0
 16 10  1  0
M  END
>  <alias>  (670) 
None

>  <rmsd(smina/fragmenstein)>  (670) 
0.813

>  <smiles>  (670) 
C[C@H](Br)C(=O)Nc1cc(N2CCC(=O)NC2=O)ccc1F

>  <gnina_score>  (670) 
5.408

>  <inspiration_score>  (670) 
None

>  <energy_score>  (670) 
-32.464909

>  <distance_score>  (670) 
1.241308

>  <gnina_score_min>  (670) 
5.333

>  <inchikey>  (670) 
VUFYOXAYKDFBHW-ZETCQYMHSA-N

>  <exports>  (670) 
['/opt/xchem-fragalysis-2/maxwin/BulkDock/OUTPUTS/openbind_a71ev2a_c2_elabs_1LOUU54.sdf', '/opt/xchem-fragalysis-2/maxwin/BulkDock/OUTPUTS/openbind_a71ev2a_c2_elabs_1LSYIDY.sdf']

>  <name>  (670) 
P546208

>  <ref_pdb>  (670) 
A0884a

>  <subsites>  (670) 
None

>  <HIPPO Pose ID>  (670) 
546208

>  <ref_mols>  (670) 
A0884a

>  <HIPPO Compound ID>  (670) 
384829

>  <tags>  (670) 
openbind_a71ev2a_c2_elabs,syndirella_product,openbind_a71ev2a_c2_elabs_fragonly_scored_top80percent,openbind_a71ev2a_c2_elabs_scored,BulkDock Fragalysis export,openbind_a71ev2a_c2_elabs_scored_top80percent,openbind_a71ev2a_c2_elabs_activefrags_only_scored_5.2plus,syndirella_placed

>  <smina_score_min>  (670) 
-7.194

$$$$
P546210
     RDKit          3D

 21 22  0  0  0  0  0  0  0  0999 V2000
    9.9456   10.3245   23.0538 C   0  0  0  0  0  0  0  0  0  0  0  0
    9.0622   11.2612   23.8121 C   0  0  0  0  0  0  0  0  0  0  0  0
    8.1282   10.6689   24.6770 C   0  0  0  0  0  0  0  0  0  0  0  0
    7.2080   11.4394   25.3813 C   0  0  0  0  0  0  0  0  0  0  0  0
    7.2130   12.8198   25.2324 C   0  0  0  0  0  0  0  0  0  0  0  0
    6.3017   13.6356   25.8965 N   0  0  0  0  0  0  0  0  0  0  0  0
    5.0708   13.2671   26.7858 C   0  0  0  0  0  0  0  0  0  0  0  0
    4.6860   12.2225   27.1553 O   0  0  0  0  0  0  0  0  0  0  0  0
    4.3096   14.5593   27.1051 C   0  0  2  0  0  0  0  0  0  0  0  0
    3.6875   15.2156   25.8886 C   0  0  0  0  0  0  0  0  0  0  0  0
    5.5262   15.7962   28.0012 Br  0  0  0  0  0  0  0  0  0  0  0  0
    8.1524   13.4245   24.3927 C   0  0  0  0  0  0  0  0  0  0  0  0
    9.0915   12.6622   23.6816 C   0  0  0  0  0  0  0  0  0  0  0  0
   10.0296   13.3311   22.8273 N   0  0  0  0  0  0  0  0  0  0  0  0
    9.5003   14.3234   21.8956 C   0  0  0  0  0  0  0  0  0  0  0  0
   10.4774   14.7971   20.8409 C   0  0  0  0  0  0  0  0  0  0  0  0
   11.8963   14.5159   21.2125 C   0  0  0  0  0  0  0  0  0  0  0  0
   12.7920   14.4634   20.3733 O   0  0  0  0  0  0  0  0  0  0  0  0
   12.1281   14.3357   22.5426 N   0  0  0  0  0  0  0  0  0  0  0  0
   11.3141   13.5615   23.3277 C   0  0  0  0  0  0  0  0  0  0  0  0
   11.7459   13.1148   24.3886 O   0  0  0  0  0  0  0  0  0  0  0  0
  1  2  1  0
  2  3  2  0
  3  4  1  0
  4  5  2  0
  5  6  1  0
  6  7  1  0
  7  8  2  0
  7  9  1  0
  9 10  1  6
  9 11  1  0
  5 12  1  0
 12 13  2  0
 13 14  1  0
 14 15  1  0
 15 16  1  0
 16 17  1  0
 17 18  2  0
 17 19  1  0
 19 20  1  0
 20 21  2  0
 13  2  1  0
 20 14  1  0
M  END
>  <alias>  (671) 
None

>  <rmsd(smina/fragmenstein)>  (671) 
0.923

>  <smiles>  (671) 
Cc1ccc(NC(=O)[C@H](C)Br)cc1N1CCC(=O)NC1=O

>  <gnina_score>  (671) 
5.453

>  <inspiration_score>  (671) 
None

>  <energy_score>  (671) 
-5.649698

>  <distance_score>  (671) 
1.416026

>  <gnina_score_min>  (671) 
5.357

>  <inchikey>  (671) 
IOTZWYHJTFPBCZ-VIFPVBQESA-N

>  <exports>  (671) 
['/opt/xchem-fragalysis-2/maxwin/BulkDock/OUTPUTS/openbind_a71ev2a_c2_elabs_1LOUU54.sdf', '/opt/xchem-fragalysis-2/maxwin/BulkDock/OUTPUTS/openbind_a71ev2a_c2_elabs_1LSYIDY.sdf']

>  <name>  (671) 
P546210

>  <ref_pdb>  (671) 
A0884a

>  <subsites>  (671) 
None

>  <HIPPO Pose ID>  (671) 
546210

>  <ref_mols>  (671) 
A0884a

>  <HIPPO Compound ID>  (671) 
384831

>  <tags>  (671) 
openbind_a71ev2a_c2_elabs,syndirella_product,openbind_a71ev2a_c2_elabs_fragonly_scored_top80percent,openbind_a71ev2a_c2_elabs_scored,BulkDock Fragalysis export,openbind_a71ev2a_c2_elabs_scored_top80percent,openbind_a71ev2a_c2_elabs_activefrags_only_scored_5.2plus,syndirella_placed

>  <smina_score_min>  (671) 
-6.983

$$$$
P546212
     RDKit          3D

 21 22  0  0  0  0  0  0  0  0999 V2000
    4.4279   14.6113   28.7746 C   0  0  0  0  0  0  0  0  0  0  0  0
    4.8695   13.4566   27.9276 C   0  0  0  0  0  0  0  0  0  0  0  0
    4.2071   12.4386   27.7428 O   0  0  0  0  0  0  0  0  0  0  0  0
    6.2445   13.5858   27.2589 C   0  0  0  0  0  0  0  0  0  0  0  0
    6.9322   14.5032   27.4637 O   0  0  0  0  0  0  0  0  0  0  0  0
    6.4513   12.3665   26.3346 N   0  0  0  0  0  0  0  0  0  0  0  0
    7.4761   12.0781   25.4245 C   0  0  0  0  0  0  0  0  0  0  0  0
    7.5547   10.7209   25.0846 C   0  0  0  0  0  0  0  0  0  0  0  0
    8.5128   10.2588   24.1938 C   0  0  0  0  0  0  0  0  0  0  0  0
    9.4030   11.1474   23.6343 C   0  0  0  0  0  0  0  0  0  0  0  0
   10.3076   10.6762   22.7729 F   0  0  0  0  0  0  0  0  0  0  0  0
    9.3866   12.4986   23.9766 C   0  0  0  0  0  0  0  0  0  0  0  0
   10.4332   13.2778   23.4565 N   0  0  0  0  0  0  0  0  0  0  0  0
   11.3744   13.9496   24.1786 C   0  0  0  0  0  0  0  0  0  0  0  0
   11.4781   14.0401   25.3946 O   0  0  0  0  0  0  0  0  0  0  0  0
   12.3015   14.6412   23.1970 C   0  0  0  0  0  0  0  0  0  0  0  0
   11.6699   14.3714   21.9622 N   0  0  0  0  0  0  0  0  0  0  0  0
   10.4710   13.7512   22.1829 C   0  0  0  0  0  0  0  0  0  0  0  0
    9.5629   13.8080   21.3767 O   0  0  0  0  0  0  0  0  0  0  0  0
    8.3741   12.9931   24.8358 C   0  0  0  0  0  0  0  0  0  0  0  0
    8.2062   14.4765   24.9718 C   0  0  0  0  0  0  0  0  0  0  0  0
  1  2  1  0
  2  3  2  0
  2  4  1  0
  4  5  2  0
  4  6  1  0
  6  7  1  0
  7  8  2  0
  8  9  1  0
  9 10  2  0
 10 11  1  0
 10 12  1  0
 12 13  1  0
 13 14  1  0
 14 15  2  0
 14 16  1  0
 16 17  1  0
 17 18  1  0
 18 19  2  0
 12 20  2  0
 20 21  1  0
 20  7  1  0
 18 13  1  0
M  END
>  <alias>  (672) 
None

>  <rmsd(smina/fragmenstein)>  (672) 
0.609

>  <smiles>  (672) 
CC(=O)C(=O)Nc1ccc(F)c(N2C(=O)CNC2=O)c1C

>  <gnina_score>  (672) 
5.321

>  <inspiration_score>  (672) 
None

>  <energy_score>  (672) 
-30.274668

>  <distance_score>  (672) 
1.62746

>  <gnina_score_min>  (672) 
5.311

>  <inchikey>  (672) 
HYPYOMMJLIHTBZ-UHFFFAOYSA-N

>  <exports>  (672) 
['/opt/xchem-fragalysis-2/maxwin/BulkDock/OUTPUTS/openbind_a71ev2a_c2_elabs_1LOUU54.sdf', '/opt/xchem-fragalysis-2/maxwin/BulkDock/OUTPUTS/openbind_a71ev2a_c2_elabs_1LSYIDY.sdf']

>  <name>  (672) 
P546212

>  <ref_pdb>  (672) 
A0884a

>  <subsites>  (672) 
None

>  <HIPPO Pose ID>  (672) 
546212

>  <ref_mols>  (672) 
A0884a

>  <HIPPO Compound ID>  (672) 
384832

>  <tags>  (672) 
openbind_a71ev2a_c2_elabs,syndirella_product,openbind_a71ev2a_c2_elabs_fragonly_scored_top80percent,openbind_a71ev2a_c2_elabs_scored,BulkDock Fragalysis export,openbind_a71ev2a_c2_elabs_scored_top80percent,openbind_a71ev2a_c2_elabs_activefrags_only_scored_5.2plus,syndirella_placed

>  <smina_score_min>  (672) 
-6.423

$$$$
P546213
     RDKit          3D

 21 22  0  0  0  0  0  0  0  0999 V2000
    2.9044   14.4274   25.1164 C   0  0  0  0  0  0  0  0  0  0  0  0
    4.1305   15.2733   26.1479 S   0  0  0  0  0  0  0  0  0  0  0  0
    4.4977   13.9399   27.3292 C   0  0  0  0  0  0  0  0  0  0  0  0
    5.2120   12.7302   26.7201 C   0  0  0  0  0  0  0  0  0  0  0  0
    4.9751   11.6352   27.0619 O   0  0  0  0  0  0  0  0  0  0  0  0
    6.2755   13.2664   25.7142 N   0  0  0  0  0  0  0  0  0  0  0  0
    7.2848   12.5996   25.0254 C   0  0  0  0  0  0  0  0  0  0  0  0
    7.4683   11.2201   25.1379 C   0  0  0  0  0  0  0  0  0  0  0  0
    8.5045   10.5988   24.4412 C   0  0  0  0  0  0  0  0  0  0  0  0
    9.3733   11.3619   23.6714 C   0  0  0  0  0  0  0  0  0  0  0  0
   10.3342   10.7333   22.9888 F   0  0  0  0  0  0  0  0  0  0  0  0
    9.2035   12.7431   23.5445 C   0  0  0  0  0  0  0  0  0  0  0  0
   10.1018   13.5062   22.7473 N   0  0  0  0  0  0  0  0  0  0  0  0
    9.5538   14.4363   21.7747 C   0  0  0  0  0  0  0  0  0  0  0  0
   10.5400   14.9017   20.7250 C   0  0  0  0  0  0  0  0  0  0  0  0
   11.9534   14.5549   21.0719 C   0  0  0  0  0  0  0  0  0  0  0  0
   12.8179   14.4108   20.2110 O   0  0  0  0  0  0  0  0  0  0  0  0
   12.2117   14.4433   22.4042 N   0  0  0  0  0  0  0  0  0  0  0  0
   11.4005   13.6922   23.2099 C   0  0  0  0  0  0  0  0  0  0  0  0
   11.8370   13.2334   24.2645 O   0  0  0  0  0  0  0  0  0  0  0  0
    8.1348   13.3541   24.2080 C   0  0  0  0  0  0  0  0  0  0  0  0
  1  2  1  0
  2  3  1  0
  3  4  1  0
  4  5  2  0
  4  6  1  0
  6  7  1  0
  7  8  2  0
  8  9  1  0
  9 10  2  0
 10 11  1  0
 10 12  1  0
 12 13  1  0
 13 14  1  0
 14 15  1  0
 15 16  1  0
 16 17  2  0
 16 18  1  0
 18 19  1  0
 19 20  2  0
 12 21  2  0
 21  7  1  0
 19 13  1  0
M  END
>  <alias>  (673) 
None

>  <rmsd(smina/fragmenstein)>  (673) 
0.611

>  <smiles>  (673) 
CSCC(=O)Nc1ccc(F)c(N2CCC(=O)NC2=O)c1

>  <gnina_score>  (673) 
5.428

>  <inspiration_score>  (673) 
None

>  <energy_score>  (673) 
-44.360721

>  <distance_score>  (673) 
1.228036

>  <gnina_score_min>  (673) 
5.346

>  <inchikey>  (673) 
DKNBLLXULFABEC-UHFFFAOYSA-N

>  <exports>  (673) 
['/opt/xchem-fragalysis-2/maxwin/BulkDock/OUTPUTS/openbind_a71ev2a_c2_elabs_1LOUU54.sdf', '/opt/xchem-fragalysis-2/maxwin/BulkDock/OUTPUTS/openbind_a71ev2a_c2_elabs_1LSYIDY.sdf']

>  <name>  (673) 
P546213

>  <ref_pdb>  (673) 
A0884a

>  <subsites>  (673) 
None

>  <HIPPO Pose ID>  (673) 
546213

>  <ref_mols>  (673) 
A0884a

>  <HIPPO Compound ID>  (673) 
384835

>  <tags>  (673) 
openbind_a71ev2a_c2_elabs,syndirella_product,openbind_a71ev2a_c2_elabs_fragonly_scored_top80percent,openbind_a71ev2a_c2_elabs_scored,BulkDock Fragalysis export,openbind_a71ev2a_c2_elabs_scored_top80percent,openbind_a71ev2a_c2_elabs_activefrags_only_scored_5.2plus,syndirella_placed

>  <smina_score_min>  (673) 
-6.62

$$$$
P546215
     RDKit          3D

 21 22  0  0  0  0  0  0  0  0999 V2000
    3.4283   14.4485   25.8263 C   0  0  0  0  0  0  0  0  0  0  0  0
    3.9425   13.4163   27.2313 S   0  0  0  0  0  0  0  0  0  0  0  0
    5.3622   14.4066   27.8014 C   0  0  0  0  0  0  0  0  0  0  0  0
    6.4784   14.5655   26.7671 C   0  0  0  0  0  0  0  0  0  0  0  0
    7.0687   15.5692   26.6474 O   0  0  0  0  0  0  0  0  0  0  0  0
    6.6681   13.1911   26.0550 N   0  0  0  0  0  0  0  0  0  0  0  0
    7.6422   12.7660   25.1591 C   0  0  0  0  0  0  0  0  0  0  0  0
    7.8109   11.4005   24.9275 C   0  0  0  0  0  0  0  0  0  0  0  0
    8.8396   10.9601   24.0856 C   0  0  0  0  0  0  0  0  0  0  0  0
    9.0983    9.5246   23.8289 C   0  0  0  0  0  0  0  0  0  0  0  0
    9.6573   11.8804   23.4465 C   0  0  0  0  0  0  0  0  0  0  0  0
    9.4569   13.2387   23.6484 C   0  0  0  0  0  0  0  0  0  0  0  0
   10.2557   14.1623   22.9379 N   0  0  0  0  0  0  0  0  0  0  0  0
    9.7099   14.5473   21.6346 C   0  0  0  0  0  0  0  0  0  0  0  0
   10.6456   15.3574   20.7827 C   0  0  0  0  0  0  0  0  0  0  0  0
   12.0198   14.7869   20.9383 C   0  0  0  0  0  0  0  0  0  0  0  0
   12.7212   14.4197   20.0008 O   0  0  0  0  0  0  0  0  0  0  0  0
   12.4229   14.7112   22.2400 N   0  0  0  0  0  0  0  0  0  0  0  0
   11.6213   14.1454   23.1869 C   0  0  0  0  0  0  0  0  0  0  0  0
   12.1236   13.6271   24.1860 O   0  0  0  0  0  0  0  0  0  0  0  0
    8.4549   13.6873   24.5030 C   0  0  0  0  0  0  0  0  0  0  0  0
  1  2  1  0
  2  3  1  0
  3  4  1  0
  4  5  2  0
  4  6  1  0
  6  7  1  0
  7  8  2  0
  8  9  1  0
  9 10  1  0
  9 11  2  0
 11 12  1  0
 12 13  1  0
 13 14  1  0
 14 15  1  0
 15 16  1  0
 16 17  2  0
 16 18  1  0
 18 19  1  0
 19 20  2  0
 12 21  2  0
 21  7  1  0
 19 13  1  0
M  END
>  <alias>  (674) 
None

>  <rmsd(smina/fragmenstein)>  (674) 
0.338

>  <smiles>  (674) 
CSCC(=O)Nc1cc(C)cc(N2CCC(=O)NC2=O)c1

>  <gnina_score>  (674) 
5.407

>  <inspiration_score>  (674) 
None

>  <energy_score>  (674) 
-46.904425

>  <distance_score>  (674) 
1.665914

>  <gnina_score_min>  (674) 
5.434

>  <inchikey>  (674) 
ZGPGNUVBZQPWHX-UHFFFAOYSA-N

>  <exports>  (674) 
['/opt/xchem-fragalysis-2/maxwin/BulkDock/OUTPUTS/openbind_a71ev2a_c2_elabs_1LOUU54.sdf', '/opt/xchem-fragalysis-2/maxwin/BulkDock/OUTPUTS/openbind_a71ev2a_c2_elabs_1LSYIDY.sdf']

>  <name>  (674) 
P546215

>  <ref_pdb>  (674) 
A0884a

>  <subsites>  (674) 
None

>  <HIPPO Pose ID>  (674) 
546215

>  <ref_mols>  (674) 
A0884a

>  <HIPPO Compound ID>  (674) 
384838

>  <tags>  (674) 
openbind_a71ev2a_c2_elabs,syndirella_product,openbind_a71ev2a_c2_elabs_fragonly_scored_top80percent,openbind_a71ev2a_c2_elabs_scored,BulkDock Fragalysis export,openbind_a71ev2a_c2_elabs_scored_top80percent,openbind_a71ev2a_c2_elabs_activefrags_only_scored_5.2plus,syndirella_placed

>  <smina_score_min>  (674) 
-6.335

$$$$
P546216
     RDKit          3D

 21 22  0  0  0  0  0  0  0  0999 V2000
    4.1779   16.2157   28.5533 C   0  0  0  0  0  0  0  0  0  0  0  0
    5.4928   15.0332   28.1729 S   0  0  0  0  0  0  0  0  0  0  0  0
    4.4961   13.8003   27.2762 C   0  0  0  0  0  0  0  0  0  0  0  0
    5.3781   12.6918   26.6968 C   0  0  0  0  0  0  0  0  0  0  0  0
    5.1890   11.5544   26.9043 O   0  0  0  0  0  0  0  0  0  0  0  0
    6.4169   13.3904   25.7642 N   0  0  0  0  0  0  0  0  0  0  0  0
    7.4507   12.8553   25.0046 C   0  0  0  0  0  0  0  0  0  0  0  0
    7.6937   11.4862   24.9303 C   0  0  0  0  0  0  0  0  0  0  0  0
    8.7590   11.0335   24.1552 C   0  0  0  0  0  0  0  0  0  0  0  0
    9.0486    9.3821   23.9255 Cl  0  0  0  0  0  0  0  0  0  0  0  0
    9.6042   11.9085   23.4998 C   0  0  0  0  0  0  0  0  0  0  0  0
    9.3551   13.2695   23.5756 C   0  0  0  0  0  0  0  0  0  0  0  0
   10.1870   14.1668   22.8669 N   0  0  0  0  0  0  0  0  0  0  0  0
    9.6658   14.5730   21.5612 C   0  0  0  0  0  0  0  0  0  0  0  0
   10.6304   15.3678   20.7281 C   0  0  0  0  0  0  0  0  0  0  0  0
   11.9943   14.7754   20.8985 C   0  0  0  0  0  0  0  0  0  0  0  0
   12.7093   14.4233   19.9662 O   0  0  0  0  0  0  0  0  0  0  0  0
   12.3763   14.6783   22.2050 N   0  0  0  0  0  0  0  0  0  0  0  0
   11.5482   14.1394   23.1439 C   0  0  0  0  0  0  0  0  0  0  0  0
   12.0201   13.6442   24.1683 O   0  0  0  0  0  0  0  0  0  0  0  0
    8.2654   13.7453   24.3011 C   0  0  0  0  0  0  0  0  0  0  0  0
  1  2  1  0
  2  3  1  0
  3  4  1  0
  4  5  2  0
  4  6  1  0
  6  7  1  0
  7  8  2  0
  8  9  1  0
  9 10  1  0
  9 11  2  0
 11 12  1  0
 12 13  1  0
 13 14  1  0
 14 15  1  0
 15 16  1  0
 16 17  2  0
 16 18  1  0
 18 19  1  0
 19 20  2  0
 12 21  2  0
 21  7  1  0
 19 13  1  0
M  END
>  <alias>  (675) 
None

>  <rmsd(smina/fragmenstein)>  (675) 
1.064

>  <smiles>  (675) 
CSCC(=O)Nc1cc(Cl)cc(N2CCC(=O)NC2=O)c1

>  <gnina_score>  (675) 
5.2

>  <inspiration_score>  (675) 
None

>  <energy_score>  (675) 
-23.983887

>  <distance_score>  (675) 
1.344204

>  <gnina_score_min>  (675) 
5.425

>  <inchikey>  (675) 
AJMAVWFQKWQQSF-UHFFFAOYSA-N

>  <exports>  (675) 
['/opt/xchem-fragalysis-2/maxwin/BulkDock/OUTPUTS/openbind_a71ev2a_c2_elabs_1LOUU54.sdf', '/opt/xchem-fragalysis-2/maxwin/BulkDock/OUTPUTS/openbind_a71ev2a_c2_elabs_1LSYIDY.sdf']

>  <name>  (675) 
P546216

>  <ref_pdb>  (675) 
A0884a

>  <subsites>  (675) 
None

>  <HIPPO Pose ID>  (675) 
546216

>  <ref_mols>  (675) 
A0884a

>  <HIPPO Compound ID>  (675) 
384839

>  <tags>  (675) 
openbind_a71ev2a_c2_elabs,syndirella_product,openbind_a71ev2a_c2_elabs_fragonly_scored_top80percent,openbind_a71ev2a_c2_elabs_scored,BulkDock Fragalysis export,openbind_a71ev2a_c2_elabs_scored_top80percent,openbind_a71ev2a_c2_elabs_activefrags_only_scored_5.2plus,syndirella_placed

>  <smina_score_min>  (675) 
-6.564

$$$$
P546217
     RDKit          3D

 21 22  0  0  0  0  0  0  0  0999 V2000
    4.0490   16.6595   27.1576 C   0  0  0  0  0  0  0  0  0  0  0  0
    5.3067   15.3854   27.4157 S   0  0  0  0  0  0  0  0  0  0  0  0
    4.3709   13.9449   26.8000 C   0  0  0  0  0  0  0  0  0  0  0  0
    5.2987   12.7511   26.5615 C   0  0  0  0  0  0  0  0  0  0  0  0
    5.1182   11.6915   27.0262 O   0  0  0  0  0  0  0  0  0  0  0  0
    6.4022   13.2484   25.5746 N   0  0  0  0  0  0  0  0  0  0  0  0
    7.4104   12.5442   24.9125 C   0  0  0  0  0  0  0  0  0  0  0  0
    8.2602   13.3107   24.1066 C   0  0  0  0  0  0  0  0  0  0  0  0
    9.3403   12.7243   23.4426 C   0  0  0  0  0  0  0  0  0  0  0  0
   10.2166   13.5083   22.6529 N   0  0  0  0  0  0  0  0  0  0  0  0
    9.6468   14.4584   21.7104 C   0  0  0  0  0  0  0  0  0  0  0  0
   10.6085   14.9072   20.6327 C   0  0  0  0  0  0  0  0  0  0  0  0
   12.0221   14.5556   20.9729 C   0  0  0  0  0  0  0  0  0  0  0  0
   12.8628   14.3383   20.1058 O   0  0  0  0  0  0  0  0  0  0  0  0
   12.2943   14.5088   22.3064 N   0  0  0  0  0  0  0  0  0  0  0  0
   11.5132   13.7290   23.1151 C   0  0  0  0  0  0  0  0  0  0  0  0
   11.9701   13.2602   24.1556 O   0  0  0  0  0  0  0  0  0  0  0  0
    9.5497   11.3490   23.5453 C   0  0  0  0  0  0  0  0  0  0  0  0
    8.6801   10.5700   24.3038 C   0  0  0  0  0  0  0  0  0  0  0  0
    7.6294   11.1686   24.9977 C   0  0  0  0  0  0  0  0  0  0  0  0
    6.8404   10.3731   25.7260 F   0  0  0  0  0  0  0  0  0  0  0  0
  1  2  1  0
  2  3  1  0
  3  4  1  0
  4  5  2  0
  4  6  1  0
  6  7  1  0
  7  8  2  0
  8  9  1  0
  9 10  1  0
 10 11  1  0
 11 12  1  0
 12 13  1  0
 13 14  2  0
 13 15  1  0
 15 16  1  0
 16 17  2  0
  9 18  2  0
 18 19  1  0
 19 20  2  0
 20 21  1  0
 20  7  1  0
 16 10  1  0
M  END
>  <alias>  (676) 
None

>  <rmsd(smina/fragmenstein)>  (676) 
0.842

>  <smiles>  (676) 
CSCC(=O)Nc1cc(N2CCC(=O)NC2=O)ccc1F

>  <gnina_score>  (676) 
5.39

>  <inspiration_score>  (676) 
None

>  <energy_score>  (676) 
-28.100243

>  <distance_score>  (676) 
1.212058

>  <gnina_score_min>  (676) 
5.315

>  <inchikey>  (676) 
IOSRQZQDDNMAAP-UHFFFAOYSA-N

>  <exports>  (676) 
['/opt/xchem-fragalysis-2/maxwin/BulkDock/OUTPUTS/openbind_a71ev2a_c2_elabs_1LOUU54.sdf', '/opt/xchem-fragalysis-2/maxwin/BulkDock/OUTPUTS/openbind_a71ev2a_c2_elabs_1LSYIDY.sdf']

>  <name>  (676) 
P546217

>  <ref_pdb>  (676) 
A0884a

>  <subsites>  (676) 
None

>  <HIPPO Pose ID>  (676) 
546217

>  <ref_mols>  (676) 
A0884a

>  <HIPPO Compound ID>  (676) 
384840

>  <tags>  (676) 
openbind_a71ev2a_c2_elabs,syndirella_product,openbind_a71ev2a_c2_elabs_fragonly_scored_top80percent,openbind_a71ev2a_c2_elabs_scored,BulkDock Fragalysis export,openbind_a71ev2a_c2_elabs_scored_top80percent,openbind_a71ev2a_c2_elabs_activefrags_only_scored_5.2plus,syndirella_placed

>  <smina_score_min>  (676) 
-6.806

$$$$
P546218
     RDKit          3D

 21 22  0  0  0  0  0  0  0  0999 V2000
    5.9605   14.3597   29.8220 C   0  0  0  0  0  0  0  0  0  0  0  0
    5.7691   15.4872   28.4170 S   0  0  0  0  0  0  0  0  0  0  0  0
    4.5728   14.5232   27.4356 C   0  0  0  0  0  0  0  0  0  0  0  0
    5.1879   13.2084   26.9621 C   0  0  0  0  0  0  0  0  0  0  0  0
    4.8298   12.1593   27.3425 O   0  0  0  0  0  0  0  0  0  0  0  0
    6.2943   13.5854   25.9256 N   0  0  0  0  0  0  0  0  0  0  0  0
    7.2089   12.7836   25.2485 C   0  0  0  0  0  0  0  0  0  0  0  0
    7.2040   11.4009   25.3760 C   0  0  0  0  0  0  0  0  0  0  0  0
    8.1296   10.6414   24.6676 C   0  0  0  0  0  0  0  0  0  0  0  0
    9.0638   11.2463   23.8127 C   0  0  0  0  0  0  0  0  0  0  0  0
    9.9524   10.3203   23.0478 C   0  0  0  0  0  0  0  0  0  0  0  0
    9.0891   12.6487   23.6974 C   0  0  0  0  0  0  0  0  0  0  0  0
   10.0234   13.3263   22.8461 N   0  0  0  0  0  0  0  0  0  0  0  0
    9.4884   14.3171   21.9168 C   0  0  0  0  0  0  0  0  0  0  0  0
   10.4628   14.7963   20.8616 C   0  0  0  0  0  0  0  0  0  0  0  0
   11.8840   14.5217   21.2308 C   0  0  0  0  0  0  0  0  0  0  0  0
   12.7797   14.4768   20.3911 O   0  0  0  0  0  0  0  0  0  0  0  0
   12.1183   14.3378   22.5598 N   0  0  0  0  0  0  0  0  0  0  0  0
   11.3074   13.5606   23.3450 C   0  0  0  0  0  0  0  0  0  0  0  0
   11.7421   13.1137   24.4046 O   0  0  0  0  0  0  0  0  0  0  0  0
    8.1482   13.4011   24.4174 C   0  0  0  0  0  0  0  0  0  0  0  0
  1  2  1  0
  2  3  1  0
  3  4  1  0
  4  5  2  0
  4  6  1  0
  6  7  1  0
  7  8  2  0
  8  9  1  0
  9 10  2  0
 10 11  1  0
 10 12  1  0
 12 13  1  0
 13 14  1  0
 14 15  1  0
 15 16  1  0
 16 17  2  0
 16 18  1  0
 18 19  1  0
 19 20  2  0
 12 21  2  0
 21  7  1  0
 19 13  1  0
M  END
>  <alias>  (677) 
None

>  <rmsd(smina/fragmenstein)>  (677) 
0.45

>  <smiles>  (677) 
CSCC(=O)Nc1ccc(C)c(N2CCC(=O)NC2=O)c1

>  <gnina_score>  (677) 
5.296

>  <inspiration_score>  (677) 
None

>  <energy_score>  (677) 
-44.589925

>  <distance_score>  (677) 
1.378451

>  <gnina_score_min>  (677) 
5.304

>  <inchikey>  (677) 
OJAQWHZXPKWMSI-UHFFFAOYSA-N

>  <exports>  (677) 
['/opt/xchem-fragalysis-2/maxwin/BulkDock/OUTPUTS/openbind_a71ev2a_c2_elabs_1LOUU54.sdf', '/opt/xchem-fragalysis-2/maxwin/BulkDock/OUTPUTS/openbind_a71ev2a_c2_elabs_1LSYIDY.sdf']

>  <name>  (677) 
P546218

>  <ref_pdb>  (677) 
A0884a

>  <subsites>  (677) 
None

>  <HIPPO Pose ID>  (677) 
546218

>  <ref_mols>  (677) 
A0884a

>  <HIPPO Compound ID>  (677) 
384841

>  <tags>  (677) 
openbind_a71ev2a_c2_elabs,syndirella_product,openbind_a71ev2a_c2_elabs_fragonly_scored_top80percent,openbind_a71ev2a_c2_elabs_scored,BulkDock Fragalysis export,openbind_a71ev2a_c2_elabs_scored_top80percent,openbind_a71ev2a_c2_elabs_activefrags_only_scored_5.2plus,syndirella_placed

>  <smina_score_min>  (677) 
-6.454

$$$$
P546219
     RDKit          3D

 21 22  0  0  0  0  0  0  0  0999 V2000
    4.5028   11.5668   29.7492 C   0  0  0  0  0  0  0  0  0  0  0  0
    3.4390   12.0597   28.3686 S   0  0  0  0  0  0  0  0  0  0  0  0
    4.6813   12.8734   27.3131 C   0  0  0  0  0  0  0  0  0  0  0  0
    5.7053   11.9076   26.6962 C   0  0  0  0  0  0  0  0  0  0  0  0
    5.7538   10.7580   26.9091 O   0  0  0  0  0  0  0  0  0  0  0  0
    6.6152   12.8106   25.8012 N   0  0  0  0  0  0  0  0  0  0  0  0
    7.6647   12.4742   24.9507 C   0  0  0  0  0  0  0  0  0  0  0  0
    8.0621   11.1493   24.7378 C   0  0  0  0  0  0  0  0  0  0  0  0
    9.1314   10.9002   23.8814 C   0  0  0  0  0  0  0  0  0  0  0  0
    9.7406    9.2058   23.4052 Br  0  0  0  0  0  0  0  0  0  0  0  0
    9.8257   11.9336   23.2927 C   0  0  0  0  0  0  0  0  0  0  0  0
    9.4370   13.2422   23.5145 C   0  0  0  0  0  0  0  0  0  0  0  0
   10.1740   14.2648   22.8721 N   0  0  0  0  0  0  0  0  0  0  0  0
    9.6552   14.6123   21.5465 C   0  0  0  0  0  0  0  0  0  0  0  0
   10.6071   15.4032   20.6976 C   0  0  0  0  0  0  0  0  0  0  0  0
   11.9733   14.8206   20.8843 C   0  0  0  0  0  0  0  0  0  0  0  0
   12.6720   14.4049   19.9667 O   0  0  0  0  0  0  0  0  0  0  0  0
   12.3630   14.7968   22.1913 N   0  0  0  0  0  0  0  0  0  0  0  0
   11.5414   14.2909   23.1530 C   0  0  0  0  0  0  0  0  0  0  0  0
   12.0172   13.8406   24.1970 O   0  0  0  0  0  0  0  0  0  0  0  0
    8.3346   13.5230   24.3108 C   0  0  0  0  0  0  0  0  0  0  0  0
  1  2  1  0
  2  3  1  0
  3  4  1  0
  4  5  2  0
  4  6  1  0
  6  7  1  0
  7  8  2  0
  8  9  1  0
  9 10  1  0
  9 11  2  0
 11 12  1  0
 12 13  1  0
 13 14  1  0
 14 15  1  0
 15 16  1  0
 16 17  2  0
 16 18  1  0
 18 19  1  0
 19 20  2  0
 12 21  2  0
 21  7  1  0
 19 13  1  0
M  END
>  <alias>  (678) 
None

>  <rmsd(smina/fragmenstein)>  (678) 
0.25

>  <smiles>  (678) 
CSCC(=O)Nc1cc(Br)cc(N2CCC(=O)NC2=O)c1

>  <gnina_score>  (678) 
5.524

>  <inspiration_score>  (678) 
None

>  <energy_score>  (678) 
-38.217883

>  <distance_score>  (678) 
1.258366

>  <gnina_score_min>  (678) 
5.557

>  <inchikey>  (678) 
LKHHKMDXINCDEV-UHFFFAOYSA-N

>  <exports>  (678) 
['/opt/xchem-fragalysis-2/maxwin/BulkDock/OUTPUTS/openbind_a71ev2a_c2_elabs_1LOUU54.sdf', '/opt/xchem-fragalysis-2/maxwin/BulkDock/OUTPUTS/openbind_a71ev2a_c2_elabs_1LSYIDY.sdf']

>  <name>  (678) 
P546219

>  <ref_pdb>  (678) 
A0884a

>  <subsites>  (678) 
None

>  <HIPPO Pose ID>  (678) 
546219

>  <ref_mols>  (678) 
A0884a

>  <HIPPO Compound ID>  (678) 
384844

>  <tags>  (678) 
openbind_a71ev2a_c2_elabs,syndirella_product,openbind_a71ev2a_c2_elabs_fragonly_scored_top80percent,BulkDock Fragalysis export,openbind_a71ev2a_c2_elabs_scored,openbind_a71ev2a_c2_elabs_scored_top80percent,openbind_a71ev2a_c2_elabs_activefrags_only_scored_5.2plus,openbind_a71ev2a_c2_elabs_activefrags_only_scored_5.5plus,syndirella_placed

>  <smina_score_min>  (678) 
-6.293

$$$$
P546220
     RDKit          3D

 21 22  0  0  0  0  0  0  0  0999 V2000
    3.6406   14.2391   25.9094 C   0  0  0  0  0  0  0  0  0  0  0  0
    4.8028   14.5441   27.2698 S   0  0  0  0  0  0  0  0  0  0  0  0
    4.9345   12.8568   27.9399 C   0  0  0  0  0  0  0  0  0  0  0  0
    5.6398   11.8327   27.0420 C   0  0  0  0  0  0  0  0  0  0  0  0
    5.4223   10.6865   27.1397 O   0  0  0  0  0  0  0  0  0  0  0  0
    6.6345   12.5950   26.1196 N   0  0  0  0  0  0  0  0  0  0  0  0
    7.5990   12.1123   25.2277 C   0  0  0  0  0  0  0  0  0  0  0  0
    7.7523   10.7427   25.0304 C   0  0  0  0  0  0  0  0  0  0  0  0
    8.7424   10.2610   24.1775 C   0  0  0  0  0  0  0  0  0  0  0  0
    9.6170   11.1359   23.5494 C   0  0  0  0  0  0  0  0  0  0  0  0
    9.4939   12.5126   23.7434 C   0  0  0  0  0  0  0  0  0  0  0  0
   10.4676   13.3503   23.1190 N   0  0  0  0  0  0  0  0  0  0  0  0
   10.1169   14.0332   21.9700 C   0  0  0  0  0  0  0  0  0  0  0  0
    9.0072   13.9626   21.4480 O   0  0  0  0  0  0  0  0  0  0  0  0
   11.1120   14.9810   21.3856 C   0  0  0  0  0  0  0  0  0  0  0  0
   12.4889   14.4776   21.6422 C   0  0  0  0  0  0  0  0  0  0  0  0
   12.6335   14.2103   23.0404 N   0  0  0  0  0  0  0  0  0  0  0  0
   11.6800   13.5500   23.7556 C   0  0  0  0  0  0  0  0  0  0  0  0
   11.9354   13.2285   24.9127 O   0  0  0  0  0  0  0  0  0  0  0  0
    8.4341   13.0176   24.5356 C   0  0  0  0  0  0  0  0  0  0  0  0
    8.2216   14.4956   24.6839 C   0  0  0  0  0  0  0  0  0  0  0  0
  1  2  1  0
  2  3  1  0
  3  4  1  0
  4  5  2  0
  4  6  1  0
  6  7  1  0
  7  8  2  0
  8  9  1  0
  9 10  2  0
 10 11  1  0
 11 12  1  0
 12 13  1  0
 13 14  2  0
 13 15  1  0
 15 16  1  0
 16 17  1  0
 17 18  1  0
 18 19  2  0
 11 20  2  0
 20 21  1  0
 20  7  1  0
 18 12  1  0
M  END
>  <alias>  (679) 
None

>  <rmsd(smina/fragmenstein)>  (679) 
0.472

>  <smiles>  (679) 
CSCC(=O)Nc1cccc(N2C(=O)CCNC2=O)c1C

>  <gnina_score>  (679) 
5.282

>  <inspiration_score>  (679) 
None

>  <energy_score>  (679) 
-23.847384

>  <distance_score>  (679) 
1.689948

>  <gnina_score_min>  (679) 
5.396

>  <inchikey>  (679) 
WZJKZVXCMKIVIY-UHFFFAOYSA-N

>  <exports>  (679) 
['/opt/xchem-fragalysis-2/maxwin/BulkDock/OUTPUTS/openbind_a71ev2a_c2_elabs_1LOUU54.sdf', '/opt/xchem-fragalysis-2/maxwin/BulkDock/OUTPUTS/openbind_a71ev2a_c2_elabs_1LSYIDY.sdf']

>  <name>  (679) 
P546220

>  <ref_pdb>  (679) 
A0884a

>  <subsites>  (679) 
None

>  <HIPPO Pose ID>  (679) 
546220

>  <ref_mols>  (679) 
A0884a

>  <HIPPO Compound ID>  (679) 
384845

>  <tags>  (679) 
openbind_a71ev2a_c2_elabs,syndirella_product,openbind_a71ev2a_c2_elabs_fragonly_scored_top80percent,openbind_a71ev2a_c2_elabs_scored,BulkDock Fragalysis export,openbind_a71ev2a_c2_elabs_scored_top80percent,openbind_a71ev2a_c2_elabs_activefrags_only_scored_5.2plus,syndirella_placed

>  <smina_score_min>  (679) 
-6.875

$$$$
P546236
     RDKit          3D

 21 22  0  0  0  0  0  0  0  0999 V2000
    5.3031   14.8446   27.9491 C   0  0  0  0  0  0  0  0  0  0  0  0
    4.5969   14.0193   26.8775 C   0  0  2  0  0  0  0  0  0  0  0  0
    3.3042   13.6130   27.3524 O   0  0  0  0  0  0  0  0  0  0  0  0
    2.3592   14.7151   27.1864 N   0  0  0  0  0  0  0  0  0  0  0  0
    5.4254   12.7465   26.5721 C   0  0  0  0  0  0  0  0  0  0  0  0
    5.1378   11.6808   26.9682 O   0  0  0  0  0  0  0  0  0  0  0  0
    6.6302   13.2073   25.6838 N   0  0  0  0  0  0  0  0  0  0  0  0
    7.6247   12.4640   25.0544 C   0  0  0  0  0  0  0  0  0  0  0  0
    7.5942   11.0721   25.0273 C   0  0  0  0  0  0  0  0  0  0  0  0
    8.5586   10.3699   24.3000 C   0  0  0  0  0  0  0  0  0  0  0  0
    9.5713   11.0458   23.6230 C   0  0  0  0  0  0  0  0  0  0  0  0
    9.6451   12.4356   23.7028 C   0  0  0  0  0  0  0  0  0  0  0  0
   10.7185   13.1014   23.0833 N   0  0  0  0  0  0  0  0  0  0  0  0
   11.6830   13.7300   23.8248 C   0  0  0  0  0  0  0  0  0  0  0  0
   11.9121   13.5946   25.0202 O   0  0  0  0  0  0  0  0  0  0  0  0
   12.3888   14.7403   22.9483 C   0  0  0  0  0  0  0  0  0  0  0  0
   11.6153   14.6744   21.7681 N   0  0  0  0  0  0  0  0  0  0  0  0
   10.5151   13.8930   21.9937 C   0  0  0  0  0  0  0  0  0  0  0  0
    9.4946   14.0360   21.3465 O   0  0  0  0  0  0  0  0  0  0  0  0
    8.6614   13.1379   24.4050 C   0  0  0  0  0  0  0  0  0  0  0  0
    8.7220   14.4786   24.4845 F   0  0  0  0  0  0  0  0  0  0  0  0
  2  1  1  1
  2  3  1  0
  3  4  1  0
  2  5  1  0
  5  6  2  0
  5  7  1  0
  7  8  1  0
  8  9  2  0
  9 10  1  0
 10 11  2  0
 11 12  1  0
 12 13  1  0
 13 14  1  0
 14 15  2  0
 14 16  1  0
 16 17  1  0
 17 18  1  0
 18 19  2  0
 12 20  2  0
 20 21  1  0
 20  8  1  0
 18 13  1  0
M  END
>  <alias>  (680) 
None

>  <rmsd(smina/fragmenstein)>  (680) 
1.131

>  <smiles>  (680) 
C[C@H](ON)C(=O)Nc1cccc(N2C(=O)CNC2=O)c1F

>  <gnina_score>  (680) 
5.233

>  <inspiration_score>  (680) 
None

>  <energy_score>  (680) 
-49.936262

>  <distance_score>  (680) 
1.59537

>  <gnina_score_min>  (680) 
5.231

>  <inchikey>  (680) 
LPKNPUBQJLUCLX-LURJTMIESA-N

>  <exports>  (680) 
['/opt/xchem-fragalysis-2/maxwin/BulkDock/OUTPUTS/openbind_a71ev2a_c2_elabs_1LOUU54.sdf', '/opt/xchem-fragalysis-2/maxwin/BulkDock/OUTPUTS/openbind_a71ev2a_c2_elabs_1LSYIDY.sdf']

>  <name>  (680) 
P546236

>  <ref_pdb>  (680) 
A0884a

>  <subsites>  (680) 
None

>  <HIPPO Pose ID>  (680) 
546236

>  <ref_mols>  (680) 
A0884a

>  <HIPPO Compound ID>  (680) 
384857

>  <tags>  (680) 
openbind_a71ev2a_c2_elabs,syndirella_product,openbind_a71ev2a_c2_elabs_fragonly_scored_top80percent,openbind_a71ev2a_c2_elabs_scored,BulkDock Fragalysis export,openbind_a71ev2a_c2_elabs_scored_top80percent,openbind_a71ev2a_c2_elabs_activefrags_only_scored_5.2plus,syndirella_placed

>  <smina_score_min>  (680) 
-6.453

$$$$
P546243
     RDKit          3D

 21 22  0  0  0  0  0  0  0  0999 V2000
    2.8192   14.5113   27.5277 C   0  0  0  0  0  0  0  0  0  0  0  0
    4.1737   14.7229   26.8755 C   0  0  1  0  0  0  0  0  0  0  0  0
    5.2812   15.8163   28.0622 Br  0  0  0  0  0  0  0  0  0  0  0  0
    4.9339   13.4090   26.6490 C   0  0  0  0  0  0  0  0  0  0  0  0
    4.5773   12.3768   27.0761 O   0  0  0  0  0  0  0  0  0  0  0  0
    6.1696   13.7642   25.7554 N   0  0  0  0  0  0  0  0  0  0  0  0
    7.1179   12.9400   25.1567 C   0  0  0  0  0  0  0  0  0  0  0  0
    7.1406   11.5675   25.3810 C   0  0  0  0  0  0  0  0  0  0  0  0
    8.0883   10.7802   24.7346 C   0  0  0  0  0  0  0  0  0  0  0  0
    9.0263   11.3609   23.8775 C   0  0  0  0  0  0  0  0  0  0  0  0
   10.0254   10.2649   23.0276 Cl  0  0  0  0  0  0  0  0  0  0  0  0
    9.0354   12.7490   23.6572 C   0  0  0  0  0  0  0  0  0  0  0  0
    9.9900   13.3934   22.7984 N   0  0  0  0  0  0  0  0  0  0  0  0
    9.4903   14.3613   21.8268 C   0  0  0  0  0  0  0  0  0  0  0  0
   10.4943   14.8126   20.7878 C   0  0  0  0  0  0  0  0  0  0  0  0
   11.9016   14.4900   21.1676 C   0  0  0  0  0  0  0  0  0  0  0  0
   12.8017   14.4232   20.3350 O   0  0  0  0  0  0  0  0  0  0  0  0
   12.1256   14.3071   22.4987 N   0  0  0  0  0  0  0  0  0  0  0  0
   11.2777   13.5875   23.2975 C   0  0  0  0  0  0  0  0  0  0  0  0
   11.6765   13.1744   24.3850 O   0  0  0  0  0  0  0  0  0  0  0  0
    8.0600   13.5240   24.3024 C   0  0  0  0  0  0  0  0  0  0  0  0
  2  1  1  1
  2  3  1  0
  2  4  1  0
  4  5  2  0
  4  6  1  0
  6  7  1  0
  7  8  2  0
  8  9  1  0
  9 10  2  0
 10 11  1  0
 10 12  1  0
 12 13  1  0
 13 14  1  0
 14 15  1  0
 15 16  1  0
 16 17  2  0
 16 18  1  0
 18 19  1  0
 19 20  2  0
 12 21  2  0
 21  7  1  0
 19 13  1  0
M  END
>  <alias>  (681) 
None

>  <rmsd(smina/fragmenstein)>  (681) 
0.795

>  <smiles>  (681) 
C[C@@H](Br)C(=O)Nc1ccc(Cl)c(N2CCC(=O)NC2=O)c1

>  <gnina_score>  (681) 
5.584

>  <inspiration_score>  (681) 
None

>  <energy_score>  (681) 
-11.32483

>  <distance_score>  (681) 
1.520416

>  <gnina_score_min>  (681) 
5.476

>  <inchikey>  (681) 
YJWRRQQTQPIVAG-SSDOTTSWSA-N

>  <exports>  (681) 
['/opt/xchem-fragalysis-2/maxwin/BulkDock/OUTPUTS/openbind_a71ev2a_c2_elabs_1LOUU54.sdf', '/opt/xchem-fragalysis-2/maxwin/BulkDock/OUTPUTS/openbind_a71ev2a_c2_elabs_1LSYIDY.sdf']

>  <name>  (681) 
P546243

>  <ref_pdb>  (681) 
A0884a

>  <subsites>  (681) 
None

>  <HIPPO Pose ID>  (681) 
546243

>  <ref_mols>  (681) 
A0884a

>  <HIPPO Compound ID>  (681) 
384862

>  <tags>  (681) 
openbind_a71ev2a_c2_elabs,syndirella_product,openbind_a71ev2a_c2_elabs_fragonly_scored_top80percent,openbind_a71ev2a_c2_elabs_scored,BulkDock Fragalysis export,openbind_a71ev2a_c2_elabs_scored_top80percent,openbind_a71ev2a_c2_elabs_activefrags_only_scored_5.2plus,syndirella_placed

>  <smina_score_min>  (681) 
-6.752

$$$$
P546244
     RDKit          3D

 21 22  0  0  0  0  0  0  0  0999 V2000
    3.8681   13.8579   26.8301 C   0  0  0  0  0  0  0  0  0  0  0  0
    4.9415   13.1284   27.6162 C   0  0  1  0  0  0  0  0  0  0  0  0
    4.0993   12.2027   29.1233 Br  0  0  0  0  0  0  0  0  0  0  0  0
    5.7377   12.1089   26.7773 C   0  0  0  0  0  0  0  0  0  0  0  0
    5.6330   10.9471   26.8741 O   0  0  0  0  0  0  0  0  0  0  0  0
    6.6652   12.9689   25.8572 N   0  0  0  0  0  0  0  0  0  0  0  0
    7.6733   12.5841   24.9789 C   0  0  0  0  0  0  0  0  0  0  0  0
    8.0200   11.2462   24.7608 C   0  0  0  0  0  0  0  0  0  0  0  0
    9.0793   10.9619   23.9010 C   0  0  0  0  0  0  0  0  0  0  0  0
    9.6540    9.2494   23.4518 Br  0  0  0  0  0  0  0  0  0  0  0  0
    9.7970   11.9694   23.2947 C   0  0  0  0  0  0  0  0  0  0  0  0
    9.4447   13.2887   23.5086 C   0  0  0  0  0  0  0  0  0  0  0  0
   10.1914   14.2890   22.8460 N   0  0  0  0  0  0  0  0  0  0  0  0
    9.6706   14.6244   21.5170 C   0  0  0  0  0  0  0  0  0  0  0  0
   10.6162   15.4216   20.6673 C   0  0  0  0  0  0  0  0  0  0  0  0
   11.9857   14.8455   20.8532 C   0  0  0  0  0  0  0  0  0  0  0  0
   12.6896   14.4338   19.9368 O   0  0  0  0  0  0  0  0  0  0  0  0
   12.3773   14.8166   22.1600 N   0  0  0  0  0  0  0  0  0  0  0  0
   11.5583   14.3080   23.1220 C   0  0  0  0  0  0  0  0  0  0  0  0
   12.0367   13.8509   24.1623 O   0  0  0  0  0  0  0  0  0  0  0  0
    8.3693   13.6068   24.3264 C   0  0  0  0  0  0  0  0  0  0  0  0
  2  1  1  6
  2  3  1  0
  2  4  1  0
  4  5  2  0
  4  6  1  0
  6  7  1  0
  7  8  2  0
  8  9  1  0
  9 10  1  0
  9 11  2  0
 11 12  1  0
 12 13  1  0
 13 14  1  0
 14 15  1  0
 15 16  1  0
 16 17  2  0
 16 18  1  0
 18 19  1  0
 19 20  2  0
 12 21  2  0
 21  7  1  0
 19 13  1  0
M  END
>  <alias>  (682) 
None

>  <rmsd(smina/fragmenstein)>  (682) 
0.405

>  <smiles>  (682) 
C[C@@H](Br)C(=O)Nc1cc(Br)cc(N2CCC(=O)NC2=O)c1

>  <gnina_score>  (682) 
5.57

>  <inspiration_score>  (682) 
None

>  <energy_score>  (682) 
-27.232314

>  <distance_score>  (682) 
1.257871

>  <gnina_score_min>  (682) 
5.629

>  <inchikey>  (682) 
PWKMRWXSSHYLMV-SSDOTTSWSA-N

>  <exports>  (682) 
['/opt/xchem-fragalysis-2/maxwin/BulkDock/OUTPUTS/openbind_a71ev2a_c2_elabs_1LOUU54.sdf', '/opt/xchem-fragalysis-2/maxwin/BulkDock/OUTPUTS/openbind_a71ev2a_c2_elabs_1LSYIDY.sdf']

>  <name>  (682) 
P546244

>  <ref_pdb>  (682) 
A0884a

>  <subsites>  (682) 
None

>  <HIPPO Pose ID>  (682) 
546244

>  <ref_mols>  (682) 
A0884a

>  <HIPPO Compound ID>  (682) 
384863

>  <tags>  (682) 
openbind_a71ev2a_c2_elabs,syndirella_product,openbind_a71ev2a_c2_elabs_fragonly_scored_top80percent,BulkDock Fragalysis export,openbind_a71ev2a_c2_elabs_scored,openbind_a71ev2a_c2_elabs_scored_top80percent,openbind_a71ev2a_c2_elabs_activefrags_only_scored_5.2plus,openbind_a71ev2a_c2_elabs_activefrags_only_scored_5.5plus,syndirella_placed

>  <smina_score_min>  (682) 
-6.639

$$$$
P546245
     RDKit          3D

 21 22  0  0  0  0  0  0  0  0999 V2000
    8.2197   14.5387   24.8179 C   0  0  0  0  0  0  0  0  0  0  0  0
    8.3376   13.0470   24.7146 C   0  0  0  0  0  0  0  0  0  0  0  0
    7.4243   12.2063   25.3900 C   0  0  0  0  0  0  0  0  0  0  0  0
    6.4716   12.7576   26.2517 N   0  0  0  0  0  0  0  0  0  0  0  0
    5.4569   12.0650   27.2195 C   0  0  0  0  0  0  0  0  0  0  0  0
    5.2162   10.9298   27.3808 O   0  0  0  0  0  0  0  0  0  0  0  0
    4.7050   13.2034   27.9320 C   0  0  1  0  0  0  0  0  0  0  0  0
    3.6315   12.6825   28.8740 C   0  0  0  0  0  0  0  0  0  0  0  0
    5.8924   14.1750   28.8533 Cl  0  0  0  0  0  0  0  0  0  0  0  0
    7.4819   10.8260   25.2043 C   0  0  0  0  0  0  0  0  0  0  0  0
    8.4324   10.2735   24.3521 C   0  0  0  0  0  0  0  0  0  0  0  0
    9.3491   11.0886   23.7156 C   0  0  0  0  0  0  0  0  0  0  0  0
   10.2646   10.5191   22.9264 F   0  0  0  0  0  0  0  0  0  0  0  0
    9.3549   12.4663   23.9257 C   0  0  0  0  0  0  0  0  0  0  0  0
   10.4493   13.1781   23.3990 N   0  0  0  0  0  0  0  0  0  0  0  0
   11.3623   13.8695   24.1421 C   0  0  0  0  0  0  0  0  0  0  0  0
   11.4275   13.9698   25.3608 O   0  0  0  0  0  0  0  0  0  0  0  0
   12.2947   14.5897   23.1890 C   0  0  0  0  0  0  0  0  0  0  0  0
   11.6672   14.3489   21.9457 N   0  0  0  0  0  0  0  0  0  0  0  0
   10.4665   13.7237   22.1540 C   0  0  0  0  0  0  0  0  0  0  0  0
    9.5441   13.8400   21.3703 O   0  0  0  0  0  0  0  0  0  0  0  0
  1  2  1  0
  2  3  2  0
  3  4  1  0
  4  5  1  0
  5  6  2  0
  5  7  1  0
  7  8  1  1
  7  9  1  0
  3 10  1  0
 10 11  2  0
 11 12  1  0
 12 13  1  0
 12 14  2  0
 14 15  1  0
 15 16  1  0
 16 17  2  0
 16 18  1  0
 18 19  1  0
 19 20  1  0
 20 21  2  0
 14  2  1  0
 20 15  1  0
M  END
>  <alias>  (683) 
None

>  <rmsd(smina/fragmenstein)>  (683) 
0.554

>  <smiles>  (683) 
Cc1c(NC(=O)[C@@H](C)Cl)ccc(F)c1N1C(=O)CNC1=O

>  <gnina_score>  (683) 
5.481

>  <inspiration_score>  (683) 
None

>  <energy_score>  (683) 
-32.103723

>  <distance_score>  (683) 
1.553105

>  <gnina_score_min>  (683) 
5.442

>  <inchikey>  (683) 
LIQFUZKSLIBYEC-SSDOTTSWSA-N

>  <exports>  (683) 
['/opt/xchem-fragalysis-2/maxwin/BulkDock/OUTPUTS/openbind_a71ev2a_c2_elabs_1LOUU54.sdf', '/opt/xchem-fragalysis-2/maxwin/BulkDock/OUTPUTS/openbind_a71ev2a_c2_elabs_1LSYIDY.sdf']

>  <name>  (683) 
P546245

>  <ref_pdb>  (683) 
A0884a

>  <subsites>  (683) 
None

>  <HIPPO Pose ID>  (683) 
546245

>  <ref_mols>  (683) 
A0884a

>  <HIPPO Compound ID>  (683) 
384864

>  <tags>  (683) 
openbind_a71ev2a_c2_elabs,syndirella_product,openbind_a71ev2a_c2_elabs_fragonly_scored_top80percent,openbind_a71ev2a_c2_elabs_scored,BulkDock Fragalysis export,openbind_a71ev2a_c2_elabs_scored_top80percent,openbind_a71ev2a_c2_elabs_activefrags_only_scored_5.2plus,syndirella_placed

>  <smina_score_min>  (683) 
-6.422

$$$$
P546251
     RDKit          3D

 21 22  0  0  0  0  0  0  0  0999 V2000
    5.0654   14.9471   27.8225 C   0  0  0  0  0  0  0  0  0  0  0  0
    4.3248   13.9571   26.9383 C   0  0  1  0  0  0  0  0  0  0  0  0
    3.7038   14.7693   25.4766 Cl  0  0  0  0  0  0  0  0  0  0  0  0
    5.2163   12.7695   26.5427 C   0  0  0  0  0  0  0  0  0  0  0  0
    5.0802   11.7096   27.0244 O   0  0  0  0  0  0  0  0  0  0  0  0
    6.2938   13.2950   25.5426 N   0  0  0  0  0  0  0  0  0  0  0  0
    7.3222   12.6235   24.8872 C   0  0  0  0  0  0  0  0  0  0  0  0
    7.5314   11.2572   25.0413 C   0  0  0  0  0  0  0  0  0  0  0  0
    8.5831   10.6514   24.3621 C   0  0  0  0  0  0  0  0  0  0  0  0
    8.7284    9.3248   24.4427 F   0  0  0  0  0  0  0  0  0  0  0  0
    9.4700   11.3900   23.5889 C   0  0  0  0  0  0  0  0  0  0  0  0
    9.2640   12.7612   23.4345 C   0  0  0  0  0  0  0  0  0  0  0  0
   10.1608   13.5249   22.6406 N   0  0  0  0  0  0  0  0  0  0  0  0
    9.6140   14.4808   21.6862 C   0  0  0  0  0  0  0  0  0  0  0  0
   10.5900   14.9143   20.6138 C   0  0  0  0  0  0  0  0  0  0  0  0
   12.0009   14.5780   20.9768 C   0  0  0  0  0  0  0  0  0  0  0  0
   12.8652   14.3855   20.1261 O   0  0  0  0  0  0  0  0  0  0  0  0
   12.2529   14.5065   22.3133 N   0  0  0  0  0  0  0  0  0  0  0  0
   11.4598   13.7236   23.1068 C   0  0  0  0  0  0  0  0  0  0  0  0
   11.9109   13.2368   24.1428 O   0  0  0  0  0  0  0  0  0  0  0  0
    8.1666   13.3663   24.0570 C   0  0  0  0  0  0  0  0  0  0  0  0
  2  1  1  6
  2  3  1  0
  2  4  1  0
  4  5  2  0
  4  6  1  0
  6  7  1  0
  7  8  2  0
  8  9  1  0
  9 10  1  0
  9 11  2  0
 11 12  1  0
 12 13  1  0
 13 14  1  0
 14 15  1  0
 15 16  1  0
 16 17  2  0
 16 18  1  0
 18 19  1  0
 19 20  2  0
 12 21  2  0
 21  7  1  0
 19 13  1  0
M  END
>  <alias>  (684) 
None

>  <rmsd(smina/fragmenstein)>  (684) 
0.949

>  <smiles>  (684) 
C[C@@H](Cl)C(=O)Nc1cc(F)cc(N2CCC(=O)NC2=O)c1

>  <gnina_score>  (684) 
5.281

>  <inspiration_score>  (684) 
None

>  <energy_score>  (684) 
-33.733464

>  <distance_score>  (684) 
1.252665

>  <gnina_score_min>  (684) 
5.261

>  <inchikey>  (684) 
PKLJBLZKFSDJSF-SSDOTTSWSA-N

>  <exports>  (684) 
['/opt/xchem-fragalysis-2/maxwin/BulkDock/OUTPUTS/openbind_a71ev2a_c2_elabs_1LOUU54.sdf', '/opt/xchem-fragalysis-2/maxwin/BulkDock/OUTPUTS/openbind_a71ev2a_c2_elabs_1LSYIDY.sdf']

>  <name>  (684) 
P546251

>  <ref_pdb>  (684) 
A0884a

>  <subsites>  (684) 
None

>  <HIPPO Pose ID>  (684) 
546251

>  <ref_mols>  (684) 
A0884a

>  <HIPPO Compound ID>  (684) 
384866

>  <tags>  (684) 
openbind_a71ev2a_c2_elabs,syndirella_product,openbind_a71ev2a_c2_elabs_fragonly_scored_top80percent,openbind_a71ev2a_c2_elabs_scored,BulkDock Fragalysis export,openbind_a71ev2a_c2_elabs_scored_top80percent,openbind_a71ev2a_c2_elabs_activefrags_only_scored_5.2plus,syndirella_placed

>  <smina_score_min>  (684) 
-7.066

$$$$
P546252
     RDKit          3D

 21 22  0  0  0  0  0  0  0  0999 V2000
    7.9081   14.4581   24.6309 C   0  0  0  0  0  0  0  0  0  0  0  0
    8.1414   12.9739   24.5677 C   0  0  0  0  0  0  0  0  0  0  0  0
    7.2795   12.1053   25.2693 C   0  0  0  0  0  0  0  0  0  0  0  0
    6.2304   12.6174   26.0405 N   0  0  0  0  0  0  0  0  0  0  0  0
    5.3554   11.9368   27.1427 C   0  0  0  0  0  0  0  0  0  0  0  0
    5.3316   10.8256   27.5139 O   0  0  0  0  0  0  0  0  0  0  0  0
    4.5246   13.0549   27.8035 C   0  0  2  0  0  0  0  0  0  0  0  0
    3.5775   12.5108   28.8629 C   0  0  0  0  0  0  0  0  0  0  0  0
    3.5853   13.9364   26.5707 Cl  0  0  0  0  0  0  0  0  0  0  0  0
    7.4857   10.7312   25.2058 C   0  0  0  0  0  0  0  0  0  0  0  0
    8.5358   10.2099   24.4553 C   0  0  0  0  0  0  0  0  0  0  0  0
    9.4205   11.0494   23.7975 C   0  0  0  0  0  0  0  0  0  0  0  0
    9.2333   12.4313   23.8432 C   0  0  0  0  0  0  0  0  0  0  0  0
   10.1225   13.2397   23.1123 N   0  0  0  0  0  0  0  0  0  0  0  0
    9.7440   13.9849   22.0436 C   0  0  0  0  0  0  0  0  0  0  0  0
    8.6274   14.1495   21.5946 O   0  0  0  0  0  0  0  0  0  0  0  0
   10.8316   14.5123   21.4261 N   0  0  0  0  0  0  0  0  0  0  0  0
   12.0297   13.9666   21.9603 C   0  0  1  0  0  0  0  0  0  0  0  0
   12.9022   15.0975   22.3715 C   0  0  0  0  0  0  0  0  0  0  0  0
   11.4892   13.1754   23.1487 C   0  0  0  0  0  0  0  0  0  0  0  0
   12.1785   12.6310   24.0010 O   0  0  0  0  0  0  0  0  0  0  0  0
  1  2  1  0
  2  3  2  0
  3  4  1  0
  4  5  1  0
  5  6  2  0
  5  7  1  0
  7  8  1  1
  7  9  1  0
  3 10  1  0
 10 11  2  0
 11 12  1  0
 12 13  2  0
 13 14  1  0
 14 15  1  0
 15 16  2  0
 15 17  1  0
 17 18  1  0
 18 19  1  1
 18 20  1  0
 20 21  2  0
 13  2  1  0
 20 14  1  0
M  END
>  <alias>  (685) 
None

>  <rmsd(smina/fragmenstein)>  (685) 
0.616

>  <smiles>  (685) 
Cc1c(NC(=O)[C@H](C)Cl)cccc1N1C(=O)N[C@@H](C)C1=O

>  <gnina_score>  (685) 
5.22

>  <inspiration_score>  (685) 
None

>  <energy_score>  (685) 
-41.928974

>  <distance_score>  (685) 
1.815156

>  <gnina_score_min>  (685) 
5.381

>  <inchikey>  (685) 
SOPCOUVXEMBXGR-IUCAKERBSA-N

>  <exports>  (685) 
['/opt/xchem-fragalysis-2/maxwin/BulkDock/OUTPUTS/openbind_a71ev2a_c2_elabs_1LOUU54.sdf', '/opt/xchem-fragalysis-2/maxwin/BulkDock/OUTPUTS/openbind_a71ev2a_c2_elabs_1LSYIDY.sdf']

>  <name>  (685) 
P546252

>  <ref_pdb>  (685) 
A0884a

>  <subsites>  (685) 
None

>  <HIPPO Pose ID>  (685) 
546252

>  <ref_mols>  (685) 
A0884a

>  <HIPPO Compound ID>  (685) 
384867

>  <tags>  (685) 
openbind_a71ev2a_c2_elabs,syndirella_product,openbind_a71ev2a_c2_elabs_fragonly_scored_top80percent,openbind_a71ev2a_c2_elabs_scored,BulkDock Fragalysis export,openbind_a71ev2a_c2_elabs_scored_top80percent,openbind_a71ev2a_c2_elabs_activefrags_only_scored_5.2plus,syndirella_placed

>  <smina_score_min>  (685) 
-6.827

$$$$
P546253
     RDKit          3D

 21 22  0  0  0  0  0  0  0  0999 V2000
    3.1411   13.9308   28.0396 C   0  0  0  0  0  0  0  0  0  0  0  0
    4.4819   14.1773   27.3660 C   0  0  1  0  0  0  0  0  0  0  0  0
    5.5613   15.0633   28.4836 Cl  0  0  0  0  0  0  0  0  0  0  0  0
    5.1770   12.8657   26.9579 C   0  0  0  0  0  0  0  0  0  0  0  0
    4.7383   11.8024   27.1843 O   0  0  0  0  0  0  0  0  0  0  0  0
    6.4735   13.2841   26.1877 N   0  0  0  0  0  0  0  0  0  0  0  0
    7.3972   12.5136   25.4909 C   0  0  0  0  0  0  0  0  0  0  0  0
    7.2552   11.1362   25.3516 C   0  0  0  0  0  0  0  0  0  0  0  0
    8.1866   10.4187   24.6050 C   0  0  0  0  0  0  0  0  0  0  0  0
    9.2549   11.0723   24.0076 C   0  0  0  0  0  0  0  0  0  0  0  0
   10.1407   10.3205   23.3427 F   0  0  0  0  0  0  0  0  0  0  0  0
    9.4508   12.4489   24.1805 C   0  0  0  0  0  0  0  0  0  0  0  0
   10.5747   13.1250   23.6151 N   0  0  0  0  0  0  0  0  0  0  0  0
   10.8049   12.9339   22.2066 C   0  0  0  0  0  0  0  0  0  0  0  0
   12.1995   13.3563   21.8232 C   0  0  0  0  0  0  0  0  0  0  0  0
   12.3227   14.7838   22.1474 C   0  0  0  0  0  0  0  0  0  0  0  0
   12.8394   15.5980   21.3987 O   0  0  0  0  0  0  0  0  0  0  0  0
   11.8626   15.0647   23.3941 N   0  0  0  0  0  0  0  0  0  0  0  0
   11.1638   14.2195   24.2240 C   0  0  0  0  0  0  0  0  0  0  0  0
   11.0869   14.4496   25.4277 O   0  0  0  0  0  0  0  0  0  0  0  0
    8.4949   13.1622   24.9155 C   0  0  0  0  0  0  0  0  0  0  0  0
  2  1  1  1
  2  3  1  0
  2  4  1  0
  4  5  2  0
  4  6  1  0
  6  7  1  0
  7  8  2  0
  8  9  1  0
  9 10  2  0
 10 11  1  0
 10 12  1  0
 12 13  1  0
 13 14  1  0
 14 15  1  0
 15 16  1  0
 16 17  2  0
 16 18  1  0
 18 19  1  0
 19 20  2  0
 12 21  2  0
 21  7  1  0
 19 13  1  0
M  END
>  <alias>  (686) 
None

>  <rmsd(smina/fragmenstein)>  (686) 
1.443

>  <smiles>  (686) 
C[C@@H](Cl)C(=O)Nc1ccc(F)c(N2CCC(=O)NC2=O)c1

>  <gnina_score>  (686) 
4.791

>  <inspiration_score>  (686) 
None

>  <energy_score>  (686) 
-47.278372

>  <distance_score>  (686) 
1.365233

>  <gnina_score_min>  (686) 
5.208

>  <inchikey>  (686) 
IMPCPCLQWLEFMB-SSDOTTSWSA-N

>  <exports>  (686) 
['/opt/xchem-fragalysis-2/maxwin/BulkDock/OUTPUTS/openbind_a71ev2a_c2_elabs_1LOUU54.sdf', '/opt/xchem-fragalysis-2/maxwin/BulkDock/OUTPUTS/openbind_a71ev2a_c2_elabs_1LSYIDY.sdf']

>  <name>  (686) 
P546253

>  <ref_pdb>  (686) 
A0884a

>  <subsites>  (686) 
None

>  <HIPPO Pose ID>  (686) 
546253

>  <ref_mols>  (686) 
A0884a

>  <HIPPO Compound ID>  (686) 
384869

>  <tags>  (686) 
openbind_a71ev2a_c2_elabs,syndirella_product,openbind_a71ev2a_c2_elabs_fragonly_scored_top80percent,openbind_a71ev2a_c2_elabs_scored,BulkDock Fragalysis export,openbind_a71ev2a_c2_elabs_scored_top80percent,openbind_a71ev2a_c2_elabs_activefrags_only_scored_5.2plus,syndirella_placed

>  <smina_score_min>  (686) 
-5.781

$$$$
P546254
     RDKit          3D

 21 22  0  0  0  0  0  0  0  0999 V2000
    7.9209   14.5342   24.9037 C   0  0  0  0  0  0  0  0  0  0  0  0
    8.3077   13.1090   24.6277 C   0  0  0  0  0  0  0  0  0  0  0  0
    7.6372   12.0273   25.2329 C   0  0  0  0  0  0  0  0  0  0  0  0
    6.6847   12.1439   26.2502 N   0  0  0  0  0  0  0  0  0  0  0  0
    6.5756   13.1695   27.4257 C   0  0  0  0  0  0  0  0  0  0  0  0
    7.2236   14.1151   27.6710 O   0  0  0  0  0  0  0  0  0  0  0  0
    5.3306   12.8180   28.2511 C   0  0  1  0  0  0  0  0  0  0  0  0
    4.0729   13.3311   27.5722 C   0  0  0  0  0  0  0  0  0  0  0  0
    5.2205   11.0502   28.5116 Cl  0  0  0  0  0  0  0  0  0  0  0  0
    7.9208   10.7132   24.8371 C   0  0  0  0  0  0  0  0  0  0  0  0
    8.9345   10.4456   23.9248 C   0  0  0  0  0  0  0  0  0  0  0  0
    9.6580   11.4987   23.3847 C   0  0  0  0  0  0  0  0  0  0  0  0
    9.3539   12.8264   23.7215 C   0  0  0  0  0  0  0  0  0  0  0  0
   10.1175   13.8707   23.1025 N   0  0  0  0  0  0  0  0  0  0  0  0
    9.6270   14.3061   21.7923 C   0  0  0  0  0  0  0  0  0  0  0  0
   10.5423   15.2281   21.0309 C   0  0  0  0  0  0  0  0  0  0  0  0
   11.9363   14.7221   21.1997 C   0  0  0  0  0  0  0  0  0  0  0  0
   12.6894   14.4758   20.2633 O   0  0  0  0  0  0  0  0  0  0  0  0
   12.2904   14.5506   22.5068 N   0  0  0  0  0  0  0  0  0  0  0  0
   11.4740   13.9302   23.4110 C   0  0  0  0  0  0  0  0  0  0  0  0
   11.9631   13.4360   24.4274 O   0  0  0  0  0  0  0  0  0  0  0  0
  1  2  1  0
  2  3  2  0
  3  4  1  0
  4  5  1  0
  5  6  2  0
  5  7  1  0
  7  8  1  6
  7  9  1  0
  3 10  1  0
 10 11  2  0
 11 12  1  0
 12 13  2  0
 13 14  1  0
 14 15  1  0
 15 16  1  0
 16 17  1  0
 17 18  2  0
 17 19  1  0
 19 20  1  0
 20 21  2  0
 13  2  1  0
 20 14  1  0
M  END
>  <alias>  (687) 
None

>  <rmsd(smina/fragmenstein)>  (687) 
0.355

>  <smiles>  (687) 
Cc1c(NC(=O)[C@@H](C)Cl)cccc1N1CCC(=O)NC1=O

>  <gnina_score>  (687) 
5.238

>  <inspiration_score>  (687) 
None

>  <energy_score>  (687) 
-41.938594

>  <distance_score>  (687) 
1.168324

>  <gnina_score_min>  (687) 
5.263

>  <inchikey>  (687) 
UGMNGAVFNLITGL-SECBINFHSA-N

>  <exports>  (687) 
['/opt/xchem-fragalysis-2/maxwin/BulkDock/OUTPUTS/openbind_a71ev2a_c2_elabs_1LOUU54.sdf', '/opt/xchem-fragalysis-2/maxwin/BulkDock/OUTPUTS/openbind_a71ev2a_c2_elabs_1LSYIDY.sdf']

>  <name>  (687) 
P546254

>  <ref_pdb>  (687) 
A0884a

>  <subsites>  (687) 
None

>  <HIPPO Pose ID>  (687) 
546254

>  <ref_mols>  (687) 
A0884a

>  <HIPPO Compound ID>  (687) 
384870

>  <tags>  (687) 
openbind_a71ev2a_c2_elabs,syndirella_product,openbind_a71ev2a_c2_elabs_fragonly_scored_top80percent,openbind_a71ev2a_c2_elabs_scored,BulkDock Fragalysis export,openbind_a71ev2a_c2_elabs_scored_top80percent,openbind_a71ev2a_c2_elabs_activefrags_only_scored_5.2plus,syndirella_placed

>  <smina_score_min>  (687) 
-7.195

$$$$
P546256
     RDKit          3D

 21 22  0  0  0  0  0  0  0  0999 V2000
    9.0716    9.5521   23.9027 C   0  0  0  0  0  0  0  0  0  0  0  0
    8.8014   10.9917   24.1319 C   0  0  0  0  0  0  0  0  0  0  0  0
    7.7280   11.4422   24.9110 C   0  0  0  0  0  0  0  0  0  0  0  0
    7.4545   12.8074   24.9939 C   0  0  0  0  0  0  0  0  0  0  0  0
    6.4077   13.3072   25.7635 N   0  0  0  0  0  0  0  0  0  0  0  0
    5.3889   12.5695   26.6928 C   0  0  0  0  0  0  0  0  0  0  0  0
    5.3280   11.4424   27.0087 O   0  0  0  0  0  0  0  0  0  0  0  0
    4.4563   13.6541   27.2626 C   0  0  2  0  0  0  0  0  0  0  0  0
    3.4255   13.0772   28.2215 C   0  0  0  0  0  0  0  0  0  0  0  0
    3.6181   14.4817   25.9224 Cl  0  0  0  0  0  0  0  0  0  0  0  0
    8.2499   13.7165   24.2958 C   0  0  0  0  0  0  0  0  0  0  0  0
    9.3546   13.2626   23.5789 C   0  0  0  0  0  0  0  0  0  0  0  0
   10.1826   14.1733   22.8821 N   0  0  0  0  0  0  0  0  0  0  0  0
    9.6637   14.5700   21.5732 C   0  0  0  0  0  0  0  0  0  0  0  0
   10.6315   15.3552   20.7354 C   0  0  0  0  0  0  0  0  0  0  0  0
   11.9909   14.7541   20.9084 C   0  0  0  0  0  0  0  0  0  0  0  0
   12.6963   14.3784   19.9783 O   0  0  0  0  0  0  0  0  0  0  0  0
   12.3744   14.6736   22.2152 N   0  0  0  0  0  0  0  0  0  0  0  0
   11.5451   14.1443   23.1593 C   0  0  0  0  0  0  0  0  0  0  0  0
   12.0194   13.6571   24.1870 O   0  0  0  0  0  0  0  0  0  0  0  0
    9.6245   11.9042   23.4886 C   0  0  0  0  0  0  0  0  0  0  0  0
  1  2  1  0
  2  3  2  0
  3  4  1  0
  4  5  1  0
  5  6  1  0
  6  7  2  0
  6  8  1  0
  8  9  1  1
  8 10  1  0
  4 11  2  0
 11 12  1  0
 12 13  1  0
 13 14  1  0
 14 15  1  0
 15 16  1  0
 16 17  2  0
 16 18  1  0
 18 19  1  0
 19 20  2  0
 12 21  2  0
 21  2  1  0
 19 13  1  0
M  END
>  <alias>  (688) 
None

>  <rmsd(smina/fragmenstein)>  (688) 
0.796

>  <smiles>  (688) 
Cc1cc(NC(=O)[C@H](C)Cl)cc(N2CCC(=O)NC2=O)c1

>  <gnina_score>  (688) 
5.441

>  <inspiration_score>  (688) 
None

>  <energy_score>  (688) 
-35.791675

>  <distance_score>  (688) 
1.325754

>  <gnina_score_min>  (688) 
5.488

>  <inchikey>  (688) 
BVQZVLFTQLFSNM-VIFPVBQESA-N

>  <exports>  (688) 
['/opt/xchem-fragalysis-2/maxwin/BulkDock/OUTPUTS/openbind_a71ev2a_c2_elabs_1LOUU54.sdf', '/opt/xchem-fragalysis-2/maxwin/BulkDock/OUTPUTS/openbind_a71ev2a_c2_elabs_1LSYIDY.sdf']

>  <name>  (688) 
P546256

>  <ref_pdb>  (688) 
A0884a

>  <subsites>  (688) 
None

>  <HIPPO Pose ID>  (688) 
546256

>  <ref_mols>  (688) 
A0884a

>  <HIPPO Compound ID>  (688) 
384872

>  <tags>  (688) 
openbind_a71ev2a_c2_elabs,syndirella_product,openbind_a71ev2a_c2_elabs_fragonly_scored_top80percent,openbind_a71ev2a_c2_elabs_scored,BulkDock Fragalysis export,openbind_a71ev2a_c2_elabs_scored_top80percent,openbind_a71ev2a_c2_elabs_activefrags_only_scored_5.2plus,syndirella_placed

>  <smina_score_min>  (688) 
-6.888

$$$$
P546258
     RDKit          3D

 21 22  0  0  0  0  0  0  0  0999 V2000
    3.6686   14.0953   26.4442 C   0  0  0  0  0  0  0  0  0  0  0  0
    4.8761   13.7788   27.3107 C   0  0  1  0  0  0  0  0  0  0  0  0
    4.7671   12.1000   27.9266 Cl  0  0  0  0  0  0  0  0  0  0  0  0
    6.1680   14.0227   26.5138 C   0  0  0  0  0  0  0  0  0  0  0  0
    6.6388   15.0933   26.4518 O   0  0  0  0  0  0  0  0  0  0  0  0
    6.5805   12.6950   25.8057 N   0  0  0  0  0  0  0  0  0  0  0  0
    7.6665   12.4088   24.9879 C   0  0  0  0  0  0  0  0  0  0  0  0
    7.9861   11.0765   24.7150 C   0  0  0  0  0  0  0  0  0  0  0  0
    9.0775   10.7996   23.8961 C   0  0  0  0  0  0  0  0  0  0  0  0
    9.5606    9.2203   23.5051 Cl  0  0  0  0  0  0  0  0  0  0  0  0
    9.8278   11.8157   23.3432 C   0  0  0  0  0  0  0  0  0  0  0  0
    9.5008   13.1362   23.6074 C   0  0  0  0  0  0  0  0  0  0  0  0
   10.2453   14.1541   22.9644 N   0  0  0  0  0  0  0  0  0  0  0  0
    9.6981   14.5563   21.6654 C   0  0  0  0  0  0  0  0  0  0  0  0
   10.6348   15.3647   20.8127 C   0  0  0  0  0  0  0  0  0  0  0  0
   12.0077   14.7933   20.9722 C   0  0  0  0  0  0  0  0  0  0  0  0
   12.6979   14.4012   20.0375 O   0  0  0  0  0  0  0  0  0  0  0  0
   12.4112   14.7439   22.2744 N   0  0  0  0  0  0  0  0  0  0  0  0
   11.6125   14.1801   23.2238 C   0  0  0  0  0  0  0  0  0  0  0  0
   12.1106   13.6844   24.2361 O   0  0  0  0  0  0  0  0  0  0  0  0
    8.4225   13.4421   24.4294 C   0  0  0  0  0  0  0  0  0  0  0  0
  2  1  1  6
  2  3  1  0
  2  4  1  0
  4  5  2  0
  4  6  1  0
  6  7  1  0
  7  8  2  0
  8  9  1  0
  9 10  1  0
  9 11  2  0
 11 12  1  0
 12 13  1  0
 13 14  1  0
 14 15  1  0
 15 16  1  0
 16 17  2  0
 16 18  1  0
 18 19  1  0
 19 20  2  0
 12 21  2  0
 21  7  1  0
 19 13  1  0
M  END
>  <alias>  (689) 
None

>  <rmsd(smina/fragmenstein)>  (689) 
0.688

>  <smiles>  (689) 
C[C@@H](Cl)C(=O)Nc1cc(Cl)cc(N2CCC(=O)NC2=O)c1

>  <gnina_score>  (689) 
5.545

>  <inspiration_score>  (689) 
None

>  <energy_score>  (689) 
-33.086062

>  <distance_score>  (689) 
1.410025

>  <gnina_score_min>  (689) 
5.665

>  <inchikey>  (689) 
YPLDLIOEGKEMBD-SSDOTTSWSA-N

>  <exports>  (689) 
['/opt/xchem-fragalysis-2/maxwin/BulkDock/OUTPUTS/openbind_a71ev2a_c2_elabs_1LOUU54.sdf', '/opt/xchem-fragalysis-2/maxwin/BulkDock/OUTPUTS/openbind_a71ev2a_c2_elabs_1LSYIDY.sdf']

>  <name>  (689) 
P546258

>  <ref_pdb>  (689) 
A0884a

>  <subsites>  (689) 
None

>  <HIPPO Pose ID>  (689) 
546258

>  <ref_mols>  (689) 
A0884a

>  <HIPPO Compound ID>  (689) 
384873

>  <tags>  (689) 
openbind_a71ev2a_c2_elabs,syndirella_product,openbind_a71ev2a_c2_elabs_fragonly_scored_top80percent,BulkDock Fragalysis export,openbind_a71ev2a_c2_elabs_scored,openbind_a71ev2a_c2_elabs_scored_top80percent,openbind_a71ev2a_c2_elabs_activefrags_only_scored_5.2plus,openbind_a71ev2a_c2_elabs_activefrags_only_scored_5.5plus,syndirella_placed

>  <smina_score_min>  (689) 
-7.001

$$$$
P546260
     RDKit          3D

 21 22  0  0  0  0  0  0  0  0999 V2000
    3.3389   13.5711   27.9106 C   0  0  0  0  0  0  0  0  0  0  0  0
    4.4327   13.9242   26.9150 C   0  0  1  0  0  0  0  0  0  0  0  0
    5.4590   15.2247   27.5909 Cl  0  0  0  0  0  0  0  0  0  0  0  0
    5.3319   12.7200   26.5865 C   0  0  0  0  0  0  0  0  0  0  0  0
    5.1956   11.6605   27.0678 O   0  0  0  0  0  0  0  0  0  0  0  0
    6.3293   13.2124   25.4855 N   0  0  0  0  0  0  0  0  0  0  0  0
    7.3817   12.5455   24.8506 C   0  0  0  0  0  0  0  0  0  0  0  0
    8.2164   13.3250   24.0410 C   0  0  0  0  0  0  0  0  0  0  0  0
    9.3274   12.7602   23.4077 C   0  0  0  0  0  0  0  0  0  0  0  0
   10.2030   13.5556   22.6274 N   0  0  0  0  0  0  0  0  0  0  0  0
    9.6380   14.4973   21.6712 C   0  0  0  0  0  0  0  0  0  0  0  0
   10.6039   14.9315   20.5901 C   0  0  0  0  0  0  0  0  0  0  0  0
   12.0180   14.5960   20.9441 C   0  0  0  0  0  0  0  0  0  0  0  0
   12.8716   14.3797   20.0884 O   0  0  0  0  0  0  0  0  0  0  0  0
   12.2824   14.5514   22.2792 N   0  0  0  0  0  0  0  0  0  0  0  0
   11.5046   13.7620   23.0805 C   0  0  0  0  0  0  0  0  0  0  0  0
   11.9710   13.2715   24.1079 O   0  0  0  0  0  0  0  0  0  0  0  0
    9.5715   11.3916   23.5327 C   0  0  0  0  0  0  0  0  0  0  0  0
    8.7150   10.5978   24.2891 C   0  0  0  0  0  0  0  0  0  0  0  0
    7.6428   11.1780   24.9628 C   0  0  0  0  0  0  0  0  0  0  0  0
    6.8640   10.3706   25.6887 F   0  0  0  0  0  0  0  0  0  0  0  0
  2  1  1  1
  2  3  1  0
  2  4  1  0
  4  5  2  0
  4  6  1  0
  6  7  1  0
  7  8  2  0
  8  9  1  0
  9 10  1  0
 10 11  1  0
 11 12  1  0
 12 13  1  0
 13 14  2  0
 13 15  1  0
 15 16  1  0
 16 17  2  0
  9 18  2  0
 18 19  1  0
 19 20  2  0
 20 21  1  0
 20  7  1  0
 16 10  1  0
M  END
>  <alias>  (690) 
None

>  <rmsd(smina/fragmenstein)>  (690) 
0.606

>  <smiles>  (690) 
C[C@@H](Cl)C(=O)Nc1cc(N2CCC(=O)NC2=O)ccc1F

>  <gnina_score>  (690) 
5.378

>  <inspiration_score>  (690) 
None

>  <energy_score>  (690) 
-5.359015

>  <distance_score>  (690) 
1.218677

>  <gnina_score_min>  (690) 
5.289

>  <inchikey>  (690) 
RHGUZANEMSNIKM-SSDOTTSWSA-N

>  <exports>  (690) 
['/opt/xchem-fragalysis-2/maxwin/BulkDock/OUTPUTS/openbind_a71ev2a_c2_elabs_1LOUU54.sdf', '/opt/xchem-fragalysis-2/maxwin/BulkDock/OUTPUTS/openbind_a71ev2a_c2_elabs_1LSYIDY.sdf']

>  <name>  (690) 
P546260

>  <ref_pdb>  (690) 
A0884a

>  <subsites>  (690) 
None

>  <HIPPO Pose ID>  (690) 
546260

>  <ref_mols>  (690) 
A0884a

>  <HIPPO Compound ID>  (690) 
384874

>  <tags>  (690) 
openbind_a71ev2a_c2_elabs,syndirella_product,openbind_a71ev2a_c2_elabs_fragonly_scored_top80percent,openbind_a71ev2a_c2_elabs_scored,BulkDock Fragalysis export,openbind_a71ev2a_c2_elabs_scored_top80percent,openbind_a71ev2a_c2_elabs_activefrags_only_scored_5.2plus,syndirella_placed

>  <smina_score_min>  (690) 
-7.125

$$$$
P546263
     RDKit          3D

 21 22  0  0  0  0  0  0  0  0999 V2000
    9.9524   10.3324   23.0705 C   0  0  0  0  0  0  0  0  0  0  0  0
    9.0456   11.2457   23.8310 C   0  0  0  0  0  0  0  0  0  0  0  0
    8.1297   10.6285   24.6960 C   0  0  0  0  0  0  0  0  0  0  0  0
    7.1738   11.3705   25.3824 C   0  0  0  0  0  0  0  0  0  0  0  0
    7.1071   12.7450   25.1960 C   0  0  0  0  0  0  0  0  0  0  0  0
    6.1291   13.5200   25.8130 N   0  0  0  0  0  0  0  0  0  0  0  0
    5.0231   13.1253   26.8452 C   0  0  0  0  0  0  0  0  0  0  0  0
    4.7214   12.0748   27.2708 O   0  0  0  0  0  0  0  0  0  0  0  0
    4.3432   14.4176   27.3233 C   0  0  1  0  0  0  0  0  0  0  0  0
    5.2674   15.2558   28.1915 C   0  0  0  0  0  0  0  0  0  0  0  0
    3.7772   15.3609   25.9194 Cl  0  0  0  0  0  0  0  0  0  0  0  0
    8.0271   13.3760   24.3527 C   0  0  0  0  0  0  0  0  0  0  0  0
    9.0213   12.6447   23.6827 C   0  0  0  0  0  0  0  0  0  0  0  0
    9.9616   13.3353   22.8489 N   0  0  0  0  0  0  0  0  0  0  0  0
    9.4375   14.3228   21.9132 C   0  0  0  0  0  0  0  0  0  0  0  0
   10.4207   14.7935   20.8638 C   0  0  0  0  0  0  0  0  0  0  0  0
   11.8431   14.5629   21.2562 C   0  0  0  0  0  0  0  0  0  0  0  0
   12.7582   14.6127   20.4390 O   0  0  0  0  0  0  0  0  0  0  0  0
   12.0705   14.3198   22.5754 N   0  0  0  0  0  0  0  0  0  0  0  0
   11.2441   13.5538   23.3539 C   0  0  0  0  0  0  0  0  0  0  0  0
   11.6667   13.1225   24.4248 O   0  0  0  0  0  0  0  0  0  0  0  0
  1  2  1  0
  2  3  2  0
  3  4  1  0
  4  5  2  0
  5  6  1  0
  6  7  1  0
  7  8  2  0
  7  9  1  0
  9 10  1  6
  9 11  1  0
  5 12  1  0
 12 13  2  0
 13 14  1  0
 14 15  1  0
 15 16  1  0
 16 17  1  0
 17 18  2  0
 17 19  1  0
 19 20  1  0
 20 21  2  0
 13  2  1  0
 20 14  1  0
M  END
>  <alias>  (691) 
None

>  <rmsd(smina/fragmenstein)>  (691) 
0.58

>  <smiles>  (691) 
Cc1ccc(NC(=O)[C@@H](C)Cl)cc1N1CCC(=O)NC1=O

>  <gnina_score>  (691) 
5.423

>  <inspiration_score>  (691) 
None

>  <energy_score>  (691) 
-18.483619

>  <distance_score>  (691) 
1.400501

>  <gnina_score_min>  (691) 
5.327

>  <inchikey>  (691) 
LVDJXLZMHUYSNX-SECBINFHSA-N

>  <exports>  (691) 
['/opt/xchem-fragalysis-2/maxwin/BulkDock/OUTPUTS/openbind_a71ev2a_c2_elabs_1LOUU54.sdf', '/opt/xchem-fragalysis-2/maxwin/BulkDock/OUTPUTS/openbind_a71ev2a_c2_elabs_1LSYIDY.sdf']

>  <name>  (691) 
P546263

>  <ref_pdb>  (691) 
A0884a

>  <subsites>  (691) 
None

>  <HIPPO Pose ID>  (691) 
546263

>  <ref_mols>  (691) 
A0884a

>  <HIPPO Compound ID>  (691) 
384875

>  <tags>  (691) 
openbind_a71ev2a_c2_elabs,syndirella_product,openbind_a71ev2a_c2_elabs_fragonly_scored_top80percent,openbind_a71ev2a_c2_elabs_scored,BulkDock Fragalysis export,openbind_a71ev2a_c2_elabs_scored_top80percent,openbind_a71ev2a_c2_elabs_activefrags_only_scored_5.2plus,syndirella_placed

>  <smina_score_min>  (691) 
-6.832

$$$$
P546267
     RDKit          3D

 21 22  0  0  0  0  0  0  0  0999 V2000
    4.0472   13.9434   26.8178 C   0  0  0  0  0  0  0  0  0  0  0  0
    4.9242   13.0291   27.6576 C   0  0  2  0  0  0  0  0  0  0  0  0
    5.9845   13.9930   28.7274 Cl  0  0  0  0  0  0  0  0  0  0  0  0
    5.7946   12.0681   26.8271 C   0  0  0  0  0  0  0  0  0  0  0  0
    5.6512   10.9068   26.8756 O   0  0  0  0  0  0  0  0  0  0  0  0
    6.8106   12.9274   26.0138 N   0  0  0  0  0  0  0  0  0  0  0  0
    7.7539   12.5511   25.0625 C   0  0  0  0  0  0  0  0  0  0  0  0
    8.0653   11.2149   24.7892 C   0  0  0  0  0  0  0  0  0  0  0  0
    9.0948   10.9397   23.8910 C   0  0  0  0  0  0  0  0  0  0  0  0
    9.6709    9.2328   23.4228 Br  0  0  0  0  0  0  0  0  0  0  0  0
    9.7986   11.9534   23.2789 C   0  0  0  0  0  0  0  0  0  0  0  0
    9.4721   13.2708   23.5391 C   0  0  0  0  0  0  0  0  0  0  0  0
   10.2121   14.2779   22.8801 N   0  0  0  0  0  0  0  0  0  0  0  0
    9.6930   14.6066   21.5496 C   0  0  0  0  0  0  0  0  0  0  0  0
   10.6378   15.4049   20.7011 C   0  0  0  0  0  0  0  0  0  0  0  0
   12.0039   14.8215   20.8843 C   0  0  0  0  0  0  0  0  0  0  0  0
   12.6931   14.3912   19.9660 O   0  0  0  0  0  0  0  0  0  0  0  0
   12.3986   14.8018   22.1900 N   0  0  0  0  0  0  0  0  0  0  0  0
   11.5802   14.2951   23.1545 C   0  0  0  0  0  0  0  0  0  0  0  0
   12.0580   13.8362   24.1938 O   0  0  0  0  0  0  0  0  0  0  0  0
    8.4424   13.5821   24.4150 C   0  0  0  0  0  0  0  0  0  0  0  0
  2  1  1  6
  2  3  1  0
  2  4  1  0
  4  5  2  0
  4  6  1  0
  6  7  1  0
  7  8  2  0
  8  9  1  0
  9 10  1  0
  9 11  2  0
 11 12  1  0
 12 13  1  0
 13 14  1  0
 14 15  1  0
 15 16  1  0
 16 17  2  0
 16 18  1  0
 18 19  1  0
 19 20  2  0
 12 21  2  0
 21  7  1  0
 19 13  1  0
M  END
>  <alias>  (692) 
None

>  <rmsd(smina/fragmenstein)>  (692) 
0.328

>  <smiles>  (692) 
C[C@H](Cl)C(=O)Nc1cc(Br)cc(N2CCC(=O)NC2=O)c1

>  <gnina_score>  (692) 
5.561

>  <inspiration_score>  (692) 
None

>  <energy_score>  (692) 
-13.157219

>  <distance_score>  (692) 
1.239907

>  <gnina_score_min>  (692) 
5.619

>  <inchikey>  (692) 
BCPMOZCMVQFVJK-ZETCQYMHSA-N

>  <exports>  (692) 
['/opt/xchem-fragalysis-2/maxwin/BulkDock/OUTPUTS/openbind_a71ev2a_c2_elabs_1LOUU54.sdf', '/opt/xchem-fragalysis-2/maxwin/BulkDock/OUTPUTS/openbind_a71ev2a_c2_elabs_1LSYIDY.sdf']

>  <name>  (692) 
P546267

>  <ref_pdb>  (692) 
A0884a

>  <subsites>  (692) 
None

>  <HIPPO Pose ID>  (692) 
546267

>  <ref_mols>  (692) 
A0884a

>  <HIPPO Compound ID>  (692) 
384878

>  <tags>  (692) 
openbind_a71ev2a_c2_elabs,syndirella_product,openbind_a71ev2a_c2_elabs_fragonly_scored_top80percent,BulkDock Fragalysis export,openbind_a71ev2a_c2_elabs_scored,openbind_a71ev2a_c2_elabs_scored_top80percent,openbind_a71ev2a_c2_elabs_activefrags_only_scored_5.2plus,openbind_a71ev2a_c2_elabs_activefrags_only_scored_5.5plus,syndirella_placed

>  <smina_score_min>  (692) 
-6.628

$$$$
P546269
     RDKit          3D

 21 22  0  0  0  0  0  0  0  0999 V2000
    7.9845   14.5344   24.5042 C   0  0  0  0  0  0  0  0  0  0  0  0
    8.1826   13.0461   24.4668 C   0  0  0  0  0  0  0  0  0  0  0  0
    7.3498   12.1936   25.2241 C   0  0  0  0  0  0  0  0  0  0  0  0
    6.3840   12.7316   26.0825 N   0  0  0  0  0  0  0  0  0  0  0  0
    5.4125   12.0287   27.0828 C   0  0  0  0  0  0  0  0  0  0  0  0
    5.3284   10.9018   27.3945 O   0  0  0  0  0  0  0  0  0  0  0  0
    4.5601   13.1163   27.7542 C   0  0  1  0  0  0  0  0  0  0  0  0
    5.3828   13.9527   28.7208 C   0  0  0  0  0  0  0  0  0  0  0  0
    3.8016   14.1558   26.5208 Cl  0  0  0  0  0  0  0  0  0  0  0  0
    7.5229   10.8115   25.1547 C   0  0  0  0  0  0  0  0  0  0  0  0
    8.5179   10.2620   24.3518 C   0  0  0  0  0  0  0  0  0  0  0  0
    9.3941   11.0854   23.6661 C   0  0  0  0  0  0  0  0  0  0  0  0
    9.2566   12.4750   23.7456 C   0  0  0  0  0  0  0  0  0  0  0  0
   10.3444   13.2242   23.2281 N   0  0  0  0  0  0  0  0  0  0  0  0
   11.3797   13.5167   24.0902 C   0  0  0  0  0  0  0  0  0  0  0  0
   11.2951   13.6518   25.3078 O   0  0  0  0  0  0  0  0  0  0  0  0
   12.6659   13.7263   23.3713 C   0  0  0  0  0  0  0  0  0  0  0  0
   12.4549   14.9284   22.5058 C   0  0  0  0  0  0  0  0  0  0  0  0
   11.2882   14.7274   21.7051 N   0  0  0  0  0  0  0  0  0  0  0  0
   10.2238   13.9642   22.0749 C   0  0  0  0  0  0  0  0  0  0  0  0
    9.2198   14.0199   21.3781 O   0  0  0  0  0  0  0  0  0  0  0  0
  1  2  1  0
  2  3  2  0
  3  4  1  0
  4  5  1  0
  5  6  2  0
  5  7  1  0
  7  8  1  1
  7  9  1  0
  3 10  1  0
 10 11  2  0
 11 12  1  0
 12 13  2  0
 13 14  1  0
 14 15  1  0
 15 16  2  0
 15 17  1  0
 17 18  1  0
 18 19  1  0
 19 20  1  0
 20 21  2  0
 13  2  1  0
 20 14  1  0
M  END
>  <alias>  (693) 
None

>  <rmsd(smina/fragmenstein)>  (693) 
0.544

>  <smiles>  (693) 
Cc1c(NC(=O)[C@@H](C)Cl)cccc1N1C(=O)CCNC1=O

>  <gnina_score>  (693) 
5.406

>  <inspiration_score>  (693) 
None

>  <energy_score>  (693) 
-6.568708

>  <distance_score>  (693) 
1.64557

>  <gnina_score_min>  (693) 
5.438

>  <inchikey>  (693) 
SXINUYVFRXYDGP-SECBINFHSA-N

>  <exports>  (693) 
['/opt/xchem-fragalysis-2/maxwin/BulkDock/OUTPUTS/openbind_a71ev2a_c2_elabs_1LOUU54.sdf', '/opt/xchem-fragalysis-2/maxwin/BulkDock/OUTPUTS/openbind_a71ev2a_c2_elabs_1LSYIDY.sdf']

>  <name>  (693) 
P546269

>  <ref_pdb>  (693) 
A0884a

>  <subsites>  (693) 
None

>  <HIPPO Pose ID>  (693) 
546269

>  <ref_mols>  (693) 
A0884a

>  <HIPPO Compound ID>  (693) 
384879

>  <tags>  (693) 
openbind_a71ev2a_c2_elabs,syndirella_product,openbind_a71ev2a_c2_elabs_fragonly_scored_top80percent,openbind_a71ev2a_c2_elabs_scored,BulkDock Fragalysis export,openbind_a71ev2a_c2_elabs_scored_top80percent,openbind_a71ev2a_c2_elabs_activefrags_only_scored_5.2plus,syndirella_placed

>  <smina_score_min>  (693) 
-6.683

$$$$
P546271
     RDKit          3D

 21 22  0  0  0  0  0  0  0  0999 V2000
    3.2015   14.9053   25.4717 C   0  0  0  0  0  0  0  0  0  0  0  0
    4.0450   14.6619   26.7135 C   0  0  1  0  0  0  0  0  0  0  0  0
    2.9877   14.5553   28.1518 Cl  0  0  0  0  0  0  0  0  0  0  0  0
    4.8675   13.3644   26.5711 C   0  0  0  0  0  0  0  0  0  0  0  0
    4.5566   12.3384   27.0467 O   0  0  0  0  0  0  0  0  0  0  0  0
    6.0936   13.7337   25.6650 N   0  0  0  0  0  0  0  0  0  0  0  0
    7.0832   12.9263   25.1116 C   0  0  0  0  0  0  0  0  0  0  0  0
    7.1332   11.5596   25.3661 C   0  0  0  0  0  0  0  0  0  0  0  0
    8.0967   10.7775   24.7383 C   0  0  0  0  0  0  0  0  0  0  0  0
    9.0306   11.3598   23.8784 C   0  0  0  0  0  0  0  0  0  0  0  0
   10.0357   10.2637   23.0358 Cl  0  0  0  0  0  0  0  0  0  0  0  0
    9.0240   12.7452   23.6410 C   0  0  0  0  0  0  0  0  0  0  0  0
    9.9840   13.3915   22.7889 N   0  0  0  0  0  0  0  0  0  0  0  0
    9.4953   14.3711   21.8257 C   0  0  0  0  0  0  0  0  0  0  0  0
   10.5014   14.8106   20.7849 C   0  0  0  0  0  0  0  0  0  0  0  0
   11.9093   14.4999   21.1736 C   0  0  0  0  0  0  0  0  0  0  0  0
   12.8117   14.4491   20.3412 O   0  0  0  0  0  0  0  0  0  0  0  0
   12.1246   14.3012   22.5037 N   0  0  0  0  0  0  0  0  0  0  0  0
   11.2721   13.5773   23.2946 C   0  0  0  0  0  0  0  0  0  0  0  0
   11.6640   13.1501   24.3791 O   0  0  0  0  0  0  0  0  0  0  0  0
    8.0246   13.5131   24.2588 C   0  0  0  0  0  0  0  0  0  0  0  0
  2  1  1  6
  2  3  1  0
  2  4  1  0
  4  5  2  0
  4  6  1  0
  6  7  1  0
  7  8  2  0
  8  9  1  0
  9 10  2  0
 10 11  1  0
 10 12  1  0
 12 13  1  0
 13 14  1  0
 14 15  1  0
 15 16  1  0
 16 17  2  0
 16 18  1  0
 18 19  1  0
 19 20  2  0
 12 21  2  0
 21  7  1  0
 19 13  1  0
M  END
>  <alias>  (694) 
None

>  <rmsd(smina/fragmenstein)>  (694) 
0.63

>  <smiles>  (694) 
C[C@@H](Cl)C(=O)Nc1ccc(Cl)c(N2CCC(=O)NC2=O)c1

>  <gnina_score>  (694) 
5.635

>  <inspiration_score>  (694) 
None

>  <energy_score>  (694) 
-17.569008

>  <distance_score>  (694) 
1.533258

>  <gnina_score_min>  (694) 
5.589

>  <inchikey>  (694) 
BKHYHIZOCXVYPN-SSDOTTSWSA-N

>  <exports>  (694) 
['/opt/xchem-fragalysis-2/maxwin/BulkDock/OUTPUTS/openbind_a71ev2a_c2_elabs_1LOUU54.sdf', '/opt/xchem-fragalysis-2/maxwin/BulkDock/OUTPUTS/openbind_a71ev2a_c2_elabs_1LSYIDY.sdf']

>  <name>  (694) 
P546271

>  <ref_pdb>  (694) 
A0884a

>  <subsites>  (694) 
None

>  <HIPPO Pose ID>  (694) 
546271

>  <ref_mols>  (694) 
A0884a

>  <HIPPO Compound ID>  (694) 
384880

>  <tags>  (694) 
openbind_a71ev2a_c2_elabs,syndirella_product,openbind_a71ev2a_c2_elabs_fragonly_scored_top80percent,BulkDock Fragalysis export,openbind_a71ev2a_c2_elabs_scored,openbind_a71ev2a_c2_elabs_scored_top80percent,openbind_a71ev2a_c2_elabs_activefrags_only_scored_5.2plus,openbind_a71ev2a_c2_elabs_activefrags_only_scored_5.5plus,syndirella_placed

>  <smina_score_min>  (694) 
-6.883

$$$$
P546272
     RDKit          3D

 21 22  0  0  0  0  0  0  0  0999 V2000
    8.3819   14.3834   24.8850 C   0  0  0  0  0  0  0  0  0  0  0  0
    8.6056   12.9196   24.6482 C   0  0  0  0  0  0  0  0  0  0  0  0
    7.7727   11.9466   25.2311 C   0  0  0  0  0  0  0  0  0  0  0  0
    6.7970   12.2062   26.1972 N   0  0  0  0  0  0  0  0  0  0  0  0
    6.7714   13.2538   27.3582 C   0  0  0  0  0  0  0  0  0  0  0  0
    7.5299   14.1058   27.6289 O   0  0  0  0  0  0  0  0  0  0  0  0
    5.4538   13.0870   28.1200 C   0  0  1  0  0  0  0  0  0  0  0  0
    4.2559   13.5482   27.3157 C   0  0  0  0  0  0  0  0  0  0  0  0
    5.2410   11.2078   28.6269 Br  0  0  0  0  0  0  0  0  0  0  0  0
    7.8910   10.6083   24.8471 C   0  0  0  0  0  0  0  0  0  0  0  0
    8.8667   10.2133   23.9402 C   0  0  0  0  0  0  0  0  0  0  0  0
    9.7337   11.1513   23.4076 C   0  0  0  0  0  0  0  0  0  0  0  0
    9.6322   12.4963   23.7692 C   0  0  0  0  0  0  0  0  0  0  0  0
   10.5491   13.4019   23.1594 N   0  0  0  0  0  0  0  0  0  0  0  0
   10.1459   14.0590   22.0119 C   0  0  0  0  0  0  0  0  0  0  0  0
    9.0283   13.9361   21.5161 O   0  0  0  0  0  0  0  0  0  0  0  0
   11.0929   15.0282   21.3874 C   0  0  0  0  0  0  0  0  0  0  0  0
   12.4918   14.5656   21.5939 C   0  0  0  0  0  0  0  0  0  0  0  0
   12.6975   14.2891   22.9826 N   0  0  0  0  0  0  0  0  0  0  0  0
   11.8090   13.5562   23.7118 C   0  0  0  0  0  0  0  0  0  0  0  0
   12.1682   13.1158   24.8004 O   0  0  0  0  0  0  0  0  0  0  0  0
  1  2  1  0
  2  3  2  0
  3  4  1  0
  4  5  1  0
  5  6  2  0
  5  7  1  0
  7  8  1  6
  7  9  1  0
  3 10  1  0
 10 11  2  0
 11 12  1  0
 12 13  2  0
 13 14  1  0
 14 15  1  0
 15 16  2  0
 15 17  1  0
 17 18  1  0
 18 19  1  0
 19 20  1  0
 20 21  2  0
 13  2  1  0
 20 14  1  0
M  END
>  <alias>  (695) 
None

>  <rmsd(smina/fragmenstein)>  (695) 
0.485

>  <smiles>  (695) 
Cc1c(NC(=O)[C@@H](C)Br)cccc1N1C(=O)CCNC1=O

>  <gnina_score>  (695) 
5.308

>  <inspiration_score>  (695) 
None

>  <energy_score>  (695) 
-19.299619

>  <distance_score>  (695) 
1.763967

>  <gnina_score_min>  (695) 
5.321

>  <inchikey>  (695) 
SEGKPTCQWKRJKW-SECBINFHSA-N

>  <exports>  (695) 
['/opt/xchem-fragalysis-2/maxwin/BulkDock/OUTPUTS/openbind_a71ev2a_c2_elabs_1LOUU54.sdf', '/opt/xchem-fragalysis-2/maxwin/BulkDock/OUTPUTS/openbind_a71ev2a_c2_elabs_1LSYIDY.sdf']

>  <name>  (695) 
P546272

>  <ref_pdb>  (695) 
A0884a

>  <subsites>  (695) 
None

>  <HIPPO Pose ID>  (695) 
546272

>  <ref_mols>  (695) 
A0884a

>  <HIPPO Compound ID>  (695) 
384884

>  <tags>  (695) 
openbind_a71ev2a_c2_elabs,syndirella_product,openbind_a71ev2a_c2_elabs_fragonly_scored_top80percent,openbind_a71ev2a_c2_elabs_scored,BulkDock Fragalysis export,openbind_a71ev2a_c2_elabs_scored_top80percent,openbind_a71ev2a_c2_elabs_activefrags_only_scored_5.2plus,syndirella_placed

>  <smina_score_min>  (695) 
-7.058

$$$$
P546280
     RDKit          3D

 21 22  0  0  0  0  0  0  0  0999 V2000
    9.9219   10.1487   23.1388 C   0  0  0  0  0  0  0  0  0  0  0  0
    9.0812   11.0968   23.9354 C   0  0  0  0  0  0  0  0  0  0  0  0
    8.0409   10.5414   24.6877 C   0  0  0  0  0  0  0  0  0  0  0  0
    7.1656   11.3471   25.4089 C   0  0  0  0  0  0  0  0  0  0  0  0
    7.3165   12.7285   25.3870 C   0  0  0  0  0  0  0  0  0  0  0  0
    6.4029   13.5632   26.0235 N   0  0  0  0  0  0  0  0  0  0  0  0
    5.1804   13.2202   26.9418 C   0  0  0  0  0  0  0  0  0  0  0  0
    4.7171   12.1820   27.2342 O   0  0  0  0  0  0  0  0  0  0  0  0
    4.6385   14.5600   27.5184 C   0  0  0  0  0  0  0  0  0  0  0  0
    3.3168   14.3272   28.2570 C   0  0  0  0  0  0  0  0  0  0  0  0
    5.6601   15.1902   28.4680 C   0  0  0  0  0  0  0  0  0  0  0  0
    4.3216   15.6836   26.1548 Cl  0  0  0  0  0  0  0  0  0  0  0  0
    8.3986   13.2943   24.7076 C   0  0  0  0  0  0  0  0  0  0  0  0
    9.3075   12.4838   24.0091 C   0  0  0  0  0  0  0  0  0  0  0  0
   10.4768   13.0470   23.4485 N   0  0  0  0  0  0  0  0  0  0  0  0
   11.3595   13.7967   24.1807 C   0  0  0  0  0  0  0  0  0  0  0  0
   11.3827   13.9791   25.3925 O   0  0  0  0  0  0  0  0  0  0  0  0
   12.3116   14.4856   23.2268 C   0  0  0  0  0  0  0  0  0  0  0  0
   11.7053   14.2041   21.9830 N   0  0  0  0  0  0  0  0  0  0  0  0
   10.4816   13.6287   22.2161 C   0  0  0  0  0  0  0  0  0  0  0  0
    9.5453   13.8252   21.4640 O   0  0  0  0  0  0  0  0  0  0  0  0
  1  2  1  0
  2  3  2  0
  3  4  1  0
  4  5  2  0
  5  6  1  0
  6  7  1  0
  7  8  2  0
  7  9  1  0
  9 10  1  0
  9 11  1  0
  9 12  1  0
  5 13  1  0
 13 14  2  0
 14 15  1  0
 15 16  1  0
 16 17  2  0
 16 18  1  0
 18 19  1  0
 19 20  1  0
 20 21  2  0
 14  2  1  0
 20 15  1  0
M  END
>  <alias>  (696) 
None

>  <rmsd(smina/fragmenstein)>  (696) 
1.086

>  <smiles>  (696) 
Cc1ccc(NC(=O)C(C)(C)Cl)cc1N1C(=O)CNC1=O

>  <gnina_score>  (696) 
5.41

>  <inspiration_score>  (696) 
None

>  <energy_score>  (696) 
-22.018064

>  <distance_score>  (696) 
1.721484

>  <gnina_score_min>  (696) 
5.302

>  <inchikey>  (696) 
RIMQHAIGESMBML-UHFFFAOYSA-N

>  <exports>  (696) 
['/opt/xchem-fragalysis-2/maxwin/BulkDock/OUTPUTS/openbind_a71ev2a_c2_elabs_1LOUU54.sdf', '/opt/xchem-fragalysis-2/maxwin/BulkDock/OUTPUTS/openbind_a71ev2a_c2_elabs_1LSYIDY.sdf']

>  <name>  (696) 
P546280

>  <ref_pdb>  (696) 
A0884a

>  <subsites>  (696) 
None

>  <HIPPO Pose ID>  (696) 
546280

>  <ref_mols>  (696) 
A0884a

>  <HIPPO Compound ID>  (696) 
384895

>  <tags>  (696) 
openbind_a71ev2a_c2_elabs,syndirella_product,openbind_a71ev2a_c2_elabs_fragonly_scored_top80percent,openbind_a71ev2a_c2_elabs_scored,BulkDock Fragalysis export,openbind_a71ev2a_c2_elabs_scored_top80percent,openbind_a71ev2a_c2_elabs_activefrags_only_scored_5.2plus,syndirella_placed

>  <smina_score_min>  (696) 
-6.812

$$$$
P546281
     RDKit          3D

 21 22  0  0  0  0  0  0  0  0999 V2000
    3.5397   14.3232   27.5679 C   0  0  0  0  0  0  0  0  0  0  0  0
    4.4945   14.4932   26.3813 C   0  0  0  0  0  0  0  0  0  0  0  0
    3.7068   14.9458   25.1502 C   0  0  0  0  0  0  0  0  0  0  0  0
    5.7111   15.7456   26.8252 Cl  0  0  0  0  0  0  0  0  0  0  0  0
    5.2623   13.1664   26.1134 C   0  0  0  0  0  0  0  0  0  0  0  0
    4.9795   12.1620   26.6500 O   0  0  0  0  0  0  0  0  0  0  0  0
    6.3393   13.4612   25.0154 N   0  0  0  0  0  0  0  0  0  0  0  0
    7.3042   12.6339   24.4534 C   0  0  0  0  0  0  0  0  0  0  0  0
    7.3826   11.2785   24.7811 C   0  0  0  0  0  0  0  0  0  0  0  0
    8.3714   10.4768   24.2130 C   0  0  0  0  0  0  0  0  0  0  0  0
    9.3489   11.0528   23.4101 C   0  0  0  0  0  0  0  0  0  0  0  0
    9.3630   12.4465   23.2096 C   0  0  0  0  0  0  0  0  0  0  0  0
   10.6383   13.0559   23.3727 N   0  0  0  0  0  0  0  0  0  0  0  0
   11.0884   12.9189   24.7327 C   0  0  0  0  0  0  0  0  0  0  0  0
   10.8728   14.1596   25.5149 C   0  0  0  0  0  0  0  0  0  0  0  0
   11.7521   15.1214   24.8841 C   0  0  0  0  0  0  0  0  0  0  0  0
   12.0726   16.0866   25.5876 O   0  0  0  0  0  0  0  0  0  0  0  0
   11.9263   14.9766   23.5187 N   0  0  0  0  0  0  0  0  0  0  0  0
   11.0826   14.2044   22.7346 C   0  0  0  0  0  0  0  0  0  0  0  0
   10.7523   14.5863   21.6227 O   0  0  0  0  0  0  0  0  0  0  0  0
    8.2589   13.2100   23.6111 C   0  0  0  0  0  0  0  0  0  0  0  0
  1  2  1  0
  2  3  1  0
  2  4  1  0
  2  5  1  0
  5  6  2  0
  5  7  1  0
  7  8  1  0
  8  9  2  0
  9 10  1  0
 10 11  2  0
 11 12  1  0
 12 13  1  0
 13 14  1  0
 14 15  1  0
 15 16  1  0
 16 17  2  0
 16 18  1  0
 18 19  1  0
 19 20  2  0
 12 21  2  0
 21  8  1  0
 19 13  1  0
M  END
>  <alias>  (697) 
None

>  <rmsd(smina/fragmenstein)>  (697) 
0.557

>  <smiles>  (697) 
CC(C)(Cl)C(=O)Nc1cccc(N2CCC(=O)NC2=O)c1

>  <gnina_score>  (697) 
5.264

>  <inspiration_score>  (697) 
None

>  <energy_score>  (697) 
-6.610015

>  <distance_score>  (697) 
1.465071

>  <gnina_score_min>  (697) 
5.475

>  <inchikey>  (697) 
WLAKOSKKXKPUHO-UHFFFAOYSA-N

>  <exports>  (697) 
['/opt/xchem-fragalysis-2/maxwin/BulkDock/OUTPUTS/openbind_a71ev2a_c2_elabs_1LOUU54.sdf', '/opt/xchem-fragalysis-2/maxwin/BulkDock/OUTPUTS/openbind_a71ev2a_c2_elabs_1LSYIDY.sdf']

>  <name>  (697) 
P546281

>  <ref_pdb>  (697) 
A0884a

>  <subsites>  (697) 
None

>  <HIPPO Pose ID>  (697) 
546281

>  <ref_mols>  (697) 
A0884a

>  <HIPPO Compound ID>  (697) 
384896

>  <tags>  (697) 
openbind_a71ev2a_c2_elabs,syndirella_product,openbind_a71ev2a_c2_elabs_fragonly_scored_top80percent,openbind_a71ev2a_c2_elabs_scored,BulkDock Fragalysis export,openbind_a71ev2a_c2_elabs_scored_top80percent,openbind_a71ev2a_c2_elabs_activefrags_only_scored_5.2plus,syndirella_placed

>  <smina_score_min>  (697) 
-4.75

$$$$
P546282
     RDKit          3D

 21 22  0  0  0  0  0  0  0  0999 V2000
    8.0942   14.4616   25.2489 C   0  0  0  0  0  0  0  0  0  0  0  0
    8.3197   13.0032   24.9574 C   0  0  0  0  0  0  0  0  0  0  0  0
    7.4934   11.9939   25.4841 C   0  0  0  0  0  0  0  0  0  0  0  0
    6.5237   12.1956   26.4665 N   0  0  0  0  0  0  0  0  0  0  0  0
    6.5006   13.1785   27.6846 C   0  0  0  0  0  0  0  0  0  0  0  0
    7.2576   14.0173   27.9977 O   0  0  0  0  0  0  0  0  0  0  0  0
    5.1628   12.9445   28.4406 C   0  0  0  0  0  0  0  0  0  0  0  0
    5.1971   13.6118   29.8170 C   0  0  0  0  0  0  0  0  0  0  0  0
    3.9961   13.4926   27.6173 C   0  0  0  0  0  0  0  0  0  0  0  0
    4.9313   11.1709   28.6832 Cl  0  0  0  0  0  0  0  0  0  0  0  0
    7.6261   10.6747   25.0356 C   0  0  0  0  0  0  0  0  0  0  0  0
    8.6093   10.3335   24.1144 C   0  0  0  0  0  0  0  0  0  0  0  0
    9.4552   11.3122   23.6316 C   0  0  0  0  0  0  0  0  0  0  0  0
   10.3935   10.9581   22.7521 F   0  0  0  0  0  0  0  0  0  0  0  0
    9.3465   12.6356   24.0609 C   0  0  0  0  0  0  0  0  0  0  0  0
   10.2765   13.6040   23.6242 N   0  0  0  0  0  0  0  0  0  0  0  0
   11.6108   13.6290   24.1803 C   0  0  0  0  0  0  0  0  0  0  0  0
   12.3545   14.5289   23.2153 C   0  0  0  0  0  0  0  0  0  0  0  0
   11.6738   14.3214   21.9944 N   0  0  0  0  0  0  0  0  0  0  0  0
   10.3843   13.9193   22.2601 C   0  0  0  0  0  0  0  0  0  0  0  0
    9.4978   13.9193   21.4295 O   0  0  0  0  0  0  0  0  0  0  0  0
  1  2  1  0
  2  3  2  0
  3  4  1  0
  4  5  1  0
  5  6  2  0
  5  7  1  0
  7  8  1  0
  7  9  1  0
  7 10  1  0
  3 11  1  0
 11 12  2  0
 12 13  1  0
 13 14  1  0
 13 15  2  0
 15 16  1  0
 16 17  1  0
 17 18  1  0
 18 19  1  0
 19 20  1  0
 20 21  2  0
 15  2  1  0
 20 16  1  0
M  END
>  <alias>  (698) 
None

>  <rmsd(smina/fragmenstein)>  (698) 
0.602

>  <smiles>  (698) 
Cc1c(NC(=O)C(C)(C)Cl)ccc(F)c1N1CCNC1=O

>  <gnina_score>  (698) 
5.587

>  <inspiration_score>  (698) 
None

>  <energy_score>  (698) 
-37.216591

>  <distance_score>  (698) 
1.650744

>  <gnina_score_min>  (698) 
5.529

>  <inchikey>  (698) 
OFOFSXKWURKTRD-UHFFFAOYSA-N

>  <exports>  (698) 
['/opt/xchem-fragalysis-2/maxwin/BulkDock/OUTPUTS/openbind_a71ev2a_c2_elabs_1LOUU54.sdf', '/opt/xchem-fragalysis-2/maxwin/BulkDock/OUTPUTS/openbind_a71ev2a_c2_elabs_1LSYIDY.sdf']

>  <name>  (698) 
P546282

>  <ref_pdb>  (698) 
A0884a

>  <subsites>  (698) 
None

>  <HIPPO Pose ID>  (698) 
546282

>  <ref_mols>  (698) 
A0884a

>  <HIPPO Compound ID>  (698) 
384898

>  <tags>  (698) 
openbind_a71ev2a_c2_elabs,syndirella_product,openbind_a71ev2a_c2_elabs_fragonly_scored_top80percent,BulkDock Fragalysis export,openbind_a71ev2a_c2_elabs_scored,openbind_a71ev2a_c2_elabs_scored_top80percent,openbind_a71ev2a_c2_elabs_activefrags_only_scored_5.2plus,openbind_a71ev2a_c2_elabs_activefrags_only_scored_5.5plus,syndirella_placed

>  <smina_score_min>  (698) 
-6.384

$$$$
P546283
     RDKit          3D

 21 22  0  0  0  0  0  0  0  0999 V2000
    8.3499   14.4252   24.7700 C   0  0  0  0  0  0  0  0  0  0  0  0
    8.5979   12.9569   24.6006 C   0  0  0  0  0  0  0  0  0  0  0  0
    7.7413   11.9951   25.1663 C   0  0  0  0  0  0  0  0  0  0  0  0
    6.7300   12.2726   26.0875 N   0  0  0  0  0  0  0  0  0  0  0  0
    6.6158   13.4082   27.1606 C   0  0  0  0  0  0  0  0  0  0  0  0
    7.3882   14.2309   27.4810 O   0  0  0  0  0  0  0  0  0  0  0  0
    5.1699   13.3644   27.7286 C   0  0  0  0  0  0  0  0  0  0  0  0
    5.0661   14.1989   29.0069 C   0  0  0  0  0  0  0  0  0  0  0  0
    4.1874   13.8850   26.6781 C   0  0  0  0  0  0  0  0  0  0  0  0
    4.7507   11.6577   28.1386 Cl  0  0  0  0  0  0  0  0  0  0  0  0
    7.8776   10.6512   24.8137 C   0  0  0  0  0  0  0  0  0  0  0  0
    8.8850   10.2463   23.9467 C   0  0  0  0  0  0  0  0  0  0  0  0
    9.7815   11.1771   23.4466 C   0  0  0  0  0  0  0  0  0  0  0  0
    9.6771   12.5228   23.7960 C   0  0  0  0  0  0  0  0  0  0  0  0
   10.6636   13.4174   23.3345 N   0  0  0  0  0  0  0  0  0  0  0  0
   10.5858   14.1024   22.1548 C   0  0  0  0  0  0  0  0  0  0  0  0
    9.6230   14.1879   21.4104 O   0  0  0  0  0  0  0  0  0  0  0  0
   11.9135   14.7595   21.8708 C   0  0  0  0  0  0  0  0  0  0  0  0
   12.6683   14.3307   22.9962 N   0  0  0  0  0  0  0  0  0  0  0  0
   11.9534   13.4629   23.7861 C   0  0  0  0  0  0  0  0  0  0  0  0
   12.4582   12.8791   24.7290 O   0  0  0  0  0  0  0  0  0  0  0  0
  1  2  1  0
  2  3  2  0
  3  4  1  0
  4  5  1  0
  5  6  2  0
  5  7  1  0
  7  8  1  0
  7  9  1  0
  7 10  1  0
  3 11  1  0
 11 12  2  0
 12 13  1  0
 13 14  2  0
 14 15  1  0
 15 16  1  0
 16 17  2  0
 16 18  1  0
 18 19  1  0
 19 20  1  0
 20 21  2  0
 14  2  1  0
 20 15  1  0
M  END
>  <alias>  (699) 
None

>  <rmsd(smina/fragmenstein)>  (699) 
0.551

>  <smiles>  (699) 
Cc1c(NC(=O)C(C)(C)Cl)cccc1N1C(=O)CNC1=O

>  <gnina_score>  (699) 
5.17

>  <inspiration_score>  (699) 
None

>  <energy_score>  (699) 
-17.570616

>  <distance_score>  (699) 
1.607243

>  <gnina_score_min>  (699) 
5.213

>  <inchikey>  (699) 
RLEPNNLNBHFETK-UHFFFAOYSA-N

>  <exports>  (699) 
['/opt/xchem-fragalysis-2/maxwin/BulkDock/OUTPUTS/openbind_a71ev2a_c2_elabs_1LOUU54.sdf', '/opt/xchem-fragalysis-2/maxwin/BulkDock/OUTPUTS/openbind_a71ev2a_c2_elabs_1LSYIDY.sdf']

>  <name>  (699) 
P546283

>  <ref_pdb>  (699) 
A0884a

>  <subsites>  (699) 
None

>  <HIPPO Pose ID>  (699) 
546283

>  <ref_mols>  (699) 
A0884a

>  <HIPPO Compound ID>  (699) 
384902

>  <tags>  (699) 
openbind_a71ev2a_c2_elabs,syndirella_product,openbind_a71ev2a_c2_elabs_fragonly_scored_top80percent,openbind_a71ev2a_c2_elabs_scored,BulkDock Fragalysis export,openbind_a71ev2a_c2_elabs_scored_top80percent,openbind_a71ev2a_c2_elabs_activefrags_only_scored_5.2plus,syndirella_placed

>  <smina_score_min>  (699) 
-6.772

$$$$
P546284
     RDKit          3D

 21 22  0  0  0  0  0  0  0  0999 V2000
    7.8547   14.6544   24.7310 C   0  0  0  0  0  0  0  0  0  0  0  0
    8.1785   13.1980   24.5380 C   0  0  0  0  0  0  0  0  0  0  0  0
    7.4894   12.2023   25.2669 C   0  0  0  0  0  0  0  0  0  0  0  0
    6.5942   12.5819   26.2737 N   0  0  0  0  0  0  0  0  0  0  0  0
    5.7602   11.7137   27.2691 C   0  0  0  0  0  0  0  0  0  0  0  0
    5.6390   10.5509   27.3439 O   0  0  0  0  0  0  0  0  0  0  0  0
    4.9887   12.6891   28.2064 C   0  0  0  0  0  0  0  0  0  0  0  0
    4.3523   11.9189   29.3677 C   0  0  0  0  0  0  0  0  0  0  0  0
    3.9088   13.4579   27.4431 C   0  0  0  0  0  0  0  0  0  0  0  0
    6.1681   13.8625   28.9011 Cl  0  0  0  0  0  0  0  0  0  0  0  0
    7.7594   10.8527   25.0334 C   0  0  0  0  0  0  0  0  0  0  0  0
    8.7609   10.4761   24.1399 C   0  0  0  0  0  0  0  0  0  0  0  0
    9.5153   11.4486   23.4946 C   0  0  0  0  0  0  0  0  0  0  0  0
    9.2382   12.8071   23.6914 C   0  0  0  0  0  0  0  0  0  0  0  0
   10.0952   13.7713   23.0767 N   0  0  0  0  0  0  0  0  0  0  0  0
    9.6971   14.2489   21.7535 C   0  0  0  0  0  0  0  0  0  0  0  0
   10.6560   15.2309   21.1137 C   0  0  0  0  0  0  0  0  0  0  0  0
   12.0665   14.7432   21.3230 C   0  0  0  0  0  0  0  0  0  0  0  0
   12.3051   14.4501   22.7046 N   0  0  0  0  0  0  0  0  0  0  0  0
   11.4048   13.8459   23.5270 C   0  0  0  0  0  0  0  0  0  0  0  0
   11.7845   13.4396   24.6241 O   0  0  0  0  0  0  0  0  0  0  0  0
  1  2  1  0
  2  3  2  0
  3  4  1  0
  4  5  1  0
  5  6  2  0
  5  7  1  0
  7  8  1  0
  7  9  1  0
  7 10  1  0
  3 11  1  0
 11 12  2  0
 12 13  1  0
 13 14  2  0
 14 15  1  0
 15 16  1  0
 16 17  1  0
 17 18  1  0
 18 19  1  0
 19 20  1  0
 20 21  2  0
 14  2  1  0
 20 15  1  0
M  END
>  <alias>  (700) 
None

>  <rmsd(smina/fragmenstein)>  (700) 
0.476

>  <smiles>  (700) 
Cc1c(NC(=O)C(C)(C)Cl)cccc1N1CCCNC1=O

>  <gnina_score>  (700) 
5.152

>  <inspiration_score>  (700) 
None

>  <energy_score>  (700) 
-34.822728

>  <distance_score>  (700) 
1.148801

>  <gnina_score_min>  (700) 
5.233

>  <inchikey>  (700) 
NLLDFFYDCDTOOF-UHFFFAOYSA-N

>  <exports>  (700) 
['/opt/xchem-fragalysis-2/maxwin/BulkDock/OUTPUTS/openbind_a71ev2a_c2_elabs_1LOUU54.sdf', '/opt/xchem-fragalysis-2/maxwin/BulkDock/OUTPUTS/openbind_a71ev2a_c2_elabs_1LSYIDY.sdf']

>  <name>  (700) 
P546284

>  <ref_pdb>  (700) 
A0884a

>  <subsites>  (700) 
None

>  <HIPPO Pose ID>  (700) 
546284

>  <ref_mols>  (700) 
A0884a

>  <HIPPO Compound ID>  (700) 
384903

>  <tags>  (700) 
openbind_a71ev2a_c2_elabs,syndirella_product,openbind_a71ev2a_c2_elabs_fragonly_scored_top80percent,openbind_a71ev2a_c2_elabs_scored,BulkDock Fragalysis export,openbind_a71ev2a_c2_elabs_scored_top80percent,openbind_a71ev2a_c2_elabs_activefrags_only_scored_5.2plus,syndirella_placed

>  <smina_score_min>  (700) 
-7.053

$$$$
P546285
     RDKit          3D

 21 22  0  0  0  0  0  0  0  0999 V2000
    4.1556   14.9715   25.6545 C   0  0  0  0  0  0  0  0  0  0  0  0
    4.7957   14.2877   26.8648 C   0  0  0  0  0  0  0  0  0  0  0  0
    3.7258   13.9977   27.9219 C   0  0  0  0  0  0  0  0  0  0  0  0
    6.0211   15.3856   27.6001 Cl  0  0  0  0  0  0  0  0  0  0  0  0
    5.5114   12.9694   26.4456 C   0  0  0  0  0  0  0  0  0  0  0  0
    5.0912   11.9122   26.7293 O   0  0  0  0  0  0  0  0  0  0  0  0
    6.7320   13.3676   25.5539 N   0  0  0  0  0  0  0  0  0  0  0  0
    7.6955   12.5768   24.9370 C   0  0  0  0  0  0  0  0  0  0  0  0
    7.6481   11.1862   24.9624 C   0  0  0  0  0  0  0  0  0  0  0  0
    8.6301   10.4516   24.2948 C   0  0  0  0  0  0  0  0  0  0  0  0
    9.6791   11.0985   23.6387 C   0  0  0  0  0  0  0  0  0  0  0  0
    9.7556   12.4921   23.6427 C   0  0  0  0  0  0  0  0  0  0  0  0
   10.8398   13.1470   23.0343 N   0  0  0  0  0  0  0  0  0  0  0  0
   10.7061   14.1295   22.0944 C   0  0  0  0  0  0  0  0  0  0  0  0
    9.6907   14.4394   21.4925 O   0  0  0  0  0  0  0  0  0  0  0  0
   12.0383   14.7950   21.8676 C   0  0  0  0  0  0  0  0  0  0  0  0
   12.7973   14.1988   22.9087 N   0  0  0  0  0  0  0  0  0  0  0  0
   12.0660   13.2835   23.6219 C   0  0  0  0  0  0  0  0  0  0  0  0
   12.4802   12.7812   24.6522 O   0  0  0  0  0  0  0  0  0  0  0  0
    8.7451   13.2190   24.2738 C   0  0  0  0  0  0  0  0  0  0  0  0
    8.8136   14.5598   24.3235 F   0  0  0  0  0  0  0  0  0  0  0  0
  1  2  1  0
  2  3  1  0
  2  4  1  0
  2  5  1  0
  5  6  2  0
  5  7  1  0
  7  8  1  0
  8  9  2  0
  9 10  1  0
 10 11  2  0
 11 12  1  0
 12 13  1  0
 13 14  1  0
 14 15  2  0
 14 16  1  0
 16 17  1  0
 17 18  1  0
 18 19  2  0
 12 20  2  0
 20 21  1  0
 20  8  1  0
 18 13  1  0
M  END
>  <alias>  (701) 
None

>  <rmsd(smina/fragmenstein)>  (701) 
0.695

>  <smiles>  (701) 
CC(C)(Cl)C(=O)Nc1cccc(N2C(=O)CNC2=O)c1F

>  <gnina_score>  (701) 
5.224

>  <inspiration_score>  (701) 
None

>  <energy_score>  (701) 
-46.486978

>  <distance_score>  (701) 
1.584496

>  <gnina_score_min>  (701) 
5.331

>  <inchikey>  (701) 
RODCLCUJWMQTRC-UHFFFAOYSA-N

>  <exports>  (701) 
['/opt/xchem-fragalysis-2/maxwin/BulkDock/OUTPUTS/openbind_a71ev2a_c2_elabs_1LOUU54.sdf', '/opt/xchem-fragalysis-2/maxwin/BulkDock/OUTPUTS/openbind_a71ev2a_c2_elabs_1LSYIDY.sdf']

>  <name>  (701) 
P546285

>  <ref_pdb>  (701) 
A0884a

>  <subsites>  (701) 
None

>  <HIPPO Pose ID>  (701) 
546285

>  <ref_mols>  (701) 
A0884a

>  <HIPPO Compound ID>  (701) 
384904

>  <tags>  (701) 
openbind_a71ev2a_c2_elabs,syndirella_product,openbind_a71ev2a_c2_elabs_fragonly_scored_top80percent,openbind_a71ev2a_c2_elabs_scored,BulkDock Fragalysis export,openbind_a71ev2a_c2_elabs_scored_top80percent,openbind_a71ev2a_c2_elabs_activefrags_only_scored_5.2plus,syndirella_placed

>  <smina_score_min>  (701) 
-6.765

$$$$
P546286
     RDKit          3D

 21 22  0  0  0  0  0  0  0  0999 V2000
    5.0267   15.5067   26.9852 C   0  0  0  0  0  0  0  0  0  0  0  0
    4.2332   14.3477   26.3789 C   0  0  0  0  0  0  0  0  0  0  0  0
    3.5854   14.7399   25.0490 C   0  0  0  0  0  0  0  0  0  0  0  0
    2.8792   13.9650   27.5317 Cl  0  0  0  0  0  0  0  0  0  0  0  0
    5.1178   13.0576   26.2354 C   0  0  0  0  0  0  0  0  0  0  0  0
    4.8498   12.0483   26.7702 O   0  0  0  0  0  0  0  0  0  0  0  0
    6.2784   13.4010   25.2386 N   0  0  0  0  0  0  0  0  0  0  0  0
    7.3462   12.6291   24.7977 C   0  0  0  0  0  0  0  0  0  0  0  0
    7.4142   11.2610   25.0594 C   0  0  0  0  0  0  0  0  0  0  0  0
    8.4548   10.5061   24.5223 C   0  0  0  0  0  0  0  0  0  0  0  0
    9.4694   11.1320   23.8112 C   0  0  0  0  0  0  0  0  0  0  0  0
   10.4604   10.3803   23.3267 F   0  0  0  0  0  0  0  0  0  0  0  0
    9.4467   12.5059   23.5893 C   0  0  0  0  0  0  0  0  0  0  0  0
   10.5230   13.1440   22.9416 N   0  0  0  0  0  0  0  0  0  0  0  0
   11.6795   13.4519   23.6139 C   0  0  0  0  0  0  0  0  0  0  0  0
   12.0428   13.0481   24.7106 O   0  0  0  0  0  0  0  0  0  0  0  0
   12.3841   14.5664   22.8710 C   0  0  0  0  0  0  0  0  0  0  0  0
   11.5248   14.7605   21.7669 N   0  0  0  0  0  0  0  0  0  0  0  0
   10.3624   14.0717   21.9601 C   0  0  0  0  0  0  0  0  0  0  0  0
    9.3419   14.3731   21.3695 O   0  0  0  0  0  0  0  0  0  0  0  0
    8.3476   13.2459   24.0445 C   0  0  0  0  0  0  0  0  0  0  0  0
  1  2  1  0
  2  3  1  0
  2  4  1  0
  2  5  1  0
  5  6  2  0
  5  7  1  0
  7  8  1  0
  8  9  2  0
  9 10  1  0
 10 11  2  0
 11 12  1  0
 11 13  1  0
 13 14  1  0
 14 15  1  0
 15 16  2  0
 15 17  1  0
 17 18  1  0
 18 19  1  0
 19 20  2  0
 13 21  2  0
 21  8  1  0
 19 14  1  0
M  END
>  <alias>  (702) 
None

>  <rmsd(smina/fragmenstein)>  (702) 
0.618

>  <smiles>  (702) 
CC(C)(Cl)C(=O)Nc1ccc(F)c(N2C(=O)CNC2=O)c1

>  <gnina_score>  (702) 
5.452

>  <inspiration_score>  (702) 
None

>  <energy_score>  (702) 
-33.007908

>  <distance_score>  (702) 
1.773856

>  <gnina_score_min>  (702) 
5.354

>  <inchikey>  (702) 
GINJGQVOEPFPDC-UHFFFAOYSA-N

>  <exports>  (702) 
['/opt/xchem-fragalysis-2/maxwin/BulkDock/OUTPUTS/openbind_a71ev2a_c2_elabs_1LOUU54.sdf', '/opt/xchem-fragalysis-2/maxwin/BulkDock/OUTPUTS/openbind_a71ev2a_c2_elabs_1LSYIDY.sdf']

>  <name>  (702) 
P546286

>  <ref_pdb>  (702) 
A0884a

>  <subsites>  (702) 
None

>  <HIPPO Pose ID>  (702) 
546286

>  <ref_mols>  (702) 
A0884a

>  <HIPPO Compound ID>  (702) 
384906

>  <tags>  (702) 
openbind_a71ev2a_c2_elabs,syndirella_product,openbind_a71ev2a_c2_elabs_fragonly_scored_top80percent,openbind_a71ev2a_c2_elabs_scored,BulkDock Fragalysis export,openbind_a71ev2a_c2_elabs_scored_top80percent,openbind_a71ev2a_c2_elabs_activefrags_only_scored_5.2plus,syndirella_placed

>  <smina_score_min>  (702) 
-6.835

$$$$
P546287
     RDKit          3D

 21 22  0  0  0  0  0  0  0  0999 V2000
    8.2451   14.5241   24.9982 C   0  0  0  0  0  0  0  0  0  0  0  0
    8.3531   13.0390   24.8106 C   0  0  0  0  0  0  0  0  0  0  0  0
    7.4671   12.1640   25.4794 C   0  0  0  0  0  0  0  0  0  0  0  0
    6.5787   12.6642   26.4371 N   0  0  0  0  0  0  0  0  0  0  0  0
    5.4920   11.9321   27.2967 C   0  0  0  0  0  0  0  0  0  0  0  0
    5.2347   10.7903   27.3846 O   0  0  0  0  0  0  0  0  0  0  0  0
    4.7578   12.9963   28.1269 C   0  0  0  0  0  0  0  0  0  0  0  0
    5.9182   13.8323   29.1796 Cl  0  0  0  0  0  0  0  0  0  0  0  0
    3.9393   14.1357   27.0450 Cl  0  0  0  0  0  0  0  0  0  0  0  0
    7.5175   10.7948   25.2215 C   0  0  0  0  0  0  0  0  0  0  0  0
    8.4374   10.2858   24.3100 C   0  0  0  0  0  0  0  0  0  0  0  0
    9.3272   11.1331   23.6781 C   0  0  0  0  0  0  0  0  0  0  0  0
   10.2161   10.6043   22.8318 F   0  0  0  0  0  0  0  0  0  0  0  0
    9.3391   12.4993   23.9547 C   0  0  0  0  0  0  0  0  0  0  0  0
   10.4199   13.2333   23.4341 N   0  0  0  0  0  0  0  0  0  0  0  0
   11.3485   13.9137   24.1670 C   0  0  0  0  0  0  0  0  0  0  0  0
   11.4228   14.0220   25.3844 O   0  0  0  0  0  0  0  0  0  0  0  0
   12.2934   14.6004   23.2001 C   0  0  0  0  0  0  0  0  0  0  0  0
   11.6707   14.3374   21.9587 N   0  0  0  0  0  0  0  0  0  0  0  0
   10.4621   13.7306   22.1701 C   0  0  0  0  0  0  0  0  0  0  0  0
    9.5516   13.8229   21.3697 O   0  0  0  0  0  0  0  0  0  0  0  0
  1  2  1  0
  2  3  2  0
  3  4  1  0
  4  5  1  0
  5  6  2  0
  5  7  1  0
  7  8  1  0
  7  9  1  0
  3 10  1  0
 10 11  2  0
 11 12  1  0
 12 13  1  0
 12 14  2  0
 14 15  1  0
 15 16  1  0
 16 17  2  0
 16 18  1  0
 18 19  1  0
 19 20  1  0
 20 21  2  0
 14  2  1  0
 20 15  1  0
M  END
>  <alias>  (703) 
None

>  <rmsd(smina/fragmenstein)>  (703) 
0.616

>  <smiles>  (703) 
Cc1c(NC(=O)C(Cl)Cl)ccc(F)c1N1C(=O)CNC1=O

>  <gnina_score>  (703) 
5.508

>  <inspiration_score>  (703) 
None

>  <energy_score>  (703) 
-15.455446

>  <distance_score>  (703) 
1.558496

>  <gnina_score_min>  (703) 
5.434

>  <inchikey>  (703) 
SQKBRSMSVGWUDI-UHFFFAOYSA-N

>  <exports>  (703) 
['/opt/xchem-fragalysis-2/maxwin/BulkDock/OUTPUTS/openbind_a71ev2a_c2_elabs_1LOUU54.sdf', '/opt/xchem-fragalysis-2/maxwin/BulkDock/OUTPUTS/openbind_a71ev2a_c2_elabs_1LSYIDY.sdf']

>  <name>  (703) 
P546287

>  <ref_pdb>  (703) 
A0884a

>  <subsites>  (703) 
None

>  <HIPPO Pose ID>  (703) 
546287

>  <ref_mols>  (703) 
A0884a

>  <HIPPO Compound ID>  (703) 
384907

>  <tags>  (703) 
openbind_a71ev2a_c2_elabs,syndirella_product,openbind_a71ev2a_c2_elabs_fragonly_scored_top80percent,openbind_a71ev2a_c2_elabs_scored,BulkDock Fragalysis export,openbind_a71ev2a_c2_elabs_scored_top80percent,openbind_a71ev2a_c2_elabs_activefrags_only_scored_5.2plus,syndirella_placed

>  <smina_score_min>  (703) 
-6.458

$$$$
P546290
     RDKit          3D

 21 22  0  0  0  0  0  0  0  0999 V2000
   13.0803   15.5713   21.4160 O   0  0  0  0  0  0  0  0  0  0  0  0
   12.2893   14.9331   22.0952 C   0  0  0  0  0  0  0  0  0  0  0  0
   12.6703   13.7597   22.9272 C   0  0  0  0  0  0  0  0  0  0  0  0
   11.5538   13.3651   23.8459 C   0  0  0  0  0  0  0  0  0  0  0  0
   10.3375   13.2105   23.0791 N   0  0  0  0  0  0  0  0  0  0  0  0
    9.2993   12.4742   23.6885 C   0  0  0  0  0  0  0  0  0  0  0  0
    9.4036   11.0918   23.8008 C   0  0  0  0  0  0  0  0  0  0  0  0
    8.4362   10.3978   24.5172 C   0  0  0  0  0  0  0  0  0  0  0  0
    7.3979   11.0819   25.1510 C   0  0  0  0  0  0  0  0  0  0  0  0
    6.5291   10.3576   25.8616 F   0  0  0  0  0  0  0  0  0  0  0  0
    7.2553   12.4603   25.0044 C   0  0  0  0  0  0  0  0  0  0  0  0
    6.2324   13.2325   25.5610 N   0  0  0  0  0  0  0  0  0  0  0  0
    5.0901   12.8400   26.5472 C   0  0  0  0  0  0  0  0  0  0  0  0
    4.8803   11.8311   27.1010 O   0  0  0  0  0  0  0  0  0  0  0  0
    4.1961   14.0639   26.7039 C   0  0  0  0  0  0  0  0  0  0  0  0
    4.8668   15.2100   27.4416 C   0  0  0  0  0  0  0  0  0  0  0  0
    5.2490   14.7833   29.1267 Cl  0  0  0  0  0  0  0  0  0  0  0  0
    8.2034   13.1460   24.2449 C   0  0  0  0  0  0  0  0  0  0  0  0
   10.0311   14.2320   22.2014 C   0  0  0  0  0  0  0  0  0  0  0  0
    8.9926   14.3073   21.5602 O   0  0  0  0  0  0  0  0  0  0  0  0
   10.9649   15.2017   22.0532 N   0  0  0  0  0  0  0  0  0  0  0  0
  1  2  2  0
  2  3  1  0
  3  4  1  0
  4  5  1  0
  5  6  1  0
  6  7  2  0
  7  8  1  0
  8  9  2  0
  9 10  1  0
  9 11  1  0
 11 12  1  0
 12 13  1  0
 13 14  2  0
 13 15  1  0
 15 16  1  0
 16 17  1  0
 11 18  2  0
  5 19  1  0
 19 20  2  0
 19 21  1  0
 21  2  1  0
 18  6  1  0
M  END
>  <alias>  (704) 
None

>  <rmsd(smina/fragmenstein)>  (704) 
1.445

>  <smiles>  (704) 
O=C1CCN(c2ccc(F)c(NC(=O)CCCl)c2)C(=O)N1

>  <gnina_score>  (704) 
5.447

>  <inspiration_score>  (704) 
None

>  <energy_score>  (704) 
-28.194612

>  <distance_score>  (704) 
1.762249

>  <gnina_score_min>  (704) 
5.204

>  <inchikey>  (704) 
AJKAWAFIZSDSPD-UHFFFAOYSA-N

>  <exports>  (704) 
['/opt/xchem-fragalysis-2/maxwin/BulkDock/OUTPUTS/openbind_a71ev2a_c2_elabs_1LOUU54.sdf', '/opt/xchem-fragalysis-2/maxwin/BulkDock/OUTPUTS/openbind_a71ev2a_c2_elabs_1LSYIDY.sdf']

>  <name>  (704) 
P546290

>  <ref_pdb>  (704) 
A0884a

>  <subsites>  (704) 
None

>  <HIPPO Pose ID>  (704) 
546290

>  <ref_mols>  (704) 
A0884a

>  <HIPPO Compound ID>  (704) 
384909

>  <tags>  (704) 
openbind_a71ev2a_c2_elabs,syndirella_product,openbind_a71ev2a_c2_elabs_fragonly_scored_top80percent,openbind_a71ev2a_c2_elabs_scored,BulkDock Fragalysis export,openbind_a71ev2a_c2_elabs_scored_top80percent,openbind_a71ev2a_c2_elabs_activefrags_only_scored_5.2plus,syndirella_placed

>  <smina_score_min>  (704) 
-6.49

$$$$
P546291
     RDKit          3D

 21 22  0  0  0  0  0  0  0  0999 V2000
    7.8464   14.3940   23.7325 C   0  0  0  0  0  0  0  0  0  0  0  0
    8.1693   12.9372   23.9376 C   0  0  0  0  0  0  0  0  0  0  0  0
    7.3566   12.1775   24.8205 C   0  0  0  0  0  0  0  0  0  0  0  0
    6.3308   12.7894   25.5513 N   0  0  0  0  0  0  0  0  0  0  0  0
    5.3813   12.2068   26.6595 C   0  0  0  0  0  0  0  0  0  0  0  0
    5.2696   11.1111   27.0650 O   0  0  0  0  0  0  0  0  0  0  0  0
    4.4934   13.3869   27.1100 C   0  0  0  0  0  0  0  0  0  0  0  0
    3.1218   12.8197   28.0866 Cl  0  0  0  0  0  0  0  0  0  0  0  0
    5.4965   14.5238   28.0364 Cl  0  0  0  0  0  0  0  0  0  0  0  0
    7.5896   10.8160   24.9937 C   0  0  0  0  0  0  0  0  0  0  0  0
    8.6185   10.1928   24.3056 C   0  0  0  0  0  0  0  0  0  0  0  0
    9.4899   10.9365   23.5294 C   0  0  0  0  0  0  0  0  0  0  0  0
    9.3229   12.3177   23.3772 C   0  0  0  0  0  0  0  0  0  0  0  0
   10.4388   13.0339   22.8616 N   0  0  0  0  0  0  0  0  0  0  0  0
   10.4446   14.2381   22.2406 C   0  0  0  0  0  0  0  0  0  0  0  0
    9.7821   14.6080   21.2908 O   0  0  0  0  0  0  0  0  0  0  0  0
   11.4136   15.0344   22.7895 N   0  0  0  0  0  0  0  0  0  0  0  0
   12.1924   14.3112   23.7192 C   0  0  1  0  0  0  0  0  0  0  0  0
   11.8506   14.6133   25.1802 C   0  0  0  0  0  0  0  0  0  0  0  0
   11.6406   12.9449   23.5067 C   0  0  0  0  0  0  0  0  0  0  0  0
   12.1769   11.9934   24.0434 O   0  0  0  0  0  0  0  0  0  0  0  0
  1  2  1  0
  2  3  2  0
  3  4  1  0
  4  5  1  0
  5  6  2  0
  5  7  1  0
  7  8  1  0
  7  9  1  0
  3 10  1  0
 10 11  2  0
 11 12  1  0
 12 13  2  0
 13 14  1  0
 14 15  1  0
 15 16  2  0
 15 17  1  0
 17 18  1  0
 18 19  1  1
 18 20  1  0
 20 21  2  0
 13  2  1  0
 20 14  1  0
M  END
>  <alias>  (705) 
None

>  <rmsd(smina/fragmenstein)>  (705) 
0.703

>  <smiles>  (705) 
Cc1c(NC(=O)C(Cl)Cl)cccc1N1C(=O)N[C@@H](C)C1=O

>  <gnina_score>  (705) 
5.262

>  <inspiration_score>  (705) 
None

>  <energy_score>  (705) 
-9.419967

>  <distance_score>  (705) 
1.446011

>  <gnina_score_min>  (705) 
5.317

>  <inchikey>  (705) 
WJVPBANYSMAODQ-ZETCQYMHSA-N

>  <exports>  (705) 
['/opt/xchem-fragalysis-2/maxwin/BulkDock/OUTPUTS/openbind_a71ev2a_c2_elabs_1LOUU54.sdf', '/opt/xchem-fragalysis-2/maxwin/BulkDock/OUTPUTS/openbind_a71ev2a_c2_elabs_1LSYIDY.sdf']

>  <name>  (705) 
P546291

>  <ref_pdb>  (705) 
A0884a

>  <subsites>  (705) 
None

>  <HIPPO Pose ID>  (705) 
546291

>  <ref_mols>  (705) 
A0884a

>  <HIPPO Compound ID>  (705) 
384910

>  <tags>  (705) 
openbind_a71ev2a_c2_elabs,syndirella_product,openbind_a71ev2a_c2_elabs_fragonly_scored_top80percent,openbind_a71ev2a_c2_elabs_scored,BulkDock Fragalysis export,openbind_a71ev2a_c2_elabs_scored_top80percent,openbind_a71ev2a_c2_elabs_activefrags_only_scored_5.2plus,syndirella_placed

>  <smina_score_min>  (705) 
-5.024

$$$$
P546292
     RDKit          3D

 21 22  0  0  0  0  0  0  0  0999 V2000
    8.2868   14.5402   24.8782 C   0  0  0  0  0  0  0  0  0  0  0  0
    8.3830   13.0494   24.7482 C   0  0  0  0  0  0  0  0  0  0  0  0
    7.4740   12.2110   25.4326 C   0  0  0  0  0  0  0  0  0  0  0  0
    6.5698   12.7613   26.3470 N   0  0  0  0  0  0  0  0  0  0  0  0
    5.4217   12.0880   27.1706 C   0  0  0  0  0  0  0  0  0  0  0  0
    5.1141   10.9603   27.2631 O   0  0  0  0  0  0  0  0  0  0  0  0
    4.6966   13.2330   27.8974 C   0  0  0  0  0  0  0  0  0  0  0  0
    5.3141   14.4371   27.7057 F   0  0  0  0  0  0  0  0  0  0  0  0
    4.6546   13.0416   29.2439 F   0  0  0  0  0  0  0  0  0  0  0  0
    7.5081   10.8336   25.2216 C   0  0  0  0  0  0  0  0  0  0  0  0
    8.4344   10.2832   24.3405 C   0  0  0  0  0  0  0  0  0  0  0  0
    9.3491   11.0961   23.6969 C   0  0  0  0  0  0  0  0  0  0  0  0
   10.2392   10.5269   22.8788 F   0  0  0  0  0  0  0  0  0  0  0  0
    9.3770   12.4698   23.9278 C   0  0  0  0  0  0  0  0  0  0  0  0
   10.4657   13.1811   23.3852 N   0  0  0  0  0  0  0  0  0  0  0  0
   11.3931   13.8689   24.1150 C   0  0  0  0  0  0  0  0  0  0  0  0
   11.4902   13.9480   25.3334 O   0  0  0  0  0  0  0  0  0  0  0  0
   12.2952   14.6137   23.1510 C   0  0  0  0  0  0  0  0  0  0  0  0
   11.6412   14.3821   21.9198 N   0  0  0  0  0  0  0  0  0  0  0  0
   10.4542   13.7376   22.1443 C   0  0  0  0  0  0  0  0  0  0  0  0
    9.5157   13.8437   21.3783 O   0  0  0  0  0  0  0  0  0  0  0  0
  1  2  1  0
  2  3  2  0
  3  4  1  0
  4  5  1  0
  5  6  2  0
  5  7  1  0
  7  8  1  0
  7  9  1  0
  3 10  1  0
 10 11  2  0
 11 12  1  0
 12 13  1  0
 12 14  2  0
 14 15  1  0
 15 16  1  0
 16 17  2  0
 16 18  1  0
 18 19  1  0
 19 20  1  0
 20 21  2  0
 14  2  1  0
 20 15  1  0
M  END
>  <alias>  (706) 
None

>  <rmsd(smina/fragmenstein)>  (706) 
0.403

>  <smiles>  (706) 
Cc1c(NC(=O)C(F)F)ccc(F)c1N1C(=O)CNC1=O

>  <gnina_score>  (706) 
5.407

>  <inspiration_score>  (706) 
None

>  <energy_score>  (706) 
-22.561681

>  <distance_score>  (706) 
1.554333

>  <gnina_score_min>  (706) 
5.33

>  <inchikey>  (706) 
RUZKKKKVFODWQR-UHFFFAOYSA-N

>  <exports>  (706) 
['/opt/xchem-fragalysis-2/maxwin/BulkDock/OUTPUTS/openbind_a71ev2a_c2_elabs_1LOUU54.sdf', '/opt/xchem-fragalysis-2/maxwin/BulkDock/OUTPUTS/openbind_a71ev2a_c2_elabs_1LSYIDY.sdf']

>  <name>  (706) 
P546292

>  <ref_pdb>  (706) 
A0884a

>  <subsites>  (706) 
None

>  <HIPPO Pose ID>  (706) 
546292

>  <ref_mols>  (706) 
A0884a

>  <HIPPO Compound ID>  (706) 
384911

>  <tags>  (706) 
openbind_a71ev2a_c2_elabs,syndirella_product,openbind_a71ev2a_c2_elabs_fragonly_scored_top80percent,openbind_a71ev2a_c2_elabs_scored,BulkDock Fragalysis export,openbind_a71ev2a_c2_elabs_scored_top80percent,openbind_a71ev2a_c2_elabs_activefrags_only_scored_5.2plus,syndirella_placed

>  <smina_score_min>  (706) 
-6.397

$$$$
P546302
     RDKit          3D

 21 22  0  0  0  0  0  0  0  0999 V2000
    9.1781    9.5308   23.8524 C   0  0  0  0  0  0  0  0  0  0  0  0
    8.8648   10.9601   24.0906 C   0  0  0  0  0  0  0  0  0  0  0  0
    7.7637   11.3720   24.8493 C   0  0  0  0  0  0  0  0  0  0  0  0
    7.4400   12.7267   24.9278 C   0  0  0  0  0  0  0  0  0  0  0  0
    6.3358   13.1636   25.6524 N   0  0  0  0  0  0  0  0  0  0  0  0
    5.4680   12.4249   26.7254 C   0  0  0  0  0  0  0  0  0  0  0  0
    5.5074   11.3143   27.1010 O   0  0  0  0  0  0  0  0  0  0  0  0
    4.4666   13.4582   27.2621 C   0  0  0  0  0  0  0  0  0  0  0  0
    3.1732   13.0682   27.0877 F   0  0  0  0  0  0  0  0  0  0  0  0
    4.5901   14.6731   26.6520 F   0  0  0  0  0  0  0  0  0  0  0  0
    8.2185   13.6671   24.2525 C   0  0  0  0  0  0  0  0  0  0  0  0
    9.3560   13.2518   23.5625 C   0  0  0  0  0  0  0  0  0  0  0  0
   10.1723   14.1849   22.8797 N   0  0  0  0  0  0  0  0  0  0  0  0
    9.6515   14.5843   21.5717 C   0  0  0  0  0  0  0  0  0  0  0  0
   10.6193   15.3662   20.7304 C   0  0  0  0  0  0  0  0  0  0  0  0
   11.9793   14.7669   20.9055 C   0  0  0  0  0  0  0  0  0  0  0  0
   12.6850   14.3866   19.9776 O   0  0  0  0  0  0  0  0  0  0  0  0
   12.3635   14.6946   22.2124 N   0  0  0  0  0  0  0  0  0  0  0  0
   11.5357   14.1660   23.1578 C   0  0  0  0  0  0  0  0  0  0  0  0
   12.0121   13.6835   24.1869 O   0  0  0  0  0  0  0  0  0  0  0  0
    9.6693   11.9022   23.4707 C   0  0  0  0  0  0  0  0  0  0  0  0
  1  2  1  0
  2  3  2  0
  3  4  1  0
  4  5  1  0
  5  6  1  0
  6  7  2  0
  6  8  1  0
  8  9  1  0
  8 10  1  0
  4 11  2  0
 11 12  1  0
 12 13  1  0
 13 14  1  0
 14 15  1  0
 15 16  1  0
 16 17  2  0
 16 18  1  0
 18 19  1  0
 19 20  2  0
 12 21  2  0
 21  2  1  0
 19 13  1  0
M  END
>  <alias>  (707) 
None

>  <rmsd(smina/fragmenstein)>  (707) 
0.788

>  <smiles>  (707) 
Cc1cc(NC(=O)C(F)F)cc(N2CCC(=O)NC2=O)c1

>  <gnina_score>  (707) 
5.294

>  <inspiration_score>  (707) 
None

>  <energy_score>  (707) 
-13.220997

>  <distance_score>  (707) 
1.303604

>  <gnina_score_min>  (707) 
5.366

>  <inchikey>  (707) 
PGXZTDFJQAMMHC-UHFFFAOYSA-N

>  <exports>  (707) 
['/opt/xchem-fragalysis-2/maxwin/BulkDock/OUTPUTS/openbind_a71ev2a_c2_elabs_1LOUU54.sdf', '/opt/xchem-fragalysis-2/maxwin/BulkDock/OUTPUTS/openbind_a71ev2a_c2_elabs_1LSYIDY.sdf']

>  <name>  (707) 
P546302

>  <ref_pdb>  (707) 
A0884a

>  <subsites>  (707) 
None

>  <HIPPO Pose ID>  (707) 
546302

>  <ref_mols>  (707) 
A0884a

>  <HIPPO Compound ID>  (707) 
384926

>  <tags>  (707) 
openbind_a71ev2a_c2_elabs,syndirella_product,openbind_a71ev2a_c2_elabs_fragonly_scored_top80percent,openbind_a71ev2a_c2_elabs_scored,BulkDock Fragalysis export,openbind_a71ev2a_c2_elabs_scored_top80percent,openbind_a71ev2a_c2_elabs_activefrags_only_scored_5.2plus,syndirella_placed

>  <smina_score_min>  (707) 
-6.967

$$$$
P546304
     RDKit          3D

 21 22  0  0  0  0  0  0  0  0999 V2000
   12.9726   15.5235   21.5097 O   0  0  0  0  0  0  0  0  0  0  0  0
   12.1752   14.8510   22.1473 C   0  0  0  0  0  0  0  0  0  0  0  0
   12.5592   13.6891   22.9928 C   0  0  0  0  0  0  0  0  0  0  0  0
   11.4375   13.3192   23.9245 C   0  0  0  0  0  0  0  0  0  0  0  0
   10.2046   13.1377   23.1887 N   0  0  0  0  0  0  0  0  0  0  0  0
    9.1346   12.4855   23.8766 C   0  0  0  0  0  0  0  0  0  0  0  0
    8.1438   13.2695   24.4947 C   0  0  0  0  0  0  0  0  0  0  0  0
    7.1314   12.6783   25.2573 C   0  0  0  0  0  0  0  0  0  0  0  0
    6.1504   13.4844   25.8276 N   0  0  0  0  0  0  0  0  0  0  0  0
    5.0160   13.1356   26.8524 C   0  0  0  0  0  0  0  0  0  0  0  0
    4.6935   12.1023   27.3071 O   0  0  0  0  0  0  0  0  0  0  0  0
    4.3135   14.4619   27.1819 C   0  0  0  0  0  0  0  0  0  0  0  0
    3.0818   14.5456   26.6124 F   0  0  0  0  0  0  0  0  0  0  0  0
    5.0233   15.5383   26.7319 F   0  0  0  0  0  0  0  0  0  0  0  0
    7.1032   11.2967   25.4110 C   0  0  0  0  0  0  0  0  0  0  0  0
    8.0468   10.5087   24.7602 C   0  0  0  0  0  0  0  0  0  0  0  0
    9.0470   11.0921   23.9856 C   0  0  0  0  0  0  0  0  0  0  0  0
   10.0507   10.0110   23.1227 Cl  0  0  0  0  0  0  0  0  0  0  0  0
    9.9046   14.1188   22.2620 C   0  0  0  0  0  0  0  0  0  0  0  0
    8.8551   14.1805   21.6382 O   0  0  0  0  0  0  0  0  0  0  0  0
   10.8433   15.0758   22.0538 N   0  0  0  0  0  0  0  0  0  0  0  0
  1  2  2  0
  2  3  1  0
  3  4  1  0
  4  5  1  0
  5  6  1  0
  6  7  2  0
  7  8  1  0
  8  9  1  0
  9 10  1  0
 10 11  2  0
 10 12  1  0
 12 13  1  0
 12 14  1  0
  8 15  2  0
 15 16  1  0
 16 17  2  0
 17 18  1  0
  5 19  1  0
 19 20  2  0
 19 21  1  0
 21  2  1  0
 17  6  1  0
M  END
>  <alias>  (708) 
None

>  <rmsd(smina/fragmenstein)>  (708) 
0.928

>  <smiles>  (708) 
O=C1CCN(c2cc(NC(=O)C(F)F)ccc2Cl)C(=O)N1

>  <gnina_score>  (708) 
5.551

>  <inspiration_score>  (708) 
None

>  <energy_score>  (708) 
-61.449666

>  <distance_score>  (708) 
1.8819

>  <gnina_score_min>  (708) 
5.447

>  <inchikey>  (708) 
LEXIRLXPMLWWCA-UHFFFAOYSA-N

>  <exports>  (708) 
['/opt/xchem-fragalysis-2/maxwin/BulkDock/OUTPUTS/openbind_a71ev2a_c2_elabs_1LOUU54.sdf', '/opt/xchem-fragalysis-2/maxwin/BulkDock/OUTPUTS/openbind_a71ev2a_c2_elabs_1LSYIDY.sdf']

>  <name>  (708) 
P546304

>  <ref_pdb>  (708) 
A0884a

>  <subsites>  (708) 
None

>  <HIPPO Pose ID>  (708) 
546304

>  <ref_mols>  (708) 
A0884a

>  <HIPPO Compound ID>  (708) 
384931

>  <tags>  (708) 
openbind_a71ev2a_c2_elabs,syndirella_product,openbind_a71ev2a_c2_elabs_fragonly_scored_top80percent,openbind_a71ev2a_c2_elabs_scored,BulkDock Fragalysis export,openbind_a71ev2a_c2_elabs_scored_top80percent,openbind_a71ev2a_c2_elabs_activefrags_only_scored_5.2plus,syndirella_placed

>  <smina_score_min>  (708) 
-7.134

$$$$
P546305
     RDKit          3D

 21 22  0  0  0  0  0  0  0  0999 V2000
    8.0126   14.5242   24.4655 C   0  0  0  0  0  0  0  0  0  0  0  0
    8.3024   13.0515   24.3974 C   0  0  0  0  0  0  0  0  0  0  0  0
    7.4916   12.1351   25.1041 C   0  0  0  0  0  0  0  0  0  0  0  0
    6.4388   12.5891   25.9056 N   0  0  0  0  0  0  0  0  0  0  0  0
    5.5445   11.8230   26.9400 C   0  0  0  0  0  0  0  0  0  0  0  0
    5.5080   10.6829   27.2152 O   0  0  0  0  0  0  0  0  0  0  0  0
    4.6850   12.8868   27.6703 C   0  0  0  0  0  0  0  0  0  0  0  0
    3.3124   12.1144   28.5047 Cl  0  0  0  0  0  0  0  0  0  0  0  0
    4.0592   14.1154   26.5475 Cl  0  0  0  0  0  0  0  0  0  0  0  0
    7.7389   10.7661   25.0066 C   0  0  0  0  0  0  0  0  0  0  0  0
    8.7789   10.2922   24.2141 C   0  0  0  0  0  0  0  0  0  0  0  0
    9.6301   11.1827   23.5789 C   0  0  0  0  0  0  0  0  0  0  0  0
    9.4313   12.5610   23.6959 C   0  0  0  0  0  0  0  0  0  0  0  0
   10.4150   13.4102   23.1028 N   0  0  0  0  0  0  0  0  0  0  0  0
   10.1083   14.0739   21.9310 C   0  0  0  0  0  0  0  0  0  0  0  0
    9.0213   13.9896   21.3657 O   0  0  0  0  0  0  0  0  0  0  0  0
   11.1277   15.0087   21.3699 C   0  0  0  0  0  0  0  0  0  0  0  0
   12.4908   14.4817   21.6520 C   0  0  0  0  0  0  0  0  0  0  0  0
   12.6075   14.2086   23.0520 N   0  0  0  0  0  0  0  0  0  0  0  0
   11.6275   13.5720   23.7517 C   0  0  0  0  0  0  0  0  0  0  0  0
   11.8586   13.2389   24.9111 O   0  0  0  0  0  0  0  0  0  0  0  0
  1  2  1  0
  2  3  2  0
  3  4  1  0
  4  5  1  0
  5  6  2  0
  5  7  1  0
  7  8  1  0
  7  9  1  0
  3 10  1  0
 10 11  2  0
 11 12  1  0
 12 13  2  0
 13 14  1  0
 14 15  1  0
 15 16  2  0
 15 17  1  0
 17 18  1  0
 18 19  1  0
 19 20  1  0
 20 21  2  0
 13  2  1  0
 20 14  1  0
M  END
>  <alias>  (709) 
None

>  <rmsd(smina/fragmenstein)>  (709) 
0.523

>  <smiles>  (709) 
Cc1c(NC(=O)C(Cl)Cl)cccc1N1C(=O)CCNC1=O

>  <gnina_score>  (709) 
5.26

>  <inspiration_score>  (709) 
None

>  <energy_score>  (709) 
-28.769271

>  <distance_score>  (709) 
1.723344

>  <gnina_score_min>  (709) 
5.303

>  <inchikey>  (709) 
VIXMZYWRTBPUIR-UHFFFAOYSA-N

>  <exports>  (709) 
['/opt/xchem-fragalysis-2/maxwin/BulkDock/OUTPUTS/openbind_a71ev2a_c2_elabs_1LOUU54.sdf', '/opt/xchem-fragalysis-2/maxwin/BulkDock/OUTPUTS/openbind_a71ev2a_c2_elabs_1LSYIDY.sdf']

>  <name>  (709) 
P546305

>  <ref_pdb>  (709) 
A0884a

>  <subsites>  (709) 
None

>  <HIPPO Pose ID>  (709) 
546305

>  <ref_mols>  (709) 
A0884a

>  <HIPPO Compound ID>  (709) 
384938

>  <tags>  (709) 
openbind_a71ev2a_c2_elabs,syndirella_product,openbind_a71ev2a_c2_elabs_fragonly_scored_top80percent,openbind_a71ev2a_c2_elabs_scored,BulkDock Fragalysis export,openbind_a71ev2a_c2_elabs_scored_top80percent,openbind_a71ev2a_c2_elabs_activefrags_only_scored_5.2plus,syndirella_placed

>  <smina_score_min>  (709) 
-7.143

$$$$
P546310
     RDKit          3D

 21 22  0  0  0  0  0  0  0  0999 V2000
   11.9097   14.7069   19.3448 O   0  0  0  0  0  0  0  0  0  0  0  0
   11.4449   15.0033   20.4403 C   0  0  0  0  0  0  0  0  0  0  0  0
   10.0866   15.6023   20.6292 C   0  0  0  0  0  0  0  0  0  0  0  0
    9.3376   14.7356   21.6059 C   0  0  0  0  0  0  0  0  0  0  0  0
   10.1414   14.2607   22.7403 N   0  0  0  0  0  0  0  0  0  0  0  0
    9.5138   13.2223   23.4786 C   0  0  0  0  0  0  0  0  0  0  0  0
    9.8850   11.9150   23.2161 C   0  0  0  0  0  0  0  0  0  0  0  0
    9.2155   10.8688   23.8164 C   0  0  0  0  0  0  0  0  0  0  0  0
    9.8130    9.1734   23.3263 Br  0  0  0  0  0  0  0  0  0  0  0  0
    8.1878   11.0989   24.7252 C   0  0  0  0  0  0  0  0  0  0  0  0
    7.8517   12.4199   25.0350 C   0  0  0  0  0  0  0  0  0  0  0  0
    6.9290   12.6702   26.0466 N   0  0  0  0  0  0  0  0  0  0  0  0
    6.5982   13.9964   26.8173 C   0  0  0  0  0  0  0  0  0  0  0  0
    7.0002   15.0879   26.6590 O   0  0  0  0  0  0  0  0  0  0  0  0
    5.6549   13.6511   27.9806 C   0  0  0  0  0  0  0  0  0  0  0  0
    4.2251   12.7762   27.4012 Cl  0  0  0  0  0  0  0  0  0  0  0  0
    6.5454   12.6460   29.1519 Cl  0  0  0  0  0  0  0  0  0  0  0  0
    8.4836   13.4810   24.3773 C   0  0  0  0  0  0  0  0  0  0  0  0
   11.5342   14.2500   22.6842 C   0  0  0  0  0  0  0  0  0  0  0  0
   12.2500   13.7119   23.5266 O   0  0  0  0  0  0  0  0  0  0  0  0
   12.1199   14.8500   21.6174 N   0  0  0  0  0  0  0  0  0  0  0  0
  1  2  2  0
  2  3  1  0
  3  4  1  0
  4  5  1  0
  5  6  1  0
  6  7  2  0
  7  8  1  0
  8  9  1  0
  8 10  2  0
 10 11  1  0
 11 12  1  0
 12 13  1  0
 13 14  2  0
 13 15  1  0
 15 16  1  0
 15 17  1  0
 11 18  2  0
  5 19  1  0
 19 20  2  0
 19 21  1  0
 21  2  1  0
 18  6  1  0
M  END
>  <alias>  (710) 
None

>  <rmsd(smina/fragmenstein)>  (710) 
0.853

>  <smiles>  (710) 
O=C1CCN(c2cc(Br)cc(NC(=O)C(Cl)Cl)c2)C(=O)N1

>  <gnina_score>  (710) 
5.699

>  <inspiration_score>  (710) 
None

>  <energy_score>  (710) 
-20.767978

>  <distance_score>  (710) 
1.666856

>  <gnina_score_min>  (710) 
5.875

>  <inchikey>  (710) 
ZRDHQSLNMHYQKR-UHFFFAOYSA-N

>  <exports>  (710) 
['/opt/xchem-fragalysis-2/maxwin/BulkDock/OUTPUTS/openbind_a71ev2a_c2_elabs_1LOUU54.sdf', '/opt/xchem-fragalysis-2/maxwin/BulkDock/OUTPUTS/openbind_a71ev2a_c2_elabs_1LSYIDY.sdf']

>  <name>  (710) 
P546310

>  <ref_pdb>  (710) 
A0884a

>  <subsites>  (710) 
None

>  <HIPPO Pose ID>  (710) 
546310

>  <ref_mols>  (710) 
A0884a

>  <HIPPO Compound ID>  (710) 
384947

>  <tags>  (710) 
openbind_a71ev2a_c2_elabs,syndirella_product,openbind_a71ev2a_c2_elabs_fragonly_scored_top80percent,BulkDock Fragalysis export,openbind_a71ev2a_c2_elabs_scored,openbind_a71ev2a_c2_elabs_scored_top80percent,openbind_a71ev2a_c2_elabs_activefrags_only_scored_5.2plus,openbind_a71ev2a_c2_elabs_activefrags_only_scored_5.5plus,syndirella_placed

>  <smina_score_min>  (710) 
-6.918

$$$$
P546312
     RDKit          3D

 21 22  0  0  0  0  0  0  0  0999 V2000
    3.8134   12.3374   28.3858 C   0  0  0  0  0  0  0  0  0  0  0  0
    4.6829   12.7690   27.4582 C   0  0  0  0  0  0  0  0  0  0  0  0
    4.6379   14.5457   26.8768 Br  0  0  0  0  0  0  0  0  0  0  0  0
    5.6909   11.7723   26.9018 C   0  0  0  0  0  0  0  0  0  0  0  0
    5.6755   10.6521   27.2355 O   0  0  0  0  0  0  0  0  0  0  0  0
    6.6555   12.5232   25.9491 N   0  0  0  0  0  0  0  0  0  0  0  0
    7.7070   12.0471   25.1629 C   0  0  0  0  0  0  0  0  0  0  0  0
    7.8313   10.6811   24.9299 C   0  0  0  0  0  0  0  0  0  0  0  0
    8.8219   10.2041   24.0775 C   0  0  0  0  0  0  0  0  0  0  0  0
    9.7194   11.0771   23.4816 C   0  0  0  0  0  0  0  0  0  0  0  0
    9.6618   12.4433   23.7553 C   0  0  0  0  0  0  0  0  0  0  0  0
   10.6441   13.2867   23.1472 N   0  0  0  0  0  0  0  0  0  0  0  0
   10.2672   14.0399   22.0510 C   0  0  0  0  0  0  0  0  0  0  0  0
    9.1078   14.1194   21.6525 O   0  0  0  0  0  0  0  0  0  0  0  0
   11.3381   14.7394   21.2732 C   0  0  0  0  0  0  0  0  0  0  0  0
   12.4417   15.1655   22.1696 C   0  0  0  0  0  0  0  0  0  0  0  0
   12.8309   14.0847   23.0098 N   0  0  0  0  0  0  0  0  0  0  0  0
   11.9315   13.2972   23.6492 C   0  0  0  0  0  0  0  0  0  0  0  0
   12.3270   12.6979   24.6439 O   0  0  0  0  0  0  0  0  0  0  0  0
    8.6383   12.9425   24.5968 C   0  0  0  0  0  0  0  0  0  0  0  0
    8.5786   14.4053   24.9153 C   0  0  0  0  0  0  0  0  0  0  0  0
  1  2  2  0
  2  3  1  0
  2  4  1  0
  4  5  2  0
  4  6  1  0
  6  7  1  0
  7  8  2  0
  8  9  1  0
  9 10  2  0
 10 11  1  0
 11 12  1  0
 12 13  1  0
 13 14  2  0
 13 15  1  0
 15 16  1  0
 16 17  1  0
 17 18  1  0
 18 19  2  0
 11 20  2  0
 20 21  1  0
 20  7  1  0
 18 12  1  0
M  END
>  <alias>  (711) 
None

>  <rmsd(smina/fragmenstein)>  (711) 
0.432

>  <smiles>  (711) 
C=C(Br)C(=O)Nc1cccc(N2C(=O)CCNC2=O)c1C

>  <gnina_score>  (711) 
5.277

>  <inspiration_score>  (711) 
None

>  <energy_score>  (711) 
-36.034634

>  <distance_score>  (711) 
1.656057

>  <gnina_score_min>  (711) 
5.279

>  <inchikey>  (711) 
YHXXGMKOEWLMNR-UHFFFAOYSA-N

>  <exports>  (711) 
['/opt/xchem-fragalysis-2/maxwin/BulkDock/OUTPUTS/openbind_a71ev2a_c2_elabs_1LOUU54.sdf', '/opt/xchem-fragalysis-2/maxwin/BulkDock/OUTPUTS/openbind_a71ev2a_c2_elabs_1LSYIDY.sdf']

>  <name>  (711) 
P546312

>  <ref_pdb>  (711) 
A0884a

>  <subsites>  (711) 
None

>  <HIPPO Pose ID>  (711) 
546312

>  <ref_mols>  (711) 
A0884a

>  <HIPPO Compound ID>  (711) 
384950

>  <tags>  (711) 
openbind_a71ev2a_c2_elabs,syndirella_product,openbind_a71ev2a_c2_elabs_fragonly_scored_top80percent,openbind_a71ev2a_c2_elabs_scored,BulkDock Fragalysis export,openbind_a71ev2a_c2_elabs_scored_top80percent,openbind_a71ev2a_c2_elabs_activefrags_only_scored_5.2plus,syndirella_placed

>  <smina_score_min>  (711) 
-6.604

$$$$
P546315
     RDKit          3D

 21 22  0  0  0  0  0  0  0  0999 V2000
    1.8054   12.8336   27.8627 C   0  0  0  0  0  0  0  0  0  0  0  0
    3.0406   13.1218   27.4250 C   0  0  0  0  0  0  0  0  0  0  0  0
    4.3690   12.8461   28.0844 C   0  0  1  0  0  0  0  0  0  0  0  0
    4.2410   12.3218   29.7876 Cl  0  0  0  0  0  0  0  0  0  0  0  0
    5.1495   11.7558   27.2922 C   0  0  0  0  0  0  0  0  0  0  0  0
    5.0026   10.6055   27.4604 O   0  0  0  0  0  0  0  0  0  0  0  0
    6.0904   12.5231   26.3058 N   0  0  0  0  0  0  0  0  0  0  0  0
    7.0654   12.0482   25.4345 C   0  0  0  0  0  0  0  0  0  0  0  0
    7.3212   10.7044   25.2113 C   0  0  0  0  0  0  0  0  0  0  0  0
    8.3740   10.3287   24.3637 C   0  0  0  0  0  0  0  0  0  0  0  0
    9.2393   11.2811   23.8252 C   0  0  0  0  0  0  0  0  0  0  0  0
    9.0570   12.6211   24.1658 C   0  0  0  0  0  0  0  0  0  0  0  0
   10.1410   13.5168   24.1402 N   0  0  0  0  0  0  0  0  0  0  0  0
   10.4403   14.2906   25.2399 C   0  0  0  0  0  0  0  0  0  0  0  0
    9.7508   14.6565   26.1853 O   0  0  0  0  0  0  0  0  0  0  0  0
   11.8892   14.6408   25.1854 C   0  0  0  0  0  0  0  0  0  0  0  0
   12.2299   14.2232   23.8755 N   0  0  0  0  0  0  0  0  0  0  0  0
   11.2283   13.4802   23.3193 C   0  0  0  0  0  0  0  0  0  0  0  0
   11.3896   12.9121   22.2619 O   0  0  0  0  0  0  0  0  0  0  0  0
    7.8928   12.9938   24.8440 C   0  0  0  0  0  0  0  0  0  0  0  0
    7.6036   14.2938   25.0302 F   0  0  0  0  0  0  0  0  0  0  0  0
  1  2  2  0
  2  3  1  0
  3  4  1  1
  3  5  1  0
  5  6  2  0
  5  7  1  0
  7  8  1  0
  8  9  2  0
  9 10  1  0
 10 11  2  0
 11 12  1  0
 12 13  1  0
 13 14  1  0
 14 15  2  0
 14 16  1  0
 16 17  1  0
 17 18  1  0
 18 19  2  0
 12 20  2  0
 20 21  1  0
 20  8  1  0
 18 13  1  0
M  END
>  <alias>  (712) 
None

>  <rmsd(smina/fragmenstein)>  (712) 
1.881

>  <smiles>  (712) 
C=C[C@@H](Cl)C(=O)Nc1cccc(N2C(=O)CNC2=O)c1F

>  <gnina_score>  (712) 
5.055

>  <inspiration_score>  (712) 
None

>  <energy_score>  (712) 
-32.703853

>  <distance_score>  (712) 
1.388666

>  <gnina_score_min>  (712) 
5.36

>  <inchikey>  (712) 
VFCKFRFVYIIZIT-SSDOTTSWSA-N

>  <exports>  (712) 
['/opt/xchem-fragalysis-2/maxwin/BulkDock/OUTPUTS/openbind_a71ev2a_c2_elabs_1LOUU54.sdf', '/opt/xchem-fragalysis-2/maxwin/BulkDock/OUTPUTS/openbind_a71ev2a_c2_elabs_1LSYIDY.sdf']

>  <name>  (712) 
P546315

>  <ref_pdb>  (712) 
A0884a

>  <subsites>  (712) 
None

>  <HIPPO Pose ID>  (712) 
546315

>  <ref_mols>  (712) 
A0884a

>  <HIPPO Compound ID>  (712) 
384954

>  <tags>  (712) 
openbind_a71ev2a_c2_elabs,syndirella_product,openbind_a71ev2a_c2_elabs_fragonly_scored_top80percent,openbind_a71ev2a_c2_elabs_scored,BulkDock Fragalysis export,openbind_a71ev2a_c2_elabs_scored_top80percent,openbind_a71ev2a_c2_elabs_activefrags_only_scored_5.2plus,syndirella_placed

>  <smina_score_min>  (712) 
-6.8

$$$$
P546317
     RDKit          3D

 21 22  0  0  0  0  0  0  0  0999 V2000
    2.3758   13.0030   27.8318 C   0  0  0  0  0  0  0  0  0  0  0  0
    3.6326   13.1598   27.3906 C   0  0  0  0  0  0  0  0  0  0  0  0
    4.8565   12.6461   28.0969 C   0  0  2  0  0  0  0  0  0  0  0  0
    5.8532   14.0250   28.6403 Cl  0  0  0  0  0  0  0  0  0  0  0  0
    5.6715   11.6916   27.1872 C   0  0  0  0  0  0  0  0  0  0  0  0
    5.5428   10.5276   27.2446 O   0  0  0  0  0  0  0  0  0  0  0  0
    6.5400   12.5677   26.2278 N   0  0  0  0  0  0  0  0  0  0  0  0
    7.4643   12.1956   25.2444 C   0  0  0  0  0  0  0  0  0  0  0  0
    7.7505   10.8473   25.0207 C   0  0  0  0  0  0  0  0  0  0  0  0
    8.7652   10.4752   24.1406 C   0  0  0  0  0  0  0  0  0  0  0  0
    9.5179   11.4514   23.4995 C   0  0  0  0  0  0  0  0  0  0  0  0
    9.2308   12.8088   23.6908 C   0  0  0  0  0  0  0  0  0  0  0  0
   10.0880   13.7757   23.0801 N   0  0  0  0  0  0  0  0  0  0  0  0
    9.6952   14.2506   21.7540 C   0  0  0  0  0  0  0  0  0  0  0  0
   10.6558   15.2319   21.1158 C   0  0  0  0  0  0  0  0  0  0  0  0
   12.0656   14.7436   21.3283 C   0  0  0  0  0  0  0  0  0  0  0  0
   12.3007   14.4487   22.7103 N   0  0  0  0  0  0  0  0  0  0  0  0
   11.3978   13.8473   23.5315 C   0  0  0  0  0  0  0  0  0  0  0  0
   11.7740   13.4395   24.6293 O   0  0  0  0  0  0  0  0  0  0  0  0
    8.1595   13.1950   24.5255 C   0  0  0  0  0  0  0  0  0  0  0  0
    7.8295   14.6508   24.7164 C   0  0  0  0  0  0  0  0  0  0  0  0
  1  2  2  0
  2  3  1  0
  3  4  1  6
  3  5  1  0
  5  6  2  0
  5  7  1  0
  7  8  1  0
  8  9  2  0
  9 10  1  0
 10 11  2  0
 11 12  1  0
 12 13  1  0
 13 14  1  0
 14 15  1  0
 15 16  1  0
 16 17  1  0
 17 18  1  0
 18 19  2  0
 12 20  2  0
 20 21  1  0
 20  8  1  0
 18 13  1  0
M  END
>  <alias>  (713) 
None

>  <rmsd(smina/fragmenstein)>  (713) 
0.397

>  <smiles>  (713) 
C=C[C@H](Cl)C(=O)Nc1cccc(N2CCCNC2=O)c1C

>  <gnina_score>  (713) 
5.121

>  <inspiration_score>  (713) 
None

>  <energy_score>  (713) 
-20.840816

>  <distance_score>  (713) 
1.147487

>  <gnina_score_min>  (713) 
5.265

>  <inchikey>  (713) 
AQWQNZIVTKFREG-NSHDSACASA-N

>  <exports>  (713) 
['/opt/xchem-fragalysis-2/maxwin/BulkDock/OUTPUTS/openbind_a71ev2a_c2_elabs_1LOUU54.sdf', '/opt/xchem-fragalysis-2/maxwin/BulkDock/OUTPUTS/openbind_a71ev2a_c2_elabs_1LSYIDY.sdf']

>  <name>  (713) 
P546317

>  <ref_pdb>  (713) 
A0884a

>  <subsites>  (713) 
None

>  <HIPPO Pose ID>  (713) 
546317

>  <ref_mols>  (713) 
A0884a

>  <HIPPO Compound ID>  (713) 
384955

>  <tags>  (713) 
openbind_a71ev2a_c2_elabs,syndirella_product,openbind_a71ev2a_c2_elabs_fragonly_scored_top80percent,openbind_a71ev2a_c2_elabs_scored,BulkDock Fragalysis export,openbind_a71ev2a_c2_elabs_scored_top80percent,openbind_a71ev2a_c2_elabs_activefrags_only_scored_5.2plus,syndirella_placed

>  <smina_score_min>  (713) 
-6.679

$$$$
P546319
     RDKit          3D

 21 22  0  0  0  0  0  0  0  0999 V2000
    2.1230   13.3070   27.6149 C   0  0  0  0  0  0  0  0  0  0  0  0
    3.3533   13.4802   27.1083 C   0  0  0  0  0  0  0  0  0  0  0  0
    4.6925   13.2537   27.7651 C   0  0  1  0  0  0  0  0  0  0  0  0
    4.6007   12.8566   29.5034 Cl  0  0  0  0  0  0  0  0  0  0  0  0
    5.4416   12.0960   27.0457 C   0  0  0  0  0  0  0  0  0  0  0  0
    5.1902   10.9627   27.2175 O   0  0  0  0  0  0  0  0  0  0  0  0
    6.4859   12.7712   26.0890 N   0  0  0  0  0  0  0  0  0  0  0  0
    7.4554   12.2018   25.2571 C   0  0  0  0  0  0  0  0  0  0  0  0
    7.5541   10.8183   25.1385 C   0  0  0  0  0  0  0  0  0  0  0  0
    8.5300   10.2505   24.3227 C   0  0  0  0  0  0  0  0  0  0  0  0
    9.4538   11.0492   23.6664 C   0  0  0  0  0  0  0  0  0  0  0  0
    9.4069   12.4351   23.8189 C   0  0  0  0  0  0  0  0  0  0  0  0
   10.5033   13.1498   23.2994 N   0  0  0  0  0  0  0  0  0  0  0  0
   11.3939   13.8425   24.0726 C   0  0  0  0  0  0  0  0  0  0  0  0
   11.4464   13.9137   25.2942 O   0  0  0  0  0  0  0  0  0  0  0  0
   12.3115   14.6180   23.1512 C   0  0  0  0  0  0  0  0  0  0  0  0
   11.6879   14.4183   21.8988 N   0  0  0  0  0  0  0  0  0  0  0  0
   10.4992   13.7625   22.0845 C   0  0  0  0  0  0  0  0  0  0  0  0
    9.5749   13.8966   21.3055 O   0  0  0  0  0  0  0  0  0  0  0  0
    8.3542   13.0290   24.5513 C   0  0  0  0  0  0  0  0  0  0  0  0
    8.2002   14.5202   24.5850 C   0  0  0  0  0  0  0  0  0  0  0  0
  1  2  2  0
  2  3  1  0
  3  4  1  1
  3  5  1  0
  5  6  2  0
  5  7  1  0
  7  8  1  0
  8  9  2  0
  9 10  1  0
 10 11  2  0
 11 12  1  0
 12 13  1  0
 13 14  1  0
 14 15  2  0
 14 16  1  0
 16 17  1  0
 17 18  1  0
 18 19  2  0
 12 20  2  0
 20 21  1  0
 20  8  1  0
 18 13  1  0
M  END
>  <alias>  (714) 
None

>  <rmsd(smina/fragmenstein)>  (714) 
0.909

>  <smiles>  (714) 
C=C[C@@H](Cl)C(=O)Nc1cccc(N2C(=O)CNC2=O)c1C

>  <gnina_score>  (714) 
5.258

>  <inspiration_score>  (714) 
None

>  <energy_score>  (714) 
-26.315012

>  <distance_score>  (714) 
1.531132

>  <gnina_score_min>  (714) 
5.415

>  <inchikey>  (714) 
HKRVYXLGRUZKLF-SECBINFHSA-N

>  <exports>  (714) 
['/opt/xchem-fragalysis-2/maxwin/BulkDock/OUTPUTS/openbind_a71ev2a_c2_elabs_1LOUU54.sdf', '/opt/xchem-fragalysis-2/maxwin/BulkDock/OUTPUTS/openbind_a71ev2a_c2_elabs_1LSYIDY.sdf']

>  <name>  (714) 
P546319

>  <ref_pdb>  (714) 
A0884a

>  <subsites>  (714) 
None

>  <HIPPO Pose ID>  (714) 
546319

>  <ref_mols>  (714) 
A0884a

>  <HIPPO Compound ID>  (714) 
384956

>  <tags>  (714) 
openbind_a71ev2a_c2_elabs,syndirella_product,openbind_a71ev2a_c2_elabs_fragonly_scored_top80percent,openbind_a71ev2a_c2_elabs_scored,BulkDock Fragalysis export,openbind_a71ev2a_c2_elabs_scored_top80percent,openbind_a71ev2a_c2_elabs_activefrags_only_scored_5.2plus,syndirella_placed

>  <smina_score_min>  (714) 
-6.454

$$$$
P546321
     RDKit          3D

 21 22  0  0  0  0  0  0  0  0999 V2000
    5.7781   15.1796   28.0943 C   0  0  0  0  0  0  0  0  0  0  0  0
    4.7370   15.1162   27.2511 C   0  0  0  0  0  0  0  0  0  0  0  0
    4.2025   13.8937   26.5477 C   0  0  2  0  0  0  0  0  0  0  0  0
    2.7269   13.3567   27.4124 Cl  0  0  0  0  0  0  0  0  0  0  0  0
    5.2127   12.7142   26.4129 C   0  0  0  0  0  0  0  0  0  0  0  0
    5.1140   11.6893   26.9748 O   0  0  0  0  0  0  0  0  0  0  0  0
    6.2972   13.2143   25.3952 N   0  0  0  0  0  0  0  0  0  0  0  0
    7.3723   12.5457   24.8220 C   0  0  0  0  0  0  0  0  0  0  0  0
    7.5983   11.1854   25.0130 C   0  0  0  0  0  0  0  0  0  0  0  0
    8.6744   10.5679   24.3721 C   0  0  0  0  0  0  0  0  0  0  0  0
    9.5687   11.3194   23.6091 C   0  0  0  0  0  0  0  0  0  0  0  0
    9.3587   12.6879   23.4341 C   0  0  0  0  0  0  0  0  0  0  0  0
   10.2702   13.4754   22.6698 N   0  0  0  0  0  0  0  0  0  0  0  0
    9.7581   14.2288   21.6081 C   0  0  0  0  0  0  0  0  0  0  0  0
    8.5733   14.2091   21.2546 O   0  0  0  0  0  0  0  0  0  0  0  0
   10.7171   15.1512   20.8993 C   0  0  0  0  0  0  0  0  0  0  0  0
   12.1379   14.7004   21.0911 C   0  0  0  0  0  0  0  0  0  0  0  0
   12.3849   14.4558   22.4752 N   0  0  0  0  0  0  0  0  0  0  0  0
   11.5503   13.6523   23.1857 C   0  0  0  0  0  0  0  0  0  0  0  0
   11.9660   13.2233   24.2572 O   0  0  0  0  0  0  0  0  0  0  0  0
    8.2346   13.2864   24.0137 C   0  0  0  0  0  0  0  0  0  0  0  0
  1  2  2  0
  2  3  1  0
  3  4  1  1
  3  5  1  0
  5  6  2  0
  5  7  1  0
  7  8  1  0
  8  9  2  0
  9 10  1  0
 10 11  2  0
 11 12  1  0
 12 13  1  0
 13 14  1  0
 14 15  2  0
 14 16  1  0
 16 17  1  0
 17 18  1  0
 18 19  1  0
 19 20  2  0
 12 21  2  0
 21  8  1  0
 19 13  1  0
M  END
>  <alias>  (715) 
None

>  <rmsd(smina/fragmenstein)>  (715) 
0.471

>  <smiles>  (715) 
C=C[C@H](Cl)C(=O)Nc1cccc(N2C(=O)CCNC2=O)c1

>  <gnina_score>  (715) 
5.106

>  <inspiration_score>  (715) 
None

>  <energy_score>  (715) 
-30.876191

>  <distance_score>  (715) 
1.46453

>  <gnina_score_min>  (715) 
5.209

>  <inchikey>  (715) 
IXPDCFKLJYEHOV-NSHDSACASA-N

>  <exports>  (715) 
['/opt/xchem-fragalysis-2/maxwin/BulkDock/OUTPUTS/openbind_a71ev2a_c2_elabs_1LOUU54.sdf', '/opt/xchem-fragalysis-2/maxwin/BulkDock/OUTPUTS/openbind_a71ev2a_c2_elabs_1LSYIDY.sdf']

>  <name>  (715) 
P546321

>  <ref_pdb>  (715) 
A0884a

>  <subsites>  (715) 
None

>  <HIPPO Pose ID>  (715) 
546321

>  <ref_mols>  (715) 
A0884a

>  <HIPPO Compound ID>  (715) 
384957

>  <tags>  (715) 
openbind_a71ev2a_c2_elabs,syndirella_product,openbind_a71ev2a_c2_elabs_fragonly_scored_top80percent,openbind_a71ev2a_c2_elabs_scored,BulkDock Fragalysis export,openbind_a71ev2a_c2_elabs_scored_top80percent,openbind_a71ev2a_c2_elabs_activefrags_only_scored_5.2plus,syndirella_placed

>  <smina_score_min>  (715) 
-6.922

$$$$
P546323
     RDKit          3D

 21 22  0  0  0  0  0  0  0  0999 V2000
    2.9467   13.9184   28.3755 C   0  0  0  0  0  0  0  0  0  0  0  0
    3.9000   13.2256   27.7361 C   0  0  0  0  0  0  0  0  0  0  0  0
    5.0960   12.6080   28.4046 C   0  0  1  0  0  0  0  0  0  0  0  0
    4.8930   10.8311   28.4717 Cl  0  0  0  0  0  0  0  0  0  0  0  0
    6.3982   12.9801   27.6531 C   0  0  0  0  0  0  0  0  0  0  0  0
    7.0796   13.8711   27.9971 O   0  0  0  0  0  0  0  0  0  0  0  0
    6.5030   12.0489   26.3975 N   0  0  0  0  0  0  0  0  0  0  0  0
    7.4827   11.9713   25.4068 C   0  0  0  0  0  0  0  0  0  0  0  0
    7.7161   10.6876   24.8996 C   0  0  0  0  0  0  0  0  0  0  0  0
    8.7138   10.4630   23.9582 C   0  0  0  0  0  0  0  0  0  0  0  0
    9.4849   11.5266   23.5242 C   0  0  0  0  0  0  0  0  0  0  0  0
   10.4882   11.2708   22.6846 F   0  0  0  0  0  0  0  0  0  0  0  0
    9.2846   12.8194   24.0187 C   0  0  0  0  0  0  0  0  0  0  0  0
   10.2666   13.8321   23.8166 N   0  0  0  0  0  0  0  0  0  0  0  0
   11.3629   13.8246   24.7628 C   0  0  0  0  0  0  0  0  0  0  0  0
   12.5606   13.5047   23.9169 C   0  0  0  0  0  0  0  0  0  0  0  0
   12.2226   14.1592   22.7030 N   0  0  0  0  0  0  0  0  0  0  0  0
   10.8433   14.0666   22.5463 C   0  0  0  0  0  0  0  0  0  0  0  0
   10.2746   14.1753   21.4792 O   0  0  0  0  0  0  0  0  0  0  0  0
    8.2335   13.0625   24.9325 C   0  0  0  0  0  0  0  0  0  0  0  0
    7.9185   14.4858   25.3083 C   0  0  0  0  0  0  0  0  0  0  0  0
  1  2  2  0
  2  3  1  0
  3  4  1  6
  3  5  1  0
  5  6  2  0
  5  7  1  0
  7  8  1  0
  8  9  2  0
  9 10  1  0
 10 11  2  0
 11 12  1  0
 11 13  1  0
 13 14  1  0
 14 15  1  0
 15 16  1  0
 16 17  1  0
 17 18  1  0
 18 19  2  0
 13 20  2  0
 20 21  1  0
 20  8  1  0
 18 14  1  0
M  END
>  <alias>  (716) 
None

>  <rmsd(smina/fragmenstein)>  (716) 
0.752

>  <smiles>  (716) 
C=C[C@@H](Cl)C(=O)Nc1ccc(F)c(N2CCNC2=O)c1C

>  <gnina_score>  (716) 
5.396

>  <inspiration_score>  (716) 
None

>  <energy_score>  (716) 
-23.374848

>  <distance_score>  (716) 
1.449997

>  <gnina_score_min>  (716) 
5.429

>  <inchikey>  (716) 
SYAKVPMOQUDDKP-SECBINFHSA-N

>  <exports>  (716) 
['/opt/xchem-fragalysis-2/maxwin/BulkDock/OUTPUTS/openbind_a71ev2a_c2_elabs_1LOUU54.sdf', '/opt/xchem-fragalysis-2/maxwin/BulkDock/OUTPUTS/openbind_a71ev2a_c2_elabs_1LSYIDY.sdf']

>  <name>  (716) 
P546323

>  <ref_pdb>  (716) 
A0884a

>  <subsites>  (716) 
None

>  <HIPPO Pose ID>  (716) 
546323

>  <ref_mols>  (716) 
A0884a

>  <HIPPO Compound ID>  (716) 
384960

>  <tags>  (716) 
openbind_a71ev2a_c2_elabs,syndirella_product,openbind_a71ev2a_c2_elabs_fragonly_scored_top80percent,openbind_a71ev2a_c2_elabs_scored,BulkDock Fragalysis export,openbind_a71ev2a_c2_elabs_scored_top80percent,openbind_a71ev2a_c2_elabs_activefrags_only_scored_5.2plus,syndirella_placed

>  <smina_score_min>  (716) 
-5.997

$$$$
P546325
     RDKit          3D

 21 22  0  0  0  0  0  0  0  0999 V2000
    5.8205   14.8064   28.6800 C   0  0  0  0  0  0  0  0  0  0  0  0
    4.7427   14.9272   27.8910 C   0  0  0  0  0  0  0  0  0  0  0  0
    4.1978   13.9179   26.9140 C   0  0  2  0  0  0  0  0  0  0  0  0
    2.6315   13.3127   27.5437 Cl  0  0  0  0  0  0  0  0  0  0  0  0
    5.1385   12.7133   26.6101 C   0  0  0  0  0  0  0  0  0  0  0  0
    4.9834   11.6328   27.0402 O   0  0  0  0  0  0  0  0  0  0  0  0
    6.2500   13.2773   25.6563 N   0  0  0  0  0  0  0  0  0  0  0  0
    7.2885   12.6276   24.9974 C   0  0  0  0  0  0  0  0  0  0  0  0
    7.4794   11.2483   25.1048 C   0  0  0  0  0  0  0  0  0  0  0  0
    8.5334   10.6409   24.4243 C   0  0  0  0  0  0  0  0  0  0  0  0
    9.4203   11.4213   23.6931 C   0  0  0  0  0  0  0  0  0  0  0  0
   10.4102   10.8092   23.0389 F   0  0  0  0  0  0  0  0  0  0  0  0
    9.2522   12.8047   23.5899 C   0  0  0  0  0  0  0  0  0  0  0  0
   10.1978   13.6055   22.8941 N   0  0  0  0  0  0  0  0  0  0  0  0
    9.7274   14.3827   21.7487 C   0  0  0  0  0  0  0  0  0  0  0  0
   10.7818   15.2129   21.0385 C   0  0  0  0  0  0  0  0  0  0  0  0
   12.1595   14.6456   21.2566 C   0  0  0  0  0  0  0  0  0  0  0  0
   12.3750   14.3945   22.6492 N   0  0  0  0  0  0  0  0  0  0  0  0
   11.4724   13.7269   23.4195 C   0  0  0  0  0  0  0  0  0  0  0  0
   11.8087   13.3221   24.5306 O   0  0  0  0  0  0  0  0  0  0  0  0
    8.1579   13.3999   24.2200 C   0  0  0  0  0  0  0  0  0  0  0  0
  1  2  2  0
  2  3  1  0
  3  4  1  1
  3  5  1  0
  5  6  2  0
  5  7  1  0
  7  8  1  0
  8  9  2  0
  9 10  1  0
 10 11  2  0
 11 12  1  0
 11 13  1  0
 13 14  1  0
 14 15  1  0
 15 16  1  0
 16 17  1  0
 17 18  1  0
 18 19  1  0
 19 20  2  0
 13 21  2  0
 21  8  1  0
 19 14  1  0
M  END
>  <alias>  (717) 
None

>  <rmsd(smina/fragmenstein)>  (717) 
0.456

>  <smiles>  (717) 
C=C[C@H](Cl)C(=O)Nc1ccc(F)c(N2CCCNC2=O)c1

>  <gnina_score>  (717) 
5.267

>  <inspiration_score>  (717) 
None

>  <energy_score>  (717) 
-41.298032

>  <distance_score>  (717) 
1.270901

>  <gnina_score_min>  (717) 
5.326

>  <inchikey>  (717) 
BCLPACRMNAMZCM-JTQLQIEISA-N

>  <exports>  (717) 
['/opt/xchem-fragalysis-2/maxwin/BulkDock/OUTPUTS/openbind_a71ev2a_c2_elabs_1LOUU54.sdf', '/opt/xchem-fragalysis-2/maxwin/BulkDock/OUTPUTS/openbind_a71ev2a_c2_elabs_1LSYIDY.sdf']

>  <name>  (717) 
P546325

>  <ref_pdb>  (717) 
A0884a

>  <subsites>  (717) 
None

>  <HIPPO Pose ID>  (717) 
546325

>  <ref_mols>  (717) 
A0884a

>  <HIPPO Compound ID>  (717) 
384961

>  <tags>  (717) 
openbind_a71ev2a_c2_elabs,syndirella_product,openbind_a71ev2a_c2_elabs_fragonly_scored_top80percent,openbind_a71ev2a_c2_elabs_scored,BulkDock Fragalysis export,openbind_a71ev2a_c2_elabs_scored_top80percent,openbind_a71ev2a_c2_elabs_activefrags_only_scored_5.2plus,syndirella_placed

>  <smina_score_min>  (717) 
-6.41

$$$$
P546329
     RDKit          3D

 21 23  0  0  0  0  0  0  0  0999 V2000
    9.9381   15.8080   20.0542 C   0  0  0  0  0  0  0  0  0  0  0  0
   10.1965   14.9942   21.2207 N   0  0  0  0  0  0  0  0  0  0  0  0
   11.5213   14.7830   21.7638 C   0  0  0  0  0  0  0  0  0  0  0  0
   11.2138   13.8349   22.9135 C   0  0  0  0  0  0  0  0  0  0  0  0
   12.0346   13.4280   23.7285 O   0  0  0  0  0  0  0  0  0  0  0  0
    9.8685   13.5706   22.9028 N   0  0  0  0  0  0  0  0  0  0  0  0
    9.2390   12.5665   23.6452 C   0  0  0  0  0  0  0  0  0  0  0  0
    9.6432   11.2422   23.4815 C   0  0  0  0  0  0  0  0  0  0  0  0
    8.9365   10.2199   24.0979 C   0  0  0  0  0  0  0  0  0  0  0  0
    7.8496   10.5224   24.9145 C   0  0  0  0  0  0  0  0  0  0  0  0
    7.4677   11.8469   25.1171 C   0  0  0  0  0  0  0  0  0  0  0  0
    6.3999   12.1008   25.9691 N   0  0  0  0  0  0  0  0  0  0  0  0
    5.9329   13.4163   26.6261 C   0  0  0  0  0  0  0  0  0  0  0  0
    6.3240   14.5063   26.4950 O   0  0  0  0  0  0  0  0  0  0  0  0
    4.7983   13.0977   27.5460 C   0  0  0  0  0  0  0  0  0  0  0  0
    4.3780   11.9644   28.1395 C   0  0  0  0  0  0  0  0  0  0  0  0
    3.2386   12.6694   28.8509 C   0  0  0  0  0  0  0  0  0  0  0  0
    3.7922   13.9753   28.2435 C   0  0  0  0  0  0  0  0  0  0  0  0
    8.1441   12.8705   24.4584 C   0  0  0  0  0  0  0  0  0  0  0  0
    9.2395   14.2435   21.8808 C   0  0  0  0  0  0  0  0  0  0  0  0
    8.0620   14.1532   21.5588 O   0  0  0  0  0  0  0  0  0  0  0  0
  1  2  1  0
  2  3  1  0
  3  4  1  0
  4  5  2  0
  4  6  1  0
  6  7  1  0
  7  8  2  0
  8  9  1  0
  9 10  2  0
 10 11  1  0
 11 12  1  0
 12 13  1  0
 13 14  2  0
 13 15  1  0
 15 16  2  0
 16 17  1  0
 17 18  1  0
 11 19  2  0
  6 20  1  0
 20 21  2  0
 20  2  1  0
 19  7  1  0
 18 15  1  0
M  END
>  <alias>  (718) 
None

>  <rmsd(smina/fragmenstein)>  (718) 
0.312

>  <smiles>  (718) 
CN1CC(=O)N(c2cccc(NC(=O)C3=CCC3)c2)C1=O

>  <gnina_score>  (718) 
5.202

>  <inspiration_score>  (718) 
None

>  <energy_score>  (718) 
-48.703491

>  <distance_score>  (718) 
1.140256

>  <gnina_score_min>  (718) 
5.243

>  <inchikey>  (718) 
LEMDMBNREIXKQA-UHFFFAOYSA-N

>  <exports>  (718) 
['/opt/xchem-fragalysis-2/maxwin/BulkDock/OUTPUTS/openbind_a71ev2a_c2_elabs_1LOUU54.sdf', '/opt/xchem-fragalysis-2/maxwin/BulkDock/OUTPUTS/openbind_a71ev2a_c2_elabs_1LSYIDY.sdf']

>  <name>  (718) 
P546329

>  <ref_pdb>  (718) 
A0884a

>  <subsites>  (718) 
None

>  <HIPPO Pose ID>  (718) 
546329

>  <ref_mols>  (718) 
A0884a

>  <HIPPO Compound ID>  (718) 
384964

>  <tags>  (718) 
openbind_a71ev2a_c2_elabs,syndirella_product,openbind_a71ev2a_c2_elabs_fragonly_scored_top80percent,openbind_a71ev2a_c2_elabs_scored,BulkDock Fragalysis export,openbind_a71ev2a_c2_elabs_scored_top80percent,openbind_a71ev2a_c2_elabs_activefrags_only_scored_5.2plus,syndirella_placed

>  <smina_score_min>  (718) 
-6.841

$$$$
P546330
     RDKit          3D

 21 23  0  0  0  0  0  0  0  0999 V2000
    7.5562   14.7191   24.4598 C   0  0  0  0  0  0  0  0  0  0  0  0
    7.9704   13.2715   24.4201 C   0  0  0  0  0  0  0  0  0  0  0  0
    7.2591   12.2884   25.1508 C   0  0  0  0  0  0  0  0  0  0  0  0
    6.1958   12.6655   25.9772 N   0  0  0  0  0  0  0  0  0  0  0  0
    5.3932   11.8503   27.0135 C   0  0  0  0  0  0  0  0  0  0  0  0
    5.4417   10.7171   27.2856 O   0  0  0  0  0  0  0  0  0  0  0  0
    4.4271   12.7979   27.6432 C   0  0  0  0  0  0  0  0  0  0  0  0
    3.5137   12.5305   28.5936 C   0  0  0  0  0  0  0  0  0  0  0  0
    3.0162   13.9598   28.6384 C   0  0  0  0  0  0  0  0  0  0  0  0
    4.0575   14.2511   27.5343 C   0  0  0  0  0  0  0  0  0  0  0  0
    7.6279   10.9411   25.0654 C   0  0  0  0  0  0  0  0  0  0  0  0
    8.7031   10.5547   24.2730 C   0  0  0  0  0  0  0  0  0  0  0  0
    9.4585   11.5253   23.6363 C   0  0  0  0  0  0  0  0  0  0  0  0
   10.4976   11.1334   22.8965 F   0  0  0  0  0  0  0  0  0  0  0  0
    9.1364   12.8844   23.7258 C   0  0  0  0  0  0  0  0  0  0  0  0
   10.0289   13.8623   23.2088 N   0  0  0  0  0  0  0  0  0  0  0  0
    9.9214   14.3170   21.8357 C   0  0  0  0  0  0  0  0  0  0  0  0
   11.3002   14.8647   21.4968 C   0  0  0  0  0  0  0  0  0  0  0  0
   12.1367   14.3858   22.5550 N   0  0  0  0  0  0  0  0  0  0  0  0
   11.3880   13.8363   23.5772 C   0  0  0  0  0  0  0  0  0  0  0  0
   11.8463   13.4570   24.6435 O   0  0  0  0  0  0  0  0  0  0  0  0
  1  2  1  0
  2  3  2  0
  3  4  1  0
  4  5  1  0
  5  6  2  0
  5  7  1  0
  7  8  2  0
  8  9  1  0
  9 10  1  0
  3 11  1  0
 11 12  2  0
 12 13  1  0
 13 14  1  0
 13 15  2  0
 15 16  1  0
 16 17  1  0
 17 18  1  0
 18 19  1  0
 19 20  1  0
 20 21  2  0
 15  2  1  0
 20 16  1  0
 10  7  1  0
M  END
>  <alias>  (719) 
None

>  <rmsd(smina/fragmenstein)>  (719) 
0.412

>  <smiles>  (719) 
Cc1c(NC(=O)C2=CCC2)ccc(F)c1N1CCNC1=O

>  <gnina_score>  (719) 
5.249

>  <inspiration_score>  (719) 
None

>  <energy_score>  (719) 
-15.86131

>  <distance_score>  (719) 
1.211921

>  <gnina_score_min>  (719) 
5.308

>  <inchikey>  (719) 
LIIDBJOJMVMVPT-UHFFFAOYSA-N

>  <exports>  (719) 
['/opt/xchem-fragalysis-2/maxwin/BulkDock/OUTPUTS/openbind_a71ev2a_c2_elabs_1LOUU54.sdf', '/opt/xchem-fragalysis-2/maxwin/BulkDock/OUTPUTS/openbind_a71ev2a_c2_elabs_1LSYIDY.sdf']

>  <name>  (719) 
P546330

>  <ref_pdb>  (719) 
A0884a

>  <subsites>  (719) 
None

>  <HIPPO Pose ID>  (719) 
546330

>  <ref_mols>  (719) 
A0884a

>  <HIPPO Compound ID>  (719) 
384968

>  <tags>  (719) 
openbind_a71ev2a_c2_elabs,syndirella_product,openbind_a71ev2a_c2_elabs_fragonly_scored_top80percent,openbind_a71ev2a_c2_elabs_scored,BulkDock Fragalysis export,openbind_a71ev2a_c2_elabs_scored_top80percent,openbind_a71ev2a_c2_elabs_activefrags_only_scored_5.2plus,syndirella_placed

>  <smina_score_min>  (719) 
-6.181

$$$$
P546332
     RDKit          3D

 21 22  0  0  0  0  0  0  0  0999 V2000
    4.0619   12.0962   28.4597 C   0  0  0  0  0  0  0  0  0  0  0  0
    4.8275   12.6853   27.5271 C   0  0  0  0  0  0  0  0  0  0  0  0
    4.6691   14.5189   27.1963 Br  0  0  0  0  0  0  0  0  0  0  0  0
    5.8182   11.8185   26.7618 C   0  0  0  0  0  0  0  0  0  0  0  0
    5.8723   10.6657   26.9434 O   0  0  0  0  0  0  0  0  0  0  0  0
    6.6166   12.7195   25.7873 N   0  0  0  0  0  0  0  0  0  0  0  0
    7.6727   12.4147   24.9349 C   0  0  0  0  0  0  0  0  0  0  0  0
    8.0931   11.0987   24.7143 C   0  0  0  0  0  0  0  0  0  0  0  0
    9.1640   10.8721   23.8558 C   0  0  0  0  0  0  0  0  0  0  0  0
    9.7938    9.1863   23.3737 Br  0  0  0  0  0  0  0  0  0  0  0  0
    9.8405   11.9212   23.2737 C   0  0  0  0  0  0  0  0  0  0  0  0
    9.4305   13.2233   23.5024 C   0  0  0  0  0  0  0  0  0  0  0  0
   10.1523   14.2614   22.8632 N   0  0  0  0  0  0  0  0  0  0  0  0
    9.6247   14.6068   21.5386 C   0  0  0  0  0  0  0  0  0  0  0  0
   10.5666   15.4061   20.6841 C   0  0  0  0  0  0  0  0  0  0  0  0
   11.9407   14.8410   20.8671 C   0  0  0  0  0  0  0  0  0  0  0  0
   12.6559   14.4560   19.9494 O   0  0  0  0  0  0  0  0  0  0  0  0
   12.3341   14.8098   22.1728 N   0  0  0  0  0  0  0  0  0  0  0  0
   11.5191   14.3013   23.1384 C   0  0  0  0  0  0  0  0  0  0  0  0
   12.0065   13.8723   24.1863 O   0  0  0  0  0  0  0  0  0  0  0  0
    8.3218   13.4799   24.2993 C   0  0  0  0  0  0  0  0  0  0  0  0
  1  2  2  0
  2  3  1  0
  2  4  1  0
  4  5  2  0
  4  6  1  0
  6  7  1  0
  7  8  2  0
  8  9  1  0
  9 10  1  0
  9 11  2  0
 11 12  1  0
 12 13  1  0
 13 14  1  0
 14 15  1  0
 15 16  1  0
 16 17  2  0
 16 18  1  0
 18 19  1  0
 19 20  2  0
 12 21  2  0
 21  7  1  0
 19 13  1  0
M  END
>  <alias>  (720) 
None

>  <rmsd(smina/fragmenstein)>  (720) 
0.249

>  <smiles>  (720) 
C=C(Br)C(=O)Nc1cc(Br)cc(N2CCC(=O)NC2=O)c1

>  <gnina_score>  (720) 
5.608

>  <inspiration_score>  (720) 
None

>  <energy_score>  (720) 
-4.745663

>  <distance_score>  (720) 
1.243753

>  <gnina_score_min>  (720) 
5.62

>  <inchikey>  (720) 
BYBFEEVNRIEXGN-UHFFFAOYSA-N

>  <exports>  (720) 
['/opt/xchem-fragalysis-2/maxwin/BulkDock/OUTPUTS/openbind_a71ev2a_c2_elabs_1LOUU54.sdf', '/opt/xchem-fragalysis-2/maxwin/BulkDock/OUTPUTS/openbind_a71ev2a_c2_elabs_1LSYIDY.sdf']

>  <name>  (720) 
P546332

>  <ref_pdb>  (720) 
A0884a

>  <subsites>  (720) 
None

>  <HIPPO Pose ID>  (720) 
546332

>  <ref_mols>  (720) 
A0884a

>  <HIPPO Compound ID>  (720) 
384973

>  <tags>  (720) 
openbind_a71ev2a_c2_elabs,syndirella_product,openbind_a71ev2a_c2_elabs_fragonly_scored_top80percent,BulkDock Fragalysis export,openbind_a71ev2a_c2_elabs_scored,openbind_a71ev2a_c2_elabs_scored_top80percent,openbind_a71ev2a_c2_elabs_activefrags_only_scored_5.2plus,openbind_a71ev2a_c2_elabs_activefrags_only_scored_5.5plus,syndirella_placed

>  <smina_score_min>  (720) 
-6.609

$$$$
P546333
     RDKit          3D

 21 22  0  0  0  0  0  0  0  0999 V2000
    4.6968   15.7912   27.1900 C   0  0  0  0  0  0  0  0  0  0  0  0
    4.0991   14.6387   26.8535 C   0  0  0  0  0  0  0  0  0  0  0  0
    2.2398   14.4799   26.7581 Br  0  0  0  0  0  0  0  0  0  0  0  0
    4.9012   13.3845   26.6123 C   0  0  0  0  0  0  0  0  0  0  0  0
    4.6118   12.3662   27.1104 O   0  0  0  0  0  0  0  0  0  0  0  0
    6.0237   13.7235   25.5895 N   0  0  0  0  0  0  0  0  0  0  0  0
    7.0381   12.9283   25.0649 C   0  0  0  0  0  0  0  0  0  0  0  0
    7.1178   11.5691   25.3509 C   0  0  0  0  0  0  0  0  0  0  0  0
    8.0981   10.7944   24.7412 C   0  0  0  0  0  0  0  0  0  0  0  0
    9.0258   11.3795   23.8765 C   0  0  0  0  0  0  0  0  0  0  0  0
   10.0458   10.2853   23.0494 Cl  0  0  0  0  0  0  0  0  0  0  0  0
    8.9973   12.7608   23.6154 C   0  0  0  0  0  0  0  0  0  0  0  0
    9.9627   13.4120   22.7720 N   0  0  0  0  0  0  0  0  0  0  0  0
    9.4836   14.3897   21.8004 C   0  0  0  0  0  0  0  0  0  0  0  0
   10.4998   14.8258   20.7669 C   0  0  0  0  0  0  0  0  0  0  0  0
   11.9015   14.4987   21.1634 C   0  0  0  0  0  0  0  0  0  0  0  0
   12.8080   14.4186   20.3381 O   0  0  0  0  0  0  0  0  0  0  0  0
   12.1079   14.3141   22.4970 N   0  0  0  0  0  0  0  0  0  0  0  0
   11.2508   13.5893   23.2815 C   0  0  0  0  0  0  0  0  0  0  0  0
   11.6395   13.1538   24.3644 O   0  0  0  0  0  0  0  0  0  0  0  0
    7.9719   13.5173   24.2039 C   0  0  0  0  0  0  0  0  0  0  0  0
  1  2  2  0
  2  3  1  0
  2  4  1  0
  4  5  2  0
  4  6  1  0
  6  7  1  0
  7  8  2  0
  8  9  1  0
  9 10  2  0
 10 11  1  0
 10 12  1  0
 12 13  1  0
 13 14  1  0
 14 15  1  0
 15 16  1  0
 16 17  2  0
 16 18  1  0
 18 19  1  0
 19 20  2  0
 12 21  2  0
 21  7  1  0
 19 13  1  0
M  END
>  <alias>  (721) 
None

>  <rmsd(smina/fragmenstein)>  (721) 
0.447

>  <smiles>  (721) 
C=C(Br)C(=O)Nc1ccc(Cl)c(N2CCC(=O)NC2=O)c1

>  <gnina_score>  (721) 
5.626

>  <inspiration_score>  (721) 
None

>  <energy_score>  (721) 
-22.590799

>  <distance_score>  (721) 
1.531156

>  <gnina_score_min>  (721) 
5.57

>  <inchikey>  (721) 
AGTLKWKDBRZNFG-UHFFFAOYSA-N

>  <exports>  (721) 
['/opt/xchem-fragalysis-2/maxwin/BulkDock/OUTPUTS/openbind_a71ev2a_c2_elabs_1LOUU54.sdf', '/opt/xchem-fragalysis-2/maxwin/BulkDock/OUTPUTS/openbind_a71ev2a_c2_elabs_1LSYIDY.sdf']

>  <name>  (721) 
P546333

>  <ref_pdb>  (721) 
A0884a

>  <subsites>  (721) 
None

>  <HIPPO Pose ID>  (721) 
546333

>  <ref_mols>  (721) 
A0884a

>  <HIPPO Compound ID>  (721) 
384975

>  <tags>  (721) 
openbind_a71ev2a_c2_elabs,syndirella_product,openbind_a71ev2a_c2_elabs_fragonly_scored_top80percent,BulkDock Fragalysis export,openbind_a71ev2a_c2_elabs_scored,openbind_a71ev2a_c2_elabs_scored_top80percent,openbind_a71ev2a_c2_elabs_activefrags_only_scored_5.2plus,openbind_a71ev2a_c2_elabs_activefrags_only_scored_5.5plus,syndirella_placed

>  <smina_score_min>  (721) 
-6.813

$$$$
P546334
     RDKit          3D

 21 22  0  0  0  0  0  0  0  0999 V2000
    4.8432   15.5602   27.4617 C   0  0  0  0  0  0  0  0  0  0  0  0
    4.2207   14.4421   27.0601 C   0  0  0  0  0  0  0  0  0  0  0  0
    2.3585   14.3216   26.9731 Br  0  0  0  0  0  0  0  0  0  0  0  0
    4.9995   13.1924   26.7368 C   0  0  0  0  0  0  0  0  0  0  0  0
    4.7049   12.1527   27.1849 O   0  0  0  0  0  0  0  0  0  0  0  0
    6.1100   13.5717   25.7154 N   0  0  0  0  0  0  0  0  0  0  0  0
    7.1064   12.7932   25.1331 C   0  0  0  0  0  0  0  0  0  0  0  0
    7.1801   11.4232   25.3496 C   0  0  0  0  0  0  0  0  0  0  0  0
    8.1424   10.6728   24.6830 C   0  0  0  0  0  0  0  0  0  0  0  0
    9.0591   11.2793   23.8106 C   0  0  0  0  0  0  0  0  0  0  0  0
    9.9643   10.3545   23.0636 C   0  0  0  0  0  0  0  0  0  0  0  0
    9.0339   12.6765   23.6383 C   0  0  0  0  0  0  0  0  0  0  0  0
    9.9816   13.3591   22.8043 N   0  0  0  0  0  0  0  0  0  0  0  0
    9.4724   14.3512   21.8627 C   0  0  0  0  0  0  0  0  0  0  0  0
   10.4669   14.8139   20.8186 C   0  0  0  0  0  0  0  0  0  0  0  0
   11.8796   14.5200   21.2042 C   0  0  0  0  0  0  0  0  0  0  0  0
   12.7840   14.4627   20.3747 O   0  0  0  0  0  0  0  0  0  0  0  0
   12.0969   14.3333   22.5354 N   0  0  0  0  0  0  0  0  0  0  0  0
   11.2679   13.5657   23.3106 C   0  0  0  0  0  0  0  0  0  0  0  0
   11.6891   13.1089   24.3717 O   0  0  0  0  0  0  0  0  0  0  0  0
    8.0308   13.4139   24.2868 C   0  0  0  0  0  0  0  0  0  0  0  0
  1  2  2  0
  2  3  1  0
  2  4  1  0
  4  5  2  0
  4  6  1  0
  6  7  1  0
  7  8  2  0
  8  9  1  0
  9 10  2  0
 10 11  1  0
 10 12  1  0
 12 13  1  0
 13 14  1  0
 14 15  1  0
 15 16  1  0
 16 17  2  0
 16 18  1  0
 18 19  1  0
 19 20  2  0
 12 21  2  0
 21  7  1  0
 19 13  1  0
M  END
>  <alias>  (722) 
None

>  <rmsd(smina/fragmenstein)>  (722) 
0.48

>  <smiles>  (722) 
C=C(Br)C(=O)Nc1ccc(C)c(N2CCC(=O)NC2=O)c1

>  <gnina_score>  (722) 
5.431

>  <inspiration_score>  (722) 
None

>  <energy_score>  (722) 
-12.342918

>  <distance_score>  (722) 
1.424645

>  <gnina_score_min>  (722) 
5.402

>  <inchikey>  (722) 
JDGAMVRNTAMAQG-UHFFFAOYSA-N

>  <exports>  (722) 
['/opt/xchem-fragalysis-2/maxwin/BulkDock/OUTPUTS/openbind_a71ev2a_c2_elabs_1LOUU54.sdf', '/opt/xchem-fragalysis-2/maxwin/BulkDock/OUTPUTS/openbind_a71ev2a_c2_elabs_1LSYIDY.sdf']

>  <name>  (722) 
P546334

>  <ref_pdb>  (722) 
A0884a

>  <subsites>  (722) 
None

>  <HIPPO Pose ID>  (722) 
546334

>  <ref_mols>  (722) 
A0884a

>  <HIPPO Compound ID>  (722) 
384976

>  <tags>  (722) 
openbind_a71ev2a_c2_elabs,syndirella_product,openbind_a71ev2a_c2_elabs_fragonly_scored_top80percent,openbind_a71ev2a_c2_elabs_scored,BulkDock Fragalysis export,openbind_a71ev2a_c2_elabs_scored_top80percent,openbind_a71ev2a_c2_elabs_activefrags_only_scored_5.2plus,syndirella_placed

>  <smina_score_min>  (722) 
-6.863

$$$$
P546335
     RDKit          3D

 21 22  0  0  0  0  0  0  0  0999 V2000
    5.4384   14.2320   28.6703 C   0  0  0  0  0  0  0  0  0  0  0  0
    5.5972   15.1891   27.4904 C   0  0  0  0  0  0  0  0  0  0  0  0
    4.3401   15.2311   26.6279 C   0  0  0  0  0  0  0  0  0  0  0  0
    5.7250   16.4382   28.0512 F   0  0  0  0  0  0  0  0  0  0  0  0
    6.8523   14.8439   26.6270 C   0  0  0  0  0  0  0  0  0  0  0  0
    7.7112   15.6736   26.5049 O   0  0  0  0  0  0  0  0  0  0  0  0
    6.7596   13.4914   26.1018 N   0  0  0  0  0  0  0  0  0  0  0  0
    7.5893   12.7929   25.2323 C   0  0  0  0  0  0  0  0  0  0  0  0
    7.4911   11.4009   25.1786 C   0  0  0  0  0  0  0  0  0  0  0  0
    8.3850   10.6778   24.3895 C   0  0  0  0  0  0  0  0  0  0  0  0
    9.3328   11.3472   23.6226 C   0  0  0  0  0  0  0  0  0  0  0  0
   10.1256   10.6227   22.8250 F   0  0  0  0  0  0  0  0  0  0  0  0
    9.4014   12.7416   23.6227 C   0  0  0  0  0  0  0  0  0  0  0  0
   10.3611   13.4153   22.8197 N   0  0  0  0  0  0  0  0  0  0  0  0
    9.8677   14.4010   21.8625 C   0  0  0  0  0  0  0  0  0  0  0  0
   10.9178   14.8968   20.8890 C   0  0  0  0  0  0  0  0  0  0  0  0
   12.1808   15.2184   21.6406 C   0  0  0  0  0  0  0  0  0  0  0  0
   12.5512   14.1838   22.5600 N   0  0  0  0  0  0  0  0  0  0  0  0
   11.6674   13.4387   23.2764 C   0  0  0  0  0  0  0  0  0  0  0  0
   12.0730   12.8525   24.2791 O   0  0  0  0  0  0  0  0  0  0  0  0
    8.5310   13.4618   24.4457 C   0  0  0  0  0  0  0  0  0  0  0  0
  1  2  1  0
  2  3  1  0
  2  4  1  0
  2  5  1  0
  5  6  2  0
  5  7  1  0
  7  8  1  0
  8  9  2  0
  9 10  1  0
 10 11  2  0
 11 12  1  0
 11 13  1  0
 13 14  1  0
 14 15  1  0
 15 16  1  0
 16 17  1  0
 17 18  1  0
 18 19  1  0
 19 20  2  0
 13 21  2  0
 21  8  1  0
 19 14  1  0
M  END
>  <alias>  (723) 
None

>  <rmsd(smina/fragmenstein)>  (723) 
0.64

>  <smiles>  (723) 
CC(C)(F)C(=O)Nc1ccc(F)c(N2CCCNC2=O)c1

>  <gnina_score>  (723) 
5.327

>  <inspiration_score>  (723) 
None

>  <energy_score>  (723) 
-40.396367

>  <distance_score>  (723) 
1.826067

>  <gnina_score_min>  (723) 
5.249

>  <inchikey>  (723) 
SZKKBOSPHWGYSS-UHFFFAOYSA-N

>  <exports>  (723) 
['/opt/xchem-fragalysis-2/maxwin/BulkDock/OUTPUTS/openbind_a71ev2a_c2_elabs_1LOUU54.sdf', '/opt/xchem-fragalysis-2/maxwin/BulkDock/OUTPUTS/openbind_a71ev2a_c2_elabs_1LSYIDY.sdf']

>  <name>  (723) 
P546335

>  <ref_pdb>  (723) 
A0884a

>  <subsites>  (723) 
None

>  <HIPPO Pose ID>  (723) 
546335

>  <ref_mols>  (723) 
A0884a

>  <HIPPO Compound ID>  (723) 
384977

>  <tags>  (723) 
openbind_a71ev2a_c2_elabs,syndirella_product,openbind_a71ev2a_c2_elabs_fragonly_scored_top80percent,openbind_a71ev2a_c2_elabs_scored,BulkDock Fragalysis export,openbind_a71ev2a_c2_elabs_scored_top80percent,openbind_a71ev2a_c2_elabs_activefrags_only_scored_5.2plus,syndirella_placed

>  <smina_score_min>  (723) 
-6.472

$$$$
P546336
     RDKit          3D

 21 22  0  0  0  0  0  0  0  0999 V2000
    8.0008   14.4193   25.1987 C   0  0  0  0  0  0  0  0  0  0  0  0
    8.2731   12.9650   24.9322 C   0  0  0  0  0  0  0  0  0  0  0  0
    7.4619   11.9357   25.4469 C   0  0  0  0  0  0  0  0  0  0  0  0
    6.4547   12.0808   26.4041 N   0  0  0  0  0  0  0  0  0  0  0  0
    6.2863   13.1322   27.5484 C   0  0  0  0  0  0  0  0  0  0  0  0
    6.9259   14.0778   27.8097 O   0  0  0  0  0  0  0  0  0  0  0  0
    5.0817   12.6401   28.3775 C   0  0  0  0  0  0  0  0  0  0  0  0
    4.2573   13.8128   28.8857 C   0  0  0  0  0  0  0  0  0  0  0  0
    5.5978   11.7772   29.5237 C   0  0  0  0  0  0  0  0  0  0  0  0
    4.2534   11.8410   27.6239 F   0  0  0  0  0  0  0  0  0  0  0  0
    7.6451   10.6195   25.0031 C   0  0  0  0  0  0  0  0  0  0  0  0
    8.6489   10.3002   24.0980 C   0  0  0  0  0  0  0  0  0  0  0  0
    9.4784   11.2983   23.6337 C   0  0  0  0  0  0  0  0  0  0  0  0
   10.4384   10.9699   22.7686 F   0  0  0  0  0  0  0  0  0  0  0  0
    9.3323   12.6181   24.0623 C   0  0  0  0  0  0  0  0  0  0  0  0
   10.2597   13.6021   23.6455 N   0  0  0  0  0  0  0  0  0  0  0  0
   11.6087   13.5852   24.1686 C   0  0  0  0  0  0  0  0  0  0  0  0
   12.3471   14.5007   23.2149 C   0  0  0  0  0  0  0  0  0  0  0  0
   11.6398   14.3359   22.0052 N   0  0  0  0  0  0  0  0  0  0  0  0
   10.3530   13.9322   22.2801 C   0  0  0  0  0  0  0  0  0  0  0  0
    9.4605   13.9370   21.4568 O   0  0  0  0  0  0  0  0  0  0  0  0
  1  2  1  0
  2  3  2  0
  3  4  1  0
  4  5  1  0
  5  6  2  0
  5  7  1  0
  7  8  1  0
  7  9  1  0
  7 10  1  0
  3 11  1  0
 11 12  2  0
 12 13  1  0
 13 14  1  0
 13 15  2  0
 15 16  1  0
 16 17  1  0
 17 18  1  0
 18 19  1  0
 19 20  1  0
 20 21  2  0
 15  2  1  0
 20 16  1  0
M  END
>  <alias>  (724) 
None

>  <rmsd(smina/fragmenstein)>  (724) 
0.704

>  <smiles>  (724) 
Cc1c(NC(=O)C(C)(C)F)ccc(F)c1N1CCNC1=O

>  <gnina_score>  (724) 
5.518

>  <inspiration_score>  (724) 
None

>  <energy_score>  (724) 
-20.801476

>  <distance_score>  (724) 
1.584059

>  <gnina_score_min>  (724) 
5.449

>  <inchikey>  (724) 
YLRTVYJCMPDHFC-UHFFFAOYSA-N

>  <exports>  (724) 
['/opt/xchem-fragalysis-2/maxwin/BulkDock/OUTPUTS/openbind_a71ev2a_c2_elabs_1LOUU54.sdf', '/opt/xchem-fragalysis-2/maxwin/BulkDock/OUTPUTS/openbind_a71ev2a_c2_elabs_1LSYIDY.sdf']

>  <name>  (724) 
P546336

>  <ref_pdb>  (724) 
A0884a

>  <subsites>  (724) 
None

>  <HIPPO Pose ID>  (724) 
546336

>  <ref_mols>  (724) 
A0884a

>  <HIPPO Compound ID>  (724) 
384978

>  <tags>  (724) 
openbind_a71ev2a_c2_elabs,syndirella_product,openbind_a71ev2a_c2_elabs_fragonly_scored_top80percent,openbind_a71ev2a_c2_elabs_scored,BulkDock Fragalysis export,openbind_a71ev2a_c2_elabs_scored_top80percent,openbind_a71ev2a_c2_elabs_activefrags_only_scored_5.2plus,syndirella_placed

>  <smina_score_min>  (724) 
-6.353

$$$$
P546337
     RDKit          3D

 21 22  0  0  0  0  0  0  0  0999 V2000
    3.5405   14.3549   25.9013 C   0  0  0  0  0  0  0  0  0  0  0  0
    4.4862   13.9661   27.0329 C   0  0  0  0  0  0  0  0  0  0  0  0
    3.7201   13.7447   28.3305 C   0  0  0  0  0  0  0  0  0  0  0  0
    5.3317   15.0293   27.2310 F   0  0  0  0  0  0  0  0  0  0  0  0
    5.2968   12.7044   26.6488 C   0  0  0  0  0  0  0  0  0  0  0  0
    5.0321   11.6178   26.9977 O   0  0  0  0  0  0  0  0  0  0  0  0
    6.4501   13.2193   25.7295 N   0  0  0  0  0  0  0  0  0  0  0  0
    7.4117   12.5181   25.0088 C   0  0  0  0  0  0  0  0  0  0  0  0
    7.5669   11.1371   25.0935 C   0  0  0  0  0  0  0  0  0  0  0  0
    8.5884   10.5074   24.3745 C   0  0  0  0  0  0  0  0  0  0  0  0
    9.4766   11.2554   23.6013 C   0  0  0  0  0  0  0  0  0  0  0  0
    9.3110   12.6369   23.5015 C   0  0  0  0  0  0  0  0  0  0  0  0
   10.1942   13.4284   22.7163 N   0  0  0  0  0  0  0  0  0  0  0  0
   11.5037   13.5771   23.1711 C   0  0  0  0  0  0  0  0  0  0  0  0
   11.9968   12.9891   24.1326 O   0  0  0  0  0  0  0  0  0  0  0  0
   12.2972   14.6655   22.5278 C   0  0  0  0  0  0  0  0  0  0  0  0
   11.9498   14.7147   21.0748 C   0  0  0  0  0  0  0  0  0  0  0  0
   10.5382   14.9382   20.9553 N   0  0  0  0  0  0  0  0  0  0  0  0
    9.6472   14.1941   21.6817 C   0  0  0  0  0  0  0  0  0  0  0  0
    8.4549   14.2278   21.3786 O   0  0  0  0  0  0  0  0  0  0  0  0
    8.2650   13.2589   24.1921 C   0  0  0  0  0  0  0  0  0  0  0  0
  1  2  1  0
  2  3  1  0
  2  4  1  0
  2  5  1  0
  5  6  2  0
  5  7  1  0
  7  8  1  0
  8  9  2  0
  9 10  1  0
 10 11  2  0
 11 12  1  0
 12 13  1  0
 13 14  1  0
 14 15  2  0
 14 16  1  0
 16 17  1  0
 17 18  1  0
 18 19  1  0
 19 20  2  0
 12 21  2  0
 21  8  1  0
 19 13  1  0
M  END
>  <alias>  (725) 
None

>  <rmsd(smina/fragmenstein)>  (725) 
0.875

>  <smiles>  (725) 
CC(C)(F)C(=O)Nc1cccc(N2C(=O)CCNC2=O)c1

>  <gnina_score>  (725) 
5.242

>  <inspiration_score>  (725) 
None

>  <energy_score>  (725) 
-41.190452

>  <distance_score>  (725) 
1.411985

>  <gnina_score_min>  (725) 
5.33

>  <inchikey>  (725) 
XXHBZMXXYKGIKD-UHFFFAOYSA-N

>  <exports>  (725) 
['/opt/xchem-fragalysis-2/maxwin/BulkDock/OUTPUTS/openbind_a71ev2a_c2_elabs_1LOUU54.sdf', '/opt/xchem-fragalysis-2/maxwin/BulkDock/OUTPUTS/openbind_a71ev2a_c2_elabs_1LSYIDY.sdf']

>  <name>  (725) 
P546337

>  <ref_pdb>  (725) 
A0884a

>  <subsites>  (725) 
None

>  <HIPPO Pose ID>  (725) 
546337

>  <ref_mols>  (725) 
A0884a

>  <HIPPO Compound ID>  (725) 
384981

>  <tags>  (725) 
openbind_a71ev2a_c2_elabs,syndirella_product,openbind_a71ev2a_c2_elabs_fragonly_scored_top80percent,openbind_a71ev2a_c2_elabs_scored,BulkDock Fragalysis export,openbind_a71ev2a_c2_elabs_scored_top80percent,openbind_a71ev2a_c2_elabs_activefrags_only_scored_5.2plus,syndirella_placed

>  <smina_score_min>  (725) 
-7.381

$$$$
P546338
     RDKit          3D

 21 22  0  0  0  0  0  0  0  0999 V2000
    8.2709   14.4794   24.8011 C   0  0  0  0  0  0  0  0  0  0  0  0
    8.4178   12.9932   24.6599 C   0  0  0  0  0  0  0  0  0  0  0  0
    7.5406   12.1193   25.3363 C   0  0  0  0  0  0  0  0  0  0  0  0
    6.6099   12.6250   26.2498 N   0  0  0  0  0  0  0  0  0  0  0  0
    5.6081   11.8843   27.1909 C   0  0  0  0  0  0  0  0  0  0  0  0
    5.3583   10.7442   27.2860 O   0  0  0  0  0  0  0  0  0  0  0  0
    5.0173   12.9788   28.1018 C   0  0  0  0  0  0  0  0  0  0  0  0
    5.8515   13.0579   29.3753 C   0  0  0  0  0  0  0  0  0  0  0  0
    3.5541   12.6958   28.4083 C   0  0  0  0  0  0  0  0  0  0  0  0
    5.0894   14.2100   27.5009 F   0  0  0  0  0  0  0  0  0  0  0  0
    7.6287   10.7480   25.1134 C   0  0  0  0  0  0  0  0  0  0  0  0
    8.5774   10.2368   24.2313 C   0  0  0  0  0  0  0  0  0  0  0  0
    9.4758   11.0788   23.5961 C   0  0  0  0  0  0  0  0  0  0  0  0
    9.4370   12.4507   23.8445 C   0  0  0  0  0  0  0  0  0  0  0  0
   10.5067   13.1992   23.3216 N   0  0  0  0  0  0  0  0  0  0  0  0
   11.4188   13.8840   24.0744 C   0  0  0  0  0  0  0  0  0  0  0  0
   11.5127   13.9376   25.2942 O   0  0  0  0  0  0  0  0  0  0  0  0
   12.3132   14.6616   23.1306 C   0  0  0  0  0  0  0  0  0  0  0  0
   11.6689   14.4525   21.8905 N   0  0  0  0  0  0  0  0  0  0  0  0
   10.4898   13.7863   22.0945 C   0  0  0  0  0  0  0  0  0  0  0  0
    9.5620   13.8880   21.3155 O   0  0  0  0  0  0  0  0  0  0  0  0
  1  2  1  0
  2  3  2  0
  3  4  1  0
  4  5  1  0
  5  6  2  0
  5  7  1  0
  7  8  1  0
  7  9  1  0
  7 10  1  0
  3 11  1  0
 11 12  2  0
 12 13  1  0
 13 14  2  0
 14 15  1  0
 15 16  1  0
 16 17  2  0
 16 18  1  0
 18 19  1  0
 19 20  1  0
 20 21  2  0
 14  2  1  0
 20 15  1  0
M  END
>  <alias>  (726) 
None

>  <rmsd(smina/fragmenstein)>  (726) 
0.555

>  <smiles>  (726) 
Cc1c(NC(=O)C(C)(C)F)cccc1N1C(=O)CNC1=O

>  <gnina_score>  (726) 
5.208

>  <inspiration_score>  (726) 
None

>  <energy_score>  (726) 
-17.12905

>  <distance_score>  (726) 
1.523604

>  <gnina_score_min>  (726) 
5.276

>  <inchikey>  (726) 
XLQAHQRWYFUWGH-UHFFFAOYSA-N

>  <exports>  (726) 
['/opt/xchem-fragalysis-2/maxwin/BulkDock/OUTPUTS/openbind_a71ev2a_c2_elabs_1LOUU54.sdf', '/opt/xchem-fragalysis-2/maxwin/BulkDock/OUTPUTS/openbind_a71ev2a_c2_elabs_1LSYIDY.sdf']

>  <name>  (726) 
P546338

>  <ref_pdb>  (726) 
A0884a

>  <subsites>  (726) 
None

>  <HIPPO Pose ID>  (726) 
546338

>  <ref_mols>  (726) 
A0884a

>  <HIPPO Compound ID>  (726) 
384982

>  <tags>  (726) 
openbind_a71ev2a_c2_elabs,syndirella_product,openbind_a71ev2a_c2_elabs_fragonly_scored_top80percent,openbind_a71ev2a_c2_elabs_scored,BulkDock Fragalysis export,openbind_a71ev2a_c2_elabs_scored_top80percent,openbind_a71ev2a_c2_elabs_activefrags_only_scored_5.2plus,syndirella_placed

>  <smina_score_min>  (726) 
-6.584

$$$$
P546340
     RDKit          3D

 21 22  0  0  0  0  0  0  0  0999 V2000
    3.9209   14.6722   25.7149 C   0  0  0  0  0  0  0  0  0  0  0  0
    4.8182   14.2240   26.8639 C   0  0  0  0  0  0  0  0  0  0  0  0
    4.0204   14.0663   28.1514 C   0  0  0  0  0  0  0  0  0  0  0  0
    5.7450   15.2145   27.0702 F   0  0  0  0  0  0  0  0  0  0  0  0
    5.5281   12.9038   26.4903 C   0  0  0  0  0  0  0  0  0  0  0  0
    5.1637   11.8411   26.8224 O   0  0  0  0  0  0  0  0  0  0  0  0
    6.7070   13.3225   25.5546 N   0  0  0  0  0  0  0  0  0  0  0  0
    7.6915   12.5524   24.9419 C   0  0  0  0  0  0  0  0  0  0  0  0
    7.6502   11.1610   24.9455 C   0  0  0  0  0  0  0  0  0  0  0  0
    8.6399   10.4395   24.2760 C   0  0  0  0  0  0  0  0  0  0  0  0
    9.6884   11.1001   23.6343 C   0  0  0  0  0  0  0  0  0  0  0  0
    9.7600   12.4937   23.6598 C   0  0  0  0  0  0  0  0  0  0  0  0
   10.8398   13.1582   23.0552 N   0  0  0  0  0  0  0  0  0  0  0  0
   10.7013   14.1313   22.1063 C   0  0  0  0  0  0  0  0  0  0  0  0
    9.6841   14.4328   21.5038 O   0  0  0  0  0  0  0  0  0  0  0  0
   12.0323   14.7957   21.8695 C   0  0  0  0  0  0  0  0  0  0  0  0
   12.7955   14.2103   22.9143 N   0  0  0  0  0  0  0  0  0  0  0  0
   12.0696   13.2957   23.6347 C   0  0  0  0  0  0  0  0  0  0  0  0
   12.4915   12.7945   24.6627 O   0  0  0  0  0  0  0  0  0  0  0  0
    8.7447   13.2088   24.2978 C   0  0  0  0  0  0  0  0  0  0  0  0
    8.8102   14.5488   24.3676 F   0  0  0  0  0  0  0  0  0  0  0  0
  1  2  1  0
  2  3  1  0
  2  4  1  0
  2  5  1  0
  5  6  2  0
  5  7  1  0
  7  8  1  0
  8  9  2  0
  9 10  1  0
 10 11  2  0
 11 12  1  0
 12 13  1  0
 13 14  1  0
 14 15  2  0
 14 16  1  0
 16 17  1  0
 17 18  1  0
 18 19  2  0
 12 20  2  0
 20 21  1  0
 20  8  1  0
 18 13  1  0
M  END
>  <alias>  (727) 
None

>  <rmsd(smina/fragmenstein)>  (727) 
0.706

>  <smiles>  (727) 
CC(C)(F)C(=O)Nc1cccc(N2C(=O)CNC2=O)c1F

>  <gnina_score>  (727) 
5.142

>  <inspiration_score>  (727) 
None

>  <energy_score>  (727) 
-48.824826

>  <distance_score>  (727) 
1.572644

>  <gnina_score_min>  (727) 
5.247

>  <inchikey>  (727) 
XSPISZZOWXRBKA-UHFFFAOYSA-N

>  <exports>  (727) 
['/opt/xchem-fragalysis-2/maxwin/BulkDock/OUTPUTS/openbind_a71ev2a_c2_elabs_1LOUU54.sdf', '/opt/xchem-fragalysis-2/maxwin/BulkDock/OUTPUTS/openbind_a71ev2a_c2_elabs_1LSYIDY.sdf']

>  <name>  (727) 
P546340

>  <ref_pdb>  (727) 
A0884a

>  <subsites>  (727) 
None

>  <HIPPO Pose ID>  (727) 
546340

>  <ref_mols>  (727) 
A0884a

>  <HIPPO Compound ID>  (727) 
384984

>  <tags>  (727) 
openbind_a71ev2a_c2_elabs,syndirella_product,openbind_a71ev2a_c2_elabs_fragonly_scored_top80percent,openbind_a71ev2a_c2_elabs_scored,BulkDock Fragalysis export,openbind_a71ev2a_c2_elabs_scored_top80percent,openbind_a71ev2a_c2_elabs_activefrags_only_scored_5.2plus,syndirella_placed

>  <smina_score_min>  (727) 
-6.768

$$$$
P546341
     RDKit          3D

 21 22  0  0  0  0  0  0  0  0999 V2000
    3.8705   14.6206   26.3687 C   0  0  0  0  0  0  0  0  0  0  0  0
    4.7679   14.0476   27.4601 C   0  0  0  0  0  0  0  0  0  0  0  0
    3.9851   13.7863   28.7388 C   0  0  0  0  0  0  0  0  0  0  0  0
    5.7209   14.9949   27.7402 F   0  0  0  0  0  0  0  0  0  0  0  0
    5.4320   12.7516   26.9456 C   0  0  0  0  0  0  0  0  0  0  0  0
    4.9829   11.6786   27.0875 O   0  0  0  0  0  0  0  0  0  0  0  0
    6.7074   13.2216   26.1721 N   0  0  0  0  0  0  0  0  0  0  0  0
    7.5935   12.5062   25.3733 C   0  0  0  0  0  0  0  0  0  0  0  0
    7.4799   11.1268   25.1989 C   0  0  0  0  0  0  0  0  0  0  0  0
    8.3707   10.4574   24.3597 C   0  0  0  0  0  0  0  0  0  0  0  0
    9.3629   11.1653   23.6986 C   0  0  0  0  0  0  0  0  0  0  0  0
   10.1901   10.4999   22.8866 F   0  0  0  0  0  0  0  0  0  0  0  0
    9.5294   12.5317   23.9166 C   0  0  0  0  0  0  0  0  0  0  0  0
   10.6351   13.1786   23.3433 N   0  0  0  0  0  0  0  0  0  0  0  0
   11.5299   13.9301   24.0506 C   0  0  0  0  0  0  0  0  0  0  0  0
   11.6113   14.0593   25.2665 O   0  0  0  0  0  0  0  0  0  0  0  0
   12.3969   14.6826   23.0620 C   0  0  0  0  0  0  0  0  0  0  0  0
   11.7442   14.3986   21.8410 N   0  0  0  0  0  0  0  0  0  0  0  0
   10.5713   13.7440   22.1075 C   0  0  0  0  0  0  0  0  0  0  0  0
    9.5986   13.8675   21.3865 O   0  0  0  0  0  0  0  0  0  0  0  0
    8.6297   13.2062   24.7463 C   0  0  0  0  0  0  0  0  0  0  0  0
  1  2  1  0
  2  3  1  0
  2  4  1  0
  2  5  1  0
  5  6  2  0
  5  7  1  0
  7  8  1  0
  8  9  2  0
  9 10  1  0
 10 11  2  0
 11 12  1  0
 11 13  1  0
 13 14  1  0
 14 15  1  0
 15 16  2  0
 15 17  1  0
 17 18  1  0
 18 19  1  0
 19 20  2  0
 13 21  2  0
 21  8  1  0
 19 14  1  0
M  END
>  <alias>  (728) 
None

>  <rmsd(smina/fragmenstein)>  (728) 
1.129

>  <smiles>  (728) 
CC(C)(F)C(=O)Nc1ccc(F)c(N2C(=O)CNC2=O)c1

>  <gnina_score>  (728) 
5.319

>  <inspiration_score>  (728) 
None

>  <energy_score>  (728) 
-32.167412

>  <distance_score>  (728) 
1.583241

>  <gnina_score_min>  (728) 
5.239

>  <inchikey>  (728) 
GICMVZYMLBRQSZ-UHFFFAOYSA-N

>  <exports>  (728) 
['/opt/xchem-fragalysis-2/maxwin/BulkDock/OUTPUTS/openbind_a71ev2a_c2_elabs_1LOUU54.sdf', '/opt/xchem-fragalysis-2/maxwin/BulkDock/OUTPUTS/openbind_a71ev2a_c2_elabs_1LSYIDY.sdf']

>  <name>  (728) 
P546341

>  <ref_pdb>  (728) 
A0884a

>  <subsites>  (728) 
None

>  <HIPPO Pose ID>  (728) 
546341

>  <ref_mols>  (728) 
A0884a

>  <HIPPO Compound ID>  (728) 
384986

>  <tags>  (728) 
openbind_a71ev2a_c2_elabs,syndirella_product,openbind_a71ev2a_c2_elabs_fragonly_scored_top80percent,openbind_a71ev2a_c2_elabs_scored,BulkDock Fragalysis export,openbind_a71ev2a_c2_elabs_scored_top80percent,openbind_a71ev2a_c2_elabs_activefrags_only_scored_5.2plus,syndirella_placed

>  <smina_score_min>  (728) 
-6.848

$$$$
P546342
     RDKit          3D

 21 22  0  0  0  0  0  0  0  0999 V2000
    3.5512   13.0206   28.2996 C   0  0  0  0  0  0  0  0  0  0  0  0
    4.4085   13.3475   27.3193 C   0  0  0  0  0  0  0  0  0  0  0  0
    4.4470   15.0903   26.6426 Br  0  0  0  0  0  0  0  0  0  0  0  0
    5.3373   12.2633   26.7891 C   0  0  0  0  0  0  0  0  0  0  0  0
    5.2862   11.1712   27.2044 O   0  0  0  0  0  0  0  0  0  0  0  0
    6.2566   12.8843   25.7049 N   0  0  0  0  0  0  0  0  0  0  0  0
    7.3310   12.3315   24.9992 C   0  0  0  0  0  0  0  0  0  0  0  0
    7.5481   10.9543   25.0526 C   0  0  0  0  0  0  0  0  0  0  0  0
    8.6238   10.3971   24.3785 C   0  0  0  0  0  0  0  0  0  0  0  0
    9.5426   11.2254   23.7575 C   0  0  0  0  0  0  0  0  0  0  0  0
   10.5959   10.6543   23.1756 F   0  0  0  0  0  0  0  0  0  0  0  0
    9.3880   12.6120   23.7197 C   0  0  0  0  0  0  0  0  0  0  0  0
   10.4603   13.3959   23.2311 N   0  0  0  0  0  0  0  0  0  0  0  0
   10.4876   14.0752   22.0483 C   0  0  0  0  0  0  0  0  0  0  0  0
    9.5718   14.2239   21.2568 O   0  0  0  0  0  0  0  0  0  0  0  0
   11.8702   14.6436   21.8259 C   0  0  0  0  0  0  0  0  0  0  0  0
   12.5293   14.2079   23.0058 N   0  0  0  0  0  0  0  0  0  0  0  0
   11.7053   13.4451   23.7924 C   0  0  0  0  0  0  0  0  0  0  0  0
   12.0804   12.9812   24.8538 O   0  0  0  0  0  0  0  0  0  0  0  0
    8.2017   13.1665   24.2523 C   0  0  0  0  0  0  0  0  0  0  0  0
    7.8857   14.6275   24.1142 C   0  0  0  0  0  0  0  0  0  0  0  0
  1  2  2  0
  2  3  1  0
  2  4  1  0
  4  5  2  0
  4  6  1  0
  6  7  1  0
  7  8  2  0
  8  9  1  0
  9 10  2  0
 10 11  1  0
 10 12  1  0
 12 13  1  0
 13 14  1  0
 14 15  2  0
 14 16  1  0
 16 17  1  0
 17 18  1  0
 18 19  2  0
 12 20  2  0
 20 21  1  0
 20  7  1  0
 18 13  1  0
M  END
>  <alias>  (729) 
None

>  <rmsd(smina/fragmenstein)>  (729) 
0.71

>  <smiles>  (729) 
C=C(Br)C(=O)Nc1ccc(F)c(N2C(=O)CNC2=O)c1C

>  <gnina_score>  (729) 
5.311

>  <inspiration_score>  (729) 
None

>  <energy_score>  (729) 
-47.44576

>  <distance_score>  (729) 
1.595259

>  <gnina_score_min>  (729) 
5.276

>  <inchikey>  (729) 
GZSYJXHGSTXQAN-UHFFFAOYSA-N

>  <exports>  (729) 
['/opt/xchem-fragalysis-2/maxwin/BulkDock/OUTPUTS/openbind_a71ev2a_c2_elabs_1LOUU54.sdf', '/opt/xchem-fragalysis-2/maxwin/BulkDock/OUTPUTS/openbind_a71ev2a_c2_elabs_1LSYIDY.sdf']

>  <name>  (729) 
P546342

>  <ref_pdb>  (729) 
A0884a

>  <subsites>  (729) 
None

>  <HIPPO Pose ID>  (729) 
546342

>  <ref_mols>  (729) 
A0884a

>  <HIPPO Compound ID>  (729) 
384989

>  <tags>  (729) 
openbind_a71ev2a_c2_elabs,syndirella_product,openbind_a71ev2a_c2_elabs_fragonly_scored_top80percent,openbind_a71ev2a_c2_elabs_scored,BulkDock Fragalysis export,openbind_a71ev2a_c2_elabs_scored_top80percent,openbind_a71ev2a_c2_elabs_activefrags_only_scored_5.2plus,syndirella_placed

>  <smina_score_min>  (729) 
-6.536

$$$$
P546344
     RDKit          3D

 21 22  0  0  0  0  0  0  0  0999 V2000
    3.5153   13.5198   28.1035 C   0  0  0  0  0  0  0  0  0  0  0  0
    4.4571   13.7818   27.1832 C   0  0  0  0  0  0  0  0  0  0  0  0
    4.7052   15.5267   26.5578 Br  0  0  0  0  0  0  0  0  0  0  0  0
    5.3091   12.6244   26.6799 C   0  0  0  0  0  0  0  0  0  0  0  0
    5.1284   11.5342   27.0621 O   0  0  0  0  0  0  0  0  0  0  0  0
    6.3227   13.1699   25.6403 N   0  0  0  0  0  0  0  0  0  0  0  0
    7.3473   12.5260   24.9532 C   0  0  0  0  0  0  0  0  0  0  0  0
    7.5550   11.1547   25.0541 C   0  0  0  0  0  0  0  0  0  0  0  0
    8.6018   10.5728   24.3480 C   0  0  0  0  0  0  0  0  0  0  0  0
    8.7502    9.2448   24.3851 F   0  0  0  0  0  0  0  0  0  0  0  0
    9.4803   11.3361   23.5910 C   0  0  0  0  0  0  0  0  0  0  0  0
    9.2725   12.7109   23.4848 C   0  0  0  0  0  0  0  0  0  0  0  0
   10.1573   13.4934   22.6978 N   0  0  0  0  0  0  0  0  0  0  0  0
    9.5950   14.4411   21.7484 C   0  0  0  0  0  0  0  0  0  0  0  0
   10.5673   14.9073   20.6866 C   0  0  0  0  0  0  0  0  0  0  0  0
   11.9803   14.5535   21.0275 C   0  0  0  0  0  0  0  0  0  0  0  0
   12.8302   14.3625   20.1628 O   0  0  0  0  0  0  0  0  0  0  0  0
   12.2461   14.4792   22.3608 N   0  0  0  0  0  0  0  0  0  0  0  0
   11.4540   13.7048   23.1635 C   0  0  0  0  0  0  0  0  0  0  0  0
   11.9033   13.2345   24.2068 O   0  0  0  0  0  0  0  0  0  0  0  0
    8.1851   13.2975   24.1421 C   0  0  0  0  0  0  0  0  0  0  0  0
  1  2  2  0
  2  3  1  0
  2  4  1  0
  4  5  2  0
  4  6  1  0
  6  7  1  0
  7  8  2  0
  8  9  1  0
  9 10  1  0
  9 11  2  0
 11 12  1  0
 12 13  1  0
 13 14  1  0
 14 15  1  0
 15 16  1  0
 16 17  2  0
 16 18  1  0
 18 19  1  0
 19 20  2  0
 12 21  2  0
 21  7  1  0
 19 13  1  0
M  END
>  <alias>  (730) 
None

>  <rmsd(smina/fragmenstein)>  (730) 
0.355

>  <smiles>  (730) 
C=C(Br)C(=O)Nc1cc(F)cc(N2CCC(=O)NC2=O)c1

>  <gnina_score>  (730) 
5.22

>  <inspiration_score>  (730) 
None

>  <energy_score>  (730) 
-14.75831

>  <distance_score>  (730) 
1.182846

>  <gnina_score_min>  (730) 
5.329

>  <inchikey>  (730) 
LNHKKNQQFKMOFV-UHFFFAOYSA-N

>  <exports>  (730) 
['/opt/xchem-fragalysis-2/maxwin/BulkDock/OUTPUTS/openbind_a71ev2a_c2_elabs_1LOUU54.sdf', '/opt/xchem-fragalysis-2/maxwin/BulkDock/OUTPUTS/openbind_a71ev2a_c2_elabs_1LSYIDY.sdf']

>  <name>  (730) 
P546344

>  <ref_pdb>  (730) 
A0884a

>  <subsites>  (730) 
None

>  <HIPPO Pose ID>  (730) 
546344

>  <ref_mols>  (730) 
A0884a

>  <HIPPO Compound ID>  (730) 
384991

>  <tags>  (730) 
openbind_a71ev2a_c2_elabs,syndirella_product,openbind_a71ev2a_c2_elabs_fragonly_scored_top80percent,openbind_a71ev2a_c2_elabs_scored,BulkDock Fragalysis export,openbind_a71ev2a_c2_elabs_scored_top80percent,openbind_a71ev2a_c2_elabs_activefrags_only_scored_5.2plus,syndirella_placed

>  <smina_score_min>  (730) 
-6.931

$$$$
P546346
     RDKit          3D

 21 22  0  0  0  0  0  0  0  0999 V2000
    3.6992   13.7446   27.7625 C   0  0  0  0  0  0  0  0  0  0  0  0
    4.4567   13.8320   26.6574 C   0  0  0  0  0  0  0  0  0  0  0  0
    4.3716   15.3526   25.5725 Br  0  0  0  0  0  0  0  0  0  0  0  0
    5.3676   12.6600   26.3193 C   0  0  0  0  0  0  0  0  0  0  0  0
    5.3380   11.6726   26.9465 O   0  0  0  0  0  0  0  0  0  0  0  0
    6.2377   13.0473   25.0942 N   0  0  0  0  0  0  0  0  0  0  0  0
    7.2821   12.3593   24.4680 C   0  0  0  0  0  0  0  0  0  0  0  0
    7.5245   11.0229   24.7970 C   0  0  0  0  0  0  0  0  0  0  0  0
    8.5389   10.3166   24.1608 C   0  0  0  0  0  0  0  0  0  0  0  0
    9.4009   10.9748   23.2950 C   0  0  0  0  0  0  0  0  0  0  0  0
    9.2627   12.3589   23.0557 C   0  0  0  0  0  0  0  0  0  0  0  0
   10.5077   13.0440   23.0594 N   0  0  0  0  0  0  0  0  0  0  0  0
   10.9444   14.1335   22.3769 C   0  0  0  0  0  0  0  0  0  0  0  0
   10.6528   14.5277   21.2643 O   0  0  0  0  0  0  0  0  0  0  0  0
   11.8414   14.8321   23.1757 N   0  0  0  0  0  0  0  0  0  0  0  0
   12.0985   14.1691   24.4114 C   0  0  1  0  0  0  0  0  0  0  0  0
   11.8457   14.9525   25.7074 C   0  0  0  0  0  0  0  0  0  0  0  0
   11.0010   13.1872   24.3063 C   0  0  0  0  0  0  0  0  0  0  0  0
   10.5267   12.6616   25.2949 O   0  0  0  0  0  0  0  0  0  0  0  0
    8.1019   13.0244   23.5252 C   0  0  0  0  0  0  0  0  0  0  0  0
    7.8075   14.4489   23.1471 C   0  0  0  0  0  0  0  0  0  0  0  0
  1  2  2  0
  2  3  1  0
  2  4  1  0
  4  5  2  0
  4  6  1  0
  6  7  1  0
  7  8  2  0
  8  9  1  0
  9 10  2  0
 10 11  1  0
 11 12  1  0
 12 13  1  0
 13 14  2  0
 13 15  1  0
 15 16  1  0
 16 17  1  1
 16 18  1  0
 18 19  2  0
 11 20  2  0
 20 21  1  0
 20  7  1  0
 18 12  1  0
M  END
>  <alias>  (731) 
None

>  <rmsd(smina/fragmenstein)>  (731) 
0.307

>  <smiles>  (731) 
C=C(Br)C(=O)Nc1cccc(N2C(=O)N[C@@H](C)C2=O)c1C

>  <gnina_score>  (731) 
5.327

>  <inspiration_score>  (731) 
None

>  <energy_score>  (731) 
-0.848895

>  <distance_score>  (731) 
1.376607

>  <gnina_score_min>  (731) 
5.324

>  <inchikey>  (731) 
CVYSGWJORGZHCM-VIFPVBQESA-N

>  <exports>  (731) 
['/opt/xchem-fragalysis-2/maxwin/BulkDock/OUTPUTS/openbind_a71ev2a_c2_elabs_1LOUU54.sdf', '/opt/xchem-fragalysis-2/maxwin/BulkDock/OUTPUTS/openbind_a71ev2a_c2_elabs_1LSYIDY.sdf']

>  <name>  (731) 
P546346

>  <ref_pdb>  (731) 
A0884a

>  <subsites>  (731) 
None

>  <HIPPO Pose ID>  (731) 
546346

>  <ref_mols>  (731) 
A0884a

>  <HIPPO Compound ID>  (731) 
384992

>  <tags>  (731) 
openbind_a71ev2a_c2_elabs,syndirella_product,openbind_a71ev2a_c2_elabs_fragonly_scored_top80percent,openbind_a71ev2a_c2_elabs_scored,BulkDock Fragalysis export,openbind_a71ev2a_c2_elabs_scored_top80percent,openbind_a71ev2a_c2_elabs_activefrags_only_scored_5.2plus,syndirella_placed

>  <smina_score_min>  (731) 
-4.599

$$$$
P546347
     RDKit          3D

 21 22  0  0  0  0  0  0  0  0999 V2000
    3.3640   13.5525   28.0139 C   0  0  0  0  0  0  0  0  0  0  0  0
    4.2519   13.7742   27.0315 C   0  0  0  0  0  0  0  0  0  0  0  0
    4.2884   15.4188   26.1430 Br  0  0  0  0  0  0  0  0  0  0  0  0
    5.2075   12.6484   26.6628 C   0  0  0  0  0  0  0  0  0  0  0  0
    5.0782   11.5769   27.1136 O   0  0  0  0  0  0  0  0  0  0  0  0
    6.2670   13.2018   25.6741 N   0  0  0  0  0  0  0  0  0  0  0  0
    7.2898   12.5528   24.9888 C   0  0  0  0  0  0  0  0  0  0  0  0
    7.5077   11.1803   25.1190 C   0  0  0  0  0  0  0  0  0  0  0  0
    8.5512   10.5769   24.4199 C   0  0  0  0  0  0  0  0  0  0  0  0
    9.4011   11.3543   23.6441 C   0  0  0  0  0  0  0  0  0  0  0  0
   10.3746   10.7415   22.9665 F   0  0  0  0  0  0  0  0  0  0  0  0
    9.2028   12.7308   23.5071 C   0  0  0  0  0  0  0  0  0  0  0  0
   10.0956   13.5102   22.7194 N   0  0  0  0  0  0  0  0  0  0  0  0
    9.5461   14.4465   21.7522 C   0  0  0  0  0  0  0  0  0  0  0  0
   10.5313   14.9123   20.7011 C   0  0  0  0  0  0  0  0  0  0  0  0
   11.9462   14.5836   21.0589 C   0  0  0  0  0  0  0  0  0  0  0  0
   12.8213   14.4531   20.2071 O   0  0  0  0  0  0  0  0  0  0  0  0
   12.1984   14.4684   22.3918 N   0  0  0  0  0  0  0  0  0  0  0  0
   11.3926   13.7005   23.1863 C   0  0  0  0  0  0  0  0  0  0  0  0
   11.8319   13.2338   24.2366 O   0  0  0  0  0  0  0  0  0  0  0  0
    8.1167   13.3205   24.1596 C   0  0  0  0  0  0  0  0  0  0  0  0
  1  2  2  0
  2  3  1  0
  2  4  1  0
  4  5  2  0
  4  6  1  0
  6  7  1  0
  7  8  2  0
  8  9  1  0
  9 10  2  0
 10 11  1  0
 10 12  1  0
 12 13  1  0
 13 14  1  0
 14 15  1  0
 15 16  1  0
 16 17  2  0
 16 18  1  0
 18 19  1  0
 19 20  2  0
 12 21  2  0
 21  7  1  0
 19 13  1  0
M  END
>  <alias>  (732) 
None

>  <rmsd(smina/fragmenstein)>  (732) 
0.588

>  <smiles>  (732) 
C=C(Br)C(=O)Nc1ccc(F)c(N2CCC(=O)NC2=O)c1

>  <gnina_score>  (732) 
5.372

>  <inspiration_score>  (732) 
None

>  <energy_score>  (732) 
-13.830103

>  <distance_score>  (732) 
1.225681

>  <gnina_score_min>  (732) 
5.33

>  <inchikey>  (732) 
ZVGDRWFWRDMORG-UHFFFAOYSA-N

>  <exports>  (732) 
['/opt/xchem-fragalysis-2/maxwin/BulkDock/OUTPUTS/openbind_a71ev2a_c2_elabs_1LOUU54.sdf', '/opt/xchem-fragalysis-2/maxwin/BulkDock/OUTPUTS/openbind_a71ev2a_c2_elabs_1LSYIDY.sdf']

>  <name>  (732) 
P546347

>  <ref_pdb>  (732) 
A0884a

>  <subsites>  (732) 
None

>  <HIPPO Pose ID>  (732) 
546347

>  <ref_mols>  (732) 
A0884a

>  <HIPPO Compound ID>  (732) 
384994

>  <tags>  (732) 
openbind_a71ev2a_c2_elabs,syndirella_product,openbind_a71ev2a_c2_elabs_fragonly_scored_top80percent,openbind_a71ev2a_c2_elabs_scored,BulkDock Fragalysis export,openbind_a71ev2a_c2_elabs_scored_top80percent,openbind_a71ev2a_c2_elabs_activefrags_only_scored_5.2plus,syndirella_placed

>  <smina_score_min>  (732) 
-6.896

$$$$
P546349
     RDKit          3D

 21 22  0  0  0  0  0  0  0  0999 V2000
    3.5688   11.5902   28.5757 C   0  0  0  0  0  0  0  0  0  0  0  0
    4.5914   10.8870   28.0608 C   0  0  0  0  0  0  0  0  0  0  0  0
    4.7643    9.0802   28.4447 Br  0  0  0  0  0  0  0  0  0  0  0  0
    5.6084   11.6409   27.2274 C   0  0  0  0  0  0  0  0  0  0  0  0
    5.7107   12.7984   27.3801 O   0  0  0  0  0  0  0  0  0  0  0  0
    6.3804   10.6751   26.2759 N   0  0  0  0  0  0  0  0  0  0  0  0
    7.3345   10.9441   25.2869 C   0  0  0  0  0  0  0  0  0  0  0  0
    8.0415    9.9533   24.6240 C   0  0  0  0  0  0  0  0  0  0  0  0
    9.0814   10.2722   23.7415 C   0  0  0  0  0  0  0  0  0  0  0  0
    9.8317    9.2551   22.9447 C   0  0  0  0  0  0  0  0  0  0  0  0
    9.4830   11.5950   23.6306 C   0  0  0  0  0  0  0  0  0  0  0  0
    8.8356   12.5906   24.3505 C   0  0  0  0  0  0  0  0  0  0  0  0
    9.4609   13.8499   24.5931 N   0  0  0  0  0  0  0  0  0  0  0  0
    8.9225   14.6973   25.6695 C   0  0  0  0  0  0  0  0  0  0  0  0
    9.9075   15.1515   26.7205 C   0  0  0  0  0  0  0  0  0  0  0  0
   11.3387   15.0093   26.3092 C   0  0  0  0  0  0  0  0  0  0  0  0
   12.2123   15.6132   26.9215 O   0  0  0  0  0  0  0  0  0  0  0  0
   11.6396   14.2762   25.2099 N   0  0  0  0  0  0  0  0  0  0  0  0
   10.7807   14.0153   24.1848 C   0  0  0  0  0  0  0  0  0  0  0  0
   11.2301   13.8906   23.0508 O   0  0  0  0  0  0  0  0  0  0  0  0
    7.6622   12.2600   25.0242 C   0  0  0  0  0  0  0  0  0  0  0  0
  1  2  2  0
  2  3  1  0
  2  4  1  0
  4  5  2  0
  4  6  1  0
  6  7  1  0
  7  8  2  0
  8  9  1  0
  9 10  1  0
  9 11  2  0
 11 12  1  0
 12 13  1  0
 13 14  1  0
 14 15  1  0
 15 16  1  0
 16 17  2  0
 16 18  1  0
 18 19  1  0
 19 20  2  0
 12 21  2  0
 21  7  1  0
 19 13  1  0
M  END
>  <alias>  (733) 
None

>  <rmsd(smina/fragmenstein)>  (733) 
0.445

>  <smiles>  (733) 
C=C(Br)C(=O)Nc1cc(C)cc(N2CCC(=O)NC2=O)c1

>  <gnina_score>  (733) 
5.292

>  <inspiration_score>  (733) 
None

>  <energy_score>  (733) 
-6.589983

>  <distance_score>  (733) 
1.392022

>  <gnina_score_min>  (733) 
5.243

>  <inchikey>  (733) 
VCDQWHRCLSVFDO-UHFFFAOYSA-N

>  <exports>  (733) 
['/opt/xchem-fragalysis-2/maxwin/BulkDock/OUTPUTS/openbind_a71ev2a_c2_elabs_1LOUU54.sdf', '/opt/xchem-fragalysis-2/maxwin/BulkDock/OUTPUTS/openbind_a71ev2a_c2_elabs_1LSYIDY.sdf']

>  <name>  (733) 
P546349

>  <ref_pdb>  (733) 
A0884a

>  <subsites>  (733) 
None

>  <HIPPO Pose ID>  (733) 
546349

>  <ref_mols>  (733) 
A0884a

>  <HIPPO Compound ID>  (733) 
384997

>  <tags>  (733) 
openbind_a71ev2a_c2_elabs,syndirella_product,openbind_a71ev2a_c2_elabs_fragonly_scored_top80percent,openbind_a71ev2a_c2_elabs_scored,BulkDock Fragalysis export,openbind_a71ev2a_c2_elabs_scored_top80percent,openbind_a71ev2a_c2_elabs_activefrags_only_scored_5.2plus,syndirella_placed

>  <smina_score_min>  (733) 
-5.109

$$$$
P546350
     RDKit          3D

 21 22  0  0  0  0  0  0  0  0999 V2000
    3.8655   12.5417   28.4083 C   0  0  0  0  0  0  0  0  0  0  0  0
    4.6882   13.0565   27.4804 C   0  0  0  0  0  0  0  0  0  0  0  0
    4.6541   14.8872   27.1003 Br  0  0  0  0  0  0  0  0  0  0  0  0
    5.6387   12.1090   26.7611 C   0  0  0  0  0  0  0  0  0  0  0  0
    5.6093   10.9586   26.9661 O   0  0  0  0  0  0  0  0  0  0  0  0
    6.5210   12.9338   25.7898 N   0  0  0  0  0  0  0  0  0  0  0  0
    7.5742   12.5403   24.9709 C   0  0  0  0  0  0  0  0  0  0  0  0
    7.9279   11.1991   24.8125 C   0  0  0  0  0  0  0  0  0  0  0  0
    8.9984   10.8775   23.9826 C   0  0  0  0  0  0  0  0  0  0  0  0
    9.4477    9.2772   23.6433 Cl  0  0  0  0  0  0  0  0  0  0  0  0
    9.7428   11.8602   23.3636 C   0  0  0  0  0  0  0  0  0  0  0  0
    9.3957   13.1919   23.5308 C   0  0  0  0  0  0  0  0  0  0  0  0
   10.1678   14.1803   22.8733 N   0  0  0  0  0  0  0  0  0  0  0  0
    9.6412   14.5808   21.5665 C   0  0  0  0  0  0  0  0  0  0  0  0
   10.5946   15.3858   20.7290 C   0  0  0  0  0  0  0  0  0  0  0  0
   11.9660   14.8123   20.9046 C   0  0  0  0  0  0  0  0  0  0  0  0
   12.6840   14.4516   19.9780 O   0  0  0  0  0  0  0  0  0  0  0  0
   12.3505   14.7416   22.2117 N   0  0  0  0  0  0  0  0  0  0  0  0
   11.5315   14.1959   23.1539 C   0  0  0  0  0  0  0  0  0  0  0  0
   12.0123   13.7169   24.1824 O   0  0  0  0  0  0  0  0  0  0  0  0
    8.2898   13.5381   24.3014 C   0  0  0  0  0  0  0  0  0  0  0  0
  1  2  2  0
  2  3  1  0
  2  4  1  0
  4  5  2  0
  4  6  1  0
  6  7  1  0
  7  8  2  0
  8  9  1  0
  9 10  1  0
  9 11  2  0
 11 12  1  0
 12 13  1  0
 13 14  1  0
 14 15  1  0
 15 16  1  0
 16 17  2  0
 16 18  1  0
 18 19  1  0
 19 20  2  0
 12 21  2  0
 21  7  1  0
 19 13  1  0
M  END
>  <alias>  (734) 
None

>  <rmsd(smina/fragmenstein)>  (734) 
0.46

>  <smiles>  (734) 
C=C(Br)C(=O)Nc1cc(Cl)cc(N2CCC(=O)NC2=O)c1

>  <gnina_score>  (734) 
5.467

>  <inspiration_score>  (734) 
None

>  <energy_score>  (734) 
-33.45928

>  <distance_score>  (734) 
1.227871

>  <gnina_score_min>  (734) 
5.58

>  <inchikey>  (734) 
MTZHSXPGXKMXFW-UHFFFAOYSA-N

>  <exports>  (734) 
['/opt/xchem-fragalysis-2/maxwin/BulkDock/OUTPUTS/openbind_a71ev2a_c2_elabs_1LOUU54.sdf', '/opt/xchem-fragalysis-2/maxwin/BulkDock/OUTPUTS/openbind_a71ev2a_c2_elabs_1LSYIDY.sdf']

>  <name>  (734) 
P546350

>  <ref_pdb>  (734) 
A0884a

>  <subsites>  (734) 
None

>  <HIPPO Pose ID>  (734) 
546350

>  <ref_mols>  (734) 
A0884a

>  <HIPPO Compound ID>  (734) 
384998

>  <tags>  (734) 
openbind_a71ev2a_c2_elabs,syndirella_product,openbind_a71ev2a_c2_elabs_fragonly_scored_top80percent,BulkDock Fragalysis export,openbind_a71ev2a_c2_elabs_scored,openbind_a71ev2a_c2_elabs_scored_top80percent,openbind_a71ev2a_c2_elabs_activefrags_only_scored_5.2plus,openbind_a71ev2a_c2_elabs_activefrags_only_scored_5.5plus,syndirella_placed

>  <smina_score_min>  (734) 
-7.082

$$$$
P546351
     RDKit          3D

 21 22  0  0  0  0  0  0  0  0999 V2000
    4.8995   15.2760   27.1628 C   0  0  0  0  0  0  0  0  0  0  0  0
    4.3897   14.0618   26.9026 C   0  0  0  0  0  0  0  0  0  0  0  0
    2.5571   13.7277   27.0725 Br  0  0  0  0  0  0  0  0  0  0  0  0
    5.2819   12.8830   26.5794 C   0  0  0  0  0  0  0  0  0  0  0  0
    5.1396   11.8467   27.1023 O   0  0  0  0  0  0  0  0  0  0  0  0
    6.3381   13.3492   25.5358 N   0  0  0  0  0  0  0  0  0  0  0  0
    7.3420   12.6305   24.8746 C   0  0  0  0  0  0  0  0  0  0  0  0
    8.1716   13.3716   24.0225 C   0  0  0  0  0  0  0  0  0  0  0  0
    9.2763   12.7793   23.4009 C   0  0  0  0  0  0  0  0  0  0  0  0
   10.1684   13.5516   22.6129 N   0  0  0  0  0  0  0  0  0  0  0  0
    9.6218   14.5018   21.6537 C   0  0  0  0  0  0  0  0  0  0  0  0
   10.5988   14.9251   20.5780 C   0  0  0  0  0  0  0  0  0  0  0  0
   12.0085   14.5859   20.9443 C   0  0  0  0  0  0  0  0  0  0  0  0
   12.8708   14.3762   20.0957 O   0  0  0  0  0  0  0  0  0  0  0  0
   12.2605   14.5307   22.2813 N   0  0  0  0  0  0  0  0  0  0  0  0
   11.4687   13.7493   23.0771 C   0  0  0  0  0  0  0  0  0  0  0  0
   11.9220   13.2623   24.1122 O   0  0  0  0  0  0  0  0  0  0  0  0
    9.5076   11.4125   23.5645 C   0  0  0  0  0  0  0  0  0  0  0  0
    8.6474   10.6521   24.3522 C   0  0  0  0  0  0  0  0  0  0  0  0
    7.5929   11.2650   25.0281 C   0  0  0  0  0  0  0  0  0  0  0  0
    6.8310   10.4915   25.8076 F   0  0  0  0  0  0  0  0  0  0  0  0
  1  2  2  0
  2  3  1  0
  2  4  1  0
  4  5  2  0
  4  6  1  0
  6  7  1  0
  7  8  2  0
  8  9  1  0
  9 10  1  0
 10 11  1  0
 11 12  1  0
 12 13  1  0
 13 14  2  0
 13 15  1  0
 15 16  1  0
 16 17  2  0
  9 18  2  0
 18 19  1  0
 19 20  2  0
 20 21  1  0
 20  7  1  0
 16 10  1  0
M  END
>  <alias>  (735) 
None

>  <rmsd(smina/fragmenstein)>  (735) 
0.828

>  <smiles>  (735) 
C=C(Br)C(=O)Nc1cc(N2CCC(=O)NC2=O)ccc1F

>  <gnina_score>  (735) 
5.386

>  <inspiration_score>  (735) 
None

>  <energy_score>  (735) 
-28.981159

>  <distance_score>  (735) 
1.259454

>  <gnina_score_min>  (735) 
5.276

>  <inchikey>  (735) 
COSHWERPHOYGTL-UHFFFAOYSA-N

>  <exports>  (735) 
['/opt/xchem-fragalysis-2/maxwin/BulkDock/OUTPUTS/openbind_a71ev2a_c2_elabs_1LOUU54.sdf', '/opt/xchem-fragalysis-2/maxwin/BulkDock/OUTPUTS/openbind_a71ev2a_c2_elabs_1LSYIDY.sdf']

>  <name>  (735) 
P546351

>  <ref_pdb>  (735) 
A0884a

>  <subsites>  (735) 
None

>  <HIPPO Pose ID>  (735) 
546351

>  <ref_mols>  (735) 
A0884a

>  <HIPPO Compound ID>  (735) 
384999

>  <tags>  (735) 
openbind_a71ev2a_c2_elabs,syndirella_product,openbind_a71ev2a_c2_elabs_fragonly_scored_top80percent,openbind_a71ev2a_c2_elabs_scored,BulkDock Fragalysis export,openbind_a71ev2a_c2_elabs_scored_top80percent,openbind_a71ev2a_c2_elabs_activefrags_only_scored_5.2plus,syndirella_placed

>  <smina_score_min>  (735) 
-7.047

$$$$
P546353
     RDKit          3D

 21 22  0  0  0  0  0  0  0  0999 V2000
   13.0146   15.5208   21.5079 O   0  0  0  0  0  0  0  0  0  0  0  0
   12.2111   14.8561   22.1457 C   0  0  0  0  0  0  0  0  0  0  0  0
   12.5841   13.6861   22.9847 C   0  0  0  0  0  0  0  0  0  0  0  0
   11.4564   13.3089   23.9042 C   0  0  0  0  0  0  0  0  0  0  0  0
   10.2282   13.1412   23.1577 N   0  0  0  0  0  0  0  0  0  0  0  0
    9.1481   12.5054   23.8447 C   0  0  0  0  0  0  0  0  0  0  0  0
    8.1590   13.3108   24.4343 C   0  0  0  0  0  0  0  0  0  0  0  0
    7.1295   12.7467   25.1897 C   0  0  0  0  0  0  0  0  0  0  0  0
    6.1453   13.5805   25.7070 N   0  0  0  0  0  0  0  0  0  0  0  0
    4.8960   13.2502   26.6029 C   0  0  0  0  0  0  0  0  0  0  0  0
    4.5611   12.2390   27.0971 O   0  0  0  0  0  0  0  0  0  0  0  0
    4.0970   14.5688   26.7110 C   0  0  0  0  0  0  0  0  0  0  0  0
    5.0500   15.7209   27.6751 Cl  0  0  0  0  0  0  0  0  0  0  0  0
    2.5118   14.2918   27.4627 Cl  0  0  0  0  0  0  0  0  0  0  0  0
    7.0895   11.3702   25.3815 C   0  0  0  0  0  0  0  0  0  0  0  0
    8.0356   10.5584   24.7627 C   0  0  0  0  0  0  0  0  0  0  0  0
    9.0480   11.1154   23.9833 C   0  0  0  0  0  0  0  0  0  0  0  0
   10.0476   10.0081   23.1482 Cl  0  0  0  0  0  0  0  0  0  0  0  0
    9.9397   14.1372   22.2410 C   0  0  0  0  0  0  0  0  0  0  0  0
    8.8933   14.2115   21.6128 O   0  0  0  0  0  0  0  0  0  0  0  0
   10.8820   15.0953   22.0571 N   0  0  0  0  0  0  0  0  0  0  0  0
  1  2  2  0
  2  3  1  0
  3  4  1  0
  4  5  1  0
  5  6  1  0
  6  7  2  0
  7  8  1  0
  8  9  1  0
  9 10  1  0
 10 11  2  0
 10 12  1  0
 12 13  1  0
 12 14  1  0
  8 15  2  0
 15 16  1  0
 16 17  2  0
 17 18  1  0
  5 19  1  0
 19 20  2  0
 19 21  1  0
 21  2  1  0
 17  6  1  0
M  END
>  <alias>  (736) 
None

>  <rmsd(smina/fragmenstein)>  (736) 
0.912

>  <smiles>  (736) 
O=C1CCN(c2cc(NC(=O)C(Cl)Cl)ccc2Cl)C(=O)N1

>  <gnina_score>  (736) 
5.664

>  <inspiration_score>  (736) 
None

>  <energy_score>  (736) 
-29.266162

>  <distance_score>  (736) 
1.922212

>  <gnina_score_min>  (736) 
5.574

>  <inchikey>  (736) 
CMXCGKJAZHEVCN-UHFFFAOYSA-N

>  <exports>  (736) 
['/opt/xchem-fragalysis-2/maxwin/BulkDock/OUTPUTS/openbind_a71ev2a_c2_elabs_1LOUU54.sdf', '/opt/xchem-fragalysis-2/maxwin/BulkDock/OUTPUTS/openbind_a71ev2a_c2_elabs_1LSYIDY.sdf']

>  <name>  (736) 
P546353

>  <ref_pdb>  (736) 
A0884a

>  <subsites>  (736) 
None

>  <HIPPO Pose ID>  (736) 
546353

>  <ref_mols>  (736) 
A0884a

>  <HIPPO Compound ID>  (736) 
385001

>  <tags>  (736) 
openbind_a71ev2a_c2_elabs,syndirella_product,openbind_a71ev2a_c2_elabs_fragonly_scored_top80percent,BulkDock Fragalysis export,openbind_a71ev2a_c2_elabs_scored,openbind_a71ev2a_c2_elabs_scored_top80percent,openbind_a71ev2a_c2_elabs_activefrags_only_scored_5.2plus,openbind_a71ev2a_c2_elabs_activefrags_only_scored_5.5plus,syndirella_placed

>  <smina_score_min>  (736) 
-7.106

$$$$
P546356
     RDKit          3D

 21 22  0  0  0  0  0  0  0  0999 V2000
    9.0916    9.5562   23.8910 C   0  0  0  0  0  0  0  0  0  0  0  0
    8.8208   10.9976   24.1111 C   0  0  0  0  0  0  0  0  0  0  0  0
    7.7429   11.4525   24.8813 C   0  0  0  0  0  0  0  0  0  0  0  0
    7.4710   12.8184   24.9546 C   0  0  0  0  0  0  0  0  0  0  0  0
    6.4090   13.3243   25.6963 N   0  0  0  0  0  0  0  0  0  0  0  0
    5.3449   12.5872   26.5861 C   0  0  0  0  0  0  0  0  0  0  0  0
    5.2566   11.4554   26.8843 O   0  0  0  0  0  0  0  0  0  0  0  0
    4.3222   13.6672   27.0028 C   0  0  0  0  0  0  0  0  0  0  0  0
    2.9082   12.9402   27.8035 Cl  0  0  0  0  0  0  0  0  0  0  0  0
    5.1180   14.8184   28.0998 Cl  0  0  0  0  0  0  0  0  0  0  0  0
    8.2730   13.7240   24.2616 C   0  0  0  0  0  0  0  0  0  0  0  0
    9.3778   13.2662   23.5493 C   0  0  0  0  0  0  0  0  0  0  0  0
   10.2026   14.1759   22.8496 N   0  0  0  0  0  0  0  0  0  0  0  0
    9.6771   14.5838   21.5456 C   0  0  0  0  0  0  0  0  0  0  0  0
   10.6396   15.3766   20.7087 C   0  0  0  0  0  0  0  0  0  0  0  0
   12.0030   14.7841   20.8808 C   0  0  0  0  0  0  0  0  0  0  0  0
   12.7125   14.4100   19.9525 O   0  0  0  0  0  0  0  0  0  0  0  0
   12.3878   14.7031   22.1875 N   0  0  0  0  0  0  0  0  0  0  0  0
   11.5644   14.1563   23.1260 C   0  0  0  0  0  0  0  0  0  0  0  0
   12.0435   13.6602   24.1474 O   0  0  0  0  0  0  0  0  0  0  0  0
    9.6468   11.9073   23.4664 C   0  0  0  0  0  0  0  0  0  0  0  0
  1  2  1  0
  2  3  2  0
  3  4  1  0
  4  5  1  0
  5  6  1  0
  6  7  2  0
  6  8  1  0
  8  9  1  0
  8 10  1  0
  4 11  2  0
 11 12  1  0
 12 13  1  0
 13 14  1  0
 14 15  1  0
 15 16  1  0
 16 17  2  0
 16 18  1  0
 18 19  1  0
 19 20  2  0
 12 21  2  0
 21  2  1  0
 19 13  1  0
M  END
>  <alias>  (737) 
None

>  <rmsd(smina/fragmenstein)>  (737) 
0.719

>  <smiles>  (737) 
Cc1cc(NC(=O)C(Cl)Cl)cc(N2CCC(=O)NC2=O)c1

>  <gnina_score>  (737) 
5.397

>  <inspiration_score>  (737) 
None

>  <energy_score>  (737) 
-6.182754

>  <distance_score>  (737) 
1.345595

>  <gnina_score_min>  (737) 
5.469

>  <inchikey>  (737) 
LINMUSHQTOVRHU-UHFFFAOYSA-N

>  <exports>  (737) 
['/opt/xchem-fragalysis-2/maxwin/BulkDock/OUTPUTS/openbind_a71ev2a_c2_elabs_1LOUU54.sdf', '/opt/xchem-fragalysis-2/maxwin/BulkDock/OUTPUTS/openbind_a71ev2a_c2_elabs_1LSYIDY.sdf']

>  <name>  (737) 
P546356

>  <ref_pdb>  (737) 
A0884a

>  <subsites>  (737) 
None

>  <HIPPO Pose ID>  (737) 
546356

>  <ref_mols>  (737) 
A0884a

>  <HIPPO Compound ID>  (737) 
385006

>  <tags>  (737) 
openbind_a71ev2a_c2_elabs,syndirella_product,openbind_a71ev2a_c2_elabs_fragonly_scored_top80percent,openbind_a71ev2a_c2_elabs_scored,BulkDock Fragalysis export,openbind_a71ev2a_c2_elabs_scored_top80percent,openbind_a71ev2a_c2_elabs_activefrags_only_scored_5.2plus,syndirella_placed

>  <smina_score_min>  (737) 
-6.898

$$$$
P546357
     RDKit          3D

 21 22  0  0  0  0  0  0  0  0999 V2000
   12.3697   15.8902   23.2397 O   0  0  0  0  0  0  0  0  0  0  0  0
   12.0594   14.8654   22.6674 C   0  0  0  0  0  0  0  0  0  0  0  0
   12.5705   13.5469   23.0603 C   0  0  0  0  0  0  0  0  0  0  0  0
   11.4124   12.9333   23.7623 C   0  0  0  0  0  0  0  0  0  0  0  0
   10.1927   12.9791   22.9751 N   0  0  0  0  0  0  0  0  0  0  0  0
    9.0999   12.3441   23.6167 C   0  0  0  0  0  0  0  0  0  0  0  0
    9.1557   10.9687   23.8389 C   0  0  0  0  0  0  0  0  0  0  0  0
    8.1979   10.3731   24.6460 C   0  0  0  0  0  0  0  0  0  0  0  0
    7.2133   11.1447   25.2612 C   0  0  0  0  0  0  0  0  0  0  0  0
    6.3646   10.5143   26.0788 F   0  0  0  0  0  0  0  0  0  0  0  0
    7.1177   12.5141   25.0167 C   0  0  0  0  0  0  0  0  0  0  0  0
    6.1575   13.3631   25.5740 N   0  0  0  0  0  0  0  0  0  0  0  0
    5.0428   13.0783   26.6409 C   0  0  0  0  0  0  0  0  0  0  0  0
    4.7176   12.0717   27.1508 O   0  0  0  0  0  0  0  0  0  0  0  0
    4.3710   14.4176   26.9820 C   0  0  0  0  0  0  0  0  0  0  0  0
    3.6769   15.1397   25.5215 Cl  0  0  0  0  0  0  0  0  0  0  0  0
    5.5749   15.4948   27.7246 Cl  0  0  0  0  0  0  0  0  0  0  0  0
    8.0587   13.1033   24.1676 C   0  0  0  0  0  0  0  0  0  0  0  0
    9.9962   14.0251   22.0879 C   0  0  0  0  0  0  0  0  0  0  0  0
    8.9106   14.3247   21.6079 O   0  0  0  0  0  0  0  0  0  0  0  0
   11.0560   14.8086   21.7775 N   0  0  0  0  0  0  0  0  0  0  0  0
  1  2  2  0
  2  3  1  0
  3  4  1  0
  4  5  1  0
  5  6  1  0
  6  7  2  0
  7  8  1  0
  8  9  2  0
  9 10  1  0
  9 11  1  0
 11 12  1  0
 12 13  1  0
 13 14  2  0
 13 15  1  0
 15 16  1  0
 15 17  1  0
 11 18  2  0
  5 19  1  0
 19 20  2  0
 19 21  1  0
 21  2  1  0
 18  6  1  0
M  END
>  <alias>  (738) 
None

>  <rmsd(smina/fragmenstein)>  (738) 
1.139

>  <smiles>  (738) 
O=C1CCN(c2ccc(F)c(NC(=O)C(Cl)Cl)c2)C(=O)N1

>  <gnina_score>  (738) 
5.555

>  <inspiration_score>  (738) 
None

>  <energy_score>  (738) 
-22.928849

>  <distance_score>  (738) 
1.837134

>  <gnina_score_min>  (738) 
5.387

>  <inchikey>  (738) 
QNYWSFKDCGMDDJ-UHFFFAOYSA-N

>  <exports>  (738) 
['/opt/xchem-fragalysis-2/maxwin/BulkDock/OUTPUTS/openbind_a71ev2a_c2_elabs_1LOUU54.sdf', '/opt/xchem-fragalysis-2/maxwin/BulkDock/OUTPUTS/openbind_a71ev2a_c2_elabs_1LSYIDY.sdf']

>  <name>  (738) 
P546357

>  <ref_pdb>  (738) 
A0884a

>  <subsites>  (738) 
None

>  <HIPPO Pose ID>  (738) 
546357

>  <ref_mols>  (738) 
A0884a

>  <HIPPO Compound ID>  (738) 
385007

>  <tags>  (738) 
openbind_a71ev2a_c2_elabs,syndirella_product,openbind_a71ev2a_c2_elabs_fragonly_scored_top80percent,openbind_a71ev2a_c2_elabs_scored,BulkDock Fragalysis export,openbind_a71ev2a_c2_elabs_scored_top80percent,openbind_a71ev2a_c2_elabs_activefrags_only_scored_5.2plus,syndirella_placed

>  <smina_score_min>  (738) 
-6.42

$$$$
P546358
     RDKit          3D

 21 22  0  0  0  0  0  0  0  0999 V2000
    9.9430   10.2165   23.0112 C   0  0  0  0  0  0  0  0  0  0  0  0
    9.0905   11.1417   23.8165 C   0  0  0  0  0  0  0  0  0  0  0  0
    8.1353   10.5397   24.6504 C   0  0  0  0  0  0  0  0  0  0  0  0
    7.2761   11.3039   25.4326 C   0  0  0  0  0  0  0  0  0  0  0  0
    7.4037   12.6869   25.4342 C   0  0  0  0  0  0  0  0  0  0  0  0
    6.5775   13.4438   26.2551 N   0  0  0  0  0  0  0  0  0  0  0  0
    6.6865   14.9403   26.7049 C   0  0  0  0  0  0  0  0  0  0  0  0
    7.4465   15.7752   26.3872 O   0  0  0  0  0  0  0  0  0  0  0  0
    5.5822   15.2032   27.7404 C   0  0  0  0  0  0  0  0  0  0  0  0
    6.0120   14.3462   29.2424 Cl  0  0  0  0  0  0  0  0  0  0  0  0
    4.0040   14.6297   27.1510 Cl  0  0  0  0  0  0  0  0  0  0  0  0
    8.3555   13.2998   24.6197 C   0  0  0  0  0  0  0  0  0  0  0  0
    9.1971   12.5432   23.7925 C   0  0  0  0  0  0  0  0  0  0  0  0
   10.1033   13.2252   22.9162 N   0  0  0  0  0  0  0  0  0  0  0  0
    9.5174   14.2375   22.0427 C   0  0  0  0  0  0  0  0  0  0  0  0
   10.4416   14.7469   20.9584 C   0  0  0  0  0  0  0  0  0  0  0  0
   11.8822   14.5255   21.2904 C   0  0  0  0  0  0  0  0  0  0  0  0
   12.7583   14.5431   20.4290 O   0  0  0  0  0  0  0  0  0  0  0  0
   12.1542   14.3185   22.6087 N   0  0  0  0  0  0  0  0  0  0  0  0
   11.3814   13.5124   23.4047 C   0  0  0  0  0  0  0  0  0  0  0  0
   11.8458   13.0795   24.4564 O   0  0  0  0  0  0  0  0  0  0  0  0
  1  2  1  0
  2  3  2  0
  3  4  1  0
  4  5  2  0
  5  6  1  0
  6  7  1  0
  7  8  2  0
  7  9  1  0
  9 10  1  0
  9 11  1  0
  5 12  1  0
 12 13  2  0
 13 14  1  0
 14 15  1  0
 15 16  1  0
 16 17  1  0
 17 18  2  0
 17 19  1  0
 19 20  1  0
 20 21  2  0
 13  2  1  0
 20 14  1  0
M  END
>  <alias>  (739) 
None

>  <rmsd(smina/fragmenstein)>  (739) 
0.829

>  <smiles>  (739) 
Cc1ccc(NC(=O)C(Cl)Cl)cc1N1CCC(=O)NC1=O

>  <gnina_score>  (739) 
5.341

>  <inspiration_score>  (739) 
None

>  <energy_score>  (739) 
-23.344793

>  <distance_score>  (739) 
1.822868

>  <gnina_score_min>  (739) 
5.3

>  <inchikey>  (739) 
FSRHFDWFCIJICL-UHFFFAOYSA-N

>  <exports>  (739) 
['/opt/xchem-fragalysis-2/maxwin/BulkDock/OUTPUTS/openbind_a71ev2a_c2_elabs_1LOUU54.sdf', '/opt/xchem-fragalysis-2/maxwin/BulkDock/OUTPUTS/openbind_a71ev2a_c2_elabs_1LSYIDY.sdf']

>  <name>  (739) 
P546358

>  <ref_pdb>  (739) 
A0884a

>  <subsites>  (739) 
None

>  <HIPPO Pose ID>  (739) 
546358

>  <ref_mols>  (739) 
A0884a

>  <HIPPO Compound ID>  (739) 
385008

>  <tags>  (739) 
openbind_a71ev2a_c2_elabs,syndirella_product,openbind_a71ev2a_c2_elabs_fragonly_scored_top80percent,openbind_a71ev2a_c2_elabs_scored,BulkDock Fragalysis export,openbind_a71ev2a_c2_elabs_scored_top80percent,openbind_a71ev2a_c2_elabs_activefrags_only_scored_5.2plus,syndirella_placed

>  <smina_score_min>  (739) 
-6.855

$$$$
P546380
     RDKit          3D

 22 23  0  0  0  0  0  0  0  0999 V2000
    2.9570   15.1952   28.2972 C   0  0  0  0  0  0  0  0  0  0  0  0
    3.6371   13.9128   27.8368 C   0  0  0  0  0  0  0  0  0  0  0  0
    4.5166   14.0992   26.5953 C   0  0  2  0  0  0  0  0  0  0  0  0
    3.5256   14.5430   25.1759 Cl  0  0  0  0  0  0  0  0  0  0  0  0
    5.3177   12.8198   26.2679 C   0  0  0  0  0  0  0  0  0  0  0  0
    5.2563   11.8424   26.9132 O   0  0  0  0  0  0  0  0  0  0  0  0
    6.2184   13.1658   25.0355 N   0  0  0  0  0  0  0  0  0  0  0  0
    7.2519   12.4393   24.4335 C   0  0  0  0  0  0  0  0  0  0  0  0
    7.4704   11.1079   24.7994 C   0  0  0  0  0  0  0  0  0  0  0  0
    8.4816   10.3700   24.1927 C   0  0  0  0  0  0  0  0  0  0  0  0
    9.3653   10.9949   23.3227 C   0  0  0  0  0  0  0  0  0  0  0  0
    9.2509   12.3759   23.0492 C   0  0  0  0  0  0  0  0  0  0  0  0
   10.5049   13.0462   23.0581 N   0  0  0  0  0  0  0  0  0  0  0  0
   10.9599   14.1292   22.3768 C   0  0  0  0  0  0  0  0  0  0  0  0
   10.6853   14.5237   21.2599 O   0  0  0  0  0  0  0  0  0  0  0  0
   11.8577   14.8204   23.1810 N   0  0  0  0  0  0  0  0  0  0  0  0
   12.1005   14.1562   24.4190 C   0  0  1  0  0  0  0  0  0  0  0  0
   11.8466   14.9461   25.7108 C   0  0  0  0  0  0  0  0  0  0  0  0
   10.9944   13.1836   24.3076 C   0  0  0  0  0  0  0  0  0  0  0  0
   10.5106   12.6615   25.2938 O   0  0  0  0  0  0  0  0  0  0  0  0
    8.0916   13.0665   23.4828 C   0  0  0  0  0  0  0  0  0  0  0  0
    7.8057   14.4766   23.0496 C   0  0  0  0  0  0  0  0  0  0  0  0
  1  2  1  0
  2  3  1  0
  3  4  1  6
  3  5  1  0
  5  6  2  0
  5  7  1  0
  7  8  1  0
  8  9  2  0
  9 10  1  0
 10 11  2  0
 11 12  1  0
 12 13  1  0
 13 14  1  0
 14 15  2  0
 14 16  1  0
 16 17  1  0
 17 18  1  1
 17 19  1  0
 19 20  2  0
 12 21  2  0
 21 22  1  0
 21  8  1  0
 19 13  1  0
M  END
>  <alias>  (740) 
None

>  <rmsd(smina/fragmenstein)>  (740) 
1.036

>  <smiles>  (740) 
CC[C@H](Cl)C(=O)Nc1cccc(N2C(=O)N[C@@H](C)C2=O)c1C

>  <gnina_score>  (740) 
5.434

>  <inspiration_score>  (740) 
None

>  <energy_score>  (740) 
-7.910819

>  <distance_score>  (740) 
1.421386

>  <gnina_score_min>  (740) 
5.491

>  <inchikey>  (740) 
WREUTABJEIHYQE-UWVGGRQHSA-N

>  <exports>  (740) 
['/opt/xchem-fragalysis-2/maxwin/BulkDock/OUTPUTS/openbind_a71ev2a_c2_elabs_1LOUU54.sdf', '/opt/xchem-fragalysis-2/maxwin/BulkDock/OUTPUTS/openbind_a71ev2a_c2_elabs_1LSYIDY.sdf']

>  <name>  (740) 
P546380

>  <ref_pdb>  (740) 
A0884a

>  <subsites>  (740) 
None

>  <HIPPO Pose ID>  (740) 
546380

>  <ref_mols>  (740) 
A0884a

>  <HIPPO Compound ID>  (740) 
385018

>  <tags>  (740) 
openbind_a71ev2a_c2_elabs,syndirella_product,openbind_a71ev2a_c2_elabs_fragonly_scored_top80percent,openbind_a71ev2a_c2_elabs_scored,BulkDock Fragalysis export,openbind_a71ev2a_c2_elabs_scored_top80percent,openbind_a71ev2a_c2_elabs_activefrags_only_scored_5.2plus,syndirella_placed

>  <smina_score_min>  (740) 
-4.75

$$$$
P546382
     RDKit          3D

 22 23  0  0  0  0  0  0  0  0999 V2000
    3.5974   13.1968   29.7790 C   0  0  0  0  0  0  0  0  0  0  0  0
    3.3953   13.9386   28.4618 C   0  0  0  0  0  0  0  0  0  0  0  0
    4.6624   14.1670   27.6282 C   0  0  1  0  0  0  0  0  0  0  0  0
    5.9221   15.0265   28.5659 Cl  0  0  0  0  0  0  0  0  0  0  0  0
    5.2545   12.8696   27.0353 C   0  0  0  0  0  0  0  0  0  0  0  0
    4.7483   11.8195   27.1554 O   0  0  0  0  0  0  0  0  0  0  0  0
    6.5188   13.2974   26.2192 N   0  0  0  0  0  0  0  0  0  0  0  0
    7.4277   12.5324   25.4963 C   0  0  0  0  0  0  0  0  0  0  0  0
    7.2960   11.1581   25.3569 C   0  0  0  0  0  0  0  0  0  0  0  0
    8.2323   10.4649   24.6008 C   0  0  0  0  0  0  0  0  0  0  0  0
    8.1329    9.1379   24.4957 F   0  0  0  0  0  0  0  0  0  0  0  0
    9.2913   11.1041   23.9765 C   0  0  0  0  0  0  0  0  0  0  0  0
    9.4676   12.4752   24.1645 C   0  0  0  0  0  0  0  0  0  0  0  0
   10.5920   13.1419   23.6027 N   0  0  0  0  0  0  0  0  0  0  0  0
   10.8203   12.9465   22.1946 C   0  0  0  0  0  0  0  0  0  0  0  0
   12.2092   13.3774   21.8028 C   0  0  0  0  0  0  0  0  0  0  0  0
   12.3306   14.8039   22.1334 C   0  0  0  0  0  0  0  0  0  0  0  0
   12.8429   15.6235   21.3890 O   0  0  0  0  0  0  0  0  0  0  0  0
   11.8761   15.0819   23.3819 N   0  0  0  0  0  0  0  0  0  0  0  0
   11.1840   14.2347   24.2127 C   0  0  0  0  0  0  0  0  0  0  0  0
   11.1163   14.4587   25.4182 O   0  0  0  0  0  0  0  0  0  0  0  0
    8.5150   13.1848   24.9080 C   0  0  0  0  0  0  0  0  0  0  0  0
  1  2  1  0
  2  3  1  0
  3  4  1  1
  3  5  1  0
  5  6  2  0
  5  7  1  0
  7  8  1  0
  8  9  2  0
  9 10  1  0
 10 11  1  0
 10 12  2  0
 12 13  1  0
 13 14  1  0
 14 15  1  0
 15 16  1  0
 16 17  1  0
 17 18  2  0
 17 19  1  0
 19 20  1  0
 20 21  2  0
 13 22  2  0
 22  8  1  0
 20 14  1  0
M  END
>  <alias>  (741) 
None

>  <rmsd(smina/fragmenstein)>  (741) 
2.02

>  <smiles>  (741) 
CC[C@@H](Cl)C(=O)Nc1cc(F)cc(N2CCC(=O)NC2=O)c1

>  <gnina_score>  (741) 
4.794

>  <inspiration_score>  (741) 
None

>  <energy_score>  (741) 
-45.067081

>  <distance_score>  (741) 
1.344395

>  <gnina_score_min>  (741) 
5.34

>  <inchikey>  (741) 
UZIOCONGUVDXDU-LLVKDONJSA-N

>  <exports>  (741) 
['/opt/xchem-fragalysis-2/maxwin/BulkDock/OUTPUTS/openbind_a71ev2a_c2_elabs_1LOUU54.sdf', '/opt/xchem-fragalysis-2/maxwin/BulkDock/OUTPUTS/openbind_a71ev2a_c2_elabs_1LSYIDY.sdf']

>  <name>  (741) 
P546382

>  <ref_pdb>  (741) 
A0884a

>  <subsites>  (741) 
None

>  <HIPPO Pose ID>  (741) 
546382

>  <ref_mols>  (741) 
A0884a

>  <HIPPO Compound ID>  (741) 
385019

>  <tags>  (741) 
openbind_a71ev2a_c2_elabs,syndirella_product,openbind_a71ev2a_c2_elabs_fragonly_scored_top80percent,openbind_a71ev2a_c2_elabs_scored,BulkDock Fragalysis export,openbind_a71ev2a_c2_elabs_scored_top80percent,openbind_a71ev2a_c2_elabs_activefrags_only_scored_5.2plus,syndirella_placed

>  <smina_score_min>  (741) 
-5.721

$$$$
P546385
     RDKit          3D

 22 23  0  0  0  0  0  0  0  0999 V2000
    3.6356   12.7607   29.4741 C   0  0  0  0  0  0  0  0  0  0  0  0
    3.1797   13.0015   28.0389 C   0  0  0  0  0  0  0  0  0  0  0  0
    4.2761   13.4340   27.0571 C   0  0  1  0  0  0  0  0  0  0  0  0
    5.1314   14.8983   27.6313 Cl  0  0  0  0  0  0  0  0  0  0  0  0
    5.3050   12.3261   26.7461 C   0  0  0  0  0  0  0  0  0  0  0  0
    5.2481   11.2458   27.1951 O   0  0  0  0  0  0  0  0  0  0  0  0
    6.3131   12.9461   25.7251 N   0  0  0  0  0  0  0  0  0  0  0  0
    7.3565   12.3545   25.0072 C   0  0  0  0  0  0  0  0  0  0  0  0
    7.5433   10.9744   25.0674 C   0  0  0  0  0  0  0  0  0  0  0  0
    8.6041   10.3926   24.3893 C   0  0  0  0  0  0  0  0  0  0  0  0
    9.5361   11.1974   23.7551 C   0  0  0  0  0  0  0  0  0  0  0  0
   10.5725   10.5995   23.1687 F   0  0  0  0  0  0  0  0  0  0  0  0
    9.4078   12.5864   23.7063 C   0  0  0  0  0  0  0  0  0  0  0  0
   10.4888   13.3467   23.1991 N   0  0  0  0  0  0  0  0  0  0  0  0
   10.5039   14.0605   22.0365 C   0  0  0  0  0  0  0  0  0  0  0  0
    9.5824   14.2265   21.2546 O   0  0  0  0  0  0  0  0  0  0  0  0
   11.8804   14.6466   21.8229 C   0  0  0  0  0  0  0  0  0  0  0  0
   12.5488   14.1830   22.9867 N   0  0  0  0  0  0  0  0  0  0  0  0
   11.7293   13.4108   23.7690 C   0  0  0  0  0  0  0  0  0  0  0  0
   12.1046   12.9572   24.8349 O   0  0  0  0  0  0  0  0  0  0  0  0
    8.2373   13.1659   24.2464 C   0  0  0  0  0  0  0  0  0  0  0  0
    7.9458   14.6311   24.1086 C   0  0  0  0  0  0  0  0  0  0  0  0
  1  2  1  0
  2  3  1  0
  3  4  1  1
  3  5  1  0
  5  6  2  0
  5  7  1  0
  7  8  1  0
  8  9  2  0
  9 10  1  0
 10 11  2  0
 11 12  1  0
 11 13  1  0
 13 14  1  0
 14 15  1  0
 15 16  2  0
 15 17  1  0
 17 18  1  0
 18 19  1  0
 19 20  2  0
 13 21  2  0
 21 22  1  0
 21  8  1  0
 19 14  1  0
M  END
>  <alias>  (742) 
None

>  <rmsd(smina/fragmenstein)>  (742) 
0.998

>  <smiles>  (742) 
CC[C@@H](Cl)C(=O)Nc1ccc(F)c(N2C(=O)CNC2=O)c1C

>  <gnina_score>  (742) 
5.352

>  <inspiration_score>  (742) 
None

>  <energy_score>  (742) 
-44.315137

>  <distance_score>  (742) 
1.602863

>  <gnina_score_min>  (742) 
5.376

>  <inchikey>  (742) 
XYWXIFJTGZUZFW-MRVPVSSYSA-N

>  <exports>  (742) 
['/opt/xchem-fragalysis-2/maxwin/BulkDock/OUTPUTS/openbind_a71ev2a_c2_elabs_1LOUU54.sdf', '/opt/xchem-fragalysis-2/maxwin/BulkDock/OUTPUTS/openbind_a71ev2a_c2_elabs_1LSYIDY.sdf']

>  <name>  (742) 
P546385

>  <ref_pdb>  (742) 
A0884a

>  <subsites>  (742) 
None

>  <HIPPO Pose ID>  (742) 
546385

>  <ref_mols>  (742) 
A0884a

>  <HIPPO Compound ID>  (742) 
385021

>  <tags>  (742) 
openbind_a71ev2a_c2_elabs,syndirella_product,openbind_a71ev2a_c2_elabs_fragonly_scored_top80percent,openbind_a71ev2a_c2_elabs_scored,BulkDock Fragalysis export,openbind_a71ev2a_c2_elabs_scored_top80percent,openbind_a71ev2a_c2_elabs_activefrags_only_scored_5.2plus,syndirella_placed

>  <smina_score_min>  (742) 
-6.321

$$$$
P546391
     RDKit          3D

 22 24  0  0  0  0  0  0  0  0999 V2000
    9.9556   10.3121   23.0606 C   0  0  0  0  0  0  0  0  0  0  0  0
    9.0587   11.2276   23.8291 C   0  0  0  0  0  0  0  0  0  0  0  0
    8.1310   10.6116   24.6827 C   0  0  0  0  0  0  0  0  0  0  0  0
    7.1855   11.3574   25.3792 C   0  0  0  0  0  0  0  0  0  0  0  0
    7.1533   12.7375   25.2297 C   0  0  0  0  0  0  0  0  0  0  0  0
    6.1889   13.5219   25.8561 N   0  0  0  0  0  0  0  0  0  0  0  0
    5.0346   13.1273   26.8001 C   0  0  0  0  0  0  0  0  0  0  0  0
    4.7559   12.0930   27.2633 O   0  0  0  0  0  0  0  0  0  0  0  0
    4.2285   14.3437   27.1553 C   0  0  0  0  0  0  0  0  0  0  0  0
    4.7392   15.0949   28.2738 O   0  0  0  0  0  0  0  0  0  0  0  0
    2.7279   14.3357   27.0234 C   0  0  0  0  0  0  0  0  0  0  0  0
    3.5567   15.1607   26.0823 C   0  0  0  0  0  0  0  0  0  0  0  0
    8.0916   13.3673   24.4058 C   0  0  0  0  0  0  0  0  0  0  0  0
    9.0613   12.6292   23.7082 C   0  0  0  0  0  0  0  0  0  0  0  0
    9.9961   13.3176   22.8661 N   0  0  0  0  0  0  0  0  0  0  0  0
    9.4616   14.3108   21.9420 C   0  0  0  0  0  0  0  0  0  0  0  0
   10.4335   14.7873   20.8849 C   0  0  0  0  0  0  0  0  0  0  0  0
   11.8592   14.5607   21.2684 C   0  0  0  0  0  0  0  0  0  0  0  0
   12.7660   14.5927   20.4403 O   0  0  0  0  0  0  0  0  0  0  0  0
   12.0914   14.3311   22.5896 N   0  0  0  0  0  0  0  0  0  0  0  0
   11.2792   13.5483   23.3674 C   0  0  0  0  0  0  0  0  0  0  0  0
   11.7126   13.1027   24.4280 O   0  0  0  0  0  0  0  0  0  0  0  0
  1  2  1  0
  2  3  2  0
  3  4  1  0
  4  5  2  0
  5  6  1  0
  6  7  1  0
  7  8  2  0
  7  9  1  0
  9 10  1  0
  9 11  1  0
 11 12  1  0
  5 13  1  0
 13 14  2  0
 14 15  1  0
 15 16  1  0
 16 17  1  0
 17 18  1  0
 18 19  2  0
 18 20  1  0
 20 21  1  0
 21 22  2  0
 14  2  1  0
 21 15  1  0
 12  9  1  0
M  END
>  <alias>  (743) 
None

>  <rmsd(smina/fragmenstein)>  (743) 
1.012

>  <smiles>  (743) 
Cc1ccc(NC(=O)C2(O)CC2)cc1N1CCC(=O)NC1=O

>  <gnina_score>  (743) 
5.324

>  <inspiration_score>  (743) 
None

>  <energy_score>  (743) 
-14.528388

>  <distance_score>  (743) 
1.384158

>  <gnina_score_min>  (743) 
5.257

>  <inchikey>  (743) 
URYRMMWTMNQTPH-UHFFFAOYSA-N

>  <exports>  (743) 
['/opt/xchem-fragalysis-2/maxwin/BulkDock/OUTPUTS/openbind_a71ev2a_c2_elabs_1LOUU54.sdf', '/opt/xchem-fragalysis-2/maxwin/BulkDock/OUTPUTS/openbind_a71ev2a_c2_elabs_1LSYIDY.sdf']

>  <name>  (743) 
P546391

>  <ref_pdb>  (743) 
A0884a

>  <subsites>  (743) 
None

>  <HIPPO Pose ID>  (743) 
546391

>  <ref_mols>  (743) 
A0884a

>  <HIPPO Compound ID>  (743) 
385026

>  <tags>  (743) 
openbind_a71ev2a_c2_elabs,syndirella_product,openbind_a71ev2a_c2_elabs_fragonly_scored_top80percent,openbind_a71ev2a_c2_elabs_scored,BulkDock Fragalysis export,openbind_a71ev2a_c2_elabs_scored_top80percent,openbind_a71ev2a_c2_elabs_activefrags_only_scored_5.2plus,syndirella_placed

>  <smina_score_min>  (743) 
-6.994

$$$$
P546392
     RDKit          3D

 22 23  0  0  0  0  0  0  0  0999 V2000
    2.7273   14.3491   25.4533 C   0  0  0  0  0  0  0  0  0  0  0  0
    3.8062   15.0951   26.2229 C   0  0  0  0  0  0  0  0  0  0  0  0
    4.5141   14.2167   27.2556 C   0  0  2  0  0  0  0  0  0  0  0  0
    5.7367   15.1897   28.1437 Cl  0  0  0  0  0  0  0  0  0  0  0  0
    5.2266   12.9660   26.6972 C   0  0  0  0  0  0  0  0  0  0  0  0
    4.9001   11.8822   27.0024 O   0  0  0  0  0  0  0  0  0  0  0  0
    6.3464   13.4479   25.7203 N   0  0  0  0  0  0  0  0  0  0  0  0
    7.3110   12.7253   25.0253 C   0  0  0  0  0  0  0  0  0  0  0  0
    7.4411   11.3404   25.1428 C   0  0  0  0  0  0  0  0  0  0  0  0
    8.4602   10.6794   24.4540 C   0  0  0  0  0  0  0  0  0  0  0  0
    9.3544   11.4069   23.6759 C   0  0  0  0  0  0  0  0  0  0  0  0
   10.2978   10.7430   23.0017 F   0  0  0  0  0  0  0  0  0  0  0  0
    9.2257   12.7913   23.5353 C   0  0  0  0  0  0  0  0  0  0  0  0
   10.1312   13.5261   22.7212 N   0  0  0  0  0  0  0  0  0  0  0  0
    9.5865   14.4399   21.7284 C   0  0  0  0  0  0  0  0  0  0  0  0
   10.5781   14.8991   20.6814 C   0  0  0  0  0  0  0  0  0  0  0  0
   11.9806   14.5097   21.0230 C   0  0  0  0  0  0  0  0  0  0  0  0
   12.8306   14.3035   20.1623 O   0  0  0  0  0  0  0  0  0  0  0  0
   12.2464   14.4391   22.3573 N   0  0  0  0  0  0  0  0  0  0  0  0
   11.4292   13.7148   23.1813 C   0  0  0  0  0  0  0  0  0  0  0  0
   11.8594   13.2865   24.2512 O   0  0  0  0  0  0  0  0  0  0  0  0
    8.1862   13.4424   24.2035 C   0  0  0  0  0  0  0  0  0  0  0  0
  1  2  1  0
  2  3  1  0
  3  4  1  6
  3  5  1  0
  5  6  2  0
  5  7  1  0
  7  8  1  0
  8  9  2  0
  9 10  1  0
 10 11  2  0
 11 12  1  0
 11 13  1  0
 13 14  1  0
 14 15  1  0
 15 16  1  0
 16 17  1  0
 17 18  2  0
 17 19  1  0
 19 20  1  0
 20 21  2  0
 13 22  2  0
 22  8  1  0
 20 14  1  0
M  END
>  <alias>  (744) 
None

>  <rmsd(smina/fragmenstein)>  (744) 
0.341

>  <smiles>  (744) 
CC[C@H](Cl)C(=O)Nc1ccc(F)c(N2CCC(=O)NC2=O)c1

>  <gnina_score>  (744) 
5.578

>  <inspiration_score>  (744) 
None

>  <energy_score>  (744) 
-38.424322

>  <distance_score>  (744) 
1.281708

>  <gnina_score_min>  (744) 
5.529

>  <inchikey>  (744) 
NSCPCCFHNJVULS-VIFPVBQESA-N

>  <exports>  (744) 
['/opt/xchem-fragalysis-2/maxwin/BulkDock/OUTPUTS/openbind_a71ev2a_c2_elabs_1LOUU54.sdf', '/opt/xchem-fragalysis-2/maxwin/BulkDock/OUTPUTS/openbind_a71ev2a_c2_elabs_1LSYIDY.sdf']

>  <name>  (744) 
P546392

>  <ref_pdb>  (744) 
A0884a

>  <subsites>  (744) 
None

>  <HIPPO Pose ID>  (744) 
546392

>  <ref_mols>  (744) 
A0884a

>  <HIPPO Compound ID>  (744) 
385028

>  <tags>  (744) 
openbind_a71ev2a_c2_elabs,syndirella_product,openbind_a71ev2a_c2_elabs_fragonly_scored_top80percent,BulkDock Fragalysis export,openbind_a71ev2a_c2_elabs_scored,openbind_a71ev2a_c2_elabs_scored_top80percent,openbind_a71ev2a_c2_elabs_activefrags_only_scored_5.2plus,openbind_a71ev2a_c2_elabs_activefrags_only_scored_5.5plus,syndirella_placed

>  <smina_score_min>  (744) 
-6.72

$$$$
P546396
     RDKit          3D

 22 23  0  0  0  0  0  0  0  0999 V2000
    4.4829   11.6210   29.7717 C   0  0  0  0  0  0  0  0  0  0  0  0
    4.0948   12.6019   28.7087 C   0  0  0  0  0  0  0  0  0  0  0  0
    2.8579   13.7228   29.2028 Cl  0  0  0  0  0  0  0  0  0  0  0  0
    4.5945   12.7212   27.4691 C   0  0  0  0  0  0  0  0  0  0  0  0
    5.5946   11.7709   26.9005 C   0  0  0  0  0  0  0  0  0  0  0  0
    5.6672   10.6573   27.2399 O   0  0  0  0  0  0  0  0  0  0  0  0
    6.3767   12.5399   25.8066 N   0  0  0  0  0  0  0  0  0  0  0  0
    7.4417   12.1332   24.9959 C   0  0  0  0  0  0  0  0  0  0  0  0
    7.8122   10.7889   24.9617 C   0  0  0  0  0  0  0  0  0  0  0  0
    8.8783   10.3725   24.1730 C   0  0  0  0  0  0  0  0  0  0  0  0
    9.6221   11.3079   23.4682 C   0  0  0  0  0  0  0  0  0  0  0  0
    9.2800   12.6659   23.4925 C   0  0  0  0  0  0  0  0  0  0  0  0
   10.1304   13.5655   22.7733 N   0  0  0  0  0  0  0  0  0  0  0  0
    9.6271   14.1974   21.6323 C   0  0  0  0  0  0  0  0  0  0  0  0
    8.4698   14.0613   21.2204 O   0  0  0  0  0  0  0  0  0  0  0  0
   10.5612   15.1431   20.9183 C   0  0  0  0  0  0  0  0  0  0  0  0
   11.9920   14.7279   21.1257 C   0  0  0  0  0  0  0  0  0  0  0  0
   12.2484   14.5368   22.5177 N   0  0  0  0  0  0  0  0  0  0  0  0
   11.4196   13.7599   23.2635 C   0  0  0  0  0  0  0  0  0  0  0  0
   11.8575   13.3427   24.3313 O   0  0  0  0  0  0  0  0  0  0  0  0
    8.1384   13.0860   24.2157 C   0  0  0  0  0  0  0  0  0  0  0  0
    7.6922   14.5236   24.2484 C   0  0  0  0  0  0  0  0  0  0  0  0
  1  2  1  0
  2  3  1  0
  2  4  2  0
  4  5  1  0
  5  6  2  0
  5  7  1  0
  7  8  1  0
  8  9  2  0
  9 10  1  0
 10 11  2  0
 11 12  1  0
 12 13  1  0
 13 14  1  0
 14 15  2  0
 14 16  1  0
 16 17  1  0
 17 18  1  0
 18 19  1  0
 19 20  2  0
 12 21  2  0
 21 22  1  0
 21  8  1  0
 19 13  1  0
M  END
>  <alias>  (745) 
None

>  <rmsd(smina/fragmenstein)>  (745) 
0.85

>  <smiles>  (745) 
C/C(Cl)=C\C(=O)Nc1cccc(N2C(=O)CCNC2=O)c1C

>  <gnina_score>  (745) 
5.349

>  <inspiration_score>  (745) 
None

>  <energy_score>  (745) 
-54.339821

>  <distance_score>  (745) 
1.347521

>  <gnina_score_min>  (745) 
5.322

>  <inchikey>  (745) 
AJQNFVPXPBODCR-CMDGGOBGSA-N

>  <exports>  (745) 
['/opt/xchem-fragalysis-2/maxwin/BulkDock/OUTPUTS/openbind_a71ev2a_c2_elabs_1LOUU54.sdf', '/opt/xchem-fragalysis-2/maxwin/BulkDock/OUTPUTS/openbind_a71ev2a_c2_elabs_1LSYIDY.sdf']

>  <name>  (745) 
P546396

>  <ref_pdb>  (745) 
A0884a

>  <subsites>  (745) 
None

>  <HIPPO Pose ID>  (745) 
546396

>  <ref_mols>  (745) 
A0884a

>  <HIPPO Compound ID>  (745) 
385031

>  <tags>  (745) 
openbind_a71ev2a_c2_elabs,syndirella_product,openbind_a71ev2a_c2_elabs_fragonly_scored_top80percent,openbind_a71ev2a_c2_elabs_scored,BulkDock Fragalysis export,openbind_a71ev2a_c2_elabs_scored_top80percent,openbind_a71ev2a_c2_elabs_activefrags_only_scored_5.2plus,syndirella_placed

>  <smina_score_min>  (745) 
-7.307

$$$$
P546398
     RDKit          3D

 22 23  0  0  0  0  0  0  0  0999 V2000
    7.7675   14.5179   24.7587 C   0  0  0  0  0  0  0  0  0  0  0  0
    7.9919   13.0295   24.6824 C   0  0  0  0  0  0  0  0  0  0  0  0
    7.1921   12.1465   25.4353 C   0  0  0  0  0  0  0  0  0  0  0  0
    6.2448   12.6539   26.3331 N   0  0  0  0  0  0  0  0  0  0  0  0
    5.2521   11.9141   27.2836 C   0  0  0  0  0  0  0  0  0  0  0  0
    5.1316   10.7737   27.5143 O   0  0  0  0  0  0  0  0  0  0  0  0
    4.3735   13.0365   27.8910 C   0  0  2  0  0  0  0  0  0  0  0  0
    5.1995   14.1393   28.2896 O   0  0  0  0  0  0  0  0  0  0  0  0
    3.5479   12.5525   29.0755 C   0  0  0  0  0  0  0  0  0  0  0  0
    1.8645   11.7594   28.4894 Br  0  0  0  0  0  0  0  0  0  0  0  0
    7.3807   10.7709   25.3093 C   0  0  0  0  0  0  0  0  0  0  0  0
    8.3707   10.2598   24.4693 C   0  0  0  0  0  0  0  0  0  0  0  0
    9.2134   11.1123   23.7771 C   0  0  0  0  0  0  0  0  0  0  0  0
    9.0429   12.4905   23.9020 C   0  0  0  0  0  0  0  0  0  0  0  0
   10.0375   13.2930   23.3315 N   0  0  0  0  0  0  0  0  0  0  0  0
    9.8684   14.0139   22.1858 C   0  0  0  0  0  0  0  0  0  0  0  0
    8.9870   13.9402   21.3550 O   0  0  0  0  0  0  0  0  0  0  0  0
   10.8263   14.9839   22.1167 N   0  0  0  0  0  0  0  0  0  0  0  0
   11.7554   14.8417   23.1695 C   0  0  2  0  0  0  0  0  0  0  0  0
   12.9558   14.1263   22.6874 C   0  0  0  0  0  0  0  0  0  0  0  0
   10.9726   13.9406   24.0924 C   0  0  0  0  0  0  0  0  0  0  0  0
   11.1949   13.8411   25.2918 O   0  0  0  0  0  0  0  0  0  0  0  0
  1  2  1  0
  2  3  2  0
  3  4  1  0
  4  5  1  0
  5  6  2  0
  5  7  1  0
  7  8  1  1
  7  9  1  0
  9 10  1  0
  3 11  1  0
 11 12  2  0
 12 13  1  0
 13 14  2  0
 14 15  1  0
 15 16  1  0
 16 17  2  0
 16 18  1  0
 18 19  1  0
 19 20  1  6
 19 21  1  0
 21 22  2  0
 14  2  1  0
 21 15  1  0
M  END
>  <alias>  (746) 
None

>  <rmsd(smina/fragmenstein)>  (746) 
1.007

>  <smiles>  (746) 
Cc1c(NC(=O)[C@H](O)CBr)cccc1N1C(=O)N[C@H](C)C1=O

>  <gnina_score>  (746) 
5.087

>  <inspiration_score>  (746) 
None

>  <energy_score>  (746) 
-31.432527

>  <distance_score>  (746) 
1.75321

>  <gnina_score_min>  (746) 
5.241

>  <inchikey>  (746) 
CSOOAEFZZSOJMW-LDYMZIIASA-N

>  <exports>  (746) 
['/opt/xchem-fragalysis-2/maxwin/BulkDock/OUTPUTS/openbind_a71ev2a_c2_elabs_1LOUU54.sdf', '/opt/xchem-fragalysis-2/maxwin/BulkDock/OUTPUTS/openbind_a71ev2a_c2_elabs_1LSYIDY.sdf']

>  <name>  (746) 
P546398

>  <ref_pdb>  (746) 
A0884a

>  <subsites>  (746) 
None

>  <HIPPO Pose ID>  (746) 
546398

>  <ref_mols>  (746) 
A0884a

>  <HIPPO Compound ID>  (746) 
385032

>  <tags>  (746) 
openbind_a71ev2a_c2_elabs,syndirella_product,openbind_a71ev2a_c2_elabs_fragonly_scored_top80percent,openbind_a71ev2a_c2_elabs_scored,BulkDock Fragalysis export,openbind_a71ev2a_c2_elabs_scored_top80percent,openbind_a71ev2a_c2_elabs_activefrags_only_scored_5.2plus,syndirella_placed

>  <smina_score_min>  (746) 
-5.9

$$$$
P546403
     RDKit          3D

 22 23  0  0  0  0  0  0  0  0999 V2000
    8.0750   14.5425   24.5341 C   0  0  0  0  0  0  0  0  0  0  0  0
    8.2502   13.0528   24.5237 C   0  0  0  0  0  0  0  0  0  0  0  0
    7.3596   12.2139   25.2307 C   0  0  0  0  0  0  0  0  0  0  0  0
    6.3354   12.7575   26.0091 N   0  0  0  0  0  0  0  0  0  0  0  0
    5.3536   12.0745   27.0122 C   0  0  0  0  0  0  0  0  0  0  0  0
    5.2057   10.9427   27.2781 O   0  0  0  0  0  0  0  0  0  0  0  0
    4.4950   13.1854   27.6630 C   0  0  1  0  0  0  0  0  0  0  0  0
    3.3778   12.6241   28.3573 O   0  0  0  0  0  0  0  0  0  0  0  0
    5.2976   14.0830   28.5958 C   0  0  0  0  0  0  0  0  0  0  0  0
    6.1643   13.0604   30.0207 Br  0  0  0  0  0  0  0  0  0  0  0  0
    7.4994   10.8274   25.1585 C   0  0  0  0  0  0  0  0  0  0  0  0
    8.4934   10.2632   24.3696 C   0  0  0  0  0  0  0  0  0  0  0  0
    9.3940   11.0778   23.7137 C   0  0  0  0  0  0  0  0  0  0  0  0
   10.3645   10.5009   23.0015 F   0  0  0  0  0  0  0  0  0  0  0  0
    9.3276   12.4655   23.8240 C   0  0  0  0  0  0  0  0  0  0  0  0
   10.4214   13.1851   23.3076 N   0  0  0  0  0  0  0  0  0  0  0  0
   11.3385   13.8372   24.0817 C   0  0  0  0  0  0  0  0  0  0  0  0
   11.4003   13.8797   25.3040 O   0  0  0  0  0  0  0  0  0  0  0  0
   12.2705   14.6030   23.1658 C   0  0  0  0  0  0  0  0  0  0  0  0
   11.6349   14.4309   21.9147 N   0  0  0  0  0  0  0  0  0  0  0  0
   10.4390   13.7855   22.0887 C   0  0  0  0  0  0  0  0  0  0  0  0
    9.5237   13.9128   21.2985 O   0  0  0  0  0  0  0  0  0  0  0  0
  1  2  1  0
  2  3  2  0
  3  4  1  0
  4  5  1  0
  5  6  2  0
  5  7  1  0
  7  8  1  1
  7  9  1  0
  9 10  1  0
  3 11  1  0
 11 12  2  0
 12 13  1  0
 13 14  1  0
 13 15  2  0
 15 16  1  0
 16 17  1  0
 17 18  2  0
 17 19  1  0
 19 20  1  0
 20 21  1  0
 21 22  2  0
 15  2  1  0
 21 16  1  0
M  END
>  <alias>  (747) 
None

>  <rmsd(smina/fragmenstein)>  (747) 
0.534

>  <smiles>  (747) 
Cc1c(NC(=O)[C@@H](O)CBr)ccc(F)c1N1C(=O)CNC1=O

>  <gnina_score>  (747) 
5.419

>  <inspiration_score>  (747) 
None

>  <energy_score>  (747) 
-35.899342

>  <distance_score>  (747) 
1.564973

>  <gnina_score_min>  (747) 
5.393

>  <inchikey>  (747) 
OBGYBFKWPWFIRY-VIFPVBQESA-N

>  <exports>  (747) 
['/opt/xchem-fragalysis-2/maxwin/BulkDock/OUTPUTS/openbind_a71ev2a_c2_elabs_1LOUU54.sdf', '/opt/xchem-fragalysis-2/maxwin/BulkDock/OUTPUTS/openbind_a71ev2a_c2_elabs_1LSYIDY.sdf']

>  <name>  (747) 
P546403

>  <ref_pdb>  (747) 
A0884a

>  <subsites>  (747) 
None

>  <HIPPO Pose ID>  (747) 
546403

>  <ref_mols>  (747) 
A0884a

>  <HIPPO Compound ID>  (747) 
385034

>  <tags>  (747) 
openbind_a71ev2a_c2_elabs,syndirella_product,openbind_a71ev2a_c2_elabs_fragonly_scored_top80percent,openbind_a71ev2a_c2_elabs_scored,BulkDock Fragalysis export,openbind_a71ev2a_c2_elabs_scored_top80percent,openbind_a71ev2a_c2_elabs_activefrags_only_scored_5.2plus,syndirella_placed

>  <smina_score_min>  (747) 
-6.264

$$$$
P546405
     RDKit          3D

 22 23  0  0  0  0  0  0  0  0999 V2000
    4.3655   14.5528   29.2109 C   0  0  0  0  0  0  0  0  0  0  0  0
    5.3335   13.7130   28.4371 C   0  0  0  0  0  0  0  0  0  0  0  0
    6.9970   14.0568   28.7774 Cl  0  0  0  0  0  0  0  0  0  0  0  0
    4.9497   12.7572   27.5782 C   0  0  0  0  0  0  0  0  0  0  0  0
    5.8765   11.8796   26.8167 C   0  0  0  0  0  0  0  0  0  0  0  0
    5.8518   10.7205   26.9366 O   0  0  0  0  0  0  0  0  0  0  0  0
    6.7099   12.7706   25.8697 N   0  0  0  0  0  0  0  0  0  0  0  0
    7.7187   12.4384   24.9719 C   0  0  0  0  0  0  0  0  0  0  0  0
    8.1033   11.1163   24.7266 C   0  0  0  0  0  0  0  0  0  0  0  0
    9.1578   10.8783   23.8496 C   0  0  0  0  0  0  0  0  0  0  0  0
    9.7770    9.1875   23.3714 Br  0  0  0  0  0  0  0  0  0  0  0  0
    9.8376   11.9194   23.2561 C   0  0  0  0  0  0  0  0  0  0  0  0
    9.4536   13.2256   23.5008 C   0  0  0  0  0  0  0  0  0  0  0  0
   10.1800   14.2585   22.8623 N   0  0  0  0  0  0  0  0  0  0  0  0
    9.6545   14.6146   21.5403 C   0  0  0  0  0  0  0  0  0  0  0  0
   10.5975   15.4187   20.6923 C   0  0  0  0  0  0  0  0  0  0  0  0
   11.9703   14.8502   20.8753 C   0  0  0  0  0  0  0  0  0  0  0  0
   12.6780   14.4488   19.9572 O   0  0  0  0  0  0  0  0  0  0  0  0
   12.3610   14.8188   22.1820 N   0  0  0  0  0  0  0  0  0  0  0  0
   11.5468   14.2945   23.1398 C   0  0  0  0  0  0  0  0  0  0  0  0
   12.0325   13.8352   24.1756 O   0  0  0  0  0  0  0  0  0  0  0  0
    8.3754   13.4959   24.3318 C   0  0  0  0  0  0  0  0  0  0  0  0
  1  2  1  0
  2  3  1  0
  2  4  2  0
  4  5  1  0
  5  6  2  0
  5  7  1  0
  7  8  1  0
  8  9  2  0
  9 10  1  0
 10 11  1  0
 10 12  2  0
 12 13  1  0
 13 14  1  0
 14 15  1  0
 15 16  1  0
 16 17  1  0
 17 18  2  0
 17 19  1  0
 19 20  1  0
 20 21  2  0
 13 22  2  0
 22  8  1  0
 20 14  1  0
M  END
>  <alias>  (748) 
None

>  <rmsd(smina/fragmenstein)>  (748) 
0.462

>  <smiles>  (748) 
C/C(Cl)=C/C(=O)Nc1cc(Br)cc(N2CCC(=O)NC2=O)c1

>  <gnina_score>  (748) 
5.584

>  <inspiration_score>  (748) 
None

>  <energy_score>  (748) 
-29.398484

>  <distance_score>  (748) 
1.230162

>  <gnina_score_min>  (748) 
5.692

>  <inchikey>  (748) 
MWVVDOSYVGZGEN-YWEYNIOJSA-N

>  <exports>  (748) 
['/opt/xchem-fragalysis-2/maxwin/BulkDock/OUTPUTS/openbind_a71ev2a_c2_elabs_1LOUU54.sdf', '/opt/xchem-fragalysis-2/maxwin/BulkDock/OUTPUTS/openbind_a71ev2a_c2_elabs_1LSYIDY.sdf']

>  <name>  (748) 
P546405

>  <ref_pdb>  (748) 
A0884a

>  <subsites>  (748) 
None

>  <HIPPO Pose ID>  (748) 
546405

>  <ref_mols>  (748) 
A0884a

>  <HIPPO Compound ID>  (748) 
385036

>  <tags>  (748) 
openbind_a71ev2a_c2_elabs,syndirella_product,openbind_a71ev2a_c2_elabs_fragonly_scored_top80percent,BulkDock Fragalysis export,openbind_a71ev2a_c2_elabs_scored,openbind_a71ev2a_c2_elabs_scored_top80percent,openbind_a71ev2a_c2_elabs_activefrags_only_scored_5.2plus,openbind_a71ev2a_c2_elabs_activefrags_only_scored_5.5plus,syndirella_placed

>  <smina_score_min>  (748) 
-6.68

$$$$
P546406
     RDKit          3D

 22 23  0  0  0  0  0  0  0  0999 V2000
    3.6498   13.9800   29.4462 C   0  0  0  0  0  0  0  0  0  0  0  0
    3.6802   14.8625   28.2371 C   0  0  0  0  0  0  0  0  0  0  0  0
    2.8387   16.3724   28.4489 Cl  0  0  0  0  0  0  0  0  0  0  0  0
    4.2872   14.6373   27.0617 C   0  0  0  0  0  0  0  0  0  0  0  0
    4.9917   13.3620   26.7403 C   0  0  0  0  0  0  0  0  0  0  0  0
    4.6673   12.3315   27.1835 O   0  0  0  0  0  0  0  0  0  0  0  0
    6.1125   13.7123   25.7249 N   0  0  0  0  0  0  0  0  0  0  0  0
    7.0879   12.9078   25.1421 C   0  0  0  0  0  0  0  0  0  0  0  0
    7.1362   11.5374   25.3765 C   0  0  0  0  0  0  0  0  0  0  0  0
    8.0954   10.7616   24.7346 C   0  0  0  0  0  0  0  0  0  0  0  0
    9.0266   11.3528   23.8781 C   0  0  0  0  0  0  0  0  0  0  0  0
   10.0349   10.2655   23.0276 Cl  0  0  0  0  0  0  0  0  0  0  0  0
    9.0177   12.7403   23.6529 C   0  0  0  0  0  0  0  0  0  0  0  0
    9.9744   13.3938   22.8019 N   0  0  0  0  0  0  0  0  0  0  0  0
    9.4793   14.3696   21.8368 C   0  0  0  0  0  0  0  0  0  0  0  0
   10.4854   14.8187   20.7985 C   0  0  0  0  0  0  0  0  0  0  0  0
   11.8930   14.5037   21.1854 C   0  0  0  0  0  0  0  0  0  0  0  0
   12.7959   14.4349   20.3551 O   0  0  0  0  0  0  0  0  0  0  0  0
   12.1089   14.3173   22.5171 N   0  0  0  0  0  0  0  0  0  0  0  0
   11.2625   13.5838   23.3052 C   0  0  0  0  0  0  0  0  0  0  0  0
   11.6625   13.1488   24.3839 O   0  0  0  0  0  0  0  0  0  0  0  0
    8.0219   13.5022   24.2847 C   0  0  0  0  0  0  0  0  0  0  0  0
  1  2  1  0
  2  3  1  0
  2  4  2  0
  4  5  1  0
  5  6  2  0
  5  7  1  0
  7  8  1  0
  8  9  2  0
  9 10  1  0
 10 11  2  0
 11 12  1  0
 11 13  1  0
 13 14  1  0
 14 15  1  0
 15 16  1  0
 16 17  1  0
 17 18  2  0
 17 19  1  0
 19 20  1  0
 20 21  2  0
 13 22  2  0
 22  8  1  0
 20 14  1  0
M  END
>  <alias>  (749) 
None

>  <rmsd(smina/fragmenstein)>  (749) 
0.739

>  <smiles>  (749) 
C/C(Cl)=C\C(=O)Nc1ccc(Cl)c(N2CCC(=O)NC2=O)c1

>  <gnina_score>  (749) 
5.555

>  <inspiration_score>  (749) 
None

>  <energy_score>  (749) 
-39.531657

>  <distance_score>  (749) 
1.488995

>  <gnina_score_min>  (749) 
5.616

>  <inchikey>  (749) 
RZJLGIVAHBSWIR-SOFGYWHQSA-N

>  <exports>  (749) 
['/opt/xchem-fragalysis-2/maxwin/BulkDock/OUTPUTS/openbind_a71ev2a_c2_elabs_1LOUU54.sdf', '/opt/xchem-fragalysis-2/maxwin/BulkDock/OUTPUTS/openbind_a71ev2a_c2_elabs_1LSYIDY.sdf']

>  <name>  (749) 
P546406

>  <ref_pdb>  (749) 
A0884a

>  <subsites>  (749) 
None

>  <HIPPO Pose ID>  (749) 
546406

>  <ref_mols>  (749) 
A0884a

>  <HIPPO Compound ID>  (749) 
385037

>  <tags>  (749) 
openbind_a71ev2a_c2_elabs,syndirella_product,openbind_a71ev2a_c2_elabs_fragonly_scored_top80percent,BulkDock Fragalysis export,openbind_a71ev2a_c2_elabs_scored,openbind_a71ev2a_c2_elabs_scored_top80percent,openbind_a71ev2a_c2_elabs_activefrags_only_scored_5.2plus,openbind_a71ev2a_c2_elabs_activefrags_only_scored_5.5plus,syndirella_placed

>  <smina_score_min>  (749) 
-6.813

$$$$
P546408
     RDKit          3D

 22 23  0  0  0  0  0  0  0  0999 V2000
    3.6330   18.0188   27.0423 C   0  0  0  0  0  0  0  0  0  0  0  0
    2.9959   16.8289   27.7405 C   0  0  0  0  0  0  0  0  0  0  0  0
    3.6866   15.5795   27.3959 C   0  0  0  0  0  0  0  0  0  0  0  0
    4.2587   14.5647   27.0999 C   0  0  0  0  0  0  0  0  0  0  0  0
    4.9764   13.3658   26.7097 C   0  0  0  0  0  0  0  0  0  0  0  0
    4.6277   12.3354   27.1293 O   0  0  0  0  0  0  0  0  0  0  0  0
    6.1112   13.7118   25.7269 N   0  0  0  0  0  0  0  0  0  0  0  0
    7.0832   12.9018   25.1466 C   0  0  0  0  0  0  0  0  0  0  0  0
    7.1297   11.5309   25.3790 C   0  0  0  0  0  0  0  0  0  0  0  0
    8.0908   10.7558   24.7383 C   0  0  0  0  0  0  0  0  0  0  0  0
    9.0236   11.3473   23.8835 C   0  0  0  0  0  0  0  0  0  0  0  0
   10.0321   10.2614   23.0319 Cl  0  0  0  0  0  0  0  0  0  0  0  0
    9.0160   12.7349   23.6606 C   0  0  0  0  0  0  0  0  0  0  0  0
    9.9719   13.3880   22.8091 N   0  0  0  0  0  0  0  0  0  0  0  0
    9.4751   14.3616   21.8435 C   0  0  0  0  0  0  0  0  0  0  0  0
   10.4802   14.8137   20.8060 C   0  0  0  0  0  0  0  0  0  0  0  0
   11.8889   14.4945   21.1853 C   0  0  0  0  0  0  0  0  0  0  0  0
   12.7893   14.4404   20.3512 O   0  0  0  0  0  0  0  0  0  0  0  0
   12.1114   14.2961   22.5142 N   0  0  0  0  0  0  0  0  0  0  0  0
   11.2598   13.5780   23.3106 C   0  0  0  0  0  0  0  0  0  0  0  0
   11.6556   13.1612   24.3979 O   0  0  0  0  0  0  0  0  0  0  0  0
    8.0210   13.4965   24.2930 C   0  0  0  0  0  0  0  0  0  0  0  0
  1  2  1  0
  2  3  1  0
  3  4  3  0
  4  5  1  0
  5  6  2  0
  5  7  1  0
  7  8  1  0
  8  9  2  0
  9 10  1  0
 10 11  2  0
 11 12  1  0
 11 13  1  0
 13 14  1  0
 14 15  1  0
 15 16  1  0
 16 17  1  0
 17 18  2  0
 17 19  1  0
 19 20  1  0
 20 21  2  0
 13 22  2  0
 22  8  1  0
 20 14  1  0
M  END
>  <alias>  (750) 
None

>  <rmsd(smina/fragmenstein)>  (750) 
0.557

>  <smiles>  (750) 
CCC#CC(=O)Nc1ccc(Cl)c(N2CCC(=O)NC2=O)c1

>  <gnina_score>  (750) 
5.601

>  <inspiration_score>  (750) 
None

>  <energy_score>  (750) 
-40.919516

>  <distance_score>  (750) 
1.477719

>  <gnina_score_min>  (750) 
5.611

>  <inchikey>  (750) 
NWMIBYNUKOIADE-UHFFFAOYSA-N

>  <exports>  (750) 
['/opt/xchem-fragalysis-2/maxwin/BulkDock/OUTPUTS/openbind_a71ev2a_c2_elabs_1LOUU54.sdf', '/opt/xchem-fragalysis-2/maxwin/BulkDock/OUTPUTS/openbind_a71ev2a_c2_elabs_1LSYIDY.sdf']

>  <name>  (750) 
P546408

>  <ref_pdb>  (750) 
A0884a

>  <subsites>  (750) 
None

>  <HIPPO Pose ID>  (750) 
546408

>  <ref_mols>  (750) 
A0884a

>  <HIPPO Compound ID>  (750) 
385038

>  <tags>  (750) 
openbind_a71ev2a_c2_elabs,syndirella_product,openbind_a71ev2a_c2_elabs_fragonly_scored_top80percent,BulkDock Fragalysis export,openbind_a71ev2a_c2_elabs_scored,openbind_a71ev2a_c2_elabs_scored_top80percent,openbind_a71ev2a_c2_elabs_activefrags_only_scored_5.2plus,openbind_a71ev2a_c2_elabs_activefrags_only_scored_5.5plus,syndirella_placed

>  <smina_score_min>  (750) 
-6.583

$$$$
P546409
     RDKit          3D

 22 23  0  0  0  0  0  0  0  0999 V2000
    9.2298    9.5261   23.8283 C   0  0  0  0  0  0  0  0  0  0  0  0
    8.9009   10.9532   24.0583 C   0  0  0  0  0  0  0  0  0  0  0  0
    7.7982   11.3577   24.8179 C   0  0  0  0  0  0  0  0  0  0  0  0
    7.4593   12.7088   24.8862 C   0  0  0  0  0  0  0  0  0  0  0  0
    6.3543   13.1423   25.6082 N   0  0  0  0  0  0  0  0  0  0  0  0
    5.4317   12.3751   26.6066 C   0  0  0  0  0  0  0  0  0  0  0  0
    5.5110   11.2845   27.0291 O   0  0  0  0  0  0  0  0  0  0  0  0
    4.2896   13.3323   27.0310 C   0  0  1  0  0  0  0  0  0  0  0  0
    3.2358   12.6122   27.6835 O   0  0  0  0  0  0  0  0  0  0  0  0
    4.7697   14.4714   27.9209 C   0  0  0  0  0  0  0  0  0  0  0  0
    5.5784   13.8080   29.5739 Br  0  0  0  0  0  0  0  0  0  0  0  0
    8.2258   13.6543   24.2057 C   0  0  0  0  0  0  0  0  0  0  0  0
    9.3666   13.2480   23.5179 C   0  0  0  0  0  0  0  0  0  0  0  0
   10.1746   14.1887   22.8369 N   0  0  0  0  0  0  0  0  0  0  0  0
    9.6458   14.5984   21.5343 C   0  0  0  0  0  0  0  0  0  0  0  0
   10.6085   15.3853   20.6915 C   0  0  0  0  0  0  0  0  0  0  0  0
   11.9743   14.7981   20.8677 C   0  0  0  0  0  0  0  0  0  0  0  0
   12.6907   14.4308   19.9425 O   0  0  0  0  0  0  0  0  0  0  0  0
   12.3591   14.7272   22.1745 N   0  0  0  0  0  0  0  0  0  0  0  0
   11.5374   14.1813   23.1145 C   0  0  0  0  0  0  0  0  0  0  0  0
   12.0211   13.6930   24.1376 O   0  0  0  0  0  0  0  0  0  0  0  0
    9.6936   11.9014   23.4323 C   0  0  0  0  0  0  0  0  0  0  0  0
  1  2  1  0
  2  3  2  0
  3  4  1  0
  4  5  1  0
  5  6  1  0
  6  7  2  0
  6  8  1  0
  8  9  1  1
  8 10  1  0
 10 11  1  0
  4 12  2  0
 12 13  1  0
 13 14  1  0
 14 15  1  0
 15 16  1  0
 16 17  1  0
 17 18  2  0
 17 19  1  0
 19 20  1  0
 20 21  2  0
 13 22  2  0
 22  2  1  0
 20 14  1  0
M  END
>  <alias>  (751) 
None

>  <rmsd(smina/fragmenstein)>  (751) 
0.67

>  <smiles>  (751) 
Cc1cc(NC(=O)[C@@H](O)CBr)cc(N2CCC(=O)NC2=O)c1

>  <gnina_score>  (751) 
5.28

>  <inspiration_score>  (751) 
None

>  <energy_score>  (751) 
-26.183013

>  <distance_score>  (751) 
1.309082

>  <gnina_score_min>  (751) 
5.411

>  <inchikey>  (751) 
ZEBOUCLNQFVJLJ-NSHDSACASA-N

>  <exports>  (751) 
['/opt/xchem-fragalysis-2/maxwin/BulkDock/OUTPUTS/openbind_a71ev2a_c2_elabs_1LOUU54.sdf', '/opt/xchem-fragalysis-2/maxwin/BulkDock/OUTPUTS/openbind_a71ev2a_c2_elabs_1LSYIDY.sdf']

>  <name>  (751) 
P546409

>  <ref_pdb>  (751) 
A0884a

>  <subsites>  (751) 
None

>  <HIPPO Pose ID>  (751) 
546409

>  <ref_mols>  (751) 
A0884a

>  <HIPPO Compound ID>  (751) 
385039

>  <tags>  (751) 
openbind_a71ev2a_c2_elabs,syndirella_product,openbind_a71ev2a_c2_elabs_fragonly_scored_top80percent,openbind_a71ev2a_c2_elabs_scored,BulkDock Fragalysis export,openbind_a71ev2a_c2_elabs_scored_top80percent,openbind_a71ev2a_c2_elabs_activefrags_only_scored_5.2plus,syndirella_placed

>  <smina_score_min>  (751) 
-6.839

$$$$
P546415
     RDKit          3D

 22 23  0  0  0  0  0  0  0  0999 V2000
   11.4391   14.6433   19.9167 C   0  0  0  0  0  0  0  0  0  0  0  0
   10.6160   15.1101   21.1075 C   0  0  0  0  0  0  0  0  0  0  0  0
    9.8370   16.3795   20.7768 C   0  0  0  0  0  0  0  0  0  0  0  0
   11.4759   15.1789   22.2684 N   0  0  0  0  0  0  0  0  0  0  0  0
   11.1906   14.1893   23.1905 C   0  0  0  0  0  0  0  0  0  0  0  0
   11.6566   14.1638   24.3218 O   0  0  0  0  0  0  0  0  0  0  0  0
   10.2292   13.3615   22.6691 N   0  0  0  0  0  0  0  0  0  0  0  0
    9.4313   12.5634   23.5180 C   0  0  0  0  0  0  0  0  0  0  0  0
    9.4887   11.1763   23.4041 C   0  0  0  0  0  0  0  0  0  0  0  0
    8.6623   10.3862   24.1998 C   0  0  0  0  0  0  0  0  0  0  0  0
    7.7829   10.9731   25.1144 C   0  0  0  0  0  0  0  0  0  0  0  0
    7.7371   12.3585   25.2441 C   0  0  0  0  0  0  0  0  0  0  0  0
    6.9404   12.9925   26.1948 N   0  0  0  0  0  0  0  0  0  0  0  0
    5.9496   12.3986   27.2456 C   0  0  0  0  0  0  0  0  0  0  0  0
    5.7134   11.2857   27.5204 O   0  0  0  0  0  0  0  0  0  0  0  0
    5.3719   13.6341   27.9787 C   0  0  1  0  0  0  0  0  0  0  0  0
    5.1783   14.7555   27.1211 O   0  0  0  0  0  0  0  0  0  0  0  0
    4.1373   13.3253   28.8122 C   0  0  0  0  0  0  0  0  0  0  0  0
    2.5676   13.0197   27.6945 Br  0  0  0  0  0  0  0  0  0  0  0  0
    8.5517   13.1533   24.4356 C   0  0  0  0  0  0  0  0  0  0  0  0
    9.6384   14.0537   21.6329 C   0  0  0  0  0  0  0  0  0  0  0  0
    8.4876   13.9123   21.2259 O   0  0  0  0  0  0  0  0  0  0  0  0
  1  2  1  0
  2  3  1  0
  2  4  1  0
  4  5  1  0
  5  6  2  0
  5  7  1  0
  7  8  1  0
  8  9  2  0
  9 10  1  0
 10 11  2  0
 11 12  1  0
 12 13  1  0
 13 14  1  0
 14 15  2  0
 14 16  1  0
 16 17  1  6
 16 18  1  0
 18 19  1  0
 12 20  2  0
  7 21  1  0
 21 22  2  0
 21  2  1  0
 20  8  1  0
M  END
>  <alias>  (752) 
None

>  <rmsd(smina/fragmenstein)>  (752) 
0.939

>  <smiles>  (752) 
CC1(C)NC(=O)N(c2cccc(NC(=O)[C@@H](O)CBr)c2)C1=O

>  <gnina_score>  (752) 
5.152

>  <inspiration_score>  (752) 
None

>  <energy_score>  (752) 
-37.420022

>  <distance_score>  (752) 
1.105952

>  <gnina_score_min>  (752) 
5.294

>  <inchikey>  (752) 
OOFXEYDVXRRYKU-JTQLQIEISA-N

>  <exports>  (752) 
['/opt/xchem-fragalysis-2/maxwin/BulkDock/OUTPUTS/openbind_a71ev2a_c2_elabs_1LOUU54.sdf', '/opt/xchem-fragalysis-2/maxwin/BulkDock/OUTPUTS/openbind_a71ev2a_c2_elabs_1LSYIDY.sdf']

>  <name>  (752) 
P546415

>  <ref_pdb>  (752) 
A0884a

>  <subsites>  (752) 
None

>  <HIPPO Pose ID>  (752) 
546415

>  <ref_mols>  (752) 
A0884a

>  <HIPPO Compound ID>  (752) 
385043

>  <tags>  (752) 
openbind_a71ev2a_c2_elabs,syndirella_product,openbind_a71ev2a_c2_elabs_fragonly_scored_top80percent,openbind_a71ev2a_c2_elabs_scored,BulkDock Fragalysis export,openbind_a71ev2a_c2_elabs_scored_top80percent,openbind_a71ev2a_c2_elabs_activefrags_only_scored_5.2plus,syndirella_placed

>  <smina_score_min>  (752) 
-6.699

$$$$
P546418
     RDKit          3D

 22 23  0  0  0  0  0  0  0  0999 V2000
    8.0595   14.5688   24.4630 C   0  0  0  0  0  0  0  0  0  0  0  0
    8.2260   13.0791   24.5040 C   0  0  0  0  0  0  0  0  0  0  0  0
    7.3136   12.2747   25.2245 C   0  0  0  0  0  0  0  0  0  0  0  0
    6.2774   12.8624   25.9554 N   0  0  0  0  0  0  0  0  0  0  0  0
    5.2534   12.2301   26.9480 C   0  0  0  0  0  0  0  0  0  0  0  0
    5.1733   11.1389   27.3606 O   0  0  0  0  0  0  0  0  0  0  0  0
    4.2841   13.3608   27.3002 C   0  0  0  0  0  0  0  0  0  0  0  0
    3.1654   12.9260   28.2613 C   0  0  0  0  0  0  0  0  0  0  0  0
    3.6832   12.7903   29.6952 C   0  0  0  0  0  0  0  0  0  0  0  0
    2.0148   13.9336   28.2205 C   0  0  0  0  0  0  0  0  0  0  0  0
    7.4350   10.8850   25.1952 C   0  0  0  0  0  0  0  0  0  0  0  0
    8.4343   10.2850   24.4376 C   0  0  0  0  0  0  0  0  0  0  0  0
    9.3601   11.0678   23.7752 C   0  0  0  0  0  0  0  0  0  0  0  0
   10.3416   10.4584   23.1041 F   0  0  0  0  0  0  0  0  0  0  0  0
    9.3084   12.4595   23.8412 C   0  0  0  0  0  0  0  0  0  0  0  0
   10.4202   13.1529   23.3239 N   0  0  0  0  0  0  0  0  0  0  0  0
   11.3282   13.8123   24.1031 C   0  0  0  0  0  0  0  0  0  0  0  0
   11.3725   13.8773   25.3251 O   0  0  0  0  0  0  0  0  0  0  0  0
   12.2776   14.5616   23.1928 C   0  0  0  0  0  0  0  0  0  0  0  0
   11.6633   14.3740   21.9339 N   0  0  0  0  0  0  0  0  0  0  0  0
   10.4545   13.7503   22.1034 C   0  0  0  0  0  0  0  0  0  0  0  0
    9.5481   13.8986   21.3064 O   0  0  0  0  0  0  0  0  0  0  0  0
  1  2  1  0
  2  3  2  0
  3  4  1  0
  4  5  1  0
  5  6  2  0
  5  7  1  0
  7  8  1  0
  8  9  1  0
  8 10  1  0
  3 11  1  0
 11 12  2  0
 12 13  1  0
 13 14  1  0
 13 15  2  0
 15 16  1  0
 16 17  1  0
 17 18  2  0
 17 19  1  0
 19 20  1  0
 20 21  1  0
 21 22  2  0
 15  2  1  0
 21 16  1  0
M  END
>  <alias>  (753) 
None

>  <rmsd(smina/fragmenstein)>  (753) 
0.535

>  <smiles>  (753) 
Cc1c(NC(=O)CC(C)C)ccc(F)c1N1C(=O)CNC1=O

>  <gnina_score>  (753) 
5.504

>  <inspiration_score>  (753) 
None

>  <energy_score>  (753) 
-17.800756

>  <distance_score>  (753) 
1.583227

>  <gnina_score_min>  (753) 
5.467

>  <inchikey>  (753) 
QXYTUOCWJBAHGN-UHFFFAOYSA-N

>  <exports>  (753) 
['/opt/xchem-fragalysis-2/maxwin/BulkDock/OUTPUTS/openbind_a71ev2a_c2_elabs_1LOUU54.sdf', '/opt/xchem-fragalysis-2/maxwin/BulkDock/OUTPUTS/openbind_a71ev2a_c2_elabs_1LSYIDY.sdf']

>  <name>  (753) 
P546418

>  <ref_pdb>  (753) 
A0884a

>  <subsites>  (753) 
None

>  <HIPPO Pose ID>  (753) 
546418

>  <ref_mols>  (753) 
A0884a

>  <HIPPO Compound ID>  (753) 
385046

>  <tags>  (753) 
openbind_a71ev2a_c2_elabs,syndirella_product,openbind_a71ev2a_c2_elabs_fragonly_scored_top80percent,openbind_a71ev2a_c2_elabs_scored,BulkDock Fragalysis export,openbind_a71ev2a_c2_elabs_scored_top80percent,openbind_a71ev2a_c2_elabs_activefrags_only_scored_5.2plus,syndirella_placed

>  <smina_score_min>  (753) 
-6.145

$$$$
P546433
     RDKit          3D

 22 23  0  0  0  0  0  0  0  0999 V2000
    1.0899   13.5195   28.3251 C   0  0  0  0  0  0  0  0  0  0  0  0
    2.3880   14.3090   28.2877 C   0  0  0  0  0  0  0  0  0  0  0  0
    3.4973   13.4778   27.8024 C   0  0  0  0  0  0  0  0  0  0  0  0
    4.3995   12.7975   27.3923 C   0  0  0  0  0  0  0  0  0  0  0  0
    5.4768   11.9776   26.8631 C   0  0  0  0  0  0  0  0  0  0  0  0
    5.5813   10.8693   27.2980 O   0  0  0  0  0  0  0  0  0  0  0  0
    6.2556   12.6778   25.8937 N   0  0  0  0  0  0  0  0  0  0  0  0
    7.3213   12.2535   25.0894 C   0  0  0  0  0  0  0  0  0  0  0  0
    7.6695   10.9000   25.0498 C   0  0  0  0  0  0  0  0  0  0  0  0
    8.7436   10.4663   24.2812 C   0  0  0  0  0  0  0  0  0  0  0  0
    9.5254   11.3913   23.6075 C   0  0  0  0  0  0  0  0  0  0  0  0
    9.2081   12.7554   23.6405 C   0  0  0  0  0  0  0  0  0  0  0  0
   10.1192   13.6395   22.9839 N   0  0  0  0  0  0  0  0  0  0  0  0
    9.7372   14.2036   21.7687 C   0  0  0  0  0  0  0  0  0  0  0  0
    8.6214   14.0544   21.2633 O   0  0  0  0  0  0  0  0  0  0  0  0
   10.7444   15.0908   21.0903 C   0  0  0  0  0  0  0  0  0  0  0  0
   12.1389   14.6172   21.3844 C   0  0  0  0  0  0  0  0  0  0  0  0
   12.3149   14.4394   22.7947 N   0  0  0  0  0  0  0  0  0  0  0  0
   11.3819   13.7958   23.5556 C   0  0  0  0  0  0  0  0  0  0  0  0
   11.6911   13.4403   24.6934 O   0  0  0  0  0  0  0  0  0  0  0  0
    8.0492   13.1956   24.3235 C   0  0  0  0  0  0  0  0  0  0  0  0
    7.6399   14.6441   24.3238 C   0  0  0  0  0  0  0  0  0  0  0  0
  1  2  1  0
  2  3  1  0
  3  4  3  0
  4  5  1  0
  5  6  2  0
  5  7  1  0
  7  8  1  0
  8  9  2  0
  9 10  1  0
 10 11  2  0
 11 12  1  0
 12 13  1  0
 13 14  1  0
 14 15  2  0
 14 16  1  0
 16 17  1  0
 17 18  1  0
 18 19  1  0
 19 20  2  0
 12 21  2  0
 21 22  1  0
 21  8  1  0
 19 13  1  0
M  END
>  <alias>  (754) 
None

>  <rmsd(smina/fragmenstein)>  (754) 
0.567

>  <smiles>  (754) 
CCC#CC(=O)Nc1cccc(N2C(=O)CCNC2=O)c1C

>  <gnina_score>  (754) 
5.278

>  <inspiration_score>  (754) 
None

>  <energy_score>  (754) 
-31.09604

>  <distance_score>  (754) 
1.906221

>  <gnina_score_min>  (754) 
5.384

>  <inchikey>  (754) 
HNNCNOJJKFTFNA-UHFFFAOYSA-N

>  <exports>  (754) 
['/opt/xchem-fragalysis-2/maxwin/BulkDock/OUTPUTS/openbind_a71ev2a_c2_elabs_1LOUU54.sdf', '/opt/xchem-fragalysis-2/maxwin/BulkDock/OUTPUTS/openbind_a71ev2a_c2_elabs_1LSYIDY.sdf']

>  <name>  (754) 
P546433

>  <ref_pdb>  (754) 
A0884a

>  <subsites>  (754) 
None

>  <HIPPO Pose ID>  (754) 
546433

>  <ref_mols>  (754) 
A0884a

>  <HIPPO Compound ID>  (754) 
385059

>  <tags>  (754) 
openbind_a71ev2a_c2_elabs,syndirella_product,openbind_a71ev2a_c2_elabs_fragonly_scored_top80percent,openbind_a71ev2a_c2_elabs_scored,BulkDock Fragalysis export,openbind_a71ev2a_c2_elabs_scored_top80percent,openbind_a71ev2a_c2_elabs_activefrags_only_scored_5.2plus,syndirella_placed

>  <smina_score_min>  (754) 
-6.969

$$$$
P546434
     RDKit          3D

 22 23  0  0  0  0  0  0  0  0999 V2000
    3.7714   17.8230   27.3557 C   0  0  0  0  0  0  0  0  0  0  0  0
    3.1683   16.6190   28.0601 C   0  0  0  0  0  0  0  0  0  0  0  0
    3.8327   15.3760   27.6481 C   0  0  0  0  0  0  0  0  0  0  0  0
    4.3833   14.3671   27.2963 C   0  0  0  0  0  0  0  0  0  0  0  0
    5.0751   13.1769   26.8375 C   0  0  0  0  0  0  0  0  0  0  0  0
    4.7120   12.1329   27.2079 O   0  0  0  0  0  0  0  0  0  0  0  0
    6.2040   13.5524   25.8597 N   0  0  0  0  0  0  0  0  0  0  0  0
    7.1537   12.7559   25.2256 C   0  0  0  0  0  0  0  0  0  0  0  0
    7.1845   11.3768   25.3855 C   0  0  0  0  0  0  0  0  0  0  0  0
    8.1258   10.6243   24.6895 C   0  0  0  0  0  0  0  0  0  0  0  0
    9.0533   11.2327   23.8298 C   0  0  0  0  0  0  0  0  0  0  0  0
    9.9494   10.3111   23.0671 C   0  0  0  0  0  0  0  0  0  0  0  0
    9.0574   12.6333   23.6995 C   0  0  0  0  0  0  0  0  0  0  0  0
    9.9962   13.3163   22.8579 N   0  0  0  0  0  0  0  0  0  0  0  0
    9.4684   14.3098   21.9306 C   0  0  0  0  0  0  0  0  0  0  0  0
   10.4467   14.7842   20.8785 C   0  0  0  0  0  0  0  0  0  0  0  0
   11.8674   14.5145   21.2524 C   0  0  0  0  0  0  0  0  0  0  0  0
   12.7663   14.4977   20.4160 O   0  0  0  0  0  0  0  0  0  0  0  0
   12.0994   14.3118   22.5781 N   0  0  0  0  0  0  0  0  0  0  0  0
   11.2797   13.5426   23.3614 C   0  0  0  0  0  0  0  0  0  0  0  0
   11.7063   13.1043   24.4276 O   0  0  0  0  0  0  0  0  0  0  0  0
    8.0888   13.3772   24.3917 C   0  0  0  0  0  0  0  0  0  0  0  0
  1  2  1  0
  2  3  1  0
  3  4  3  0
  4  5  1  0
  5  6  2  0
  5  7  1  0
  7  8  1  0
  8  9  2  0
  9 10  1  0
 10 11  2  0
 11 12  1  0
 11 13  1  0
 13 14  1  0
 14 15  1  0
 15 16  1  0
 16 17  1  0
 17 18  2  0
 17 19  1  0
 19 20  1  0
 20 21  2  0
 13 22  2  0
 22  8  1  0
 20 14  1  0
M  END
>  <alias>  (755) 
None

>  <rmsd(smina/fragmenstein)>  (755) 
0.576

>  <smiles>  (755) 
CCC#CC(=O)Nc1ccc(C)c(N2CCC(=O)NC2=O)c1

>  <gnina_score>  (755) 
5.376

>  <inspiration_score>  (755) 
None

>  <energy_score>  (755) 
-43.511012

>  <distance_score>  (755) 
1.374316

>  <gnina_score_min>  (755) 
5.423

>  <inchikey>  (755) 
RPGSHUBXYOFRTK-UHFFFAOYSA-N

>  <exports>  (755) 
['/opt/xchem-fragalysis-2/maxwin/BulkDock/OUTPUTS/openbind_a71ev2a_c2_elabs_1LOUU54.sdf', '/opt/xchem-fragalysis-2/maxwin/BulkDock/OUTPUTS/openbind_a71ev2a_c2_elabs_1LSYIDY.sdf']

>  <name>  (755) 
P546434

>  <ref_pdb>  (755) 
A0884a

>  <subsites>  (755) 
None

>  <HIPPO Pose ID>  (755) 
546434

>  <ref_mols>  (755) 
A0884a

>  <HIPPO Compound ID>  (755) 
385060

>  <tags>  (755) 
openbind_a71ev2a_c2_elabs,syndirella_product,openbind_a71ev2a_c2_elabs_fragonly_scored_top80percent,openbind_a71ev2a_c2_elabs_scored,BulkDock Fragalysis export,openbind_a71ev2a_c2_elabs_scored_top80percent,openbind_a71ev2a_c2_elabs_activefrags_only_scored_5.2plus,syndirella_placed

>  <smina_score_min>  (755) 
-6.564

$$$$
P546435
     RDKit          3D

 22 23  0  0  0  0  0  0  0  0999 V2000
    2.2424   13.6239   27.3281 C   0  0  0  0  0  0  0  0  0  0  0  0
    3.5532   13.6430   27.0453 C   0  0  0  0  0  0  0  0  0  0  0  0
    4.6304   13.1251   27.9560 C   0  0  2  0  0  0  0  0  0  0  0  0
    5.6677   14.4779   28.4882 Cl  0  0  0  0  0  0  0  0  0  0  0  0
    5.4582   12.0204   27.2497 C   0  0  0  0  0  0  0  0  0  0  0  0
    5.1920   10.8837   27.3643 O   0  0  0  0  0  0  0  0  0  0  0  0
    6.5600   12.7208   26.3888 N   0  0  0  0  0  0  0  0  0  0  0  0
    7.4592   12.1896   25.4581 C   0  0  0  0  0  0  0  0  0  0  0  0
    7.5029   10.8151   25.2311 C   0  0  0  0  0  0  0  0  0  0  0  0
    8.4273   10.2813   24.3381 C   0  0  0  0  0  0  0  0  0  0  0  0
    9.3311   11.1085   23.6980 C   0  0  0  0  0  0  0  0  0  0  0  0
   10.2238   10.5556   22.8712 F   0  0  0  0  0  0  0  0  0  0  0  0
    9.3499   12.4800   23.9450 C   0  0  0  0  0  0  0  0  0  0  0  0
   10.4379   13.1995   23.4149 N   0  0  0  0  0  0  0  0  0  0  0  0
   11.3604   13.8886   24.1483 C   0  0  0  0  0  0  0  0  0  0  0  0
   11.4401   13.9877   25.3663 O   0  0  0  0  0  0  0  0  0  0  0  0
   12.2873   14.6027   23.1846 C   0  0  0  0  0  0  0  0  0  0  0  0
   11.6527   14.3550   21.9462 N   0  0  0  0  0  0  0  0  0  0  0  0
   10.4544   13.7286   22.1628 C   0  0  0  0  0  0  0  0  0  0  0  0
    9.5309   13.8301   21.3783 O   0  0  0  0  0  0  0  0  0  0  0  0
    8.3572   13.0437   24.7778 C   0  0  0  0  0  0  0  0  0  0  0  0
    8.2550   14.5326   24.9305 C   0  0  0  0  0  0  0  0  0  0  0  0
  1  2  2  0
  2  3  1  0
  3  4  1  6
  3  5  1  0
  5  6  2  0
  5  7  1  0
  7  8  1  0
  8  9  2  0
  9 10  1  0
 10 11  2  0
 11 12  1  0
 11 13  1  0
 13 14  1  0
 14 15  1  0
 15 16  2  0
 15 17  1  0
 17 18  1  0
 18 19  1  0
 19 20  2  0
 13 21  2  0
 21 22  1  0
 21  8  1  0
 19 14  1  0
M  END
>  <alias>  (756) 
None

>  <rmsd(smina/fragmenstein)>  (756) 
0.411

>  <smiles>  (756) 
C=C[C@H](Cl)C(=O)Nc1ccc(F)c(N2C(=O)CNC2=O)c1C

>  <gnina_score>  (756) 
5.588

>  <inspiration_score>  (756) 
None

>  <energy_score>  (756) 
-28.765679

>  <distance_score>  (756) 
1.561606

>  <gnina_score_min>  (756) 
5.572

>  <inchikey>  (756) 
APMGJCGYPHZIGY-QMMMGPOBSA-N

>  <exports>  (756) 
['/opt/xchem-fragalysis-2/maxwin/BulkDock/OUTPUTS/openbind_a71ev2a_c2_elabs_1LOUU54.sdf', '/opt/xchem-fragalysis-2/maxwin/BulkDock/OUTPUTS/openbind_a71ev2a_c2_elabs_1LSYIDY.sdf']

>  <name>  (756) 
P546435

>  <ref_pdb>  (756) 
A0884a

>  <subsites>  (756) 
None

>  <HIPPO Pose ID>  (756) 
546435

>  <ref_mols>  (756) 
A0884a

>  <HIPPO Compound ID>  (756) 
385063

>  <tags>  (756) 
openbind_a71ev2a_c2_elabs,syndirella_product,openbind_a71ev2a_c2_elabs_fragonly_scored_top80percent,BulkDock Fragalysis export,openbind_a71ev2a_c2_elabs_scored,openbind_a71ev2a_c2_elabs_scored_top80percent,openbind_a71ev2a_c2_elabs_activefrags_only_scored_5.2plus,openbind_a71ev2a_c2_elabs_activefrags_only_scored_5.5plus,syndirella_placed

>  <smina_score_min>  (756) 
-6.284

$$$$
P546437
     RDKit          3D

 22 23  0  0  0  0  0  0  0  0999 V2000
    2.2139   15.1009   26.4652 C   0  0  0  0  0  0  0  0  0  0  0  0
    3.4040   14.6569   26.8942 C   0  0  0  0  0  0  0  0  0  0  0  0
    4.6854   14.7441   26.1106 C   0  0  1  0  0  0  0  0  0  0  0  0
    5.8631   15.7257   27.0359 Cl  0  0  0  0  0  0  0  0  0  0  0  0
    5.3364   13.3526   25.8830 C   0  0  0  0  0  0  0  0  0  0  0  0
    5.0135   12.3810   26.4585 O   0  0  0  0  0  0  0  0  0  0  0  0
    6.4386   13.5649   24.7839 N   0  0  0  0  0  0  0  0  0  0  0  0
    7.3820   12.6815   24.2695 C   0  0  0  0  0  0  0  0  0  0  0  0
    7.4256   11.3468   24.6813 C   0  0  0  0  0  0  0  0  0  0  0  0
    8.4022   10.4866   24.1797 C   0  0  0  0  0  0  0  0  0  0  0  0
    9.4016   10.9837   23.3506 C   0  0  0  0  0  0  0  0  0  0  0  0
    9.4428   12.3589   23.0434 C   0  0  0  0  0  0  0  0  0  0  0  0
   10.7363   12.9401   23.1019 N   0  0  0  0  0  0  0  0  0  0  0  0
   11.2117   14.0330   22.4546 C   0  0  0  0  0  0  0  0  0  0  0  0
   10.8704   14.5191   21.3931 O   0  0  0  0  0  0  0  0  0  0  0  0
   12.1658   14.6362   23.2561 N   0  0  0  0  0  0  0  0  0  0  0  0
   12.2331   14.0826   24.5821 C   0  0  1  0  0  0  0  0  0  0  0  0
   11.7805   15.0447   25.7114 C   0  0  0  0  0  0  0  0  0  0  0  0
   12.3814   14.9565   27.1021 C   0  0  0  0  0  0  0  0  0  0  0  0
   11.1277   13.1198   24.3832 C   0  0  0  0  0  0  0  0  0  0  0  0
   10.5170   12.6757   25.3376 O   0  0  0  0  0  0  0  0  0  0  0  0
    8.3558   13.1797   23.3984 C   0  0  0  0  0  0  0  0  0  0  0  0
  1  2  2  0
  2  3  1  0
  3  4  1  1
  3  5  1  0
  5  6  2  0
  5  7  1  0
  7  8  1  0
  8  9  2  0
  9 10  1  0
 10 11  2  0
 11 12  1  0
 12 13  1  0
 13 14  1  0
 14 15  2  0
 14 16  1  0
 16 17  1  0
 17 18  1  1
 18 19  1  0
 17 20  1  0
 20 21  2  0
 12 22  2  0
 22  8  1  0
 20 13  1  0
M  END
>  <alias>  (757) 
None

>  <rmsd(smina/fragmenstein)>  (757) 
0.454

>  <smiles>  (757) 
C=C[C@@H](Cl)C(=O)Nc1cccc(N2C(=O)N[C@@H](CC)C2=O)c1

>  <gnina_score>  (757) 
5.317

>  <inspiration_score>  (757) 
None

>  <energy_score>  (757) 
-11.172625

>  <distance_score>  (757) 
1.539902

>  <gnina_score_min>  (757) 
5.289

>  <inchikey>  (757) 
FZOZMDNJFYNERL-NEPJUHHUSA-N

>  <exports>  (757) 
['/opt/xchem-fragalysis-2/maxwin/BulkDock/OUTPUTS/openbind_a71ev2a_c2_elabs_1LOUU54.sdf', '/opt/xchem-fragalysis-2/maxwin/BulkDock/OUTPUTS/openbind_a71ev2a_c2_elabs_1LSYIDY.sdf']

>  <name>  (757) 
P546437

>  <ref_pdb>  (757) 
A0884a

>  <subsites>  (757) 
None

>  <HIPPO Pose ID>  (757) 
546437

>  <ref_mols>  (757) 
A0884a

>  <HIPPO Compound ID>  (757) 
385064

>  <tags>  (757) 
openbind_a71ev2a_c2_elabs,syndirella_product,openbind_a71ev2a_c2_elabs_fragonly_scored_top80percent,openbind_a71ev2a_c2_elabs_scored,BulkDock Fragalysis export,openbind_a71ev2a_c2_elabs_scored_top80percent,openbind_a71ev2a_c2_elabs_activefrags_only_scored_5.2plus,syndirella_placed

>  <smina_score_min>  (757) 
-4.09

$$$$
P546440
     RDKit          3D

 22 23  0  0  0  0  0  0  0  0999 V2000
    1.9180   13.5346   27.5564 C   0  0  0  0  0  0  0  0  0  0  0  0
    3.2148   13.3668   27.8519 C   0  0  0  0  0  0  0  0  0  0  0  0
    4.3592   13.7830   26.9676 C   0  0  1  0  0  0  0  0  0  0  0  0
    5.3096   15.0327   27.8247 Cl  0  0  0  0  0  0  0  0  0  0  0  0
    5.3079   12.6015   26.6251 C   0  0  0  0  0  0  0  0  0  0  0  0
    5.1616   11.5129   27.0367 O   0  0  0  0  0  0  0  0  0  0  0  0
    6.3858   13.1796   25.6453 N   0  0  0  0  0  0  0  0  0  0  0  0
    7.3954   12.5392   24.9346 C   0  0  0  0  0  0  0  0  0  0  0  0
    7.6037   11.1674   25.0298 C   0  0  0  0  0  0  0  0  0  0  0  0
    8.6427   10.5880   24.3112 C   0  0  0  0  0  0  0  0  0  0  0  0
    8.7977    9.2610   24.3500 F   0  0  0  0  0  0  0  0  0  0  0  0
    9.5106   11.3550   23.5454 C   0  0  0  0  0  0  0  0  0  0  0  0
    9.3012   12.7304   23.4456 C   0  0  0  0  0  0  0  0  0  0  0  0
   10.1785   13.5177   22.6555 N   0  0  0  0  0  0  0  0  0  0  0  0
    9.6083   14.4582   21.7005 C   0  0  0  0  0  0  0  0  0  0  0  0
   10.5756   14.9179   20.6301 C   0  0  0  0  0  0  0  0  0  0  0  0
   11.9908   14.5787   20.9758 C   0  0  0  0  0  0  0  0  0  0  0  0
   12.8482   14.3885   20.1186 O   0  0  0  0  0  0  0  0  0  0  0  0
   12.2588   14.5155   22.3097 N   0  0  0  0  0  0  0  0  0  0  0  0
   11.4749   13.7358   23.1148 C   0  0  0  0  0  0  0  0  0  0  0  0
   11.9340   13.2721   24.1575 O   0  0  0  0  0  0  0  0  0  0  0  0
    8.2225   13.3149   24.1173 C   0  0  0  0  0  0  0  0  0  0  0  0
  1  2  2  0
  2  3  1  0
  3  4  1  1
  3  5  1  0
  5  6  2  0
  5  7  1  0
  7  8  1  0
  8  9  2  0
  9 10  1  0
 10 11  1  0
 10 12  2  0
 12 13  1  0
 13 14  1  0
 14 15  1  0
 15 16  1  0
 16 17  1  0
 17 18  2  0
 17 19  1  0
 19 20  1  0
 20 21  2  0
 13 22  2  0
 22  8  1  0
 20 14  1  0
M  END
>  <alias>  (758) 
None

>  <rmsd(smina/fragmenstein)>  (758) 
0.402

>  <smiles>  (758) 
C=C[C@@H](Cl)C(=O)Nc1cc(F)cc(N2CCC(=O)NC2=O)c1

>  <gnina_score>  (758) 
5.33

>  <inspiration_score>  (758) 
None

>  <energy_score>  (758) 
-11.830888

>  <distance_score>  (758) 
1.195941

>  <gnina_score_min>  (758) 
5.372

>  <inchikey>  (758) 
HKKGJEIZRJSYBJ-LLVKDONJSA-N

>  <exports>  (758) 
['/opt/xchem-fragalysis-2/maxwin/BulkDock/OUTPUTS/openbind_a71ev2a_c2_elabs_1LOUU54.sdf', '/opt/xchem-fragalysis-2/maxwin/BulkDock/OUTPUTS/openbind_a71ev2a_c2_elabs_1LSYIDY.sdf']

>  <name>  (758) 
P546440

>  <ref_pdb>  (758) 
A0884a

>  <subsites>  (758) 
None

>  <HIPPO Pose ID>  (758) 
546440

>  <ref_mols>  (758) 
A0884a

>  <HIPPO Compound ID>  (758) 
385065

>  <tags>  (758) 
openbind_a71ev2a_c2_elabs,syndirella_product,openbind_a71ev2a_c2_elabs_fragonly_scored_top80percent,openbind_a71ev2a_c2_elabs_scored,BulkDock Fragalysis export,openbind_a71ev2a_c2_elabs_scored_top80percent,openbind_a71ev2a_c2_elabs_activefrags_only_scored_5.2plus,syndirella_placed

>  <smina_score_min>  (758) 
-6.74

$$$$
P546441
     RDKit          3D

 22 23  0  0  0  0  0  0  0  0999 V2000
    3.1272   14.2592   29.2320 C   0  0  0  0  0  0  0  0  0  0  0  0
    3.2235   13.7205   28.0080 C   0  0  0  0  0  0  0  0  0  0  0  0
    4.3004   14.0419   27.0093 C   0  0  2  0  0  0  0  0  0  0  0  0
    3.5331   14.7444   25.5569 Cl  0  0  0  0  0  0  0  0  0  0  0  0
    5.1251   12.7901   26.5901 C   0  0  0  0  0  0  0  0  0  0  0  0
    4.9622   11.7217   27.0474 O   0  0  0  0  0  0  0  0  0  0  0  0
    6.1652   13.2927   25.5300 N   0  0  0  0  0  0  0  0  0  0  0  0
    7.2255   12.6296   24.9210 C   0  0  0  0  0  0  0  0  0  0  0  0
    7.4487   11.2651   25.1115 C   0  0  0  0  0  0  0  0  0  0  0  0
    8.5171   10.6434   24.4672 C   0  0  0  0  0  0  0  0  0  0  0  0
    9.3894   11.3980   23.6924 C   0  0  0  0  0  0  0  0  0  0  0  0
   10.3899   10.7676   23.0718 F   0  0  0  0  0  0  0  0  0  0  0  0
    9.1881   12.7676   23.4993 C   0  0  0  0  0  0  0  0  0  0  0  0
   10.0969   13.5270   22.7088 N   0  0  0  0  0  0  0  0  0  0  0  0
    9.5660   14.4599   21.7286 C   0  0  0  0  0  0  0  0  0  0  0  0
   10.5614   14.9031   20.6786 C   0  0  0  0  0  0  0  0  0  0  0  0
   11.9687   14.5462   21.0377 C   0  0  0  0  0  0  0  0  0  0  0  0
   12.8360   14.3857   20.1827 O   0  0  0  0  0  0  0  0  0  0  0  0
   12.2175   14.4433   22.3725 N   0  0  0  0  0  0  0  0  0  0  0  0
   11.3961   13.7019   23.1772 C   0  0  0  0  0  0  0  0  0  0  0  0
   11.8224   13.2468   24.2376 O   0  0  0  0  0  0  0  0  0  0  0  0
    8.0750   13.3709   24.0918 C   0  0  0  0  0  0  0  0  0  0  0  0
  1  2  2  0
  2  3  1  0
  3  4  1  6
  3  5  1  0
  5  6  2  0
  5  7  1  0
  7  8  1  0
  8  9  2  0
  9 10  1  0
 10 11  2  0
 11 12  1  0
 11 13  1  0
 13 14  1  0
 14 15  1  0
 15 16  1  0
 16 17  1  0
 17 18  2  0
 17 19  1  0
 19 20  1  0
 20 21  2  0
 13 22  2  0
 22  8  1  0
 20 14  1  0
M  END
>  <alias>  (759) 
None

>  <rmsd(smina/fragmenstein)>  (759) 
0.721

>  <smiles>  (759) 
C=C[C@H](Cl)C(=O)Nc1ccc(F)c(N2CCC(=O)NC2=O)c1

>  <gnina_score>  (759) 
5.479

>  <inspiration_score>  (759) 
None

>  <energy_score>  (759) 
-39.730058

>  <distance_score>  (759) 
1.290332

>  <gnina_score_min>  (759) 
5.448

>  <inchikey>  (759) 
VZSVBWSKNDWWKR-VIFPVBQESA-N

>  <exports>  (759) 
['/opt/xchem-fragalysis-2/maxwin/BulkDock/OUTPUTS/openbind_a71ev2a_c2_elabs_1LOUU54.sdf', '/opt/xchem-fragalysis-2/maxwin/BulkDock/OUTPUTS/openbind_a71ev2a_c2_elabs_1LSYIDY.sdf']

>  <name>  (759) 
P546441

>  <ref_pdb>  (759) 
A0884a

>  <subsites>  (759) 
None

>  <HIPPO Pose ID>  (759) 
546441

>  <ref_mols>  (759) 
A0884a

>  <HIPPO Compound ID>  (759) 
385068

>  <tags>  (759) 
openbind_a71ev2a_c2_elabs,syndirella_product,openbind_a71ev2a_c2_elabs_fragonly_scored_top80percent,openbind_a71ev2a_c2_elabs_scored,BulkDock Fragalysis export,openbind_a71ev2a_c2_elabs_scored_top80percent,openbind_a71ev2a_c2_elabs_activefrags_only_scored_5.2plus,syndirella_placed

>  <smina_score_min>  (759) 
-6.794

$$$$
P546443
     RDKit          3D

 22 23  0  0  0  0  0  0  0  0999 V2000
    7.6861   14.4790   24.3420 C   0  0  0  0  0  0  0  0  0  0  0  0
    8.1416   13.0468   24.2625 C   0  0  0  0  0  0  0  0  0  0  0  0
    7.4774   12.0691   25.0375 C   0  0  0  0  0  0  0  0  0  0  0  0
    6.4232   12.4228   25.8851 N   0  0  0  0  0  0  0  0  0  0  0  0
    5.7658   11.6407   27.0637 C   0  0  0  0  0  0  0  0  0  0  0  0
    6.0579   10.6180   27.5505 O   0  0  0  0  0  0  0  0  0  0  0  0
    4.5819   12.4902   27.5213 C   0  0  0  0  0  0  0  0  0  0  0  0
    3.7644   11.7871   28.6090 C   0  0  0  0  0  0  0  0  0  0  0  0
    2.3304   12.2809   28.6456 C   0  0  0  0  0  0  0  0  0  0  0  0
    1.6905   11.8379   27.5258 F   0  0  0  0  0  0  0  0  0  0  0  0
    7.8639   10.7302   24.9652 C   0  0  0  0  0  0  0  0  0  0  0  0
    8.9151   10.3412   24.1448 C   0  0  0  0  0  0  0  0  0  0  0  0
    9.6316   11.3003   23.4462 C   0  0  0  0  0  0  0  0  0  0  0  0
    9.2747   12.6538   23.5098 C   0  0  0  0  0  0  0  0  0  0  0  0
   10.1051   13.5757   22.7962 N   0  0  0  0  0  0  0  0  0  0  0  0
    9.5824   14.2050   21.6625 C   0  0  0  0  0  0  0  0  0  0  0  0
    8.4212   14.0595   21.2662 O   0  0  0  0  0  0  0  0  0  0  0  0
   10.5023   15.1547   20.9350 C   0  0  0  0  0  0  0  0  0  0  0  0
   11.9380   14.7455   21.1221 C   0  0  0  0  0  0  0  0  0  0  0  0
   12.2171   14.5527   22.5096 N   0  0  0  0  0  0  0  0  0  0  0  0
   11.4061   13.7605   23.2597 C   0  0  0  0  0  0  0  0  0  0  0  0
   11.8728   13.3185   24.3053 O   0  0  0  0  0  0  0  0  0  0  0  0
  1  2  1  0
  2  3  2  0
  3  4  1  0
  4  5  1  0
  5  6  2  0
  5  7  1  0
  7  8  1  0
  8  9  1  0
  9 10  1  0
  3 11  1  0
 11 12  2  0
 12 13  1  0
 13 14  2  0
 14 15  1  0
 15 16  1  0
 16 17  2  0
 16 18  1  0
 18 19  1  0
 19 20  1  0
 20 21  1  0
 21 22  2  0
 14  2  1  0
 21 15  1  0
M  END
>  <alias>  (760) 
None

>  <rmsd(smina/fragmenstein)>  (760) 
0.343

>  <smiles>  (760) 
Cc1c(NC(=O)CCCF)cccc1N1C(=O)CCNC1=O

>  <gnina_score>  (760) 
5.323

>  <inspiration_score>  (760) 
None

>  <energy_score>  (760) 
-13.128568

>  <distance_score>  (760) 
1.362344

>  <gnina_score_min>  (760) 
5.284

>  <inchikey>  (760) 
ZAJYTIDBDMECOI-UHFFFAOYSA-N

>  <exports>  (760) 
['/opt/xchem-fragalysis-2/maxwin/BulkDock/OUTPUTS/openbind_a71ev2a_c2_elabs_1LOUU54.sdf', '/opt/xchem-fragalysis-2/maxwin/BulkDock/OUTPUTS/openbind_a71ev2a_c2_elabs_1LSYIDY.sdf']

>  <name>  (760) 
P546443

>  <ref_pdb>  (760) 
A0884a

>  <subsites>  (760) 
None

>  <HIPPO Pose ID>  (760) 
546443

>  <ref_mols>  (760) 
A0884a

>  <HIPPO Compound ID>  (760) 
385069

>  <tags>  (760) 
openbind_a71ev2a_c2_elabs,syndirella_product,openbind_a71ev2a_c2_elabs_fragonly_scored_top80percent,openbind_a71ev2a_c2_elabs_scored,BulkDock Fragalysis export,openbind_a71ev2a_c2_elabs_scored_top80percent,openbind_a71ev2a_c2_elabs_activefrags_only_scored_5.2plus,syndirella_placed

>  <smina_score_min>  (760) 
-6.739

$$$$
P546444
     RDKit          3D

 22 23  0  0  0  0  0  0  0  0999 V2000
   12.4386   14.5720   19.8783 O   0  0  0  0  0  0  0  0  0  0  0  0
   11.9855   14.7157   21.0089 C   0  0  0  0  0  0  0  0  0  0  0  0
   12.6151   14.1325   22.2345 C   0  0  0  0  0  0  0  0  0  0  0  0
   11.7584   14.3127   23.4600 C   0  0  0  0  0  0  0  0  0  0  0  0
   10.3504   14.1874   23.1632 N   0  0  0  0  0  0  0  0  0  0  0  0
    9.6196   13.1272   23.7146 C   0  0  0  0  0  0  0  0  0  0  0  0
    9.9730   11.8415   23.3757 C   0  0  0  0  0  0  0  0  0  0  0  0
    9.2463   10.7820   23.8757 C   0  0  0  0  0  0  0  0  0  0  0  0
    9.8469    9.1153   23.3042 Br  0  0  0  0  0  0  0  0  0  0  0  0
    8.1681   10.9835   24.7358 C   0  0  0  0  0  0  0  0  0  0  0  0
    7.7849   12.2931   25.0344 C   0  0  0  0  0  0  0  0  0  0  0  0
    6.7095   12.5918   25.8646 N   0  0  0  0  0  0  0  0  0  0  0  0
    5.8067   11.6606   26.7203 C   0  0  0  0  0  0  0  0  0  0  0  0
    5.8770   10.5120   26.9181 O   0  0  0  0  0  0  0  0  0  0  0  0
    4.7521   12.5475   27.3716 C   0  0  0  0  0  0  0  0  0  0  0  0
    5.3141   13.3222   28.5605 C   0  0  0  0  0  0  0  0  0  0  0  0
    5.6237   12.4146   29.7407 C   0  0  0  0  0  0  0  0  0  0  0  0
    4.4772   11.8051   30.1409 F   0  0  0  0  0  0  0  0  0  0  0  0
    8.4963   13.3681   24.4984 C   0  0  0  0  0  0  0  0  0  0  0  0
    9.9218   14.6669   21.9409 C   0  0  0  0  0  0  0  0  0  0  0  0
    8.8252   14.4279   21.4572 O   0  0  0  0  0  0  0  0  0  0  0  0
   10.8258   15.3765   21.2341 N   0  0  0  0  0  0  0  0  0  0  0  0
  1  2  2  0
  2  3  1  0
  3  4  1  0
  4  5  1  0
  5  6  1  0
  6  7  2  0
  7  8  1  0
  8  9  1  0
  8 10  2  0
 10 11  1  0
 11 12  1  0
 12 13  1  0
 13 14  2  0
 13 15  1  0
 15 16  1  0
 16 17  1  0
 17 18  1  0
 11 19  2  0
  5 20  1  0
 20 21  2  0
 20 22  1  0
 22  2  1  0
 19  6  1  0
M  END
>  <alias>  (761) 
None

>  <rmsd(smina/fragmenstein)>  (761) 
0.704

>  <smiles>  (761) 
O=C1CCN(c2cc(Br)cc(NC(=O)CCCF)c2)C(=O)N1

>  <gnina_score>  (761) 
5.64

>  <inspiration_score>  (761) 
None

>  <energy_score>  (761) 
-15.70208

>  <distance_score>  (761) 
1.910601

>  <gnina_score_min>  (761) 
5.687

>  <inchikey>  (761) 
VSRXXKOUZCHWKZ-UHFFFAOYSA-N

>  <exports>  (761) 
['/opt/xchem-fragalysis-2/maxwin/BulkDock/OUTPUTS/openbind_a71ev2a_c2_elabs_1LOUU54.sdf', '/opt/xchem-fragalysis-2/maxwin/BulkDock/OUTPUTS/openbind_a71ev2a_c2_elabs_1LSYIDY.sdf']

>  <name>  (761) 
P546444

>  <ref_pdb>  (761) 
A0884a

>  <subsites>  (761) 
None

>  <HIPPO Pose ID>  (761) 
546444

>  <ref_mols>  (761) 
A0884a

>  <HIPPO Compound ID>  (761) 
385070

>  <tags>  (761) 
openbind_a71ev2a_c2_elabs,syndirella_product,openbind_a71ev2a_c2_elabs_fragonly_scored_top80percent,BulkDock Fragalysis export,openbind_a71ev2a_c2_elabs_scored,openbind_a71ev2a_c2_elabs_scored_top80percent,openbind_a71ev2a_c2_elabs_activefrags_only_scored_5.2plus,openbind_a71ev2a_c2_elabs_activefrags_only_scored_5.5plus,syndirella_placed

>  <smina_score_min>  (761) 
-5.826

$$$$
P546445
     RDKit          3D

 22 23  0  0  0  0  0  0  0  0999 V2000
    3.0666   10.4702   29.1783 C   0  0  0  0  0  0  0  0  0  0  0  0
    3.2798   11.8651   28.6749 C   0  0  0  0  0  0  0  0  0  0  0  0
    2.0939   12.9998   29.2644 Cl  0  0  0  0  0  0  0  0  0  0  0  0
    4.2255   12.3281   27.8407 C   0  0  0  0  0  0  0  0  0  0  0  0
    5.3371   11.4925   27.2860 C   0  0  0  0  0  0  0  0  0  0  0  0
    5.6102   10.4459   27.7231 O   0  0  0  0  0  0  0  0  0  0  0  0
    6.0037   12.3123   26.1507 N   0  0  0  0  0  0  0  0  0  0  0  0
    7.0475   11.9811   25.2881 C   0  0  0  0  0  0  0  0  0  0  0  0
    7.4407   10.6524   25.1446 C   0  0  0  0  0  0  0  0  0  0  0  0
    8.5211   10.3207   24.3325 C   0  0  0  0  0  0  0  0  0  0  0  0
    9.3019   11.3264   23.7928 C   0  0  0  0  0  0  0  0  0  0  0  0
   10.4584   10.9727   23.2288 F   0  0  0  0  0  0  0  0  0  0  0  0
    8.9863   12.6703   24.0143 C   0  0  0  0  0  0  0  0  0  0  0  0
   10.0373   13.6159   24.0031 N   0  0  0  0  0  0  0  0  0  0  0  0
   10.3733   14.2710   25.1638 C   0  0  0  0  0  0  0  0  0  0  0  0
    9.6811   14.5910   26.1236 O   0  0  0  0  0  0  0  0  0  0  0  0
   11.8375   14.5780   25.1320 C   0  0  0  0  0  0  0  0  0  0  0  0
   12.1334   14.3325   23.7706 N   0  0  0  0  0  0  0  0  0  0  0  0
   11.1069   13.6681   23.1553 C   0  0  0  0  0  0  0  0  0  0  0  0
   11.2315   13.2730   22.0175 O   0  0  0  0  0  0  0  0  0  0  0  0
    7.7527   12.9960   24.6219 C   0  0  0  0  0  0  0  0  0  0  0  0
    7.2233   14.4100   24.6068 C   0  0  0  0  0  0  0  0  0  0  0  0
  1  2  1  0
  2  3  1  0
  2  4  2  0
  4  5  1  0
  5  6  2  0
  5  7  1  0
  7  8  1  0
  8  9  2  0
  9 10  1  0
 10 11  2  0
 11 12  1  0
 11 13  1  0
 13 14  1  0
 14 15  1  0
 15 16  2  0
 15 17  1  0
 17 18  1  0
 18 19  1  0
 19 20  2  0
 13 21  2  0
 21 22  1  0
 21  8  1  0
 19 14  1  0
M  END
>  <alias>  (762) 
None

>  <rmsd(smina/fragmenstein)>  (762) 
1.895

>  <smiles>  (762) 
C/C(Cl)=C\C(=O)Nc1ccc(F)c(N2C(=O)CNC2=O)c1C

>  <gnina_score>  (762) 
5.24

>  <inspiration_score>  (762) 
None

>  <energy_score>  (762) 
-17.4577

>  <distance_score>  (762) 
1.389845

>  <gnina_score_min>  (762) 
5.413

>  <inchikey>  (762) 
HPPNSEJIYRCPOA-FNORWQNLSA-N

>  <exports>  (762) 
['/opt/xchem-fragalysis-2/maxwin/BulkDock/OUTPUTS/openbind_a71ev2a_c2_elabs_1LOUU54.sdf', '/opt/xchem-fragalysis-2/maxwin/BulkDock/OUTPUTS/openbind_a71ev2a_c2_elabs_1LSYIDY.sdf']

>  <name>  (762) 
P546445

>  <ref_pdb>  (762) 
A0884a

>  <subsites>  (762) 
None

>  <HIPPO Pose ID>  (762) 
546445

>  <ref_mols>  (762) 
A0884a

>  <HIPPO Compound ID>  (762) 
385072

>  <tags>  (762) 
openbind_a71ev2a_c2_elabs,syndirella_product,openbind_a71ev2a_c2_elabs_fragonly_scored_top80percent,openbind_a71ev2a_c2_elabs_scored,BulkDock Fragalysis export,openbind_a71ev2a_c2_elabs_scored_top80percent,openbind_a71ev2a_c2_elabs_activefrags_only_scored_5.2plus,syndirella_placed

>  <smina_score_min>  (762) 
-6.629

$$$$
P546450
     RDKit          3D

 22 23  0  0  0  0  0  0  0  0999 V2000
    4.0762   13.1832   29.3720 C   0  0  0  0  0  0  0  0  0  0  0  0
    3.8391   14.0036   28.1420 C   0  0  0  0  0  0  0  0  0  0  0  0
    2.7469   15.3368   28.3859 Cl  0  0  0  0  0  0  0  0  0  0  0  0
    4.3783   13.8435   26.9241 C   0  0  0  0  0  0  0  0  0  0  0  0
    5.2678   12.6998   26.5745 C   0  0  0  0  0  0  0  0  0  0  0  0
    5.1574   11.6427   27.0557 O   0  0  0  0  0  0  0  0  0  0  0  0
    6.2478   13.2115   25.4893 N   0  0  0  0  0  0  0  0  0  0  0  0
    7.3170   12.5752   24.8643 C   0  0  0  0  0  0  0  0  0  0  0  0
    7.5427   11.2098   25.0061 C   0  0  0  0  0  0  0  0  0  0  0  0
    8.6126   10.6259   24.3380 C   0  0  0  0  0  0  0  0  0  0  0  0
    8.7724    9.3001   24.4026 F   0  0  0  0  0  0  0  0  0  0  0  0
    9.4984   11.3850   23.5846 C   0  0  0  0  0  0  0  0  0  0  0  0
    9.2765   12.7549   23.4416 C   0  0  0  0  0  0  0  0  0  0  0  0
   10.1663   13.5329   22.6543 N   0  0  0  0  0  0  0  0  0  0  0  0
    9.6135   14.4786   21.6946 C   0  0  0  0  0  0  0  0  0  0  0  0
   10.5885   14.9198   20.6245 C   0  0  0  0  0  0  0  0  0  0  0  0
   12.0005   14.5807   20.9823 C   0  0  0  0  0  0  0  0  0  0  0  0
   12.8602   14.3851   20.1275 O   0  0  0  0  0  0  0  0  0  0  0  0
   12.2571   14.5138   22.3181 N   0  0  0  0  0  0  0  0  0  0  0  0
   11.4644   13.7381   23.1187 C   0  0  0  0  0  0  0  0  0  0  0  0
   11.9139   13.2620   24.1600 O   0  0  0  0  0  0  0  0  0  0  0  0
    8.1648   13.3400   24.0577 C   0  0  0  0  0  0  0  0  0  0  0  0
  1  2  1  0
  2  3  1  0
  2  4  2  0
  4  5  1  0
  5  6  2  0
  5  7  1  0
  7  8  1  0
  8  9  2  0
  9 10  1  0
 10 11  1  0
 10 12  2  0
 12 13  1  0
 13 14  1  0
 14 15  1  0
 15 16  1  0
 16 17  1  0
 17 18  2  0
 17 19  1  0
 19 20  1  0
 20 21  2  0
 13 22  2  0
 22  8  1  0
 20 14  1  0
M  END
>  <alias>  (763) 
None

>  <rmsd(smina/fragmenstein)>  (763) 
0.717

>  <smiles>  (763) 
C/C(Cl)=C\C(=O)Nc1cc(F)cc(N2CCC(=O)NC2=O)c1

>  <gnina_score>  (763) 
5.237

>  <inspiration_score>  (763) 
None

>  <energy_score>  (763) 
-24.552101

>  <distance_score>  (763) 
1.223711

>  <gnina_score_min>  (763) 
5.37

>  <inchikey>  (763) 
RHAAPACITHYIOU-XBXARRHUSA-N

>  <exports>  (763) 
['/opt/xchem-fragalysis-2/maxwin/BulkDock/OUTPUTS/openbind_a71ev2a_c2_elabs_1LOUU54.sdf', '/opt/xchem-fragalysis-2/maxwin/BulkDock/OUTPUTS/openbind_a71ev2a_c2_elabs_1LSYIDY.sdf']

>  <name>  (763) 
P546450

>  <ref_pdb>  (763) 
A0884a

>  <subsites>  (763) 
None

>  <HIPPO Pose ID>  (763) 
546450

>  <ref_mols>  (763) 
A0884a

>  <HIPPO Compound ID>  (763) 
385074

>  <tags>  (763) 
openbind_a71ev2a_c2_elabs,syndirella_product,openbind_a71ev2a_c2_elabs_fragonly_scored_top80percent,openbind_a71ev2a_c2_elabs_scored,BulkDock Fragalysis export,openbind_a71ev2a_c2_elabs_scored_top80percent,openbind_a71ev2a_c2_elabs_activefrags_only_scored_5.2plus,syndirella_placed

>  <smina_score_min>  (763) 
-7.024

$$$$
P546451
     RDKit          3D

 22 24  0  0  0  0  0  0  0  0999 V2000
    7.8903   14.5101   24.3822 C   0  0  0  0  0  0  0  0  0  0  0  0
    8.1458   13.0295   24.3682 C   0  0  0  0  0  0  0  0  0  0  0  0
    7.3174   12.1524   25.1014 C   0  0  0  0  0  0  0  0  0  0  0  0
    6.2389   12.6382   25.8459 N   0  0  0  0  0  0  0  0  0  0  0  0
    5.3998   11.9641   26.9539 C   0  0  0  0  0  0  0  0  0  0  0  0
    5.4273   10.8711   27.3657 O   0  0  0  0  0  0  0  0  0  0  0  0
    4.3505   12.8838   27.5507 C   0  0  0  0  0  0  0  0  0  0  0  0
    3.4815   12.2182   28.5022 O   0  0  0  0  0  0  0  0  0  0  0  0
    4.6247   14.3317   27.8632 C   0  0  0  0  0  0  0  0  0  0  0  0
    3.6651   13.9714   26.7631 C   0  0  0  0  0  0  0  0  0  0  0  0
    7.5574   10.7774   25.0781 C   0  0  0  0  0  0  0  0  0  0  0  0
    8.5986   10.2534   24.3222 C   0  0  0  0  0  0  0  0  0  0  0  0
    9.4599   11.1017   23.6511 C   0  0  0  0  0  0  0  0  0  0  0  0
    9.2675   12.4871   23.7019 C   0  0  0  0  0  0  0  0  0  0  0  0
   10.3391   13.2645   23.1967 N   0  0  0  0  0  0  0  0  0  0  0  0
   11.3924   13.5167   24.0493 C   0  0  0  0  0  0  0  0  0  0  0  0
   11.3250   13.6049   25.2724 O   0  0  0  0  0  0  0  0  0  0  0  0
   12.6698   13.7426   23.3211 C   0  0  0  0  0  0  0  0  0  0  0  0
   12.4532   14.9598   22.4790 C   0  0  0  0  0  0  0  0  0  0  0  0
   11.2820   14.7734   21.6818 N   0  0  0  0  0  0  0  0  0  0  0  0
   10.2204   14.0036   22.0436 C   0  0  0  0  0  0  0  0  0  0  0  0
    9.2225   14.0468   21.3373 O   0  0  0  0  0  0  0  0  0  0  0  0
  1  2  1  0
  2  3  2  0
  3  4  1  0
  4  5  1  0
  5  6  2  0
  5  7  1  0
  7  8  1  0
  7  9  1  0
  9 10  1  0
  3 11  1  0
 11 12  2  0
 12 13  1  0
 13 14  2  0
 14 15  1  0
 15 16  1  0
 16 17  2  0
 16 18  1  0
 18 19  1  0
 19 20  1  0
 20 21  1  0
 21 22  2  0
 14  2  1  0
 21 15  1  0
 10  7  1  0
M  END
>  <alias>  (764) 
None

>  <rmsd(smina/fragmenstein)>  (764) 
0.487

>  <smiles>  (764) 
Cc1c(NC(=O)C2(O)CC2)cccc1N1C(=O)CCNC1=O

>  <gnina_score>  (764) 
5.338

>  <inspiration_score>  (764) 
None

>  <energy_score>  (764) 
-12.43665

>  <distance_score>  (764) 
1.650861

>  <gnina_score_min>  (764) 
5.376

>  <inchikey>  (764) 
OIEYIRJOAZIBAA-UHFFFAOYSA-N

>  <exports>  (764) 
['/opt/xchem-fragalysis-2/maxwin/BulkDock/OUTPUTS/openbind_a71ev2a_c2_elabs_1LOUU54.sdf', '/opt/xchem-fragalysis-2/maxwin/BulkDock/OUTPUTS/openbind_a71ev2a_c2_elabs_1LSYIDY.sdf']

>  <name>  (764) 
P546451

>  <ref_pdb>  (764) 
A0884a

>  <subsites>  (764) 
None

>  <HIPPO Pose ID>  (764) 
546451

>  <ref_mols>  (764) 
A0884a

>  <HIPPO Compound ID>  (764) 
385075

>  <tags>  (764) 
openbind_a71ev2a_c2_elabs,syndirella_product,openbind_a71ev2a_c2_elabs_fragonly_scored_top80percent,openbind_a71ev2a_c2_elabs_scored,BulkDock Fragalysis export,openbind_a71ev2a_c2_elabs_scored_top80percent,openbind_a71ev2a_c2_elabs_activefrags_only_scored_5.2plus,syndirella_placed

>  <smina_score_min>  (764) 
-6.817

$$$$
P546453
     RDKit          3D

 22 23  0  0  0  0  0  0  0  0999 V2000
    6.4809   13.4688   29.3129 C   0  0  0  0  0  0  0  0  0  0  0  0
    5.2359   13.5872   28.8286 C   0  0  0  0  0  0  0  0  0  0  0  0
    4.5899   12.7780   27.7341 C   0  0  2  0  0  0  0  0  0  0  0  0
    3.1940   11.8945   28.4295 Cl  0  0  0  0  0  0  0  0  0  0  0  0
    5.5331   11.7748   27.0045 C   0  0  0  0  0  0  0  0  0  0  0  0
    5.5678   10.6234   27.2221 O   0  0  0  0  0  0  0  0  0  0  0  0
    6.3399   12.6379   25.9733 N   0  0  0  0  0  0  0  0  0  0  0  0
    7.3779   12.2807   25.1061 C   0  0  0  0  0  0  0  0  0  0  0  0
    7.7612   10.9424   24.9871 C   0  0  0  0  0  0  0  0  0  0  0  0
    8.8288   10.5843   24.1687 C   0  0  0  0  0  0  0  0  0  0  0  0
    9.5559   11.5716   23.5132 C   0  0  0  0  0  0  0  0  0  0  0  0
    9.1938   12.9231   23.6231 C   0  0  0  0  0  0  0  0  0  0  0  0
   10.0184   13.9089   22.9840 N   0  0  0  0  0  0  0  0  0  0  0  0
    9.5876   14.3170   21.6440 C   0  0  0  0  0  0  0  0  0  0  0  0
   10.5176   15.2672   20.9387 C   0  0  0  0  0  0  0  0  0  0  0  0
   11.9063   14.7532   21.1321 C   0  0  0  0  0  0  0  0  0  0  0  0
   12.6940   14.5506   20.2142 O   0  0  0  0  0  0  0  0  0  0  0  0
   12.2254   14.5252   22.4400 N   0  0  0  0  0  0  0  0  0  0  0  0
   11.3678   13.9443   23.3329 C   0  0  0  0  0  0  0  0  0  0  0  0
   11.8172   13.4839   24.3839 O   0  0  0  0  0  0  0  0  0  0  0  0
    8.0520   13.2847   24.3706 C   0  0  0  0  0  0  0  0  0  0  0  0
    7.6162   14.7227   24.4775 C   0  0  0  0  0  0  0  0  0  0  0  0
  1  2  2  0
  2  3  1  0
  3  4  1  1
  3  5  1  0
  5  6  2  0
  5  7  1  0
  7  8  1  0
  8  9  2  0
  9 10  1  0
 10 11  2  0
 11 12  1  0
 12 13  1  0
 13 14  1  0
 14 15  1  0
 15 16  1  0
 16 17  2  0
 16 18  1  0
 18 19  1  0
 19 20  2  0
 12 21  2  0
 21 22  1  0
 21  8  1  0
 19 13  1  0
M  END
>  <alias>  (765) 
None

>  <rmsd(smina/fragmenstein)>  (765) 
0.342

>  <smiles>  (765) 
C=C[C@H](Cl)C(=O)Nc1cccc(N2CCC(=O)NC2=O)c1C

>  <gnina_score>  (765) 
5.361

>  <inspiration_score>  (765) 
None

>  <energy_score>  (765) 
-17.375823

>  <distance_score>  (765) 
1.190645

>  <gnina_score_min>  (765) 
5.322

>  <inchikey>  (765) 
VPHFQILWVKBLKI-JTQLQIEISA-N

>  <exports>  (765) 
['/opt/xchem-fragalysis-2/maxwin/BulkDock/OUTPUTS/openbind_a71ev2a_c2_elabs_1LOUU54.sdf', '/opt/xchem-fragalysis-2/maxwin/BulkDock/OUTPUTS/openbind_a71ev2a_c2_elabs_1LSYIDY.sdf']

>  <name>  (765) 
P546453

>  <ref_pdb>  (765) 
A0884a

>  <subsites>  (765) 
None

>  <HIPPO Pose ID>  (765) 
546453

>  <ref_mols>  (765) 
A0884a

>  <HIPPO Compound ID>  (765) 
385078

>  <tags>  (765) 
openbind_a71ev2a_c2_elabs,syndirella_product,openbind_a71ev2a_c2_elabs_fragonly_scored_top80percent,openbind_a71ev2a_c2_elabs_scored,BulkDock Fragalysis export,openbind_a71ev2a_c2_elabs_scored_top80percent,openbind_a71ev2a_c2_elabs_activefrags_only_scored_5.2plus,syndirella_placed

>  <smina_score_min>  (765) 
-6.929

$$$$
P546454
     RDKit          3D

 22 23  0  0  0  0  0  0  0  0999 V2000
    2.3374   12.8921   28.0044 C   0  0  0  0  0  0  0  0  0  0  0  0
    3.1879   14.0652   27.6317 C   0  0  0  0  0  0  0  0  0  0  0  0
    2.4671   15.5950   28.0657 Cl  0  0  0  0  0  0  0  0  0  0  0  0
    4.3824   14.0933   27.0194 C   0  0  0  0  0  0  0  0  0  0  0  0
    5.1729   12.8868   26.6194 C   0  0  0  0  0  0  0  0  0  0  0  0
    4.9906   11.8270   27.0735 O   0  0  0  0  0  0  0  0  0  0  0  0
    6.1981   13.3623   25.5546 N   0  0  0  0  0  0  0  0  0  0  0  0
    7.2324   12.6745   24.9251 C   0  0  0  0  0  0  0  0  0  0  0  0
    7.4419   11.3080   25.1170 C   0  0  0  0  0  0  0  0  0  0  0  0
    8.5016   10.6737   24.4691 C   0  0  0  0  0  0  0  0  0  0  0  0
    9.3771   11.4164   23.6849 C   0  0  0  0  0  0  0  0  0  0  0  0
   10.3706   10.7738   23.0651 F   0  0  0  0  0  0  0  0  0  0  0  0
    9.1861   12.7866   23.4846 C   0  0  0  0  0  0  0  0  0  0  0  0
   10.0973   13.5377   22.6879 N   0  0  0  0  0  0  0  0  0  0  0  0
    9.5696   14.4735   21.7060 C   0  0  0  0  0  0  0  0  0  0  0  0
   10.5657   14.9119   20.6539 C   0  0  0  0  0  0  0  0  0  0  0  0
   11.9713   14.5578   21.0205 C   0  0  0  0  0  0  0  0  0  0  0  0
   12.8423   14.3837   20.1721 O   0  0  0  0  0  0  0  0  0  0  0  0
   12.2155   14.4621   22.3569 N   0  0  0  0  0  0  0  0  0  0  0  0
   11.3961   13.7150   23.1583 C   0  0  0  0  0  0  0  0  0  0  0  0
   11.8232   13.2557   24.2171 O   0  0  0  0  0  0  0  0  0  0  0  0
    8.0835   13.4024   24.0842 C   0  0  0  0  0  0  0  0  0  0  0  0
  1  2  1  0
  2  3  1  0
  2  4  2  0
  4  5  1  0
  5  6  2  0
  5  7  1  0
  7  8  1  0
  8  9  2  0
  9 10  1  0
 10 11  2  0
 11 12  1  0
 11 13  1  0
 13 14  1  0
 14 15  1  0
 15 16  1  0
 16 17  1  0
 17 18  2  0
 17 19  1  0
 19 20  1  0
 20 21  2  0
 13 22  2  0
 22  8  1  0
 20 14  1  0
M  END
>  <alias>  (766) 
None

>  <rmsd(smina/fragmenstein)>  (766) 
0.639

>  <smiles>  (766) 
C/C(Cl)=C\C(=O)Nc1ccc(F)c(N2CCC(=O)NC2=O)c1

>  <gnina_score>  (766) 
5.399

>  <inspiration_score>  (766) 
None

>  <energy_score>  (766) 
-16.291361

>  <distance_score>  (766) 
1.292394

>  <gnina_score_min>  (766) 
5.49

>  <inchikey>  (766) 
ZRDJKPAITPUNGO-SOFGYWHQSA-N

>  <exports>  (766) 
['/opt/xchem-fragalysis-2/maxwin/BulkDock/OUTPUTS/openbind_a71ev2a_c2_elabs_1LOUU54.sdf', '/opt/xchem-fragalysis-2/maxwin/BulkDock/OUTPUTS/openbind_a71ev2a_c2_elabs_1LSYIDY.sdf']

>  <name>  (766) 
P546454

>  <ref_pdb>  (766) 
A0884a

>  <subsites>  (766) 
None

>  <HIPPO Pose ID>  (766) 
546454

>  <ref_mols>  (766) 
A0884a

>  <HIPPO Compound ID>  (766) 
385079

>  <tags>  (766) 
openbind_a71ev2a_c2_elabs,syndirella_product,openbind_a71ev2a_c2_elabs_fragonly_scored_top80percent,openbind_a71ev2a_c2_elabs_scored,BulkDock Fragalysis export,openbind_a71ev2a_c2_elabs_scored_top80percent,openbind_a71ev2a_c2_elabs_activefrags_only_scored_5.2plus,syndirella_placed

>  <smina_score_min>  (766) 
-7.031

$$$$
P546456
     RDKit          3D

 22 23  0  0  0  0  0  0  0  0999 V2000
    9.9537   10.3576   23.0854 C   0  0  0  0  0  0  0  0  0  0  0  0
    9.0518   11.2960   23.8214 C   0  0  0  0  0  0  0  0  0  0  0  0
    8.1217   10.7063   24.6923 C   0  0  0  0  0  0  0  0  0  0  0  0
    7.1509   11.4703   25.3332 C   0  0  0  0  0  0  0  0  0  0  0  0
    7.0863   12.8366   25.0940 C   0  0  0  0  0  0  0  0  0  0  0  0
    6.0759   13.6311   25.6287 N   0  0  0  0  0  0  0  0  0  0  0  0
    4.9904   13.3036   26.6994 C   0  0  0  0  0  0  0  0  0  0  0  0
    4.7343   12.2953   27.2356 O   0  0  0  0  0  0  0  0  0  0  0  0
    4.2228   14.5969   26.9463 C   0  0  0  0  0  0  0  0  0  0  0  0
    5.0311   15.5839   27.7842 C   0  0  0  0  0  0  0  0  0  0  0  0
    4.2510   16.8631   28.0280 C   0  0  0  0  0  0  0  0  0  0  0  0
    3.1226   16.5657   28.7247 F   0  0  0  0  0  0  0  0  0  0  0  0
    8.0292   13.4410   24.2584 C   0  0  0  0  0  0  0  0  0  0  0  0
    9.0367   12.6911   23.6339 C   0  0  0  0  0  0  0  0  0  0  0  0
    9.9911   13.3616   22.7996 N   0  0  0  0  0  0  0  0  0  0  0  0
    9.4886   14.3438   21.8448 C   0  0  0  0  0  0  0  0  0  0  0  0
   10.4895   14.8030   20.8069 C   0  0  0  0  0  0  0  0  0  0  0  0
   11.8948   14.4683   21.1824 C   0  0  0  0  0  0  0  0  0  0  0  0
   12.7890   14.3832   20.3463 O   0  0  0  0  0  0  0  0  0  0  0  0
   12.1193   14.2983   22.5144 N   0  0  0  0  0  0  0  0  0  0  0  0
   11.2772   13.5617   23.3052 C   0  0  0  0  0  0  0  0  0  0  0  0
   11.6869   13.1364   24.3836 O   0  0  0  0  0  0  0  0  0  0  0  0
  1  2  1  0
  2  3  2  0
  3  4  1  0
  4  5  2  0
  5  6  1  0
  6  7  1  0
  7  8  2  0
  7  9  1  0
  9 10  1  0
 10 11  1  0
 11 12  1  0
  5 13  1  0
 13 14  2  0
 14 15  1  0
 15 16  1  0
 16 17  1  0
 17 18  1  0
 18 19  2  0
 18 20  1  0
 20 21  1  0
 21 22  2  0
 14  2  1  0
 21 15  1  0
M  END
>  <alias>  (767) 
None

>  <rmsd(smina/fragmenstein)>  (767) 
1.168

>  <smiles>  (767) 
Cc1ccc(NC(=O)CCCF)cc1N1CCC(=O)NC1=O

>  <gnina_score>  (767) 
5.38

>  <inspiration_score>  (767) 
None

>  <energy_score>  (767) 
-25.162838

>  <distance_score>  (767) 
1.465235

>  <gnina_score_min>  (767) 
5.441

>  <inchikey>  (767) 
JVNJYWFOGAMVIU-UHFFFAOYSA-N

>  <exports>  (767) 
['/opt/xchem-fragalysis-2/maxwin/BulkDock/OUTPUTS/openbind_a71ev2a_c2_elabs_1LOUU54.sdf', '/opt/xchem-fragalysis-2/maxwin/BulkDock/OUTPUTS/openbind_a71ev2a_c2_elabs_1LSYIDY.sdf']

>  <name>  (767) 
P546456

>  <ref_pdb>  (767) 
A0884a

>  <subsites>  (767) 
None

>  <HIPPO Pose ID>  (767) 
546456

>  <ref_mols>  (767) 
A0884a

>  <HIPPO Compound ID>  (767) 
385081

>  <tags>  (767) 
openbind_a71ev2a_c2_elabs,syndirella_product,openbind_a71ev2a_c2_elabs_fragonly_scored_top80percent,openbind_a71ev2a_c2_elabs_scored,BulkDock Fragalysis export,openbind_a71ev2a_c2_elabs_scored_top80percent,openbind_a71ev2a_c2_elabs_activefrags_only_scored_5.2plus,syndirella_placed

>  <smina_score_min>  (767) 
-6.499

$$$$
P546457
     RDKit          3D

 22 23  0  0  0  0  0  0  0  0999 V2000
   12.1400   15.6354   26.8927 O   0  0  0  0  0  0  0  0  0  0  0  0
   11.2748   15.0117   26.2882 C   0  0  0  0  0  0  0  0  0  0  0  0
    9.8398   15.1420   26.6966 C   0  0  0  0  0  0  0  0  0  0  0  0
    8.8632   14.7046   25.6296 C   0  0  0  0  0  0  0  0  0  0  0  0
    9.4059   13.8346   24.5759 N   0  0  0  0  0  0  0  0  0  0  0  0
    8.7932   12.5648   24.3542 C   0  0  0  0  0  0  0  0  0  0  0  0
    9.4642   11.5663   23.6549 C   0  0  0  0  0  0  0  0  0  0  0  0
    9.0781   10.2535   23.8128 C   0  0  0  0  0  0  0  0  0  0  0  0
   10.0168    9.0498   23.0538 Cl  0  0  0  0  0  0  0  0  0  0  0  0
    8.0222    9.9267   24.6539 C   0  0  0  0  0  0  0  0  0  0  0  0
    7.2951   10.9129   25.2898 C   0  0  0  0  0  0  0  0  0  0  0  0
    6.3316   10.6050   26.2514 N   0  0  0  0  0  0  0  0  0  0  0  0
    5.6726   11.5005   27.3493 C   0  0  0  0  0  0  0  0  0  0  0  0
    5.7832   12.6476   27.5599 O   0  0  0  0  0  0  0  0  0  0  0  0
    4.8256   10.5764   28.2538 C   0  0  1  0  0  0  0  0  0  0  0  0
    4.8553    9.2201   27.8209 O   0  0  0  0  0  0  0  0  0  0  0  0
    5.3684   10.6913   29.6720 C   0  0  0  0  0  0  0  0  0  0  0  0
    4.2678    9.6310   30.8905 Br  0  0  0  0  0  0  0  0  0  0  0  0
    7.6174   12.2311   25.0338 C   0  0  0  0  0  0  0  0  0  0  0  0
   10.7267   14.0074   24.1670 C   0  0  0  0  0  0  0  0  0  0  0  0
   11.1708   13.8794   23.0317 O   0  0  0  0  0  0  0  0  0  0  0  0
   11.5841   14.2752   25.1926 N   0  0  0  0  0  0  0  0  0  0  0  0
  1  2  2  0
  2  3  1  0
  3  4  1  0
  4  5  1  0
  5  6  1  0
  6  7  2  0
  7  8  1  0
  8  9  1  0
  8 10  2  0
 10 11  1  0
 11 12  1  0
 12 13  1  0
 13 14  2  0
 13 15  1  0
 15 16  1  6
 15 17  1  0
 17 18  1  0
 11 19  2  0
  5 20  1  0
 20 21  2  0
 20 22  1  0
 22  2  1  0
 19  6  1  0
M  END
>  <alias>  (768) 
None

>  <rmsd(smina/fragmenstein)>  (768) 
0.492

>  <smiles>  (768) 
O=C1CCN(c2cc(Cl)cc(NC(=O)[C@@H](O)CBr)c2)C(=O)N1

>  <gnina_score>  (768) 
5.314

>  <inspiration_score>  (768) 
None

>  <energy_score>  (768) 
-25.601253

>  <distance_score>  (768) 
1.426722

>  <gnina_score_min>  (768) 
5.383

>  <inchikey>  (768) 
HICGMZYMCQYMEO-JTQLQIEISA-N

>  <exports>  (768) 
['/opt/xchem-fragalysis-2/maxwin/BulkDock/OUTPUTS/openbind_a71ev2a_c2_elabs_1LOUU54.sdf', '/opt/xchem-fragalysis-2/maxwin/BulkDock/OUTPUTS/openbind_a71ev2a_c2_elabs_1LSYIDY.sdf']

>  <name>  (768) 
P546457

>  <ref_pdb>  (768) 
A0884a

>  <subsites>  (768) 
None

>  <HIPPO Pose ID>  (768) 
546457

>  <ref_mols>  (768) 
A0884a

>  <HIPPO Compound ID>  (768) 
385084

>  <tags>  (768) 
openbind_a71ev2a_c2_elabs,syndirella_product,openbind_a71ev2a_c2_elabs_fragonly_scored_top80percent,openbind_a71ev2a_c2_elabs_scored,BulkDock Fragalysis export,openbind_a71ev2a_c2_elabs_scored_top80percent,openbind_a71ev2a_c2_elabs_activefrags_only_scored_5.2plus,syndirella_placed

>  <smina_score_min>  (768) 
-5.381

$$$$
P546461
     RDKit          3D

 22 23  0  0  0  0  0  0  0  0999 V2000
    3.8894   14.9629   29.0050 C   0  0  0  0  0  0  0  0  0  0  0  0
    3.8439   15.5424   27.6252 C   0  0  0  0  0  0  0  0  0  0  0  0
    2.9024   17.0028   27.5079 Cl  0  0  0  0  0  0  0  0  0  0  0  0
    4.4505   15.0904   26.5168 C   0  0  0  0  0  0  0  0  0  0  0  0
    5.2272   13.8169   26.4756 C   0  0  0  0  0  0  0  0  0  0  0  0
    4.9886   12.9065   27.1678 O   0  0  0  0  0  0  0  0  0  0  0  0
    6.3177   13.9919   25.3812 N   0  0  0  0  0  0  0  0  0  0  0  0
    7.2521   13.0704   24.8632 C   0  0  0  0  0  0  0  0  0  0  0  0
    8.1429   13.6566   23.9460 C   0  0  0  0  0  0  0  0  0  0  0  0
    9.2235   12.9602   23.3976 C   0  0  0  0  0  0  0  0  0  0  0  0
   10.1591   13.6245   22.5593 N   0  0  0  0  0  0  0  0  0  0  0  0
    9.6620   14.5729   21.5706 C   0  0  0  0  0  0  0  0  0  0  0  0
   10.6510   14.9019   20.4768 C   0  0  0  0  0  0  0  0  0  0  0  0
   12.0493   14.5577   20.8728 C   0  0  0  0  0  0  0  0  0  0  0  0
   12.9180   14.3340   20.0342 O   0  0  0  0  0  0  0  0  0  0  0  0
   12.2867   14.5187   22.2127 N   0  0  0  0  0  0  0  0  0  0  0  0
   11.4654   13.7826   23.0240 C   0  0  0  0  0  0  0  0  0  0  0  0
   11.9028   13.3097   24.0720 O   0  0  0  0  0  0  0  0  0  0  0  0
    9.3828   11.6148   23.7001 C   0  0  0  0  0  0  0  0  0  0  0  0
    8.4649   10.9910   24.5435 C   0  0  0  0  0  0  0  0  0  0  0  0
    7.4072   11.7077   25.1541 C   0  0  0  0  0  0  0  0  0  0  0  0
    6.5210   10.9401   26.0805 C   0  0  0  0  0  0  0  0  0  0  0  0
  1  2  1  0
  2  3  1  0
  2  4  2  0
  4  5  1  0
  5  6  2  0
  5  7  1  0
  7  8  1  0
  8  9  2  0
  9 10  1  0
 10 11  1  0
 11 12  1  0
 12 13  1  0
 13 14  1  0
 14 15  2  0
 14 16  1  0
 16 17  1  0
 17 18  2  0
 10 19  2  0
 19 20  1  0
 20 21  2  0
 21 22  1  0
 21  8  1  0
 17 11  1  0
M  END
>  <alias>  (769) 
None

>  <rmsd(smina/fragmenstein)>  (769) 
1.02

>  <smiles>  (769) 
C/C(Cl)=C\C(=O)Nc1cc(N2CCC(=O)NC2=O)ccc1C

>  <gnina_score>  (769) 
5.273

>  <inspiration_score>  (769) 
None

>  <energy_score>  (769) 
-24.805742

>  <distance_score>  (769) 
1.599822

>  <gnina_score_min>  (769) 
5.277

>  <inchikey>  (769) 
LJYDGEWJZFXFQZ-JXMROGBWSA-N

>  <exports>  (769) 
['/opt/xchem-fragalysis-2/maxwin/BulkDock/OUTPUTS/openbind_a71ev2a_c2_elabs_1LOUU54.sdf', '/opt/xchem-fragalysis-2/maxwin/BulkDock/OUTPUTS/openbind_a71ev2a_c2_elabs_1LSYIDY.sdf']

>  <name>  (769) 
P546461

>  <ref_pdb>  (769) 
A0884a

>  <subsites>  (769) 
None

>  <HIPPO Pose ID>  (769) 
546461

>  <ref_mols>  (769) 
A0884a

>  <HIPPO Compound ID>  (769) 
385089

>  <tags>  (769) 
openbind_a71ev2a_c2_elabs,syndirella_product,openbind_a71ev2a_c2_elabs_fragonly_scored_top80percent,openbind_a71ev2a_c2_elabs_scored,BulkDock Fragalysis export,openbind_a71ev2a_c2_elabs_scored_top80percent,openbind_a71ev2a_c2_elabs_activefrags_only_scored_5.2plus,syndirella_placed

>  <smina_score_min>  (769) 
-7.113

$$$$
P546474
     RDKit          3D

 22 23  0  0  0  0  0  0  0  0999 V2000
    3.7025   15.7064   28.3223 C   0  0  0  0  0  0  0  0  0  0  0  0
    4.7416   14.7262   27.8740 C   0  0  0  0  0  0  0  0  0  0  0  0
    6.3421   15.0904   28.4284 Cl  0  0  0  0  0  0  0  0  0  0  0  0
    4.4558   13.6469   27.1308 C   0  0  0  0  0  0  0  0  0  0  0  0
    5.4416   12.6310   26.6743 C   0  0  0  0  0  0  0  0  0  0  0  0
    5.3259   11.5029   26.9484 O   0  0  0  0  0  0  0  0  0  0  0  0
    6.4854   13.3441   25.7839 N   0  0  0  0  0  0  0  0  0  0  0  0
    7.5091   12.8242   24.9987 C   0  0  0  0  0  0  0  0  0  0  0  0
    7.7641   11.4569   24.9039 C   0  0  0  0  0  0  0  0  0  0  0  0
    8.8255   11.0001   24.1112 C   0  0  0  0  0  0  0  0  0  0  0  0
    9.0882    9.5578   23.8875 C   0  0  0  0  0  0  0  0  0  0  0  0
    9.6462   11.9085   23.4562 C   0  0  0  0  0  0  0  0  0  0  0  0
    9.3879   13.2687   23.5533 C   0  0  0  0  0  0  0  0  0  0  0  0
   10.2027   14.1799   22.8425 N   0  0  0  0  0  0  0  0  0  0  0  0
    9.6680   14.5683   21.5358 C   0  0  0  0  0  0  0  0  0  0  0  0
   10.6223   15.3587   20.6865 C   0  0  0  0  0  0  0  0  0  0  0  0
   11.9887   14.7714   20.8544 C   0  0  0  0  0  0  0  0  0  0  0  0
   12.6993   14.4004   19.9266 O   0  0  0  0  0  0  0  0  0  0  0  0
   12.3825   14.7002   22.1595 N   0  0  0  0  0  0  0  0  0  0  0  0
   11.5646   14.1674   23.1110 C   0  0  0  0  0  0  0  0  0  0  0  0
   12.0521   13.7017   24.1425 O   0  0  0  0  0  0  0  0  0  0  0  0
    8.3045   13.7284   24.2949 C   0  0  0  0  0  0  0  0  0  0  0  0
  1  2  1  0
  2  3  1  0
  2  4  2  0
  4  5  1  0
  5  6  2  0
  5  7  1  0
  7  8  1  0
  8  9  2  0
  9 10  1  0
 10 11  1  0
 10 12  2  0
 12 13  1  0
 13 14  1  0
 14 15  1  0
 15 16  1  0
 16 17  1  0
 17 18  2  0
 17 19  1  0
 19 20  1  0
 20 21  2  0
 13 22  2  0
 22  8  1  0
 20 14  1  0
M  END
>  <alias>  (770) 
None

>  <rmsd(smina/fragmenstein)>  (770) 
0.88

>  <smiles>  (770) 
C/C(Cl)=C/C(=O)Nc1cc(C)cc(N2CCC(=O)NC2=O)c1

>  <gnina_score>  (770) 
5.37

>  <inspiration_score>  (770) 
None

>  <energy_score>  (770) 
-31.762147

>  <distance_score>  (770) 
1.320502

>  <gnina_score_min>  (770) 
5.561

>  <inchikey>  (770) 
GTTBXVFMTYMJEG-YFHOEESVSA-N

>  <exports>  (770) 
['/opt/xchem-fragalysis-2/maxwin/BulkDock/OUTPUTS/openbind_a71ev2a_c2_elabs_1LOUU54.sdf', '/opt/xchem-fragalysis-2/maxwin/BulkDock/OUTPUTS/openbind_a71ev2a_c2_elabs_1LSYIDY.sdf']

>  <name>  (770) 
P546474

>  <ref_pdb>  (770) 
A0884a

>  <subsites>  (770) 
None

>  <HIPPO Pose ID>  (770) 
546474

>  <ref_mols>  (770) 
A0884a

>  <HIPPO Compound ID>  (770) 
385098

>  <tags>  (770) 
openbind_a71ev2a_c2_elabs,syndirella_product,openbind_a71ev2a_c2_elabs_fragonly_scored_top80percent,BulkDock Fragalysis export,openbind_a71ev2a_c2_elabs_scored,openbind_a71ev2a_c2_elabs_scored_top80percent,openbind_a71ev2a_c2_elabs_activefrags_only_scored_5.2plus,openbind_a71ev2a_c2_elabs_activefrags_only_scored_5.5plus,syndirella_placed

>  <smina_score_min>  (770) 
-6.944

$$$$
P546475
     RDKit          3D

 22 23  0  0  0  0  0  0  0  0999 V2000
    3.6857   15.8254   28.2548 C   0  0  0  0  0  0  0  0  0  0  0  0
    4.7104   14.8457   27.7728 C   0  0  0  0  0  0  0  0  0  0  0  0
    6.3431   15.2910   28.1429 Cl  0  0  0  0  0  0  0  0  0  0  0  0
    4.3913   13.7108   27.1333 C   0  0  0  0  0  0  0  0  0  0  0  0
    5.3532   12.6831   26.6497 C   0  0  0  0  0  0  0  0  0  0  0  0
    5.2594   11.5662   26.9741 O   0  0  0  0  0  0  0  0  0  0  0  0
    6.3257   13.3599   25.6560 N   0  0  0  0  0  0  0  0  0  0  0  0
    7.4064   12.8384   24.9525 C   0  0  0  0  0  0  0  0  0  0  0  0
    7.6705   11.4719   24.9002 C   0  0  0  0  0  0  0  0  0  0  0  0
    8.7607   11.0258   24.1577 C   0  0  0  0  0  0  0  0  0  0  0  0
    9.0619    9.3769   23.9254 Cl  0  0  0  0  0  0  0  0  0  0  0  0
    9.6166   11.9062   23.5245 C   0  0  0  0  0  0  0  0  0  0  0  0
    9.3518   13.2651   23.5839 C   0  0  0  0  0  0  0  0  0  0  0  0
   10.1892   14.1629   22.8816 N   0  0  0  0  0  0  0  0  0  0  0  0
    9.6720   14.5724   21.5761 C   0  0  0  0  0  0  0  0  0  0  0  0
   10.6451   15.3541   20.7415 C   0  0  0  0  0  0  0  0  0  0  0  0
   12.0016   14.7467   20.9139 C   0  0  0  0  0  0  0  0  0  0  0  0
   12.7041   14.3702   19.9821 O   0  0  0  0  0  0  0  0  0  0  0  0
   12.3830   14.6606   22.2211 N   0  0  0  0  0  0  0  0  0  0  0  0
   11.5503   14.1327   23.1625 C   0  0  0  0  0  0  0  0  0  0  0  0
   12.0164   13.6443   24.1927 O   0  0  0  0  0  0  0  0  0  0  0  0
    8.2317   13.7330   24.2676 C   0  0  0  0  0  0  0  0  0  0  0  0
  1  2  1  0
  2  3  1  0
  2  4  2  0
  4  5  1  0
  5  6  2  0
  5  7  1  0
  7  8  1  0
  8  9  2  0
  9 10  1  0
 10 11  1  0
 10 12  2  0
 12 13  1  0
 13 14  1  0
 14 15  1  0
 15 16  1  0
 16 17  1  0
 17 18  2  0
 17 19  1  0
 19 20  1  0
 20 21  2  0
 13 22  2  0
 22  8  1  0
 20 14  1  0
M  END
>  <alias>  (771) 
None

>  <rmsd(smina/fragmenstein)>  (771) 
1.072

>  <smiles>  (771) 
C/C(Cl)=C/C(=O)Nc1cc(Cl)cc(N2CCC(=O)NC2=O)c1

>  <gnina_score>  (771) 
5.398

>  <inspiration_score>  (771) 
None

>  <energy_score>  (771) 
-38.093203

>  <distance_score>  (771) 
1.343784

>  <gnina_score_min>  (771) 
5.563

>  <inchikey>  (771) 
USIFPCMXHDCHBU-YWEYNIOJSA-N

>  <exports>  (771) 
['/opt/xchem-fragalysis-2/maxwin/BulkDock/OUTPUTS/openbind_a71ev2a_c2_elabs_1LOUU54.sdf', '/opt/xchem-fragalysis-2/maxwin/BulkDock/OUTPUTS/openbind_a71ev2a_c2_elabs_1LSYIDY.sdf']

>  <name>  (771) 
P546475

>  <ref_pdb>  (771) 
A0884a

>  <subsites>  (771) 
None

>  <HIPPO Pose ID>  (771) 
546475

>  <ref_mols>  (771) 
A0884a

>  <HIPPO Compound ID>  (771) 
385099

>  <tags>  (771) 
openbind_a71ev2a_c2_elabs,syndirella_product,openbind_a71ev2a_c2_elabs_fragonly_scored_top80percent,BulkDock Fragalysis export,openbind_a71ev2a_c2_elabs_scored,openbind_a71ev2a_c2_elabs_scored_top80percent,openbind_a71ev2a_c2_elabs_activefrags_only_scored_5.2plus,openbind_a71ev2a_c2_elabs_activefrags_only_scored_5.5plus,syndirella_placed

>  <smina_score_min>  (771) 
-6.958

$$$$
P546477
     RDKit          3D

 22 23  0  0  0  0  0  0  0  0999 V2000
    2.8428   12.3575   28.4261 C   0  0  0  0  0  0  0  0  0  0  0  0
    3.3253   13.5852   27.7172 C   0  0  0  0  0  0  0  0  0  0  0  0
    2.2758   14.9621   27.9342 Cl  0  0  0  0  0  0  0  0  0  0  0  0
    4.4130   13.7430   26.9451 C   0  0  0  0  0  0  0  0  0  0  0  0
    5.4224   12.6676   26.6890 C   0  0  0  0  0  0  0  0  0  0  0  0
    5.5044   11.7117   27.3525 O   0  0  0  0  0  0  0  0  0  0  0  0
    6.2322   13.0943   25.4357 N   0  0  0  0  0  0  0  0  0  0  0  0
    7.3347   12.4953   24.8209 C   0  0  0  0  0  0  0  0  0  0  0  0
    8.1280   13.2940   23.9893 C   0  0  0  0  0  0  0  0  0  0  0  0
    9.2850   12.7707   23.4020 C   0  0  0  0  0  0  0  0  0  0  0  0
   10.1580   13.5904   22.6424 N   0  0  0  0  0  0  0  0  0  0  0  0
    9.5950   14.4989   21.6552 C   0  0  0  0  0  0  0  0  0  0  0  0
   10.5784   14.9530   20.5966 C   0  0  0  0  0  0  0  0  0  0  0  0
   11.9827   14.5645   20.9369 C   0  0  0  0  0  0  0  0  0  0  0  0
   12.8232   14.3102   20.0800 O   0  0  0  0  0  0  0  0  0  0  0  0
   12.2562   14.5394   22.2701 N   0  0  0  0  0  0  0  0  0  0  0  0
   11.4636   13.7823   23.0862 C   0  0  0  0  0  0  0  0  0  0  0  0
   11.9259   13.3143   24.1257 O   0  0  0  0  0  0  0  0  0  0  0  0
    9.5853   11.4155   23.5567 C   0  0  0  0  0  0  0  0  0  0  0  0
    8.7559   10.5977   24.3157 C   0  0  0  0  0  0  0  0  0  0  0  0
    7.6626   11.1463   24.9769 C   0  0  0  0  0  0  0  0  0  0  0  0
    6.9036   10.3237   25.7072 F   0  0  0  0  0  0  0  0  0  0  0  0
  1  2  1  0
  2  3  1  0
  2  4  2  0
  4  5  1  0
  5  6  2  0
  5  7  1  0
  7  8  1  0
  8  9  2  0
  9 10  1  0
 10 11  1  0
 11 12  1  0
 12 13  1  0
 13 14  1  0
 14 15  2  0
 14 16  1  0
 16 17  1  0
 17 18  2  0
 10 19  2  0
 19 20  1  0
 20 21  2  0
 21 22  1  0
 21  8  1  0
 17 11  1  0
M  END
>  <alias>  (772) 
None

>  <rmsd(smina/fragmenstein)>  (772) 
0.804

>  <smiles>  (772) 
C/C(Cl)=C\C(=O)Nc1cc(N2CCC(=O)NC2=O)ccc1F

>  <gnina_score>  (772) 
5.372

>  <inspiration_score>  (772) 
None

>  <energy_score>  (772) 
-28.580996

>  <distance_score>  (772) 
1.203076

>  <gnina_score_min>  (772) 
5.434

>  <inchikey>  (772) 
VGPQDHNQKKKLRR-SOFGYWHQSA-N

>  <exports>  (772) 
['/opt/xchem-fragalysis-2/maxwin/BulkDock/OUTPUTS/openbind_a71ev2a_c2_elabs_1LOUU54.sdf', '/opt/xchem-fragalysis-2/maxwin/BulkDock/OUTPUTS/openbind_a71ev2a_c2_elabs_1LSYIDY.sdf']

>  <name>  (772) 
P546477

>  <ref_pdb>  (772) 
A0884a

>  <subsites>  (772) 
None

>  <HIPPO Pose ID>  (772) 
546477

>  <ref_mols>  (772) 
A0884a

>  <HIPPO Compound ID>  (772) 
385100

>  <tags>  (772) 
openbind_a71ev2a_c2_elabs,syndirella_product,openbind_a71ev2a_c2_elabs_fragonly_scored_top80percent,openbind_a71ev2a_c2_elabs_scored,BulkDock Fragalysis export,openbind_a71ev2a_c2_elabs_scored_top80percent,openbind_a71ev2a_c2_elabs_activefrags_only_scored_5.2plus,syndirella_placed

>  <smina_score_min>  (772) 
-7.348

$$$$
P546479
     RDKit          3D

 22 23  0  0  0  0  0  0  0  0999 V2000
    2.1707   13.4980   27.8810 C   0  0  0  0  0  0  0  0  0  0  0  0
    3.1882   14.5870   27.7458 C   0  0  0  0  0  0  0  0  0  0  0  0
    2.6137   16.1481   28.2639 Cl  0  0  0  0  0  0  0  0  0  0  0  0
    4.4388   14.5037   27.2657 C   0  0  0  0  0  0  0  0  0  0  0  0
    5.0814   13.2211   26.8481 C   0  0  0  0  0  0  0  0  0  0  0  0
    4.7364   12.1796   27.2477 O   0  0  0  0  0  0  0  0  0  0  0  0
    6.2000   13.5902   25.8373 N   0  0  0  0  0  0  0  0  0  0  0  0
    7.1500   12.7895   25.2075 C   0  0  0  0  0  0  0  0  0  0  0  0
    7.1828   11.4123   25.3828 C   0  0  0  0  0  0  0  0  0  0  0  0
    8.1229   10.6524   24.6929 C   0  0  0  0  0  0  0  0  0  0  0  0
    9.0502   11.2526   23.8270 C   0  0  0  0  0  0  0  0  0  0  0  0
    9.9452   10.3241   23.0709 C   0  0  0  0  0  0  0  0  0  0  0  0
    9.0537   12.6522   23.6824 C   0  0  0  0  0  0  0  0  0  0  0  0
    9.9970   13.3280   22.8394 N   0  0  0  0  0  0  0  0  0  0  0  0
    9.4766   14.3218   21.9084 C   0  0  0  0  0  0  0  0  0  0  0  0
   10.4587   14.7883   20.8563 C   0  0  0  0  0  0  0  0  0  0  0  0
   11.8788   14.5212   21.2346 C   0  0  0  0  0  0  0  0  0  0  0  0
   12.7802   14.5129   20.3997 O   0  0  0  0  0  0  0  0  0  0  0  0
   12.1070   14.3104   22.5600 N   0  0  0  0  0  0  0  0  0  0  0  0
   11.2814   13.5472   23.3439 C   0  0  0  0  0  0  0  0  0  0  0  0
   11.7036   13.1084   24.4116 O   0  0  0  0  0  0  0  0  0  0  0  0
    8.0826   13.4025   24.3650 C   0  0  0  0  0  0  0  0  0  0  0  0
  1  2  1  0
  2  3  1  0
  2  4  2  0
  4  5  1  0
  5  6  2  0
  5  7  1  0
  7  8  1  0
  8  9  2  0
  9 10  1  0
 10 11  2  0
 11 12  1  0
 11 13  1  0
 13 14  1  0
 14 15  1  0
 15 16  1  0
 16 17  1  0
 17 18  2  0
 17 19  1  0
 19 20  1  0
 20 21  2  0
 13 22  2  0
 22  8  1  0
 20 14  1  0
M  END
>  <alias>  (773) 
None

>  <rmsd(smina/fragmenstein)>  (773) 
0.77

>  <smiles>  (773) 
C/C(Cl)=C\C(=O)Nc1ccc(C)c(N2CCC(=O)NC2=O)c1

>  <gnina_score>  (773) 
5.394

>  <inspiration_score>  (773) 
None

>  <energy_score>  (773) 
-38.860041

>  <distance_score>  (773) 
1.401567

>  <gnina_score_min>  (773) 
5.429

>  <inchikey>  (773) 
LEQSKHGSMSMCPA-JXMROGBWSA-N

>  <exports>  (773) 
['/opt/xchem-fragalysis-2/maxwin/BulkDock/OUTPUTS/openbind_a71ev2a_c2_elabs_1LOUU54.sdf', '/opt/xchem-fragalysis-2/maxwin/BulkDock/OUTPUTS/openbind_a71ev2a_c2_elabs_1LSYIDY.sdf']

>  <name>  (773) 
P546479

>  <ref_pdb>  (773) 
A0884a

>  <subsites>  (773) 
None

>  <HIPPO Pose ID>  (773) 
546479

>  <ref_mols>  (773) 
A0884a

>  <HIPPO Compound ID>  (773) 
385101

>  <tags>  (773) 
openbind_a71ev2a_c2_elabs,syndirella_product,openbind_a71ev2a_c2_elabs_fragonly_scored_top80percent,openbind_a71ev2a_c2_elabs_scored,BulkDock Fragalysis export,openbind_a71ev2a_c2_elabs_scored_top80percent,openbind_a71ev2a_c2_elabs_activefrags_only_scored_5.2plus,syndirella_placed

>  <smina_score_min>  (773) 
-6.879

$$$$
P546484
     RDKit          3D

 22 23  0  0  0  0  0  0  0  0999 V2000
    4.4302   11.1881   29.8160 C   0  0  0  0  0  0  0  0  0  0  0  0
    4.0188   12.2020   28.7934 C   0  0  0  0  0  0  0  0  0  0  0  0
    2.6610   13.1791   29.2759 Cl  0  0  0  0  0  0  0  0  0  0  0  0
    4.5742   12.4442   27.5961 C   0  0  0  0  0  0  0  0  0  0  0  0
    5.6782   11.6194   27.0221 C   0  0  0  0  0  0  0  0  0  0  0  0
    5.8769   10.5170   27.3465 O   0  0  0  0  0  0  0  0  0  0  0  0
    6.4110   12.5088   25.9876 N   0  0  0  0  0  0  0  0  0  0  0  0
    7.4476   12.2028   25.0987 C   0  0  0  0  0  0  0  0  0  0  0  0
    7.8483   10.8732   24.9379 C   0  0  0  0  0  0  0  0  0  0  0  0
    8.9069   10.5493   24.0962 C   0  0  0  0  0  0  0  0  0  0  0  0
    9.6061   11.5633   23.4539 C   0  0  0  0  0  0  0  0  0  0  0  0
    9.2270   12.9065   23.6031 C   0  0  0  0  0  0  0  0  0  0  0  0
   10.0340   13.9153   22.9773 N   0  0  0  0  0  0  0  0  0  0  0  0
    9.5923   14.3422   21.6463 C   0  0  0  0  0  0  0  0  0  0  0  0
   10.5309   15.2754   20.9284 C   0  0  0  0  0  0  0  0  0  0  0  0
   11.9166   14.7537   21.1240 C   0  0  0  0  0  0  0  0  0  0  0  0
   12.6956   14.5183   20.2058 O   0  0  0  0  0  0  0  0  0  0  0  0
   12.2363   14.5531   22.4363 N   0  0  0  0  0  0  0  0  0  0  0  0
   11.3836   13.9620   23.3265 C   0  0  0  0  0  0  0  0  0  0  0  0
   11.8346   13.4907   24.3720 O   0  0  0  0  0  0  0  0  0  0  0  0
    8.0950   13.2357   24.3801 C   0  0  0  0  0  0  0  0  0  0  0  0
    7.6571   14.6677   24.5395 C   0  0  0  0  0  0  0  0  0  0  0  0
  1  2  1  0
  2  3  1  0
  2  4  2  0
  4  5  1  0
  5  6  2  0
  5  7  1  0
  7  8  1  0
  8  9  2  0
  9 10  1  0
 10 11  2  0
 11 12  1  0
 12 13  1  0
 13 14  1  0
 14 15  1  0
 15 16  1  0
 16 17  2  0
 16 18  1  0
 18 19  1  0
 19 20  2  0
 12 21  2  0
 21 22  1  0
 21  8  1  0
 19 13  1  0
M  END
>  <alias>  (774) 
None

>  <rmsd(smina/fragmenstein)>  (774) 
0.745

>  <smiles>  (774) 
C/C(Cl)=C\C(=O)Nc1cccc(N2CCC(=O)NC2=O)c1C

>  <gnina_score>  (774) 
5.312

>  <inspiration_score>  (774) 
None

>  <energy_score>  (774) 
-44.101453

>  <distance_score>  (774) 
1.18179

>  <gnina_score_min>  (774) 
5.304

>  <inchikey>  (774) 
PIMIUBZHCLSPCI-CMDGGOBGSA-N

>  <exports>  (774) 
['/opt/xchem-fragalysis-2/maxwin/BulkDock/OUTPUTS/openbind_a71ev2a_c2_elabs_1LOUU54.sdf', '/opt/xchem-fragalysis-2/maxwin/BulkDock/OUTPUTS/openbind_a71ev2a_c2_elabs_1LSYIDY.sdf']

>  <name>  (774) 
P546484

>  <ref_pdb>  (774) 
A0884a

>  <subsites>  (774) 
None

>  <HIPPO Pose ID>  (774) 
546484

>  <ref_mols>  (774) 
A0884a

>  <HIPPO Compound ID>  (774) 
385104

>  <tags>  (774) 
openbind_a71ev2a_c2_elabs,syndirella_product,openbind_a71ev2a_c2_elabs_fragonly_scored_top80percent,openbind_a71ev2a_c2_elabs_scored,BulkDock Fragalysis export,openbind_a71ev2a_c2_elabs_scored_top80percent,openbind_a71ev2a_c2_elabs_activefrags_only_scored_5.2plus,syndirella_placed

>  <smina_score_min>  (774) 
-7.24

$$$$
P546486
     RDKit          3D

 22 23  0  0  0  0  0  0  0  0999 V2000
    7.7586   14.7586   24.6744 C   0  0  0  0  0  0  0  0  0  0  0  0
    8.1277   13.3062   24.5304 C   0  0  0  0  0  0  0  0  0  0  0  0
    7.4531   12.3208   25.2894 C   0  0  0  0  0  0  0  0  0  0  0  0
    6.5783   12.7288   26.3062 N   0  0  0  0  0  0  0  0  0  0  0  0
    5.7984   11.8930   27.3654 C   0  0  0  0  0  0  0  0  0  0  0  0
    5.7082   10.7349   27.4997 O   0  0  0  0  0  0  0  0  0  0  0  0
    5.1726   12.9007   28.3294 C   0  0  0  0  0  0  0  0  0  0  0  0
    4.0150   13.6830   27.7140 C   0  0  0  0  0  0  0  0  0  0  0  0
    2.7076   12.9186   27.8077 C   0  0  0  0  0  0  0  0  0  0  0  0
    2.3487   12.8083   29.1137 F   0  0  0  0  0  0  0  0  0  0  0  0
    7.7236   10.9682   25.0766 C   0  0  0  0  0  0  0  0  0  0  0  0
    8.7257   10.5828   24.1859 C   0  0  0  0  0  0  0  0  0  0  0  0
    9.4790   11.5496   23.5249 C   0  0  0  0  0  0  0  0  0  0  0  0
    9.1939   12.9122   23.6937 C   0  0  0  0  0  0  0  0  0  0  0  0
   10.0240   13.8828   23.0400 N   0  0  0  0  0  0  0  0  0  0  0  0
    9.5824   14.2999   21.7077 C   0  0  0  0  0  0  0  0  0  0  0  0
   10.5189   15.2331   20.9871 C   0  0  0  0  0  0  0  0  0  0  0  0
   11.9029   14.7039   21.1710 C   0  0  0  0  0  0  0  0  0  0  0  0
   12.6761   14.4769   20.2470 O   0  0  0  0  0  0  0  0  0  0  0  0
   12.2298   14.4842   22.4790 N   0  0  0  0  0  0  0  0  0  0  0  0
   11.3754   13.9076   23.3779 C   0  0  0  0  0  0  0  0  0  0  0  0
   11.8264   13.4422   24.4257 O   0  0  0  0  0  0  0  0  0  0  0  0
  1  2  1  0
  2  3  2  0
  3  4  1  0
  4  5  1  0
  5  6  2  0
  5  7  1  0
  7  8  1  0
  8  9  1  0
  9 10  1  0
  3 11  1  0
 11 12  2  0
 12 13  1  0
 13 14  2  0
 14 15  1  0
 15 16  1  0
 16 17  1  0
 17 18  1  0
 18 19  2  0
 18 20  1  0
 20 21  1  0
 21 22  2  0
 14  2  1  0
 21 15  1  0
M  END
>  <alias>  (775) 
None

>  <rmsd(smina/fragmenstein)>  (775) 
0.497

>  <smiles>  (775) 
Cc1c(NC(=O)CCCF)cccc1N1CCC(=O)NC1=O

>  <gnina_score>  (775) 
5.244

>  <inspiration_score>  (775) 
None

>  <energy_score>  (775) 
-29.748966

>  <distance_score>  (775) 
1.181751

>  <gnina_score_min>  (775) 
5.29

>  <inchikey>  (775) 
IMFMGCUYXJTFQX-UHFFFAOYSA-N

>  <exports>  (775) 
['/opt/xchem-fragalysis-2/maxwin/BulkDock/OUTPUTS/openbind_a71ev2a_c2_elabs_1LOUU54.sdf', '/opt/xchem-fragalysis-2/maxwin/BulkDock/OUTPUTS/openbind_a71ev2a_c2_elabs_1LSYIDY.sdf']

>  <name>  (775) 
P546486

>  <ref_pdb>  (775) 
A0884a

>  <subsites>  (775) 
None

>  <HIPPO Pose ID>  (775) 
546486

>  <ref_mols>  (775) 
A0884a

>  <HIPPO Compound ID>  (775) 
385107

>  <tags>  (775) 
openbind_a71ev2a_c2_elabs,syndirella_product,openbind_a71ev2a_c2_elabs_fragonly_scored_top80percent,openbind_a71ev2a_c2_elabs_scored,BulkDock Fragalysis export,openbind_a71ev2a_c2_elabs_scored_top80percent,openbind_a71ev2a_c2_elabs_activefrags_only_scored_5.2plus,syndirella_placed

>  <smina_score_min>  (775) 
-6.555

$$$$
P546487
     RDKit          3D

 22 23  0  0  0  0  0  0  0  0999 V2000
    9.8462   16.4143   20.7619 C   0  0  0  0  0  0  0  0  0  0  0  0
   10.6145   15.1314   21.0670 C   0  0  0  0  0  0  0  0  0  0  0  0
   11.4167   14.6661   19.8604 C   0  0  0  0  0  0  0  0  0  0  0  0
   11.4824   15.1696   22.2232 N   0  0  0  0  0  0  0  0  0  0  0  0
   11.1919   14.1666   23.1307 C   0  0  0  0  0  0  0  0  0  0  0  0
   11.6652   14.1166   24.2577 O   0  0  0  0  0  0  0  0  0  0  0  0
   10.2113   13.3641   22.6029 N   0  0  0  0  0  0  0  0  0  0  0  0
    9.4103   12.5712   23.4535 C   0  0  0  0  0  0  0  0  0  0  0  0
    9.5549   11.1861   23.4410 C   0  0  0  0  0  0  0  0  0  0  0  0
    8.7180   10.3983   24.2286 C   0  0  0  0  0  0  0  0  0  0  0  0
    7.7354   10.9874   25.0290 C   0  0  0  0  0  0  0  0  0  0  0  0
    7.5807   12.3710   25.0312 C   0  0  0  0  0  0  0  0  0  0  0  0
    6.5909   13.0083   25.7703 N   0  0  0  0  0  0  0  0  0  0  0  0
    5.5483   12.4312   26.7731 C   0  0  0  0  0  0  0  0  0  0  0  0
    5.4153   11.3451   27.1867 O   0  0  0  0  0  0  0  0  0  0  0  0
    4.6746   13.5978   27.2142 C   0  0  0  0  0  0  0  0  0  0  0  0
    5.3905   14.4486   28.2540 C   0  0  0  0  0  0  0  0  0  0  0  0
    4.5175   15.5864   28.7471 C   0  0  0  0  0  0  0  0  0  0  0  0
    5.2162   16.2880   29.6794 F   0  0  0  0  0  0  0  0  0  0  0  0
    8.4195   13.1617   24.2467 C   0  0  0  0  0  0  0  0  0  0  0  0
    9.6252   14.0827   21.5826 C   0  0  0  0  0  0  0  0  0  0  0  0
    8.4708   13.9627   21.1766 O   0  0  0  0  0  0  0  0  0  0  0  0
  1  2  1  0
  2  3  1  0
  2  4  1  0
  4  5  1  0
  5  6  2  0
  5  7  1  0
  7  8  1  0
  8  9  2  0
  9 10  1  0
 10 11  2  0
 11 12  1  0
 12 13  1  0
 13 14  1  0
 14 15  2  0
 14 16  1  0
 16 17  1  0
 17 18  1  0
 18 19  1  0
 12 20  2  0
  7 21  1  0
 21 22  2  0
 21  2  1  0
 20  8  1  0
M  END
>  <alias>  (776) 
None

>  <rmsd(smina/fragmenstein)>  (776) 
0.96

>  <smiles>  (776) 
CC1(C)NC(=O)N(c2cccc(NC(=O)CCCF)c2)C1=O

>  <gnina_score>  (776) 
5.075

>  <inspiration_score>  (776) 
None

>  <energy_score>  (776) 
-6.729455

>  <distance_score>  (776) 
1.111247

>  <gnina_score_min>  (776) 
5.378

>  <inchikey>  (776) 
JHRZPLCZDRQBDB-UHFFFAOYSA-N

>  <exports>  (776) 
['/opt/xchem-fragalysis-2/maxwin/BulkDock/OUTPUTS/openbind_a71ev2a_c2_elabs_1LOUU54.sdf', '/opt/xchem-fragalysis-2/maxwin/BulkDock/OUTPUTS/openbind_a71ev2a_c2_elabs_1LSYIDY.sdf']

>  <name>  (776) 
P546487

>  <ref_pdb>  (776) 
A0884a

>  <subsites>  (776) 
None

>  <HIPPO Pose ID>  (776) 
546487

>  <ref_mols>  (776) 
A0884a

>  <HIPPO Compound ID>  (776) 
385109

>  <tags>  (776) 
openbind_a71ev2a_c2_elabs,syndirella_product,openbind_a71ev2a_c2_elabs_fragonly_scored_top80percent,openbind_a71ev2a_c2_elabs_scored,BulkDock Fragalysis export,openbind_a71ev2a_c2_elabs_scored_top80percent,openbind_a71ev2a_c2_elabs_activefrags_only_scored_5.2plus,syndirella_placed

>  <smina_score_min>  (776) 
-6.445

$$$$
P546488
     RDKit          3D

 22 23  0  0  0  0  0  0  0  0999 V2000
    7.8580   14.4238   23.0725 C   0  0  0  0  0  0  0  0  0  0  0  0
    8.1496   13.0112   23.4912 C   0  0  0  0  0  0  0  0  0  0  0  0
    7.3226   12.3662   24.4423 C   0  0  0  0  0  0  0  0  0  0  0  0
    6.3103   13.0874   25.0840 N   0  0  0  0  0  0  0  0  0  0  0  0
    5.3884   12.6940   26.2766 C   0  0  0  0  0  0  0  0  0  0  0  0
    5.2838   11.6794   26.8522 O   0  0  0  0  0  0  0  0  0  0  0  0
    4.5825   13.9333   26.6732 C   0  0  0  0  0  0  0  0  0  0  0  0
    3.7049   14.5055   25.5591 C   0  0  0  0  0  0  0  0  0  0  0  0
    4.2902   15.7881   24.9914 C   0  0  0  0  0  0  0  0  0  0  0  0
    5.5681   15.5370   24.6037 F   0  0  0  0  0  0  0  0  0  0  0  0
    7.5427   11.0277   24.7738 C   0  0  0  0  0  0  0  0  0  0  0  0
    8.5523   10.3076   24.1443 C   0  0  0  0  0  0  0  0  0  0  0  0
    9.4300   10.9527   23.2826 C   0  0  0  0  0  0  0  0  0  0  0  0
    9.3080   12.3359   23.0335 C   0  0  0  0  0  0  0  0  0  0  0  0
   10.5558   13.0174   23.0597 N   0  0  0  0  0  0  0  0  0  0  0  0
   11.0093   14.1033   22.3811 C   0  0  0  0  0  0  0  0  0  0  0  0
   10.7465   14.4966   21.2606 O   0  0  0  0  0  0  0  0  0  0  0  0
   11.8906   14.8054   23.1952 N   0  0  0  0  0  0  0  0  0  0  0  0
   12.1179   14.1478   24.4401 C   0  0  1  0  0  0  0  0  0  0  0  0
   11.8499   14.9460   25.7239 C   0  0  0  0  0  0  0  0  0  0  0  0
   11.0150   13.1742   24.3181 C   0  0  0  0  0  0  0  0  0  0  0  0
   10.5111   12.6632   25.2996 O   0  0  0  0  0  0  0  0  0  0  0  0
  1  2  1  0
  2  3  2  0
  3  4  1  0
  4  5  1  0
  5  6  2  0
  5  7  1  0
  7  8  1  0
  8  9  1  0
  9 10  1  0
  3 11  1  0
 11 12  2  0
 12 13  1  0
 13 14  2  0
 14 15  1  0
 15 16  1  0
 16 17  2  0
 16 18  1  0
 18 19  1  0
 19 20  1  1
 19 21  1  0
 21 22  2  0
 14  2  1  0
 21 15  1  0
M  END
>  <alias>  (777) 
None

>  <rmsd(smina/fragmenstein)>  (777) 
0.358

>  <smiles>  (777) 
Cc1c(NC(=O)CCCF)cccc1N1C(=O)N[C@@H](C)C1=O

>  <gnina_score>  (777) 
5.454

>  <inspiration_score>  (777) 
None

>  <energy_score>  (777) 
-4.043013

>  <distance_score>  (777) 
1.361933

>  <gnina_score_min>  (777) 
5.385

>  <inchikey>  (777) 
TXMLRYTXCBWAFW-JTQLQIEISA-N

>  <exports>  (777) 
['/opt/xchem-fragalysis-2/maxwin/BulkDock/OUTPUTS/openbind_a71ev2a_c2_elabs_1LOUU54.sdf', '/opt/xchem-fragalysis-2/maxwin/BulkDock/OUTPUTS/openbind_a71ev2a_c2_elabs_1LSYIDY.sdf']

>  <name>  (777) 
P546488

>  <ref_pdb>  (777) 
A0884a

>  <subsites>  (777) 
None

>  <HIPPO Pose ID>  (777) 
546488

>  <ref_mols>  (777) 
A0884a

>  <HIPPO Compound ID>  (777) 
385110

>  <tags>  (777) 
openbind_a71ev2a_c2_elabs,syndirella_product,openbind_a71ev2a_c2_elabs_fragonly_scored_top80percent,openbind_a71ev2a_c2_elabs_scored,BulkDock Fragalysis export,openbind_a71ev2a_c2_elabs_scored_top80percent,openbind_a71ev2a_c2_elabs_activefrags_only_scored_5.2plus,syndirella_placed

>  <smina_score_min>  (777) 
-4.518

$$$$
P546492
     RDKit          3D

 22 23  0  0  0  0  0  0  0  0999 V2000
   10.6891   15.8940   27.2930 O   0  0  0  0  0  0  0  0  0  0  0  0
   10.1425   15.1205   26.5110 C   0  0  0  0  0  0  0  0  0  0  0  0
    8.6476   14.9339   26.4931 C   0  0  0  0  0  0  0  0  0  0  0  0
    8.1852   14.7793   25.0648 C   0  0  0  0  0  0  0  0  0  0  0  0
    9.0347   13.8586   24.2976 N   0  0  0  0  0  0  0  0  0  0  0  0
    8.6464   12.4909   24.2886 C   0  0  0  0  0  0  0  0  0  0  0  0
    9.3958   11.5531   23.5882 C   0  0  0  0  0  0  0  0  0  0  0  0
    9.1215   10.2181   23.7686 C   0  0  0  0  0  0  0  0  0  0  0  0
   10.0881    9.0624   22.9803 Cl  0  0  0  0  0  0  0  0  0  0  0  0
    8.1032    9.8182   24.6229 C   0  0  0  0  0  0  0  0  0  0  0  0
    7.3358   10.7302   25.3130 C   0  0  0  0  0  0  0  0  0  0  0  0
    6.3795   10.3122   26.2357 N   0  0  0  0  0  0  0  0  0  0  0  0
    5.4871   11.1383   27.2143 C   0  0  0  0  0  0  0  0  0  0  0  0
    5.3669   12.2959   27.3365 O   0  0  0  0  0  0  0  0  0  0  0  0
    4.7611   10.1642   28.1298 C   0  0  0  0  0  0  0  0  0  0  0  0
    5.4616   10.1116   29.4773 C   0  0  0  0  0  0  0  0  0  0  0  0
    4.7780    9.1380   30.4179 C   0  0  0  0  0  0  0  0  0  0  0  0
    5.5883    8.9368   31.4901 F   0  0  0  0  0  0  0  0  0  0  0  0
    7.5882   12.0643   25.1064 C   0  0  0  0  0  0  0  0  0  0  0  0
   10.4196   14.0791   24.3217 C   0  0  0  0  0  0  0  0  0  0  0  0
   11.2036   13.9255   23.3908 O   0  0  0  0  0  0  0  0  0  0  0  0
   10.8855   14.4707   25.5586 N   0  0  0  0  0  0  0  0  0  0  0  0
  1  2  2  0
  2  3  1  0
  3  4  1  0
  4  5  1  0
  5  6  1  0
  6  7  2  0
  7  8  1  0
  8  9  1  0
  8 10  2  0
 10 11  1  0
 11 12  1  0
 12 13  1  0
 13 14  2  0
 13 15  1  0
 15 16  1  0
 16 17  1  0
 17 18  1  0
 11 19  2  0
  5 20  1  0
 20 21  2  0
 20 22  1  0
 22  2  1  0
 19  6  1  0
M  END
>  <alias>  (778) 
None

>  <rmsd(smina/fragmenstein)>  (778) 
0.579

>  <smiles>  (778) 
O=C1CCN(c2cc(Cl)cc(NC(=O)CCCF)c2)C(=O)N1

>  <gnina_score>  (778) 
5.369

>  <inspiration_score>  (778) 
None

>  <energy_score>  (778) 
-9.733682

>  <distance_score>  (778) 
1.572095

>  <gnina_score_min>  (778) 
5.282

>  <inchikey>  (778) 
FZAHCEDTMGHTDA-UHFFFAOYSA-N

>  <exports>  (778) 
['/opt/xchem-fragalysis-2/maxwin/BulkDock/OUTPUTS/openbind_a71ev2a_c2_elabs_1LOUU54.sdf', '/opt/xchem-fragalysis-2/maxwin/BulkDock/OUTPUTS/openbind_a71ev2a_c2_elabs_1LSYIDY.sdf']

>  <name>  (778) 
P546492

>  <ref_pdb>  (778) 
A0884a

>  <subsites>  (778) 
None

>  <HIPPO Pose ID>  (778) 
546492

>  <ref_mols>  (778) 
A0884a

>  <HIPPO Compound ID>  (778) 
385113

>  <tags>  (778) 
openbind_a71ev2a_c2_elabs,syndirella_product,openbind_a71ev2a_c2_elabs_fragonly_scored_top80percent,openbind_a71ev2a_c2_elabs_scored,BulkDock Fragalysis export,openbind_a71ev2a_c2_elabs_scored_top80percent,openbind_a71ev2a_c2_elabs_activefrags_only_scored_5.2plus,syndirella_placed

>  <smina_score_min>  (778) 
-4.977

$$$$
P546493
     RDKit          3D

 22 23  0  0  0  0  0  0  0  0999 V2000
    7.2284   14.4529   24.6060 C   0  0  0  0  0  0  0  0  0  0  0  0
    7.7289   13.0295   24.6657 C   0  0  0  0  0  0  0  0  0  0  0  0
    6.9760   12.0415   25.3229 C   0  0  0  0  0  0  0  0  0  0  0  0
    5.8996   12.4099   26.1307 N   0  0  0  0  0  0  0  0  0  0  0  0
    5.1733   11.6278   27.2674 C   0  0  0  0  0  0  0  0  0  0  0  0
    5.3184   10.5307   27.6439 O   0  0  0  0  0  0  0  0  0  0  0  0
    4.1288   12.5894   27.8312 C   0  0  0  0  0  0  0  0  0  0  0  0
    3.4087   12.0571   29.0717 C   0  0  0  0  0  0  0  0  0  0  0  0
    2.5237   10.8480   28.8076 C   0  0  0  0  0  0  0  0  0  0  0  0
    1.6640   11.1273   27.7898 F   0  0  0  0  0  0  0  0  0  0  0  0
    7.3441   10.7025   25.2124 C   0  0  0  0  0  0  0  0  0  0  0  0
    8.4307   10.3352   24.4230 C   0  0  0  0  0  0  0  0  0  0  0  0
    9.2502   11.3129   23.8875 C   0  0  0  0  0  0  0  0  0  0  0  0
   10.4002   10.9158   23.3370 F   0  0  0  0  0  0  0  0  0  0  0  0
    8.9737   12.6676   24.1012 C   0  0  0  0  0  0  0  0  0  0  0  0
   10.0575   13.5796   24.1184 N   0  0  0  0  0  0  0  0  0  0  0  0
   10.3494   14.2963   25.2597 C   0  0  0  0  0  0  0  0  0  0  0  0
    9.6161   14.6417   26.1805 O   0  0  0  0  0  0  0  0  0  0  0  0
   11.8122   14.6335   25.2572 C   0  0  0  0  0  0  0  0  0  0  0  0
   12.2167   14.1088   24.0019 N   0  0  0  0  0  0  0  0  0  0  0  0
   11.1687   13.5498   23.3238 C   0  0  0  0  0  0  0  0  0  0  0  0
   11.2983   13.1819   22.1751 O   0  0  0  0  0  0  0  0  0  0  0  0
  1  2  1  0
  2  3  2  0
  3  4  1  0
  4  5  1  0
  5  6  2  0
  5  7  1  0
  7  8  1  0
  8  9  1  0
  9 10  1  0
  3 11  1  0
 11 12  2  0
 12 13  1  0
 13 14  1  0
 13 15  2  0
 15 16  1  0
 16 17  1  0
 17 18  2  0
 17 19  1  0
 19 20  1  0
 20 21  1  0
 21 22  2  0
 15  2  1  0
 21 16  1  0
M  END
>  <alias>  (779) 
None

>  <rmsd(smina/fragmenstein)>  (779) 
1.745

>  <smiles>  (779) 
Cc1c(NC(=O)CCCF)ccc(F)c1N1C(=O)CNC1=O

>  <gnina_score>  (779) 
5.22

>  <inspiration_score>  (779) 
None

>  <energy_score>  (779) 
-31.588571

>  <distance_score>  (779) 
1.414389

>  <gnina_score_min>  (779) 
5.566

>  <inchikey>  (779) 
SSRPAEWFEHRKPK-UHFFFAOYSA-N

>  <exports>  (779) 
['/opt/xchem-fragalysis-2/maxwin/BulkDock/OUTPUTS/openbind_a71ev2a_c2_elabs_1LOUU54.sdf', '/opt/xchem-fragalysis-2/maxwin/BulkDock/OUTPUTS/openbind_a71ev2a_c2_elabs_1LSYIDY.sdf']

>  <name>  (779) 
P546493

>  <ref_pdb>  (779) 
A0884a

>  <subsites>  (779) 
None

>  <HIPPO Pose ID>  (779) 
546493

>  <ref_mols>  (779) 
A0884a

>  <HIPPO Compound ID>  (779) 
385114

>  <tags>  (779) 
openbind_a71ev2a_c2_elabs,syndirella_product,openbind_a71ev2a_c2_elabs_fragonly_scored_top80percent,BulkDock Fragalysis export,openbind_a71ev2a_c2_elabs_scored,openbind_a71ev2a_c2_elabs_scored_top80percent,openbind_a71ev2a_c2_elabs_activefrags_only_scored_5.2plus,openbind_a71ev2a_c2_elabs_activefrags_only_scored_5.5plus,syndirella_placed

>  <smina_score_min>  (779) 
-6.175

$$$$
P546495
     RDKit          3D

 22 23  0  0  0  0  0  0  0  0999 V2000
    3.3375   13.7375   29.5115 C   0  0  0  0  0  0  0  0  0  0  0  0
    3.4974   13.1948   28.2959 C   0  0  0  0  0  0  0  0  0  0  0  0
    4.4362   13.7121   27.2386 C   0  0  2  0  0  0  0  0  0  0  0  0
    3.4661   14.3379   25.8804 Cl  0  0  0  0  0  0  0  0  0  0  0  0
    5.4028   12.6136   26.7113 C   0  0  0  0  0  0  0  0  0  0  0  0
    5.3808   11.5017   27.0861 O   0  0  0  0  0  0  0  0  0  0  0  0
    6.3899   13.3345   25.7296 N   0  0  0  0  0  0  0  0  0  0  0  0
    7.4421   12.8277   24.9739 C   0  0  0  0  0  0  0  0  0  0  0  0
    7.7084   11.4606   24.8969 C   0  0  0  0  0  0  0  0  0  0  0  0
    8.7889   11.0022   24.1322 C   0  0  0  0  0  0  0  0  0  0  0  0
    9.0543    9.5602   23.9106 C   0  0  0  0  0  0  0  0  0  0  0  0
    9.6227   11.9089   23.4937 C   0  0  0  0  0  0  0  0  0  0  0  0
    9.3574   13.2688   23.5754 C   0  0  0  0  0  0  0  0  0  0  0  0
   10.1903   14.1743   22.8780 N   0  0  0  0  0  0  0  0  0  0  0  0
    9.6730   14.5761   21.5696 C   0  0  0  0  0  0  0  0  0  0  0  0
   10.6431   15.3619   20.7351 C   0  0  0  0  0  0  0  0  0  0  0  0
   12.0004   14.7566   20.9087 C   0  0  0  0  0  0  0  0  0  0  0  0
   12.7020   14.3702   19.9800 O   0  0  0  0  0  0  0  0  0  0  0  0
   12.3827   14.6767   22.2160 N   0  0  0  0  0  0  0  0  0  0  0  0
   11.5520   14.1453   23.1577 C   0  0  0  0  0  0  0  0  0  0  0  0
   12.0236   13.6561   24.1859 O   0  0  0  0  0  0  0  0  0  0  0  0
    8.2491   13.7303   24.2816 C   0  0  0  0  0  0  0  0  0  0  0  0
  1  2  2  0
  2  3  1  0
  3  4  1  6
  3  5  1  0
  5  6  2  0
  5  7  1  0
  7  8  1  0
  8  9  2  0
  9 10  1  0
 10 11  1  0
 10 12  2  0
 12 13  1  0
 13 14  1  0
 14 15  1  0
 15 16  1  0
 16 17  1  0
 17 18  2  0
 17 19  1  0
 19 20  1  0
 20 21  2  0
 13 22  2  0
 22  8  1  0
 20 14  1  0
M  END
>  <alias>  (780) 
None

>  <rmsd(smina/fragmenstein)>  (780) 
0.83

>  <smiles>  (780) 
C=C[C@H](Cl)C(=O)Nc1cc(C)cc(N2CCC(=O)NC2=O)c1

>  <gnina_score>  (780) 
5.47

>  <inspiration_score>  (780) 
None

>  <energy_score>  (780) 
-30.207452

>  <distance_score>  (780) 
1.338899

>  <gnina_score_min>  (780) 
5.618

>  <inchikey>  (780) 
OUVAXUPIHYCNOG-LBPRGKRZSA-N

>  <exports>  (780) 
['/opt/xchem-fragalysis-2/maxwin/BulkDock/OUTPUTS/openbind_a71ev2a_c2_elabs_1LOUU54.sdf', '/opt/xchem-fragalysis-2/maxwin/BulkDock/OUTPUTS/openbind_a71ev2a_c2_elabs_1LSYIDY.sdf']

>  <name>  (780) 
P546495

>  <ref_pdb>  (780) 
A0884a

>  <subsites>  (780) 
None

>  <HIPPO Pose ID>  (780) 
546495

>  <ref_mols>  (780) 
A0884a

>  <HIPPO Compound ID>  (780) 
385115

>  <tags>  (780) 
openbind_a71ev2a_c2_elabs,syndirella_product,openbind_a71ev2a_c2_elabs_fragonly_scored_top80percent,BulkDock Fragalysis export,openbind_a71ev2a_c2_elabs_scored,openbind_a71ev2a_c2_elabs_scored_top80percent,openbind_a71ev2a_c2_elabs_activefrags_only_scored_5.2plus,openbind_a71ev2a_c2_elabs_activefrags_only_scored_5.5plus,syndirella_placed

>  <smina_score_min>  (780) 
-6.754

$$$$
P546496
     RDKit          3D

 22 23  0  0  0  0  0  0  0  0999 V2000
    2.9111   12.0967   28.5897 C   0  0  0  0  0  0  0  0  0  0  0  0
    3.1022   13.1928   27.8417 C   0  0  0  0  0  0  0  0  0  0  0  0
    4.3241   13.6011   27.0570 C   0  0  1  0  0  0  0  0  0  0  0  0
    5.1959   14.8436   28.0144 Cl  0  0  0  0  0  0  0  0  0  0  0  0
    5.3606   12.5132   26.6175 C   0  0  0  0  0  0  0  0  0  0  0  0
    5.2582   11.3725   26.8684 O   0  0  0  0  0  0  0  0  0  0  0  0
    6.4309   13.2714   25.7581 N   0  0  0  0  0  0  0  0  0  0  0  0
    7.4851   12.7830   24.9934 C   0  0  0  0  0  0  0  0  0  0  0  0
    7.7625   11.4202   24.8985 C   0  0  0  0  0  0  0  0  0  0  0  0
    8.8321   11.0039   24.1100 C   0  0  0  0  0  0  0  0  0  0  0  0
    9.1634    9.3649   23.8457 Cl  0  0  0  0  0  0  0  0  0  0  0  0
    9.6525   11.9106   23.4681 C   0  0  0  0  0  0  0  0  0  0  0  0
    9.3760   13.2650   23.5712 C   0  0  0  0  0  0  0  0  0  0  0  0
   10.1896   14.1875   22.8718 N   0  0  0  0  0  0  0  0  0  0  0  0
    9.6677   14.5695   21.5580 C   0  0  0  0  0  0  0  0  0  0  0  0
   10.6306   15.3552   20.7149 C   0  0  0  0  0  0  0  0  0  0  0  0
   11.9895   14.7534   20.8888 C   0  0  0  0  0  0  0  0  0  0  0  0
   12.6880   14.3555   19.9642 O   0  0  0  0  0  0  0  0  0  0  0  0
   12.3789   14.6914   22.1954 N   0  0  0  0  0  0  0  0  0  0  0  0
   11.5528   14.1720   23.1469 C   0  0  0  0  0  0  0  0  0  0  0  0
   12.0255   13.7096   24.1865 O   0  0  0  0  0  0  0  0  0  0  0  0
    8.2766   13.7051   24.3047 C   0  0  0  0  0  0  0  0  0  0  0  0
  1  2  2  0
  2  3  1  0
  3  4  1  1
  3  5  1  0
  5  6  2  0
  5  7  1  0
  7  8  1  0
  8  9  2  0
  9 10  1  0
 10 11  1  0
 10 12  2  0
 12 13  1  0
 13 14  1  0
 14 15  1  0
 15 16  1  0
 16 17  1  0
 17 18  2  0
 17 19  1  0
 19 20  1  0
 20 21  2  0
 13 22  2  0
 22  8  1  0
 20 14  1  0
M  END
>  <alias>  (781) 
None

>  <rmsd(smina/fragmenstein)>  (781) 
0.918

>  <smiles>  (781) 
C=C[C@@H](Cl)C(=O)Nc1cc(Cl)cc(N2CCC(=O)NC2=O)c1

>  <gnina_score>  (781) 
5.433

>  <inspiration_score>  (781) 
None

>  <energy_score>  (781) 
-40.408736

>  <distance_score>  (781) 
1.333667

>  <gnina_score_min>  (781) 
5.615

>  <inchikey>  (781) 
DWEAZEPHJSKMEI-LLVKDONJSA-N

>  <exports>  (781) 
['/opt/xchem-fragalysis-2/maxwin/BulkDock/OUTPUTS/openbind_a71ev2a_c2_elabs_1LOUU54.sdf', '/opt/xchem-fragalysis-2/maxwin/BulkDock/OUTPUTS/openbind_a71ev2a_c2_elabs_1LSYIDY.sdf']

>  <name>  (781) 
P546496

>  <ref_pdb>  (781) 
A0884a

>  <subsites>  (781) 
None

>  <HIPPO Pose ID>  (781) 
546496

>  <ref_mols>  (781) 
A0884a

>  <HIPPO Compound ID>  (781) 
385116

>  <tags>  (781) 
openbind_a71ev2a_c2_elabs,syndirella_product,openbind_a71ev2a_c2_elabs_fragonly_scored_top80percent,BulkDock Fragalysis export,openbind_a71ev2a_c2_elabs_scored,openbind_a71ev2a_c2_elabs_scored_top80percent,openbind_a71ev2a_c2_elabs_activefrags_only_scored_5.2plus,openbind_a71ev2a_c2_elabs_activefrags_only_scored_5.5plus,syndirella_placed

>  <smina_score_min>  (781) 
-6.739

$$$$
P546499
     RDKit          3D

 22 23  0  0  0  0  0  0  0  0999 V2000
    2.9915   14.1331   29.0915 C   0  0  0  0  0  0  0  0  0  0  0  0
    3.3184   13.6362   27.8889 C   0  0  0  0  0  0  0  0  0  0  0  0
    4.4751   13.9965   26.9855 C   0  0  1  0  0  0  0  0  0  0  0  0
    5.5731   15.2210   27.6877 Cl  0  0  0  0  0  0  0  0  0  0  0  0
    5.3305   12.7509   26.6049 C   0  0  0  0  0  0  0  0  0  0  0  0
    5.1227   11.6716   27.0152 O   0  0  0  0  0  0  0  0  0  0  0  0
    6.3765   13.2523   25.5478 N   0  0  0  0  0  0  0  0  0  0  0  0
    7.3969   12.5644   24.8844 C   0  0  0  0  0  0  0  0  0  0  0  0
    8.2244   13.3323   24.0559 C   0  0  0  0  0  0  0  0  0  0  0  0
    9.3207   12.7558   23.4073 C   0  0  0  0  0  0  0  0  0  0  0  0
   10.1983   13.5443   22.6216 N   0  0  0  0  0  0  0  0  0  0  0  0
    9.6345   14.4927   21.6714 C   0  0  0  0  0  0  0  0  0  0  0  0
   10.6004   14.9283   20.5906 C   0  0  0  0  0  0  0  0  0  0  0  0
   12.0146   14.5942   20.9454 C   0  0  0  0  0  0  0  0  0  0  0  0
   12.8699   14.3826   20.0902 O   0  0  0  0  0  0  0  0  0  0  0  0
   12.2772   14.5451   22.2807 N   0  0  0  0  0  0  0  0  0  0  0  0
   11.4986   13.7533   23.0791 C   0  0  0  0  0  0  0  0  0  0  0  0
   11.9638   13.2631   24.1071 O   0  0  0  0  0  0  0  0  0  0  0  0
    9.5535   11.3853   23.5308 C   0  0  0  0  0  0  0  0  0  0  0  0
    8.7016   10.6028   24.3042 C   0  0  0  0  0  0  0  0  0  0  0  0
    7.6489   11.1957   24.9985 C   0  0  0  0  0  0  0  0  0  0  0  0
    6.8925   10.4017   25.7616 F   0  0  0  0  0  0  0  0  0  0  0  0
  1  2  2  0
  2  3  1  0
  3  4  1  1
  3  5  1  0
  5  6  2  0
  5  7  1  0
  7  8  1  0
  8  9  2  0
  9 10  1  0
 10 11  1  0
 11 12  1  0
 12 13  1  0
 13 14  1  0
 14 15  2  0
 14 16  1  0
 16 17  1  0
 17 18  2  0
 10 19  2  0
 19 20  1  0
 20 21  2  0
 21 22  1  0
 21  8  1  0
 17 11  1  0
M  END
>  <alias>  (782) 
None

>  <rmsd(smina/fragmenstein)>  (782) 
0.865

>  <smiles>  (782) 
C=C[C@@H](Cl)C(=O)Nc1cc(N2CCC(=O)NC2=O)ccc1F

>  <gnina_score>  (782) 
5.428

>  <inspiration_score>  (782) 
None

>  <energy_score>  (782) 
-25.268701

>  <distance_score>  (782) 
1.221837

>  <gnina_score_min>  (782) 
5.346

>  <inchikey>  (782) 
OHZMYJDVCPUBDV-SECBINFHSA-N

>  <exports>  (782) 
['/opt/xchem-fragalysis-2/maxwin/BulkDock/OUTPUTS/openbind_a71ev2a_c2_elabs_1LOUU54.sdf', '/opt/xchem-fragalysis-2/maxwin/BulkDock/OUTPUTS/openbind_a71ev2a_c2_elabs_1LSYIDY.sdf']

>  <name>  (782) 
P546499

>  <ref_pdb>  (782) 
A0884a

>  <subsites>  (782) 
None

>  <HIPPO Pose ID>  (782) 
546499

>  <ref_mols>  (782) 
A0884a

>  <HIPPO Compound ID>  (782) 
385117

>  <tags>  (782) 
openbind_a71ev2a_c2_elabs,syndirella_product,openbind_a71ev2a_c2_elabs_fragonly_scored_top80percent,openbind_a71ev2a_c2_elabs_scored,BulkDock Fragalysis export,openbind_a71ev2a_c2_elabs_scored_top80percent,openbind_a71ev2a_c2_elabs_activefrags_only_scored_5.2plus,syndirella_placed

>  <smina_score_min>  (782) 
-6.786

$$$$
P546500
     RDKit          3D

 22 23  0  0  0  0  0  0  0  0999 V2000
    2.9917   13.6508   29.1721 C   0  0  0  0  0  0  0  0  0  0  0  0
    3.2391   14.5277   28.1883 C   0  0  0  0  0  0  0  0  0  0  0  0
    4.4271   14.5679   27.2616 C   0  0  1  0  0  0  0  0  0  0  0  0
    5.6767   15.6128   28.0144 Cl  0  0  0  0  0  0  0  0  0  0  0  0
    5.0922   13.2139   26.8475 C   0  0  0  0  0  0  0  0  0  0  0  0
    4.6891   12.1604   27.1726 O   0  0  0  0  0  0  0  0  0  0  0  0
    6.2669   13.5981   25.8788 N   0  0  0  0  0  0  0  0  0  0  0  0
    7.1957   12.7960   25.2238 C   0  0  0  0  0  0  0  0  0  0  0  0
    7.2030   11.4154   25.3720 C   0  0  0  0  0  0  0  0  0  0  0  0
    8.1330   10.6539   24.6717 C   0  0  0  0  0  0  0  0  0  0  0  0
    9.0645   11.2554   23.8113 C   0  0  0  0  0  0  0  0  0  0  0  0
    9.9536   10.3261   23.0507 C   0  0  0  0  0  0  0  0  0  0  0  0
    9.0838   12.6569   23.6833 C   0  0  0  0  0  0  0  0  0  0  0  0
   10.0213   13.3324   22.8336 N   0  0  0  0  0  0  0  0  0  0  0  0
    9.4923   14.3238   21.9015 C   0  0  0  0  0  0  0  0  0  0  0  0
   10.4704   14.7984   20.8479 C   0  0  0  0  0  0  0  0  0  0  0  0
   11.8897   14.5188   21.2204 C   0  0  0  0  0  0  0  0  0  0  0  0
   12.7865   14.4700   20.3822 O   0  0  0  0  0  0  0  0  0  0  0  0
   12.1207   14.3355   22.5500 N   0  0  0  0  0  0  0  0  0  0  0  0
   11.3059   13.5611   23.3339 C   0  0  0  0  0  0  0  0  0  0  0  0
   11.7371   13.1129   24.3945 O   0  0  0  0  0  0  0  0  0  0  0  0
    8.1340   13.4106   24.3898 C   0  0  0  0  0  0  0  0  0  0  0  0
  1  2  2  0
  2  3  1  0
  3  4  1  1
  3  5  1  0
  5  6  2  0
  5  7  1  0
  7  8  1  0
  8  9  2  0
  9 10  1  0
 10 11  2  0
 11 12  1  0
 11 13  1  0
 13 14  1  0
 14 15  1  0
 15 16  1  0
 16 17  1  0
 17 18  2  0
 17 19  1  0
 19 20  1  0
 20 21  2  0
 13 22  2  0
 22  8  1  0
 20 14  1  0
M  END
>  <alias>  (783) 
None

>  <rmsd(smina/fragmenstein)>  (783) 
0.706

>  <smiles>  (783) 
C=C[C@@H](Cl)C(=O)Nc1ccc(C)c(N2CCC(=O)NC2=O)c1

>  <gnina_score>  (783) 
5.406

>  <inspiration_score>  (783) 
None

>  <energy_score>  (783) 
-33.589023

>  <distance_score>  (783) 
1.403848

>  <gnina_score_min>  (783) 
5.445

>  <inchikey>  (783) 
VYWHWLNNYBXXRT-LLVKDONJSA-N

>  <exports>  (783) 
['/opt/xchem-fragalysis-2/maxwin/BulkDock/OUTPUTS/openbind_a71ev2a_c2_elabs_1LOUU54.sdf', '/opt/xchem-fragalysis-2/maxwin/BulkDock/OUTPUTS/openbind_a71ev2a_c2_elabs_1LSYIDY.sdf']

>  <name>  (783) 
P546500

>  <ref_pdb>  (783) 
A0884a

>  <subsites>  (783) 
None

>  <HIPPO Pose ID>  (783) 
546500

>  <ref_mols>  (783) 
A0884a

>  <HIPPO Compound ID>  (783) 
385118

>  <tags>  (783) 
openbind_a71ev2a_c2_elabs,syndirella_product,openbind_a71ev2a_c2_elabs_fragonly_scored_top80percent,openbind_a71ev2a_c2_elabs_scored,BulkDock Fragalysis export,openbind_a71ev2a_c2_elabs_scored_top80percent,openbind_a71ev2a_c2_elabs_activefrags_only_scored_5.2plus,syndirella_placed

>  <smina_score_min>  (783) 
-6.505

$$$$
P546503
     RDKit          3D

 22 23  0  0  0  0  0  0  0  0999 V2000
    2.6121   14.9109   29.0523 C   0  0  0  0  0  0  0  0  0  0  0  0
    2.9678   14.4734   27.8350 C   0  0  0  0  0  0  0  0  0  0  0  0
    4.2578   14.6868   27.0799 C   0  0  1  0  0  0  0  0  0  0  0  0
    5.4312   15.7265   27.9401 Cl  0  0  0  0  0  0  0  0  0  0  0  0
    4.9736   13.3426   26.7498 C   0  0  0  0  0  0  0  0  0  0  0  0
    4.6065   12.2983   27.1406 O   0  0  0  0  0  0  0  0  0  0  0  0
    6.1426   13.7064   25.7662 N   0  0  0  0  0  0  0  0  0  0  0  0
    7.1066   12.8984   25.1719 C   0  0  0  0  0  0  0  0  0  0  0  0
    7.1362   11.5241   25.3837 C   0  0  0  0  0  0  0  0  0  0  0  0
    8.0897   10.7471   24.7339 C   0  0  0  0  0  0  0  0  0  0  0  0
    9.0271   11.3394   23.8851 C   0  0  0  0  0  0  0  0  0  0  0  0
   10.0289   10.2552   23.0230 Cl  0  0  0  0  0  0  0  0  0  0  0  0
    9.0314   12.7296   23.6782 C   0  0  0  0  0  0  0  0  0  0  0  0
    9.9834   13.3821   22.8219 N   0  0  0  0  0  0  0  0  0  0  0  0
    9.4786   14.3539   21.8590 C   0  0  0  0  0  0  0  0  0  0  0  0
   10.4778   14.8103   20.8177 C   0  0  0  0  0  0  0  0  0  0  0  0
   11.8892   14.4956   21.1910 C   0  0  0  0  0  0  0  0  0  0  0  0
   12.7861   14.4441   20.3527 O   0  0  0  0  0  0  0  0  0  0  0  0
   12.1176   14.2992   22.5190 N   0  0  0  0  0  0  0  0  0  0  0  0
   11.2719   13.5773   23.3188 C   0  0  0  0  0  0  0  0  0  0  0  0
   11.6756   13.1606   24.4028 O   0  0  0  0  0  0  0  0  0  0  0  0
    8.0494   13.4950   24.3264 C   0  0  0  0  0  0  0  0  0  0  0  0
  1  2  2  0
  2  3  1  0
  3  4  1  1
  3  5  1  0
  5  6  2  0
  5  7  1  0
  7  8  1  0
  8  9  2  0
  9 10  1  0
 10 11  2  0
 11 12  1  0
 11 13  1  0
 13 14  1  0
 14 15  1  0
 15 16  1  0
 16 17  1  0
 17 18  2  0
 17 19  1  0
 19 20  1  0
 20 21  2  0
 13 22  2  0
 22  8  1  0
 20 14  1  0
M  END
>  <alias>  (784) 
None

>  <rmsd(smina/fragmenstein)>  (784) 
0.922

>  <smiles>  (784) 
C=C[C@@H](Cl)C(=O)Nc1ccc(Cl)c(N2CCC(=O)NC2=O)c1

>  <gnina_score>  (784) 
5.615

>  <inspiration_score>  (784) 
None

>  <energy_score>  (784) 
-36.199891

>  <distance_score>  (784) 
1.493913

>  <gnina_score_min>  (784) 
5.543

>  <inchikey>  (784) 
OJIMKMVEDXTAFN-SECBINFHSA-N

>  <exports>  (784) 
['/opt/xchem-fragalysis-2/maxwin/BulkDock/OUTPUTS/openbind_a71ev2a_c2_elabs_1LOUU54.sdf', '/opt/xchem-fragalysis-2/maxwin/BulkDock/OUTPUTS/openbind_a71ev2a_c2_elabs_1LSYIDY.sdf']

>  <name>  (784) 
P546503

>  <ref_pdb>  (784) 
A0884a

>  <subsites>  (784) 
None

>  <HIPPO Pose ID>  (784) 
546503

>  <ref_mols>  (784) 
A0884a

>  <HIPPO Compound ID>  (784) 
385120

>  <tags>  (784) 
openbind_a71ev2a_c2_elabs,syndirella_product,openbind_a71ev2a_c2_elabs_fragonly_scored_top80percent,BulkDock Fragalysis export,openbind_a71ev2a_c2_elabs_scored,openbind_a71ev2a_c2_elabs_scored_top80percent,openbind_a71ev2a_c2_elabs_activefrags_only_scored_5.2plus,openbind_a71ev2a_c2_elabs_activefrags_only_scored_5.5plus,syndirella_placed

>  <smina_score_min>  (784) 
-6.478

$$$$
P546506
     RDKit          3D

 22 23  0  0  0  0  0  0  0  0999 V2000
    3.5997   11.0312   28.8895 C   0  0  0  0  0  0  0  0  0  0  0  0
    3.7445   12.2691   28.3964 C   0  0  0  0  0  0  0  0  0  0  0  0
    4.8013   12.8123   27.4663 C   0  0  1  0  0  0  0  0  0  0  0  0
    5.7730   14.0036   28.4008 Cl  0  0  0  0  0  0  0  0  0  0  0  0
    5.8084   11.8471   26.7549 C   0  0  0  0  0  0  0  0  0  0  0  0
    5.8299   10.6867   26.9152 O   0  0  0  0  0  0  0  0  0  0  0  0
    6.6438   12.7529   25.7870 N   0  0  0  0  0  0  0  0  0  0  0  0
    7.6915   12.4328   24.9318 C   0  0  0  0  0  0  0  0  0  0  0  0
    8.0950   11.1123   24.7084 C   0  0  0  0  0  0  0  0  0  0  0  0
    9.1637   10.8760   23.8494 C   0  0  0  0  0  0  0  0  0  0  0  0
    9.7861    9.1857   23.3744 Br  0  0  0  0  0  0  0  0  0  0  0  0
    9.8477   11.9185   23.2638 C   0  0  0  0  0  0  0  0  0  0  0  0
    9.4513   13.2238   23.4944 C   0  0  0  0  0  0  0  0  0  0  0  0
   10.1801   14.2563   22.8580 N   0  0  0  0  0  0  0  0  0  0  0  0
    9.6487   14.6237   21.5410 C   0  0  0  0  0  0  0  0  0  0  0  0
   10.5927   15.4227   20.6889 C   0  0  0  0  0  0  0  0  0  0  0  0
   11.9654   14.8536   20.8709 C   0  0  0  0  0  0  0  0  0  0  0  0
   12.6726   14.4488   19.9540 O   0  0  0  0  0  0  0  0  0  0  0  0
   12.3581   14.8258   22.1769 N   0  0  0  0  0  0  0  0  0  0  0  0
   11.5478   14.2906   23.1315 C   0  0  0  0  0  0  0  0  0  0  0  0
   12.0384   13.8192   24.1600 O   0  0  0  0  0  0  0  0  0  0  0  0
    8.3510   13.4914   24.2975 C   0  0  0  0  0  0  0  0  0  0  0  0
  1  2  2  0
  2  3  1  0
  3  4  1  1
  3  5  1  0
  5  6  2  0
  5  7  1  0
  7  8  1  0
  8  9  2  0
  9 10  1  0
 10 11  1  0
 10 12  2  0
 12 13  1  0
 13 14  1  0
 14 15  1  0
 15 16  1  0
 16 17  1  0
 17 18  2  0
 17 19  1  0
 19 20  1  0
 20 21  2  0
 13 22  2  0
 22  8  1  0
 20 14  1  0
M  END
>  <alias>  (785) 
None

>  <rmsd(smina/fragmenstein)>  (785) 
0.478

>  <smiles>  (785) 
C=C[C@@H](Cl)C(=O)Nc1cc(Br)cc(N2CCC(=O)NC2=O)c1

>  <gnina_score>  (785) 
5.664

>  <inspiration_score>  (785) 
None

>  <energy_score>  (785) 
-19.289561

>  <distance_score>  (785) 
1.252234

>  <gnina_score_min>  (785) 
5.709

>  <inchikey>  (785) 
PIGZUWUUKVNLPX-LLVKDONJSA-N

>  <exports>  (785) 
['/opt/xchem-fragalysis-2/maxwin/BulkDock/OUTPUTS/openbind_a71ev2a_c2_elabs_1LOUU54.sdf', '/opt/xchem-fragalysis-2/maxwin/BulkDock/OUTPUTS/openbind_a71ev2a_c2_elabs_1LSYIDY.sdf']

>  <name>  (785) 
P546506

>  <ref_pdb>  (785) 
A0884a

>  <subsites>  (785) 
None

>  <HIPPO Pose ID>  (785) 
546506

>  <ref_mols>  (785) 
A0884a

>  <HIPPO Compound ID>  (785) 
385121

>  <tags>  (785) 
openbind_a71ev2a_c2_elabs,syndirella_product,openbind_a71ev2a_c2_elabs_fragonly_scored_top80percent,BulkDock Fragalysis export,openbind_a71ev2a_c2_elabs_scored,openbind_a71ev2a_c2_elabs_scored_top80percent,openbind_a71ev2a_c2_elabs_activefrags_only_scored_5.2plus,openbind_a71ev2a_c2_elabs_activefrags_only_scored_5.5plus,syndirella_placed

>  <smina_score_min>  (785) 
-6.379

$$$$
P546507
     RDKit          3D

 22 23  0  0  0  0  0  0  0  0999 V2000
   12.3952   15.8924   23.1817 O   0  0  0  0  0  0  0  0  0  0  0  0
   12.0411   14.8655   22.6399 C   0  0  0  0  0  0  0  0  0  0  0  0
   12.5452   13.5438   23.0309 C   0  0  0  0  0  0  0  0  0  0  0  0
   11.3942   12.9386   23.7527 C   0  0  0  0  0  0  0  0  0  0  0  0
   10.1630   12.9892   22.9846 N   0  0  0  0  0  0  0  0  0  0  0  0
    9.0807   12.3355   23.6261 C   0  0  0  0  0  0  0  0  0  0  0  0
    9.1672   10.9610   23.8478 C   0  0  0  0  0  0  0  0  0  0  0  0
    8.2226   10.3422   24.6508 C   0  0  0  0  0  0  0  0  0  0  0  0
    7.2204   11.0893   25.2643 C   0  0  0  0  0  0  0  0  0  0  0  0
    6.3723   10.4359   26.0636 F   0  0  0  0  0  0  0  0  0  0  0  0
    7.0855   12.4537   25.0114 C   0  0  0  0  0  0  0  0  0  0  0  0
    6.0631   13.2505   25.5336 N   0  0  0  0  0  0  0  0  0  0  0  0
    5.0062   12.9456   26.6442 C   0  0  0  0  0  0  0  0  0  0  0  0
    4.8846   12.0116   27.3389 O   0  0  0  0  0  0  0  0  0  0  0  0
    4.0580   14.1664   26.6392 C   0  0  2  0  0  0  0  0  0  0  0  0
    4.8400   15.3683   26.6150 O   0  0  0  0  0  0  0  0  0  0  0  0
    3.1206   14.1801   27.8390 C   0  0  0  0  0  0  0  0  0  0  0  0
    1.5652   13.0390   27.5550 Br  0  0  0  0  0  0  0  0  0  0  0  0
    8.0127   13.0681   24.1642 C   0  0  0  0  0  0  0  0  0  0  0  0
    9.9552   14.0336   22.1010 C   0  0  0  0  0  0  0  0  0  0  0  0
    8.8677   14.3279   21.6229 O   0  0  0  0  0  0  0  0  0  0  0  0
   11.0100   14.8201   21.7816 N   0  0  0  0  0  0  0  0  0  0  0  0
  1  2  2  0
  2  3  1  0
  3  4  1  0
  4  5  1  0
  5  6  1  0
  6  7  2  0
  7  8  1  0
  8  9  2  0
  9 10  1  0
  9 11  1  0
 11 12  1  0
 12 13  1  0
 13 14  2  0
 13 15  1  0
 15 16  1  1
 15 17  1  0
 17 18  1  0
 11 19  2  0
  5 20  1  0
 20 21  2  0
 20 22  1  0
 22  2  1  0
 19  6  1  0
M  END
>  <alias>  (786) 
None

>  <rmsd(smina/fragmenstein)>  (786) 
1.771

>  <smiles>  (786) 
O=C1CCN(c2ccc(F)c(NC(=O)[C@H](O)CBr)c2)C(=O)N1

>  <gnina_score>  (786) 
5.431

>  <inspiration_score>  (786) 
None

>  <energy_score>  (786) 
-9.659711

>  <distance_score>  (786) 
1.846704

>  <gnina_score_min>  (786) 
5.246

>  <inchikey>  (786) 
DXFVLEHTPLNLKF-SNVBAGLBSA-N

>  <exports>  (786) 
['/opt/xchem-fragalysis-2/maxwin/BulkDock/OUTPUTS/openbind_a71ev2a_c2_elabs_1LOUU54.sdf', '/opt/xchem-fragalysis-2/maxwin/BulkDock/OUTPUTS/openbind_a71ev2a_c2_elabs_1LSYIDY.sdf']

>  <name>  (786) 
P546507

>  <ref_pdb>  (786) 
A0884a

>  <subsites>  (786) 
None

>  <HIPPO Pose ID>  (786) 
546507

>  <ref_mols>  (786) 
A0884a

>  <HIPPO Compound ID>  (786) 
385123

>  <tags>  (786) 
openbind_a71ev2a_c2_elabs,syndirella_product,openbind_a71ev2a_c2_elabs_fragonly_scored_top80percent,openbind_a71ev2a_c2_elabs_scored,BulkDock Fragalysis export,openbind_a71ev2a_c2_elabs_scored_top80percent,openbind_a71ev2a_c2_elabs_activefrags_only_scored_5.2plus,syndirella_placed

>  <smina_score_min>  (786) 
-6.404

$$$$
P546508
     RDKit          3D

 22 23  0  0  0  0  0  0  0  0999 V2000
    1.1089   14.6238   27.4921 C   0  0  0  0  0  0  0  0  0  0  0  0
    2.4809   15.0679   27.9708 C   0  0  0  0  0  0  0  0  0  0  0  0
    3.5274   14.1481   27.5073 C   0  0  0  0  0  0  0  0  0  0  0  0
    4.3800   13.3957   27.1175 C   0  0  0  0  0  0  0  0  0  0  0  0
    5.4032   12.4934   26.6221 C   0  0  0  0  0  0  0  0  0  0  0  0
    5.3538   11.3701   26.9284 O   0  0  0  0  0  0  0  0  0  0  0  0
    6.4086   13.2407   25.7288 N   0  0  0  0  0  0  0  0  0  0  0  0
    7.4752   12.7634   24.9724 C   0  0  0  0  0  0  0  0  0  0  0  0
    7.7692   11.4028   24.8813 C   0  0  0  0  0  0  0  0  0  0  0  0
    8.8497   10.9726   24.1015 C   0  0  0  0  0  0  0  0  0  0  0  0
    9.1417    9.5383   23.8667 C   0  0  0  0  0  0  0  0  0  0  0  0
    9.6598   11.9007   23.4658 C   0  0  0  0  0  0  0  0  0  0  0  0
    9.3734   13.2548   23.5672 C   0  0  0  0  0  0  0  0  0  0  0  0
   10.1923   14.1794   22.8779 N   0  0  0  0  0  0  0  0  0  0  0  0
    9.6704   14.5807   21.5709 C   0  0  0  0  0  0  0  0  0  0  0  0
   10.6366   15.3673   20.7323 C   0  0  0  0  0  0  0  0  0  0  0  0
   11.9960   14.7663   20.9058 C   0  0  0  0  0  0  0  0  0  0  0  0
   12.6959   14.3740   19.9783 O   0  0  0  0  0  0  0  0  0  0  0  0
   12.3814   14.6963   22.2126 N   0  0  0  0  0  0  0  0  0  0  0  0
   11.5554   14.1598   23.1552 C   0  0  0  0  0  0  0  0  0  0  0  0
   12.0322   13.6695   24.1805 O   0  0  0  0  0  0  0  0  0  0  0  0
    8.2617   13.6890   24.2852 C   0  0  0  0  0  0  0  0  0  0  0  0
  1  2  1  0
  2  3  1  0
  3  4  3  0
  4  5  1  0
  5  6  2  0
  5  7  1  0
  7  8  1  0
  8  9  2  0
  9 10  1  0
 10 11  1  0
 10 12  2  0
 12 13  1  0
 13 14  1  0
 14 15  1  0
 15 16  1  0
 16 17  1  0
 17 18  2  0
 17 19  1  0
 19 20  1  0
 20 21  2  0
 13 22  2  0
 22  8  1  0
 20 14  1  0
M  END
>  <alias>  (787) 
None

>  <rmsd(smina/fragmenstein)>  (787) 
0.651

>  <smiles>  (787) 
CCC#CC(=O)Nc1cc(C)cc(N2CCC(=O)NC2=O)c1

>  <gnina_score>  (787) 
5.447

>  <inspiration_score>  (787) 
None

>  <energy_score>  (787) 
-33.341625

>  <distance_score>  (787) 
1.295988

>  <gnina_score_min>  (787) 
5.502

>  <inchikey>  (787) 
DILPQDBKLQPCNX-UHFFFAOYSA-N

>  <exports>  (787) 
['/opt/xchem-fragalysis-2/maxwin/BulkDock/OUTPUTS/openbind_a71ev2a_c2_elabs_1LOUU54.sdf', '/opt/xchem-fragalysis-2/maxwin/BulkDock/OUTPUTS/openbind_a71ev2a_c2_elabs_1LSYIDY.sdf']

>  <name>  (787) 
P546508

>  <ref_pdb>  (787) 
A0884a

>  <subsites>  (787) 
None

>  <HIPPO Pose ID>  (787) 
546508

>  <ref_mols>  (787) 
A0884a

>  <HIPPO Compound ID>  (787) 
385124

>  <tags>  (787) 
openbind_a71ev2a_c2_elabs,syndirella_product,openbind_a71ev2a_c2_elabs_fragonly_scored_top80percent,BulkDock Fragalysis export,openbind_a71ev2a_c2_elabs_scored,openbind_a71ev2a_c2_elabs_scored_top80percent,openbind_a71ev2a_c2_elabs_activefrags_only_scored_5.2plus,openbind_a71ev2a_c2_elabs_activefrags_only_scored_5.5plus,syndirella_placed

>  <smina_score_min>  (787) 
-6.672

$$$$
P546555
     RDKit          3D

 22 23  0  0  0  0  0  0  0  0999 V2000
    1.0317   14.6786   28.0494 C   0  0  0  0  0  0  0  0  0  0  0  0
    2.4592   15.0931   28.3646 C   0  0  0  0  0  0  0  0  0  0  0  0
    3.4242   14.1244   27.8287 C   0  0  0  0  0  0  0  0  0  0  0  0
    4.2131   13.3327   27.3862 C   0  0  0  0  0  0  0  0  0  0  0  0
    5.1639   12.3831   26.8324 C   0  0  0  0  0  0  0  0  0  0  0  0
    5.0917   11.2539   27.2177 O   0  0  0  0  0  0  0  0  0  0  0  0
    6.0200   12.9865   25.8620 N   0  0  0  0  0  0  0  0  0  0  0  0
    7.0957   12.4634   25.1323 C   0  0  0  0  0  0  0  0  0  0  0  0
    7.3933   11.0983   25.2050 C   0  0  0  0  0  0  0  0  0  0  0  0
    8.4833   10.5802   24.5176 C   0  0  0  0  0  0  0  0  0  0  0  0
    9.3342   11.4381   23.8443 C   0  0  0  0  0  0  0  0  0  0  0  0
   10.3970   10.9143   23.2247 F   0  0  0  0  0  0  0  0  0  0  0  0
    9.0856   12.8110   23.7717 C   0  0  0  0  0  0  0  0  0  0  0  0
   10.0724   13.6342   23.1855 N   0  0  0  0  0  0  0  0  0  0  0  0
    9.9695   14.1919   21.9362 C   0  0  0  0  0  0  0  0  0  0  0  0
    8.9757   14.2210   21.2214 O   0  0  0  0  0  0  0  0  0  0  0  0
   11.3241   14.7656   21.5536 C   0  0  0  0  0  0  0  0  0  0  0  0
   12.1178   14.3845   22.6823 N   0  0  0  0  0  0  0  0  0  0  0  0
   11.3841   13.6584   23.5937 C   0  0  0  0  0  0  0  0  0  0  0  0
   11.8667   13.1748   24.6065 O   0  0  0  0  0  0  0  0  0  0  0  0
    7.8954   13.3257   24.3385 C   0  0  0  0  0  0  0  0  0  0  0  0
    7.5251   14.7780   24.1964 C   0  0  0  0  0  0  0  0  0  0  0  0
  1  2  1  0
  2  3  1  0
  3  4  3  0
  4  5  1  0
  5  6  2  0
  5  7  1  0
  7  8  1  0
  8  9  2  0
  9 10  1  0
 10 11  2  0
 11 12  1  0
 11 13  1  0
 13 14  1  0
 14 15  1  0
 15 16  2  0
 15 17  1  0
 17 18  1  0
 18 19  1  0
 19 20  2  0
 13 21  2  0
 21 22  1  0
 21  8  1  0
 19 14  1  0
M  END
>  <alias>  (788) 
None

>  <rmsd(smina/fragmenstein)>  (788) 
0.811

>  <smiles>  (788) 
CCC#CC(=O)Nc1ccc(F)c(N2C(=O)CNC2=O)c1C

>  <gnina_score>  (788) 
5.274

>  <inspiration_score>  (788) 
None

>  <energy_score>  (788) 
-36.435813

>  <distance_score>  (788) 
1.833615

>  <gnina_score_min>  (788) 
5.258

>  <inchikey>  (788) 
ZYBQREBVLXBEHL-UHFFFAOYSA-N

>  <exports>  (788) 
['/opt/xchem-fragalysis-2/maxwin/BulkDock/OUTPUTS/openbind_a71ev2a_c2_elabs_1LOUU54.sdf', '/opt/xchem-fragalysis-2/maxwin/BulkDock/OUTPUTS/openbind_a71ev2a_c2_elabs_1LSYIDY.sdf']

>  <name>  (788) 
P546555

>  <ref_pdb>  (788) 
A0884a

>  <subsites>  (788) 
None

>  <HIPPO Pose ID>  (788) 
546555

>  <ref_mols>  (788) 
A0884a

>  <HIPPO Compound ID>  (788) 
385150

>  <tags>  (788) 
openbind_a71ev2a_c2_elabs,syndirella_product,openbind_a71ev2a_c2_elabs_fragonly_scored_top80percent,openbind_a71ev2a_c2_elabs_scored,BulkDock Fragalysis export,openbind_a71ev2a_c2_elabs_scored_top80percent,openbind_a71ev2a_c2_elabs_activefrags_only_scored_5.2plus,syndirella_placed

>  <smina_score_min>  (788) 
-6.2

$$$$
P546556
     RDKit          3D

 22 23  0  0  0  0  0  0  0  0999 V2000
    5.6835   10.2798   29.0270 C   0  0  0  0  0  0  0  0  0  0  0  0
    5.1458   11.7060   29.0801 C   0  0  0  0  0  0  0  0  0  0  0  0
    6.0879   12.6118   29.8717 C   0  0  0  0  0  0  0  0  0  0  0  0
    4.8123   12.2570   27.6877 C   0  0  0  0  0  0  0  0  0  0  0  0
    5.9912   12.7887   26.8758 C   0  0  0  0  0  0  0  0  0  0  0  0
    6.3230   13.9085   26.9416 O   0  0  0  0  0  0  0  0  0  0  0  0
    6.5775   11.6089   26.0414 N   0  0  0  0  0  0  0  0  0  0  0  0
    7.5913   11.5936   25.0851 C   0  0  0  0  0  0  0  0  0  0  0  0
    8.1000   10.3793   24.6336 C   0  0  0  0  0  0  0  0  0  0  0  0
    9.1421   10.3723   23.7081 C   0  0  0  0  0  0  0  0  0  0  0  0
    9.9518    8.9524   23.2319 Cl  0  0  0  0  0  0  0  0  0  0  0  0
    9.6442   11.5459   23.1862 C   0  0  0  0  0  0  0  0  0  0  0  0
    9.1674   12.7566   23.6521 C   0  0  0  0  0  0  0  0  0  0  0  0
    9.9203   13.9292   23.3984 N   0  0  0  0  0  0  0  0  0  0  0  0
   10.5376   14.1631   22.0924 C   0  0  0  0  0  0  0  0  0  0  0  0
   12.0144   13.7903   22.0446 C   0  0  0  0  0  0  0  0  0  0  0  0
   12.4878   13.6232   23.4526 C   0  0  0  0  0  0  0  0  0  0  0  0
   13.1891   12.7199   23.8803 O   0  0  0  0  0  0  0  0  0  0  0  0
   11.9741   14.5438   24.2844 N   0  0  0  0  0  0  0  0  0  0  0  0
   10.6701   14.3114   24.5034 C   0  0  0  0  0  0  0  0  0  0  0  0
   10.3028   14.3231   25.6716 O   0  0  0  0  0  0  0  0  0  0  0  0
    8.1364   12.7802   24.5993 C   0  0  0  0  0  0  0  0  0  0  0  0
  1  2  1  0
  2  3  1  0
  2  4  1  0
  4  5  1  0
  5  6  2  0
  5  7  1  0
  7  8  1  0
  8  9  2  0
  9 10  1  0
 10 11  1  0
 10 12  2  0
 12 13  1  0
 13 14  1  0
 14 15  1  0
 15 16  1  0
 16 17  1  0
 17 18  2  0
 17 19  1  0
 19 20  1  0
 20 21  2  0
 13 22  2  0
 22  8  1  0
 20 14  1  0
M  END
>  <alias>  (789) 
None

>  <rmsd(smina/fragmenstein)>  (789) 
0.849

>  <smiles>  (789) 
CC(C)CC(=O)Nc1cc(Cl)cc(N2CCC(=O)NC2=O)c1

>  <gnina_score>  (789) 
5.51

>  <inspiration_score>  (789) 
None

>  <energy_score>  (789) 
-31.861207

>  <distance_score>  (789) 
1.291026

>  <gnina_score_min>  (789) 
5.467

>  <inchikey>  (789) 
NJYWVNCFOZCRBT-UHFFFAOYSA-N

>  <exports>  (789) 
['/opt/xchem-fragalysis-2/maxwin/BulkDock/OUTPUTS/openbind_a71ev2a_c2_elabs_1LOUU54.sdf', '/opt/xchem-fragalysis-2/maxwin/BulkDock/OUTPUTS/openbind_a71ev2a_c2_elabs_1LSYIDY.sdf']

>  <name>  (789) 
P546556

>  <ref_pdb>  (789) 
A0884a

>  <subsites>  (789) 
None

>  <HIPPO Pose ID>  (789) 
546556

>  <ref_mols>  (789) 
A0884a

>  <HIPPO Compound ID>  (789) 
385152

>  <tags>  (789) 
openbind_a71ev2a_c2_elabs,syndirella_product,openbind_a71ev2a_c2_elabs_fragonly_scored_top80percent,openbind_a71ev2a_c2_elabs_scored,BulkDock Fragalysis export,openbind_a71ev2a_c2_elabs_scored_top80percent,openbind_a71ev2a_c2_elabs_activefrags_only_scored_5.2plus,syndirella_placed

>  <smina_score_min>  (789) 
-5.577

$$$$
P546557
     RDKit          3D

 22 23  0  0  0  0  0  0  0  0999 V2000
    9.1183    9.5414   23.8794 C   0  0  0  0  0  0  0  0  0  0  0  0
    8.8329   10.9779   24.1084 C   0  0  0  0  0  0  0  0  0  0  0  0
    7.7376   11.4157   24.8624 C   0  0  0  0  0  0  0  0  0  0  0  0
    7.4463   12.7771   24.9368 C   0  0  0  0  0  0  0  0  0  0  0  0
    6.3584   13.2566   25.6579 N   0  0  0  0  0  0  0  0  0  0  0  0
    5.4432   12.5463   26.6996 C   0  0  0  0  0  0  0  0  0  0  0  0
    5.4182   11.4302   27.0505 O   0  0  0  0  0  0  0  0  0  0  0  0
    4.4979   13.6062   27.2587 C   0  0  0  0  0  0  0  0  0  0  0  0
    4.9939   14.1650   28.6000 C   0  0  0  0  0  0  0  0  0  0  0  0
    6.2413   15.0363   28.4401 C   0  0  0  0  0  0  0  0  0  0  0  0
    3.8807   14.9737   29.2690 C   0  0  0  0  0  0  0  0  0  0  0  0
    8.2472   13.6965   24.2600 C   0  0  0  0  0  0  0  0  0  0  0  0
    9.3719   13.2556   23.5679 C   0  0  0  0  0  0  0  0  0  0  0  0
   10.1950   14.1737   22.8754 N   0  0  0  0  0  0  0  0  0  0  0  0
    9.6700   14.5769   21.5705 C   0  0  0  0  0  0  0  0  0  0  0  0
   10.6365   15.3586   20.7284 C   0  0  0  0  0  0  0  0  0  0  0  0
   11.9952   14.7562   20.9007 C   0  0  0  0  0  0  0  0  0  0  0  0
   12.6953   14.3690   19.9716 O   0  0  0  0  0  0  0  0  0  0  0  0
   12.3827   14.6868   22.2067 N   0  0  0  0  0  0  0  0  0  0  0  0
   11.5577   14.1514   23.1507 C   0  0  0  0  0  0  0  0  0  0  0  0
   12.0362   13.6638   24.1763 O   0  0  0  0  0  0  0  0  0  0  0  0
    9.6584   11.9002   23.4833 C   0  0  0  0  0  0  0  0  0  0  0  0
  1  2  1  0
  2  3  2  0
  3  4  1  0
  4  5  1  0
  5  6  1  0
  6  7  2  0
  6  8  1  0
  8  9  1  0
  9 10  1  0
  9 11  1  0
  4 12  2  0
 12 13  1  0
 13 14  1  0
 14 15  1  0
 15 16  1  0
 16 17  1  0
 17 18  2  0
 17 19  1  0
 19 20  1  0
 20 21  2  0
 13 22  2  0
 22  2  1  0
 20 14  1  0
M  END
>  <alias>  (790) 
None

>  <rmsd(smina/fragmenstein)>  (790) 
0.984

>  <smiles>  (790) 
Cc1cc(NC(=O)CC(C)C)cc(N2CCC(=O)NC2=O)c1

>  <gnina_score>  (790) 
5.361

>  <inspiration_score>  (790) 
None

>  <energy_score>  (790) 
-15.996018

>  <distance_score>  (790) 
1.314423

>  <gnina_score_min>  (790) 
5.565

>  <inchikey>  (790) 
OEZSTKHSRWJEBK-UHFFFAOYSA-N

>  <exports>  (790) 
['/opt/xchem-fragalysis-2/maxwin/BulkDock/OUTPUTS/openbind_a71ev2a_c2_elabs_1LOUU54.sdf', '/opt/xchem-fragalysis-2/maxwin/BulkDock/OUTPUTS/openbind_a71ev2a_c2_elabs_1LSYIDY.sdf']

>  <name>  (790) 
P546557

>  <ref_pdb>  (790) 
A0884a

>  <subsites>  (790) 
None

>  <HIPPO Pose ID>  (790) 
546557

>  <ref_mols>  (790) 
A0884a

>  <HIPPO Compound ID>  (790) 
385153

>  <tags>  (790) 
openbind_a71ev2a_c2_elabs,syndirella_product,openbind_a71ev2a_c2_elabs_fragonly_scored_top80percent,BulkDock Fragalysis export,openbind_a71ev2a_c2_elabs_scored,openbind_a71ev2a_c2_elabs_scored_top80percent,openbind_a71ev2a_c2_elabs_activefrags_only_scored_5.2plus,openbind_a71ev2a_c2_elabs_activefrags_only_scored_5.5plus,syndirella_placed

>  <smina_score_min>  (790) 
-6.722

$$$$
P546558
     RDKit          3D

 22 23  0  0  0  0  0  0  0  0999 V2000
    6.5401   10.7702   25.9707 C   0  0  0  0  0  0  0  0  0  0  0  0
    7.4816   11.5883   25.1465 C   0  0  0  0  0  0  0  0  0  0  0  0
    8.5258   10.9021   24.4871 C   0  0  0  0  0  0  0  0  0  0  0  0
    9.4295   11.5720   23.6652 C   0  0  0  0  0  0  0  0  0  0  0  0
    9.2639   12.9326   23.4347 C   0  0  0  0  0  0  0  0  0  0  0  0
   10.1764   13.6255   22.5966 N   0  0  0  0  0  0  0  0  0  0  0  0
    9.6446   14.5437   21.5974 C   0  0  0  0  0  0  0  0  0  0  0  0
   10.6276   14.9156   20.5095 C   0  0  0  0  0  0  0  0  0  0  0  0
   12.0305   14.5615   20.8827 C   0  0  0  0  0  0  0  0  0  0  0  0
   12.8886   14.3216   20.0383 O   0  0  0  0  0  0  0  0  0  0  0  0
   12.2882   14.5411   22.2196 N   0  0  0  0  0  0  0  0  0  0  0  0
   11.4819   13.8079   23.0468 C   0  0  0  0  0  0  0  0  0  0  0  0
   11.9346   13.3576   24.0986 O   0  0  0  0  0  0  0  0  0  0  0  0
    8.2057   13.6088   24.0490 C   0  0  0  0  0  0  0  0  0  0  0  0
    7.3484   12.9705   24.9590 C   0  0  0  0  0  0  0  0  0  0  0  0
    6.4349   13.8320   25.5902 N   0  0  0  0  0  0  0  0  0  0  0  0
    5.5980   13.6429   26.8983 C   0  0  0  0  0  0  0  0  0  0  0  0
    5.4879   12.7115   27.6008 O   0  0  0  0  0  0  0  0  0  0  0  0
    4.8763   14.9627   27.1672 C   0  0  0  0  0  0  0  0  0  0  0  0
    5.6142   15.8824   28.1521 C   0  0  0  0  0  0  0  0  0  0  0  0
    6.9998   16.2876   27.6545 C   0  0  0  0  0  0  0  0  0  0  0  0
    5.7077   15.2740   29.5521 C   0  0  0  0  0  0  0  0  0  0  0  0
  1  2  1  0
  2  3  2  0
  3  4  1  0
  4  5  2  0
  5  6  1  0
  6  7  1  0
  7  8  1  0
  8  9  1  0
  9 10  2  0
  9 11  1  0
 11 12  1  0
 12 13  2  0
  5 14  1  0
 14 15  2  0
 15 16  1  0
 16 17  1  0
 17 18  2  0
 17 19  1  0
 19 20  1  0
 20 21  1  0
 20 22  1  0
 15  2  1  0
 12  6  1  0
M  END
>  <alias>  (791) 
None

>  <rmsd(smina/fragmenstein)>  (791) 
0.87

>  <smiles>  (791) 
Cc1ccc(N2CCC(=O)NC2=O)cc1NC(=O)CC(C)C

>  <gnina_score>  (791) 
5.302

>  <inspiration_score>  (791) 
None

>  <energy_score>  (791) 
-24.670496

>  <distance_score>  (791) 
1.482327

>  <gnina_score_min>  (791) 
5.2

>  <inchikey>  (791) 
SCWABGALKHWYNG-UHFFFAOYSA-N

>  <exports>  (791) 
['/opt/xchem-fragalysis-2/maxwin/BulkDock/OUTPUTS/openbind_a71ev2a_c2_elabs_1LOUU54.sdf', '/opt/xchem-fragalysis-2/maxwin/BulkDock/OUTPUTS/openbind_a71ev2a_c2_elabs_1LSYIDY.sdf']

>  <name>  (791) 
P546558

>  <ref_pdb>  (791) 
A0884a

>  <subsites>  (791) 
None

>  <HIPPO Pose ID>  (791) 
546558

>  <ref_mols>  (791) 
A0884a

>  <HIPPO Compound ID>  (791) 
385154

>  <tags>  (791) 
openbind_a71ev2a_c2_elabs,syndirella_product,openbind_a71ev2a_c2_elabs_fragonly_scored_top80percent,openbind_a71ev2a_c2_elabs_scored,BulkDock Fragalysis export,openbind_a71ev2a_c2_elabs_scored_top80percent,openbind_a71ev2a_c2_elabs_activefrags_only_scored_5.2plus,syndirella_placed

>  <smina_score_min>  (791) 
-6.705

$$$$
P546559
     RDKit          3D

 22 23  0  0  0  0  0  0  0  0999 V2000
    7.6662   14.6747   24.5522 C   0  0  0  0  0  0  0  0  0  0  0  0
    8.0959   13.2403   24.3925 C   0  0  0  0  0  0  0  0  0  0  0  0
    7.4446   12.2127   25.1160 C   0  0  0  0  0  0  0  0  0  0  0  0
    6.4408   12.5384   26.0347 N   0  0  0  0  0  0  0  0  0  0  0  0
    5.6869   11.6485   27.0652 C   0  0  0  0  0  0  0  0  0  0  0  0
    5.7358   10.4949   27.2487 O   0  0  0  0  0  0  0  0  0  0  0  0
    4.8017   12.5760   27.8953 C   0  0  0  0  0  0  0  0  0  0  0  0
    5.4877   13.1470   29.1465 C   0  0  0  0  0  0  0  0  0  0  0  0
    5.9475   12.0463   30.1042 C   0  0  0  0  0  0  0  0  0  0  0  0
    6.6477   14.0869   28.8196 C   0  0  0  0  0  0  0  0  0  0  0  0
    7.8296   10.8801   24.9487 C   0  0  0  0  0  0  0  0  0  0  0  0
    8.8826   10.5492   24.1016 C   0  0  0  0  0  0  0  0  0  0  0  0
    9.5888   11.5579   23.4574 C   0  0  0  0  0  0  0  0  0  0  0  0
    9.2203   12.9036   23.6081 C   0  0  0  0  0  0  0  0  0  0  0  0
   10.0307   13.9084   22.9805 N   0  0  0  0  0  0  0  0  0  0  0  0
    9.5896   14.3371   21.6501 C   0  0  0  0  0  0  0  0  0  0  0  0
   10.5283   15.2716   20.9340 C   0  0  0  0  0  0  0  0  0  0  0  0
   11.9143   14.7501   21.1287 C   0  0  0  0  0  0  0  0  0  0  0  0
   12.6947   14.5201   20.2102 O   0  0  0  0  0  0  0  0  0  0  0  0
   12.2335   14.5440   22.4404 N   0  0  0  0  0  0  0  0  0  0  0  0
   11.3799   13.9534   23.3302 C   0  0  0  0  0  0  0  0  0  0  0  0
   11.8301   13.4827   24.3762 O   0  0  0  0  0  0  0  0  0  0  0  0
  1  2  1  0
  2  3  2  0
  3  4  1  0
  4  5  1  0
  5  6  2  0
  5  7  1  0
  7  8  1  0
  8  9  1  0
  8 10  1  0
  3 11  1  0
 11 12  2  0
 12 13  1  0
 13 14  2  0
 14 15  1  0
 15 16  1  0
 16 17  1  0
 17 18  1  0
 18 19  2  0
 18 20  1  0
 20 21  1  0
 21 22  2  0
 14  2  1  0
 21 15  1  0
M  END
>  <alias>  (792) 
None

>  <rmsd(smina/fragmenstein)>  (792) 
0.414

>  <smiles>  (792) 
Cc1c(NC(=O)CC(C)C)cccc1N1CCC(=O)NC1=O

>  <gnina_score>  (792) 
5.291

>  <inspiration_score>  (792) 
None

>  <energy_score>  (792) 
-41.456723

>  <distance_score>  (792) 
1.172907

>  <gnina_score_min>  (792) 
5.226

>  <inchikey>  (792) 
JNLYNGNLDGQNST-UHFFFAOYSA-N

>  <exports>  (792) 
['/opt/xchem-fragalysis-2/maxwin/BulkDock/OUTPUTS/openbind_a71ev2a_c2_elabs_1LOUU54.sdf', '/opt/xchem-fragalysis-2/maxwin/BulkDock/OUTPUTS/openbind_a71ev2a_c2_elabs_1LSYIDY.sdf']

>  <name>  (792) 
P546559

>  <ref_pdb>  (792) 
A0884a

>  <subsites>  (792) 
None

>  <HIPPO Pose ID>  (792) 
546559

>  <ref_mols>  (792) 
A0884a

>  <HIPPO Compound ID>  (792) 
385155

>  <tags>  (792) 
openbind_a71ev2a_c2_elabs,syndirella_product,openbind_a71ev2a_c2_elabs_fragonly_scored_top80percent,openbind_a71ev2a_c2_elabs_scored,BulkDock Fragalysis export,openbind_a71ev2a_c2_elabs_scored_top80percent,openbind_a71ev2a_c2_elabs_activefrags_only_scored_5.2plus,syndirella_placed

>  <smina_score_min>  (792) 
-6.959

$$$$
P546585
     RDKit          3D

 22 23  0  0  0  0  0  0  0  0999 V2000
    6.6617   13.2043   29.8527 C   0  0  0  0  0  0  0  0  0  0  0  0
    5.8050   13.8525   28.7729 C   0  0  0  0  0  0  0  0  0  0  0  0
    4.9576   12.8324   28.0086 C   0  0  1  0  0  0  0  0  0  0  0  0
    3.8500   13.6808   26.8914 Cl  0  0  0  0  0  0  0  0  0  0  0  0
    5.8150   11.8197   27.2263 C   0  0  0  0  0  0  0  0  0  0  0  0
    5.9561   10.7196   27.6060 O   0  0  0  0  0  0  0  0  0  0  0  0
    6.4623   12.5624   26.0145 N   0  0  0  0  0  0  0  0  0  0  0  0
    7.4504   12.1447   25.1153 C   0  0  0  0  0  0  0  0  0  0  0  0
    7.7689   10.7895   25.0324 C   0  0  0  0  0  0  0  0  0  0  0  0
    8.7985   10.3574   24.2054 C   0  0  0  0  0  0  0  0  0  0  0  0
    9.5505   11.2837   23.4978 C   0  0  0  0  0  0  0  0  0  0  0  0
    9.2492   12.6531   23.5538 C   0  0  0  0  0  0  0  0  0  0  0  0
   10.0980   13.5417   22.8089 N   0  0  0  0  0  0  0  0  0  0  0  0
    9.5627   14.1722   21.6856 C   0  0  0  0  0  0  0  0  0  0  0  0
    8.3759   14.0751   21.3480 O   0  0  0  0  0  0  0  0  0  0  0  0
   10.5058   14.9313   20.7867 C   0  0  0  0  0  0  0  0  0  0  0  0
   11.8390   15.2340   21.4015 C   0  0  0  0  0  0  0  0  0  0  0  0
   12.2762   14.2656   22.3436 N   0  0  0  0  0  0  0  0  0  0  0  0
   11.4461   13.5584   23.1371 C   0  0  0  0  0  0  0  0  0  0  0  0
   11.9569   13.0209   24.1169 O   0  0  0  0  0  0  0  0  0  0  0  0
    8.1428   13.0913   24.3226 C   0  0  0  0  0  0  0  0  0  0  0  0
    7.7393   14.5393   24.3969 C   0  0  0  0  0  0  0  0  0  0  0  0
  1  2  1  0
  2  3  1  0
  3  4  1  6
  3  5  1  0
  5  6  2  0
  5  7  1  0
  7  8  1  0
  8  9  2  0
  9 10  1  0
 10 11  2  0
 11 12  1  0
 12 13  1  0
 13 14  1  0
 14 15  2  0
 14 16  1  0
 16 17  1  0
 17 18  1  0
 18 19  1  0
 19 20  2  0
 12 21  2  0
 21 22  1  0
 21  8  1  0
 19 13  1  0
M  END
>  <alias>  (793) 
None

>  <rmsd(smina/fragmenstein)>  (793) 
0.475

>  <smiles>  (793) 
CC[C@@H](Cl)C(=O)Nc1cccc(N2C(=O)CCNC2=O)c1C

>  <gnina_score>  (793) 
5.386

>  <inspiration_score>  (793) 
None

>  <energy_score>  (793) 
-28.638259

>  <distance_score>  (793) 
1.366061

>  <gnina_score_min>  (793) 
5.327

>  <inchikey>  (793) 
PPTHSRHFNHUNJX-SNVBAGLBSA-N

>  <exports>  (793) 
['/opt/xchem-fragalysis-2/maxwin/BulkDock/OUTPUTS/openbind_a71ev2a_c2_elabs_1LOUU54.sdf', '/opt/xchem-fragalysis-2/maxwin/BulkDock/OUTPUTS/openbind_a71ev2a_c2_elabs_1LSYIDY.sdf']

>  <name>  (793) 
P546585

>  <ref_pdb>  (793) 
A0884a

>  <subsites>  (793) 
None

>  <HIPPO Pose ID>  (793) 
546585

>  <ref_mols>  (793) 
A0884a

>  <HIPPO Compound ID>  (793) 
385168

>  <tags>  (793) 
openbind_a71ev2a_c2_elabs,syndirella_product,openbind_a71ev2a_c2_elabs_fragonly_scored_top80percent,openbind_a71ev2a_c2_elabs_scored,BulkDock Fragalysis export,openbind_a71ev2a_c2_elabs_scored_top80percent,openbind_a71ev2a_c2_elabs_activefrags_only_scored_5.2plus,syndirella_placed

>  <smina_score_min>  (793) 
-6.696

$$$$
P546587
     RDKit          3D

 22 23  0  0  0  0  0  0  0  0999 V2000
    3.4566   14.0524   29.5394 C   0  0  0  0  0  0  0  0  0  0  0  0
    3.1646   14.5357   28.1227 C   0  0  0  0  0  0  0  0  0  0  0  0
    4.3860   14.6906   27.2080 C   0  0  1  0  0  0  0  0  0  0  0  0
    5.6197   15.7671   27.9315 Cl  0  0  0  0  0  0  0  0  0  0  0  0
    5.0438   13.3479   26.8208 C   0  0  0  0  0  0  0  0  0  0  0  0
    4.6287   12.3051   27.1607 O   0  0  0  0  0  0  0  0  0  0  0  0
    6.2267   13.7035   25.8579 N   0  0  0  0  0  0  0  0  0  0  0  0
    7.1535   12.8820   25.2250 C   0  0  0  0  0  0  0  0  0  0  0  0
    7.1520   11.5029   25.4033 C   0  0  0  0  0  0  0  0  0  0  0  0
    8.0871   10.7211   24.7320 C   0  0  0  0  0  0  0  0  0  0  0  0
    9.0295   11.3112   23.8865 C   0  0  0  0  0  0  0  0  0  0  0  0
   10.0167   10.2249   23.0106 Cl  0  0  0  0  0  0  0  0  0  0  0  0
    9.0546   12.7036   23.7034 C   0  0  0  0  0  0  0  0  0  0  0  0
   10.0017   13.3547   22.8428 N   0  0  0  0  0  0  0  0  0  0  0  0
    9.4897   14.3321   21.8900 C   0  0  0  0  0  0  0  0  0  0  0  0
   10.4821   14.7942   20.8458 C   0  0  0  0  0  0  0  0  0  0  0  0
   11.8946   14.4794   21.2145 C   0  0  0  0  0  0  0  0  0  0  0  0
   12.7849   14.4177   20.3712 O   0  0  0  0  0  0  0  0  0  0  0  0
   12.1266   14.2945   22.5435 N   0  0  0  0  0  0  0  0  0  0  0  0
   11.2892   13.5611   23.3411 C   0  0  0  0  0  0  0  0  0  0  0  0
   11.6932   13.1385   24.4225 O   0  0  0  0  0  0  0  0  0  0  0  0
    8.0997   13.4758   24.3824 C   0  0  0  0  0  0  0  0  0  0  0  0
  1  2  1  0
  2  3  1  0
  3  4  1  1
  3  5  1  0
  5  6  2  0
  5  7  1  0
  7  8  1  0
  8  9  2  0
  9 10  1  0
 10 11  2  0
 11 12  1  0
 11 13  1  0
 13 14  1  0
 14 15  1  0
 15 16  1  0
 16 17  1  0
 17 18  2  0
 17 19  1  0
 19 20  1  0
 20 21  2  0
 13 22  2  0
 22  8  1  0
 20 14  1  0
M  END
>  <alias>  (794) 
None

>  <rmsd(smina/fragmenstein)>  (794) 
0.799

>  <smiles>  (794) 
CC[C@@H](Cl)C(=O)Nc1ccc(Cl)c(N2CCC(=O)NC2=O)c1

>  <gnina_score>  (794) 
5.606

>  <inspiration_score>  (794) 
None

>  <energy_score>  (794) 
-28.103072

>  <distance_score>  (794) 
1.466327

>  <gnina_score_min>  (794) 
5.568

>  <inchikey>  (794) 
TXKLEHHIKMTMDJ-SECBINFHSA-N

>  <exports>  (794) 
['/opt/xchem-fragalysis-2/maxwin/BulkDock/OUTPUTS/openbind_a71ev2a_c2_elabs_1LOUU54.sdf', '/opt/xchem-fragalysis-2/maxwin/BulkDock/OUTPUTS/openbind_a71ev2a_c2_elabs_1LSYIDY.sdf']

>  <name>  (794) 
P546587

>  <ref_pdb>  (794) 
A0884a

>  <subsites>  (794) 
None

>  <HIPPO Pose ID>  (794) 
546587

>  <ref_mols>  (794) 
A0884a

>  <HIPPO Compound ID>  (794) 
385169

>  <tags>  (794) 
openbind_a71ev2a_c2_elabs,syndirella_product,openbind_a71ev2a_c2_elabs_fragonly_scored_top80percent,BulkDock Fragalysis export,openbind_a71ev2a_c2_elabs_scored,openbind_a71ev2a_c2_elabs_scored_top80percent,openbind_a71ev2a_c2_elabs_activefrags_only_scored_5.2plus,openbind_a71ev2a_c2_elabs_activefrags_only_scored_5.5plus,syndirella_placed

>  <smina_score_min>  (794) 
-6.525

$$$$
P546589
     RDKit          3D

 22 23  0  0  0  0  0  0  0  0999 V2000
    4.3856   10.3609   29.4977 C   0  0  0  0  0  0  0  0  0  0  0  0
    5.5561   11.1269   28.8964 C   0  0  0  0  0  0  0  0  0  0  0  0
    5.1244   12.2763   27.9773 C   0  0  1  0  0  0  0  0  0  0  0  0
    4.2809   13.5551   28.8956 Cl  0  0  0  0  0  0  0  0  0  0  0  0
    6.3437   12.8670   27.2375 C   0  0  0  0  0  0  0  0  0  0  0  0
    6.8715   13.8703   27.5337 O   0  0  0  0  0  0  0  0  0  0  0  0
    6.7051   11.8181   26.1271 N   0  0  0  0  0  0  0  0  0  0  0  0
    7.6959   11.8469   25.1379 C   0  0  0  0  0  0  0  0  0  0  0  0
    8.0598   10.5655   24.6935 C   0  0  0  0  0  0  0  0  0  0  0  0
    9.0884   10.3793   23.7828 C   0  0  0  0  0  0  0  0  0  0  0  0
    9.7547   11.4880   23.2919 C   0  0  0  0  0  0  0  0  0  0  0  0
    9.3896   12.7852   23.6835 C   0  0  0  0  0  0  0  0  0  0  0  0
   10.1159   13.8774   23.0994 N   0  0  0  0  0  0  0  0  0  0  0  0
    9.6103   14.3322   21.7986 C   0  0  0  0  0  0  0  0  0  0  0  0
   10.5214   15.2506   21.0257 C   0  0  0  0  0  0  0  0  0  0  0  0
   11.9212   14.7614   21.1971 C   0  0  0  0  0  0  0  0  0  0  0  0
   12.6825   14.5235   20.2646 O   0  0  0  0  0  0  0  0  0  0  0  0
   12.2771   14.5988   22.5048 N   0  0  0  0  0  0  0  0  0  0  0  0
   11.4724   13.9590   23.4047 C   0  0  0  0  0  0  0  0  0  0  0  0
   11.9724   13.4584   24.4132 O   0  0  0  0  0  0  0  0  0  0  0  0
    8.3265   12.9854   24.5954 C   0  0  0  0  0  0  0  0  0  0  0  0
    7.8960   14.3828   24.9374 C   0  0  0  0  0  0  0  0  0  0  0  0
  1  2  1  0
  2  3  1  0
  3  4  1  1
  3  5  1  0
  5  6  2  0
  5  7  1  0
  7  8  1  0
  8  9  2  0
  9 10  1  0
 10 11  2  0
 11 12  1  0
 12 13  1  0
 13 14  1  0
 14 15  1  0
 15 16  1  0
 16 17  2  0
 16 18  1  0
 18 19  1  0
 19 20  2  0
 12 21  2  0
 21 22  1  0
 21  8  1  0
 19 13  1  0
M  END
>  <alias>  (795) 
None

>  <rmsd(smina/fragmenstein)>  (795) 
0.492

>  <smiles>  (795) 
CC[C@@H](Cl)C(=O)Nc1cccc(N2CCC(=O)NC2=O)c1C

>  <gnina_score>  (795) 
5.384

>  <inspiration_score>  (795) 
None

>  <energy_score>  (795) 
-16.733481

>  <distance_score>  (795) 
1.027365

>  <gnina_score_min>  (795) 
5.355

>  <inchikey>  (795) 
UMUWJONLQHHWMI-SNVBAGLBSA-N

>  <exports>  (795) 
['/opt/xchem-fragalysis-2/maxwin/BulkDock/OUTPUTS/openbind_a71ev2a_c2_elabs_1LOUU54.sdf', '/opt/xchem-fragalysis-2/maxwin/BulkDock/OUTPUTS/openbind_a71ev2a_c2_elabs_1LSYIDY.sdf']

>  <name>  (795) 
P546589

>  <ref_pdb>  (795) 
A0884a

>  <subsites>  (795) 
None

>  <HIPPO Pose ID>  (795) 
546589

>  <ref_mols>  (795) 
A0884a

>  <HIPPO Compound ID>  (795) 
385170

>  <tags>  (795) 
openbind_a71ev2a_c2_elabs,syndirella_product,openbind_a71ev2a_c2_elabs_fragonly_scored_top80percent,openbind_a71ev2a_c2_elabs_scored,BulkDock Fragalysis export,openbind_a71ev2a_c2_elabs_scored_top80percent,openbind_a71ev2a_c2_elabs_activefrags_only_scored_5.2plus,syndirella_placed

>  <smina_score_min>  (795) 
-7.069

$$$$
P546590
     RDKit          3D

 22 23  0  0  0  0  0  0  0  0999 V2000
    2.6586   15.8990   28.3828 C   0  0  0  0  0  0  0  0  0  0  0  0
    3.0581   14.5003   27.9073 C   0  0  0  0  0  0  0  0  0  0  0  0
    1.8593   13.8249   27.2367 C   0  0  0  0  0  0  0  0  0  0  0  0
    4.2611   14.5930   26.9545 C   0  0  0  0  0  0  0  0  0  0  0  0
    4.9675   13.2541   26.7255 C   0  0  0  0  0  0  0  0  0  0  0  0
    4.6660   12.2486   27.2434 O   0  0  0  0  0  0  0  0  0  0  0  0
    6.0961   13.5597   25.6886 N   0  0  0  0  0  0  0  0  0  0  0  0
    7.0976   12.7405   25.1762 C   0  0  0  0  0  0  0  0  0  0  0  0
    7.0801   11.3657   25.3857 C   0  0  0  0  0  0  0  0  0  0  0  0
    8.0335   10.5602   24.7708 C   0  0  0  0  0  0  0  0  0  0  0  0
    9.0379   11.1236   23.9860 C   0  0  0  0  0  0  0  0  0  0  0  0
   10.0496   10.0208   23.1583 Cl  0  0  0  0  0  0  0  0  0  0  0  0
    9.1208   12.5137   23.8324 C   0  0  0  0  0  0  0  0  0  0  0  0
   10.2060   13.1540   23.1557 N   0  0  0  0  0  0  0  0  0  0  0  0
   11.4314   13.3136   23.9083 C   0  0  0  0  0  0  0  0  0  0  0  0
   12.5677   13.6795   22.9937 C   0  0  0  0  0  0  0  0  0  0  0  0
   12.2065   14.8487   22.1476 C   0  0  0  0  0  0  0  0  0  0  0  0
   13.0173   15.4879   21.4930 O   0  0  0  0  0  0  0  0  0  0  0  0
   10.8806   15.1095   22.0720 N   0  0  0  0  0  0  0  0  0  0  0  0
    9.9311   14.1543   22.2389 C   0  0  0  0  0  0  0  0  0  0  0  0
    8.8967   14.2275   21.5912 O   0  0  0  0  0  0  0  0  0  0  0  0
    8.1151   13.3108   24.4065 C   0  0  0  0  0  0  0  0  0  0  0  0
  1  2  1  0
  2  3  1  0
  2  4  1  0
  4  5  1  0
  5  6  2  0
  5  7  1  0
  7  8  1  0
  8  9  2  0
  9 10  1  0
 10 11  2  0
 11 12  1  0
 11 13  1  0
 13 14  1  0
 14 15  1  0
 15 16  1  0
 16 17  1  0
 17 18  2  0
 17 19  1  0
 19 20  1  0
 20 21  2  0
 13 22  2  0
 22  8  1  0
 20 14  1  0
M  END
>  <alias>  (796) 
None

>  <rmsd(smina/fragmenstein)>  (796) 
1.373

>  <smiles>  (796) 
CC(C)CC(=O)Nc1ccc(Cl)c(N2CCC(=O)NC2=O)c1

>  <gnina_score>  (796) 
5.715

>  <inspiration_score>  (796) 
None

>  <energy_score>  (796) 
-48.559837

>  <distance_score>  (796) 
1.911902

>  <gnina_score_min>  (796) 
5.658

>  <inchikey>  (796) 
FTVOLWLKJKEOCD-UHFFFAOYSA-N

>  <exports>  (796) 
['/opt/xchem-fragalysis-2/maxwin/BulkDock/OUTPUTS/openbind_a71ev2a_c2_elabs_1LOUU54.sdf', '/opt/xchem-fragalysis-2/maxwin/BulkDock/OUTPUTS/openbind_a71ev2a_c2_elabs_1LSYIDY.sdf']

>  <name>  (796) 
P546590

>  <ref_pdb>  (796) 
A0884a

>  <subsites>  (796) 
None

>  <HIPPO Pose ID>  (796) 
546590

>  <ref_mols>  (796) 
A0884a

>  <HIPPO Compound ID>  (796) 
385171

>  <tags>  (796) 
openbind_a71ev2a_c2_elabs,syndirella_product,openbind_a71ev2a_c2_elabs_fragonly_scored_top80percent,BulkDock Fragalysis export,openbind_a71ev2a_c2_elabs_scored,openbind_a71ev2a_c2_elabs_scored_top80percent,openbind_a71ev2a_c2_elabs_activefrags_only_scored_5.2plus,openbind_a71ev2a_c2_elabs_activefrags_only_scored_5.5plus,syndirella_placed

>  <smina_score_min>  (796) 
-6.858

$$$$
P546591
     RDKit          3D

 22 23  0  0  0  0  0  0  0  0999 V2000
    9.9575   10.3449   23.0629 C   0  0  0  0  0  0  0  0  0  0  0  0
    9.0599   11.2784   23.8085 C   0  0  0  0  0  0  0  0  0  0  0  0
    8.1315   10.6816   24.6760 C   0  0  0  0  0  0  0  0  0  0  0  0
    7.1796   11.4436   25.3454 C   0  0  0  0  0  0  0  0  0  0  0  0
    7.1387   12.8176   25.1485 C   0  0  0  0  0  0  0  0  0  0  0  0
    6.1699   13.6162   25.7498 N   0  0  0  0  0  0  0  0  0  0  0  0
    5.0942   13.2672   26.8229 C   0  0  0  0  0  0  0  0  0  0  0  0
    4.8104   12.2392   27.3059 O   0  0  0  0  0  0  0  0  0  0  0  0
    4.3967   14.5758   27.1946 C   0  0  0  0  0  0  0  0  0  0  0  0
    5.0433   15.3349   28.3641 C   0  0  0  0  0  0  0  0  0  0  0  0
    6.4387   15.8673   28.0393 C   0  0  0  0  0  0  0  0  0  0  0  0
    5.0756   14.4999   29.6450 C   0  0  0  0  0  0  0  0  0  0  0  0
    8.0750   13.4278   24.3090 C   0  0  0  0  0  0  0  0  0  0  0  0
    9.0572   12.6768   23.6456 C   0  0  0  0  0  0  0  0  0  0  0  0
   10.0042   13.3507   22.8040 N   0  0  0  0  0  0  0  0  0  0  0  0
    9.4908   14.3441   21.8652 C   0  0  0  0  0  0  0  0  0  0  0  0
   10.4802   14.8070   20.8170 C   0  0  0  0  0  0  0  0  0  0  0  0
   11.8939   14.5140   21.1989 C   0  0  0  0  0  0  0  0  0  0  0  0
   12.7950   14.4541   20.3659 O   0  0  0  0  0  0  0  0  0  0  0  0
   12.1152   14.3317   22.5303 N   0  0  0  0  0  0  0  0  0  0  0  0
   11.2897   13.5636   23.3092 C   0  0  0  0  0  0  0  0  0  0  0  0
   11.7131   13.1106   24.3711 O   0  0  0  0  0  0  0  0  0  0  0  0
  1  2  1  0
  2  3  2  0
  3  4  1  0
  4  5  2  0
  5  6  1  0
  6  7  1  0
  7  8  2  0
  7  9  1  0
  9 10  1  0
 10 11  1  0
 10 12  1  0
  5 13  1  0
 13 14  2  0
 14 15  1  0
 15 16  1  0
 16 17  1  0
 17 18  1  0
 18 19  2  0
 18 20  1  0
 20 21  1  0
 21 22  2  0
 14  2  1  0
 21 15  1  0
M  END
>  <alias>  (797) 
None

>  <rmsd(smina/fragmenstein)>  (797) 
0.616

>  <smiles>  (797) 
Cc1ccc(NC(=O)CC(C)C)cc1N1CCC(=O)NC1=O

>  <gnina_score>  (797) 
5.405

>  <inspiration_score>  (797) 
None

>  <energy_score>  (797) 
-29.350305

>  <distance_score>  (797) 
1.424198

>  <gnina_score_min>  (797) 
5.409

>  <inchikey>  (797) 
XGLACTDLWWJVEP-UHFFFAOYSA-N

>  <exports>  (797) 
['/opt/xchem-fragalysis-2/maxwin/BulkDock/OUTPUTS/openbind_a71ev2a_c2_elabs_1LOUU54.sdf', '/opt/xchem-fragalysis-2/maxwin/BulkDock/OUTPUTS/openbind_a71ev2a_c2_elabs_1LSYIDY.sdf']

>  <name>  (797) 
P546591

>  <ref_pdb>  (797) 
A0884a

>  <subsites>  (797) 
None

>  <HIPPO Pose ID>  (797) 
546591

>  <ref_mols>  (797) 
A0884a

>  <HIPPO Compound ID>  (797) 
385173

>  <tags>  (797) 
openbind_a71ev2a_c2_elabs,syndirella_product,openbind_a71ev2a_c2_elabs_fragonly_scored_top80percent,openbind_a71ev2a_c2_elabs_scored,BulkDock Fragalysis export,openbind_a71ev2a_c2_elabs_scored_top80percent,openbind_a71ev2a_c2_elabs_activefrags_only_scored_5.2plus,syndirella_placed

>  <smina_score_min>  (797) 
-6.514

$$$$
P546592
     RDKit          3D

 22 23  0  0  0  0  0  0  0  0999 V2000
    4.1051   13.6145   29.3605 C   0  0  0  0  0  0  0  0  0  0  0  0
    3.3904   13.8155   28.0240 C   0  0  0  0  0  0  0  0  0  0  0  0
    2.3177   12.7496   27.8082 C   0  0  0  0  0  0  0  0  0  0  0  0
    4.3710   13.9360   26.8455 C   0  0  0  0  0  0  0  0  0  0  0  0
    5.2788   12.7290   26.5778 C   0  0  0  0  0  0  0  0  0  0  0  0
    5.1601   11.6812   27.0836 O   0  0  0  0  0  0  0  0  0  0  0  0
    6.3336   13.2402   25.5432 N   0  0  0  0  0  0  0  0  0  0  0  0
    7.3587   12.5570   24.8775 C   0  0  0  0  0  0  0  0  0  0  0  0
    8.1787   13.3262   24.0407 C   0  0  0  0  0  0  0  0  0  0  0  0
    9.2902   12.7586   23.4080 C   0  0  0  0  0  0  0  0  0  0  0  0
   10.1715   13.5510   22.6289 N   0  0  0  0  0  0  0  0  0  0  0  0
    9.6139   14.4959   21.6718 C   0  0  0  0  0  0  0  0  0  0  0  0
   10.5870   14.9340   20.5980 C   0  0  0  0  0  0  0  0  0  0  0  0
   11.9994   14.5954   20.9559 C   0  0  0  0  0  0  0  0  0  0  0  0
   12.8583   14.3872   20.1035 O   0  0  0  0  0  0  0  0  0  0  0  0
   12.2575   14.5403   22.2916 N   0  0  0  0  0  0  0  0  0  0  0  0
   11.4728   13.7523   23.0874 C   0  0  0  0  0  0  0  0  0  0  0  0
   11.9342   13.2601   24.1163 O   0  0  0  0  0  0  0  0  0  0  0  0
    9.5384   11.3921   23.5459 C   0  0  0  0  0  0  0  0  0  0  0  0
    8.6905   10.6062   24.3199 C   0  0  0  0  0  0  0  0  0  0  0  0
    7.6285   11.1925   25.0060 C   0  0  0  0  0  0  0  0  0  0  0  0
    6.8721   10.3921   25.7625 F   0  0  0  0  0  0  0  0  0  0  0  0
  1  2  1  0
  2  3  1  0
  2  4  1  0
  4  5  1  0
  5  6  2  0
  5  7  1  0
  7  8  1  0
  8  9  2  0
  9 10  1  0
 10 11  1  0
 11 12  1  0
 12 13  1  0
 13 14  1  0
 14 15  2  0
 14 16  1  0
 16 17  1  0
 17 18  2  0
 10 19  2  0
 19 20  1  0
 20 21  2  0
 21 22  1  0
 21  8  1  0
 17 11  1  0
M  END
>  <alias>  (798) 
None

>  <rmsd(smina/fragmenstein)>  (798) 
1.246

>  <smiles>  (798) 
CC(C)CC(=O)Nc1cc(N2CCC(=O)NC2=O)ccc1F

>  <gnina_score>  (798) 
5.397

>  <inspiration_score>  (798) 
None

>  <energy_score>  (798) 
-25.955648

>  <distance_score>  (798) 
1.233183

>  <gnina_score_min>  (798) 
5.382

>  <inchikey>  (798) 
KZCVOWLUIUZAJG-UHFFFAOYSA-N

>  <exports>  (798) 
['/opt/xchem-fragalysis-2/maxwin/BulkDock/OUTPUTS/openbind_a71ev2a_c2_elabs_1LOUU54.sdf', '/opt/xchem-fragalysis-2/maxwin/BulkDock/OUTPUTS/openbind_a71ev2a_c2_elabs_1LSYIDY.sdf']

>  <name>  (798) 
P546592

>  <ref_pdb>  (798) 
A0884a

>  <subsites>  (798) 
None

>  <HIPPO Pose ID>  (798) 
546592

>  <ref_mols>  (798) 
A0884a

>  <HIPPO Compound ID>  (798) 
385174

>  <tags>  (798) 
openbind_a71ev2a_c2_elabs,syndirella_product,openbind_a71ev2a_c2_elabs_fragonly_scored_top80percent,openbind_a71ev2a_c2_elabs_scored,BulkDock Fragalysis export,openbind_a71ev2a_c2_elabs_scored_top80percent,openbind_a71ev2a_c2_elabs_activefrags_only_scored_5.2plus,syndirella_placed

>  <smina_score_min>  (798) 
-6.871

$$$$
P546593
     RDKit          3D

 22 24  0  0  0  0  0  0  0  0999 V2000
    7.3552   14.5216   24.9386 C   0  0  0  0  0  0  0  0  0  0  0  0
    7.7329   13.0684   24.7738 C   0  0  0  0  0  0  0  0  0  0  0  0
    7.0448   12.0625   25.4725 C   0  0  0  0  0  0  0  0  0  0  0  0
    6.0508   12.4155   26.3889 N   0  0  0  0  0  0  0  0  0  0  0  0
    5.3070   11.5655   27.4340 C   0  0  0  0  0  0  0  0  0  0  0  0
    5.3494   10.4202   27.6454 O   0  0  0  0  0  0  0  0  0  0  0  0
    4.3983   12.4658   28.2393 C   0  0  0  0  0  0  0  0  0  0  0  0
    4.1567   13.7724   27.6640 O   0  0  0  0  0  0  0  0  0  0  0  0
    3.2567   11.9056   29.0471 C   0  0  0  0  0  0  0  0  0  0  0  0
    4.4729   12.4489   29.7433 C   0  0  0  0  0  0  0  0  0  0  0  0
    7.3735   10.7237   25.2559 C   0  0  0  0  0  0  0  0  0  0  0  0
    8.3808   10.3676   24.3570 C   0  0  0  0  0  0  0  0  0  0  0  0
    9.0941   11.3492   23.6878 C   0  0  0  0  0  0  0  0  0  0  0  0
    8.8000   12.6967   23.9302 C   0  0  0  0  0  0  0  0  0  0  0  0
    9.7550   13.6467   23.5509 N   0  0  0  0  0  0  0  0  0  0  0  0
   10.3378   13.7609   22.3287 C   0  0  0  0  0  0  0  0  0  0  0  0
    9.7777   13.7956   21.2519 O   0  0  0  0  0  0  0  0  0  0  0  0
   11.6667   14.0406   22.4738 N   0  0  0  0  0  0  0  0  0  0  0  0
   11.9321   14.3806   23.8190 C   0  0  2  0  0  0  0  0  0  0  0  0
   12.9032   13.4412   24.4674 C   0  0  0  0  0  0  0  0  0  0  0  0
   10.6075   14.1479   24.4891 C   0  0  0  0  0  0  0  0  0  0  0  0
   10.4094   14.3722   25.6776 O   0  0  0  0  0  0  0  0  0  0  0  0
  1  2  1  0
  2  3  2  0
  3  4  1  0
  4  5  1  0
  5  6  2  0
  5  7  1  0
  7  8  1  0
  7  9  1  0
  9 10  1  0
  3 11  1  0
 11 12  2  0
 12 13  1  0
 13 14  2  0
 14 15  1  0
 15 16  1  0
 16 17  2  0
 16 18  1  0
 18 19  1  0
 19 20  1  1
 19 21  1  0
 21 22  2  0
 14  2  1  0
 21 15  1  0
 10  7  1  0
M  END
>  <alias>  (799) 
None

>  <rmsd(smina/fragmenstein)>  (799) 
1.172

>  <smiles>  (799) 
Cc1c(NC(=O)C2(O)CC2)cccc1N1C(=O)N[C@H](C)C1=O

>  <gnina_score>  (799) 
5.153

>  <inspiration_score>  (799) 
None

>  <energy_score>  (799) 
-26.155206

>  <distance_score>  (799) 
1.662125

>  <gnina_score_min>  (799) 
5.219

>  <inchikey>  (799) 
CBLIXFIHKUZAIT-SECBINFHSA-N

>  <exports>  (799) 
['/opt/xchem-fragalysis-2/maxwin/BulkDock/OUTPUTS/openbind_a71ev2a_c2_elabs_1LOUU54.sdf', '/opt/xchem-fragalysis-2/maxwin/BulkDock/OUTPUTS/openbind_a71ev2a_c2_elabs_1LSYIDY.sdf']

>  <name>  (799) 
P546593

>  <ref_pdb>  (799) 
A0884a

>  <subsites>  (799) 
None

>  <HIPPO Pose ID>  (799) 
546593

>  <ref_mols>  (799) 
A0884a

>  <HIPPO Compound ID>  (799) 
385176

>  <tags>  (799) 
openbind_a71ev2a_c2_elabs,syndirella_product,openbind_a71ev2a_c2_elabs_fragonly_scored_top80percent,openbind_a71ev2a_c2_elabs_scored,BulkDock Fragalysis export,openbind_a71ev2a_c2_elabs_scored_top80percent,openbind_a71ev2a_c2_elabs_activefrags_only_scored_5.2plus,syndirella_placed

>  <smina_score_min>  (799) 
-5.924

$$$$
P546598
     RDKit          3D

 22 24  0  0  0  0  0  0  0  0999 V2000
    7.8558   14.6344   23.8524 C   0  0  0  0  0  0  0  0  0  0  0  0
    8.1969   13.1908   24.0854 C   0  0  0  0  0  0  0  0  0  0  0  0
    7.3061   12.3983   24.8551 C   0  0  0  0  0  0  0  0  0  0  0  0
    6.1737   12.9815   25.4256 N   0  0  0  0  0  0  0  0  0  0  0  0
    5.2053   12.4474   26.4963 C   0  0  0  0  0  0  0  0  0  0  0  0
    5.1539   11.4056   27.0169 O   0  0  0  0  0  0  0  0  0  0  0  0
    4.1583   13.4977   26.7526 C   0  0  0  0  0  0  0  0  0  0  0  0
    3.7387   14.2278   25.5755 O   0  0  0  0  0  0  0  0  0  0  0  0
    3.1001   13.3250   27.8086 C   0  0  0  0  0  0  0  0  0  0  0  0
    4.2128   14.3125   28.0171 C   0  0  0  0  0  0  0  0  0  0  0  0
    7.5356   11.0334   25.0295 C   0  0  0  0  0  0  0  0  0  0  0  0
    8.6301   10.4403   24.4240 C   0  0  0  0  0  0  0  0  0  0  0  0
    9.5655   11.2336   23.7820 C   0  0  0  0  0  0  0  0  0  0  0  0
   10.6403   10.6296   23.2766 F   0  0  0  0  0  0  0  0  0  0  0  0
    9.4090   12.6153   23.6460 C   0  0  0  0  0  0  0  0  0  0  0  0
   10.5027   13.3671   23.1538 N   0  0  0  0  0  0  0  0  0  0  0  0
   10.5463   14.0793   21.9908 C   0  0  0  0  0  0  0  0  0  0  0  0
    9.6471   14.2448   21.1833 O   0  0  0  0  0  0  0  0  0  0  0  0
   11.9284   14.6602   21.8075 C   0  0  0  0  0  0  0  0  0  0  0  0
   12.5718   14.1909   22.9827 N   0  0  0  0  0  0  0  0  0  0  0  0
   11.7318   13.4260   23.7503 C   0  0  0  0  0  0  0  0  0  0  0  0
   12.0821   12.9776   24.8276 O   0  0  0  0  0  0  0  0  0  0  0  0
  1  2  1  0
  2  3  2  0
  3  4  1  0
  4  5  1  0
  5  6  2  0
  5  7  1  0
  7  8  1  0
  7  9  1  0
  9 10  1  0
  3 11  1  0
 11 12  2  0
 12 13  1  0
 13 14  1  0
 13 15  2  0
 15 16  1  0
 16 17  1  0
 17 18  2  0
 17 19  1  0
 19 20  1  0
 20 21  1  0
 21 22  2  0
 15  2  1  0
 21 16  1  0
 10  7  1  0
M  END
>  <alias>  (800) 
None

>  <rmsd(smina/fragmenstein)>  (800) 
0.641

>  <smiles>  (800) 
Cc1c(NC(=O)C2(O)CC2)ccc(F)c1N1C(=O)CNC1=O

>  <gnina_score>  (800) 
5.245

>  <inspiration_score>  (800) 
None

>  <energy_score>  (800) 
-40.802887

>  <distance_score>  (800) 
1.63259

>  <gnina_score_min>  (800) 
5.3

>  <inchikey>  (800) 
ZTKULBWXAOVDGL-UHFFFAOYSA-N

>  <exports>  (800) 
['/opt/xchem-fragalysis-2/maxwin/BulkDock/OUTPUTS/openbind_a71ev2a_c2_elabs_1LOUU54.sdf', '/opt/xchem-fragalysis-2/maxwin/BulkDock/OUTPUTS/openbind_a71ev2a_c2_elabs_1LSYIDY.sdf']

>  <name>  (800) 
P546598

>  <ref_pdb>  (800) 
A0884a

>  <subsites>  (800) 
None

>  <HIPPO Pose ID>  (800) 
546598

>  <ref_mols>  (800) 
A0884a

>  <HIPPO Compound ID>  (800) 
385179

>  <tags>  (800) 
openbind_a71ev2a_c2_elabs,syndirella_product,openbind_a71ev2a_c2_elabs_fragonly_scored_top80percent,openbind_a71ev2a_c2_elabs_scored,BulkDock Fragalysis export,openbind_a71ev2a_c2_elabs_scored_top80percent,openbind_a71ev2a_c2_elabs_activefrags_only_scored_5.2plus,syndirella_placed

>  <smina_score_min>  (800) 
-6.733

$$$$
P546599
     RDKit          3D

 22 23  0  0  0  0  0  0  0  0999 V2000
    2.6016   12.3368   28.2885 C   0  0  0  0  0  0  0  0  0  0  0  0
    3.7176   13.3260   28.6002 C   0  0  0  0  0  0  0  0  0  0  0  0
    4.5872   13.7642   27.4151 C   0  0  2  0  0  0  0  0  0  0  0  0
    3.6065   14.4647   26.0988 Cl  0  0  0  0  0  0  0  0  0  0  0  0
    5.4937   12.6534   26.8431 C   0  0  0  0  0  0  0  0  0  0  0  0
    5.4611   11.5395   27.2064 O   0  0  0  0  0  0  0  0  0  0  0  0
    6.4532   13.3611   25.8283 N   0  0  0  0  0  0  0  0  0  0  0  0
    7.4603   12.8379   25.0216 C   0  0  0  0  0  0  0  0  0  0  0  0
    7.7218   11.4702   24.9454 C   0  0  0  0  0  0  0  0  0  0  0  0
    8.7757   11.0058   24.1470 C   0  0  0  0  0  0  0  0  0  0  0  0
    9.0337    9.5626   23.9253 C   0  0  0  0  0  0  0  0  0  0  0  0
    9.5944   11.9072   23.4808 C   0  0  0  0  0  0  0  0  0  0  0  0
    9.3335   13.2678   23.5611 C   0  0  0  0  0  0  0  0  0  0  0  0
   10.1644   14.1713   22.8579 N   0  0  0  0  0  0  0  0  0  0  0  0
    9.6435   14.5760   21.5517 C   0  0  0  0  0  0  0  0  0  0  0  0
   10.6085   15.3694   20.7170 C   0  0  0  0  0  0  0  0  0  0  0  0
   11.9734   14.7793   20.8890 C   0  0  0  0  0  0  0  0  0  0  0  0
   12.6947   14.4331   19.9591 O   0  0  0  0  0  0  0  0  0  0  0  0
   12.3543   14.6812   22.1955 N   0  0  0  0  0  0  0  0  0  0  0  0
   11.5260   14.1421   23.1347 C   0  0  0  0  0  0  0  0  0  0  0  0
   12.0044   13.6488   24.1578 O   0  0  0  0  0  0  0  0  0  0  0  0
    8.2434   13.7341   24.2924 C   0  0  0  0  0  0  0  0  0  0  0  0
  1  2  1  0
  2  3  1  0
  3  4  1  6
  3  5  1  0
  5  6  2  0
  5  7  1  0
  7  8  1  0
  8  9  2  0
  9 10  1  0
 10 11  1  0
 10 12  2  0
 12 13  1  0
 13 14  1  0
 14 15  1  0
 15 16  1  0
 16 17  1  0
 17 18  2  0
 17 19  1  0
 19 20  1  0
 20 21  2  0
 13 22  2  0
 22  8  1  0
 20 14  1  0
M  END
>  <alias>  (801) 
None

>  <rmsd(smina/fragmenstein)>  (801) 
0.678

>  <smiles>  (801) 
CC[C@H](Cl)C(=O)Nc1cc(C)cc(N2CCC(=O)NC2=O)c1

>  <gnina_score>  (801) 
5.459

>  <inspiration_score>  (801) 
None

>  <energy_score>  (801) 
-18.305899

>  <distance_score>  (801) 
1.333403

>  <gnina_score_min>  (801) 
5.596

>  <inchikey>  (801) 
WJGAFSOQWRNKAO-LBPRGKRZSA-N

>  <exports>  (801) 
['/opt/xchem-fragalysis-2/maxwin/BulkDock/OUTPUTS/openbind_a71ev2a_c2_elabs_1LOUU54.sdf', '/opt/xchem-fragalysis-2/maxwin/BulkDock/OUTPUTS/openbind_a71ev2a_c2_elabs_1LSYIDY.sdf']

>  <name>  (801) 
P546599

>  <ref_pdb>  (801) 
A0884a

>  <subsites>  (801) 
None

>  <HIPPO Pose ID>  (801) 
546599

>  <ref_mols>  (801) 
A0884a

>  <HIPPO Compound ID>  (801) 
385180

>  <tags>  (801) 
openbind_a71ev2a_c2_elabs,syndirella_product,openbind_a71ev2a_c2_elabs_fragonly_scored_top80percent,BulkDock Fragalysis export,openbind_a71ev2a_c2_elabs_scored,openbind_a71ev2a_c2_elabs_scored_top80percent,openbind_a71ev2a_c2_elabs_activefrags_only_scored_5.2plus,openbind_a71ev2a_c2_elabs_activefrags_only_scored_5.5plus,syndirella_placed

>  <smina_score_min>  (801) 
-6.641

$$$$
P546601
     RDKit          3D

 22 23  0  0  0  0  0  0  0  0999 V2000
    6.4467   13.0808   29.6494 C   0  0  0  0  0  0  0  0  0  0  0  0
    5.5772   12.1838   28.7761 C   0  0  0  0  0  0  0  0  0  0  0  0
    5.0065   12.8653   27.5257 C   0  0  1  0  0  0  0  0  0  0  0  0
    3.8511   14.1534   27.9585 Cl  0  0  0  0  0  0  0  0  0  0  0  0
    6.1115   13.4050   26.5935 C   0  0  0  0  0  0  0  0  0  0  0  0
    6.3935   14.5370   26.4996 O   0  0  0  0  0  0  0  0  0  0  0  0
    6.7603   12.1400   25.9349 N   0  0  0  0  0  0  0  0  0  0  0  0
    7.7812   12.0348   24.9958 C   0  0  0  0  0  0  0  0  0  0  0  0
    8.1978   10.7515   24.6298 C   0  0  0  0  0  0  0  0  0  0  0  0
    9.2594   10.6070   23.7463 C   0  0  0  0  0  0  0  0  0  0  0  0
    9.8662    9.0871   23.2816 Cl  0  0  0  0  0  0  0  0  0  0  0  0
    9.8880   11.7145   23.2200 C   0  0  0  0  0  0  0  0  0  0  0  0
    9.4728   12.9918   23.5745 C   0  0  0  0  0  0  0  0  0  0  0  0
   10.1607   14.0941   22.9992 N   0  0  0  0  0  0  0  0  0  0  0  0
    9.6132   14.5327   21.7103 C   0  0  0  0  0  0  0  0  0  0  0  0
   10.5437   15.3621   20.8654 C   0  0  0  0  0  0  0  0  0  0  0  0
   11.9315   14.8316   21.0346 C   0  0  0  0  0  0  0  0  0  0  0  0
   12.6595   14.5024   20.1040 O   0  0  0  0  0  0  0  0  0  0  0  0
   12.3193   14.7615   22.3403 N   0  0  0  0  0  0  0  0  0  0  0  0
   11.5258   14.1637   23.2730 C   0  0  0  0  0  0  0  0  0  0  0  0
   12.0338   13.6655   24.2795 O   0  0  0  0  0  0  0  0  0  0  0  0
    8.4100   13.1629   24.4577 C   0  0  0  0  0  0  0  0  0  0  0  0
  1  2  1  0
  2  3  1  0
  3  4  1  1
  3  5  1  0
  5  6  2  0
  5  7  1  0
  7  8  1  0
  8  9  2  0
  9 10  1  0
 10 11  1  0
 10 12  2  0
 12 13  1  0
 13 14  1  0
 14 15  1  0
 15 16  1  0
 16 17  1  0
 17 18  2  0
 17 19  1  0
 19 20  1  0
 20 21  2  0
 13 22  2  0
 22  8  1  0
 20 14  1  0
M  END
>  <alias>  (802) 
None

>  <rmsd(smina/fragmenstein)>  (802) 
0.549

>  <smiles>  (802) 
CC[C@@H](Cl)C(=O)Nc1cc(Cl)cc(N2CCC(=O)NC2=O)c1

>  <gnina_score>  (802) 
5.666

>  <inspiration_score>  (802) 
None

>  <energy_score>  (802) 
-31.599184

>  <distance_score>  (802) 
1.130149

>  <gnina_score_min>  (802) 
5.679

>  <inchikey>  (802) 
APXIWIQLXZGCKY-LLVKDONJSA-N

>  <exports>  (802) 
['/opt/xchem-fragalysis-2/maxwin/BulkDock/OUTPUTS/openbind_a71ev2a_c2_elabs_1LOUU54.sdf', '/opt/xchem-fragalysis-2/maxwin/BulkDock/OUTPUTS/openbind_a71ev2a_c2_elabs_1LSYIDY.sdf']

>  <name>  (802) 
P546601

>  <ref_pdb>  (802) 
A0884a

>  <subsites>  (802) 
None

>  <HIPPO Pose ID>  (802) 
546601

>  <ref_mols>  (802) 
A0884a

>  <HIPPO Compound ID>  (802) 
385181

>  <tags>  (802) 
openbind_a71ev2a_c2_elabs,syndirella_product,openbind_a71ev2a_c2_elabs_fragonly_scored_top80percent,BulkDock Fragalysis export,openbind_a71ev2a_c2_elabs_scored,openbind_a71ev2a_c2_elabs_scored_top80percent,openbind_a71ev2a_c2_elabs_activefrags_only_scored_5.2plus,openbind_a71ev2a_c2_elabs_activefrags_only_scored_5.5plus,syndirella_placed

>  <smina_score_min>  (802) 
-6.929

$$$$
P546603
     RDKit          3D

 22 23  0  0  0  0  0  0  0  0999 V2000
    5.0415   14.9168   28.8748 C   0  0  0  0  0  0  0  0  0  0  0  0
    4.6425   15.2174   27.4346 C   0  0  0  0  0  0  0  0  0  0  0  0
    4.0543   14.0270   26.6698 C   0  0  2  0  0  0  0  0  0  0  0  0
    2.5163   13.4691   27.4028 Cl  0  0  0  0  0  0  0  0  0  0  0  0
    5.0446   12.8459   26.5598 C   0  0  0  0  0  0  0  0  0  0  0  0
    4.9753   11.8764   27.2148 O   0  0  0  0  0  0  0  0  0  0  0  0
    6.0847   13.2562   25.4604 N   0  0  0  0  0  0  0  0  0  0  0  0
    7.1486   12.5386   24.9051 C   0  0  0  0  0  0  0  0  0  0  0  0
    7.9906   13.2328   24.0273 C   0  0  0  0  0  0  0  0  0  0  0  0
    9.1050   12.6054   23.4610 C   0  0  0  0  0  0  0  0  0  0  0  0
   10.0030   13.2837   22.5971 N   0  0  0  0  0  0  0  0  0  0  0  0
    9.5362   14.4136   21.7884 C   0  0  0  0  0  0  0  0  0  0  0  0
   10.5634   14.9685   20.8096 C   0  0  0  0  0  0  0  0  0  0  0  0
   11.9260   14.8069   21.4208 C   0  0  0  0  0  0  0  0  0  0  0  0
   12.7339   15.7153   21.5259 O   0  0  0  0  0  0  0  0  0  0  0  0
   12.1563   13.5416   21.8644 N   0  0  0  0  0  0  0  0  0  0  0  0
   11.3645   13.2755   22.9418 C   0  0  0  0  0  0  0  0  0  0  0  0
   11.7918   13.0751   24.0742 O   0  0  0  0  0  0  0  0  0  0  0  0
    9.3315   11.2474   23.7105 C   0  0  0  0  0  0  0  0  0  0  0  0
    8.4612   10.5364   24.5259 C   0  0  0  0  0  0  0  0  0  0  0  0
    7.4003   11.1869   25.1471 C   0  0  0  0  0  0  0  0  0  0  0  0
    6.6113   10.4546   25.9385 F   0  0  0  0  0  0  0  0  0  0  0  0
  1  2  1  0
  2  3  1  0
  3  4  1  1
  3  5  1  0
  5  6  2  0
  5  7  1  0
  7  8  1  0
  8  9  2  0
  9 10  1  0
 10 11  1  0
 11 12  1  0
 12 13  1  0
 13 14  1  0
 14 15  2  0
 14 16  1  0
 16 17  1  0
 17 18  2  0
 10 19  2  0
 19 20  1  0
 20 21  2  0
 21 22  1  0
 21  8  1  0
 17 11  1  0
M  END
>  <alias>  (803) 
None

>  <rmsd(smina/fragmenstein)>  (803) 
0.811

>  <smiles>  (803) 
CC[C@H](Cl)C(=O)Nc1cc(N2CCC(=O)NC2=O)ccc1F

>  <gnina_score>  (803) 
5.502

>  <inspiration_score>  (803) 
None

>  <energy_score>  (803) 
-2.507858

>  <distance_score>  (803) 
1.34171

>  <gnina_score_min>  (803) 
5.493

>  <inchikey>  (803) 
VPUHHDNHBWWZSL-VIFPVBQESA-N

>  <exports>  (803) 
['/opt/xchem-fragalysis-2/maxwin/BulkDock/OUTPUTS/openbind_a71ev2a_c2_elabs_1LOUU54.sdf', '/opt/xchem-fragalysis-2/maxwin/BulkDock/OUTPUTS/openbind_a71ev2a_c2_elabs_1LSYIDY.sdf']

>  <name>  (803) 
P546603

>  <ref_pdb>  (803) 
A0884a

>  <subsites>  (803) 
None

>  <HIPPO Pose ID>  (803) 
546603

>  <ref_mols>  (803) 
A0884a

>  <HIPPO Compound ID>  (803) 
385182

>  <tags>  (803) 
openbind_a71ev2a_c2_elabs,syndirella_product,openbind_a71ev2a_c2_elabs_fragonly_scored_top80percent,openbind_a71ev2a_c2_elabs_scored,BulkDock Fragalysis export,openbind_a71ev2a_c2_elabs_scored_top80percent,openbind_a71ev2a_c2_elabs_activefrags_only_scored_5.2plus,syndirella_placed

>  <smina_score_min>  (803) 
-6.739

$$$$
P546604
     RDKit          3D

 22 23  0  0  0  0  0  0  0  0999 V2000
    5.7505   14.6766   29.4292 C   0  0  0  0  0  0  0  0  0  0  0  0
    5.2960   15.3486   28.1401 C   0  0  0  0  0  0  0  0  0  0  0  0
    4.3659   14.4560   27.3163 C   0  0  1  0  0  0  0  0  0  0  0  0
    3.7551   15.3530   25.8933 Cl  0  0  0  0  0  0  0  0  0  0  0  0
    5.0381   13.1573   26.8343 C   0  0  0  0  0  0  0  0  0  0  0  0
    4.7318   12.1086   27.2611 O   0  0  0  0  0  0  0  0  0  0  0  0
    6.1447   13.5459   25.8007 N   0  0  0  0  0  0  0  0  0  0  0  0
    7.1181   12.7659   25.1832 C   0  0  0  0  0  0  0  0  0  0  0  0
    7.1797   11.3917   25.3737 C   0  0  0  0  0  0  0  0  0  0  0  0
    8.1337   10.6446   24.6906 C   0  0  0  0  0  0  0  0  0  0  0  0
    9.0520   11.2567   23.8243 C   0  0  0  0  0  0  0  0  0  0  0  0
    9.9558   10.3374   23.0677 C   0  0  0  0  0  0  0  0  0  0  0  0
    9.0329   12.6557   23.6718 C   0  0  0  0  0  0  0  0  0  0  0  0
    9.9763   13.3411   22.8367 N   0  0  0  0  0  0  0  0  0  0  0  0
    9.4575   14.3267   21.8960 C   0  0  0  0  0  0  0  0  0  0  0  0
   10.4464   14.7967   20.8507 C   0  0  0  0  0  0  0  0  0  0  0  0
   11.8638   14.5091   21.2243 C   0  0  0  0  0  0  0  0  0  0  0  0
   12.7655   14.4879   20.3904 O   0  0  0  0  0  0  0  0  0  0  0  0
   12.0940   14.3033   22.5502 N   0  0  0  0  0  0  0  0  0  0  0  0
   11.2610   13.5544   23.3393 C   0  0  0  0  0  0  0  0  0  0  0  0
   11.6799   13.1289   24.4139 O   0  0  0  0  0  0  0  0  0  0  0  0
    8.0406   13.3918   24.3389 C   0  0  0  0  0  0  0  0  0  0  0  0
  1  2  1  0
  2  3  1  0
  3  4  1  6
  3  5  1  0
  5  6  2  0
  5  7  1  0
  7  8  1  0
  8  9  2  0
  9 10  1  0
 10 11  2  0
 11 12  1  0
 11 13  1  0
 13 14  1  0
 14 15  1  0
 15 16  1  0
 16 17  1  0
 17 18  2  0
 17 19  1  0
 19 20  1  0
 20 21  2  0
 13 22  2  0
 22  8  1  0
 20 14  1  0
M  END
>  <alias>  (804) 
None

>  <rmsd(smina/fragmenstein)>  (804) 
0.606

>  <smiles>  (804) 
CC[C@@H](Cl)C(=O)Nc1ccc(C)c(N2CCC(=O)NC2=O)c1

>  <gnina_score>  (804) 
5.49

>  <inspiration_score>  (804) 
None

>  <energy_score>  (804) 
-43.211305

>  <distance_score>  (804) 
1.403379

>  <gnina_score_min>  (804) 
5.459

>  <inchikey>  (804) 
VLEYWEYXXXDRDI-LLVKDONJSA-N

>  <exports>  (804) 
['/opt/xchem-fragalysis-2/maxwin/BulkDock/OUTPUTS/openbind_a71ev2a_c2_elabs_1LOUU54.sdf', '/opt/xchem-fragalysis-2/maxwin/BulkDock/OUTPUTS/openbind_a71ev2a_c2_elabs_1LSYIDY.sdf']

>  <name>  (804) 
P546604

>  <ref_pdb>  (804) 
A0884a

>  <subsites>  (804) 
None

>  <HIPPO Pose ID>  (804) 
546604

>  <ref_mols>  (804) 
A0884a

>  <HIPPO Compound ID>  (804) 
385183

>  <tags>  (804) 
openbind_a71ev2a_c2_elabs,syndirella_product,openbind_a71ev2a_c2_elabs_fragonly_scored_top80percent,openbind_a71ev2a_c2_elabs_scored,BulkDock Fragalysis export,openbind_a71ev2a_c2_elabs_scored_top80percent,openbind_a71ev2a_c2_elabs_activefrags_only_scored_5.2plus,syndirella_placed

>  <smina_score_min>  (804) 
-6.607

$$$$
P546608
     RDKit          3D

 22 23  0  0  0  0  0  0  0  0999 V2000
    5.6413   13.1242   30.5512 C   0  0  0  0  0  0  0  0  0  0  0  0
    6.4210   13.2653   29.2513 C   0  0  0  0  0  0  0  0  0  0  0  0
    5.5260   13.3708   28.0117 C   0  0  2  0  0  0  0  0  0  0  0  0
    4.6391   11.8414   27.7425 Cl  0  0  0  0  0  0  0  0  0  0  0  0
    6.3934   13.7616   26.7993 C   0  0  0  0  0  0  0  0  0  0  0  0
    6.6453   14.8847   26.5820 O   0  0  0  0  0  0  0  0  0  0  0  0
    6.8852   12.4608   26.0924 N   0  0  0  0  0  0  0  0  0  0  0  0
    7.8220   12.2825   25.0784 C   0  0  0  0  0  0  0  0  0  0  0  0
    8.1762   10.9782   24.7153 C   0  0  0  0  0  0  0  0  0  0  0  0
    9.2024   10.7929   23.7960 C   0  0  0  0  0  0  0  0  0  0  0  0
    9.8591    9.1284   23.2800 Br  0  0  0  0  0  0  0  0  0  0  0  0
    9.8475   11.8682   23.2265 C   0  0  0  0  0  0  0  0  0  0  0  0
    9.4743   13.1589   23.5606 C   0  0  0  0  0  0  0  0  0  0  0  0
   10.1732   14.2235   22.9362 N   0  0  0  0  0  0  0  0  0  0  0  0
    9.6325   14.5845   21.6189 C   0  0  0  0  0  0  0  0  0  0  0  0
   10.5612   15.3962   20.7587 C   0  0  0  0  0  0  0  0  0  0  0  0
   11.9409   14.8430   20.9291 C   0  0  0  0  0  0  0  0  0  0  0  0
   12.6534   14.4631   20.0061 O   0  0  0  0  0  0  0  0  0  0  0  0
   12.3423   14.8070   22.2329 N   0  0  0  0  0  0  0  0  0  0  0  0
   11.5421   14.2697   23.1964 C   0  0  0  0  0  0  0  0  0  0  0  0
   12.0482   13.8128   24.2237 O   0  0  0  0  0  0  0  0  0  0  0  0
    8.4540   13.3786   24.4791 C   0  0  0  0  0  0  0  0  0  0  0  0
  1  2  1  0
  2  3  1  0
  3  4  1  6
  3  5  1  0
  5  6  2  0
  5  7  1  0
  7  8  1  0
  8  9  2  0
  9 10  1  0
 10 11  1  0
 10 12  2  0
 12 13  1  0
 13 14  1  0
 14 15  1  0
 15 16  1  0
 16 17  1  0
 17 18  2  0
 17 19  1  0
 19 20  1  0
 20 21  2  0
 13 22  2  0
 22  8  1  0
 20 14  1  0
M  END
>  <alias>  (805) 
None

>  <rmsd(smina/fragmenstein)>  (805) 
0.651

>  <smiles>  (805) 
CC[C@H](Cl)C(=O)Nc1cc(Br)cc(N2CCC(=O)NC2=O)c1

>  <gnina_score>  (805) 
5.649

>  <inspiration_score>  (805) 
None

>  <energy_score>  (805) 
-31.977259

>  <distance_score>  (805) 
1.307311

>  <gnina_score_min>  (805) 
5.71

>  <inchikey>  (805) 
SDZQDLGJHQGIND-NSHDSACASA-N

>  <exports>  (805) 
['/opt/xchem-fragalysis-2/maxwin/BulkDock/OUTPUTS/openbind_a71ev2a_c2_elabs_1LOUU54.sdf', '/opt/xchem-fragalysis-2/maxwin/BulkDock/OUTPUTS/openbind_a71ev2a_c2_elabs_1LSYIDY.sdf']

>  <name>  (805) 
P546608

>  <ref_pdb>  (805) 
A0884a

>  <subsites>  (805) 
None

>  <HIPPO Pose ID>  (805) 
546608

>  <ref_mols>  (805) 
A0884a

>  <HIPPO Compound ID>  (805) 
385185

>  <tags>  (805) 
openbind_a71ev2a_c2_elabs,syndirella_product,openbind_a71ev2a_c2_elabs_fragonly_scored_top80percent,BulkDock Fragalysis export,openbind_a71ev2a_c2_elabs_scored,openbind_a71ev2a_c2_elabs_scored_top80percent,openbind_a71ev2a_c2_elabs_activefrags_only_scored_5.2plus,openbind_a71ev2a_c2_elabs_activefrags_only_scored_5.5plus,syndirella_placed

>  <smina_score_min>  (805) 
-6.297

$$$$
P546609
     RDKit          3D

 22 23  0  0  0  0  0  0  0  0999 V2000
    9.9573   10.3060   23.0532 C   0  0  0  0  0  0  0  0  0  0  0  0
    9.0585   11.2083   23.8349 C   0  0  0  0  0  0  0  0  0  0  0  0
    8.1390   10.5782   24.6855 C   0  0  0  0  0  0  0  0  0  0  0  0
    7.2033   11.3125   25.4060 C   0  0  0  0  0  0  0  0  0  0  0  0
    7.1702   12.6953   25.2816 C   0  0  0  0  0  0  0  0  0  0  0  0
    6.2182   13.4624   25.9487 N   0  0  0  0  0  0  0  0  0  0  0  0
    5.0121   13.0294   26.8415 C   0  0  0  0  0  0  0  0  0  0  0  0
    4.6853   11.9676   27.2121 O   0  0  0  0  0  0  0  0  0  0  0  0
    4.2208   14.3272   27.1180 C   0  0  2  0  0  0  0  0  0  0  0  0
    5.1133   15.3783   27.4917 O   0  0  0  0  0  0  0  0  0  0  0  0
    3.1649   14.0732   28.1860 C   0  0  0  0  0  0  0  0  0  0  0  0
    1.8752   15.5386   28.2379 Br  0  0  0  0  0  0  0  0  0  0  0  0
    8.0959   13.3397   24.4549 C   0  0  0  0  0  0  0  0  0  0  0  0
    9.0580   12.6115   23.7357 C   0  0  0  0  0  0  0  0  0  0  0  0
    9.9863   13.3091   22.8958 N   0  0  0  0  0  0  0  0  0  0  0  0
    9.4440   14.2982   21.9734 C   0  0  0  0  0  0  0  0  0  0  0  0
   10.4141   14.7837   20.9182 C   0  0  0  0  0  0  0  0  0  0  0  0
   11.8400   14.5314   21.2865 C   0  0  0  0  0  0  0  0  0  0  0  0
   12.7375   14.5305   20.4486 O   0  0  0  0  0  0  0  0  0  0  0  0
   12.0799   14.3229   22.6097 N   0  0  0  0  0  0  0  0  0  0  0  0
   11.2698   13.5451   23.3939 C   0  0  0  0  0  0  0  0  0  0  0  0
   11.7044   13.1052   24.4561 O   0  0  0  0  0  0  0  0  0  0  0  0
  1  2  1  0
  2  3  2  0
  3  4  1  0
  4  5  2  0
  5  6  1  0
  6  7  1  0
  7  8  2  0
  7  9  1  0
  9 10  1  1
  9 11  1  0
 11 12  1  0
  5 13  1  0
 13 14  2  0
 14 15  1  0
 15 16  1  0
 16 17  1  0
 17 18  1  0
 18 19  2  0
 18 20  1  0
 20 21  1  0
 21 22  2  0
 14  2  1  0
 21 15  1  0
M  END
>  <alias>  (806) 
None

>  <rmsd(smina/fragmenstein)>  (806) 
0.654

>  <smiles>  (806) 
Cc1ccc(NC(=O)[C@H](O)CBr)cc1N1CCC(=O)NC1=O

>  <gnina_score>  (806) 
5.29

>  <inspiration_score>  (806) 
None

>  <energy_score>  (806) 
-46.052337

>  <distance_score>  (806) 
1.378126

>  <gnina_score_min>  (806) 
5.328

>  <inchikey>  (806) 
NANRJDYJCIEPCO-LLVKDONJSA-N

>  <exports>  (806) 
['/opt/xchem-fragalysis-2/maxwin/BulkDock/OUTPUTS/openbind_a71ev2a_c2_elabs_1LOUU54.sdf', '/opt/xchem-fragalysis-2/maxwin/BulkDock/OUTPUTS/openbind_a71ev2a_c2_elabs_1LSYIDY.sdf']

>  <name>  (806) 
P546609

>  <ref_pdb>  (806) 
A0884a

>  <subsites>  (806) 
None

>  <HIPPO Pose ID>  (806) 
546609

>  <ref_mols>  (806) 
A0884a

>  <HIPPO Compound ID>  (806) 
385186

>  <tags>  (806) 
openbind_a71ev2a_c2_elabs,syndirella_product,openbind_a71ev2a_c2_elabs_fragonly_scored_top80percent,openbind_a71ev2a_c2_elabs_scored,BulkDock Fragalysis export,openbind_a71ev2a_c2_elabs_scored_top80percent,openbind_a71ev2a_c2_elabs_activefrags_only_scored_5.2plus,syndirella_placed

>  <smina_score_min>  (806) 
-6.557

$$$$
P546614
     RDKit          3D

 22 23  0  0  0  0  0  0  0  0999 V2000
    4.4491   14.5680   28.7472 C   0  0  0  0  0  0  0  0  0  0  0  0
    4.4153   14.9841   27.2850 C   0  0  0  0  0  0  0  0  0  0  0  0
    4.0357   13.8377   26.3489 C   0  0  1  0  0  0  0  0  0  0  0  0
    3.8474   14.3849   25.0388 O   0  0  0  0  0  0  0  0  0  0  0  0
    5.1291   12.7448   26.3123 C   0  0  0  0  0  0  0  0  0  0  0  0
    5.0928   11.7598   26.9422 O   0  0  0  0  0  0  0  0  0  0  0  0
    6.1798   13.2415   25.2764 N   0  0  0  0  0  0  0  0  0  0  0  0
    7.3016   12.6103   24.7577 C   0  0  0  0  0  0  0  0  0  0  0  0
    7.5518   11.2594   24.9714 C   0  0  0  0  0  0  0  0  0  0  0  0
    8.6416   10.6699   24.3434 C   0  0  0  0  0  0  0  0  0  0  0  0
    8.8091    9.3472   24.4418 F   0  0  0  0  0  0  0  0  0  0  0  0
    9.5333   11.4181   23.5850 C   0  0  0  0  0  0  0  0  0  0  0  0
    9.2966   12.7794   23.3907 C   0  0  0  0  0  0  0  0  0  0  0  0
   10.1924   13.5507   22.6042 N   0  0  0  0  0  0  0  0  0  0  0  0
    9.6496   14.5064   21.6477 C   0  0  0  0  0  0  0  0  0  0  0  0
   10.6230   14.9175   20.5656 C   0  0  0  0  0  0  0  0  0  0  0  0
   12.0319   14.5768   20.9316 C   0  0  0  0  0  0  0  0  0  0  0  0
   12.8898   14.3630   20.0796 O   0  0  0  0  0  0  0  0  0  0  0  0
   12.2857   14.5239   22.2686 N   0  0  0  0  0  0  0  0  0  0  0  0
   11.4922   13.7479   23.0688 C   0  0  0  0  0  0  0  0  0  0  0  0
   11.9414   13.2675   24.1081 O   0  0  0  0  0  0  0  0  0  0  0  0
    8.1551   13.3611   23.9474 C   0  0  0  0  0  0  0  0  0  0  0  0
  1  2  1  0
  2  3  1  0
  3  4  1  6
  3  5  1  0
  5  6  2  0
  5  7  1  0
  7  8  1  0
  8  9  2  0
  9 10  1  0
 10 11  1  0
 10 12  2  0
 12 13  1  0
 13 14  1  0
 14 15  1  0
 15 16  1  0
 16 17  1  0
 17 18  2  0
 17 19  1  0
 19 20  1  0
 20 21  2  0
 13 22  2  0
 22  8  1  0
 20 14  1  0
M  END
>  <alias>  (807) 
None

>  <rmsd(smina/fragmenstein)>  (807) 
0.523

>  <smiles>  (807) 
CC[C@@H](O)C(=O)Nc1cc(F)cc(N2CCC(=O)NC2=O)c1

>  <gnina_score>  (807) 
5.298

>  <inspiration_score>  (807) 
None

>  <energy_score>  (807) 
-38.931173

>  <distance_score>  (807) 
1.306481

>  <gnina_score_min>  (807) 
5.32

>  <inchikey>  (807) 
HGEAJYKGWGRRBI-LLVKDONJSA-N

>  <exports>  (807) 
['/opt/xchem-fragalysis-2/maxwin/BulkDock/OUTPUTS/openbind_a71ev2a_c2_elabs_1LOUU54.sdf', '/opt/xchem-fragalysis-2/maxwin/BulkDock/OUTPUTS/openbind_a71ev2a_c2_elabs_1LSYIDY.sdf']

>  <name>  (807) 
P546614

>  <ref_pdb>  (807) 
A0884a

>  <subsites>  (807) 
None

>  <HIPPO Pose ID>  (807) 
546614

>  <ref_mols>  (807) 
A0884a

>  <HIPPO Compound ID>  (807) 
385189

>  <tags>  (807) 
openbind_a71ev2a_c2_elabs,syndirella_product,openbind_a71ev2a_c2_elabs_fragonly_scored_top80percent,openbind_a71ev2a_c2_elabs_scored,BulkDock Fragalysis export,openbind_a71ev2a_c2_elabs_scored_top80percent,openbind_a71ev2a_c2_elabs_activefrags_only_scored_5.2plus,syndirella_placed

>  <smina_score_min>  (807) 
-7.035

$$$$
P546616
     RDKit          3D

 22 23  0  0  0  0  0  0  0  0999 V2000
    3.1392   13.1299   29.1182 C   0  0  0  0  0  0  0  0  0  0  0  0
    2.9971   13.5821   27.6725 C   0  0  0  0  0  0  0  0  0  0  0  0
    4.3344   13.9255   27.0154 C   0  0  2  0  0  0  0  0  0  0  0  0
    4.0899   14.7154   25.8476 O   0  0  0  0  0  0  0  0  0  0  0  0
    5.1781   12.6798   26.6344 C   0  0  0  0  0  0  0  0  0  0  0  0
    5.0171   11.6023   27.0613 O   0  0  0  0  0  0  0  0  0  0  0  0
    6.2081   13.2091   25.5884 N   0  0  0  0  0  0  0  0  0  0  0  0
    7.2642   12.5635   24.9556 C   0  0  0  0  0  0  0  0  0  0  0  0
    7.4895   11.1951   25.1101 C   0  0  0  0  0  0  0  0  0  0  0  0
    8.5493   10.5904   24.4375 C   0  0  0  0  0  0  0  0  0  0  0  0
    9.4088   11.3639   23.6677 C   0  0  0  0  0  0  0  0  0  0  0  0
   10.3984   10.7484   23.0166 F   0  0  0  0  0  0  0  0  0  0  0  0
    9.2049   12.7372   23.5100 C   0  0  0  0  0  0  0  0  0  0  0  0
   10.1015   13.5130   22.7228 N   0  0  0  0  0  0  0  0  0  0  0  0
    9.5558   14.4483   21.7528 C   0  0  0  0  0  0  0  0  0  0  0  0
   10.5419   14.9085   20.7010 C   0  0  0  0  0  0  0  0  0  0  0  0
   11.9555   14.5779   21.0604 C   0  0  0  0  0  0  0  0  0  0  0  0
   12.8285   14.4419   20.2075 O   0  0  0  0  0  0  0  0  0  0  0  0
   12.2068   14.4650   22.3935 N   0  0  0  0  0  0  0  0  0  0  0  0
   11.3989   13.7016   23.1903 C   0  0  0  0  0  0  0  0  0  0  0  0
   11.8354   13.2382   24.2432 O   0  0  0  0  0  0  0  0  0  0  0  0
    8.1022   13.3263   24.1338 C   0  0  0  0  0  0  0  0  0  0  0  0
  1  2  1  0
  2  3  1  0
  3  4  1  6
  3  5  1  0
  5  6  2  0
  5  7  1  0
  7  8  1  0
  8  9  2  0
  9 10  1  0
 10 11  2  0
 11 12  1  0
 11 13  1  0
 13 14  1  0
 14 15  1  0
 15 16  1  0
 16 17  1  0
 17 18  2  0
 17 19  1  0
 19 20  1  0
 20 21  2  0
 13 22  2  0
 22  8  1  0
 20 14  1  0
M  END
>  <alias>  (808) 
None

>  <rmsd(smina/fragmenstein)>  (808) 
0.459

>  <smiles>  (808) 
CC[C@H](O)C(=O)Nc1ccc(F)c(N2CCC(=O)NC2=O)c1

>  <gnina_score>  (808) 
5.297

>  <inspiration_score>  (808) 
None

>  <energy_score>  (808) 
-45.69695

>  <distance_score>  (808) 
1.249589

>  <gnina_score_min>  (808) 
5.268

>  <inchikey>  (808) 
UQENILJTFRTNLL-NSHDSACASA-N

>  <exports>  (808) 
['/opt/xchem-fragalysis-2/maxwin/BulkDock/OUTPUTS/openbind_a71ev2a_c2_elabs_1LOUU54.sdf', '/opt/xchem-fragalysis-2/maxwin/BulkDock/OUTPUTS/openbind_a71ev2a_c2_elabs_1LSYIDY.sdf']

>  <name>  (808) 
P546616

>  <ref_pdb>  (808) 
A0884a

>  <subsites>  (808) 
None

>  <HIPPO Pose ID>  (808) 
546616

>  <ref_mols>  (808) 
A0884a

>  <HIPPO Compound ID>  (808) 
385192

>  <tags>  (808) 
openbind_a71ev2a_c2_elabs,syndirella_product,openbind_a71ev2a_c2_elabs_fragonly_scored_top80percent,openbind_a71ev2a_c2_elabs_scored,BulkDock Fragalysis export,openbind_a71ev2a_c2_elabs_scored_top80percent,openbind_a71ev2a_c2_elabs_activefrags_only_scored_5.2plus,syndirella_placed

>  <smina_score_min>  (808) 
-6.611

$$$$
P546620
     RDKit          3D

 22 23  0  0  0  0  0  0  0  0999 V2000
    4.3969   12.3025   30.2239 C   0  0  0  0  0  0  0  0  0  0  0  0
    3.6663   12.7252   28.9548 C   0  0  0  0  0  0  0  0  0  0  0  0
    4.5834   13.1770   27.8141 C   0  0  1  0  0  0  0  0  0  0  0  0
    5.4111   14.2687   28.2092 O   0  0  0  0  0  0  0  0  0  0  0  0
    5.4117   12.0195   27.1997 C   0  0  0  0  0  0  0  0  0  0  0  0
    5.2193   10.8817   27.3904 O   0  0  0  0  0  0  0  0  0  0  0  0
    6.4773   12.7285   26.3079 N   0  0  0  0  0  0  0  0  0  0  0  0
    7.4248   12.1954   25.4291 C   0  0  0  0  0  0  0  0  0  0  0  0
    7.4849   10.8178   25.2202 C   0  0  0  0  0  0  0  0  0  0  0  0
    8.4283   10.2802   24.3505 C   0  0  0  0  0  0  0  0  0  0  0  0
    9.3358   11.1073   23.7170 C   0  0  0  0  0  0  0  0  0  0  0  0
   10.2461   10.5527   22.9110 F   0  0  0  0  0  0  0  0  0  0  0  0
    9.3415   12.4815   23.9506 C   0  0  0  0  0  0  0  0  0  0  0  0
   10.4318   13.2010   23.4277 N   0  0  0  0  0  0  0  0  0  0  0  0
   11.3489   13.8916   24.1660 C   0  0  0  0  0  0  0  0  0  0  0  0
   11.4141   14.0036   25.3836 O   0  0  0  0  0  0  0  0  0  0  0  0
   12.2917   14.5892   23.2055 C   0  0  0  0  0  0  0  0  0  0  0  0
   11.6710   14.3323   21.9621 N   0  0  0  0  0  0  0  0  0  0  0  0
   10.4645   13.7195   22.1716 C   0  0  0  0  0  0  0  0  0  0  0  0
    9.5501   13.8249   21.3772 O   0  0  0  0  0  0  0  0  0  0  0  0
    8.3318   13.0482   24.7601 C   0  0  0  0  0  0  0  0  0  0  0  0
    8.2151   14.5381   24.8912 C   0  0  0  0  0  0  0  0  0  0  0  0
  1  2  1  0
  2  3  1  0
  3  4  1  1
  3  5  1  0
  5  6  2  0
  5  7  1  0
  7  8  1  0
  8  9  2  0
  9 10  1  0
 10 11  2  0
 11 12  1  0
 11 13  1  0
 13 14  1  0
 14 15  1  0
 15 16  2  0
 15 17  1  0
 17 18  1  0
 18 19  1  0
 19 20  2  0
 13 21  2  0
 21 22  1  0
 21  8  1  0
 19 14  1  0
M  END
>  <alias>  (809) 
None

>  <rmsd(smina/fragmenstein)>  (809) 
0.721

>  <smiles>  (809) 
CC[C@@H](O)C(=O)Nc1ccc(F)c(N2C(=O)CNC2=O)c1C

>  <gnina_score>  (809) 
5.359

>  <inspiration_score>  (809) 
None

>  <energy_score>  (809) 
-33.219382

>  <distance_score>  (809) 
1.56411

>  <gnina_score_min>  (809) 
5.38

>  <inchikey>  (809) 
LAARVOXTLPXEIM-SNVBAGLBSA-N

>  <exports>  (809) 
['/opt/xchem-fragalysis-2/maxwin/BulkDock/OUTPUTS/openbind_a71ev2a_c2_elabs_1LOUU54.sdf', '/opt/xchem-fragalysis-2/maxwin/BulkDock/OUTPUTS/openbind_a71ev2a_c2_elabs_1LSYIDY.sdf']

>  <name>  (809) 
P546620

>  <ref_pdb>  (809) 
A0884a

>  <subsites>  (809) 
None

>  <HIPPO Pose ID>  (809) 
546620

>  <ref_mols>  (809) 
A0884a

>  <HIPPO Compound ID>  (809) 
385194

>  <tags>  (809) 
openbind_a71ev2a_c2_elabs,syndirella_product,openbind_a71ev2a_c2_elabs_fragonly_scored_top80percent,openbind_a71ev2a_c2_elabs_scored,BulkDock Fragalysis export,openbind_a71ev2a_c2_elabs_scored_top80percent,openbind_a71ev2a_c2_elabs_activefrags_only_scored_5.2plus,syndirella_placed

>  <smina_score_min>  (809) 
-6.253

$$$$
P546622
     RDKit          3D

 22 23  0  0  0  0  0  0  0  0999 V2000
    2.6574   14.8880   27.8719 C   0  0  0  0  0  0  0  0  0  0  0  0
    2.6007   14.4809   26.4071 C   0  0  0  0  0  0  0  0  0  0  0  0
    3.9237   14.6968   25.6725 C   0  0  2  0  0  0  0  0  0  0  0  0
    3.6683   14.6994   24.2611 O   0  0  0  0  0  0  0  0  0  0  0  0
    4.9975   13.6274   26.0114 C   0  0  0  0  0  0  0  0  0  0  0  0
    4.9794   12.9183   26.9432 O   0  0  0  0  0  0  0  0  0  0  0  0
    5.9842   13.6825   24.7997 N   0  0  0  0  0  0  0  0  0  0  0  0
    7.1597   12.9625   24.5509 C   0  0  0  0  0  0  0  0  0  0  0  0
    8.0447   13.5988   23.6674 C   0  0  0  0  0  0  0  0  0  0  0  0
    9.2543   13.0158   23.2885 C   0  0  0  0  0  0  0  0  0  0  0  0
   10.1868   13.7286   22.4881 N   0  0  0  0  0  0  0  0  0  0  0  0
    9.6943   14.6494   21.4698 C   0  0  0  0  0  0  0  0  0  0  0  0
   10.6864   14.9310   20.3653 C   0  0  0  0  0  0  0  0  0  0  0  0
   12.0770   14.5719   20.7737 C   0  0  0  0  0  0  0  0  0  0  0  0
   12.9375   14.2790   19.9491 O   0  0  0  0  0  0  0  0  0  0  0  0
   12.3184   14.5946   22.1129 N   0  0  0  0  0  0  0  0  0  0  0  0
   11.4982   13.8758   22.9391 C   0  0  0  0  0  0  0  0  0  0  0  0
   11.9437   13.4148   23.9897 O   0  0  0  0  0  0  0  0  0  0  0  0
    9.5273   11.7167   23.6990 C   0  0  0  0  0  0  0  0  0  0  0  0
    8.6294   11.0463   24.5260 C   0  0  0  0  0  0  0  0  0  0  0  0
    7.4619   11.6720   25.0047 C   0  0  0  0  0  0  0  0  0  0  0  0
    6.6114   10.8919   25.9536 C   0  0  0  0  0  0  0  0  0  0  0  0
  1  2  1  0
  2  3  1  0
  3  4  1  6
  3  5  1  0
  5  6  2  0
  5  7  1  0
  7  8  1  0
  8  9  2  0
  9 10  1  0
 10 11  1  0
 11 12  1  0
 12 13  1  0
 13 14  1  0
 14 15  2  0
 14 16  1  0
 16 17  1  0
 17 18  2  0
 10 19  2  0
 19 20  1  0
 20 21  2  0
 21 22  1  0
 21  8  1  0
 17 11  1  0
M  END
>  <alias>  (810) 
None

>  <rmsd(smina/fragmenstein)>  (810) 
0.667

>  <smiles>  (810) 
CC[C@H](O)C(=O)Nc1cc(N2CCC(=O)NC2=O)ccc1C

>  <gnina_score>  (810) 
5.299

>  <inspiration_score>  (810) 
None

>  <energy_score>  (810) 
-38.133236

>  <distance_score>  (810) 
1.666609

>  <gnina_score_min>  (810) 
5.235

>  <inchikey>  (810) 
IKIZKXGNNNVKAF-LBPRGKRZSA-N

>  <exports>  (810) 
['/opt/xchem-fragalysis-2/maxwin/BulkDock/OUTPUTS/openbind_a71ev2a_c2_elabs_1LOUU54.sdf', '/opt/xchem-fragalysis-2/maxwin/BulkDock/OUTPUTS/openbind_a71ev2a_c2_elabs_1LSYIDY.sdf']

>  <name>  (810) 
P546622

>  <ref_pdb>  (810) 
A0884a

>  <subsites>  (810) 
None

>  <HIPPO Pose ID>  (810) 
546622

>  <ref_mols>  (810) 
A0884a

>  <HIPPO Compound ID>  (810) 
385195

>  <tags>  (810) 
openbind_a71ev2a_c2_elabs,syndirella_product,openbind_a71ev2a_c2_elabs_fragonly_scored_top80percent,openbind_a71ev2a_c2_elabs_scored,BulkDock Fragalysis export,openbind_a71ev2a_c2_elabs_scored_top80percent,openbind_a71ev2a_c2_elabs_activefrags_only_scored_5.2plus,syndirella_placed

>  <smina_score_min>  (810) 
-7.073

$$$$
P546623
     RDKit          3D

 22 23  0  0  0  0  0  0  0  0999 V2000
    2.6510   15.5929   26.7082 C   0  0  0  0  0  0  0  0  0  0  0  0
    3.4557   14.4269   26.1483 C   0  0  0  0  0  0  0  0  0  0  0  0
    4.3685   13.7978   27.2037 C   0  0  1  0  0  0  0  0  0  0  0  0
    3.5442   13.2318   28.2278 O   0  0  0  0  0  0  0  0  0  0  0  0
    5.2872   12.6980   26.6071 C   0  0  0  0  0  0  0  0  0  0  0  0
    5.1610   11.5682   26.8925 O   0  0  0  0  0  0  0  0  0  0  0  0
    6.3042   13.3906   25.6489 N   0  0  0  0  0  0  0  0  0  0  0  0
    7.3872   12.8672   24.9507 C   0  0  0  0  0  0  0  0  0  0  0  0
    7.6541   11.5002   24.9172 C   0  0  0  0  0  0  0  0  0  0  0  0
    8.7398   11.0429   24.1750 C   0  0  0  0  0  0  0  0  0  0  0  0
    9.0292    9.3901   23.9581 Cl  0  0  0  0  0  0  0  0  0  0  0  0
    9.5964   11.9143   23.5313 C   0  0  0  0  0  0  0  0  0  0  0  0
    9.3329   13.2744   23.5763 C   0  0  0  0  0  0  0  0  0  0  0  0
   10.1778   14.1646   22.8732 N   0  0  0  0  0  0  0  0  0  0  0  0
    9.6650   14.5785   21.5666 C   0  0  0  0  0  0  0  0  0  0  0  0
   10.6434   15.3566   20.7347 C   0  0  0  0  0  0  0  0  0  0  0  0
   11.9972   14.7448   20.9124 C   0  0  0  0  0  0  0  0  0  0  0  0
   12.7011   14.3601   19.9856 O   0  0  0  0  0  0  0  0  0  0  0  0
   12.3745   14.6604   22.2208 N   0  0  0  0  0  0  0  0  0  0  0  0
   11.5388   14.1284   23.1567 C   0  0  0  0  0  0  0  0  0  0  0  0
   12.0009   13.6318   24.1854 O   0  0  0  0  0  0  0  0  0  0  0  0
    8.2102   13.7520   24.2515 C   0  0  0  0  0  0  0  0  0  0  0  0
  1  2  1  0
  2  3  1  0
  3  4  1  1
  3  5  1  0
  5  6  2  0
  5  7  1  0
  7  8  1  0
  8  9  2  0
  9 10  1  0
 10 11  1  0
 10 12  2  0
 12 13  1  0
 13 14  1  0
 14 15  1  0
 15 16  1  0
 16 17  1  0
 17 18  2  0
 17 19  1  0
 19 20  1  0
 20 21  2  0
 13 22  2  0
 22  8  1  0
 20 14  1  0
M  END
>  <alias>  (811) 
None

>  <rmsd(smina/fragmenstein)>  (811) 
0.857

>  <smiles>  (811) 
CC[C@@H](O)C(=O)Nc1cc(Cl)cc(N2CCC(=O)NC2=O)c1

>  <gnina_score>  (811) 
5.231

>  <inspiration_score>  (811) 
None

>  <energy_score>  (811) 
-29.714066

>  <distance_score>  (811) 
1.368221

>  <gnina_score_min>  (811) 
5.338

>  <inchikey>  (811) 
DPQJDJHGZXAVMR-LLVKDONJSA-N

>  <exports>  (811) 
['/opt/xchem-fragalysis-2/maxwin/BulkDock/OUTPUTS/openbind_a71ev2a_c2_elabs_1LOUU54.sdf', '/opt/xchem-fragalysis-2/maxwin/BulkDock/OUTPUTS/openbind_a71ev2a_c2_elabs_1LSYIDY.sdf']

>  <name>  (811) 
P546623

>  <ref_pdb>  (811) 
A0884a

>  <subsites>  (811) 
None

>  <HIPPO Pose ID>  (811) 
546623

>  <ref_mols>  (811) 
A0884a

>  <HIPPO Compound ID>  (811) 
385196

>  <tags>  (811) 
openbind_a71ev2a_c2_elabs,syndirella_product,openbind_a71ev2a_c2_elabs_fragonly_scored_top80percent,openbind_a71ev2a_c2_elabs_scored,BulkDock Fragalysis export,openbind_a71ev2a_c2_elabs_scored_top80percent,openbind_a71ev2a_c2_elabs_activefrags_only_scored_5.2plus,syndirella_placed

>  <smina_score_min>  (811) 
-6.731

$$$$
P546624
     RDKit          3D

 22 23  0  0  0  0  0  0  0  0999 V2000
    2.4418   12.7945   28.1166 C   0  0  0  0  0  0  0  0  0  0  0  0
    3.6594   13.6872   28.3043 C   0  0  0  0  0  0  0  0  0  0  0  0
    4.4769   13.8744   27.0246 C   0  0  1  0  0  0  0  0  0  0  0  0
    5.3268   15.0153   27.1799 O   0  0  0  0  0  0  0  0  0  0  0  0
    5.3322   12.6360   26.6481 C   0  0  0  0  0  0  0  0  0  0  0  0
    5.1566   11.5534   27.0562 O   0  0  0  0  0  0  0  0  0  0  0  0
    6.3494   13.1648   25.5860 N   0  0  0  0  0  0  0  0  0  0  0  0
    7.3803   12.5049   24.9091 C   0  0  0  0  0  0  0  0  0  0  0  0
    8.1951   13.2943   24.0871 C   0  0  0  0  0  0  0  0  0  0  0  0
    9.2992   12.7394   23.4313 C   0  0  0  0  0  0  0  0  0  0  0  0
   10.1701   13.5436   22.6546 N   0  0  0  0  0  0  0  0  0  0  0  0
    9.5995   14.4804   21.6987 C   0  0  0  0  0  0  0  0  0  0  0  0
   10.5687   14.9360   20.6287 C   0  0  0  0  0  0  0  0  0  0  0  0
   11.9857   14.6083   20.9809 C   0  0  0  0  0  0  0  0  0  0  0  0
   12.8460   14.4254   20.1241 O   0  0  0  0  0  0  0  0  0  0  0  0
   12.2494   14.5452   22.3149 N   0  0  0  0  0  0  0  0  0  0  0  0
   11.4677   13.7581   23.1142 C   0  0  0  0  0  0  0  0  0  0  0  0
   11.9299   13.2773   24.1476 O   0  0  0  0  0  0  0  0  0  0  0  0
    9.5510   11.3710   23.5384 C   0  0  0  0  0  0  0  0  0  0  0  0
    8.7105   10.5678   24.3015 C   0  0  0  0  0  0  0  0  0  0  0  0
    7.6510   11.1381   25.0035 C   0  0  0  0  0  0  0  0  0  0  0  0
    6.9003   10.3217   25.7482 F   0  0  0  0  0  0  0  0  0  0  0  0
  1  2  1  0
  2  3  1  0
  3  4  1  1
  3  5  1  0
  5  6  2  0
  5  7  1  0
  7  8  1  0
  8  9  2  0
  9 10  1  0
 10 11  1  0
 11 12  1  0
 12 13  1  0
 13 14  1  0
 14 15  2  0
 14 16  1  0
 16 17  1  0
 17 18  2  0
 10 19  2  0
 19 20  1  0
 20 21  2  0
 21 22  1  0
 21  8  1  0
 17 11  1  0
M  END
>  <alias>  (812) 
None

>  <rmsd(smina/fragmenstein)>  (812) 
0.796

>  <smiles>  (812) 
CC[C@@H](O)C(=O)Nc1cc(N2CCC(=O)NC2=O)ccc1F

>  <gnina_score>  (812) 
5.29

>  <inspiration_score>  (812) 
None

>  <energy_score>  (812) 
-37.537415

>  <distance_score>  (812) 
1.197719

>  <gnina_score_min>  (812) 
5.271

>  <inchikey>  (812) 
HTRHOALBFOHQPX-LLVKDONJSA-N

>  <exports>  (812) 
['/opt/xchem-fragalysis-2/maxwin/BulkDock/OUTPUTS/openbind_a71ev2a_c2_elabs_1LOUU54.sdf', '/opt/xchem-fragalysis-2/maxwin/BulkDock/OUTPUTS/openbind_a71ev2a_c2_elabs_1LSYIDY.sdf']

>  <name>  (812) 
P546624

>  <ref_pdb>  (812) 
A0884a

>  <subsites>  (812) 
None

>  <HIPPO Pose ID>  (812) 
546624

>  <ref_mols>  (812) 
A0884a

>  <HIPPO Compound ID>  (812) 
385197

>  <tags>  (812) 
openbind_a71ev2a_c2_elabs,syndirella_product,openbind_a71ev2a_c2_elabs_fragonly_scored_top80percent,openbind_a71ev2a_c2_elabs_scored,BulkDock Fragalysis export,openbind_a71ev2a_c2_elabs_scored_top80percent,openbind_a71ev2a_c2_elabs_activefrags_only_scored_5.2plus,syndirella_placed

>  <smina_score_min>  (812) 
-6.857

$$$$
P546626
     RDKit          3D

 22 23  0  0  0  0  0  0  0  0999 V2000
    2.6063   15.5123   28.7057 C   0  0  0  0  0  0  0  0  0  0  0  0
    3.3612   14.2279   28.3933 C   0  0  0  0  0  0  0  0  0  0  0  0
    4.3951   14.4163   27.2809 C   0  0  1  0  0  0  0  0  0  0  0  0
    5.3597   15.3989   27.6544 O   0  0  0  0  0  0  0  0  0  0  0  0
    5.0905   13.0803   26.9128 C   0  0  0  0  0  0  0  0  0  0  0  0
    4.7128   12.0201   27.2368 O   0  0  0  0  0  0  0  0  0  0  0  0
    6.3107   13.4934   26.0282 N   0  0  0  0  0  0  0  0  0  0  0  0
    7.2169   12.7114   25.3166 C   0  0  0  0  0  0  0  0  0  0  0  0
    7.2151   11.3264   25.4148 C   0  0  0  0  0  0  0  0  0  0  0  0
    8.1323   10.5824   24.6800 C   0  0  0  0  0  0  0  0  0  0  0  0
    9.0594   11.2039   23.8305 C   0  0  0  0  0  0  0  0  0  0  0  0
    9.9489   10.2938   23.0477 C   0  0  0  0  0  0  0  0  0  0  0  0
    9.0819   12.6077   23.7436 C   0  0  0  0  0  0  0  0  0  0  0  0
   10.0078   13.2980   22.8938 N   0  0  0  0  0  0  0  0  0  0  0  0
    9.4586   14.2907   21.9788 C   0  0  0  0  0  0  0  0  0  0  0  0
   10.4210   14.7770   20.9167 C   0  0  0  0  0  0  0  0  0  0  0  0
   11.8515   14.5446   21.2829 C   0  0  0  0  0  0  0  0  0  0  0  0
   12.7491   14.5675   20.4438 O   0  0  0  0  0  0  0  0  0  0  0  0
   12.0950   14.3247   22.6041 N   0  0  0  0  0  0  0  0  0  0  0  0
   11.2898   13.5433   23.3908 C   0  0  0  0  0  0  0  0  0  0  0  0
   11.7298   13.1061   24.4515 O   0  0  0  0  0  0  0  0  0  0  0  0
    8.1470   13.3464   24.4875 C   0  0  0  0  0  0  0  0  0  0  0  0
  1  2  1  0
  2  3  1  0
  3  4  1  1
  3  5  1  0
  5  6  2  0
  5  7  1  0
  7  8  1  0
  8  9  2  0
  9 10  1  0
 10 11  2  0
 11 12  1  0
 11 13  1  0
 13 14  1  0
 14 15  1  0
 15 16  1  0
 16 17  1  0
 17 18  2  0
 17 19  1  0
 19 20  1  0
 20 21  2  0
 13 22  2  0
 22  8  1  0
 20 14  1  0
M  END
>  <alias>  (813) 
None

>  <rmsd(smina/fragmenstein)>  (813) 
1.383

>  <smiles>  (813) 
CC[C@@H](O)C(=O)Nc1ccc(C)c(N2CCC(=O)NC2=O)c1

>  <gnina_score>  (813) 
5.264

>  <inspiration_score>  (813) 
None

>  <energy_score>  (813) 
-36.884002

>  <distance_score>  (813) 
1.366186

>  <gnina_score_min>  (813) 
5.242

>  <inchikey>  (813) 
OBQOMFRLTDVOMZ-GFCCVEGCSA-N

>  <exports>  (813) 
['/opt/xchem-fragalysis-2/maxwin/BulkDock/OUTPUTS/openbind_a71ev2a_c2_elabs_1LOUU54.sdf', '/opt/xchem-fragalysis-2/maxwin/BulkDock/OUTPUTS/openbind_a71ev2a_c2_elabs_1LSYIDY.sdf']

>  <name>  (813) 
P546626

>  <ref_pdb>  (813) 
A0884a

>  <subsites>  (813) 
None

>  <HIPPO Pose ID>  (813) 
546626

>  <ref_mols>  (813) 
A0884a

>  <HIPPO Compound ID>  (813) 
385198

>  <tags>  (813) 
openbind_a71ev2a_c2_elabs,syndirella_product,openbind_a71ev2a_c2_elabs_fragonly_scored_top80percent,openbind_a71ev2a_c2_elabs_scored,BulkDock Fragalysis export,openbind_a71ev2a_c2_elabs_scored_top80percent,openbind_a71ev2a_c2_elabs_activefrags_only_scored_5.2plus,syndirella_placed

>  <smina_score_min>  (813) 
-6.836

$$$$
P546629
     RDKit          3D

 22 23  0  0  0  0  0  0  0  0999 V2000
    4.9108   14.3221   29.7557 C   0  0  0  0  0  0  0  0  0  0  0  0
    5.0674   15.1230   28.4726 C   0  0  0  0  0  0  0  0  0  0  0  0
    4.3407   14.4981   27.2810 C   0  0  1  0  0  0  0  0  0  0  0  0
    4.3814   15.4470   26.2129 O   0  0  0  0  0  0  0  0  0  0  0  0
    5.0105   13.1691   26.8571 C   0  0  0  0  0  0  0  0  0  0  0  0
    4.7122   12.1224   27.2893 O   0  0  0  0  0  0  0  0  0  0  0  0
    6.1151   13.5596   25.8257 N   0  0  0  0  0  0  0  0  0  0  0  0
    7.0967   12.7837   25.2161 C   0  0  0  0  0  0  0  0  0  0  0  0
    7.1424   11.4055   25.3960 C   0  0  0  0  0  0  0  0  0  0  0  0
    8.1033   10.6553   24.7283 C   0  0  0  0  0  0  0  0  0  0  0  0
    9.0305   11.2764   23.8904 C   0  0  0  0  0  0  0  0  0  0  0  0
   10.0365   10.2199   23.0012 Cl  0  0  0  0  0  0  0  0  0  0  0  0
    9.0199   12.6702   23.7143 C   0  0  0  0  0  0  0  0  0  0  0  0
    9.9620   13.3453   22.8650 N   0  0  0  0  0  0  0  0  0  0  0  0
    9.4448   14.3293   21.9241 C   0  0  0  0  0  0  0  0  0  0  0  0
   10.4314   14.7924   20.8745 C   0  0  0  0  0  0  0  0  0  0  0  0
   11.8540   14.5435   21.2582 C   0  0  0  0  0  0  0  0  0  0  0  0
   12.7614   14.5763   20.4299 O   0  0  0  0  0  0  0  0  0  0  0  0
   12.0828   14.3002   22.5777 N   0  0  0  0  0  0  0  0  0  0  0  0
   11.2479   13.5528   23.3649 C   0  0  0  0  0  0  0  0  0  0  0  0
   11.6563   13.1250   24.4425 O   0  0  0  0  0  0  0  0  0  0  0  0
    8.0314   13.4110   24.3826 C   0  0  0  0  0  0  0  0  0  0  0  0
  1  2  1  0
  2  3  1  0
  3  4  1  6
  3  5  1  0
  5  6  2  0
  5  7  1  0
  7  8  1  0
  8  9  2  0
  9 10  1  0
 10 11  2  0
 11 12  1  0
 11 13  1  0
 13 14  1  0
 14 15  1  0
 15 16  1  0
 16 17  1  0
 17 18  2  0
 17 19  1  0
 19 20  1  0
 20 21  2  0
 13 22  2  0
 22  8  1  0
 20 14  1  0
M  END
>  <alias>  (814) 
None

>  <rmsd(smina/fragmenstein)>  (814) 
1.089

>  <smiles>  (814) 
CC[C@@H](O)C(=O)Nc1ccc(Cl)c(N2CCC(=O)NC2=O)c1

>  <gnina_score>  (814) 
5.47

>  <inspiration_score>  (814) 
None

>  <energy_score>  (814) 
-55.337714

>  <distance_score>  (814) 
1.430254

>  <gnina_score_min>  (814) 
5.472

>  <inchikey>  (814) 
BBGXIRPMJXQUNX-LLVKDONJSA-N

>  <exports>  (814) 
['/opt/xchem-fragalysis-2/maxwin/BulkDock/OUTPUTS/openbind_a71ev2a_c2_elabs_1LOUU54.sdf', '/opt/xchem-fragalysis-2/maxwin/BulkDock/OUTPUTS/openbind_a71ev2a_c2_elabs_1LSYIDY.sdf']

>  <name>  (814) 
P546629

>  <ref_pdb>  (814) 
A0884a

>  <subsites>  (814) 
None

>  <HIPPO Pose ID>  (814) 
546629

>  <ref_mols>  (814) 
A0884a

>  <HIPPO Compound ID>  (814) 
385200

>  <tags>  (814) 
openbind_a71ev2a_c2_elabs,syndirella_product,openbind_a71ev2a_c2_elabs_fragonly_scored_top80percent,openbind_a71ev2a_c2_elabs_scored,BulkDock Fragalysis export,openbind_a71ev2a_c2_elabs_scored_top80percent,openbind_a71ev2a_c2_elabs_activefrags_only_scored_5.2plus,syndirella_placed

>  <smina_score_min>  (814) 
-6.452

$$$$
P546631
     RDKit          3D

 22 23  0  0  0  0  0  0  0  0999 V2000
    2.8636   13.0937   29.0568 C   0  0  0  0  0  0  0  0  0  0  0  0
    3.9873   12.2128   28.5291 C   0  0  0  0  0  0  0  0  0  0  0  0
    4.7294   12.8587   27.3569 C   0  0  1  0  0  0  0  0  0  0  0  0
    5.3272   14.0894   27.7593 O   0  0  0  0  0  0  0  0  0  0  0  0
    5.7819   11.8974   26.7454 C   0  0  0  0  0  0  0  0  0  0  0  0
    5.8145   10.7429   26.9265 O   0  0  0  0  0  0  0  0  0  0  0  0
    6.6834   12.8052   25.8565 N   0  0  0  0  0  0  0  0  0  0  0  0
    7.7061   12.4744   24.9728 C   0  0  0  0  0  0  0  0  0  0  0  0
    8.0945   11.1504   24.7407 C   0  0  0  0  0  0  0  0  0  0  0  0
    9.1483   10.9048   23.8653 C   0  0  0  0  0  0  0  0  0  0  0  0
    9.7555    9.2088   23.3910 Br  0  0  0  0  0  0  0  0  0  0  0  0
    9.8306   11.9410   23.2663 C   0  0  0  0  0  0  0  0  0  0  0  0
    9.4454   13.2496   23.4996 C   0  0  0  0  0  0  0  0  0  0  0  0
   10.1698   14.2761   22.8467 N   0  0  0  0  0  0  0  0  0  0  0  0
    9.6377   14.6148   21.5215 C   0  0  0  0  0  0  0  0  0  0  0  0
   10.5771   15.4093   20.6600 C   0  0  0  0  0  0  0  0  0  0  0  0
   11.9502   14.8406   20.8410 C   0  0  0  0  0  0  0  0  0  0  0  0
   12.6593   14.4371   19.9259 O   0  0  0  0  0  0  0  0  0  0  0  0
   12.3487   14.8194   22.1462 N   0  0  0  0  0  0  0  0  0  0  0  0
   11.5373   14.3122   23.1155 C   0  0  0  0  0  0  0  0  0  0  0  0
   12.0280   13.8801   24.1608 O   0  0  0  0  0  0  0  0  0  0  0  0
    8.3630   13.5266   24.3246 C   0  0  0  0  0  0  0  0  0  0  0  0
  1  2  1  0
  2  3  1  0
  3  4  1  1
  3  5  1  0
  5  6  2  0
  5  7  1  0
  7  8  1  0
  8  9  2  0
  9 10  1  0
 10 11  1  0
 10 12  2  0
 12 13  1  0
 13 14  1  0
 14 15  1  0
 15 16  1  0
 16 17  1  0
 17 18  2  0
 17 19  1  0
 19 20  1  0
 20 21  2  0
 13 22  2  0
 22  8  1  0
 20 14  1  0
M  END
>  <alias>  (815) 
None

>  <rmsd(smina/fragmenstein)>  (815) 
0.284

>  <smiles>  (815) 
CC[C@@H](O)C(=O)Nc1cc(Br)cc(N2CCC(=O)NC2=O)c1

>  <gnina_score>  (815) 
5.465

>  <inspiration_score>  (815) 
None

>  <energy_score>  (815) 
-34.691416

>  <distance_score>  (815) 
1.260931

>  <gnina_score_min>  (815) 
5.477

>  <inchikey>  (815) 
QMTCAVIEXVDGMC-LLVKDONJSA-N

>  <exports>  (815) 
['/opt/xchem-fragalysis-2/maxwin/BulkDock/OUTPUTS/openbind_a71ev2a_c2_elabs_1LOUU54.sdf', '/opt/xchem-fragalysis-2/maxwin/BulkDock/OUTPUTS/openbind_a71ev2a_c2_elabs_1LSYIDY.sdf']

>  <name>  (815) 
P546631

>  <ref_pdb>  (815) 
A0884a

>  <subsites>  (815) 
None

>  <HIPPO Pose ID>  (815) 
546631

>  <ref_mols>  (815) 
A0884a

>  <HIPPO Compound ID>  (815) 
385201

>  <tags>  (815) 
openbind_a71ev2a_c2_elabs,syndirella_product,openbind_a71ev2a_c2_elabs_fragonly_scored_top80percent,openbind_a71ev2a_c2_elabs_scored,BulkDock Fragalysis export,openbind_a71ev2a_c2_elabs_scored_top80percent,openbind_a71ev2a_c2_elabs_activefrags_only_scored_5.2plus,syndirella_placed

>  <smina_score_min>  (815) 
-6.365

$$$$
P546633
     RDKit          3D

 22 23  0  0  0  0  0  0  0  0999 V2000
    2.6507   12.8898   28.0488 C   0  0  0  0  0  0  0  0  0  0  0  0
    3.9152   13.3207   28.7766 C   0  0  0  0  0  0  0  0  0  0  0  0
    5.0583   13.7625   27.8604 C   0  0  2  0  0  0  0  0  0  0  0  0
    4.6675   14.8438   27.0210 O   0  0  0  0  0  0  0  0  0  0  0  0
    5.7182   12.6074   27.0606 C   0  0  0  0  0  0  0  0  0  0  0  0
    5.5801   11.4666   27.2824 O   0  0  0  0  0  0  0  0  0  0  0  0
    6.6180   13.3321   26.0092 N   0  0  0  0  0  0  0  0  0  0  0  0
    7.5605   12.8211   25.1215 C   0  0  0  0  0  0  0  0  0  0  0  0
    7.7872   11.4527   24.9772 C   0  0  0  0  0  0  0  0  0  0  0  0
    8.8061   11.0000   24.1277 C   0  0  0  0  0  0  0  0  0  0  0  0
    9.0631    9.5589   23.8894 C   0  0  0  0  0  0  0  0  0  0  0  0
    9.6050   11.9114   23.4505 C   0  0  0  0  0  0  0  0  0  0  0  0
    9.3661   13.2724   23.5843 C   0  0  0  0  0  0  0  0  0  0  0  0
   10.1773   14.1878   22.8723 N   0  0  0  0  0  0  0  0  0  0  0  0
    9.6546   14.5530   21.5545 C   0  0  0  0  0  0  0  0  0  0  0  0
   10.6061   15.3550   20.7120 C   0  0  0  0  0  0  0  0  0  0  0  0
   11.9745   14.7728   20.8814 C   0  0  0  0  0  0  0  0  0  0  0  0
   12.6912   14.4151   19.9528 O   0  0  0  0  0  0  0  0  0  0  0  0
   12.3635   14.6890   22.1875 N   0  0  0  0  0  0  0  0  0  0  0  0
   11.5400   14.1710   23.1432 C   0  0  0  0  0  0  0  0  0  0  0  0
   12.0227   13.7139   24.1808 O   0  0  0  0  0  0  0  0  0  0  0  0
    8.3272   13.7305   24.3907 C   0  0  0  0  0  0  0  0  0  0  0  0
  1  2  1  0
  2  3  1  0
  3  4  1  6
  3  5  1  0
  5  6  2  0
  5  7  1  0
  7  8  1  0
  8  9  2  0
  9 10  1  0
 10 11  1  0
 10 12  2  0
 12 13  1  0
 13 14  1  0
 14 15  1  0
 15 16  1  0
 16 17  1  0
 17 18  2  0
 17 19  1  0
 19 20  1  0
 20 21  2  0
 13 22  2  0
 22  8  1  0
 20 14  1  0
M  END
>  <alias>  (816) 
None

>  <rmsd(smina/fragmenstein)>  (816) 
0.635

>  <smiles>  (816) 
CC[C@H](O)C(=O)Nc1cc(C)cc(N2CCC(=O)NC2=O)c1

>  <gnina_score>  (816) 
5.214

>  <inspiration_score>  (816) 
None

>  <energy_score>  (816) 
-40.350284

>  <distance_score>  (816) 
1.307397

>  <gnina_score_min>  (816) 
5.392

>  <inchikey>  (816) 
LYEMJYXESYLBAA-LBPRGKRZSA-N

>  <exports>  (816) 
['/opt/xchem-fragalysis-2/maxwin/BulkDock/OUTPUTS/openbind_a71ev2a_c2_elabs_1LOUU54.sdf', '/opt/xchem-fragalysis-2/maxwin/BulkDock/OUTPUTS/openbind_a71ev2a_c2_elabs_1LSYIDY.sdf']

>  <name>  (816) 
P546633

>  <ref_pdb>  (816) 
A0884a

>  <subsites>  (816) 
None

>  <HIPPO Pose ID>  (816) 
546633

>  <ref_mols>  (816) 
A0884a

>  <HIPPO Compound ID>  (816) 
385202

>  <tags>  (816) 
openbind_a71ev2a_c2_elabs,syndirella_product,openbind_a71ev2a_c2_elabs_fragonly_scored_top80percent,openbind_a71ev2a_c2_elabs_scored,BulkDock Fragalysis export,openbind_a71ev2a_c2_elabs_scored_top80percent,openbind_a71ev2a_c2_elabs_activefrags_only_scored_5.2plus,syndirella_placed

>  <smina_score_min>  (816) 
-6.564

$$$$
P546634
     RDKit          3D

 22 24  0  0  0  0  0  0  0  0999 V2000
    9.7816   16.4449   20.7078 C   0  0  0  0  0  0  0  0  0  0  0  0
   10.5855   15.1872   21.0152 C   0  0  0  0  0  0  0  0  0  0  0  0
   11.3681   14.7091   19.7991 C   0  0  0  0  0  0  0  0  0  0  0  0
   11.4901   15.3041   22.1376 N   0  0  0  0  0  0  0  0  0  0  0  0
   11.2486   14.3371   23.0966 C   0  0  0  0  0  0  0  0  0  0  0  0
   11.7599   14.3524   24.2078 O   0  0  0  0  0  0  0  0  0  0  0  0
   10.2929   13.4760   22.6313 N   0  0  0  0  0  0  0  0  0  0  0  0
    9.5426   12.6683   23.5107 C   0  0  0  0  0  0  0  0  0  0  0  0
    9.5530   11.2854   23.3366 C   0  0  0  0  0  0  0  0  0  0  0  0
    8.7073   10.4834   24.0984 C   0  0  0  0  0  0  0  0  0  0  0  0
    7.8286   11.0623   25.0150 C   0  0  0  0  0  0  0  0  0  0  0  0
    7.8395   12.4435   25.2147 C   0  0  0  0  0  0  0  0  0  0  0  0
    6.9600   12.9939   26.1427 N   0  0  0  0  0  0  0  0  0  0  0  0
    6.8298   14.3411   26.6393 C   0  0  0  0  0  0  0  0  0  0  0  0
    7.4989   15.3194   26.4387 O   0  0  0  0  0  0  0  0  0  0  0  0
    5.5789   14.4205   27.5703 C   0  0  0  0  0  0  0  0  0  0  0  0
    4.1834   14.1614   26.9312 C   0  0  0  0  0  0  0  0  0  0  0  0
    3.6176   15.2267   27.8872 C   0  0  0  0  0  0  0  0  0  0  0  0
    5.0325   15.8315   27.9351 C   0  0  0  0  0  0  0  0  0  0  0  0
    8.7090   13.2442   24.4751 C   0  0  0  0  0  0  0  0  0  0  0  0
    9.6551   14.1153   21.5888 C   0  0  0  0  0  0  0  0  0  0  0  0
    8.5062   13.9181   21.2016 O   0  0  0  0  0  0  0  0  0  0  0  0
  1  2  1  0
  2  3  1  0
  2  4  1  0
  4  5  1  0
  5  6  2  0
  5  7  1  0
  7  8  1  0
  8  9  2  0
  9 10  1  0
 10 11  2  0
 11 12  1  0
 12 13  1  0
 13 14  1  0
 14 15  2  0
 14 16  1  0
 16 17  1  0
 17 18  1  0
 18 19  1  0
 12 20  2  0
  7 21  1  0
 21 22  2  0
 21  2  1  0
 20  8  1  0
 19 16  1  0
M  END
>  <alias>  (817) 
None

>  <rmsd(smina/fragmenstein)>  (817) 
0.725

>  <smiles>  (817) 
CC1(C)NC(=O)N(c2cccc(NC(=O)C3CCC3)c2)C1=O

>  <gnina_score>  (817) 
5.263

>  <inspiration_score>  (817) 
None

>  <energy_score>  (817) 
-58.294752

>  <distance_score>  (817) 
1.56038

>  <gnina_score_min>  (817) 
5.429

>  <inchikey>  (817) 
UXCQYUAXIRRSSP-UHFFFAOYSA-N

>  <exports>  (817) 
['/opt/xchem-fragalysis-2/maxwin/BulkDock/OUTPUTS/openbind_a71ev2a_c2_elabs_1LOUU54.sdf', '/opt/xchem-fragalysis-2/maxwin/BulkDock/OUTPUTS/openbind_a71ev2a_c2_elabs_1LSYIDY.sdf']

>  <name>  (817) 
P546634

>  <ref_pdb>  (817) 
A0884a

>  <subsites>  (817) 
None

>  <HIPPO Pose ID>  (817) 
546634

>  <ref_mols>  (817) 
A0884a

>  <HIPPO Compound ID>  (817) 
385204

>  <tags>  (817) 
openbind_a71ev2a_c2_elabs,syndirella_product,openbind_a71ev2a_c2_elabs_fragonly_scored_top80percent,openbind_a71ev2a_c2_elabs_scored,BulkDock Fragalysis export,openbind_a71ev2a_c2_elabs_scored_top80percent,openbind_a71ev2a_c2_elabs_activefrags_only_scored_5.2plus,syndirella_placed

>  <smina_score_min>  (817) 
-7.091

$$$$
P546637
     RDKit          3D

 22 23  0  0  0  0  0  0  0  0999 V2000
    3.2876   13.9686   30.6202 C   0  0  0  0  0  0  0  0  0  0  0  0
    2.9405   13.9583   29.1413 C   0  0  0  0  0  0  0  0  0  0  0  0
    3.8860   13.1334   28.3780 C   0  0  0  0  0  0  0  0  0  0  0  0
    4.6632   12.4622   27.7529 C   0  0  0  0  0  0  0  0  0  0  0  0
    5.6060   11.6666   26.9879 C   0  0  0  0  0  0  0  0  0  0  0  0
    5.6491   10.5180   27.1744 O   0  0  0  0  0  0  0  0  0  0  0  0
    6.3821   12.5449   25.9930 N   0  0  0  0  0  0  0  0  0  0  0  0
    7.4159   12.2195   25.1058 C   0  0  0  0  0  0  0  0  0  0  0  0
    7.8112   10.8874   24.9521 C   0  0  0  0  0  0  0  0  0  0  0  0
    8.8750   10.5557   24.1186 C   0  0  0  0  0  0  0  0  0  0  0  0
    9.5841   11.5628   23.4755 C   0  0  0  0  0  0  0  0  0  0  0  0
    9.2107   12.9082   23.6154 C   0  0  0  0  0  0  0  0  0  0  0  0
   10.0237   13.9111   22.9869 N   0  0  0  0  0  0  0  0  0  0  0  0
    9.5877   14.3336   21.6527 C   0  0  0  0  0  0  0  0  0  0  0  0
   10.5254   15.2712   20.9392 C   0  0  0  0  0  0  0  0  0  0  0  0
   11.9117   14.7516   21.1356 C   0  0  0  0  0  0  0  0  0  0  0  0
   12.6942   14.5253   20.2181 O   0  0  0  0  0  0  0  0  0  0  0  0
   12.2288   14.5414   22.4473 N   0  0  0  0  0  0  0  0  0  0  0  0
   11.3732   13.9539   23.3375 C   0  0  0  0  0  0  0  0  0  0  0  0
   11.8212   13.4841   24.3849 O   0  0  0  0  0  0  0  0  0  0  0  0
    8.0757   13.2452   24.3855 C   0  0  0  0  0  0  0  0  0  0  0  0
    7.6392   14.6796   24.5312 C   0  0  0  0  0  0  0  0  0  0  0  0
  1  2  1  0
  2  3  1  0
  3  4  3  0
  4  5  1  0
  5  6  2  0
  5  7  1  0
  7  8  1  0
  8  9  2  0
  9 10  1  0
 10 11  2  0
 11 12  1  0
 12 13  1  0
 13 14  1  0
 14 15  1  0
 15 16  1  0
 16 17  2  0
 16 18  1  0
 18 19  1  0
 19 20  2  0
 12 21  2  0
 21 22  1  0
 21  8  1  0
 19 13  1  0
M  END
>  <alias>  (818) 
None

>  <rmsd(smina/fragmenstein)>  (818) 
0.217

>  <smiles>  (818) 
CCC#CC(=O)Nc1cccc(N2CCC(=O)NC2=O)c1C

>  <gnina_score>  (818) 
5.35

>  <inspiration_score>  (818) 
None

>  <energy_score>  (818) 
-35.268738

>  <distance_score>  (818) 
1.165214

>  <gnina_score_min>  (818) 
5.332

>  <inchikey>  (818) 
TYKDYOSRXFTLDG-UHFFFAOYSA-N

>  <exports>  (818) 
['/opt/xchem-fragalysis-2/maxwin/BulkDock/OUTPUTS/openbind_a71ev2a_c2_elabs_1LOUU54.sdf', '/opt/xchem-fragalysis-2/maxwin/BulkDock/OUTPUTS/openbind_a71ev2a_c2_elabs_1LSYIDY.sdf']

>  <name>  (818) 
P546637

>  <ref_pdb>  (818) 
A0884a

>  <subsites>  (818) 
None

>  <HIPPO Pose ID>  (818) 
546637

>  <ref_mols>  (818) 
A0884a

>  <HIPPO Compound ID>  (818) 
385208

>  <tags>  (818) 
openbind_a71ev2a_c2_elabs,syndirella_product,openbind_a71ev2a_c2_elabs_fragonly_scored_top80percent,openbind_a71ev2a_c2_elabs_scored,BulkDock Fragalysis export,openbind_a71ev2a_c2_elabs_scored_top80percent,openbind_a71ev2a_c2_elabs_activefrags_only_scored_5.2plus,syndirella_placed

>  <smina_score_min>  (818) 
-6.764

$$$$
P546638
     RDKit          3D

 22 23  0  0  0  0  0  0  0  0999 V2000
    3.0712   18.4516   25.8232 C   0  0  0  0  0  0  0  0  0  0  0  0
    2.3587   17.1957   26.2959 C   0  0  0  0  0  0  0  0  0  0  0  0
    3.2173   16.0130   26.1576 C   0  0  0  0  0  0  0  0  0  0  0  0
    3.9272   15.0500   26.0407 C   0  0  0  0  0  0  0  0  0  0  0  0
    4.8071   13.9043   25.8821 C   0  0  0  0  0  0  0  0  0  0  0  0
    4.5419   12.9197   26.5064 O   0  0  0  0  0  0  0  0  0  0  0  0
    5.8592   14.1660   24.9497 N   0  0  0  0  0  0  0  0  0  0  0  0
    6.9464   13.3870   24.5541 C   0  0  0  0  0  0  0  0  0  0  0  0
    7.1386   12.0911   25.0226 C   0  0  0  0  0  0  0  0  0  0  0  0
    8.2574   11.3782   24.6136 C   0  0  0  0  0  0  0  0  0  0  0  0
    8.3985   10.1091   25.0124 F   0  0  0  0  0  0  0  0  0  0  0  0
    9.2215   11.9515   23.7935 C   0  0  0  0  0  0  0  0  0  0  0  0
    9.0433   13.2534   23.3169 C   0  0  0  0  0  0  0  0  0  0  0  0
   10.0418   13.8596   22.4975 N   0  0  0  0  0  0  0  0  0  0  0  0
    9.6435   14.7871   21.4469 C   0  0  0  0  0  0  0  0  0  0  0  0
   10.6627   14.9458   20.3414 C   0  0  0  0  0  0  0  0  0  0  0  0
   12.0328   14.5412   20.7756 C   0  0  0  0  0  0  0  0  0  0  0  0
   12.8977   14.2267   19.9631 O   0  0  0  0  0  0  0  0  0  0  0  0
   12.2452   14.5369   22.1175 N   0  0  0  0  0  0  0  0  0  0  0  0
   11.3757   13.8467   22.9155 C   0  0  0  0  0  0  0  0  0  0  0  0
   11.7979   13.2724   23.9182 O   0  0  0  0  0  0  0  0  0  0  0  0
    7.8754   13.9475   23.6677 C   0  0  0  0  0  0  0  0  0  0  0  0
  1  2  1  0
  2  3  1  0
  3  4  3  0
  4  5  1  0
  5  6  2  0
  5  7  1  0
  7  8  1  0
  8  9  2  0
  9 10  1  0
 10 11  1  0
 10 12  2  0
 12 13  1  0
 13 14  1  0
 14 15  1  0
 15 16  1  0
 16 17  1  0
 17 18  2  0
 17 19  1  0
 19 20  1  0
 20 21  2  0
 13 22  2  0
 22  8  1  0
 20 14  1  0
M  END
>  <alias>  (819) 
None

>  <rmsd(smina/fragmenstein)>  (819) 
0.439

>  <smiles>  (819) 
CCC#CC(=O)Nc1cc(F)cc(N2CCC(=O)NC2=O)c1

>  <gnina_score>  (819) 
5.383

>  <inspiration_score>  (819) 
None

>  <energy_score>  (819) 
-47.839764

>  <distance_score>  (819) 
1.894866

>  <gnina_score_min>  (819) 
5.272

>  <inchikey>  (819) 
MTJLLRWHSAQVFM-UHFFFAOYSA-N

>  <exports>  (819) 
['/opt/xchem-fragalysis-2/maxwin/BulkDock/OUTPUTS/openbind_a71ev2a_c2_elabs_1LOUU54.sdf', '/opt/xchem-fragalysis-2/maxwin/BulkDock/OUTPUTS/openbind_a71ev2a_c2_elabs_1LSYIDY.sdf']

>  <name>  (819) 
P546638

>  <ref_pdb>  (819) 
A0884a

>  <subsites>  (819) 
None

>  <HIPPO Pose ID>  (819) 
546638

>  <ref_mols>  (819) 
A0884a

>  <HIPPO Compound ID>  (819) 
385212

>  <tags>  (819) 
openbind_a71ev2a_c2_elabs,syndirella_product,openbind_a71ev2a_c2_elabs_fragonly_scored_top80percent,openbind_a71ev2a_c2_elabs_scored,BulkDock Fragalysis export,openbind_a71ev2a_c2_elabs_scored_top80percent,openbind_a71ev2a_c2_elabs_activefrags_only_scored_5.2plus,syndirella_placed

>  <smina_score_min>  (819) 
-6.553

$$$$
P546639
     RDKit          3D

 22 24  0  0  0  0  0  0  0  0999 V2000
    9.1316    9.5405   23.8773 C   0  0  0  0  0  0  0  0  0  0  0  0
    8.8417   10.9759   24.1080 C   0  0  0  0  0  0  0  0  0  0  0  0
    7.7376   11.4088   24.8513 C   0  0  0  0  0  0  0  0  0  0  0  0
    7.4329   12.7681   24.9141 C   0  0  0  0  0  0  0  0  0  0  0  0
    6.3199   13.2356   25.6044 N   0  0  0  0  0  0  0  0  0  0  0  0
    5.4065   12.5288   26.6408 C   0  0  0  0  0  0  0  0  0  0  0  0
    5.4023   11.4192   27.0170 O   0  0  0  0  0  0  0  0  0  0  0  0
    4.3733   13.6017   27.1449 C   0  0  0  0  0  0  0  0  0  0  0  0
    3.2186   13.1189   28.0654 C   0  0  0  0  0  0  0  0  0  0  0  0
    4.0759   13.5422   29.2713 C   0  0  0  0  0  0  0  0  0  0  0  0
    4.8231   14.5012   28.3273 C   0  0  0  0  0  0  0  0  0  0  0  0
    8.2338   13.6910   24.2419 C   0  0  0  0  0  0  0  0  0  0  0  0
    9.3707   13.2558   23.5656 C   0  0  0  0  0  0  0  0  0  0  0  0
   10.1934   14.1756   22.8741 N   0  0  0  0  0  0  0  0  0  0  0  0
    9.6688   14.5778   21.5688 C   0  0  0  0  0  0  0  0  0  0  0  0
   10.6355   15.3590   20.7262 C   0  0  0  0  0  0  0  0  0  0  0  0
   11.9951   14.7583   20.8986 C   0  0  0  0  0  0  0  0  0  0  0  0
   12.6977   14.3771   19.9688 O   0  0  0  0  0  0  0  0  0  0  0  0
   12.3818   14.6868   22.2048 N   0  0  0  0  0  0  0  0  0  0  0  0
   11.5561   14.1542   23.1499 C   0  0  0  0  0  0  0  0  0  0  0  0
   12.0344   13.6698   24.1770 O   0  0  0  0  0  0  0  0  0  0  0  0
    9.6670   11.9019   23.4887 C   0  0  0  0  0  0  0  0  0  0  0  0
  1  2  1  0
  2  3  2  0
  3  4  1  0
  4  5  1  0
  5  6  1  0
  6  7  2  0
  6  8  1  0
  8  9  1  0
  9 10  1  0
 10 11  1  0
  4 12  2  0
 12 13  1  0
 13 14  1  0
 14 15  1  0
 15 16  1  0
 16 17  1  0
 17 18  2  0
 17 19  1  0
 19 20  1  0
 20 21  2  0
 13 22  2  0
 22  2  1  0
 11  8  1  0
 20 14  1  0
M  END
>  <alias>  (820) 
None

>  <rmsd(smina/fragmenstein)>  (820) 
0.86

>  <smiles>  (820) 
Cc1cc(NC(=O)C2CCC2)cc(N2CCC(=O)NC2=O)c1

>  <gnina_score>  (820) 
5.417

>  <inspiration_score>  (820) 
None

>  <energy_score>  (820) 
-24.081486

>  <distance_score>  (820) 
1.328843

>  <gnina_score_min>  (820) 
5.593

>  <inchikey>  (820) 
GGPDWCVTUOPFTB-UHFFFAOYSA-N

>  <exports>  (820) 
['/opt/xchem-fragalysis-2/maxwin/BulkDock/OUTPUTS/openbind_a71ev2a_c2_elabs_1LOUU54.sdf', '/opt/xchem-fragalysis-2/maxwin/BulkDock/OUTPUTS/openbind_a71ev2a_c2_elabs_1LSYIDY.sdf']

>  <name>  (820) 
P546639

>  <ref_pdb>  (820) 
A0884a

>  <subsites>  (820) 
None

>  <HIPPO Pose ID>  (820) 
546639

>  <ref_mols>  (820) 
A0884a

>  <HIPPO Compound ID>  (820) 
385214

>  <tags>  (820) 
openbind_a71ev2a_c2_elabs,syndirella_product,openbind_a71ev2a_c2_elabs_fragonly_scored_top80percent,BulkDock Fragalysis export,openbind_a71ev2a_c2_elabs_scored,openbind_a71ev2a_c2_elabs_scored_top80percent,openbind_a71ev2a_c2_elabs_activefrags_only_scored_5.2plus,openbind_a71ev2a_c2_elabs_activefrags_only_scored_5.5plus,syndirella_placed

>  <smina_score_min>  (820) 
-7.032

$$$$
P546640
     RDKit          3D

 22 24  0  0  0  0  0  0  0  0999 V2000
   12.5443   14.6030   20.0885 O   0  0  0  0  0  0  0  0  0  0  0  0
   12.0491   14.6979   21.2062 C   0  0  0  0  0  0  0  0  0  0  0  0
   12.6303   14.0669   22.4331 C   0  0  0  0  0  0  0  0  0  0  0  0
   11.7154   14.1731   23.6256 C   0  0  0  0  0  0  0  0  0  0  0  0
   10.3273   14.0530   23.2439 N   0  0  0  0  0  0  0  0  0  0  0  0
    9.5620   12.9982   23.7526 C   0  0  0  0  0  0  0  0  0  0  0  0
    9.9056   11.7071   23.4161 C   0  0  0  0  0  0  0  0  0  0  0  0
    9.1673   10.6566   23.9179 C   0  0  0  0  0  0  0  0  0  0  0  0
    9.6917    9.1143   23.4400 Cl  0  0  0  0  0  0  0  0  0  0  0  0
    8.0816   10.8767   24.7655 C   0  0  0  0  0  0  0  0  0  0  0  0
    7.7057   12.1899   25.0546 C   0  0  0  0  0  0  0  0  0  0  0  0
    6.6151   12.4939   25.8622 N   0  0  0  0  0  0  0  0  0  0  0  0
    5.8165   11.6079   26.8490 C   0  0  0  0  0  0  0  0  0  0  0  0
    5.9015   10.4645   27.0801 O   0  0  0  0  0  0  0  0  0  0  0  0
    4.7777   12.5462   27.5639 C   0  0  0  0  0  0  0  0  0  0  0  0
    3.8149   11.9048   28.6012 C   0  0  0  0  0  0  0  0  0  0  0  0
    4.8032   12.3324   29.7007 C   0  0  0  0  0  0  0  0  0  0  0  0
    5.3140   13.4157   28.7343 C   0  0  0  0  0  0  0  0  0  0  0  0
    8.4343   13.2550   24.5253 C   0  0  0  0  0  0  0  0  0  0  0  0
    9.9475   14.5924   22.0337 C   0  0  0  0  0  0  0  0  0  0  0  0
    8.8741   14.3790   21.4892 O   0  0  0  0  0  0  0  0  0  0  0  0
   10.8766   15.3414   21.4046 N   0  0  0  0  0  0  0  0  0  0  0  0
  1  2  2  0
  2  3  1  0
  3  4  1  0
  4  5  1  0
  5  6  1  0
  6  7  2  0
  7  8  1  0
  8  9  1  0
  8 10  2  0
 10 11  1  0
 11 12  1  0
 12 13  1  0
 13 14  2  0
 13 15  1  0
 15 16  1  0
 16 17  1  0
 17 18  1  0
 11 19  2  0
  5 20  1  0
 20 21  2  0
 20 22  1  0
 22  2  1  0
 19  6  1  0
 18 15  1  0
M  END
>  <alias>  (821) 
None

>  <rmsd(smina/fragmenstein)>  (821) 
0.769

>  <smiles>  (821) 
O=C1CCN(c2cc(Cl)cc(NC(=O)C3CCC3)c2)C(=O)N1

>  <gnina_score>  (821) 
5.633

>  <inspiration_score>  (821) 
None

>  <energy_score>  (821) 
-33.318277

>  <distance_score>  (821) 
1.85274

>  <gnina_score_min>  (821) 
5.697

>  <inchikey>  (821) 
KZDKRNZZXWUISH-UHFFFAOYSA-N

>  <exports>  (821) 
['/opt/xchem-fragalysis-2/maxwin/BulkDock/OUTPUTS/openbind_a71ev2a_c2_elabs_1LOUU54.sdf', '/opt/xchem-fragalysis-2/maxwin/BulkDock/OUTPUTS/openbind_a71ev2a_c2_elabs_1LSYIDY.sdf']

>  <name>  (821) 
P546640

>  <ref_pdb>  (821) 
A0884a

>  <subsites>  (821) 
None

>  <HIPPO Pose ID>  (821) 
546640

>  <ref_mols>  (821) 
A0884a

>  <HIPPO Compound ID>  (821) 
385215

>  <tags>  (821) 
openbind_a71ev2a_c2_elabs,syndirella_product,openbind_a71ev2a_c2_elabs_fragonly_scored_top80percent,BulkDock Fragalysis export,openbind_a71ev2a_c2_elabs_scored,openbind_a71ev2a_c2_elabs_scored_top80percent,openbind_a71ev2a_c2_elabs_activefrags_only_scored_5.2plus,openbind_a71ev2a_c2_elabs_activefrags_only_scored_5.5plus,syndirella_placed

>  <smina_score_min>  (821) 
-6.819

$$$$
P546642
     RDKit          3D

 22 24  0  0  0  0  0  0  0  0999 V2000
    9.9543   10.3283   23.0644 C   0  0  0  0  0  0  0  0  0  0  0  0
    9.0570   11.2528   23.8213 C   0  0  0  0  0  0  0  0  0  0  0  0
    8.1295   10.6466   24.6826 C   0  0  0  0  0  0  0  0  0  0  0  0
    7.1798   11.4005   25.3646 C   0  0  0  0  0  0  0  0  0  0  0  0
    7.1397   12.7770   25.1879 C   0  0  0  0  0  0  0  0  0  0  0  0
    6.1687   13.5672   25.7961 N   0  0  0  0  0  0  0  0  0  0  0  0
    5.0224   13.1846   26.7720 C   0  0  0  0  0  0  0  0  0  0  0  0
    4.7649   12.1578   27.2760 O   0  0  0  0  0  0  0  0  0  0  0  0
    4.1898   14.4846   27.0256 C   0  0  0  0  0  0  0  0  0  0  0  0
    3.0980   14.4448   28.1325 C   0  0  0  0  0  0  0  0  0  0  0  0
    3.4672   15.9036   28.4590 C   0  0  0  0  0  0  0  0  0  0  0  0
    4.8575   15.6089   27.8668 C   0  0  0  0  0  0  0  0  0  0  0  0
    8.0763   13.3969   24.3553 C   0  0  0  0  0  0  0  0  0  0  0  0
    9.0544   12.6526   23.6771 C   0  0  0  0  0  0  0  0  0  0  0  0
    9.9949   13.3340   22.8349 N   0  0  0  0  0  0  0  0  0  0  0  0
    9.4703   14.3278   21.9044 C   0  0  0  0  0  0  0  0  0  0  0  0
   10.4505   14.7969   20.8513 C   0  0  0  0  0  0  0  0  0  0  0  0
   11.8716   14.5479   21.2380 C   0  0  0  0  0  0  0  0  0  0  0  0
   12.7799   14.5512   20.4108 O   0  0  0  0  0  0  0  0  0  0  0  0
   12.0970   14.3341   22.5633 N   0  0  0  0  0  0  0  0  0  0  0  0
   11.2790   13.5543   23.3381 C   0  0  0  0  0  0  0  0  0  0  0  0
   11.7098   13.1009   24.3964 O   0  0  0  0  0  0  0  0  0  0  0  0
  1  2  1  0
  2  3  2  0
  3  4  1  0
  4  5  2  0
  5  6  1  0
  6  7  1  0
  7  8  2  0
  7  9  1  0
  9 10  1  0
 10 11  1  0
 11 12  1  0
  5 13  1  0
 13 14  2  0
 14 15  1  0
 15 16  1  0
 16 17  1  0
 17 18  1  0
 18 19  2  0
 18 20  1  0
 20 21  1  0
 21 22  2  0
 14  2  1  0
 21 15  1  0
 12  9  1  0
M  END
>  <alias>  (822) 
None

>  <rmsd(smina/fragmenstein)>  (822) 
1.143

>  <smiles>  (822) 
Cc1ccc(NC(=O)C2CCC2)cc1N1CCC(=O)NC1=O

>  <gnina_score>  (822) 
5.387

>  <inspiration_score>  (822) 
None

>  <energy_score>  (822) 
-20.149837

>  <distance_score>  (822) 
1.424121

>  <gnina_score_min>  (822) 
5.474

>  <inchikey>  (822) 
PDXKDHCSTBUAQK-UHFFFAOYSA-N

>  <exports>  (822) 
['/opt/xchem-fragalysis-2/maxwin/BulkDock/OUTPUTS/openbind_a71ev2a_c2_elabs_1LOUU54.sdf', '/opt/xchem-fragalysis-2/maxwin/BulkDock/OUTPUTS/openbind_a71ev2a_c2_elabs_1LSYIDY.sdf']

>  <name>  (822) 
P546642

>  <ref_pdb>  (822) 
A0884a

>  <subsites>  (822) 
None

>  <HIPPO Pose ID>  (822) 
546642

>  <ref_mols>  (822) 
A0884a

>  <HIPPO Compound ID>  (822) 
385217

>  <tags>  (822) 
openbind_a71ev2a_c2_elabs,syndirella_product,openbind_a71ev2a_c2_elabs_fragonly_scored_top80percent,openbind_a71ev2a_c2_elabs_scored,BulkDock Fragalysis export,openbind_a71ev2a_c2_elabs_scored_top80percent,openbind_a71ev2a_c2_elabs_activefrags_only_scored_5.2plus,syndirella_placed

>  <smina_score_min>  (822) 
-7.118

$$$$
P546643
     RDKit          3D

 22 24  0  0  0  0  0  0  0  0999 V2000
    7.7251   14.7444   24.6357 C   0  0  0  0  0  0  0  0  0  0  0  0
    8.1087   13.2959   24.4948 C   0  0  0  0  0  0  0  0  0  0  0  0
    7.4531   12.3049   25.2644 C   0  0  0  0  0  0  0  0  0  0  0  0
    6.5658   12.6970   26.2774 N   0  0  0  0  0  0  0  0  0  0  0  0
    5.7574   11.8478   27.2933 C   0  0  0  0  0  0  0  0  0  0  0  0
    5.7650   10.6944   27.4936 O   0  0  0  0  0  0  0  0  0  0  0  0
    4.9121   12.8630   28.1481 C   0  0  0  0  0  0  0  0  0  0  0  0
    4.0528   12.3042   29.3133 C   0  0  0  0  0  0  0  0  0  0  0  0
    2.8330   12.3604   28.3800 C   0  0  0  0  0  0  0  0  0  0  0  0
    3.5925   13.3973   27.5356 C   0  0  0  0  0  0  0  0  0  0  0  0
    7.7583   10.9560   25.0715 C   0  0  0  0  0  0  0  0  0  0  0  0
    8.7626   10.5787   24.1814 C   0  0  0  0  0  0  0  0  0  0  0  0
    9.4974   11.5523   23.5122 C   0  0  0  0  0  0  0  0  0  0  0  0
    9.1888   12.9116   23.6695 C   0  0  0  0  0  0  0  0  0  0  0  0
   10.0165   13.8880   23.0194 N   0  0  0  0  0  0  0  0  0  0  0  0
    9.5762   14.3042   21.6869 C   0  0  0  0  0  0  0  0  0  0  0  0
   10.5095   15.2442   20.9704 C   0  0  0  0  0  0  0  0  0  0  0  0
   11.8990   14.7271   21.1547 C   0  0  0  0  0  0  0  0  0  0  0  0
   12.6847   14.5323   20.2324 O   0  0  0  0  0  0  0  0  0  0  0  0
   12.2225   14.4913   22.4606 N   0  0  0  0  0  0  0  0  0  0  0  0
   11.3669   13.9157   23.3595 C   0  0  0  0  0  0  0  0  0  0  0  0
   11.8220   13.4542   24.4071 O   0  0  0  0  0  0  0  0  0  0  0  0
  1  2  1  0
  2  3  2  0
  3  4  1  0
  4  5  1  0
  5  6  2  0
  5  7  1  0
  7  8  1  0
  8  9  1  0
  9 10  1  0
  3 11  1  0
 11 12  2  0
 12 13  1  0
 13 14  2  0
 14 15  1  0
 15 16  1  0
 16 17  1  0
 17 18  1  0
 18 19  2  0
 18 20  1  0
 20 21  1  0
 21 22  2  0
 14  2  1  0
 21 15  1  0
 10  7  1  0
M  END
>  <alias>  (823) 
None

>  <rmsd(smina/fragmenstein)>  (823) 
0.223

>  <smiles>  (823) 
Cc1c(NC(=O)C2CCC2)cccc1N1CCC(=O)NC1=O

>  <gnina_score>  (823) 
5.342

>  <inspiration_score>  (823) 
None

>  <energy_score>  (823) 
-32.607556

>  <distance_score>  (823) 
1.189852

>  <gnina_score_min>  (823) 
5.34

>  <inchikey>  (823) 
FBWJIACKHXPSJM-UHFFFAOYSA-N

>  <exports>  (823) 
['/opt/xchem-fragalysis-2/maxwin/BulkDock/OUTPUTS/openbind_a71ev2a_c2_elabs_1LOUU54.sdf', '/opt/xchem-fragalysis-2/maxwin/BulkDock/OUTPUTS/openbind_a71ev2a_c2_elabs_1LSYIDY.sdf']

>  <name>  (823) 
P546643

>  <ref_pdb>  (823) 
A0884a

>  <subsites>  (823) 
None

>  <HIPPO Pose ID>  (823) 
546643

>  <ref_mols>  (823) 
A0884a

>  <HIPPO Compound ID>  (823) 
385218

>  <tags>  (823) 
openbind_a71ev2a_c2_elabs,syndirella_product,openbind_a71ev2a_c2_elabs_fragonly_scored_top80percent,openbind_a71ev2a_c2_elabs_scored,BulkDock Fragalysis export,openbind_a71ev2a_c2_elabs_scored_top80percent,openbind_a71ev2a_c2_elabs_activefrags_only_scored_5.2plus,syndirella_placed

>  <smina_score_min>  (823) 
-7.173

$$$$
P546645
     RDKit          3D

 22 23  0  0  0  0  0  0  0  0999 V2000
    2.9531   15.2452   27.3360 C   0  0  0  0  0  0  0  0  0  0  0  0
    3.5917   14.0107   26.7120 C   0  0  0  0  0  0  0  0  0  0  0  0
    4.5437   13.3066   27.6809 C   0  0  1  0  0  0  0  0  0  0  0  0
    3.7701   12.7788   28.7629 O   0  0  0  0  0  0  0  0  0  0  0  0
    5.3484   12.1636   27.0058 C   0  0  0  0  0  0  0  0  0  0  0  0
    5.2235   11.0442   27.3305 O   0  0  0  0  0  0  0  0  0  0  0  0
    6.2882   12.8080   25.9415 N   0  0  0  0  0  0  0  0  0  0  0  0
    7.2966   12.2383   25.1561 C   0  0  0  0  0  0  0  0  0  0  0  0
    7.4648   10.8539   25.1368 C   0  0  0  0  0  0  0  0  0  0  0  0
    8.4821   10.2765   24.3828 C   0  0  0  0  0  0  0  0  0  0  0  0
    9.3807   11.0757   23.6957 C   0  0  0  0  0  0  0  0  0  0  0  0
    9.2465   12.4680   23.7246 C   0  0  0  0  0  0  0  0  0  0  0  0
   10.3516   13.1990   23.2157 N   0  0  0  0  0  0  0  0  0  0  0  0
   11.3737   13.4765   24.0986 C   0  0  0  0  0  0  0  0  0  0  0  0
   11.2642   13.5792   25.3166 O   0  0  0  0  0  0  0  0  0  0  0  0
   12.6733   13.7034   23.4126 C   0  0  0  0  0  0  0  0  0  0  0  0
   12.4713   14.9112   22.5536 C   0  0  0  0  0  0  0  0  0  0  0  0
   11.3332   14.7015   21.7149 N   0  0  0  0  0  0  0  0  0  0  0  0
   10.2561   13.9470   22.0653 C   0  0  0  0  0  0  0  0  0  0  0  0
    9.2654   14.0164   21.3499 O   0  0  0  0  0  0  0  0  0  0  0  0
    8.1572   13.0643   24.4000 C   0  0  0  0  0  0  0  0  0  0  0  0
    7.9602   14.5534   24.3890 C   0  0  0  0  0  0  0  0  0  0  0  0
  1  2  1  0
  2  3  1  0
  3  4  1  1
  3  5  1  0
  5  6  2  0
  5  7  1  0
  7  8  1  0
  8  9  2  0
  9 10  1  0
 10 11  2  0
 11 12  1  0
 12 13  1  0
 13 14  1  0
 14 15  2  0
 14 16  1  0
 16 17  1  0
 17 18  1  0
 18 19  1  0
 19 20  2  0
 12 21  2  0
 21 22  1  0
 21  8  1  0
 19 13  1  0
M  END
>  <alias>  (824) 
None

>  <rmsd(smina/fragmenstein)>  (824) 
0.902

>  <smiles>  (824) 
CC[C@@H](O)C(=O)Nc1cccc(N2C(=O)CCNC2=O)c1C

>  <gnina_score>  (824) 
5.352

>  <inspiration_score>  (824) 
None

>  <energy_score>  (824) 
-30.318471

>  <distance_score>  (824) 
1.64312

>  <gnina_score_min>  (824) 
5.344

>  <inchikey>  (824) 
YDMOALCNGWFXRQ-GFCCVEGCSA-N

>  <exports>  (824) 
['/opt/xchem-fragalysis-2/maxwin/BulkDock/OUTPUTS/openbind_a71ev2a_c2_elabs_1LOUU54.sdf', '/opt/xchem-fragalysis-2/maxwin/BulkDock/OUTPUTS/openbind_a71ev2a_c2_elabs_1LSYIDY.sdf']

>  <name>  (824) 
P546645

>  <ref_pdb>  (824) 
A0884a

>  <subsites>  (824) 
None

>  <HIPPO Pose ID>  (824) 
546645

>  <ref_mols>  (824) 
A0884a

>  <HIPPO Compound ID>  (824) 
385219

>  <tags>  (824) 
openbind_a71ev2a_c2_elabs,syndirella_product,openbind_a71ev2a_c2_elabs_fragonly_scored_top80percent,openbind_a71ev2a_c2_elabs_scored,BulkDock Fragalysis export,openbind_a71ev2a_c2_elabs_scored_top80percent,openbind_a71ev2a_c2_elabs_activefrags_only_scored_5.2plus,syndirella_placed

>  <smina_score_min>  (824) 
-6.395

$$$$
P546647
     RDKit          3D

 22 24  0  0  0  0  0  0  0  0999 V2000
    3.6729   14.9908   28.2140 O   0  0  0  0  0  0  0  0  0  0  0  0
    4.3892   14.3533   27.4464 C   0  0  0  0  0  0  0  0  0  0  0  0
    5.1981   14.9997   26.3600 C   0  0  0  0  0  0  0  0  0  0  0  0
    5.5438   13.9459   25.3305 C   0  0  0  0  0  0  0  0  0  0  0  0
    6.2176   12.8079   25.9715 N   0  0  0  0  0  0  0  0  0  0  0  0
    7.2364   12.1084   25.2560 C   0  0  0  0  0  0  0  0  0  0  0  0
    7.3852   10.7272   25.3255 C   0  0  0  0  0  0  0  0  0  0  0  0
    8.3668   10.0867   24.5710 C   0  0  0  0  0  0  0  0  0  0  0  0
    8.4357    8.7621   24.5910 F   0  0  0  0  0  0  0  0  0  0  0  0
    9.2417   10.7576   23.7546 C   0  0  0  0  0  0  0  0  0  0  0  0
    9.0720   12.1154   23.6630 C   0  0  0  0  0  0  0  0  0  0  0  0
    9.7812   12.8099   22.7213 N   0  0  0  0  0  0  0  0  0  0  0  0
    9.5280   14.1865   22.0999 C   0  0  0  0  0  0  0  0  0  0  0  0
    8.7180   14.9872   22.3429 O   0  0  0  0  0  0  0  0  0  0  0  0
   10.5697   14.3864   21.0065 C   0  0  0  0  0  0  0  0  0  0  0  0
   12.0688   14.0470   21.2549 C   0  0  0  0  0  0  0  0  0  0  0  0
   12.2537   15.5092   21.6224 C   0  0  0  0  0  0  0  0  0  0  0  0
   11.0193   15.7989   20.7322 C   0  0  0  0  0  0  0  0  0  0  0  0
    8.1073   12.7924   24.4157 C   0  0  0  0  0  0  0  0  0  0  0  0
    5.6251   12.2846   27.1179 C   0  0  0  0  0  0  0  0  0  0  0  0
    6.0046   11.2987   27.7459 O   0  0  0  0  0  0  0  0  0  0  0  0
    4.5617   13.0043   27.6043 N   0  0  0  0  0  0  0  0  0  0  0  0
  1  2  2  0
  2  3  1  0
  3  4  1  0
  4  5  1  0
  5  6  1  0
  6  7  2  0
  7  8  1  0
  8  9  1  0
  8 10  2  0
 10 11  1  0
 11 12  1  0
 12 13  1  0
 13 14  2  0
 13 15  1  0
 15 16  1  0
 16 17  1  0
 17 18  1  0
 11 19  2  0
  5 20  1  0
 20 21  2  0
 20 22  1  0
 22  2  1  0
 19  6  1  0
 18 15  1  0
M  END
>  <alias>  (825) 
None

>  <rmsd(smina/fragmenstein)>  (825) 
1.156

>  <smiles>  (825) 
O=C1CCN(c2cc(F)cc(NC(=O)C3CCC3)c2)C(=O)N1

>  <gnina_score>  (825) 
5.205

>  <inspiration_score>  (825) 
None

>  <energy_score>  (825) 
-39.282024

>  <distance_score>  (825) 
1.641397

>  <gnina_score_min>  (825) 
5.287

>  <inchikey>  (825) 
YJVIORHQIIAPNC-UHFFFAOYSA-N

>  <exports>  (825) 
['/opt/xchem-fragalysis-2/maxwin/BulkDock/OUTPUTS/openbind_a71ev2a_c2_elabs_1LOUU54.sdf', '/opt/xchem-fragalysis-2/maxwin/BulkDock/OUTPUTS/openbind_a71ev2a_c2_elabs_1LSYIDY.sdf']

>  <name>  (825) 
P546647

>  <ref_pdb>  (825) 
A0884a

>  <subsites>  (825) 
None

>  <HIPPO Pose ID>  (825) 
546647

>  <ref_mols>  (825) 
A0884a

>  <HIPPO Compound ID>  (825) 
385221

>  <tags>  (825) 
openbind_a71ev2a_c2_elabs,syndirella_product,openbind_a71ev2a_c2_elabs_fragonly_scored_top80percent,openbind_a71ev2a_c2_elabs_scored,BulkDock Fragalysis export,openbind_a71ev2a_c2_elabs_scored_top80percent,openbind_a71ev2a_c2_elabs_activefrags_only_scored_5.2plus,syndirella_placed

>  <smina_score_min>  (825) 
-5.614

$$$$
P546648
     RDKit          3D

 22 23  0  0  0  0  0  0  0  0999 V2000
   12.5849   14.7809   27.8788 C   0  0  0  0  0  0  0  0  0  0  0  0
   11.9240   15.3228   26.6139 C   0  0  0  0  0  0  0  0  0  0  0  0
   11.5616   14.3582   25.4831 C   0  0  2  0  0  0  0  0  0  0  0  0
   11.9268   14.5934   24.1168 N   0  0  0  0  0  0  0  0  0  0  0  0
   11.0355   13.8803   23.3171 C   0  0  0  0  0  0  0  0  0  0  0  0
   11.3697   13.5159   22.2063 O   0  0  0  0  0  0  0  0  0  0  0  0
    9.8920   13.6547   24.0423 N   0  0  0  0  0  0  0  0  0  0  0  0
    9.0602   12.5084   24.0012 C   0  0  0  0  0  0  0  0  0  0  0  0
    9.4883   11.3614   23.3351 C   0  0  0  0  0  0  0  0  0  0  0  0
    8.9383   10.1340   23.6719 C   0  0  0  0  0  0  0  0  0  0  0  0
    7.9683   10.0558   24.6728 C   0  0  0  0  0  0  0  0  0  0  0  0
    7.4946   11.1880   25.3161 C   0  0  0  0  0  0  0  0  0  0  0  0
    6.7923   11.0349   26.5174 N   0  0  0  0  0  0  0  0  0  0  0  0
    6.3459   12.0951   27.5718 C   0  0  0  0  0  0  0  0  0  0  0  0
    6.4303   13.2621   27.5557 O   0  0  0  0  0  0  0  0  0  0  0  0
    5.8190   11.3597   28.8134 C   0  0  0  0  0  0  0  0  0  0  0  0
    4.3755   10.8707   28.8619 C   0  0  0  0  0  0  0  0  0  0  0  0
    3.4045   11.8429   28.2042 C   0  0  0  0  0  0  0  0  0  0  0  0
    4.2483    9.4406   28.3472 C   0  0  0  0  0  0  0  0  0  0  0  0
    7.9791   12.4190   24.9059 C   0  0  0  0  0  0  0  0  0  0  0  0
   10.0673   14.2790   25.2529 C   0  0  0  0  0  0  0  0  0  0  0  0
    9.2323   14.6762   26.0534 O   0  0  0  0  0  0  0  0  0  0  0  0
  1  2  1  0
  3  2  1  1
  3  4  1  0
  4  5  1  0
  5  6  2  0
  5  7  1  0
  7  8  1  0
  8  9  2  0
  9 10  1  0
 10 11  2  0
 11 12  1  0
 12 13  1  0
 13 14  1  0
 14 15  2  0
 14 16  1  0
 16 17  1  0
 17 18  1  0
 17 19  1  0
 12 20  2  0
  7 21  1  0
 21 22  2  0
 21  3  1  0
 20  8  1  0
M  END
>  <alias>  (826) 
None

>  <rmsd(smina/fragmenstein)>  (826) 
0.765

>  <smiles>  (826) 
CC[C@@H]1NC(=O)N(c2cccc(NC(=O)CC(C)C)c2)C1=O

>  <gnina_score>  (826) 
5.21

>  <inspiration_score>  (826) 
None

>  <energy_score>  (826) 
-25.202637

>  <distance_score>  (826) 
1.167007

>  <gnina_score_min>  (826) 
5.26

>  <inchikey>  (826) 
BFGZLVNZKQBBSP-ZDUSSCGKSA-N

>  <exports>  (826) 
['/opt/xchem-fragalysis-2/maxwin/BulkDock/OUTPUTS/openbind_a71ev2a_c2_elabs_1LOUU54.sdf', '/opt/xchem-fragalysis-2/maxwin/BulkDock/OUTPUTS/openbind_a71ev2a_c2_elabs_1LSYIDY.sdf']

>  <name>  (826) 
P546648

>  <ref_pdb>  (826) 
A0884a

>  <subsites>  (826) 
None

>  <HIPPO Pose ID>  (826) 
546648

>  <ref_mols>  (826) 
A0884a

>  <HIPPO Compound ID>  (826) 
385222

>  <tags>  (826) 
openbind_a71ev2a_c2_elabs,syndirella_product,openbind_a71ev2a_c2_elabs_fragonly_scored_top80percent,openbind_a71ev2a_c2_elabs_scored,BulkDock Fragalysis export,openbind_a71ev2a_c2_elabs_scored_top80percent,openbind_a71ev2a_c2_elabs_activefrags_only_scored_5.2plus,syndirella_placed

>  <smina_score_min>  (826) 
-4.885

$$$$
P546650
     RDKit          3D

 22 23  0  0  0  0  0  0  0  0999 V2000
    4.3078   16.1902   28.0371 C   0  0  0  0  0  0  0  0  0  0  0  0
    5.1458   14.9205   27.8818 C   0  0  0  0  0  0  0  0  0  0  0  0
    5.4724   14.3387   29.2590 C   0  0  0  0  0  0  0  0  0  0  0  0
    4.3990   13.9027   27.0069 C   0  0  0  0  0  0  0  0  0  0  0  0
    5.2676   12.7101   26.6174 C   0  0  0  0  0  0  0  0  0  0  0  0
    5.1460   11.6505   27.0980 O   0  0  0  0  0  0  0  0  0  0  0  0
    6.2538   13.2142   25.5218 N   0  0  0  0  0  0  0  0  0  0  0  0
    7.3105   12.5656   24.8903 C   0  0  0  0  0  0  0  0  0  0  0  0
    7.5239   11.1985   25.0287 C   0  0  0  0  0  0  0  0  0  0  0  0
    8.5891   10.6073   24.3587 C   0  0  0  0  0  0  0  0  0  0  0  0
    8.7392    9.2803   24.4225 F   0  0  0  0  0  0  0  0  0  0  0  0
    9.4812   11.3601   23.6059 C   0  0  0  0  0  0  0  0  0  0  0  0
    9.2696   12.7317   23.4662 C   0  0  0  0  0  0  0  0  0  0  0  0
   10.1627   13.5051   22.6790 N   0  0  0  0  0  0  0  0  0  0  0  0
    9.6109   14.4534   21.7232 C   0  0  0  0  0  0  0  0  0  0  0  0
   10.5876   14.9033   20.6593 C   0  0  0  0  0  0  0  0  0  0  0  0
   11.9969   14.5437   21.0072 C   0  0  0  0  0  0  0  0  0  0  0  0
   12.8469   14.3429   20.1450 O   0  0  0  0  0  0  0  0  0  0  0  0
   12.2584   14.4753   22.3418 N   0  0  0  0  0  0  0  0  0  0  0  0
   11.4600   13.7092   23.1464 C   0  0  0  0  0  0  0  0  0  0  0  0
   11.9024   13.2424   24.1943 O   0  0  0  0  0  0  0  0  0  0  0  0
    8.1639   13.3246   24.0850 C   0  0  0  0  0  0  0  0  0  0  0  0
  1  2  1  0
  2  3  1  0
  2  4  1  0
  4  5  1  0
  5  6  2  0
  5  7  1  0
  7  8  1  0
  8  9  2  0
  9 10  1  0
 10 11  1  0
 10 12  2  0
 12 13  1  0
 13 14  1  0
 14 15  1  0
 15 16  1  0
 16 17  1  0
 17 18  2  0
 17 19  1  0
 19 20  1  0
 20 21  2  0
 13 22  2  0
 22  8  1  0
 20 14  1  0
M  END
>  <alias>  (827) 
None

>  <rmsd(smina/fragmenstein)>  (827) 
1.013

>  <smiles>  (827) 
CC(C)CC(=O)Nc1cc(F)cc(N2CCC(=O)NC2=O)c1

>  <gnina_score>  (827) 
5.278

>  <inspiration_score>  (827) 
None

>  <energy_score>  (827) 
-25.006755

>  <distance_score>  (827) 
1.222973

>  <gnina_score_min>  (827) 
5.472

>  <inchikey>  (827) 
RKJNRLWZAMOEFT-UHFFFAOYSA-N

>  <exports>  (827) 
['/opt/xchem-fragalysis-2/maxwin/BulkDock/OUTPUTS/openbind_a71ev2a_c2_elabs_1LOUU54.sdf', '/opt/xchem-fragalysis-2/maxwin/BulkDock/OUTPUTS/openbind_a71ev2a_c2_elabs_1LSYIDY.sdf']

>  <name>  (827) 
P546650

>  <ref_pdb>  (827) 
A0884a

>  <subsites>  (827) 
None

>  <HIPPO Pose ID>  (827) 
546650

>  <ref_mols>  (827) 
A0884a

>  <HIPPO Compound ID>  (827) 
385223

>  <tags>  (827) 
openbind_a71ev2a_c2_elabs,syndirella_product,openbind_a71ev2a_c2_elabs_fragonly_scored_top80percent,openbind_a71ev2a_c2_elabs_scored,BulkDock Fragalysis export,openbind_a71ev2a_c2_elabs_scored_top80percent,openbind_a71ev2a_c2_elabs_activefrags_only_scored_5.2plus,syndirella_placed

>  <smina_score_min>  (827) 
-6.876

$$$$
P546651
     RDKit          3D

 22 23  0  0  0  0  0  0  0  0999 V2000
    7.3941   14.5832   25.0082 C   0  0  0  0  0  0  0  0  0  0  0  0
    7.7239   13.1171   24.8568 C   0  0  0  0  0  0  0  0  0  0  0  0
    7.0232   12.1437   25.5912 C   0  0  0  0  0  0  0  0  0  0  0  0
    6.1285   12.5537   26.5848 N   0  0  0  0  0  0  0  0  0  0  0  0
    5.3335   11.7220   27.6362 C   0  0  0  0  0  0  0  0  0  0  0  0
    5.2482   10.5646   27.7789 O   0  0  0  0  0  0  0  0  0  0  0  0
    4.6399   12.7323   28.5481 C   0  0  0  0  0  0  0  0  0  0  0  0
    3.3602   13.2983   27.9179 C   0  0  0  0  0  0  0  0  0  0  0  0
    3.0752   14.7018   28.4532 C   0  0  0  0  0  0  0  0  0  0  0  0
    2.1674   12.3843   28.2047 C   0  0  0  0  0  0  0  0  0  0  0  0
    7.2879   10.7924   25.3696 C   0  0  0  0  0  0  0  0  0  0  0  0
    8.2588   10.3949   24.4464 C   0  0  0  0  0  0  0  0  0  0  0  0
    8.9969   11.3441   23.7548 C   0  0  0  0  0  0  0  0  0  0  0  0
    8.7599   12.7030   23.9933 C   0  0  0  0  0  0  0  0  0  0  0  0
    9.7507   13.6088   23.5989 N   0  0  0  0  0  0  0  0  0  0  0  0
   10.3070   13.7269   22.3653 C   0  0  0  0  0  0  0  0  0  0  0  0
    9.7289   13.7495   21.2981 O   0  0  0  0  0  0  0  0  0  0  0  0
   11.6334   14.0300   22.4859 N   0  0  0  0  0  0  0  0  0  0  0  0
   11.9197   14.3756   23.8256 C   0  0  2  0  0  0  0  0  0  0  0  0
   12.9028   13.4389   24.4598 C   0  0  0  0  0  0  0  0  0  0  0  0
   10.6057   14.1402   24.5176 C   0  0  0  0  0  0  0  0  0  0  0  0
   10.4216   14.3847   25.7044 O   0  0  0  0  0  0  0  0  0  0  0  0
  1  2  1  0
  2  3  2  0
  3  4  1  0
  4  5  1  0
  5  6  2  0
  5  7  1  0
  7  8  1  0
  8  9  1  0
  8 10  1  0
  3 11  1  0
 11 12  2  0
 12 13  1  0
 13 14  2  0
 14 15  1  0
 15 16  1  0
 16 17  2  0
 16 18  1  0
 18 19  1  0
 19 20  1  1
 19 21  1  0
 21 22  2  0
 14  2  1  0
 21 15  1  0
M  END
>  <alias>  (828) 
None

>  <rmsd(smina/fragmenstein)>  (828) 
1.386

>  <smiles>  (828) 
Cc1c(NC(=O)CC(C)C)cccc1N1C(=O)N[C@H](C)C1=O

>  <gnina_score>  (828) 
5.322

>  <inspiration_score>  (828) 
None

>  <energy_score>  (828) 
-35.844714

>  <distance_score>  (828) 
1.691287

>  <gnina_score_min>  (828) 
5.374

>  <inchikey>  (828) 
RAKAHSXEYVIHOC-LLVKDONJSA-N

>  <exports>  (828) 
['/opt/xchem-fragalysis-2/maxwin/BulkDock/OUTPUTS/openbind_a71ev2a_c2_elabs_1LOUU54.sdf', '/opt/xchem-fragalysis-2/maxwin/BulkDock/OUTPUTS/openbind_a71ev2a_c2_elabs_1LSYIDY.sdf']

>  <name>  (828) 
P546651

>  <ref_pdb>  (828) 
A0884a

>  <subsites>  (828) 
None

>  <HIPPO Pose ID>  (828) 
546651

>  <ref_mols>  (828) 
A0884a

>  <HIPPO Compound ID>  (828) 
385224

>  <tags>  (828) 
openbind_a71ev2a_c2_elabs,syndirella_product,openbind_a71ev2a_c2_elabs_fragonly_scored_top80percent,openbind_a71ev2a_c2_elabs_scored,BulkDock Fragalysis export,openbind_a71ev2a_c2_elabs_scored_top80percent,openbind_a71ev2a_c2_elabs_activefrags_only_scored_5.2plus,syndirella_placed

>  <smina_score_min>  (828) 
-5.669

$$$$
P546653
     RDKit          3D

 22 23  0  0  0  0  0  0  0  0999 V2000
    8.4187   14.4293   24.8361 C   0  0  0  0  0  0  0  0  0  0  0  0
    8.5284   12.9568   24.5753 C   0  0  0  0  0  0  0  0  0  0  0  0
    7.6252   12.0500   25.1660 C   0  0  0  0  0  0  0  0  0  0  0  0
    6.5542   12.5160   25.9320 N   0  0  0  0  0  0  0  0  0  0  0  0
    5.6049   11.7592   26.9103 C   0  0  0  0  0  0  0  0  0  0  0  0
    5.5286   10.6200   27.1619 O   0  0  0  0  0  0  0  0  0  0  0  0
    4.6887   12.8359   27.4957 C   0  0  0  0  0  0  0  0  0  0  0  0
    3.7357   12.3014   28.5769 C   0  0  0  0  0  0  0  0  0  0  0  0
    2.6118   13.3078   28.8305 C   0  0  0  0  0  0  0  0  0  0  0  0
    4.4795   12.0164   29.8842 C   0  0  0  0  0  0  0  0  0  0  0  0
    7.7907   10.6820   24.9691 C   0  0  0  0  0  0  0  0  0  0  0  0
    8.7976   10.2095   24.1322 C   0  0  0  0  0  0  0  0  0  0  0  0
    9.6721   11.0907   23.5155 C   0  0  0  0  0  0  0  0  0  0  0  0
    9.5682   12.4607   23.7509 C   0  0  0  0  0  0  0  0  0  0  0  0
   10.5223   13.3087   23.1119 N   0  0  0  0  0  0  0  0  0  0  0  0
   10.1114   14.0393   22.0140 C   0  0  0  0  0  0  0  0  0  0  0  0
    8.9672   14.0046   21.5674 O   0  0  0  0  0  0  0  0  0  0  0  0
   11.0849   14.9844   21.3887 C   0  0  0  0  0  0  0  0  0  0  0  0
   12.4754   14.4960   21.6009 C   0  0  0  0  0  0  0  0  0  0  0  0
   12.6627   14.2233   22.9929 N   0  0  0  0  0  0  0  0  0  0  0  0
   11.7509   13.5140   23.7164 C   0  0  0  0  0  0  0  0  0  0  0  0
   12.0491   13.1671   24.8558 O   0  0  0  0  0  0  0  0  0  0  0  0
  1  2  1  0
  2  3  2  0
  3  4  1  0
  4  5  1  0
  5  6  2  0
  5  7  1  0
  7  8  1  0
  8  9  1  0
  8 10  1  0
  3 11  1  0
 11 12  2  0
 12 13  1  0
 13 14  2  0
 14 15  1  0
 15 16  1  0
 16 17  2  0
 16 18  1  0
 18 19  1  0
 19 20  1  0
 20 21  1  0
 21 22  2  0
 14  2  1  0
 21 15  1  0
M  END
>  <alias>  (829) 
None

>  <rmsd(smina/fragmenstein)>  (829) 
0.594

>  <smiles>  (829) 
Cc1c(NC(=O)CC(C)C)cccc1N1C(=O)CCNC1=O

>  <gnina_score>  (829) 
5.299

>  <inspiration_score>  (829) 
None

>  <energy_score>  (829) 
-24.592708

>  <distance_score>  (829) 
1.696766

>  <gnina_score_min>  (829) 
5.37

>  <inchikey>  (829) 
RIVZZABZHGORQH-UHFFFAOYSA-N

>  <exports>  (829) 
['/opt/xchem-fragalysis-2/maxwin/BulkDock/OUTPUTS/openbind_a71ev2a_c2_elabs_1LOUU54.sdf', '/opt/xchem-fragalysis-2/maxwin/BulkDock/OUTPUTS/openbind_a71ev2a_c2_elabs_1LSYIDY.sdf']

>  <name>  (829) 
P546653

>  <ref_pdb>  (829) 
A0884a

>  <subsites>  (829) 
None

>  <HIPPO Pose ID>  (829) 
546653

>  <ref_mols>  (829) 
A0884a

>  <HIPPO Compound ID>  (829) 
385231

>  <tags>  (829) 
openbind_a71ev2a_c2_elabs,syndirella_product,openbind_a71ev2a_c2_elabs_fragonly_scored_top80percent,openbind_a71ev2a_c2_elabs_scored,BulkDock Fragalysis export,openbind_a71ev2a_c2_elabs_scored_top80percent,openbind_a71ev2a_c2_elabs_activefrags_only_scored_5.2plus,syndirella_placed

>  <smina_score_min>  (829) 
-6.915

$$$$
P546654
     RDKit          3D

 22 23  0  0  0  0  0  0  0  0999 V2000
    4.7110   11.9326   29.7512 C   0  0  0  0  0  0  0  0  0  0  0  0
    3.9097   12.1449   28.4641 C   0  0  0  0  0  0  0  0  0  0  0  0
    2.6682   12.9880   28.7596 C   0  0  0  0  0  0  0  0  0  0  0  0
    4.7635   12.8231   27.3805 C   0  0  0  0  0  0  0  0  0  0  0  0
    5.7945   11.8857   26.7475 C   0  0  0  0  0  0  0  0  0  0  0  0
    5.8623   10.7391   26.9627 O   0  0  0  0  0  0  0  0  0  0  0  0
    6.6650   12.7930   25.8276 N   0  0  0  0  0  0  0  0  0  0  0  0
    7.6938   12.4663   24.9492 C   0  0  0  0  0  0  0  0  0  0  0  0
    8.0953   11.1441   24.7302 C   0  0  0  0  0  0  0  0  0  0  0  0
    9.1535   10.9006   23.8599 C   0  0  0  0  0  0  0  0  0  0  0  0
    9.7661    9.2054   23.3895 Br  0  0  0  0  0  0  0  0  0  0  0  0
    9.8331   11.9385   23.2607 C   0  0  0  0  0  0  0  0  0  0  0  0
    9.4378   13.2458   23.4845 C   0  0  0  0  0  0  0  0  0  0  0  0
   10.1626   14.2746   22.8351 N   0  0  0  0  0  0  0  0  0  0  0  0
    9.6325   14.6171   21.5104 C   0  0  0  0  0  0  0  0  0  0  0  0
   10.5746   15.4108   20.6510 C   0  0  0  0  0  0  0  0  0  0  0  0
   11.9469   14.8408   20.8342 C   0  0  0  0  0  0  0  0  0  0  0  0
   12.6570   14.4364   19.9203 O   0  0  0  0  0  0  0  0  0  0  0  0
   12.3430   14.8199   22.1400 N   0  0  0  0  0  0  0  0  0  0  0  0
   11.5295   14.3132   23.1078 C   0  0  0  0  0  0  0  0  0  0  0  0
   12.0178   13.8839   24.1553 O   0  0  0  0  0  0  0  0  0  0  0  0
    8.3449   13.5195   24.2967 C   0  0  0  0  0  0  0  0  0  0  0  0
  1  2  1  0
  2  3  1  0
  2  4  1  0
  4  5  1  0
  5  6  2  0
  5  7  1  0
  7  8  1  0
  8  9  2  0
  9 10  1  0
 10 11  1  0
 10 12  2  0
 12 13  1  0
 13 14  1  0
 14 15  1  0
 15 16  1  0
 16 17  1  0
 17 18  2  0
 17 19  1  0
 19 20  1  0
 20 21  2  0
 13 22  2  0
 22  8  1  0
 20 14  1  0
M  END
>  <alias>  (830) 
None

>  <rmsd(smina/fragmenstein)>  (830) 
0.331

>  <smiles>  (830) 
CC(C)CC(=O)Nc1cc(Br)cc(N2CCC(=O)NC2=O)c1

>  <gnina_score>  (830) 
5.643

>  <inspiration_score>  (830) 
None

>  <energy_score>  (830) 
-18.29949

>  <distance_score>  (830) 
1.258222

>  <gnina_score_min>  (830) 
5.664

>  <inchikey>  (830) 
XZTNQEHHIUFVDM-UHFFFAOYSA-N

>  <exports>  (830) 
['/opt/xchem-fragalysis-2/maxwin/BulkDock/OUTPUTS/openbind_a71ev2a_c2_elabs_1LOUU54.sdf', '/opt/xchem-fragalysis-2/maxwin/BulkDock/OUTPUTS/openbind_a71ev2a_c2_elabs_1LSYIDY.sdf']

>  <name>  (830) 
P546654

>  <ref_pdb>  (830) 
A0884a

>  <subsites>  (830) 
None

>  <HIPPO Pose ID>  (830) 
546654

>  <ref_mols>  (830) 
A0884a

>  <HIPPO Compound ID>  (830) 
385232

>  <tags>  (830) 
openbind_a71ev2a_c2_elabs,syndirella_product,openbind_a71ev2a_c2_elabs_fragonly_scored_top80percent,BulkDock Fragalysis export,openbind_a71ev2a_c2_elabs_scored,openbind_a71ev2a_c2_elabs_scored_top80percent,openbind_a71ev2a_c2_elabs_activefrags_only_scored_5.2plus,openbind_a71ev2a_c2_elabs_activefrags_only_scored_5.5plus,syndirella_placed

>  <smina_score_min>  (830) 
-6.385

$$$$
P546655
     RDKit          3D

 22 24  0  0  0  0  0  0  0  0999 V2000
    8.3608   14.5227   24.4339 C   0  0  0  0  0  0  0  0  0  0  0  0
    8.4481   13.0307   24.4027 C   0  0  0  0  0  0  0  0  0  0  0  0
    7.4572   12.2706   25.0697 C   0  0  0  0  0  0  0  0  0  0  0  0
    6.3943   12.9205   25.7024 N   0  0  0  0  0  0  0  0  0  0  0  0
    5.3328   12.3823   26.6974 C   0  0  0  0  0  0  0  0  0  0  0  0
    5.1365   11.2935   27.0824 O   0  0  0  0  0  0  0  0  0  0  0  0
    4.4626   13.6040   27.1444 C   0  0  0  0  0  0  0  0  0  0  0  0
    3.0886   13.3071   27.8112 C   0  0  0  0  0  0  0  0  0  0  0  0
    2.5413   14.5566   27.0988 C   0  0  0  0  0  0  0  0  0  0  0  0
    3.6551   14.3648   26.0543 C   0  0  0  0  0  0  0  0  0  0  0  0
    7.5424   10.8836   25.0894 C   0  0  0  0  0  0  0  0  0  0  0  0
    8.5627   10.2490   24.3922 C   0  0  0  0  0  0  0  0  0  0  0  0
    9.5359   10.9899   23.7392 C   0  0  0  0  0  0  0  0  0  0  0  0
   10.4771   10.3230   23.0706 F   0  0  0  0  0  0  0  0  0  0  0  0
    9.5270   12.3822   23.7529 C   0  0  0  0  0  0  0  0  0  0  0  0
   10.6040   13.0737   23.1404 N   0  0  0  0  0  0  0  0  0  0  0  0
   10.4933   13.9666   22.1134 C   0  0  0  0  0  0  0  0  0  0  0  0
    9.4863   14.2490   21.4843 O   0  0  0  0  0  0  0  0  0  0  0  0
   11.8345   14.6085   21.8499 C   0  0  0  0  0  0  0  0  0  0  0  0
   12.5995   14.0527   22.9076 N   0  0  0  0  0  0  0  0  0  0  0  0
   11.8486   13.2136   23.6915 C   0  0  0  0  0  0  0  0  0  0  0  0
   12.2775   12.7892   24.7495 O   0  0  0  0  0  0  0  0  0  0  0  0
  1  2  1  0
  2  3  2  0
  3  4  1  0
  4  5  1  0
  5  6  2  0
  5  7  1  0
  7  8  1  0
  8  9  1  0
  9 10  1  0
  3 11  1  0
 11 12  2  0
 12 13  1  0
 13 14  1  0
 13 15  2  0
 15 16  1  0
 16 17  1  0
 17 18  2  0
 17 19  1  0
 19 20  1  0
 20 21  1  0
 21 22  2  0
 15  2  1  0
 21 16  1  0
 10  7  1  0
M  END
>  <alias>  (831) 
None

>  <rmsd(smina/fragmenstein)>  (831) 
0.803

>  <smiles>  (831) 
Cc1c(NC(=O)C2CCC2)ccc(F)c1N1C(=O)CNC1=O

>  <gnina_score>  (831) 
5.401

>  <inspiration_score>  (831) 
None

>  <energy_score>  (831) 
-36.904745

>  <distance_score>  (831) 
1.555866

>  <gnina_score_min>  (831) 
5.406

>  <inchikey>  (831) 
IRPHIIAKWAEIQC-UHFFFAOYSA-N

>  <exports>  (831) 
['/opt/xchem-fragalysis-2/maxwin/BulkDock/OUTPUTS/openbind_a71ev2a_c2_elabs_1LOUU54.sdf', '/opt/xchem-fragalysis-2/maxwin/BulkDock/OUTPUTS/openbind_a71ev2a_c2_elabs_1LSYIDY.sdf']

>  <name>  (831) 
P546655

>  <ref_pdb>  (831) 
A0884a

>  <subsites>  (831) 
None

>  <HIPPO Pose ID>  (831) 
546655

>  <ref_mols>  (831) 
A0884a

>  <HIPPO Compound ID>  (831) 
385234

>  <tags>  (831) 
openbind_a71ev2a_c2_elabs,syndirella_product,openbind_a71ev2a_c2_elabs_fragonly_scored_top80percent,openbind_a71ev2a_c2_elabs_scored,BulkDock Fragalysis export,openbind_a71ev2a_c2_elabs_scored_top80percent,openbind_a71ev2a_c2_elabs_activefrags_only_scored_5.2plus,syndirella_placed

>  <smina_score_min>  (831) 
-6.545

$$$$
P546660
     RDKit          3D

 22 23  0  0  0  0  0  0  0  0999 V2000
   12.1603   16.1984   25.7878 O   0  0  0  0  0  0  0  0  0  0  0  0
   11.7722   15.2206   25.1439 C   0  0  0  0  0  0  0  0  0  0  0  0
   10.8193   14.3621   25.8451 C   0  0  0  0  0  0  0  0  0  0  0  0
   10.7523   13.1712   24.9752 C   0  0  0  0  0  0  0  0  0  0  0  0
   10.1633   13.5955   23.7305 N   0  0  0  0  0  0  0  0  0  0  0  0
    9.1625   12.7038   23.3216 C   0  0  0  0  0  0  0  0  0  0  0  0
    9.6700   11.4861   22.9125 C   0  0  0  0  0  0  0  0  0  0  0  0
    9.1990   10.3355   23.5097 C   0  0  0  0  0  0  0  0  0  0  0  0
   10.2092    8.8123   23.1876 Br  0  0  0  0  0  0  0  0  0  0  0  0
    8.1604   10.3615   24.4363 C   0  0  0  0  0  0  0  0  0  0  0  0
    7.5654   11.5764   24.7566 C   0  0  0  0  0  0  0  0  0  0  0  0
    6.6479   11.6173   25.8007 N   0  0  0  0  0  0  0  0  0  0  0  0
    5.9001   12.8276   26.4461 C   0  0  0  0  0  0  0  0  0  0  0  0
    6.0032   13.9755   26.2465 O   0  0  0  0  0  0  0  0  0  0  0  0
    4.9614   12.2211   27.5047 C   0  0  1  0  0  0  0  0  0  0  0  0
    5.7448   11.5709   28.5110 O   0  0  0  0  0  0  0  0  0  0  0  0
    4.0435   13.2878   28.0883 C   0  0  0  0  0  0  0  0  0  0  0  0
    2.5126   12.4269   28.9565 Br  0  0  0  0  0  0  0  0  0  0  0  0
    8.0179   12.7426   24.1428 C   0  0  0  0  0  0  0  0  0  0  0  0
   11.0629   14.3098   22.9625 C   0  0  0  0  0  0  0  0  0  0  0  0
   11.0825   14.4267   21.7495 O   0  0  0  0  0  0  0  0  0  0  0  0
   11.9559   15.0009   23.7747 N   0  0  0  0  0  0  0  0  0  0  0  0
  1  2  2  0
  2  3  1  0
  3  4  1  0
  4  5  1  0
  5  6  1  0
  6  7  2  0
  7  8  1  0
  8  9  1  0
  8 10  2  0
 10 11  1  0
 11 12  1  0
 12 13  1  0
 13 14  2  0
 13 15  1  0
 15 16  1  1
 15 17  1  0
 17 18  1  0
 11 19  2  0
  5 20  1  0
 20 21  2  0
 20 22  1  0
 22  2  1  0
 19  6  1  0
M  END
>  <alias>  (832) 
None

>  <rmsd(smina/fragmenstein)>  (832) 
0.545

>  <smiles>  (832) 
O=C1CCN(c2cc(Br)cc(NC(=O)[C@@H](O)CBr)c2)C(=O)N1

>  <gnina_score>  (832) 
5.533

>  <inspiration_score>  (832) 
None

>  <energy_score>  (832) 
-1.797264

>  <distance_score>  (832) 
1.105795

>  <gnina_score_min>  (832) 
5.581

>  <inchikey>  (832) 
UUZNFPDMAPIKEO-JTQLQIEISA-N

>  <exports>  (832) 
['/opt/xchem-fragalysis-2/maxwin/BulkDock/OUTPUTS/openbind_a71ev2a_c2_elabs_1LOUU54.sdf', '/opt/xchem-fragalysis-2/maxwin/BulkDock/OUTPUTS/openbind_a71ev2a_c2_elabs_1LSYIDY.sdf']

>  <name>  (832) 
P546660

>  <ref_pdb>  (832) 
A0884a

>  <subsites>  (832) 
None

>  <HIPPO Pose ID>  (832) 
546660

>  <ref_mols>  (832) 
A0884a

>  <HIPPO Compound ID>  (832) 
385237

>  <tags>  (832) 
openbind_a71ev2a_c2_elabs,syndirella_product,openbind_a71ev2a_c2_elabs_fragonly_scored_top80percent,BulkDock Fragalysis export,openbind_a71ev2a_c2_elabs_scored,openbind_a71ev2a_c2_elabs_scored_top80percent,openbind_a71ev2a_c2_elabs_activefrags_only_scored_5.2plus,openbind_a71ev2a_c2_elabs_activefrags_only_scored_5.5plus,syndirella_placed

>  <smina_score_min>  (832) 
-2.278

$$$$
P546661
     RDKit          3D

 22 23  0  0  0  0  0  0  0  0999 V2000
    7.6919   14.5226   24.2706 C   0  0  0  0  0  0  0  0  0  0  0  0
    8.1466   13.0880   24.2330 C   0  0  0  0  0  0  0  0  0  0  0  0
    7.4570   12.1284   25.0094 C   0  0  0  0  0  0  0  0  0  0  0  0
    6.3815   12.5119   25.8162 N   0  0  0  0  0  0  0  0  0  0  0  0
    5.6827   11.7654   26.9928 C   0  0  0  0  0  0  0  0  0  0  0  0
    5.8519   10.6870   27.4128 O   0  0  0  0  0  0  0  0  0  0  0  0
    4.5913   12.7347   27.4923 C   0  0  2  0  0  0  0  0  0  0  0  0
    5.1807   13.9915   27.8339 O   0  0  0  0  0  0  0  0  0  0  0  0
    3.8373   12.1229   28.6658 C   0  0  0  0  0  0  0  0  0  0  0  0
    2.1255   13.0363   28.9158 Br  0  0  0  0  0  0  0  0  0  0  0  0
    7.8277   10.7841   24.9622 C   0  0  0  0  0  0  0  0  0  0  0  0
    8.8916   10.3746   24.1679 C   0  0  0  0  0  0  0  0  0  0  0  0
    9.6317   11.3168   23.4687 C   0  0  0  0  0  0  0  0  0  0  0  0
    9.2869   12.6744   23.5042 C   0  0  0  0  0  0  0  0  0  0  0  0
   10.1321   13.5790   22.7856 N   0  0  0  0  0  0  0  0  0  0  0  0
    9.6260   14.2032   21.6413 C   0  0  0  0  0  0  0  0  0  0  0  0
    8.4708   14.0591   21.2269 O   0  0  0  0  0  0  0  0  0  0  0  0
   10.5566   15.1491   20.9235 C   0  0  0  0  0  0  0  0  0  0  0  0
   11.9877   14.7325   21.1250 C   0  0  0  0  0  0  0  0  0  0  0  0
   12.2512   14.5448   22.5162 N   0  0  0  0  0  0  0  0  0  0  0  0
   11.4247   13.7707   23.2681 C   0  0  0  0  0  0  0  0  0  0  0  0
   11.8702   13.3524   24.3326 O   0  0  0  0  0  0  0  0  0  0  0  0
  1  2  1  0
  2  3  2  0
  3  4  1  0
  4  5  1  0
  5  6  2  0
  5  7  1  0
  7  8  1  1
  7  9  1  0
  9 10  1  0
  3 11  1  0
 11 12  2  0
 12 13  1  0
 13 14  2  0
 14 15  1  0
 15 16  1  0
 16 17  2  0
 16 18  1  0
 18 19  1  0
 19 20  1  0
 20 21  1  0
 21 22  2  0
 14  2  1  0
 21 15  1  0
M  END
>  <alias>  (833) 
None

>  <rmsd(smina/fragmenstein)>  (833) 
0.428

>  <smiles>  (833) 
Cc1c(NC(=O)[C@H](O)CBr)cccc1N1C(=O)CCNC1=O

>  <gnina_score>  (833) 
5.257

>  <inspiration_score>  (833) 
None

>  <energy_score>  (833) 
-23.864526

>  <distance_score>  (833) 
1.358046

>  <gnina_score_min>  (833) 
5.228

>  <inchikey>  (833) 
LJZYJBWRBRTJES-LLVKDONJSA-N

>  <exports>  (833) 
['/opt/xchem-fragalysis-2/maxwin/BulkDock/OUTPUTS/openbind_a71ev2a_c2_elabs_1LOUU54.sdf', '/opt/xchem-fragalysis-2/maxwin/BulkDock/OUTPUTS/openbind_a71ev2a_c2_elabs_1LSYIDY.sdf']

>  <name>  (833) 
P546661

>  <ref_pdb>  (833) 
A0884a

>  <subsites>  (833) 
None

>  <HIPPO Pose ID>  (833) 
546661

>  <ref_mols>  (833) 
A0884a

>  <HIPPO Compound ID>  (833) 
385238

>  <tags>  (833) 
openbind_a71ev2a_c2_elabs,syndirella_product,openbind_a71ev2a_c2_elabs_fragonly_scored_top80percent,openbind_a71ev2a_c2_elabs_scored,BulkDock Fragalysis export,openbind_a71ev2a_c2_elabs_scored_top80percent,openbind_a71ev2a_c2_elabs_activefrags_only_scored_5.2plus,syndirella_placed

>  <smina_score_min>  (833) 
-7.053

$$$$
P546663
     RDKit          3D

 22 23  0  0  0  0  0  0  0  0999 V2000
    1.7304   12.8776   30.4244 C   0  0  0  0  0  0  0  0  0  0  0  0
    2.2288   13.6630   28.8727 S   0  0  0  0  0  0  0  0  0  0  0  0
    3.5196   12.6134   28.3929 C   0  0  0  0  0  0  0  0  0  0  0  0
    4.3344   12.9377   27.3794 C   0  0  0  0  0  0  0  0  0  0  0  0
    5.3887   11.9635   26.9640 C   0  0  0  0  0  0  0  0  0  0  0  0
    5.4465   10.8839   27.4058 O   0  0  0  0  0  0  0  0  0  0  0  0
    6.2765   12.6638   25.9034 N   0  0  0  0  0  0  0  0  0  0  0  0
    7.3253   12.1648   25.1244 C   0  0  0  0  0  0  0  0  0  0  0  0
    7.5544   10.7880   25.0947 C   0  0  0  0  0  0  0  0  0  0  0  0
    8.5825   10.2568   24.3249 C   0  0  0  0  0  0  0  0  0  0  0  0
    9.4406   11.0987   23.6411 C   0  0  0  0  0  0  0  0  0  0  0  0
    9.2556   12.4852   23.6903 C   0  0  0  0  0  0  0  0  0  0  0  0
   10.3285   13.2603   23.1799 N   0  0  0  0  0  0  0  0  0  0  0  0
   11.4030   13.4684   24.0175 C   0  0  0  0  0  0  0  0  0  0  0  0
   11.3632   13.4682   25.2441 O   0  0  0  0  0  0  0  0  0  0  0  0
   12.6680   13.7389   23.2850 C   0  0  0  0  0  0  0  0  0  0  0  0
   12.4312   14.9742   22.4783 C   0  0  0  0  0  0  0  0  0  0  0  0
   11.2611   14.7906   21.6791 N   0  0  0  0  0  0  0  0  0  0  0  0
   10.2034   14.0143   22.0379 C   0  0  0  0  0  0  0  0  0  0  0  0
    9.2053   14.0595   21.3313 O   0  0  0  0  0  0  0  0  0  0  0  0
    8.1480   13.0352   24.3760 C   0  0  0  0  0  0  0  0  0  0  0  0
    7.9164   14.5196   24.4053 C   0  0  0  0  0  0  0  0  0  0  0  0
  1  2  1  0
  2  3  1  0
  3  4  2  0
  4  5  1  0
  5  6  2  0
  5  7  1  0
  7  8  1  0
  8  9  2  0
  9 10  1  0
 10 11  2  0
 11 12  1  0
 12 13  1  0
 13 14  1  0
 14 15  2  0
 14 16  1  0
 16 17  1  0
 17 18  1  0
 18 19  1  0
 19 20  2  0
 12 21  2  0
 21 22  1  0
 21  8  1  0
 19 13  1  0
M  END
>  <alias>  (834) 
None

>  <rmsd(smina/fragmenstein)>  (834) 
0.635

>  <smiles>  (834) 
CS/C=C/C(=O)Nc1cccc(N2C(=O)CCNC2=O)c1C

>  <gnina_score>  (834) 
5.409

>  <inspiration_score>  (834) 
None

>  <energy_score>  (834) 
-34.566048

>  <distance_score>  (834) 
1.660035

>  <gnina_score_min>  (834) 
5.407

>  <inchikey>  (834) 
MTHFHUFFUZQHGI-VQHVLOKHSA-N

>  <exports>  (834) 
['/opt/xchem-fragalysis-2/maxwin/BulkDock/OUTPUTS/openbind_a71ev2a_c2_elabs_1LOUU54.sdf', '/opt/xchem-fragalysis-2/maxwin/BulkDock/OUTPUTS/openbind_a71ev2a_c2_elabs_1LSYIDY.sdf']

>  <name>  (834) 
P546663

>  <ref_pdb>  (834) 
A0884a

>  <subsites>  (834) 
None

>  <HIPPO Pose ID>  (834) 
546663

>  <ref_mols>  (834) 
A0884a

>  <HIPPO Compound ID>  (834) 
385239

>  <tags>  (834) 
openbind_a71ev2a_c2_elabs,syndirella_product,openbind_a71ev2a_c2_elabs_fragonly_scored_top80percent,openbind_a71ev2a_c2_elabs_scored,BulkDock Fragalysis export,openbind_a71ev2a_c2_elabs_scored_top80percent,openbind_a71ev2a_c2_elabs_activefrags_only_scored_5.2plus,syndirella_placed

>  <smina_score_min>  (834) 
-6.364

$$$$
P546665
     RDKit          3D

 22 23  0  0  0  0  0  0  0  0999 V2000
    9.0494    9.5627   23.9109 C   0  0  0  0  0  0  0  0  0  0  0  0
    8.7929   11.0076   24.1252 C   0  0  0  0  0  0  0  0  0  0  0  0
    7.7027   11.4758   24.8704 C   0  0  0  0  0  0  0  0  0  0  0  0
    7.4475   12.8447   24.9381 C   0  0  0  0  0  0  0  0  0  0  0  0
    6.3735   13.3692   25.6482 N   0  0  0  0  0  0  0  0  0  0  0  0
    5.3804   12.6820   26.6389 C   0  0  0  0  0  0  0  0  0  0  0  0
    5.2711   11.5556   26.9452 O   0  0  0  0  0  0  0  0  0  0  0  0
    4.4133   13.7774   27.1657 C   0  0  0  0  0  0  0  0  0  0  0  0
    3.6232   14.4659   26.0546 C   0  0  0  0  0  0  0  0  0  0  0  0
    3.4567   13.2001   28.2127 C   0  0  0  0  0  0  0  0  0  0  0  0
    5.5276   15.1247   28.0825 Br  0  0  0  0  0  0  0  0  0  0  0  0
    8.2736   13.7387   24.2588 C   0  0  0  0  0  0  0  0  0  0  0  0
    9.3830   13.2681   23.5633 C   0  0  0  0  0  0  0  0  0  0  0  0
   10.2138   14.1674   22.8577 N   0  0  0  0  0  0  0  0  0  0  0  0
    9.6843   14.5799   21.5565 C   0  0  0  0  0  0  0  0  0  0  0  0
   10.6461   15.3709   20.7171 C   0  0  0  0  0  0  0  0  0  0  0  0
   12.0096   14.7779   20.8860 C   0  0  0  0  0  0  0  0  0  0  0  0
   12.7182   14.4074   19.9555 O   0  0  0  0  0  0  0  0  0  0  0  0
   12.3966   14.6938   22.1918 N   0  0  0  0  0  0  0  0  0  0  0  0
   11.5752   14.1442   23.1306 C   0  0  0  0  0  0  0  0  0  0  0  0
   12.0568   13.6452   24.1494 O   0  0  0  0  0  0  0  0  0  0  0  0
    9.6405   11.9064   23.4917 C   0  0  0  0  0  0  0  0  0  0  0  0
  1  2  1  0
  2  3  2  0
  3  4  1  0
  4  5  1  0
  5  6  1  0
  6  7  2  0
  6  8  1  0
  8  9  1  0
  8 10  1  0
  8 11  1  0
  4 12  2  0
 12 13  1  0
 13 14  1  0
 14 15  1  0
 15 16  1  0
 16 17  1  0
 17 18  2  0
 17 19  1  0
 19 20  1  0
 20 21  2  0
 13 22  2  0
 22  2  1  0
 20 14  1  0
M  END
>  <alias>  (835) 
None

>  <rmsd(smina/fragmenstein)>  (835) 
0.844

>  <smiles>  (835) 
Cc1cc(NC(=O)C(C)(C)Br)cc(N2CCC(=O)NC2=O)c1

>  <gnina_score>  (835) 
5.536

>  <inspiration_score>  (835) 
None

>  <energy_score>  (835) 
-14.775408

>  <distance_score>  (835) 
1.349542

>  <gnina_score_min>  (835) 
5.642

>  <inchikey>  (835) 
KKPALHXTIZQFDP-UHFFFAOYSA-N

>  <exports>  (835) 
['/opt/xchem-fragalysis-2/maxwin/BulkDock/OUTPUTS/openbind_a71ev2a_c2_elabs_1LOUU54.sdf', '/opt/xchem-fragalysis-2/maxwin/BulkDock/OUTPUTS/openbind_a71ev2a_c2_elabs_1LSYIDY.sdf']

>  <name>  (835) 
P546665

>  <ref_pdb>  (835) 
A0884a

>  <subsites>  (835) 
None

>  <HIPPO Pose ID>  (835) 
546665

>  <ref_mols>  (835) 
A0884a

>  <HIPPO Compound ID>  (835) 
385242

>  <tags>  (835) 
openbind_a71ev2a_c2_elabs,syndirella_product,openbind_a71ev2a_c2_elabs_fragonly_scored_top80percent,BulkDock Fragalysis export,openbind_a71ev2a_c2_elabs_scored,openbind_a71ev2a_c2_elabs_scored_top80percent,openbind_a71ev2a_c2_elabs_activefrags_only_scored_5.2plus,openbind_a71ev2a_c2_elabs_activefrags_only_scored_5.5plus,syndirella_placed

>  <smina_score_min>  (835) 
-7.061

$$$$
P546667
     RDKit          3D

 22 23  0  0  0  0  0  0  0  0999 V2000
    7.2883   14.5653   22.8816 C   0  0  0  0  0  0  0  0  0  0  0  0
    7.7010   13.3719   23.7022 C   0  0  0  0  0  0  0  0  0  0  0  0
    6.8402   12.9420   24.7501 C   0  0  0  0  0  0  0  0  0  0  0  0
    5.8228   13.7814   25.2185 N   0  0  0  0  0  0  0  0  0  0  0  0
    4.6693   13.5074   26.2460 C   0  0  0  0  0  0  0  0  0  0  0  0
    4.4496   12.5634   26.9075 O   0  0  0  0  0  0  0  0  0  0  0  0
    3.7607   14.7781   26.2431 C   0  0  0  0  0  0  0  0  0  0  0  0
    3.0913   15.0103   24.8878 C   0  0  0  0  0  0  0  0  0  0  0  0
    4.4986   16.0159   26.7494 C   0  0  0  0  0  0  0  0  0  0  0  0
    2.2772   14.4404   27.5362 Br  0  0  0  0  0  0  0  0  0  0  0  0
    6.9798   11.6709   25.3078 C   0  0  0  0  0  0  0  0  0  0  0  0
    7.9316   10.8055   24.8110 C   0  0  0  0  0  0  0  0  0  0  0  0
    8.8460   11.2687   23.8762 C   0  0  0  0  0  0  0  0  0  0  0  0
    8.8412   12.6032   23.3962 C   0  0  0  0  0  0  0  0  0  0  0  0
   10.0314   13.0915   22.7208 N   0  0  0  0  0  0  0  0  0  0  0  0
   11.2650   12.4303   23.0238 C   0  0  0  0  0  0  0  0  0  0  0  0
   11.8124   12.9824   24.3123 C   0  0  0  0  0  0  0  0  0  0  0  0
   11.7306   14.4591   24.2467 C   0  0  0  0  0  0  0  0  0  0  0  0
   11.8262   15.1367   25.2673 O   0  0  0  0  0  0  0  0  0  0  0  0
   11.4408   14.9346   23.0009 N   0  0  0  0  0  0  0  0  0  0  0  0
   10.3283   14.4119   22.3695 C   0  0  0  0  0  0  0  0  0  0  0  0
    9.7206   15.1139   21.5803 O   0  0  0  0  0  0  0  0  0  0  0  0
  1  2  1  0
  2  3  2  0
  3  4  1  0
  4  5  1  0
  5  6  2  0
  5  7  1  0
  7  8  1  0
  7  9  1  0
  7 10  1  0
  3 11  1  0
 11 12  2  0
 12 13  1  0
 13 14  2  0
 14 15  1  0
 15 16  1  0
 16 17  1  0
 17 18  1  0
 18 19  2  0
 18 20  1  0
 20 21  1  0
 21 22  2  0
 14  2  1  0
 21 15  1  0
M  END
>  <alias>  (836) 
None

>  <rmsd(smina/fragmenstein)>  (836) 
0.499

>  <smiles>  (836) 
Cc1c(NC(=O)C(C)(C)Br)cccc1N1CCC(=O)NC1=O

>  <gnina_score>  (836) 
5.502

>  <inspiration_score>  (836) 
None

>  <energy_score>  (836) 
-15.086964

>  <distance_score>  (836) 
1.939464

>  <gnina_score_min>  (836) 
5.533

>  <inchikey>  (836) 
TYPRIRNMCBZZNF-UHFFFAOYSA-N

>  <exports>  (836) 
['/opt/xchem-fragalysis-2/maxwin/BulkDock/OUTPUTS/openbind_a71ev2a_c2_elabs_1LOUU54.sdf', '/opt/xchem-fragalysis-2/maxwin/BulkDock/OUTPUTS/openbind_a71ev2a_c2_elabs_1LSYIDY.sdf']

>  <name>  (836) 
P546667

>  <ref_pdb>  (836) 
A0884a

>  <subsites>  (836) 
None

>  <HIPPO Pose ID>  (836) 
546667

>  <ref_mols>  (836) 
A0884a

>  <HIPPO Compound ID>  (836) 
385244

>  <tags>  (836) 
openbind_a71ev2a_c2_elabs,syndirella_product,openbind_a71ev2a_c2_elabs_fragonly_scored_top80percent,BulkDock Fragalysis export,openbind_a71ev2a_c2_elabs_scored,openbind_a71ev2a_c2_elabs_scored_top80percent,openbind_a71ev2a_c2_elabs_activefrags_only_scored_5.2plus,openbind_a71ev2a_c2_elabs_activefrags_only_scored_5.5plus,syndirella_placed

>  <smina_score_min>  (836) 
-5.286

$$$$
P546668
     RDKit          3D

 22 23  0  0  0  0  0  0  0  0999 V2000
    3.1880   13.6218   27.9825 C   0  0  0  0  0  0  0  0  0  0  0  0
    4.3169   14.0503   27.0413 C   0  0  0  0  0  0  0  0  0  0  0  0
    5.1811   15.1210   27.7040 C   0  0  0  0  0  0  0  0  0  0  0  0
    3.4701   14.8182   25.4379 Br  0  0  0  0  0  0  0  0  0  0  0  0
    5.1525   12.8225   26.5867 C   0  0  0  0  0  0  0  0  0  0  0  0
    4.9959   11.7589   27.0550 O   0  0  0  0  0  0  0  0  0  0  0  0
    6.1773   13.3154   25.5144 N   0  0  0  0  0  0  0  0  0  0  0  0
    7.2318   12.6487   24.9000 C   0  0  0  0  0  0  0  0  0  0  0  0
    7.4593   11.2860   25.0983 C   0  0  0  0  0  0  0  0  0  0  0  0
    8.5290   10.6647   24.4566 C   0  0  0  0  0  0  0  0  0  0  0  0
    9.3983   11.4186   23.6773 C   0  0  0  0  0  0  0  0  0  0  0  0
   10.4027   10.7880   23.0635 F   0  0  0  0  0  0  0  0  0  0  0  0
    9.1916   12.7863   23.4746 C   0  0  0  0  0  0  0  0  0  0  0  0
   10.0995   13.5469   22.6837 N   0  0  0  0  0  0  0  0  0  0  0  0
    9.5694   14.4785   21.6993 C   0  0  0  0  0  0  0  0  0  0  0  0
   10.5657   14.9178   20.6477 C   0  0  0  0  0  0  0  0  0  0  0  0
   11.9713   14.5629   21.0140 C   0  0  0  0  0  0  0  0  0  0  0  0
   12.8417   14.3845   20.1659 O   0  0  0  0  0  0  0  0  0  0  0  0
   12.2165   14.4720   22.3506 N   0  0  0  0  0  0  0  0  0  0  0  0
   11.3983   13.7253   23.1531 C   0  0  0  0  0  0  0  0  0  0  0  0
   11.8263   13.2672   24.2122 O   0  0  0  0  0  0  0  0  0  0  0  0
    8.0762   13.3881   24.0636 C   0  0  0  0  0  0  0  0  0  0  0  0
  1  2  1  0
  2  3  1  0
  2  4  1  0
  2  5  1  0
  5  6  2  0
  5  7  1  0
  7  8  1  0
  8  9  2  0
  9 10  1  0
 10 11  2  0
 11 12  1  0
 11 13  1  0
 13 14  1  0
 14 15  1  0
 15 16  1  0
 16 17  1  0
 17 18  2  0
 17 19  1  0
 19 20  1  0
 20 21  2  0
 13 22  2  0
 22  8  1  0
 20 14  1  0
M  END
>  <alias>  (837) 
None

>  <rmsd(smina/fragmenstein)>  (837) 
0.382

>  <smiles>  (837) 
CC(C)(Br)C(=O)Nc1ccc(F)c(N2CCC(=O)NC2=O)c1

>  <gnina_score>  (837) 
5.542

>  <inspiration_score>  (837) 
None

>  <energy_score>  (837) 
-32.295523

>  <distance_score>  (837) 
1.291845

>  <gnina_score_min>  (837) 
5.469

>  <inchikey>  (837) 
BNQILCSWJMCYMP-UHFFFAOYSA-N

>  <exports>  (837) 
['/opt/xchem-fragalysis-2/maxwin/BulkDock/OUTPUTS/openbind_a71ev2a_c2_elabs_1LOUU54.sdf', '/opt/xchem-fragalysis-2/maxwin/BulkDock/OUTPUTS/openbind_a71ev2a_c2_elabs_1LSYIDY.sdf']

>  <name>  (837) 
P546668

>  <ref_pdb>  (837) 
A0884a

>  <subsites>  (837) 
None

>  <HIPPO Pose ID>  (837) 
546668

>  <ref_mols>  (837) 
A0884a

>  <HIPPO Compound ID>  (837) 
385245

>  <tags>  (837) 
openbind_a71ev2a_c2_elabs,syndirella_product,openbind_a71ev2a_c2_elabs_fragonly_scored_top80percent,openbind_a71ev2a_c2_elabs_scored,BulkDock Fragalysis export,openbind_a71ev2a_c2_elabs_scored_top80percent,openbind_a71ev2a_c2_elabs_activefrags_only_scored_5.2plus,syndirella_placed

>  <smina_score_min>  (837) 
-7.106

$$$$
P546669
     RDKit          3D

 22 23  0  0  0  0  0  0  0  0999 V2000
    7.8755   14.4626   23.0284 C   0  0  0  0  0  0  0  0  0  0  0  0
    8.1458   13.0483   23.4563 C   0  0  0  0  0  0  0  0  0  0  0  0
    7.2996   12.4266   24.4047 C   0  0  0  0  0  0  0  0  0  0  0  0
    6.2925   13.1775   25.0175 N   0  0  0  0  0  0  0  0  0  0  0  0
    5.3316   12.8156   26.1961 C   0  0  0  0  0  0  0  0  0  0  0  0
    5.1890   11.8071   26.7775 O   0  0  0  0  0  0  0  0  0  0  0  0
    4.4752   14.0749   26.5010 C   0  0  0  0  0  0  0  0  0  0  0  0
    3.6604   14.5594   25.3036 C   0  0  0  0  0  0  0  0  0  0  0  0
    3.5544   13.8284   27.6992 C   0  0  0  0  0  0  0  0  0  0  0  0
    5.7415   15.4964   27.0289 Br  0  0  0  0  0  0  0  0  0  0  0  0
    7.4999   11.0921   24.7641 C   0  0  0  0  0  0  0  0  0  0  0  0
    8.5103   10.3499   24.1611 C   0  0  0  0  0  0  0  0  0  0  0  0
    9.4055   10.9714   23.2991 C   0  0  0  0  0  0  0  0  0  0  0  0
    9.3028   12.3533   23.0271 C   0  0  0  0  0  0  0  0  0  0  0  0
   10.5583   13.0204   23.0611 N   0  0  0  0  0  0  0  0  0  0  0  0
   11.0287   14.1012   22.3863 C   0  0  0  0  0  0  0  0  0  0  0  0
   10.7746   14.4985   21.2650 O   0  0  0  0  0  0  0  0  0  0  0  0
   11.9127   14.7927   23.2059 N   0  0  0  0  0  0  0  0  0  0  0  0
   12.1234   14.1329   24.4540 C   0  0  1  0  0  0  0  0  0  0  0  0
   11.8526   14.9392   25.7323 C   0  0  0  0  0  0  0  0  0  0  0  0
   11.0107   13.1708   24.3233 C   0  0  0  0  0  0  0  0  0  0  0  0
   10.4884   12.6667   25.2990 O   0  0  0  0  0  0  0  0  0  0  0  0
  1  2  1  0
  2  3  2  0
  3  4  1  0
  4  5  1  0
  5  6  2  0
  5  7  1  0
  7  8  1  0
  7  9  1  0
  7 10  1  0
  3 11  1  0
 11 12  2  0
 12 13  1  0
 13 14  2  0
 14 15  1  0
 15 16  1  0
 16 17  2  0
 16 18  1  0
 18 19  1  0
 19 20  1  1
 19 21  1  0
 21 22  2  0
 14  2  1  0
 21 15  1  0
M  END
>  <alias>  (838) 
None

>  <rmsd(smina/fragmenstein)>  (838) 
0.316

>  <smiles>  (838) 
Cc1c(NC(=O)C(C)(C)Br)cccc1N1C(=O)N[C@@H](C)C1=O

>  <gnina_score>  (838) 
5.467

>  <inspiration_score>  (838) 
None

>  <energy_score>  (838) 
-12.995216

>  <distance_score>  (838) 
1.406508

>  <gnina_score_min>  (838) 
5.426

>  <inchikey>  (838) 
ALFULMYFBFRBQB-VIFPVBQESA-N

>  <exports>  (838) 
['/opt/xchem-fragalysis-2/maxwin/BulkDock/OUTPUTS/openbind_a71ev2a_c2_elabs_1LOUU54.sdf', '/opt/xchem-fragalysis-2/maxwin/BulkDock/OUTPUTS/openbind_a71ev2a_c2_elabs_1LSYIDY.sdf']

>  <name>  (838) 
P546669

>  <ref_pdb>  (838) 
A0884a

>  <subsites>  (838) 
None

>  <HIPPO Pose ID>  (838) 
546669

>  <ref_mols>  (838) 
A0884a

>  <HIPPO Compound ID>  (838) 
385247

>  <tags>  (838) 
openbind_a71ev2a_c2_elabs,syndirella_product,openbind_a71ev2a_c2_elabs_fragonly_scored_top80percent,openbind_a71ev2a_c2_elabs_scored,BulkDock Fragalysis export,openbind_a71ev2a_c2_elabs_scored_top80percent,openbind_a71ev2a_c2_elabs_activefrags_only_scored_5.2plus,syndirella_placed

>  <smina_score_min>  (838) 
-4.745

$$$$
P546670
     RDKit          3D

 22 23  0  0  0  0  0  0  0  0999 V2000
    3.5614   14.9172   24.4584 C   0  0  0  0  0  0  0  0  0  0  0  0
    4.1760   14.6353   25.8295 C   0  0  0  0  0  0  0  0  0  0  0  0
    4.9074   15.8461   26.4042 C   0  0  0  0  0  0  0  0  0  0  0  0
    2.6380   14.2740   27.0520 Br  0  0  0  0  0  0  0  0  0  0  0  0
    5.0809   13.3614   25.8408 C   0  0  0  0  0  0  0  0  0  0  0  0
    4.8785   12.4431   26.5421 O   0  0  0  0  0  0  0  0  0  0  0  0
    6.2222   13.6065   24.7924 N   0  0  0  0  0  0  0  0  0  0  0  0
    7.2386   12.7658   24.3523 C   0  0  0  0  0  0  0  0  0  0  0  0
    7.2900   11.4309   24.7569 C   0  0  0  0  0  0  0  0  0  0  0  0
    8.2835   10.5990   24.2586 C   0  0  0  0  0  0  0  0  0  0  0  0
    8.2966    9.3098   24.6078 F   0  0  0  0  0  0  0  0  0  0  0  0
    9.2950   11.0990   23.4586 C   0  0  0  0  0  0  0  0  0  0  0  0
    9.3460   12.4819   23.2105 C   0  0  0  0  0  0  0  0  0  0  0  0
   10.6322   13.0698   23.3631 N   0  0  0  0  0  0  0  0  0  0  0  0
   11.0978   12.9196   24.7173 C   0  0  0  0  0  0  0  0  0  0  0  0
   10.8839   14.1551   25.5082 C   0  0  0  0  0  0  0  0  0  0  0  0
   11.7571   15.1236   24.8792 C   0  0  0  0  0  0  0  0  0  0  0  0
   12.0721   16.0876   25.5865 O   0  0  0  0  0  0  0  0  0  0  0  0
   11.9313   14.9835   23.5136 N   0  0  0  0  0  0  0  0  0  0  0  0
   11.0809   14.2202   22.7296 C   0  0  0  0  0  0  0  0  0  0  0  0
   10.7374   14.6120   21.6254 O   0  0  0  0  0  0  0  0  0  0  0  0
    8.2440   13.2876   23.5346 C   0  0  0  0  0  0  0  0  0  0  0  0
  1  2  1  0
  2  3  1  0
  2  4  1  0
  2  5  1  0
  5  6  2  0
  5  7  1  0
  7  8  1  0
  8  9  2  0
  9 10  1  0
 10 11  1  0
 10 12  2  0
 12 13  1  0
 13 14  1  0
 14 15  1  0
 15 16  1  0
 16 17  1  0
 17 18  2  0
 17 19  1  0
 19 20  1  0
 20 21  2  0
 13 22  2  0
 22  8  1  0
 20 14  1  0
M  END
>  <alias>  (839) 
None

>  <rmsd(smina/fragmenstein)>  (839) 
0.701

>  <smiles>  (839) 
CC(C)(Br)C(=O)Nc1cc(F)cc(N2CCC(=O)NC2=O)c1

>  <gnina_score>  (839) 
5.661

>  <inspiration_score>  (839) 
None

>  <energy_score>  (839) 
-16.414935

>  <distance_score>  (839) 
1.613301

>  <gnina_score_min>  (839) 
5.761

>  <inchikey>  (839) 
QNGRKMGXXMEWQP-UHFFFAOYSA-N

>  <exports>  (839) 
['/opt/xchem-fragalysis-2/maxwin/BulkDock/OUTPUTS/openbind_a71ev2a_c2_elabs_1LOUU54.sdf', '/opt/xchem-fragalysis-2/maxwin/BulkDock/OUTPUTS/openbind_a71ev2a_c2_elabs_1LSYIDY.sdf']

>  <name>  (839) 
P546670

>  <ref_pdb>  (839) 
A0884a

>  <subsites>  (839) 
None

>  <HIPPO Pose ID>  (839) 
546670

>  <ref_mols>  (839) 
A0884a

>  <HIPPO Compound ID>  (839) 
385248

>  <tags>  (839) 
openbind_a71ev2a_c2_elabs,syndirella_product,openbind_a71ev2a_c2_elabs_fragonly_scored_top80percent,BulkDock Fragalysis export,openbind_a71ev2a_c2_elabs_scored,openbind_a71ev2a_c2_elabs_scored_top80percent,openbind_a71ev2a_c2_elabs_activefrags_only_scored_5.2plus,openbind_a71ev2a_c2_elabs_activefrags_only_scored_5.5plus,syndirella_placed

>  <smina_score_min>  (839) 
-4.457

$$$$
P546671
     RDKit          3D

 22 23  0  0  0  0  0  0  0  0999 V2000
   11.3871   15.0061   19.3238 C   0  0  0  0  0  0  0  0  0  0  0  0
   11.7415   15.2876   20.7751 C   0  0  0  0  0  0  0  0  0  0  0  0
   11.6860   14.0488   21.6077 C   0  0  1  0  0  0  0  0  0  0  0  0
   12.2664   14.1972   22.9060 N   0  0  0  0  0  0  0  0  0  0  0  0
   11.5084   13.5244   23.8376 C   0  0  0  0  0  0  0  0  0  0  0  0
   11.7826   13.5212   25.0250 O   0  0  0  0  0  0  0  0  0  0  0  0
   10.4245   12.9750   23.2083 N   0  0  0  0  0  0  0  0  0  0  0  0
    9.3508   12.4003   23.8884 C   0  0  0  0  0  0  0  0  0  0  0  0
    9.2772   11.0078   23.9327 C   0  0  0  0  0  0  0  0  0  0  0  0
    8.2435   10.4022   24.6345 C   0  0  0  0  0  0  0  0  0  0  0  0
    7.2839   11.1793   25.2854 C   0  0  0  0  0  0  0  0  0  0  0  0
    7.3250   12.5698   25.1880 C   0  0  0  0  0  0  0  0  0  0  0  0
    6.3460   13.3754   25.7610 N   0  0  0  0  0  0  0  0  0  0  0  0
    5.1065   12.9990   26.6376 C   0  0  0  0  0  0  0  0  0  0  0  0
    4.7695   11.9624   27.0715 O   0  0  0  0  0  0  0  0  0  0  0  0
    4.3383   14.3097   26.9585 C   0  0  0  0  0  0  0  0  0  0  0  0
    3.0353   14.0070   27.7038 C   0  0  0  0  0  0  0  0  0  0  0  0
    5.1867   15.2979   27.7557 C   0  0  0  0  0  0  0  0  0  0  0  0
    3.8395   15.1356   25.2430 Br  0  0  0  0  0  0  0  0  0  0  0  0
    8.3597   13.1837   24.4825 C   0  0  0  0  0  0  0  0  0  0  0  0
   10.2776   13.6500   22.0288 C   0  0  0  0  0  0  0  0  0  0  0  0
    9.2344   13.8862   21.4346 O   0  0  0  0  0  0  0  0  0  0  0  0
  1  2  1  0
  3  2  1  1
  3  4  1  0
  4  5  1  0
  5  6  2  0
  5  7  1  0
  7  8  1  0
  8  9  2  0
  9 10  1  0
 10 11  2  0
 11 12  1  0
 12 13  1  0
 13 14  1  0
 14 15  2  0
 14 16  1  0
 16 17  1  0
 16 18  1  0
 16 19  1  0
 12 20  2  0
  7 21  1  0
 21 22  2  0
 21  3  1  0
 20  8  1  0
M  END
>  <alias>  (840) 
None

>  <rmsd(smina/fragmenstein)>  (840) 
1.009

>  <smiles>  (840) 
CC[C@H]1NC(=O)N(c2cccc(NC(=O)C(C)(C)Br)c2)C1=O

>  <gnina_score>  (840) 
5.075

>  <inspiration_score>  (840) 
None

>  <energy_score>  (840) 
-25.21397

>  <distance_score>  (840) 
1.276641

>  <gnina_score_min>  (840) 
5.315

>  <inchikey>  (840) 
LQKNJIWJVSRDFT-LLVKDONJSA-N

>  <exports>  (840) 
['/opt/xchem-fragalysis-2/maxwin/BulkDock/OUTPUTS/openbind_a71ev2a_c2_elabs_1LOUU54.sdf', '/opt/xchem-fragalysis-2/maxwin/BulkDock/OUTPUTS/openbind_a71ev2a_c2_elabs_1LSYIDY.sdf']

>  <name>  (840) 
P546671

>  <ref_pdb>  (840) 
A0884a

>  <subsites>  (840) 
None

>  <HIPPO Pose ID>  (840) 
546671

>  <ref_mols>  (840) 
A0884a

>  <HIPPO Compound ID>  (840) 
385249

>  <tags>  (840) 
openbind_a71ev2a_c2_elabs,syndirella_product,openbind_a71ev2a_c2_elabs_fragonly_scored_top80percent,openbind_a71ev2a_c2_elabs_scored,BulkDock Fragalysis export,openbind_a71ev2a_c2_elabs_scored_top80percent,openbind_a71ev2a_c2_elabs_activefrags_only_scored_5.2plus,syndirella_placed

>  <smina_score_min>  (840) 
-6.286

$$$$
P546672
     RDKit          3D

 22 23  0  0  0  0  0  0  0  0999 V2000
    8.3261   14.4794   24.9781 C   0  0  0  0  0  0  0  0  0  0  0  0
    8.5344   13.0103   24.7632 C   0  0  0  0  0  0  0  0  0  0  0  0
    7.6744   12.0490   25.3318 C   0  0  0  0  0  0  0  0  0  0  0  0
    6.7108   12.3134   26.3057 N   0  0  0  0  0  0  0  0  0  0  0  0
    6.6597   13.4219   27.4101 C   0  0  0  0  0  0  0  0  0  0  0  0
    7.4554   14.2279   27.7143 O   0  0  0  0  0  0  0  0  0  0  0  0
    5.2519   13.3738   28.0583 C   0  0  0  0  0  0  0  0  0  0  0  0
    5.1934   14.2385   29.3181 C   0  0  0  0  0  0  0  0  0  0  0  0
    4.1709   13.7961   27.0669 C   0  0  0  0  0  0  0  0  0  0  0  0
    4.9060   11.5093   28.6155 Br  0  0  0  0  0  0  0  0  0  0  0  0
    7.7635   10.7110   24.9371 C   0  0  0  0  0  0  0  0  0  0  0  0
    8.7275   10.3106   24.0222 C   0  0  0  0  0  0  0  0  0  0  0  0
    9.6095   11.2437   23.5103 C   0  0  0  0  0  0  0  0  0  0  0  0
   10.4734   10.8431   22.5803 F   0  0  0  0  0  0  0  0  0  0  0  0
    9.5672   12.5802   23.8980 C   0  0  0  0  0  0  0  0  0  0  0  0
   10.5514   13.4716   23.4170 N   0  0  0  0  0  0  0  0  0  0  0  0
   10.5004   14.0662   22.1887 C   0  0  0  0  0  0  0  0  0  0  0  0
    9.5409   14.1177   21.4369 O   0  0  0  0  0  0  0  0  0  0  0  0
   11.8403   14.6847   21.8729 C   0  0  0  0  0  0  0  0  0  0  0  0
   12.5816   14.3133   23.0278 N   0  0  0  0  0  0  0  0  0  0  0  0
   11.8465   13.4962   23.8512 C   0  0  0  0  0  0  0  0  0  0  0  0
   12.3428   12.9271   24.8070 O   0  0  0  0  0  0  0  0  0  0  0  0
  1  2  1  0
  2  3  2  0
  3  4  1  0
  4  5  1  0
  5  6  2  0
  5  7  1  0
  7  8  1  0
  7  9  1  0
  7 10  1  0
  3 11  1  0
 11 12  2  0
 12 13  1  0
 13 14  1  0
 13 15  2  0
 15 16  1  0
 16 17  1  0
 17 18  2  0
 17 19  1  0
 19 20  1  0
 20 21  1  0
 21 22  2  0
 15  2  1  0
 21 16  1  0
M  END
>  <alias>  (841) 
None

>  <rmsd(smina/fragmenstein)>  (841) 
0.606

>  <smiles>  (841) 
Cc1c(NC(=O)C(C)(C)Br)ccc(F)c1N1C(=O)CNC1=O

>  <gnina_score>  (841) 
5.336

>  <inspiration_score>  (841) 
None

>  <energy_score>  (841) 
-39.926364

>  <distance_score>  (841) 
1.659939

>  <gnina_score_min>  (841) 
5.322

>  <inchikey>  (841) 
MNMWTPXLHGQZAF-UHFFFAOYSA-N

>  <exports>  (841) 
['/opt/xchem-fragalysis-2/maxwin/BulkDock/OUTPUTS/openbind_a71ev2a_c2_elabs_1LOUU54.sdf', '/opt/xchem-fragalysis-2/maxwin/BulkDock/OUTPUTS/openbind_a71ev2a_c2_elabs_1LSYIDY.sdf']

>  <name>  (841) 
P546672

>  <ref_pdb>  (841) 
A0884a

>  <subsites>  (841) 
None

>  <HIPPO Pose ID>  (841) 
546672

>  <ref_mols>  (841) 
A0884a

>  <HIPPO Compound ID>  (841) 
385250

>  <tags>  (841) 
openbind_a71ev2a_c2_elabs,syndirella_product,openbind_a71ev2a_c2_elabs_fragonly_scored_top80percent,openbind_a71ev2a_c2_elabs_scored,BulkDock Fragalysis export,openbind_a71ev2a_c2_elabs_scored_top80percent,openbind_a71ev2a_c2_elabs_activefrags_only_scored_5.2plus,syndirella_placed

>  <smina_score_min>  (841) 
-6.599

$$$$
P546674
     RDKit          3D

 22 24  0  0  0  0  0  0  0  0999 V2000
    7.7087   14.5218   24.2783 C   0  0  0  0  0  0  0  0  0  0  0  0
    8.1470   13.0824   24.2322 C   0  0  0  0  0  0  0  0  0  0  0  0
    7.4555   12.1273   25.0140 C   0  0  0  0  0  0  0  0  0  0  0  0
    6.4056   12.5306   25.8455 N   0  0  0  0  0  0  0  0  0  0  0  0
    5.6378   11.7538   26.9469 C   0  0  0  0  0  0  0  0  0  0  0  0
    5.8146   10.6847   27.3816 O   0  0  0  0  0  0  0  0  0  0  0  0
    4.5529   12.6574   27.4402 C   0  0  0  0  0  0  0  0  0  0  0  0
    3.7677   12.2679   28.4230 C   0  0  0  0  0  0  0  0  0  0  0  0
    3.4446   11.2567   29.3510 C   0  0  0  0  0  0  0  0  0  0  0  0
    2.6757   12.6141   29.2450 C   0  0  0  0  0  0  0  0  0  0  0  0
    7.8194   10.7816   24.9656 C   0  0  0  0  0  0  0  0  0  0  0  0
    8.8779   10.3665   24.1662 C   0  0  0  0  0  0  0  0  0  0  0  0
    9.6194   11.3038   23.4616 C   0  0  0  0  0  0  0  0  0  0  0  0
    9.2811   12.6627   23.4971 C   0  0  0  0  0  0  0  0  0  0  0  0
   10.1290   13.5645   22.7779 N   0  0  0  0  0  0  0  0  0  0  0  0
    9.6228   14.1961   21.6381 C   0  0  0  0  0  0  0  0  0  0  0  0
    8.4648   14.0594   21.2284 O   0  0  0  0  0  0  0  0  0  0  0  0
   10.5549   15.1425   20.9222 C   0  0  0  0  0  0  0  0  0  0  0  0
   11.9865   14.7290   21.1274 C   0  0  0  0  0  0  0  0  0  0  0  0
   12.2454   14.5384   22.5190 N   0  0  0  0  0  0  0  0  0  0  0  0
   11.4191   13.7592   23.2655 C   0  0  0  0  0  0  0  0  0  0  0  0
   11.8606   13.3402   24.3310 O   0  0  0  0  0  0  0  0  0  0  0  0
  1  2  1  0
  2  3  2  0
  3  4  1  0
  4  5  1  0
  5  6  2  0
  5  7  1  0
  7  8  2  3
  8  9  1  0
  9 10  1  0
  3 11  1  0
 11 12  2  0
 12 13  1  0
 13 14  2  0
 14 15  1  0
 15 16  1  0
 16 17  2  0
 16 18  1  0
 18 19  1  0
 19 20  1  0
 20 21  1  0
 21 22  2  0
 14  2  1  0
 21 15  1  0
 10  8  1  0
M  END
>  <alias>  (842) 
None

>  <rmsd(smina/fragmenstein)>  (842) 
0.465

>  <smiles>  (842) 
Cc1c(NC(=O)C=C2CC2)cccc1N1C(=O)CCNC1=O

>  <gnina_score>  (842) 
5.369

>  <inspiration_score>  (842) 
None

>  <energy_score>  (842) 
-49.030801

>  <distance_score>  (842) 
1.348833

>  <gnina_score_min>  (842) 
5.33

>  <inchikey>  (842) 
WSWPRRLZTUVNAD-UHFFFAOYSA-N

>  <exports>  (842) 
['/opt/xchem-fragalysis-2/maxwin/BulkDock/OUTPUTS/openbind_a71ev2a_c2_elabs_1LOUU54.sdf', '/opt/xchem-fragalysis-2/maxwin/BulkDock/OUTPUTS/openbind_a71ev2a_c2_elabs_1LSYIDY.sdf']

>  <name>  (842) 
P546674

>  <ref_pdb>  (842) 
A0884a

>  <subsites>  (842) 
None

>  <HIPPO Pose ID>  (842) 
546674

>  <ref_mols>  (842) 
A0884a

>  <HIPPO Compound ID>  (842) 
385255

>  <tags>  (842) 
openbind_a71ev2a_c2_elabs,syndirella_product,openbind_a71ev2a_c2_elabs_fragonly_scored_top80percent,openbind_a71ev2a_c2_elabs_scored,BulkDock Fragalysis export,openbind_a71ev2a_c2_elabs_scored_top80percent,openbind_a71ev2a_c2_elabs_activefrags_only_scored_5.2plus,syndirella_placed

>  <smina_score_min>  (842) 
-7.36

$$$$
P546675
     RDKit          3D

 22 24  0  0  0  0  0  0  0  0999 V2000
    5.6915   10.9250   27.0066 O   0  0  0  0  0  0  0  0  0  0  0  0
    5.6422   12.0563   26.7268 C   0  0  0  0  0  0  0  0  0  0  0  0
    4.6495   13.0074   27.3229 C   0  0  0  0  0  0  0  0  0  0  0  0
    4.1545   13.0066   28.5511 C   0  0  0  0  0  0  0  0  0  0  0  0
    4.7230   11.9354   29.4721 C   0  0  0  0  0  0  0  0  0  0  0  0
    3.7169   12.8801   29.8953 C   0  0  0  0  0  0  0  0  0  0  0  0
    6.4764   12.8766   25.7109 N   0  0  0  0  0  0  0  0  0  0  0  0
    7.5659   12.5062   24.9286 C   0  0  0  0  0  0  0  0  0  0  0  0
    7.9386   11.1690   24.7756 C   0  0  0  0  0  0  0  0  0  0  0  0
    9.0251   10.8603   23.9628 C   0  0  0  0  0  0  0  0  0  0  0  0
    9.4914    9.2653   23.6178 Cl  0  0  0  0  0  0  0  0  0  0  0  0
    9.7680   11.8537   23.3593 C   0  0  0  0  0  0  0  0  0  0  0  0
    9.4050   13.1817   23.5244 C   0  0  0  0  0  0  0  0  0  0  0  0
   10.1719   14.1781   22.8726 N   0  0  0  0  0  0  0  0  0  0  0  0
    9.6431   14.5818   21.5674 C   0  0  0  0  0  0  0  0  0  0  0  0
   10.5957   15.3862   20.7284 C   0  0  0  0  0  0  0  0  0  0  0  0
   11.9676   14.8139   20.9042 C   0  0  0  0  0  0  0  0  0  0  0  0
   12.6851   14.4517   19.9778 O   0  0  0  0  0  0  0  0  0  0  0  0
   12.3528   14.7469   22.2112 N   0  0  0  0  0  0  0  0  0  0  0  0
   11.5354   14.1997   23.1537 C   0  0  0  0  0  0  0  0  0  0  0  0
   12.0170   13.7239   24.1833 O   0  0  0  0  0  0  0  0  0  0  0  0
    8.2823   13.5142   24.2762 C   0  0  0  0  0  0  0  0  0  0  0  0
  1  2  2  0
  2  3  1  0
  3  4  2  3
  4  5  1  0
  5  6  1  0
  2  7  1  0
  7  8  1  0
  8  9  2  0
  9 10  1  0
 10 11  1  0
 10 12  2  0
 12 13  1  0
 13 14  1  0
 14 15  1  0
 15 16  1  0
 16 17  1  0
 17 18  2  0
 17 19  1  0
 19 20  1  0
 20 21  2  0
 13 22  2  0
  6  4  1  0
 22  8  1  0
 20 14  1  0
M  END
>  <alias>  (843) 
None

>  <rmsd(smina/fragmenstein)>  (843) 
0.726

>  <smiles>  (843) 
O=C(C=C1CC1)Nc1cc(Cl)cc(N2CCC(=O)NC2=O)c1

>  <gnina_score>  (843) 
5.504

>  <inspiration_score>  (843) 
None

>  <energy_score>  (843) 
-16.712763

>  <distance_score>  (843) 
1.23104

>  <gnina_score_min>  (843) 
5.664

>  <inchikey>  (843) 
WPGJOTMMQVIMSE-UHFFFAOYSA-N

>  <exports>  (843) 
['/opt/xchem-fragalysis-2/maxwin/BulkDock/OUTPUTS/openbind_a71ev2a_c2_elabs_1LOUU54.sdf', '/opt/xchem-fragalysis-2/maxwin/BulkDock/OUTPUTS/openbind_a71ev2a_c2_elabs_1LSYIDY.sdf']

>  <name>  (843) 
P546675

>  <ref_pdb>  (843) 
A0884a

>  <subsites>  (843) 
None

>  <HIPPO Pose ID>  (843) 
546675

>  <ref_mols>  (843) 
A0884a

>  <HIPPO Compound ID>  (843) 
385261

>  <tags>  (843) 
openbind_a71ev2a_c2_elabs,syndirella_product,openbind_a71ev2a_c2_elabs_fragonly_scored_top80percent,BulkDock Fragalysis export,openbind_a71ev2a_c2_elabs_scored,openbind_a71ev2a_c2_elabs_scored_top80percent,openbind_a71ev2a_c2_elabs_activefrags_only_scored_5.2plus,openbind_a71ev2a_c2_elabs_activefrags_only_scored_5.5plus,syndirella_placed

>  <smina_score_min>  (843) 
-7.174

$$$$
P546676
     RDKit          3D

 22 24  0  0  0  0  0  0  0  0999 V2000
    6.4899   10.8672   26.0286 C   0  0  0  0  0  0  0  0  0  0  0  0
    7.4313   11.6447   25.1642 C   0  0  0  0  0  0  0  0  0  0  0  0
    8.4745   10.9290   24.5334 C   0  0  0  0  0  0  0  0  0  0  0  0
    9.3954   11.5649   23.7013 C   0  0  0  0  0  0  0  0  0  0  0  0
    9.2500   12.9206   23.4330 C   0  0  0  0  0  0  0  0  0  0  0  0
   10.1792   13.5895   22.5929 N   0  0  0  0  0  0  0  0  0  0  0  0
    9.6698   14.5360   21.6095 C   0  0  0  0  0  0  0  0  0  0  0  0
   10.6556   14.8890   20.5201 C   0  0  0  0  0  0  0  0  0  0  0  0
   12.0511   14.5150   20.8986 C   0  0  0  0  0  0  0  0  0  0  0  0
   12.9010   14.2546   20.0526 O   0  0  0  0  0  0  0  0  0  0  0  0
   12.3001   14.4939   22.2368 N   0  0  0  0  0  0  0  0  0  0  0  0
   11.4866   13.7545   23.0525 C   0  0  0  0  0  0  0  0  0  0  0  0
   11.9301   13.2808   24.0977 O   0  0  0  0  0  0  0  0  0  0  0  0
    8.1903   13.6221   24.0131 C   0  0  0  0  0  0  0  0  0  0  0  0
    7.3122   13.0209   24.9270 C   0  0  0  0  0  0  0  0  0  0  0  0
    6.3951   13.9160   25.5030 N   0  0  0  0  0  0  0  0  0  0  0  0
    5.5082   13.7754   26.7730 C   0  0  0  0  0  0  0  0  0  0  0  0
    5.4627   12.9260   27.5747 O   0  0  0  0  0  0  0  0  0  0  0  0
    4.6670   15.0096   26.8507 C   0  0  0  0  0  0  0  0  0  0  0  0
    3.8486   15.1873   27.8670 C   0  0  0  0  0  0  0  0  0  0  0  0
    3.3353   14.6816   29.0789 C   0  0  0  0  0  0  0  0  0  0  0  0
    2.8934   16.0440   28.4521 C   0  0  0  0  0  0  0  0  0  0  0  0
  1  2  1  0
  2  3  2  0
  3  4  1  0
  4  5  2  0
  5  6  1  0
  6  7  1  0
  7  8  1  0
  8  9  1  0
  9 10  2  0
  9 11  1  0
 11 12  1  0
 12 13  2  0
  5 14  1  0
 14 15  2  0
 15 16  1  0
 16 17  1  0
 17 18  2  0
 17 19  1  0
 19 20  2  3
 20 21  1  0
 21 22  1  0
 15  2  1  0
 22 20  1  0
 12  6  1  0
M  END
>  <alias>  (844) 
None

>  <rmsd(smina/fragmenstein)>  (844) 
1.847

>  <smiles>  (844) 
Cc1ccc(N2CCC(=O)NC2=O)cc1NC(=O)C=C1CC1

>  <gnina_score>  (844) 
5.26

>  <inspiration_score>  (844) 
None

>  <energy_score>  (844) 
-35.272127

>  <distance_score>  (844) 
1.533004

>  <gnina_score_min>  (844) 
5.221

>  <inchikey>  (844) 
IXTAHRXILMTAPQ-UHFFFAOYSA-N

>  <exports>  (844) 
['/opt/xchem-fragalysis-2/maxwin/BulkDock/OUTPUTS/openbind_a71ev2a_c2_elabs_1LOUU54.sdf', '/opt/xchem-fragalysis-2/maxwin/BulkDock/OUTPUTS/openbind_a71ev2a_c2_elabs_1LSYIDY.sdf']

>  <name>  (844) 
P546676

>  <ref_pdb>  (844) 
A0884a

>  <subsites>  (844) 
None

>  <HIPPO Pose ID>  (844) 
546676

>  <ref_mols>  (844) 
A0884a

>  <HIPPO Compound ID>  (844) 
385263

>  <tags>  (844) 
openbind_a71ev2a_c2_elabs,syndirella_product,openbind_a71ev2a_c2_elabs_fragonly_scored_top80percent,openbind_a71ev2a_c2_elabs_scored,BulkDock Fragalysis export,openbind_a71ev2a_c2_elabs_scored_top80percent,openbind_a71ev2a_c2_elabs_activefrags_only_scored_5.2plus,syndirella_placed

>  <smina_score_min>  (844) 
-7.024

$$$$
P546677
     RDKit          3D

 22 24  0  0  0  0  0  0  0  0999 V2000
    7.6555   14.6707   24.5646 C   0  0  0  0  0  0  0  0  0  0  0  0
    8.0830   13.2351   24.4107 C   0  0  0  0  0  0  0  0  0  0  0  0
    7.4286   12.2144   25.1411 C   0  0  0  0  0  0  0  0  0  0  0  0
    6.4214   12.5489   26.0536 N   0  0  0  0  0  0  0  0  0  0  0  0
    5.7102   11.6898   27.1231 C   0  0  0  0  0  0  0  0  0  0  0  0
    5.7978   10.5504   27.3589 O   0  0  0  0  0  0  0  0  0  0  0  0
    4.7452   12.5332   27.8900 C   0  0  0  0  0  0  0  0  0  0  0  0
    4.8805   13.8121   28.1750 C   0  0  0  0  0  0  0  0  0  0  0  0
    5.6362   14.9971   28.0641 C   0  0  0  0  0  0  0  0  0  0  0  0
    4.3015   14.8976   28.8671 C   0  0  0  0  0  0  0  0  0  0  0  0
    7.8098   10.8797   24.9812 C   0  0  0  0  0  0  0  0  0  0  0  0
    8.8595   10.5402   24.1330 C   0  0  0  0  0  0  0  0  0  0  0  0
    9.5711   11.5426   23.4851 C   0  0  0  0  0  0  0  0  0  0  0  0
    9.2092   12.8906   23.6320 C   0  0  0  0  0  0  0  0  0  0  0  0
   10.0257   13.8898   23.0037 N   0  0  0  0  0  0  0  0  0  0  0  0
    9.5838   14.3189   21.6750 C   0  0  0  0  0  0  0  0  0  0  0  0
   10.5223   15.2532   20.9599 C   0  0  0  0  0  0  0  0  0  0  0  0
   11.9061   14.7256   21.1497 C   0  0  0  0  0  0  0  0  0  0  0  0
   12.6793   14.4934   20.2270 O   0  0  0  0  0  0  0  0  0  0  0  0
   12.2292   14.5196   22.4597 N   0  0  0  0  0  0  0  0  0  0  0  0
   11.3769   13.9249   23.3483 C   0  0  0  0  0  0  0  0  0  0  0  0
   11.8308   13.4444   24.3881 O   0  0  0  0  0  0  0  0  0  0  0  0
  1  2  1  0
  2  3  2  0
  3  4  1  0
  4  5  1  0
  5  6  2  0
  5  7  1  0
  7  8  2  3
  8  9  1  0
  9 10  1  0
  3 11  1  0
 11 12  2  0
 12 13  1  0
 13 14  2  0
 14 15  1  0
 15 16  1  0
 16 17  1  0
 17 18  1  0
 18 19  2  0
 18 20  1  0
 20 21  1  0
 21 22  2  0
 14  2  1  0
 21 15  1  0
 10  8  1  0
M  END
>  <alias>  (845) 
None

>  <rmsd(smina/fragmenstein)>  (845) 
0.339

>  <smiles>  (845) 
Cc1c(NC(=O)C=C2CC2)cccc1N1CCC(=O)NC1=O

>  <gnina_score>  (845) 
5.295

>  <inspiration_score>  (845) 
None

>  <energy_score>  (845) 
-24.571999

>  <distance_score>  (845) 
1.17044

>  <gnina_score_min>  (845) 
5.31

>  <inchikey>  (845) 
NBKNUHQBXRPCHX-UHFFFAOYSA-N

>  <exports>  (845) 
['/opt/xchem-fragalysis-2/maxwin/BulkDock/OUTPUTS/openbind_a71ev2a_c2_elabs_1LOUU54.sdf', '/opt/xchem-fragalysis-2/maxwin/BulkDock/OUTPUTS/openbind_a71ev2a_c2_elabs_1LSYIDY.sdf']

>  <name>  (845) 
P546677

>  <ref_pdb>  (845) 
A0884a

>  <subsites>  (845) 
None

>  <HIPPO Pose ID>  (845) 
546677

>  <ref_mols>  (845) 
A0884a

>  <HIPPO Compound ID>  (845) 
385264

>  <tags>  (845) 
openbind_a71ev2a_c2_elabs,syndirella_product,openbind_a71ev2a_c2_elabs_fragonly_scored_top80percent,openbind_a71ev2a_c2_elabs_scored,BulkDock Fragalysis export,openbind_a71ev2a_c2_elabs_scored_top80percent,openbind_a71ev2a_c2_elabs_activefrags_only_scored_5.2plus,syndirella_placed

>  <smina_score_min>  (845) 
-7.228

$$$$
P546679
     RDKit          3D

 22 23  0  0  0  0  0  0  0  0999 V2000
    9.9589   10.3578   23.0702 C   0  0  0  0  0  0  0  0  0  0  0  0
    9.0538   11.2863   23.8133 C   0  0  0  0  0  0  0  0  0  0  0  0
    8.1352   10.6850   24.6877 C   0  0  0  0  0  0  0  0  0  0  0  0
    7.1724   11.4396   25.3498 C   0  0  0  0  0  0  0  0  0  0  0  0
    7.1007   12.8084   25.1264 C   0  0  0  0  0  0  0  0  0  0  0  0
    6.1083   13.5936   25.7057 N   0  0  0  0  0  0  0  0  0  0  0  0
    4.9927   13.2221   26.7375 C   0  0  0  0  0  0  0  0  0  0  0  0
    4.6954   12.1829   27.1939 O   0  0  0  0  0  0  0  0  0  0  0  0
    4.2746   14.5350   27.1522 C   0  0  0  0  0  0  0  0  0  0  0  0
    5.2202   15.5329   27.8171 C   0  0  0  0  0  0  0  0  0  0  0  0
    3.0877   14.2372   28.0730 C   0  0  0  0  0  0  0  0  0  0  0  0
    3.5401   15.3433   25.5131 Br  0  0  0  0  0  0  0  0  0  0  0  0
    8.0264   13.4237   24.2778 C   0  0  0  0  0  0  0  0  0  0  0  0
    9.0301   12.6827   23.6344 C   0  0  0  0  0  0  0  0  0  0  0  0
    9.9800   13.3617   22.7997 N   0  0  0  0  0  0  0  0  0  0  0  0
    9.4735   14.3545   21.8571 C   0  0  0  0  0  0  0  0  0  0  0  0
   10.4695   14.8146   20.8135 C   0  0  0  0  0  0  0  0  0  0  0  0
   11.8812   14.5179   21.2003 C   0  0  0  0  0  0  0  0  0  0  0  0
   12.7861   14.4574   20.3714 O   0  0  0  0  0  0  0  0  0  0  0  0
   12.0972   14.3322   22.5319 N   0  0  0  0  0  0  0  0  0  0  0  0
   11.2665   13.5658   23.3066 C   0  0  0  0  0  0  0  0  0  0  0  0
   11.6870   13.1077   24.3676 O   0  0  0  0  0  0  0  0  0  0  0  0
  1  2  1  0
  2  3  2  0
  3  4  1  0
  4  5  2  0
  5  6  1  0
  6  7  1  0
  7  8  2  0
  7  9  1  0
  9 10  1  0
  9 11  1  0
  9 12  1  0
  5 13  1  0
 13 14  2  0
 14 15  1  0
 15 16  1  0
 16 17  1  0
 17 18  1  0
 18 19  2  0
 18 20  1  0
 20 21  1  0
 21 22  2  0
 14  2  1  0
 21 15  1  0
M  END
>  <alias>  (846) 
None

>  <rmsd(smina/fragmenstein)>  (846) 
0.527

>  <smiles>  (846) 
Cc1ccc(NC(=O)C(C)(C)Br)cc1N1CCC(=O)NC1=O

>  <gnina_score>  (846) 
5.533

>  <inspiration_score>  (846) 
None

>  <energy_score>  (846) 
-42.578917

>  <distance_score>  (846) 
1.440212

>  <gnina_score_min>  (846) 
5.476

>  <inchikey>  (846) 
XXQKSDQPXBCOPC-UHFFFAOYSA-N

>  <exports>  (846) 
['/opt/xchem-fragalysis-2/maxwin/BulkDock/OUTPUTS/openbind_a71ev2a_c2_elabs_1LOUU54.sdf', '/opt/xchem-fragalysis-2/maxwin/BulkDock/OUTPUTS/openbind_a71ev2a_c2_elabs_1LSYIDY.sdf']

>  <name>  (846) 
P546679

>  <ref_pdb>  (846) 
A0884a

>  <subsites>  (846) 
None

>  <HIPPO Pose ID>  (846) 
546679

>  <ref_mols>  (846) 
A0884a

>  <HIPPO Compound ID>  (846) 
385270

>  <tags>  (846) 
openbind_a71ev2a_c2_elabs,syndirella_product,openbind_a71ev2a_c2_elabs_fragonly_scored_top80percent,openbind_a71ev2a_c2_elabs_scored,BulkDock Fragalysis export,openbind_a71ev2a_c2_elabs_scored_top80percent,openbind_a71ev2a_c2_elabs_activefrags_only_scored_5.2plus,syndirella_placed

>  <smina_score_min>  (846) 
-7.025

$$$$
P546681
     RDKit          3D

 22 24  0  0  0  0  0  0  0  0999 V2000
   12.4303   14.4756   19.8464 C   0  0  0  0  0  0  0  0  0  0  0  0
   11.0243   14.9673   20.0715 C   0  0  0  0  0  0  0  0  0  0  0  0
   10.6481   15.1010   21.5305 C   0  0  2  0  0  0  0  0  0  0  0  0
   11.6664   14.7012   22.4706 N   0  0  0  0  0  0  0  0  0  0  0  0
   11.2081   13.7222   23.3244 C   0  0  0  0  0  0  0  0  0  0  0  0
   11.7719   13.4312   24.3686 O   0  0  0  0  0  0  0  0  0  0  0  0
    9.9944   13.2805   22.8627 N   0  0  0  0  0  0  0  0  0  0  0  0
    9.1504   12.4840   23.6460 C   0  0  0  0  0  0  0  0  0  0  0  0
    9.3759   11.1136   23.7261 C   0  0  0  0  0  0  0  0  0  0  0  0
    8.5122   10.3272   24.4808 C   0  0  0  0  0  0  0  0  0  0  0  0
    7.4657   10.9077   25.2035 C   0  0  0  0  0  0  0  0  0  0  0  0
    7.2449   12.2790   25.1258 C   0  0  0  0  0  0  0  0  0  0  0  0
    6.2216   12.9144   25.8196 N   0  0  0  0  0  0  0  0  0  0  0  0
    5.2355   12.3694   26.8666 C   0  0  0  0  0  0  0  0  0  0  0  0
    5.0728   11.2845   27.2583 O   0  0  0  0  0  0  0  0  0  0  0  0
    4.3522   13.4703   27.3552 C   0  0  2  0  0  0  0  0  0  0  0  0
    4.9287   14.7669   27.8848 C   0  0  0  0  0  0  0  0  0  0  0  0
    4.2565   13.8110   28.8296 C   0  0  2  0  0  0  0  0  0  0  0  0
    5.0602   13.0924   29.8611 C   0  0  0  0  0  0  0  0  0  0  0  0
    8.0696   13.0611   24.3211 C   0  0  0  0  0  0  0  0  0  0  0  0
    9.5178   14.1615   21.9225 C   0  0  0  0  0  0  0  0  0  0  0  0
    8.3781   14.2084   21.4692 O   0  0  0  0  0  0  0  0  0  0  0  0
  1  2  1  0
  3  2  1  6
  3  4  1  0
  4  5  1  0
  5  6  2  0
  5  7  1  0
  7  8  1  0
  8  9  2  0
  9 10  1  0
 10 11  2  0
 11 12  1  0
 12 13  1  0
 13 14  1  0
 14 15  2  0
 16 14  1  1
 16 17  1  0
 17 18  1  0
 18 19  1  1
 12 20  2  0
  7 21  1  0
 21 22  2  0
 21  3  1  0
 20  8  1  0
 18 16  1  0
M  END
>  <alias>  (847) 
None

>  <rmsd(smina/fragmenstein)>  (847) 
0.813

>  <smiles>  (847) 
CC[C@@H]1NC(=O)N(c2cccc(NC(=O)[C@@H]3C[C@@H]3C)c2)C1=O

>  <gnina_score>  (847) 
4.994

>  <inspiration_score>  (847) 
None

>  <energy_score>  (847) 
-24.628957

>  <distance_score>  (847) 
1.158293

>  <gnina_score_min>  (847) 
5.393

>  <inchikey>  (847) 
DGTQSWJEIXVOCL-BIMULSAOSA-N

>  <exports>  (847) 
['/opt/xchem-fragalysis-2/maxwin/BulkDock/OUTPUTS/openbind_a71ev2a_c2_elabs_1LOUU54.sdf', '/opt/xchem-fragalysis-2/maxwin/BulkDock/OUTPUTS/openbind_a71ev2a_c2_elabs_1LSYIDY.sdf']

>  <name>  (847) 
P546681

>  <ref_pdb>  (847) 
A0884a

>  <subsites>  (847) 
None

>  <HIPPO Pose ID>  (847) 
546681

>  <ref_mols>  (847) 
A0884a

>  <HIPPO Compound ID>  (847) 
385271

>  <tags>  (847) 
openbind_a71ev2a_c2_elabs,syndirella_product,openbind_a71ev2a_c2_elabs_fragonly_scored_top80percent,openbind_a71ev2a_c2_elabs_scored,BulkDock Fragalysis export,openbind_a71ev2a_c2_elabs_scored_top80percent,openbind_a71ev2a_c2_elabs_activefrags_only_scored_5.2plus,syndirella_placed

>  <smina_score_min>  (847) 
-7.026

$$$$
P546689
     RDKit          3D

 22 23  0  0  0  0  0  0  0  0999 V2000
    2.3849   11.8458   30.5287 C   0  0  0  0  0  0  0  0  0  0  0  0
    2.8361   12.9897   29.2026 S   0  0  0  0  0  0  0  0  0  0  0  0
    4.0615   12.0708   28.3966 C   0  0  0  0  0  0  0  0  0  0  0  0
    4.7960   12.6127   27.4151 C   0  0  0  0  0  0  0  0  0  0  0  0
    5.8135   11.7624   26.7269 C   0  0  0  0  0  0  0  0  0  0  0  0
    5.9037   10.6172   26.9317 O   0  0  0  0  0  0  0  0  0  0  0  0
    6.5918   12.6701   25.7430 N   0  0  0  0  0  0  0  0  0  0  0  0
    7.6667   12.3838   24.9073 C   0  0  0  0  0  0  0  0  0  0  0  0
    8.1052   11.0721   24.6945 C   0  0  0  0  0  0  0  0  0  0  0  0
    9.1821   10.8538   23.8420 C   0  0  0  0  0  0  0  0  0  0  0  0
    9.8218    9.1707   23.3608 Br  0  0  0  0  0  0  0  0  0  0  0  0
    9.8516   11.9092   23.2639 C   0  0  0  0  0  0  0  0  0  0  0  0
    9.4277   13.2079   23.4887 C   0  0  0  0  0  0  0  0  0  0  0  0
   10.1517   14.2524   22.8631 N   0  0  0  0  0  0  0  0  0  0  0  0
    9.6295   14.6227   21.5435 C   0  0  0  0  0  0  0  0  0  0  0  0
   10.5785   15.4246   20.6988 C   0  0  0  0  0  0  0  0  0  0  0  0
   11.9504   14.8551   20.8853 C   0  0  0  0  0  0  0  0  0  0  0  0
   12.6625   14.4575   19.9690 O   0  0  0  0  0  0  0  0  0  0  0  0
   12.3359   14.8196   22.1934 N   0  0  0  0  0  0  0  0  0  0  0  0
   11.5178   14.2957   23.1478 C   0  0  0  0  0  0  0  0  0  0  0  0
   11.9985   13.8403   24.1879 O   0  0  0  0  0  0  0  0  0  0  0  0
    8.3083   13.4547   24.2743 C   0  0  0  0  0  0  0  0  0  0  0  0
  1  2  1  0
  2  3  1  0
  3  4  2  0
  4  5  1  0
  5  6  2  0
  5  7  1  0
  7  8  1  0
  8  9  2  0
  9 10  1  0
 10 11  1  0
 10 12  2  0
 12 13  1  0
 13 14  1  0
 14 15  1  0
 15 16  1  0
 16 17  1  0
 17 18  2  0
 17 19  1  0
 19 20  1  0
 20 21  2  0
 13 22  2  0
 22  8  1  0
 20 14  1  0
M  END
>  <alias>  (848) 
None

>  <rmsd(smina/fragmenstein)>  (848) 
0.256

>  <smiles>  (848) 
CS/C=C/C(=O)Nc1cc(Br)cc(N2CCC(=O)NC2=O)c1

>  <gnina_score>  (848) 
5.595

>  <inspiration_score>  (848) 
None

>  <energy_score>  (848) 
-30.420065

>  <distance_score>  (848) 
1.245453

>  <gnina_score_min>  (848) 
5.588

>  <inchikey>  (848) 
GMEILLBSTMLQSK-HWKANZROSA-N

>  <exports>  (848) 
['/opt/xchem-fragalysis-2/maxwin/BulkDock/OUTPUTS/openbind_a71ev2a_c2_elabs_1LOUU54.sdf', '/opt/xchem-fragalysis-2/maxwin/BulkDock/OUTPUTS/openbind_a71ev2a_c2_elabs_1LSYIDY.sdf']

>  <name>  (848) 
P546689

>  <ref_pdb>  (848) 
A0884a

>  <subsites>  (848) 
None

>  <HIPPO Pose ID>  (848) 
546689

>  <ref_mols>  (848) 
A0884a

>  <HIPPO Compound ID>  (848) 
385274

>  <tags>  (848) 
openbind_a71ev2a_c2_elabs,syndirella_product,openbind_a71ev2a_c2_elabs_fragonly_scored_top80percent,BulkDock Fragalysis export,openbind_a71ev2a_c2_elabs_scored,openbind_a71ev2a_c2_elabs_scored_top80percent,openbind_a71ev2a_c2_elabs_activefrags_only_scored_5.2plus,openbind_a71ev2a_c2_elabs_activefrags_only_scored_5.5plus,syndirella_placed

>  <smina_score_min>  (848) 
-6.338

$$$$
P546690
     RDKit          3D

 22 23  0  0  0  0  0  0  0  0999 V2000
    3.4690   18.7460   27.8776 C   0  0  0  0  0  0  0  0  0  0  0  0
    3.6690   17.0286   28.4141 S   0  0  0  0  0  0  0  0  0  0  0  0
    5.0546   16.5833   27.4754 C   0  0  0  0  0  0  0  0  0  0  0  0
    5.5076   15.3229   27.4718 C   0  0  0  0  0  0  0  0  0  0  0  0
    6.7054   15.0056   26.6446 C   0  0  0  0  0  0  0  0  0  0  0  0
    7.4834   15.8163   26.3328 O   0  0  0  0  0  0  0  0  0  0  0  0
    6.6417   13.4943   26.3103 N   0  0  0  0  0  0  0  0  0  0  0  0
    7.4403   12.7203   25.4772 C   0  0  0  0  0  0  0  0  0  0  0  0
    7.2736   11.3405   25.4618 C   0  0  0  0  0  0  0  0  0  0  0  0
    8.1172   10.5614   24.6762 C   0  0  0  0  0  0  0  0  0  0  0  0
    9.0831   11.1555   23.8585 C   0  0  0  0  0  0  0  0  0  0  0  0
    9.9905   10.0809   22.8893 Cl  0  0  0  0  0  0  0  0  0  0  0  0
    9.2194   12.5498   23.8176 C   0  0  0  0  0  0  0  0  0  0  0  0
   10.1207   13.2199   22.9239 N   0  0  0  0  0  0  0  0  0  0  0  0
    9.5304   14.2304   22.0516 C   0  0  0  0  0  0  0  0  0  0  0  0
   10.4483   14.7409   20.9632 C   0  0  0  0  0  0  0  0  0  0  0  0
   11.8919   14.5372   21.2932 C   0  0  0  0  0  0  0  0  0  0  0  0
   12.7676   14.5871   20.4326 O   0  0  0  0  0  0  0  0  0  0  0  0
   12.1712   14.3093   22.6067 N   0  0  0  0  0  0  0  0  0  0  0  0
   11.3992   13.5083   23.4071 C   0  0  0  0  0  0  0  0  0  0  0  0
   11.8560   13.0865   24.4669 O   0  0  0  0  0  0  0  0  0  0  0  0
    8.4061   13.3169   24.6623 C   0  0  0  0  0  0  0  0  0  0  0  0
  1  2  1  0
  2  3  1  0
  3  4  2  0
  4  5  1  0
  5  6  2  0
  5  7  1  0
  7  8  1  0
  8  9  2  0
  9 10  1  0
 10 11  2  0
 11 12  1  0
 11 13  1  0
 13 14  1  0
 14 15  1  0
 15 16  1  0
 16 17  1  0
 17 18  2  0
 17 19  1  0
 19 20  1  0
 20 21  2  0
 13 22  2  0
 22  8  1  0
 20 14  1  0
M  END
>  <alias>  (849) 
None

>  <rmsd(smina/fragmenstein)>  (849) 
1.34

>  <smiles>  (849) 
CS/C=C/C(=O)Nc1ccc(Cl)c(N2CCC(=O)NC2=O)c1

>  <gnina_score>  (849) 
5.509

>  <inspiration_score>  (849) 
None

>  <energy_score>  (849) 
-36.128788

>  <distance_score>  (849) 
1.863363

>  <gnina_score_min>  (849) 
5.577

>  <inchikey>  (849) 
MVSXJXTYYADUPU-FNORWQNLSA-N

>  <exports>  (849) 
['/opt/xchem-fragalysis-2/maxwin/BulkDock/OUTPUTS/openbind_a71ev2a_c2_elabs_1LOUU54.sdf', '/opt/xchem-fragalysis-2/maxwin/BulkDock/OUTPUTS/openbind_a71ev2a_c2_elabs_1LSYIDY.sdf']

>  <name>  (849) 
P546690

>  <ref_pdb>  (849) 
A0884a

>  <subsites>  (849) 
None

>  <HIPPO Pose ID>  (849) 
546690

>  <ref_mols>  (849) 
A0884a

>  <HIPPO Compound ID>  (849) 
385275

>  <tags>  (849) 
openbind_a71ev2a_c2_elabs,syndirella_product,openbind_a71ev2a_c2_elabs_fragonly_scored_top80percent,BulkDock Fragalysis export,openbind_a71ev2a_c2_elabs_scored,openbind_a71ev2a_c2_elabs_scored_top80percent,openbind_a71ev2a_c2_elabs_activefrags_only_scored_5.2plus,openbind_a71ev2a_c2_elabs_activefrags_only_scored_5.5plus,syndirella_placed

>  <smina_score_min>  (849) 
-6.674

$$$$
P546693
     RDKit          3D

 22 23  0  0  0  0  0  0  0  0999 V2000
    6.3227   17.8382   27.9213 C   0  0  0  0  0  0  0  0  0  0  0  0
    6.5519   16.0624   27.6525 S   0  0  0  0  0  0  0  0  0  0  0  0
    4.9168   15.5176   27.7782 C   0  0  0  0  0  0  0  0  0  0  0  0
    4.4688   14.2875   27.4901 C   0  0  0  0  0  0  0  0  0  0  0  0
    5.1708   13.0636   26.9895 C   0  0  0  0  0  0  0  0  0  0  0  0
    4.7825   12.0067   27.3001 O   0  0  0  0  0  0  0  0  0  0  0  0
    6.2968   13.4698   26.0125 N   0  0  0  0  0  0  0  0  0  0  0  0
    7.2102   12.6889   25.3110 C   0  0  0  0  0  0  0  0  0  0  0  0
    7.2168   11.3045   25.4110 C   0  0  0  0  0  0  0  0  0  0  0  0
    8.1383   10.5660   24.6764 C   0  0  0  0  0  0  0  0  0  0  0  0
    9.0635   11.1931   23.8289 C   0  0  0  0  0  0  0  0  0  0  0  0
    9.9535   10.2882   23.0412 C   0  0  0  0  0  0  0  0  0  0  0  0
    9.0796   12.5972   23.7433 C   0  0  0  0  0  0  0  0  0  0  0  0
   10.0034   13.2936   22.8972 N   0  0  0  0  0  0  0  0  0  0  0  0
    9.4523   14.2839   21.9798 C   0  0  0  0  0  0  0  0  0  0  0  0
   10.4165   14.7789   20.9226 C   0  0  0  0  0  0  0  0  0  0  0  0
   11.8423   14.4998   21.2718 C   0  0  0  0  0  0  0  0  0  0  0  0
   12.7300   14.4703   20.4248 O   0  0  0  0  0  0  0  0  0  0  0  0
   12.0943   14.3072   22.5955 N   0  0  0  0  0  0  0  0  0  0  0  0
   11.2895   13.5301   23.3857 C   0  0  0  0  0  0  0  0  0  0  0  0
   11.7340   13.0916   24.4442 O   0  0  0  0  0  0  0  0  0  0  0  0
    8.1375   13.3294   24.4827 C   0  0  0  0  0  0  0  0  0  0  0  0
  1  2  1  0
  2  3  1  0
  3  4  2  0
  4  5  1  0
  5  6  2  0
  5  7  1  0
  7  8  1  0
  8  9  2  0
  9 10  1  0
 10 11  2  0
 11 12  1  0
 11 13  1  0
 13 14  1  0
 14 15  1  0
 15 16  1  0
 16 17  1  0
 17 18  2  0
 17 19  1  0
 19 20  1  0
 20 21  2  0
 13 22  2  0
 22  8  1  0
 20 14  1  0
M  END
>  <alias>  (850) 
None

>  <rmsd(smina/fragmenstein)>  (850) 
1.118

>  <smiles>  (850) 
CS/C=C\C(=O)Nc1ccc(C)c(N2CCC(=O)NC2=O)c1

>  <gnina_score>  (850) 
5.443

>  <inspiration_score>  (850) 
None

>  <energy_score>  (850) 
-60.322519

>  <distance_score>  (850) 
1.332338

>  <gnina_score_min>  (850) 
5.284

>  <inchikey>  (850) 
JVULHAJEPPMYRR-VURMDHGXSA-N

>  <exports>  (850) 
['/opt/xchem-fragalysis-2/maxwin/BulkDock/OUTPUTS/openbind_a71ev2a_c2_elabs_1LOUU54.sdf', '/opt/xchem-fragalysis-2/maxwin/BulkDock/OUTPUTS/openbind_a71ev2a_c2_elabs_1LSYIDY.sdf']

>  <name>  (850) 
P546693

>  <ref_pdb>  (850) 
A0884a

>  <subsites>  (850) 
None

>  <HIPPO Pose ID>  (850) 
546693

>  <ref_mols>  (850) 
A0884a

>  <HIPPO Compound ID>  (850) 
385277

>  <tags>  (850) 
openbind_a71ev2a_c2_elabs,syndirella_product,openbind_a71ev2a_c2_elabs_fragonly_scored_top80percent,openbind_a71ev2a_c2_elabs_scored,BulkDock Fragalysis export,openbind_a71ev2a_c2_elabs_scored_top80percent,openbind_a71ev2a_c2_elabs_activefrags_only_scored_5.2plus,syndirella_placed

>  <smina_score_min>  (850) 
-6.524

$$$$
P546695
     RDKit          3D

 22 23  0  0  0  0  0  0  0  0999 V2000
    5.8454   17.4546   27.6095 C   0  0  0  0  0  0  0  0  0  0  0  0
    6.3254   15.7249   27.3748 S   0  0  0  0  0  0  0  0  0  0  0  0
    4.7732   14.9649   27.3869 C   0  0  0  0  0  0  0  0  0  0  0  0
    4.5259   13.6794   27.0980 C   0  0  0  0  0  0  0  0  0  0  0  0
    5.4465   12.5713   26.6932 C   0  0  0  0  0  0  0  0  0  0  0  0
    5.2392   11.4799   27.0512 O   0  0  0  0  0  0  0  0  0  0  0  0
    6.5291   13.1241   25.7396 N   0  0  0  0  0  0  0  0  0  0  0  0
    7.4936   12.4582   24.9768 C   0  0  0  0  0  0  0  0  0  0  0  0
    8.3042   13.2612   24.1643 C   0  0  0  0  0  0  0  0  0  0  0  0
    9.3570   12.7028   23.4341 C   0  0  0  0  0  0  0  0  0  0  0  0
   10.2154   13.5143   22.6543 N   0  0  0  0  0  0  0  0  0  0  0  0
    9.6274   14.4620   21.7194 C   0  0  0  0  0  0  0  0  0  0  0  0
   10.5816   14.9324   20.6421 C   0  0  0  0  0  0  0  0  0  0  0  0
   12.0028   14.6088   20.9825 C   0  0  0  0  0  0  0  0  0  0  0  0
   12.8542   14.4127   20.1200 O   0  0  0  0  0  0  0  0  0  0  0  0
   12.2759   14.5511   22.3156 N   0  0  0  0  0  0  0  0  0  0  0  0
   11.5117   13.7432   23.1114 C   0  0  0  0  0  0  0  0  0  0  0  0
   11.9848   13.2492   24.1342 O   0  0  0  0  0  0  0  0  0  0  0  0
    9.5722   11.3250   23.4692 C   0  0  0  0  0  0  0  0  0  0  0  0
    8.7382   10.5132   24.2294 C   0  0  0  0  0  0  0  0  0  0  0  0
    7.7198   11.0809   24.9927 C   0  0  0  0  0  0  0  0  0  0  0  0
    6.9760   10.2520   25.7303 F   0  0  0  0  0  0  0  0  0  0  0  0
  1  2  1  0
  2  3  1  0
  3  4  2  0
  4  5  1  0
  5  6  2  0
  5  7  1  0
  7  8  1  0
  8  9  2  0
  9 10  1  0
 10 11  1  0
 11 12  1  0
 12 13  1  0
 13 14  1  0
 14 15  2  0
 14 16  1  0
 16 17  1  0
 17 18  2  0
 10 19  2  0
 19 20  1  0
 20 21  2  0
 21 22  1  0
 21  8  1  0
 17 11  1  0
M  END
>  <alias>  (851) 
None

>  <rmsd(smina/fragmenstein)>  (851) 
0.519

>  <smiles>  (851) 
CS/C=C\C(=O)Nc1cc(N2CCC(=O)NC2=O)ccc1F

>  <gnina_score>  (851) 
5.436

>  <inspiration_score>  (851) 
None

>  <energy_score>  (851) 
-33.549956

>  <distance_score>  (851) 
1.130191

>  <gnina_score_min>  (851) 
5.377

>  <inchikey>  (851) 
STQOPCORNAPUDX-ALCCZGGFSA-N

>  <exports>  (851) 
['/opt/xchem-fragalysis-2/maxwin/BulkDock/OUTPUTS/openbind_a71ev2a_c2_elabs_1LOUU54.sdf', '/opt/xchem-fragalysis-2/maxwin/BulkDock/OUTPUTS/openbind_a71ev2a_c2_elabs_1LSYIDY.sdf']

>  <name>  (851) 
P546695

>  <ref_pdb>  (851) 
A0884a

>  <subsites>  (851) 
None

>  <HIPPO Pose ID>  (851) 
546695

>  <ref_mols>  (851) 
A0884a

>  <HIPPO Compound ID>  (851) 
385278

>  <tags>  (851) 
openbind_a71ev2a_c2_elabs,syndirella_product,openbind_a71ev2a_c2_elabs_fragonly_scored_top80percent,openbind_a71ev2a_c2_elabs_scored,BulkDock Fragalysis export,openbind_a71ev2a_c2_elabs_scored_top80percent,openbind_a71ev2a_c2_elabs_activefrags_only_scored_5.2plus,syndirella_placed

>  <smina_score_min>  (851) 
-7.019

$$$$
P546697
     RDKit          3D

 22 23  0  0  0  0  0  0  0  0999 V2000
    5.6090   17.4283   27.5978 C   0  0  0  0  0  0  0  0  0  0  0  0
    6.2394   15.7316   27.5921 S   0  0  0  0  0  0  0  0  0  0  0  0
    4.7624   14.8451   27.7283 C   0  0  0  0  0  0  0  0  0  0  0  0
    4.5732   13.5675   27.3671 C   0  0  0  0  0  0  0  0  0  0  0  0
    5.4953   12.5617   26.7469 C   0  0  0  0  0  0  0  0  0  0  0  0
    5.3496   11.4253   26.9689 O   0  0  0  0  0  0  0  0  0  0  0  0
    6.4714   13.2767   25.7896 N   0  0  0  0  0  0  0  0  0  0  0  0
    7.4999   12.7696   25.0040 C   0  0  0  0  0  0  0  0  0  0  0  0
    7.7674   11.4066   24.9040 C   0  0  0  0  0  0  0  0  0  0  0  0
    8.8296   10.9886   24.1061 C   0  0  0  0  0  0  0  0  0  0  0  0
    9.1623    9.3495   23.8471 Cl  0  0  0  0  0  0  0  0  0  0  0  0
    9.6478   11.8919   23.4555 C   0  0  0  0  0  0  0  0  0  0  0  0
    9.3771   13.2463   23.5597 C   0  0  0  0  0  0  0  0  0  0  0  0
   10.1937   14.1685   22.8651 N   0  0  0  0  0  0  0  0  0  0  0  0
    9.6682   14.5784   21.5613 C   0  0  0  0  0  0  0  0  0  0  0  0
   10.6289   15.3762   20.7260 C   0  0  0  0  0  0  0  0  0  0  0  0
   11.9946   14.7884   20.8972 C   0  0  0  0  0  0  0  0  0  0  0  0
   12.7067   14.4212   19.9683 O   0  0  0  0  0  0  0  0  0  0  0  0
   12.3787   14.7029   22.2039 N   0  0  0  0  0  0  0  0  0  0  0  0
   11.5561   14.1536   23.1411 C   0  0  0  0  0  0  0  0  0  0  0  0
   12.0334   13.6551   24.1622 O   0  0  0  0  0  0  0  0  0  0  0  0
    8.2874   13.6883   24.3044 C   0  0  0  0  0  0  0  0  0  0  0  0
  1  2  1  0
  2  3  1  0
  3  4  2  0
  4  5  1  0
  5  6  2  0
  5  7  1  0
  7  8  1  0
  8  9  2  0
  9 10  1  0
 10 11  1  0
 10 12  2  0
 12 13  1  0
 13 14  1  0
 14 15  1  0
 15 16  1  0
 16 17  1  0
 17 18  2  0
 17 19  1  0
 19 20  1  0
 20 21  2  0
 13 22  2  0
 22  8  1  0
 20 14  1  0
M  END
>  <alias>  (852) 
None

>  <rmsd(smina/fragmenstein)>  (852) 
1.039

>  <smiles>  (852) 
CS/C=C\C(=O)Nc1cc(Cl)cc(N2CCC(=O)NC2=O)c1

>  <gnina_score>  (852) 
5.42

>  <inspiration_score>  (852) 
None

>  <energy_score>  (852) 
-15.738778

>  <distance_score>  (852) 
1.290425

>  <gnina_score_min>  (852) 
5.433

>  <inchikey>  (852) 
LMKRXSFWFNKAIJ-HYXAFXHYSA-N

>  <exports>  (852) 
['/opt/xchem-fragalysis-2/maxwin/BulkDock/OUTPUTS/openbind_a71ev2a_c2_elabs_1LOUU54.sdf', '/opt/xchem-fragalysis-2/maxwin/BulkDock/OUTPUTS/openbind_a71ev2a_c2_elabs_1LSYIDY.sdf']

>  <name>  (852) 
P546697

>  <ref_pdb>  (852) 
A0884a

>  <subsites>  (852) 
None

>  <HIPPO Pose ID>  (852) 
546697

>  <ref_mols>  (852) 
A0884a

>  <HIPPO Compound ID>  (852) 
385279

>  <tags>  (852) 
openbind_a71ev2a_c2_elabs,syndirella_product,openbind_a71ev2a_c2_elabs_fragonly_scored_top80percent,openbind_a71ev2a_c2_elabs_scored,BulkDock Fragalysis export,openbind_a71ev2a_c2_elabs_scored_top80percent,openbind_a71ev2a_c2_elabs_activefrags_only_scored_5.2plus,syndirella_placed

>  <smina_score_min>  (852) 
-6.62

$$$$
P546698
     RDKit          3D

 22 23  0  0  0  0  0  0  0  0999 V2000
    1.8227   13.1753   30.2017 C   0  0  0  0  0  0  0  0  0  0  0  0
    2.3688   14.0609   28.7231 S   0  0  0  0  0  0  0  0  0  0  0  0
    3.6389   13.0167   28.1815 C   0  0  0  0  0  0  0  0  0  0  0  0
    4.4177   13.3575   27.1456 C   0  0  0  0  0  0  0  0  0  0  0  0
    5.4772   12.4047   26.6980 C   0  0  0  0  0  0  0  0  0  0  0  0
    5.5306   11.3048   27.0871 O   0  0  0  0  0  0  0  0  0  0  0  0
    6.3991   13.1676   25.7122 N   0  0  0  0  0  0  0  0  0  0  0  0
    7.4798   12.7226   24.9581 C   0  0  0  0  0  0  0  0  0  0  0  0
    7.7927   11.3667   24.8611 C   0  0  0  0  0  0  0  0  0  0  0  0
    8.8794   10.9545   24.0819 C   0  0  0  0  0  0  0  0  0  0  0  0
    9.1906    9.5255   23.8420 C   0  0  0  0  0  0  0  0  0  0  0  0
    9.6771   11.8967   23.4534 C   0  0  0  0  0  0  0  0  0  0  0  0
    9.3727   13.2468   23.5615 C   0  0  0  0  0  0  0  0  0  0  0  0
   10.1844   14.1822   22.8773 N   0  0  0  0  0  0  0  0  0  0  0  0
    9.6618   14.5775   21.5692 C   0  0  0  0  0  0  0  0  0  0  0  0
   10.6252   15.3652   20.7282 C   0  0  0  0  0  0  0  0  0  0  0  0
   11.9902   14.7763   20.9029 C   0  0  0  0  0  0  0  0  0  0  0  0
   12.7035   14.4118   19.9734 O   0  0  0  0  0  0  0  0  0  0  0  0
   12.3733   14.6992   22.2099 N   0  0  0  0  0  0  0  0  0  0  0  0
   11.5473   14.1660   23.1544 C   0  0  0  0  0  0  0  0  0  0  0  0
   12.0273   13.6808   24.1802 O   0  0  0  0  0  0  0  0  0  0  0  0
    8.2526   13.6636   24.2772 C   0  0  0  0  0  0  0  0  0  0  0  0
  1  2  1  0
  2  3  1  0
  3  4  2  0
  4  5  1  0
  5  6  2  0
  5  7  1  0
  7  8  1  0
  8  9  2  0
  9 10  1  0
 10 11  1  0
 10 12  2  0
 12 13  1  0
 13 14  1  0
 14 15  1  0
 15 16  1  0
 16 17  1  0
 17 18  2  0
 17 19  1  0
 19 20  1  0
 20 21  2  0
 13 22  2  0
 22  8  1  0
 20 14  1  0
M  END
>  <alias>  (853) 
None

>  <rmsd(smina/fragmenstein)>  (853) 
0.65

>  <smiles>  (853) 
CS/C=C/C(=O)Nc1cc(C)cc(N2CCC(=O)NC2=O)c1

>  <gnina_score>  (853) 
5.314

>  <inspiration_score>  (853) 
None

>  <energy_score>  (853) 
-36.881567

>  <distance_score>  (853) 
1.29

>  <gnina_score_min>  (853) 
5.441

>  <inchikey>  (853) 
KMYJESHJTDRMSQ-GQCTYLIASA-N

>  <exports>  (853) 
['/opt/xchem-fragalysis-2/maxwin/BulkDock/OUTPUTS/openbind_a71ev2a_c2_elabs_1LOUU54.sdf', '/opt/xchem-fragalysis-2/maxwin/BulkDock/OUTPUTS/openbind_a71ev2a_c2_elabs_1LSYIDY.sdf']

>  <name>  (853) 
P546698

>  <ref_pdb>  (853) 
A0884a

>  <subsites>  (853) 
None

>  <HIPPO Pose ID>  (853) 
546698

>  <ref_mols>  (853) 
A0884a

>  <HIPPO Compound ID>  (853) 
385280

>  <tags>  (853) 
openbind_a71ev2a_c2_elabs,syndirella_product,openbind_a71ev2a_c2_elabs_fragonly_scored_top80percent,openbind_a71ev2a_c2_elabs_scored,BulkDock Fragalysis export,openbind_a71ev2a_c2_elabs_scored_top80percent,openbind_a71ev2a_c2_elabs_activefrags_only_scored_5.2plus,syndirella_placed

>  <smina_score_min>  (853) 
-6.655

$$$$
P546703
     RDKit          3D

 22 23  0  0  0  0  0  0  0  0999 V2000
    5.8559   16.0833   29.2447 C   0  0  0  0  0  0  0  0  0  0  0  0
    6.3636   14.4665   28.6133 S   0  0  0  0  0  0  0  0  0  0  0  0
    4.8246   13.7315   28.3372 C   0  0  0  0  0  0  0  0  0  0  0  0
    4.6228   12.5721   27.6957 C   0  0  0  0  0  0  0  0  0  0  0  0
    5.6251   11.6609   27.0672 C   0  0  0  0  0  0  0  0  0  0  0  0
    5.5956   10.5134   27.2742 O   0  0  0  0  0  0  0  0  0  0  0  0
    6.5364   12.4866   26.1328 N   0  0  0  0  0  0  0  0  0  0  0  0
    7.5102   12.0741   25.2138 C   0  0  0  0  0  0  0  0  0  0  0  0
    7.7653   10.7185   25.0177 C   0  0  0  0  0  0  0  0  0  0  0  0
    8.7709   10.3062   24.1457 C   0  0  0  0  0  0  0  0  0  0  0  0
    9.5290   11.2439   23.4589 C   0  0  0  0  0  0  0  0  0  0  0  0
    9.2814   12.6083   23.6218 C   0  0  0  0  0  0  0  0  0  0  0  0
   10.1067   13.5000   22.8780 N   0  0  0  0  0  0  0  0  0  0  0  0
    9.4964   14.3643   21.8801 C   0  0  0  0  0  0  0  0  0  0  0  0
   10.4573   14.8881   20.8313 C   0  0  0  0  0  0  0  0  0  0  0  0
   11.8893   14.6131   21.1700 C   0  0  0  0  0  0  0  0  0  0  0  0
   12.7565   14.4978   20.3067 O   0  0  0  0  0  0  0  0  0  0  0  0
   12.1644   14.5344   22.5007 N   0  0  0  0  0  0  0  0  0  0  0  0
   11.4006   13.7484   23.3179 C   0  0  0  0  0  0  0  0  0  0  0  0
   11.8886   13.2853   24.3470 O   0  0  0  0  0  0  0  0  0  0  0  0
    8.2728   13.0389   24.5163 C   0  0  0  0  0  0  0  0  0  0  0  0
    8.0628   14.5028   24.7746 C   0  0  0  0  0  0  0  0  0  0  0  0
  1  2  1  0
  2  3  1  0
  3  4  2  0
  4  5  1  0
  5  6  2  0
  5  7  1  0
  7  8  1  0
  8  9  2  0
  9 10  1  0
 10 11  2  0
 11 12  1  0
 12 13  1  0
 13 14  1  0
 14 15  1  0
 15 16  1  0
 16 17  2  0
 16 18  1  0
 18 19  1  0
 19 20  2  0
 12 21  2  0
 21 22  1  0
 21  8  1  0
 19 13  1  0
M  END
>  <alias>  (854) 
None

>  <rmsd(smina/fragmenstein)>  (854) 
1.021

>  <smiles>  (854) 
CS/C=C\C(=O)Nc1cccc(N2CCC(=O)NC2=O)c1C

>  <gnina_score>  (854) 
5.206

>  <inspiration_score>  (854) 
None

>  <energy_score>  (854) 
-59.019521

>  <distance_score>  (854) 
1.094225

>  <gnina_score_min>  (854) 
5.203

>  <inchikey>  (854) 
NCUOLDYDADSTGF-CLFYSBASSA-N

>  <exports>  (854) 
['/opt/xchem-fragalysis-2/maxwin/BulkDock/OUTPUTS/openbind_a71ev2a_c2_elabs_1LOUU54.sdf', '/opt/xchem-fragalysis-2/maxwin/BulkDock/OUTPUTS/openbind_a71ev2a_c2_elabs_1LSYIDY.sdf']

>  <name>  (854) 
P546703

>  <ref_pdb>  (854) 
A0884a

>  <subsites>  (854) 
None

>  <HIPPO Pose ID>  (854) 
546703

>  <ref_mols>  (854) 
A0884a

>  <HIPPO Compound ID>  (854) 
385282

>  <tags>  (854) 
openbind_a71ev2a_c2_elabs,syndirella_product,openbind_a71ev2a_c2_elabs_fragonly_scored_top80percent,openbind_a71ev2a_c2_elabs_scored,BulkDock Fragalysis export,openbind_a71ev2a_c2_elabs_scored_top80percent,openbind_a71ev2a_c2_elabs_activefrags_only_scored_5.2plus,syndirella_placed

>  <smina_score_min>  (854) 
-6.844

$$$$
P546704
     RDKit          3D

 22 23  0  0  0  0  0  0  0  0999 V2000
    1.9560   16.2163   24.8574 C   0  0  0  0  0  0  0  0  0  0  0  0
    2.4290   15.6168   26.4981 S   0  0  0  0  0  0  0  0  0  0  0  0
    3.5537   14.3760   26.0625 C   0  0  0  0  0  0  0  0  0  0  0  0
    4.2895   13.7591   26.9966 C   0  0  0  0  0  0  0  0  0  0  0  0
    5.2098   12.6538   26.6262 C   0  0  0  0  0  0  0  0  0  0  0  0
    5.1225   11.6010   27.1223 O   0  0  0  0  0  0  0  0  0  0  0  0
    6.1792   13.1720   25.5359 N   0  0  0  0  0  0  0  0  0  0  0  0
    7.2626   12.5521   24.9218 C   0  0  0  0  0  0  0  0  0  0  0  0
    7.5042   11.1860   25.0766 C   0  0  0  0  0  0  0  0  0  0  0  0
    8.5776   10.5962   24.4145 C   0  0  0  0  0  0  0  0  0  0  0  0
    9.4329   11.3829   23.6541 C   0  0  0  0  0  0  0  0  0  0  0  0
   10.4331   10.7805   23.0083 F   0  0  0  0  0  0  0  0  0  0  0  0
    9.2141   12.7543   23.4962 C   0  0  0  0  0  0  0  0  0  0  0  0
   10.1071   13.5399   22.7146 N   0  0  0  0  0  0  0  0  0  0  0  0
    9.5617   14.4624   21.7312 C   0  0  0  0  0  0  0  0  0  0  0  0
   10.5517   14.9243   20.6828 C   0  0  0  0  0  0  0  0  0  0  0  0
   11.9617   14.5715   21.0363 C   0  0  0  0  0  0  0  0  0  0  0  0
   12.8271   14.4010   20.1816 O   0  0  0  0  0  0  0  0  0  0  0  0
   12.2165   14.4774   22.3708 N   0  0  0  0  0  0  0  0  0  0  0  0
   11.4068   13.7251   23.1761 C   0  0  0  0  0  0  0  0  0  0  0  0
   11.8423   13.2661   24.2315 O   0  0  0  0  0  0  0  0  0  0  0  0
    8.0987   13.3287   24.1105 C   0  0  0  0  0  0  0  0  0  0  0  0
  1  2  1  0
  2  3  1  0
  3  4  2  0
  4  5  1  0
  5  6  2  0
  5  7  1  0
  7  8  1  0
  8  9  2  0
  9 10  1  0
 10 11  2  0
 11 12  1  0
 11 13  1  0
 13 14  1  0
 14 15  1  0
 15 16  1  0
 16 17  1  0
 17 18  2  0
 17 19  1  0
 19 20  1  0
 20 21  2  0
 13 22  2  0
 22  8  1  0
 20 14  1  0
M  END
>  <alias>  (855) 
None

>  <rmsd(smina/fragmenstein)>  (855) 
0.396

>  <smiles>  (855) 
CS/C=C/C(=O)Nc1ccc(F)c(N2CCC(=O)NC2=O)c1

>  <gnina_score>  (855) 
5.509

>  <inspiration_score>  (855) 
None

>  <energy_score>  (855) 
-18.027554

>  <distance_score>  (855) 
1.228826

>  <gnina_score_min>  (855) 
5.463

>  <inchikey>  (855) 
RRTODSPSYGUASD-FNORWQNLSA-N

>  <exports>  (855) 
['/opt/xchem-fragalysis-2/maxwin/BulkDock/OUTPUTS/openbind_a71ev2a_c2_elabs_1LOUU54.sdf', '/opt/xchem-fragalysis-2/maxwin/BulkDock/OUTPUTS/openbind_a71ev2a_c2_elabs_1LSYIDY.sdf']

>  <name>  (855) 
P546704

>  <ref_pdb>  (855) 
A0884a

>  <subsites>  (855) 
None

>  <HIPPO Pose ID>  (855) 
546704

>  <ref_mols>  (855) 
A0884a

>  <HIPPO Compound ID>  (855) 
385283

>  <tags>  (855) 
openbind_a71ev2a_c2_elabs,syndirella_product,openbind_a71ev2a_c2_elabs_fragonly_scored_top80percent,openbind_a71ev2a_c2_elabs_scored,BulkDock Fragalysis export,openbind_a71ev2a_c2_elabs_scored_top80percent,openbind_a71ev2a_c2_elabs_activefrags_only_scored_5.2plus,syndirella_placed

>  <smina_score_min>  (855) 
-6.804

$$$$
P546707
     RDKit          3D

 22 23  0  0  0  0  0  0  0  0999 V2000
    7.1119   14.4831   28.8785 C   0  0  0  0  0  0  0  0  0  0  0  0
    6.7452   15.4560   27.3974 S   0  0  0  0  0  0  0  0  0  0  0  0
    5.0793   15.0473   27.1567 C   0  0  0  0  0  0  0  0  0  0  0  0
    4.6090   13.8740   26.7079 C   0  0  0  0  0  0  0  0  0  0  0  0
    5.4324   12.6883   26.3461 C   0  0  0  0  0  0  0  0  0  0  0  0
    5.3279   11.6729   26.9120 O   0  0  0  0  0  0  0  0  0  0  0  0
    6.3922   13.1078   25.2094 N   0  0  0  0  0  0  0  0  0  0  0  0
    7.3289   12.3610   24.4906 C   0  0  0  0  0  0  0  0  0  0  0  0
    7.5376   11.0141   24.7910 C   0  0  0  0  0  0  0  0  0  0  0  0
    8.5362   10.2997   24.1377 C   0  0  0  0  0  0  0  0  0  0  0  0
    9.4074   10.9544   23.2763 C   0  0  0  0  0  0  0  0  0  0  0  0
    9.2854   12.3409   23.0455 C   0  0  0  0  0  0  0  0  0  0  0  0
   10.5363   13.0179   23.0558 N   0  0  0  0  0  0  0  0  0  0  0  0
   10.9750   14.1096   22.3768 C   0  0  0  0  0  0  0  0  0  0  0  0
   10.6860   14.5088   21.2649 O   0  0  0  0  0  0  0  0  0  0  0  0
   11.8668   14.8101   23.1801 N   0  0  0  0  0  0  0  0  0  0  0  0
   12.1109   14.1510   24.4206 C   0  0  1  0  0  0  0  0  0  0  0  0
   11.8467   14.9435   25.7092 C   0  0  0  0  0  0  0  0  0  0  0  0
   11.0132   13.1702   24.3085 C   0  0  0  0  0  0  0  0  0  0  0  0
   10.5232   12.6554   25.2953 O   0  0  0  0  0  0  0  0  0  0  0  0
    8.1389   13.0156   23.5324 C   0  0  0  0  0  0  0  0  0  0  0  0
    7.8678   14.4504   23.1778 C   0  0  0  0  0  0  0  0  0  0  0  0
  1  2  1  0
  2  3  1  0
  3  4  2  0
  4  5  1  0
  5  6  2  0
  5  7  1  0
  7  8  1  0
  8  9  2  0
  9 10  1  0
 10 11  2  0
 11 12  1  0
 12 13  1  0
 13 14  1  0
 14 15  2  0
 14 16  1  0
 16 17  1  0
 17 18  1  1
 17 19  1  0
 19 20  2  0
 12 21  2  0
 21 22  1  0
 21  8  1  0
 19 13  1  0
M  END
>  <alias>  (856) 
None

>  <rmsd(smina/fragmenstein)>  (856) 
0.417

>  <smiles>  (856) 
CS/C=C\C(=O)Nc1cccc(N2C(=O)N[C@@H](C)C2=O)c1C

>  <gnina_score>  (856) 
5.29

>  <inspiration_score>  (856) 
None

>  <energy_score>  (856) 
-4.644537

>  <distance_score>  (856) 
1.345182

>  <gnina_score_min>  (856) 
5.299

>  <inchikey>  (856) 
ROVHJSATPLEFIP-DMEOUFDRSA-N

>  <exports>  (856) 
['/opt/xchem-fragalysis-2/maxwin/BulkDock/OUTPUTS/openbind_a71ev2a_c2_elabs_1LOUU54.sdf', '/opt/xchem-fragalysis-2/maxwin/BulkDock/OUTPUTS/openbind_a71ev2a_c2_elabs_1LSYIDY.sdf']

>  <name>  (856) 
P546707

>  <ref_pdb>  (856) 
A0884a

>  <subsites>  (856) 
None

>  <HIPPO Pose ID>  (856) 
546707

>  <ref_mols>  (856) 
A0884a

>  <HIPPO Compound ID>  (856) 
385285

>  <tags>  (856) 
openbind_a71ev2a_c2_elabs,syndirella_product,openbind_a71ev2a_c2_elabs_fragonly_scored_top80percent,openbind_a71ev2a_c2_elabs_scored,BulkDock Fragalysis export,openbind_a71ev2a_c2_elabs_scored_top80percent,openbind_a71ev2a_c2_elabs_activefrags_only_scored_5.2plus,syndirella_placed

>  <smina_score_min>  (856) 
-4.352

$$$$
P546715
     RDKit          3D

 22 23  0  0  0  0  0  0  0  0999 V2000
    3.1134   11.8898   29.8212 C   0  0  0  0  0  0  0  0  0  0  0  0
    2.2696   12.0843   28.2316 S   0  0  0  0  0  0  0  0  0  0  0  0
    3.0693   13.4956   27.6412 C   0  0  0  0  0  0  0  0  0  0  0  0
    4.2444   13.5674   26.9972 C   0  0  0  0  0  0  0  0  0  0  0  0
    5.1972   12.4498   26.6664 C   0  0  0  0  0  0  0  0  0  0  0  0
    5.1445   11.3955   27.1660 O   0  0  0  0  0  0  0  0  0  0  0  0
    6.2100   13.0274   25.6370 N   0  0  0  0  0  0  0  0  0  0  0  0
    7.2742   12.4116   24.9635 C   0  0  0  0  0  0  0  0  0  0  0  0
    7.4827   11.0391   25.0943 C   0  0  0  0  0  0  0  0  0  0  0  0
    8.5576   10.4405   24.4519 C   0  0  0  0  0  0  0  0  0  0  0  0
    9.4939   11.2282   23.8010 C   0  0  0  0  0  0  0  0  0  0  0  0
   10.5532   10.6198   23.2648 F   0  0  0  0  0  0  0  0  0  0  0  0
    9.3512   12.6130   23.6911 C   0  0  0  0  0  0  0  0  0  0  0  0
   10.4449   13.3599   23.1884 N   0  0  0  0  0  0  0  0  0  0  0  0
   10.4897   14.0568   22.0163 C   0  0  0  0  0  0  0  0  0  0  0  0
    9.5838   14.2259   21.2174 O   0  0  0  0  0  0  0  0  0  0  0  0
   11.8781   14.6207   21.8175 C   0  0  0  0  0  0  0  0  0  0  0  0
   12.5198   14.1676   23.0007 N   0  0  0  0  0  0  0  0  0  0  0  0
   11.6718   13.4310   23.7862 C   0  0  0  0  0  0  0  0  0  0  0  0
   12.0112   13.0151   24.8795 O   0  0  0  0  0  0  0  0  0  0  0  0
    8.1598   13.1998   24.1784 C   0  0  0  0  0  0  0  0  0  0  0  0
    7.8509   14.6548   23.9759 C   0  0  0  0  0  0  0  0  0  0  0  0
  1  2  1  0
  2  3  1  0
  3  4  2  0
  4  5  1  0
  5  6  2  0
  5  7  1  0
  7  8  1  0
  8  9  2  0
  9 10  1  0
 10 11  2  0
 11 12  1  0
 11 13  1  0
 13 14  1  0
 14 15  1  0
 15 16  2  0
 15 17  1  0
 17 18  1  0
 18 19  1  0
 19 20  2  0
 13 21  2  0
 21 22  1  0
 21  8  1  0
 19 14  1  0
M  END
>  <alias>  (857) 
None

>  <rmsd(smina/fragmenstein)>  (857) 
0.781

>  <smiles>  (857) 
CS/C=C\C(=O)Nc1ccc(F)c(N2C(=O)CNC2=O)c1C

>  <gnina_score>  (857) 
5.352

>  <inspiration_score>  (857) 
None

>  <energy_score>  (857) 
-52.545915

>  <distance_score>  (857) 
1.634329

>  <gnina_score_min>  (857) 
5.335

>  <inchikey>  (857) 
FSLOKLMZYRPJPN-WAYWQWQTSA-N

>  <exports>  (857) 
['/opt/xchem-fragalysis-2/maxwin/BulkDock/OUTPUTS/openbind_a71ev2a_c2_elabs_1LOUU54.sdf', '/opt/xchem-fragalysis-2/maxwin/BulkDock/OUTPUTS/openbind_a71ev2a_c2_elabs_1LSYIDY.sdf']

>  <name>  (857) 
P546715

>  <ref_pdb>  (857) 
A0884a

>  <subsites>  (857) 
None

>  <HIPPO Pose ID>  (857) 
546715

>  <ref_mols>  (857) 
A0884a

>  <HIPPO Compound ID>  (857) 
385288

>  <tags>  (857) 
openbind_a71ev2a_c2_elabs,syndirella_product,openbind_a71ev2a_c2_elabs_fragonly_scored_top80percent,openbind_a71ev2a_c2_elabs_scored,BulkDock Fragalysis export,openbind_a71ev2a_c2_elabs_scored_top80percent,openbind_a71ev2a_c2_elabs_activefrags_only_scored_5.2plus,syndirella_placed

>  <smina_score_min>  (857) 
-6.279

$$$$
P546716
     RDKit          3D

 22 23  0  0  0  0  0  0  0  0999 V2000
    8.0893   14.4527   24.6874 C   0  0  0  0  0  0  0  0  0  0  0  0
    8.4171   12.9989   24.5029 C   0  0  0  0  0  0  0  0  0  0  0  0
    7.6990   11.9968   25.1816 C   0  0  0  0  0  0  0  0  0  0  0  0
    6.7680   12.2338   26.1940 N   0  0  0  0  0  0  0  0  0  0  0  0
    6.7019   13.3715   27.2678 C   0  0  0  0  0  0  0  0  0  0  0  0
    7.4605   14.2328   27.5095 O   0  0  0  0  0  0  0  0  0  0  0  0
    5.3307   13.2675   27.9820 C   0  0  0  0  0  0  0  0  0  0  0  0
    5.2927   14.1391   29.2379 C   0  0  0  0  0  0  0  0  0  0  0  0
    4.1932   13.6400   27.0360 C   0  0  0  0  0  0  0  0  0  0  0  0
    5.0838   11.3956   28.5672 Br  0  0  0  0  0  0  0  0  0  0  0  0
    7.9033   10.6501   24.8650 C   0  0  0  0  0  0  0  0  0  0  0  0
    8.8921   10.2751   23.9636 C   0  0  0  0  0  0  0  0  0  0  0  0
    9.6641   11.2469   23.3488 C   0  0  0  0  0  0  0  0  0  0  0  0
    9.4333   12.6036   23.6007 C   0  0  0  0  0  0  0  0  0  0  0  0
   10.2308   13.5417   22.8793 N   0  0  0  0  0  0  0  0  0  0  0  0
    9.6694   14.1564   21.7552 C   0  0  0  0  0  0  0  0  0  0  0  0
    8.4987   13.9979   21.3925 O   0  0  0  0  0  0  0  0  0  0  0  0
   10.5581   15.1116   20.9975 C   0  0  0  0  0  0  0  0  0  0  0  0
   12.0036   14.7314   21.1665 C   0  0  0  0  0  0  0  0  0  0  0  0
   12.3101   14.5632   22.5522 N   0  0  0  0  0  0  0  0  0  0  0  0
   11.5332   13.7506   23.3178 C   0  0  0  0  0  0  0  0  0  0  0  0
   12.0322   13.2976   24.3428 O   0  0  0  0  0  0  0  0  0  0  0  0
  1  2  1  0
  2  3  2  0
  3  4  1  0
  4  5  1  0
  5  6  2  0
  5  7  1  0
  7  8  1  0
  7  9  1  0
  7 10  1  0
  3 11  1  0
 11 12  2  0
 12 13  1  0
 13 14  2  0
 14 15  1  0
 15 16  1  0
 16 17  2  0
 16 18  1  0
 18 19  1  0
 19 20  1  0
 20 21  1  0
 21 22  2  0
 14  2  1  0
 21 15  1  0
M  END
>  <alias>  (858) 
None

>  <rmsd(smina/fragmenstein)>  (858) 
0.359

>  <smiles>  (858) 
Cc1c(NC(=O)C(C)(C)Br)cccc1N1C(=O)CCNC1=O

>  <gnina_score>  (858) 
5.394

>  <inspiration_score>  (858) 
None

>  <energy_score>  (858) 
-21.03085

>  <distance_score>  (858) 
1.415794

>  <gnina_score_min>  (858) 
5.422

>  <inchikey>  (858) 
ZIAXAZPJRQFVCC-UHFFFAOYSA-N

>  <exports>  (858) 
['/opt/xchem-fragalysis-2/maxwin/BulkDock/OUTPUTS/openbind_a71ev2a_c2_elabs_1LOUU54.sdf', '/opt/xchem-fragalysis-2/maxwin/BulkDock/OUTPUTS/openbind_a71ev2a_c2_elabs_1LSYIDY.sdf']

>  <name>  (858) 
P546716

>  <ref_pdb>  (858) 
A0884a

>  <subsites>  (858) 
None

>  <HIPPO Pose ID>  (858) 
546716

>  <ref_mols>  (858) 
A0884a

>  <HIPPO Compound ID>  (858) 
385290

>  <tags>  (858) 
openbind_a71ev2a_c2_elabs,syndirella_product,openbind_a71ev2a_c2_elabs_fragonly_scored_top80percent,openbind_a71ev2a_c2_elabs_scored,BulkDock Fragalysis export,openbind_a71ev2a_c2_elabs_scored_top80percent,openbind_a71ev2a_c2_elabs_activefrags_only_scored_5.2plus,syndirella_placed

>  <smina_score_min>  (858) 
-7.173

$$$$
P546718
     RDKit          3D

 22 23  0  0  0  0  0  0  0  0999 V2000
    5.4388   10.0891   27.9482 C   0  0  0  0  0  0  0  0  0  0  0  0
    5.9076   11.1868   27.0109 C   0  0  0  0  0  0  0  0  0  0  0  0
    6.6021   10.6241   25.9061 O   0  0  0  0  0  0  0  0  0  0  0  0
    7.4686   11.4003   25.1805 C   0  0  0  0  0  0  0  0  0  0  0  0
    8.3802   10.6310   24.4371 C   0  0  0  0  0  0  0  0  0  0  0  0
    9.3917   11.2277   23.6827 C   0  0  0  0  0  0  0  0  0  0  0  0
    9.5041   12.6137   23.6609 C   0  0  0  0  0  0  0  0  0  0  0  0
   10.5127   13.2021   22.8786 N   0  0  0  0  0  0  0  0  0  0  0  0
   10.2203   14.2219   21.8903 C   0  0  0  0  0  0  0  0  0  0  0  0
   11.5924   14.7338   21.4841 C   0  0  0  0  0  0  0  0  0  0  0  0
   12.4078   14.4056   22.6132 N   0  0  0  0  0  0  0  0  0  0  0  0
   11.7507   13.5353   23.4679 C   0  0  0  0  0  0  0  0  0  0  0  0
   12.1851   13.1734   24.5479 O   0  0  0  0  0  0  0  0  0  0  0  0
    8.6130   13.3902   24.4009 C   0  0  0  0  0  0  0  0  0  0  0  0
    7.5797   12.8009   25.1423 C   0  0  0  0  0  0  0  0  0  0  0  0
    6.6915   13.6632   25.7857 N   0  0  0  0  0  0  0  0  0  0  0  0
    6.9112   15.1034   26.3636 C   0  0  0  0  0  0  0  0  0  0  0  0
    7.8882   15.7438   26.4527 O   0  0  0  0  0  0  0  0  0  0  0  0
    5.5268   15.5872   26.9128 C   0  0  0  0  0  0  0  0  0  0  0  0
    4.9920   14.6941   28.0360 C   0  0  0  0  0  0  0  0  0  0  0  0
    4.4991   15.7755   25.8002 C   0  0  0  0  0  0  0  0  0  0  0  0
    5.8076   17.3699   27.7646 Br  0  0  0  0  0  0  0  0  0  0  0  0
  1  2  1  0
  2  3  1  0
  3  4  1  0
  4  5  2  0
  5  6  1  0
  6  7  2  0
  7  8  1  0
  8  9  1  0
  9 10  1  0
 10 11  1  0
 11 12  1  0
 12 13  2  0
  7 14  1  0
 14 15  2  0
 15 16  1  0
 16 17  1  0
 17 18  2  0
 17 19  1  0
 19 20  1  0
 19 21  1  0
 19 22  1  0
 15  4  1  0
 12  8  1  0
M  END
>  <alias>  (859) 
None

>  <rmsd(smina/fragmenstein)>  (859) 
1.409

>  <smiles>  (859) 
CCOc1ccc(N2CCNC2=O)cc1NC(=O)C(C)(C)Br

>  <gnina_score>  (859) 
5.187

>  <inspiration_score>  (859) 
None

>  <energy_score>  (859) 
-12.377601

>  <distance_score>  (859) 
1.934039

>  <gnina_score_min>  (859) 
5.221

>  <inchikey>  (859) 
UOKXKCFHKIFGSF-UHFFFAOYSA-N

>  <exports>  (859) 
['/opt/xchem-fragalysis-2/maxwin/BulkDock/OUTPUTS/openbind_a71ev2a_c2_elabs_1LOUU54.sdf', '/opt/xchem-fragalysis-2/maxwin/BulkDock/OUTPUTS/openbind_a71ev2a_c2_elabs_1LSYIDY.sdf']

>  <name>  (859) 
P546718

>  <ref_pdb>  (859) 
A0884a

>  <subsites>  (859) 
None

>  <HIPPO Pose ID>  (859) 
546718

>  <ref_mols>  (859) 
A0884a

>  <HIPPO Compound ID>  (859) 
385293

>  <tags>  (859) 
openbind_a71ev2a_c2_elabs,syndirella_product,openbind_a71ev2a_c2_elabs_fragonly_scored_top80percent,openbind_a71ev2a_c2_elabs_scored,BulkDock Fragalysis export,openbind_a71ev2a_c2_elabs_scored_top80percent,openbind_a71ev2a_c2_elabs_activefrags_only_scored_5.2plus,syndirella_placed

>  <smina_score_min>  (859) 
-6.675

$$$$
P546719
     RDKit          3D

 22 23  0  0  0  0  0  0  0  0999 V2000
    4.9579   15.3053   27.2464 C   0  0  0  0  0  0  0  0  0  0  0  0
    4.2037   14.1408   26.6051 C   0  0  0  0  0  0  0  0  0  0  0  0
    3.4438   14.5697   25.3484 C   0  0  0  0  0  0  0  0  0  0  0  0
    2.8073   13.5825   27.9200 Br  0  0  0  0  0  0  0  0  0  0  0  0
    5.1374   12.9088   26.3681 C   0  0  0  0  0  0  0  0  0  0  0  0
    4.9888   11.8790   26.9075 O   0  0  0  0  0  0  0  0  0  0  0  0
    6.1912   13.3494   25.2944 N   0  0  0  0  0  0  0  0  0  0  0  0
    7.2874   12.6627   24.7639 C   0  0  0  0  0  0  0  0  0  0  0  0
    8.1309   13.4011   23.9245 C   0  0  0  0  0  0  0  0  0  0  0  0
    9.2809   12.8259   23.3753 C   0  0  0  0  0  0  0  0  0  0  0  0
   10.1758   13.5984   22.5900 N   0  0  0  0  0  0  0  0  0  0  0  0
    9.6339   14.5267   21.6062 C   0  0  0  0  0  0  0  0  0  0  0  0
   10.6155   14.9289   20.5270 C   0  0  0  0  0  0  0  0  0  0  0  0
   12.0203   14.5738   20.8945 C   0  0  0  0  0  0  0  0  0  0  0  0
   12.8783   14.3401   20.0487 O   0  0  0  0  0  0  0  0  0  0  0  0
   12.2779   14.5433   22.2312 N   0  0  0  0  0  0  0  0  0  0  0  0
   11.4796   13.7859   23.0432 C   0  0  0  0  0  0  0  0  0  0  0  0
   11.9331   13.3206   24.0880 O   0  0  0  0  0  0  0  0  0  0  0  0
    9.5421   11.4722   23.5943 C   0  0  0  0  0  0  0  0  0  0  0  0
    8.6754   10.7130   24.3762 C   0  0  0  0  0  0  0  0  0  0  0  0
    7.5794   11.3157   24.9899 C   0  0  0  0  0  0  0  0  0  0  0  0
    6.8115   10.5479   25.7683 F   0  0  0  0  0  0  0  0  0  0  0  0
  1  2  1  0
  2  3  1  0
  2  4  1  0
  2  5  1  0
  5  6  2  0
  5  7  1  0
  7  8  1  0
  8  9  2  0
  9 10  1  0
 10 11  1  0
 11 12  1  0
 12 13  1  0
 13 14  1  0
 14 15  2  0
 14 16  1  0
 16 17  1  0
 17 18  2  0
 10 19  2  0
 19 20  1  0
 20 21  2  0
 21 22  1  0
 21  8  1  0
 17 11  1  0
M  END
>  <alias>  (860) 
None

>  <rmsd(smina/fragmenstein)>  (860) 
0.596

>  <smiles>  (860) 
CC(C)(Br)C(=O)Nc1cc(N2CCC(=O)NC2=O)ccc1F

>  <gnina_score>  (860) 
5.54

>  <inspiration_score>  (860) 
None

>  <energy_score>  (860) 
-26.894858

>  <distance_score>  (860) 
1.338058

>  <gnina_score_min>  (860) 
5.519

>  <inchikey>  (860) 
ATVPCTFSHMABNA-UHFFFAOYSA-N

>  <exports>  (860) 
['/opt/xchem-fragalysis-2/maxwin/BulkDock/OUTPUTS/openbind_a71ev2a_c2_elabs_1LOUU54.sdf', '/opt/xchem-fragalysis-2/maxwin/BulkDock/OUTPUTS/openbind_a71ev2a_c2_elabs_1LSYIDY.sdf']

>  <name>  (860) 
P546719

>  <ref_pdb>  (860) 
A0884a

>  <subsites>  (860) 
None

>  <HIPPO Pose ID>  (860) 
546719

>  <ref_mols>  (860) 
A0884a

>  <HIPPO Compound ID>  (860) 
385294

>  <tags>  (860) 
openbind_a71ev2a_c2_elabs,syndirella_product,openbind_a71ev2a_c2_elabs_fragonly_scored_top80percent,BulkDock Fragalysis export,openbind_a71ev2a_c2_elabs_scored,openbind_a71ev2a_c2_elabs_scored_top80percent,openbind_a71ev2a_c2_elabs_activefrags_only_scored_5.2plus,openbind_a71ev2a_c2_elabs_activefrags_only_scored_5.5plus,syndirella_placed

>  <smina_score_min>  (860) 
-7.357

$$$$
P546723
     RDKit          3D

 22 24  0  0  0  0  0  0  0  0999 V2000
    4.6536   13.6744   29.4199 C   0  0  0  0  0  0  0  0  0  0  0  0
    3.9567   14.2767   28.2463 C   0  0  1  0  0  0  0  0  0  0  0  0
    4.7033   15.1949   27.3204 C   0  0  0  0  0  0  0  0  0  0  0  0
    4.2461   13.8387   26.8238 C   0  0  1  0  0  0  0  0  0  0  0  0
    5.2264   12.7531   26.5204 C   0  0  0  0  0  0  0  0  0  0  0  0
    5.1078   11.7091   27.0241 O   0  0  0  0  0  0  0  0  0  0  0  0
    6.2825   13.2670   25.5259 N   0  0  0  0  0  0  0  0  0  0  0  0
    7.3248   12.6006   24.8897 C   0  0  0  0  0  0  0  0  0  0  0  0
    7.5274   11.2317   25.0291 C   0  0  0  0  0  0  0  0  0  0  0  0
    8.5850   10.6304   24.3551 C   0  0  0  0  0  0  0  0  0  0  0  0
    8.7265    9.3025   24.4231 F   0  0  0  0  0  0  0  0  0  0  0  0
    9.4782   11.3738   23.5937 C   0  0  0  0  0  0  0  0  0  0  0  0
    9.2763   12.7465   23.4511 C   0  0  0  0  0  0  0  0  0  0  0  0
   10.1689   13.5126   22.6555 N   0  0  0  0  0  0  0  0  0  0  0  0
    9.6154   14.4668   21.7050 C   0  0  0  0  0  0  0  0  0  0  0  0
   10.5866   14.9066   20.6317 C   0  0  0  0  0  0  0  0  0  0  0  0
   12.0011   14.5826   20.9921 C   0  0  0  0  0  0  0  0  0  0  0  0
   12.8664   14.4157   20.1372 O   0  0  0  0  0  0  0  0  0  0  0  0
   12.2566   14.5023   22.3271 N   0  0  0  0  0  0  0  0  0  0  0  0
   11.4650   13.7205   23.1236 C   0  0  0  0  0  0  0  0  0  0  0  0
   11.9154   13.2447   24.1641 O   0  0  0  0  0  0  0  0  0  0  0  0
    8.1812   13.3499   24.0783 C   0  0  0  0  0  0  0  0  0  0  0  0
  2  1  1  1
  2  3  1  0
  3  4  1  0
  4  5  1  1
  5  6  2  0
  5  7  1  0
  7  8  1  0
  8  9  2  0
  9 10  1  0
 10 11  1  0
 10 12  2  0
 12 13  1  0
 13 14  1  0
 14 15  1  0
 15 16  1  0
 16 17  1  0
 17 18  2  0
 17 19  1  0
 19 20  1  0
 20 21  2  0
 13 22  2  0
  4  2  1  0
 22  8  1  0
 20 14  1  0
M  END
>  <alias>  (861) 
None

>  <rmsd(smina/fragmenstein)>  (861) 
0.898

>  <smiles>  (861) 
C[C@H]1C[C@H]1C(=O)Nc1cc(F)cc(N2CCC(=O)NC2=O)c1

>  <gnina_score>  (861) 
5.314

>  <inspiration_score>  (861) 
None

>  <energy_score>  (861) 
-23.173587

>  <distance_score>  (861) 
1.235809

>  <gnina_score_min>  (861) 
5.331

>  <inchikey>  (861) 
JNMRPAGIMSRZDD-QPUJVOFHSA-N

>  <exports>  (861) 
['/opt/xchem-fragalysis-2/maxwin/BulkDock/OUTPUTS/openbind_a71ev2a_c2_elabs_1LOUU54.sdf', '/opt/xchem-fragalysis-2/maxwin/BulkDock/OUTPUTS/openbind_a71ev2a_c2_elabs_1LSYIDY.sdf']

>  <name>  (861) 
P546723

>  <ref_pdb>  (861) 
A0884a

>  <subsites>  (861) 
None

>  <HIPPO Pose ID>  (861) 
546723

>  <ref_mols>  (861) 
A0884a

>  <HIPPO Compound ID>  (861) 
385295

>  <tags>  (861) 
openbind_a71ev2a_c2_elabs,syndirella_product,openbind_a71ev2a_c2_elabs_fragonly_scored_top80percent,openbind_a71ev2a_c2_elabs_scored,BulkDock Fragalysis export,openbind_a71ev2a_c2_elabs_scored_top80percent,openbind_a71ev2a_c2_elabs_activefrags_only_scored_5.2plus,syndirella_placed

>  <smina_score_min>  (861) 
-7.092

$$$$
P546724
     RDKit          3D

 22 24  0  0  0  0  0  0  0  0999 V2000
    6.2978   15.1460   25.6399 O   0  0  0  0  0  0  0  0  0  0  0  0
    5.8317   14.1216   25.9425 C   0  0  0  0  0  0  0  0  0  0  0  0
    4.5237   14.0754   26.6593 C   0  0  0  0  0  0  0  0  0  0  0  0
    4.2026   13.2178   27.6062 C   0  0  0  0  0  0  0  0  0  0  0  0
    4.5709   12.1088   28.3950 C   0  0  0  0  0  0  0  0  0  0  0  0
    3.2066   12.8559   28.5382 C   0  0  0  0  0  0  0  0  0  0  0  0
    6.3332   12.6822   25.6962 N   0  0  0  0  0  0  0  0  0  0  0  0
    7.4235   12.2183   24.9709 C   0  0  0  0  0  0  0  0  0  0  0  0
    7.6675   10.8504   24.9510 C   0  0  0  0  0  0  0  0  0  0  0  0
    8.7444   10.3652   24.2234 C   0  0  0  0  0  0  0  0  0  0  0  0
    8.9569    9.0480   24.1830 F   0  0  0  0  0  0  0  0  0  0  0  0
    9.5927   11.2134   23.5312 C   0  0  0  0  0  0  0  0  0  0  0  0
    9.3483   12.5845   23.5443 C   0  0  0  0  0  0  0  0  0  0  0  0
   10.1886   13.4381   22.7877 N   0  0  0  0  0  0  0  0  0  0  0  0
    9.5722   14.3918   21.8813 C   0  0  0  0  0  0  0  0  0  0  0  0
   10.5080   14.9151   20.8120 C   0  0  0  0  0  0  0  0  0  0  0  0
   11.9404   14.6041   21.1187 C   0  0  0  0  0  0  0  0  0  0  0  0
   12.7833   14.4678   20.2366 O   0  0  0  0  0  0  0  0  0  0  0  0
   12.2351   14.5020   22.4436 N   0  0  0  0  0  0  0  0  0  0  0  0
   11.4843   13.6776   23.2357 C   0  0  0  0  0  0  0  0  0  0  0  0
   11.9741   13.1804   24.2476 O   0  0  0  0  0  0  0  0  0  0  0  0
    8.2563   13.0860   24.2604 C   0  0  0  0  0  0  0  0  0  0  0  0
  1  2  2  0
  2  3  1  0
  3  4  2  3
  4  5  1  0
  5  6  1  0
  2  7  1  0
  7  8  1  0
  8  9  2  0
  9 10  1  0
 10 11  1  0
 10 12  2  0
 12 13  1  0
 13 14  1  0
 14 15  1  0
 15 16  1  0
 16 17  1  0
 17 18  2  0
 17 19  1  0
 19 20  1  0
 20 21  2  0
 13 22  2  0
  6  4  1  0
 22  8  1  0
 20 14  1  0
M  END
>  <alias>  (862) 
None

>  <rmsd(smina/fragmenstein)>  (862) 
0.978

>  <smiles>  (862) 
O=C(C=C1CC1)Nc1cc(F)cc(N2CCC(=O)NC2=O)c1

>  <gnina_score>  (862) 
5.288

>  <inspiration_score>  (862) 
None

>  <energy_score>  (862) 
-37.647737

>  <distance_score>  (862) 
1.410923

>  <gnina_score_min>  (862) 
5.389

>  <inchikey>  (862) 
AKKMDRRHYDEDIW-UHFFFAOYSA-N

>  <exports>  (862) 
['/opt/xchem-fragalysis-2/maxwin/BulkDock/OUTPUTS/openbind_a71ev2a_c2_elabs_1LOUU54.sdf', '/opt/xchem-fragalysis-2/maxwin/BulkDock/OUTPUTS/openbind_a71ev2a_c2_elabs_1LSYIDY.sdf']

>  <name>  (862) 
P546724

>  <ref_pdb>  (862) 
A0884a

>  <subsites>  (862) 
None

>  <HIPPO Pose ID>  (862) 
546724

>  <ref_mols>  (862) 
A0884a

>  <HIPPO Compound ID>  (862) 
385296

>  <tags>  (862) 
openbind_a71ev2a_c2_elabs,syndirella_product,openbind_a71ev2a_c2_elabs_fragonly_scored_top80percent,openbind_a71ev2a_c2_elabs_scored,BulkDock Fragalysis export,openbind_a71ev2a_c2_elabs_scored_top80percent,openbind_a71ev2a_c2_elabs_activefrags_only_scored_5.2plus,syndirella_placed

>  <smina_score_min>  (862) 
-7.061

$$$$
P546725
     RDKit          3D

 22 24  0  0  0  0  0  0  0  0999 V2000
    8.2926   14.5081   24.8917 C   0  0  0  0  0  0  0  0  0  0  0  0
    8.3713   13.0257   24.6590 C   0  0  0  0  0  0  0  0  0  0  0  0
    7.4269   12.1685   25.2705 C   0  0  0  0  0  0  0  0  0  0  0  0
    6.3721   12.7127   26.0073 N   0  0  0  0  0  0  0  0  0  0  0  0
    5.3271   12.0300   26.9195 C   0  0  0  0  0  0  0  0  0  0  0  0
    5.2309   10.9176   27.2589 O   0  0  0  0  0  0  0  0  0  0  0  0
    4.3630   13.0557   27.4114 C   0  0  0  0  0  0  0  0  0  0  0  0
    3.8293   13.9918   26.6537 C   0  0  0  0  0  0  0  0  0  0  0  0
    3.7464   14.5948   25.3816 C   0  0  0  0  0  0  0  0  0  0  0  0
    2.9017   15.0534   26.6131 C   0  0  0  0  0  0  0  0  0  0  0  0
    7.5542   10.7886   25.1426 C   0  0  0  0  0  0  0  0  0  0  0  0
    8.5719   10.2550   24.3599 C   0  0  0  0  0  0  0  0  0  0  0  0
    9.4911   11.0889   23.7467 C   0  0  0  0  0  0  0  0  0  0  0  0
   10.4103   10.5336   22.9556 F   0  0  0  0  0  0  0  0  0  0  0  0
    9.4323   12.4718   23.8983 C   0  0  0  0  0  0  0  0  0  0  0  0
   10.4285   13.2693   23.2959 N   0  0  0  0  0  0  0  0  0  0  0  0
   11.7820   13.1717   23.4848 C   0  0  0  0  0  0  0  0  0  0  0  0
   12.3848   12.5170   24.3228 O   0  0  0  0  0  0  0  0  0  0  0  0
   12.4666   14.0748   22.4790 C   0  0  0  0  0  0  0  0  0  0  0  0
   11.3659   14.8646   22.0582 N   0  0  0  0  0  0  0  0  0  0  0  0
   10.1952   14.2314   22.3680 C   0  0  0  0  0  0  0  0  0  0  0  0
    9.1466   14.5173   21.8262 O   0  0  0  0  0  0  0  0  0  0  0  0
  1  2  1  0
  2  3  2  0
  3  4  1  0
  4  5  1  0
  5  6  2  0
  5  7  1  0
  7  8  2  3
  8  9  1  0
  9 10  1  0
  3 11  1  0
 11 12  2  0
 12 13  1  0
 13 14  1  0
 13 15  2  0
 15 16  1  0
 16 17  1  0
 17 18  2  0
 17 19  1  0
 19 20  1  0
 20 21  1  0
 21 22  2  0
 15  2  1  0
 21 16  1  0
 10  8  1  0
M  END
>  <alias>  (863) 
None

>  <rmsd(smina/fragmenstein)>  (863) 
0.562

>  <smiles>  (863) 
Cc1c(NC(=O)C=C2CC2)ccc(F)c1N1C(=O)CNC1=O

>  <gnina_score>  (863) 
5.461

>  <inspiration_score>  (863) 
None

>  <energy_score>  (863) 
-56.164952

>  <distance_score>  (863) 
1.595487

>  <gnina_score_min>  (863) 
5.463

>  <inchikey>  (863) 
YIBXINDEDMTHEB-UHFFFAOYSA-N

>  <exports>  (863) 
['/opt/xchem-fragalysis-2/maxwin/BulkDock/OUTPUTS/openbind_a71ev2a_c2_elabs_1LOUU54.sdf', '/opt/xchem-fragalysis-2/maxwin/BulkDock/OUTPUTS/openbind_a71ev2a_c2_elabs_1LSYIDY.sdf']

>  <name>  (863) 
P546725

>  <ref_pdb>  (863) 
A0884a

>  <subsites>  (863) 
None

>  <HIPPO Pose ID>  (863) 
546725

>  <ref_mols>  (863) 
A0884a

>  <HIPPO Compound ID>  (863) 
385297

>  <tags>  (863) 
openbind_a71ev2a_c2_elabs,syndirella_product,openbind_a71ev2a_c2_elabs_fragonly_scored_top80percent,openbind_a71ev2a_c2_elabs_scored,BulkDock Fragalysis export,openbind_a71ev2a_c2_elabs_scored_top80percent,openbind_a71ev2a_c2_elabs_activefrags_only_scored_5.2plus,syndirella_placed

>  <smina_score_min>  (863) 
-6.982

$$$$
P546726
     RDKit          3D

 22 23  0  0  0  0  0  0  0  0999 V2000
    6.0945   14.6650   28.8070 C   0  0  0  0  0  0  0  0  0  0  0  0
    5.2303   14.7827   27.6834 O   0  0  0  0  0  0  0  0  0  0  0  0
    4.5440   13.5825   27.3237 C   0  0  2  0  0  0  0  0  0  0  0  0
    3.6579   13.0499   28.4455 C   0  0  0  0  0  0  0  0  0  0  0  0
    5.4728   12.4822   26.7447 C   0  0  0  0  0  0  0  0  0  0  0  0
    5.3705   11.3390   26.9762 O   0  0  0  0  0  0  0  0  0  0  0  0
    6.4387   13.2355   25.7765 N   0  0  0  0  0  0  0  0  0  0  0  0
    7.4919   12.7611   25.0029 C   0  0  0  0  0  0  0  0  0  0  0  0
    7.7717   11.3995   24.8927 C   0  0  0  0  0  0  0  0  0  0  0  0
    8.8461   10.9693   24.1047 C   0  0  0  0  0  0  0  0  0  0  0  0
    9.1324    9.5353   23.8634 C   0  0  0  0  0  0  0  0  0  0  0  0
    9.6569   11.8976   23.4703 C   0  0  0  0  0  0  0  0  0  0  0  0
    9.3795   13.2527   23.5859 C   0  0  0  0  0  0  0  0  0  0  0  0
   10.1950   14.1775   22.8930 N   0  0  0  0  0  0  0  0  0  0  0  0
    9.6702   14.5684   21.5844 C   0  0  0  0  0  0  0  0  0  0  0  0
   10.6314   15.3563   20.7415 C   0  0  0  0  0  0  0  0  0  0  0  0
   11.9935   14.7608   20.9119 C   0  0  0  0  0  0  0  0  0  0  0  0
   12.6960   14.3821   19.9808 O   0  0  0  0  0  0  0  0  0  0  0  0
   12.3822   14.6880   22.2176 N   0  0  0  0  0  0  0  0  0  0  0  0
   11.5588   14.1552   23.1648 C   0  0  0  0  0  0  0  0  0  0  0  0
   12.0392   13.6680   24.1896 O   0  0  0  0  0  0  0  0  0  0  0  0
    8.2795   13.6884   24.3205 C   0  0  0  0  0  0  0  0  0  0  0  0
  1  2  1  0
  2  3  1  0
  3  4  1  1
  3  5  1  0
  5  6  2  0
  5  7  1  0
  7  8  1  0
  8  9  2  0
  9 10  1  0
 10 11  1  0
 10 12  2  0
 12 13  1  0
 13 14  1  0
 14 15  1  0
 15 16  1  0
 16 17  1  0
 17 18  2  0
 17 19  1  0
 19 20  1  0
 20 21  2  0
 13 22  2  0
 22  8  1  0
 20 14  1  0
M  END
>  <alias>  (864) 
None

>  <rmsd(smina/fragmenstein)>  (864) 
0.853

>  <smiles>  (864) 
CO[C@H](C)C(=O)Nc1cc(C)cc(N2CCC(=O)NC2=O)c1

>  <gnina_score>  (864) 
5.299

>  <inspiration_score>  (864) 
None

>  <energy_score>  (864) 
-56.530289

>  <distance_score>  (864) 
1.302882

>  <gnina_score_min>  (864) 
5.442

>  <inchikey>  (864) 
RDXKKVUPSWJGSX-SNVBAGLBSA-N

>  <exports>  (864) 
['/opt/xchem-fragalysis-2/maxwin/BulkDock/OUTPUTS/openbind_a71ev2a_c2_elabs_1LOUU54.sdf', '/opt/xchem-fragalysis-2/maxwin/BulkDock/OUTPUTS/openbind_a71ev2a_c2_elabs_1LSYIDY.sdf']

>  <name>  (864) 
P546726

>  <ref_pdb>  (864) 
A0884a

>  <subsites>  (864) 
None

>  <HIPPO Pose ID>  (864) 
546726

>  <ref_mols>  (864) 
A0884a

>  <HIPPO Compound ID>  (864) 
385298

>  <tags>  (864) 
openbind_a71ev2a_c2_elabs,syndirella_product,openbind_a71ev2a_c2_elabs_fragonly_scored_top80percent,openbind_a71ev2a_c2_elabs_scored,BulkDock Fragalysis export,openbind_a71ev2a_c2_elabs_scored_top80percent,openbind_a71ev2a_c2_elabs_activefrags_only_scored_5.2plus,syndirella_placed

>  <smina_score_min>  (864) 
-6.751

$$$$
P546730
     RDKit          3D

 22 23  0  0  0  0  0  0  0  0999 V2000
    4.4639   13.2528   29.4225 C   0  0  0  0  0  0  0  0  0  0  0  0
    5.0957   13.1752   28.1496 O   0  0  0  0  0  0  0  0  0  0  0  0
    5.3235   14.4713   27.5716 C   0  0  2  0  0  0  0  0  0  0  0  0
    4.1122   14.8784   26.7423 C   0  0  0  0  0  0  0  0  0  0  0  0
    6.5691   14.4400   26.6550 C   0  0  0  0  0  0  0  0  0  0  0  0
    7.2272   15.3800   26.4244 O   0  0  0  0  0  0  0  0  0  0  0  0
    6.6436   12.9908   26.0853 N   0  0  0  0  0  0  0  0  0  0  0  0
    7.5635   12.4070   25.2249 C   0  0  0  0  0  0  0  0  0  0  0  0
    7.6090   11.0164   25.1191 C   0  0  0  0  0  0  0  0  0  0  0  0
    8.5531   10.4200   24.2856 C   0  0  0  0  0  0  0  0  0  0  0  0
    9.4199   11.2123   23.5442 C   0  0  0  0  0  0  0  0  0  0  0  0
   10.2491   10.6115   22.6864 F   0  0  0  0  0  0  0  0  0  0  0  0
    9.3617   12.6046   23.6173 C   0  0  0  0  0  0  0  0  0  0  0  0
   10.2134   13.3972   22.8046 N   0  0  0  0  0  0  0  0  0  0  0  0
    9.5922   14.3443   21.8935 C   0  0  0  0  0  0  0  0  0  0  0  0
   10.5230   14.8693   20.8209 C   0  0  0  0  0  0  0  0  0  0  0  0
   11.9558   14.5608   21.1246 C   0  0  0  0  0  0  0  0  0  0  0  0
   12.7996   14.4301   20.2431 O   0  0  0  0  0  0  0  0  0  0  0  0
   12.2548   14.4645   22.4503 N   0  0  0  0  0  0  0  0  0  0  0  0
   11.4976   13.6651   23.2636 C   0  0  0  0  0  0  0  0  0  0  0  0
   11.9733   13.2233   24.3078 O   0  0  0  0  0  0  0  0  0  0  0  0
    8.4303   13.1999   24.4689 C   0  0  0  0  0  0  0  0  0  0  0  0
  1  2  1  0
  2  3  1  0
  3  4  1  6
  3  5  1  0
  5  6  2  0
  5  7  1  0
  7  8  1  0
  8  9  2  0
  9 10  1  0
 10 11  2  0
 11 12  1  0
 11 13  1  0
 13 14  1  0
 14 15  1  0
 15 16  1  0
 16 17  1  0
 17 18  2  0
 17 19  1  0
 19 20  1  0
 20 21  2  0
 13 22  2  0
 22  8  1  0
 20 14  1  0
M  END
>  <alias>  (865) 
None

>  <rmsd(smina/fragmenstein)>  (865) 
0.345

>  <smiles>  (865) 
CO[C@H](C)C(=O)Nc1ccc(F)c(N2CCC(=O)NC2=O)c1

>  <gnina_score>  (865) 
5.297

>  <inspiration_score>  (865) 
None

>  <energy_score>  (865) 
-10.605719

>  <distance_score>  (865) 
1.514987

>  <gnina_score_min>  (865) 
5.283

>  <inchikey>  (865) 
JRSUWEUBVPKMNY-MRVPVSSYSA-N

>  <exports>  (865) 
['/opt/xchem-fragalysis-2/maxwin/BulkDock/OUTPUTS/openbind_a71ev2a_c2_elabs_1LOUU54.sdf', '/opt/xchem-fragalysis-2/maxwin/BulkDock/OUTPUTS/openbind_a71ev2a_c2_elabs_1LSYIDY.sdf']

>  <name>  (865) 
P546730

>  <ref_pdb>  (865) 
A0884a

>  <subsites>  (865) 
None

>  <HIPPO Pose ID>  (865) 
546730

>  <ref_mols>  (865) 
A0884a

>  <HIPPO Compound ID>  (865) 
385301

>  <tags>  (865) 
openbind_a71ev2a_c2_elabs,syndirella_product,openbind_a71ev2a_c2_elabs_fragonly_scored_top80percent,openbind_a71ev2a_c2_elabs_scored,BulkDock Fragalysis export,openbind_a71ev2a_c2_elabs_scored_top80percent,openbind_a71ev2a_c2_elabs_activefrags_only_scored_5.2plus,syndirella_placed

>  <smina_score_min>  (865) 
-6.7

$$$$
P546733
     RDKit          3D

 22 23  0  0  0  0  0  0  0  0999 V2000
    3.1524   13.0039   28.8788 C   0  0  0  0  0  0  0  0  0  0  0  0
    3.0050   13.3153   27.4999 O   0  0  0  0  0  0  0  0  0  0  0  0
    4.1973   13.7331   26.8277 C   0  0  1  0  0  0  0  0  0  0  0  0
    4.8568   14.9264   27.5198 C   0  0  0  0  0  0  0  0  0  0  0  0
    5.2319   12.5921   26.5459 C   0  0  0  0  0  0  0  0  0  0  0  0
    5.1994   11.5540   27.0887 O   0  0  0  0  0  0  0  0  0  0  0  0
    6.1808   13.1161   25.4175 N   0  0  0  0  0  0  0  0  0  0  0  0
    7.2919   12.5243   24.8252 C   0  0  0  0  0  0  0  0  0  0  0  0
    7.5584   11.1686   24.9877 C   0  0  0  0  0  0  0  0  0  0  0  0
    8.6453   10.6082   24.3299 C   0  0  0  0  0  0  0  0  0  0  0  0
    8.8344    9.2868   24.3969 F   0  0  0  0  0  0  0  0  0  0  0  0
    9.5183   11.3863   23.5824 C   0  0  0  0  0  0  0  0  0  0  0  0
    9.2652   12.7501   23.4303 C   0  0  0  0  0  0  0  0  0  0  0  0
   10.1523   13.5453   22.6569 N   0  0  0  0  0  0  0  0  0  0  0  0
    9.5996   14.4856   21.6918 C   0  0  0  0  0  0  0  0  0  0  0  0
   10.5777   14.9300   20.6250 C   0  0  0  0  0  0  0  0  0  0  0  0
   11.9891   14.5887   20.9831 C   0  0  0  0  0  0  0  0  0  0  0  0
   12.8509   14.3916   20.1308 O   0  0  0  0  0  0  0  0  0  0  0  0
   12.2450   14.5216   22.3187 N   0  0  0  0  0  0  0  0  0  0  0  0
   11.4545   13.7390   23.1139 C   0  0  0  0  0  0  0  0  0  0  0  0
   11.9110   13.2477   24.1455 O   0  0  0  0  0  0  0  0  0  0  0  0
    8.1252   13.3076   24.0210 C   0  0  0  0  0  0  0  0  0  0  0  0
  1  2  1  0
  2  3  1  0
  3  4  1  1
  3  5  1  0
  5  6  2  0
  5  7  1  0
  7  8  1  0
  8  9  2  0
  9 10  1  0
 10 11  1  0
 10 12  2  0
 12 13  1  0
 13 14  1  0
 14 15  1  0
 15 16  1  0
 16 17  1  0
 17 18  2  0
 17 19  1  0
 19 20  1  0
 20 21  2  0
 13 22  2  0
 22  8  1  0
 20 14  1  0
M  END
>  <alias>  (866) 
None

>  <rmsd(smina/fragmenstein)>  (866) 
0.352

>  <smiles>  (866) 
CO[C@@H](C)C(=O)Nc1cc(F)cc(N2CCC(=O)NC2=O)c1

>  <gnina_score>  (866) 
5.207

>  <inspiration_score>  (866) 
None

>  <energy_score>  (866) 
-17.004101

>  <distance_score>  (866) 
1.238793

>  <gnina_score_min>  (866) 
5.223

>  <inchikey>  (866) 
WYWXVNGPPJVTMW-QMMMGPOBSA-N

>  <exports>  (866) 
['/opt/xchem-fragalysis-2/maxwin/BulkDock/OUTPUTS/openbind_a71ev2a_c2_elabs_1LOUU54.sdf', '/opt/xchem-fragalysis-2/maxwin/BulkDock/OUTPUTS/openbind_a71ev2a_c2_elabs_1LSYIDY.sdf']

>  <name>  (866) 
P546733

>  <ref_pdb>  (866) 
A0884a

>  <subsites>  (866) 
None

>  <HIPPO Pose ID>  (866) 
546733

>  <ref_mols>  (866) 
A0884a

>  <HIPPO Compound ID>  (866) 
385304

>  <tags>  (866) 
openbind_a71ev2a_c2_elabs,syndirella_product,openbind_a71ev2a_c2_elabs_fragonly_scored_top80percent,openbind_a71ev2a_c2_elabs_scored,BulkDock Fragalysis export,openbind_a71ev2a_c2_elabs_scored_top80percent,openbind_a71ev2a_c2_elabs_activefrags_only_scored_5.2plus,syndirella_placed

>  <smina_score_min>  (866) 
-6.712

$$$$
P546737
     RDKit          3D

 22 23  0  0  0  0  0  0  0  0999 V2000
    3.5324   14.8459   27.5986 C   0  0  0  0  0  0  0  0  0  0  0  0
    3.7842   13.5568   27.0514 O   0  0  0  0  0  0  0  0  0  0  0  0
    4.3271   12.6367   27.9999 C   0  0  1  0  0  0  0  0  0  0  0  0
    3.2012   11.9276   28.7424 C   0  0  0  0  0  0  0  0  0  0  0  0
    5.2634   11.6070   27.3054 C   0  0  0  0  0  0  0  0  0  0  0  0
    5.4265   10.5110   27.6827 O   0  0  0  0  0  0  0  0  0  0  0  0
    5.9501   12.3881   26.1429 N   0  0  0  0  0  0  0  0  0  0  0  0
    7.0031   12.0222   25.3041 C   0  0  0  0  0  0  0  0  0  0  0  0
    7.3722   10.6853   25.1780 C   0  0  0  0  0  0  0  0  0  0  0  0
    8.4589   10.3275   24.3835 C   0  0  0  0  0  0  0  0  0  0  0  0
    9.2678   11.3122   23.8439 C   0  0  0  0  0  0  0  0  0  0  0  0
   10.4220   10.9292   23.2935 F   0  0  0  0  0  0  0  0  0  0  0  0
    8.9770   12.6635   24.0518 C   0  0  0  0  0  0  0  0  0  0  0  0
   10.0420   13.5932   24.0378 N   0  0  0  0  0  0  0  0  0  0  0  0
   10.3730   14.2723   25.1866 C   0  0  0  0  0  0  0  0  0  0  0  0
    9.6770   14.6056   26.1398 O   0  0  0  0  0  0  0  0  0  0  0  0
   11.8366   14.5852   25.1514 C   0  0  0  0  0  0  0  0  0  0  0  0
   12.1381   14.3060   23.7975 N   0  0  0  0  0  0  0  0  0  0  0  0
   11.1161   13.6236   23.1949 C   0  0  0  0  0  0  0  0  0  0  0  0
   11.2469   13.1961   22.0696 O   0  0  0  0  0  0  0  0  0  0  0  0
    7.7415   13.0166   24.6404 C   0  0  0  0  0  0  0  0  0  0  0  0
    7.2345   14.4389   24.5928 C   0  0  0  0  0  0  0  0  0  0  0  0
  1  2  1  0
  2  3  1  0
  3  4  1  6
  3  5  1  0
  5  6  2  0
  5  7  1  0
  7  8  1  0
  8  9  2  0
  9 10  1  0
 10 11  2  0
 11 12  1  0
 11 13  1  0
 13 14  1  0
 14 15  1  0
 15 16  2  0
 15 17  1  0
 17 18  1  0
 18 19  1  0
 19 20  2  0
 13 21  2  0
 21 22  1  0
 21  8  1  0
 19 14  1  0
M  END
>  <alias>  (867) 
None

>  <rmsd(smina/fragmenstein)>  (867) 
2.049

>  <smiles>  (867) 
CO[C@@H](C)C(=O)Nc1ccc(F)c(N2C(=O)CNC2=O)c1C

>  <gnina_score>  (867) 
5.106

>  <inspiration_score>  (867) 
None

>  <energy_score>  (867) 
-38.948434

>  <distance_score>  (867) 
1.402749

>  <gnina_score_min>  (867) 
5.361

>  <inchikey>  (867) 
WVWUYJYHPLFLCP-QMMMGPOBSA-N

>  <exports>  (867) 
['/opt/xchem-fragalysis-2/maxwin/BulkDock/OUTPUTS/openbind_a71ev2a_c2_elabs_1LOUU54.sdf', '/opt/xchem-fragalysis-2/maxwin/BulkDock/OUTPUTS/openbind_a71ev2a_c2_elabs_1LSYIDY.sdf']

>  <name>  (867) 
P546737

>  <ref_pdb>  (867) 
A0884a

>  <subsites>  (867) 
None

>  <HIPPO Pose ID>  (867) 
546737

>  <ref_mols>  (867) 
A0884a

>  <HIPPO Compound ID>  (867) 
385306

>  <tags>  (867) 
openbind_a71ev2a_c2_elabs,syndirella_product,openbind_a71ev2a_c2_elabs_fragonly_scored_top80percent,openbind_a71ev2a_c2_elabs_scored,BulkDock Fragalysis export,openbind_a71ev2a_c2_elabs_scored_top80percent,openbind_a71ev2a_c2_elabs_activefrags_only_scored_5.2plus,syndirella_placed

>  <smina_score_min>  (867) 
-6.35

$$$$
P546738
     RDKit          3D

 22 23  0  0  0  0  0  0  0  0999 V2000
    4.2379   10.9718   28.6882 C   0  0  0  0  0  0  0  0  0  0  0  0
    5.2842   11.5381   27.9095 O   0  0  0  0  0  0  0  0  0  0  0  0
    5.1318   12.9484   27.6752 C   0  0  1  0  0  0  0  0  0  0  0  0
    5.2622   13.7538   28.9655 C   0  0  0  0  0  0  0  0  0  0  0  0
    6.1818   13.4651   26.6491 C   0  0  0  0  0  0  0  0  0  0  0  0
    6.3985   14.5979   26.4566 O   0  0  0  0  0  0  0  0  0  0  0  0
    6.7733   12.1953   25.9690 N   0  0  0  0  0  0  0  0  0  0  0  0
    7.7803   12.0665   25.0186 C   0  0  0  0  0  0  0  0  0  0  0  0
    8.1860   10.7770   24.6623 C   0  0  0  0  0  0  0  0  0  0  0  0
    9.2408   10.6183   23.7721 C   0  0  0  0  0  0  0  0  0  0  0  0
    9.8371    9.0939   23.3088 Cl  0  0  0  0  0  0  0  0  0  0  0  0
    9.8770   11.7166   23.2347 C   0  0  0  0  0  0  0  0  0  0  0  0
    9.4720   12.9989   23.5795 C   0  0  0  0  0  0  0  0  0  0  0  0
   10.1686   14.0923   22.9989 N   0  0  0  0  0  0  0  0  0  0  0  0
    9.6255   14.5256   21.7084 C   0  0  0  0  0  0  0  0  0  0  0  0
   10.5608   15.3500   20.8652 C   0  0  0  0  0  0  0  0  0  0  0  0
   11.9459   14.8111   21.0332 C   0  0  0  0  0  0  0  0  0  0  0  0
   12.6682   14.4776   20.0993 O   0  0  0  0  0  0  0  0  0  0  0  0
   12.3327   14.7401   22.3390 N   0  0  0  0  0  0  0  0  0  0  0  0
   11.5332   14.1560   23.2758 C   0  0  0  0  0  0  0  0  0  0  0  0
   12.0359   13.6667   24.2888 O   0  0  0  0  0  0  0  0  0  0  0  0
    8.4108   13.1845   24.4607 C   0  0  0  0  0  0  0  0  0  0  0  0
  1  2  1  0
  2  3  1  0
  3  4  1  1
  3  5  1  0
  5  6  2  0
  5  7  1  0
  7  8  1  0
  8  9  2  0
  9 10  1  0
 10 11  1  0
 10 12  2  0
 12 13  1  0
 13 14  1  0
 14 15  1  0
 15 16  1  0
 16 17  1  0
 17 18  2  0
 17 19  1  0
 19 20  1  0
 20 21  2  0
 13 22  2  0
 22  8  1  0
 20 14  1  0
M  END
>  <alias>  (868) 
None

>  <rmsd(smina/fragmenstein)>  (868) 
0.483

>  <smiles>  (868) 
CO[C@@H](C)C(=O)Nc1cc(Cl)cc(N2CCC(=O)NC2=O)c1

>  <gnina_score>  (868) 
5.532

>  <inspiration_score>  (868) 
None

>  <energy_score>  (868) 
-19.960575

>  <distance_score>  (868) 
1.142516

>  <gnina_score_min>  (868) 
5.591

>  <inchikey>  (868) 
ACDZUSHEJBUEMQ-QMMMGPOBSA-N

>  <exports>  (868) 
['/opt/xchem-fragalysis-2/maxwin/BulkDock/OUTPUTS/openbind_a71ev2a_c2_elabs_1LOUU54.sdf', '/opt/xchem-fragalysis-2/maxwin/BulkDock/OUTPUTS/openbind_a71ev2a_c2_elabs_1LSYIDY.sdf']

>  <name>  (868) 
P546738

>  <ref_pdb>  (868) 
A0884a

>  <subsites>  (868) 
None

>  <HIPPO Pose ID>  (868) 
546738

>  <ref_mols>  (868) 
A0884a

>  <HIPPO Compound ID>  (868) 
385308

>  <tags>  (868) 
openbind_a71ev2a_c2_elabs,syndirella_product,openbind_a71ev2a_c2_elabs_fragonly_scored_top80percent,BulkDock Fragalysis export,openbind_a71ev2a_c2_elabs_scored,openbind_a71ev2a_c2_elabs_scored_top80percent,openbind_a71ev2a_c2_elabs_activefrags_only_scored_5.2plus,openbind_a71ev2a_c2_elabs_activefrags_only_scored_5.5plus,syndirella_placed

>  <smina_score_min>  (868) 
-6.958

$$$$
P546741
     RDKit          3D

 22 24  0  0  0  0  0  0  0  0999 V2000
    9.4720   17.0083   20.5820 C   0  0  0  0  0  0  0  0  0  0  0  0
   10.1561   15.8095   19.9663 C   0  0  0  0  0  0  0  0  0  0  0  0
   10.6338   14.7399   20.9235 C   0  0  1  0  0  0  0  0  0  0  0  0
   11.4645   15.0063   22.0617 N   0  0  0  0  0  0  0  0  0  0  0  0
   11.1767   14.1040   23.0873 C   0  0  0  0  0  0  0  0  0  0  0  0
   11.7810   14.0486   24.1476 O   0  0  0  0  0  0  0  0  0  0  0  0
   10.0740   13.3758   22.7127 N   0  0  0  0  0  0  0  0  0  0  0  0
    9.3118   12.6025   23.5968 C   0  0  0  0  0  0  0  0  0  0  0  0
    9.4858   11.2188   23.5977 C   0  0  0  0  0  0  0  0  0  0  0  0
    8.6404   10.4190   24.3604 C   0  0  0  0  0  0  0  0  0  0  0  0
    7.6289   10.9963   25.1309 C   0  0  0  0  0  0  0  0  0  0  0  0
    7.4428   12.3775   25.1154 C   0  0  0  0  0  0  0  0  0  0  0  0
    6.4062   12.9879   25.8130 N   0  0  0  0  0  0  0  0  0  0  0  0
    5.3777   12.3950   26.8112 C   0  0  0  0  0  0  0  0  0  0  0  0
    5.2913   11.3202   27.2595 O   0  0  0  0  0  0  0  0  0  0  0  0
    4.4247   13.4934   27.1573 C   0  0  0  0  0  0  0  0  0  0  0  0
    3.5367   13.3179   28.1137 C   0  0  0  0  0  0  0  0  0  0  0  0
    3.0124   12.4584   29.1007 C   0  0  0  0  0  0  0  0  0  0  0  0
    2.4663   13.8974   28.8254 C   0  0  0  0  0  0  0  0  0  0  0  0
    8.2819   13.1809   24.3433 C   0  0  0  0  0  0  0  0  0  0  0  0
    9.5111   14.0000   21.6273 C   0  0  0  0  0  0  0  0  0  0  0  0
    8.3427   13.9428   21.2626 O   0  0  0  0  0  0  0  0  0  0  0  0
  1  2  1  0
  3  2  1  1
  3  4  1  0
  4  5  1  0
  5  6  2  0
  5  7  1  0
  7  8  1  0
  8  9  2  0
  9 10  1  0
 10 11  2  0
 11 12  1  0
 12 13  1  0
 13 14  1  0
 14 15  2  0
 14 16  1  0
 16 17  2  3
 17 18  1  0
 18 19  1  0
 12 20  2  0
  7 21  1  0
 21 22  2  0
 21  3  1  0
 20  8  1  0
 19 17  1  0
M  END
>  <alias>  (869) 
None

>  <rmsd(smina/fragmenstein)>  (869) 
0.49

>  <smiles>  (869) 
CC[C@H]1NC(=O)N(c2cccc(NC(=O)C=C3CC3)c2)C1=O

>  <gnina_score>  (869) 
5.327

>  <inspiration_score>  (869) 
None

>  <energy_score>  (869) 
-26.383248

>  <distance_score>  (869) 
1.151302

>  <gnina_score_min>  (869) 
5.405

>  <inchikey>  (869) 
JUPIESLZMVIOKR-CYBMUJFWSA-N

>  <exports>  (869) 
['/opt/xchem-fragalysis-2/maxwin/BulkDock/OUTPUTS/openbind_a71ev2a_c2_elabs_1LOUU54.sdf', '/opt/xchem-fragalysis-2/maxwin/BulkDock/OUTPUTS/openbind_a71ev2a_c2_elabs_1LSYIDY.sdf']

>  <name>  (869) 
P546741

>  <ref_pdb>  (869) 
A0884a

>  <subsites>  (869) 
None

>  <HIPPO Pose ID>  (869) 
546741

>  <ref_mols>  (869) 
A0884a

>  <HIPPO Compound ID>  (869) 
385309

>  <tags>  (869) 
openbind_a71ev2a_c2_elabs,syndirella_product,openbind_a71ev2a_c2_elabs_fragonly_scored_top80percent,openbind_a71ev2a_c2_elabs_scored,BulkDock Fragalysis export,openbind_a71ev2a_c2_elabs_scored_top80percent,openbind_a71ev2a_c2_elabs_activefrags_only_scored_5.2plus,syndirella_placed

>  <smina_score_min>  (869) 
-6.841

$$$$
P546743
     RDKit          3D

 22 23  0  0  0  0  0  0  0  0999 V2000
    4.2194   13.8837   29.2507 C   0  0  0  0  0  0  0  0  0  0  0  0
    3.4992   13.9205   28.0267 O   0  0  0  0  0  0  0  0  0  0  0  0
    4.3423   14.0607   26.8850 C   0  0  2  0  0  0  0  0  0  0  0  0
    3.4249   14.3804   25.7074 C   0  0  0  0  0  0  0  0  0  0  0  0
    5.2296   12.8165   26.5503 C   0  0  0  0  0  0  0  0  0  0  0  0
    5.0773   11.7646   27.0436 O   0  0  0  0  0  0  0  0  0  0  0  0
    6.3187   13.3154   25.5404 N   0  0  0  0  0  0  0  0  0  0  0  0
    7.3421   12.6161   24.8887 C   0  0  0  0  0  0  0  0  0  0  0  0
    8.1725   13.3693   24.0488 C   0  0  0  0  0  0  0  0  0  0  0  0
    9.2815   12.7862   23.4260 C   0  0  0  0  0  0  0  0  0  0  0  0
   10.1682   13.5667   22.6416 N   0  0  0  0  0  0  0  0  0  0  0  0
    9.6124   14.4880   21.6610 C   0  0  0  0  0  0  0  0  0  0  0  0
   10.5948   14.9312   20.5980 C   0  0  0  0  0  0  0  0  0  0  0  0
   11.9974   14.5436   20.9429 C   0  0  0  0  0  0  0  0  0  0  0  0
   12.8379   14.2888   20.0866 O   0  0  0  0  0  0  0  0  0  0  0  0
   12.2676   14.5160   22.2771 N   0  0  0  0  0  0  0  0  0  0  0  0
   11.4707   13.7628   23.0941 C   0  0  0  0  0  0  0  0  0  0  0  0
   11.9244   13.3027   24.1408 O   0  0  0  0  0  0  0  0  0  0  0  0
    9.5184   11.4190   23.5761 C   0  0  0  0  0  0  0  0  0  0  0  0
    8.6601   10.6485   24.3549 C   0  0  0  0  0  0  0  0  0  0  0  0
    7.6015   11.2510   25.0332 C   0  0  0  0  0  0  0  0  0  0  0  0
    6.8500   10.4695   25.8133 F   0  0  0  0  0  0  0  0  0  0  0  0
  1  2  1  0
  2  3  1  0
  3  4  1  6
  3  5  1  0
  5  6  2  0
  5  7  1  0
  7  8  1  0
  8  9  2  0
  9 10  1  0
 10 11  1  0
 11 12  1  0
 12 13  1  0
 13 14  1  0
 14 15  2  0
 14 16  1  0
 16 17  1  0
 17 18  2  0
 10 19  2  0
 19 20  1  0
 20 21  2  0
 21 22  1  0
 21  8  1  0
 17 11  1  0
M  END
>  <alias>  (870) 
None

>  <rmsd(smina/fragmenstein)>  (870) 
0.712

>  <smiles>  (870) 
CO[C@H](C)C(=O)Nc1cc(N2CCC(=O)NC2=O)ccc1F

>  <gnina_score>  (870) 
5.333

>  <inspiration_score>  (870) 
None

>  <energy_score>  (870) 
-32.744281

>  <distance_score>  (870) 
1.265371

>  <gnina_score_min>  (870) 
5.357

>  <inchikey>  (870) 
BYLQEXAYBVTMMN-MRVPVSSYSA-N

>  <exports>  (870) 
['/opt/xchem-fragalysis-2/maxwin/BulkDock/OUTPUTS/openbind_a71ev2a_c2_elabs_1LOUU54.sdf', '/opt/xchem-fragalysis-2/maxwin/BulkDock/OUTPUTS/openbind_a71ev2a_c2_elabs_1LSYIDY.sdf']

>  <name>  (870) 
P546743

>  <ref_pdb>  (870) 
A0884a

>  <subsites>  (870) 
None

>  <HIPPO Pose ID>  (870) 
546743

>  <ref_mols>  (870) 
A0884a

>  <HIPPO Compound ID>  (870) 
385310

>  <tags>  (870) 
openbind_a71ev2a_c2_elabs,syndirella_product,openbind_a71ev2a_c2_elabs_fragonly_scored_top80percent,openbind_a71ev2a_c2_elabs_scored,BulkDock Fragalysis export,openbind_a71ev2a_c2_elabs_scored_top80percent,openbind_a71ev2a_c2_elabs_activefrags_only_scored_5.2plus,syndirella_placed

>  <smina_score_min>  (870) 
-7.001

$$$$
P546747
     RDKit          3D

 22 23  0  0  0  0  0  0  0  0999 V2000
    4.4723   15.2754   27.5765 C   0  0  0  0  0  0  0  0  0  0  0  0
    5.4289   14.2211   27.5873 O   0  0  0  0  0  0  0  0  0  0  0  0
    4.8369   12.9229   27.4671 C   0  0  2  0  0  0  0  0  0  0  0  0
    4.4572   12.3891   28.8424 C   0  0  0  0  0  0  0  0  0  0  0  0
    5.8067   11.9364   26.7576 C   0  0  0  0  0  0  0  0  0  0  0  0
    5.7818   10.7751   26.8949 O   0  0  0  0  0  0  0  0  0  0  0  0
    6.6713   12.8222   25.8129 N   0  0  0  0  0  0  0  0  0  0  0  0
    7.7048   12.4788   24.9499 C   0  0  0  0  0  0  0  0  0  0  0  0
    8.0894   11.1534   24.7252 C   0  0  0  0  0  0  0  0  0  0  0  0
    9.1516   10.9039   23.8609 C   0  0  0  0  0  0  0  0  0  0  0  0
    9.7558    9.2058   23.3908 Br  0  0  0  0  0  0  0  0  0  0  0  0
    9.8432   11.9372   23.2663 C   0  0  0  0  0  0  0  0  0  0  0  0
    9.4602   13.2470   23.4933 C   0  0  0  0  0  0  0  0  0  0  0  0
   10.1847   14.2715   22.8387 N   0  0  0  0  0  0  0  0  0  0  0  0
    9.6471   14.6139   21.5170 C   0  0  0  0  0  0  0  0  0  0  0  0
   10.5847   15.4070   20.6526 C   0  0  0  0  0  0  0  0  0  0  0  0
   11.9582   14.8383   20.8310 C   0  0  0  0  0  0  0  0  0  0  0  0
   12.6642   14.4321   19.9148 O   0  0  0  0  0  0  0  0  0  0  0  0
   12.3600   14.8209   22.1352 N   0  0  0  0  0  0  0  0  0  0  0  0
   11.5521   14.3090   23.1047 C   0  0  0  0  0  0  0  0  0  0  0  0
   12.0460   13.8749   24.1475 O   0  0  0  0  0  0  0  0  0  0  0  0
    8.3723   13.5277   24.3076 C   0  0  0  0  0  0  0  0  0  0  0  0
  1  2  1  0
  2  3  1  0
  3  4  1  1
  3  5  1  0
  5  6  2  0
  5  7  1  0
  7  8  1  0
  8  9  2  0
  9 10  1  0
 10 11  1  0
 10 12  2  0
 12 13  1  0
 13 14  1  0
 14 15  1  0
 15 16  1  0
 16 17  1  0
 17 18  2  0
 17 19  1  0
 19 20  1  0
 20 21  2  0
 13 22  2  0
 22  8  1  0
 20 14  1  0
M  END
>  <alias>  (871) 
None

>  <rmsd(smina/fragmenstein)>  (871) 
0.236

>  <smiles>  (871) 
CO[C@H](C)C(=O)Nc1cc(Br)cc(N2CCC(=O)NC2=O)c1

>  <gnina_score>  (871) 
5.509

>  <inspiration_score>  (871) 
None

>  <energy_score>  (871) 
-19.001336

>  <distance_score>  (871) 
1.253411

>  <gnina_score_min>  (871) 
5.54

>  <inchikey>  (871) 
RVRTXCKCGIMXMP-MRVPVSSYSA-N

>  <exports>  (871) 
['/opt/xchem-fragalysis-2/maxwin/BulkDock/OUTPUTS/openbind_a71ev2a_c2_elabs_1LOUU54.sdf', '/opt/xchem-fragalysis-2/maxwin/BulkDock/OUTPUTS/openbind_a71ev2a_c2_elabs_1LSYIDY.sdf']

>  <name>  (871) 
P546747

>  <ref_pdb>  (871) 
A0884a

>  <subsites>  (871) 
None

>  <HIPPO Pose ID>  (871) 
546747

>  <ref_mols>  (871) 
A0884a

>  <HIPPO Compound ID>  (871) 
385317

>  <tags>  (871) 
openbind_a71ev2a_c2_elabs,syndirella_product,openbind_a71ev2a_c2_elabs_fragonly_scored_top80percent,BulkDock Fragalysis export,openbind_a71ev2a_c2_elabs_scored,openbind_a71ev2a_c2_elabs_scored_top80percent,openbind_a71ev2a_c2_elabs_activefrags_only_scored_5.2plus,openbind_a71ev2a_c2_elabs_activefrags_only_scored_5.5plus,syndirella_placed

>  <smina_score_min>  (871) 
-6.375

$$$$
P546748
     RDKit          3D

 22 23  0  0  0  0  0  0  0  0999 V2000
    5.9091   15.6876   28.5551 C   0  0  0  0  0  0  0  0  0  0  0  0
    5.2284   15.6601   27.3058 O   0  0  0  0  0  0  0  0  0  0  0  0
    4.3156   14.5642   27.2055 C   0  0  1  0  0  0  0  0  0  0  0  0
    3.3098   14.8959   26.1105 C   0  0  0  0  0  0  0  0  0  0  0  0
    5.0334   13.2419   26.8494 C   0  0  0  0  0  0  0  0  0  0  0  0
    4.7204   12.1971   27.2774 O   0  0  0  0  0  0  0  0  0  0  0  0
    6.1423   13.6213   25.8169 N   0  0  0  0  0  0  0  0  0  0  0  0
    7.1111   12.8340   25.2017 C   0  0  0  0  0  0  0  0  0  0  0  0
    7.1465   11.4559   25.3858 C   0  0  0  0  0  0  0  0  0  0  0  0
    8.1029   10.6970   24.7216 C   0  0  0  0  0  0  0  0  0  0  0  0
    9.0336   11.3094   23.8801 C   0  0  0  0  0  0  0  0  0  0  0  0
   10.0368   10.2416   23.0012 Cl  0  0  0  0  0  0  0  0  0  0  0  0
    9.0300   12.7025   23.6955 C   0  0  0  0  0  0  0  0  0  0  0  0
    9.9754   13.3705   22.8439 N   0  0  0  0  0  0  0  0  0  0  0  0
    9.4632   14.3463   21.8882 C   0  0  0  0  0  0  0  0  0  0  0  0
   10.4585   14.8110   20.8459 C   0  0  0  0  0  0  0  0  0  0  0  0
   11.8732   14.5155   21.2246 C   0  0  0  0  0  0  0  0  0  0  0  0
   12.7751   14.4681   20.3916 O   0  0  0  0  0  0  0  0  0  0  0  0
   12.0979   14.3196   22.5535 N   0  0  0  0  0  0  0  0  0  0  0  0
   11.2624   13.5755   23.3428 C   0  0  0  0  0  0  0  0  0  0  0  0
   11.6705   13.1418   24.4189 O   0  0  0  0  0  0  0  0  0  0  0  0
    8.0477   13.4518   24.3629 C   0  0  0  0  0  0  0  0  0  0  0  0
  1  2  1  0
  2  3  1  0
  3  4  1  6
  3  5  1  0
  5  6  2  0
  5  7  1  0
  7  8  1  0
  8  9  2  0
  9 10  1  0
 10 11  2  0
 11 12  1  0
 11 13  1  0
 13 14  1  0
 14 15  1  0
 15 16  1  0
 16 17  1  0
 17 18  2  0
 17 19  1  0
 19 20  1  0
 20 21  2  0
 13 22  2  0
 22  8  1  0
 20 14  1  0
M  END
>  <alias>  (872) 
None

>  <rmsd(smina/fragmenstein)>  (872) 
0.56

>  <smiles>  (872) 
CO[C@@H](C)C(=O)Nc1ccc(Cl)c(N2CCC(=O)NC2=O)c1

>  <gnina_score>  (872) 
5.548

>  <inspiration_score>  (872) 
None

>  <energy_score>  (872) 
-46.860351

>  <distance_score>  (872) 
1.449451

>  <gnina_score_min>  (872) 
5.519

>  <inchikey>  (872) 
ZYYOPSTZTRWZRJ-QMMMGPOBSA-N

>  <exports>  (872) 
['/opt/xchem-fragalysis-2/maxwin/BulkDock/OUTPUTS/openbind_a71ev2a_c2_elabs_1LOUU54.sdf', '/opt/xchem-fragalysis-2/maxwin/BulkDock/OUTPUTS/openbind_a71ev2a_c2_elabs_1LSYIDY.sdf']

>  <name>  (872) 
P546748

>  <ref_pdb>  (872) 
A0884a

>  <subsites>  (872) 
None

>  <HIPPO Pose ID>  (872) 
546748

>  <ref_mols>  (872) 
A0884a

>  <HIPPO Compound ID>  (872) 
385318

>  <tags>  (872) 
openbind_a71ev2a_c2_elabs,syndirella_product,openbind_a71ev2a_c2_elabs_fragonly_scored_top80percent,BulkDock Fragalysis export,openbind_a71ev2a_c2_elabs_scored,openbind_a71ev2a_c2_elabs_scored_top80percent,openbind_a71ev2a_c2_elabs_activefrags_only_scored_5.2plus,openbind_a71ev2a_c2_elabs_activefrags_only_scored_5.5plus,syndirella_placed

>  <smina_score_min>  (872) 
-6.57

$$$$
P546751
     RDKit          3D

 22 23  0  0  0  0  0  0  0  0999 V2000
    5.7168   16.3077   27.3498 C   0  0  0  0  0  0  0  0  0  0  0  0
    5.0357   16.1295   26.1164 O   0  0  0  0  0  0  0  0  0  0  0  0
    4.1512   15.0142   26.0631 C   0  0  2  0  0  0  0  0  0  0  0  0
    3.0713   15.0575   27.1399 C   0  0  0  0  0  0  0  0  0  0  0  0
    4.8926   13.6547   26.0330 C   0  0  0  0  0  0  0  0  0  0  0  0
    4.5566   12.7078   26.6377 O   0  0  0  0  0  0  0  0  0  0  0  0
    6.0433   13.8338   24.9856 N   0  0  0  0  0  0  0  0  0  0  0  0
    7.0272   12.9442   24.5641 C   0  0  0  0  0  0  0  0  0  0  0  0
    7.0246   11.6233   25.0164 C   0  0  0  0  0  0  0  0  0  0  0  0
    7.9452   10.7102   24.5193 C   0  0  0  0  0  0  0  0  0  0  0  0
    8.9317   11.1301   23.6275 C   0  0  0  0  0  0  0  0  0  0  0  0
    9.8719   10.0975   23.0848 C   0  0  0  0  0  0  0  0  0  0  0  0
    9.0722   12.5137   23.3412 C   0  0  0  0  0  0  0  0  0  0  0  0
   10.4058   13.0364   23.3878 N   0  0  0  0  0  0  0  0  0  0  0  0
   10.9595   12.8637   24.7016 C   0  0  0  0  0  0  0  0  0  0  0  0
   10.8297   14.1086   25.5000 C   0  0  0  0  0  0  0  0  0  0  0  0
   11.7058   15.0493   24.8314 C   0  0  0  0  0  0  0  0  0  0  0  0
   12.0551   16.0144   25.5210 O   0  0  0  0  0  0  0  0  0  0  0  0
   11.8270   14.8839   23.4651 N   0  0  0  0  0  0  0  0  0  0  0  0
   10.8849   14.1686   22.7294 C   0  0  0  0  0  0  0  0  0  0  0  0
   10.5077   14.5859   21.6458 O   0  0  0  0  0  0  0  0  0  0  0  0
    8.0387   13.3904   23.7051 C   0  0  0  0  0  0  0  0  0  0  0  0
  1  2  1  0
  2  3  1  0
  3  4  1  1
  3  5  1  0
  5  6  2  0
  5  7  1  0
  7  8  1  0
  8  9  2  0
  9 10  1  0
 10 11  2  0
 11 12  1  0
 11 13  1  0
 13 14  1  0
 14 15  1  0
 15 16  1  0
 16 17  1  0
 17 18  2  0
 17 19  1  0
 19 20  1  0
 20 21  2  0
 13 22  2  0
 22  8  1  0
 20 14  1  0
M  END
>  <alias>  (873) 
None

>  <rmsd(smina/fragmenstein)>  (873) 
0.408

>  <smiles>  (873) 
CO[C@H](C)C(=O)Nc1ccc(C)c(N2CCC(=O)NC2=O)c1

>  <gnina_score>  (873) 
5.336

>  <inspiration_score>  (873) 
None

>  <energy_score>  (873) 
-3.265973

>  <distance_score>  (873) 
1.756678

>  <gnina_score_min>  (873) 
5.517

>  <inchikey>  (873) 
OUWTZUGJNRMVON-SNVBAGLBSA-N

>  <exports>  (873) 
['/opt/xchem-fragalysis-2/maxwin/BulkDock/OUTPUTS/openbind_a71ev2a_c2_elabs_1LOUU54.sdf', '/opt/xchem-fragalysis-2/maxwin/BulkDock/OUTPUTS/openbind_a71ev2a_c2_elabs_1LSYIDY.sdf']

>  <name>  (873) 
P546751

>  <ref_pdb>  (873) 
A0884a

>  <subsites>  (873) 
None

>  <HIPPO Pose ID>  (873) 
546751

>  <ref_mols>  (873) 
A0884a

>  <HIPPO Compound ID>  (873) 
385322

>  <tags>  (873) 
openbind_a71ev2a_c2_elabs,syndirella_product,openbind_a71ev2a_c2_elabs_fragonly_scored_top80percent,BulkDock Fragalysis export,openbind_a71ev2a_c2_elabs_scored,openbind_a71ev2a_c2_elabs_scored_top80percent,openbind_a71ev2a_c2_elabs_activefrags_only_scored_5.2plus,openbind_a71ev2a_c2_elabs_activefrags_only_scored_5.5plus,syndirella_placed

>  <smina_score_min>  (873) 
-4.614

$$$$
P546757
     RDKit          3D

 22 24  0  0  0  0  0  0  0  0999 V2000
   11.5542   14.8009   19.2008 C   0  0  0  0  0  0  0  0  0  0  0  0
   11.3559   15.0083   20.6587 C   0  0  2  0  0  0  0  0  0  0  0  0
   12.5274   15.4490   21.4840 C   0  0  0  0  0  0  0  0  0  0  0  0
   11.9529   14.0870   21.7118 C   0  0  1  0  0  0  0  0  0  0  0  0
   11.1849   13.8449   22.9584 C   0  0  0  0  0  0  0  0  0  0  0  0
   11.1839   14.6419   23.8035 O   0  0  0  0  0  0  0  0  0  0  0  0
   10.4139   12.5342   22.8331 N   0  0  0  0  0  0  0  0  0  0  0  0
    9.4408   11.9849   23.6434 C   0  0  0  0  0  0  0  0  0  0  0  0
    9.1944   10.6287   23.5883 C   0  0  0  0  0  0  0  0  0  0  0  0
    8.2598   10.1089   24.4670 C   0  0  0  0  0  0  0  0  0  0  0  0
    7.5506   10.9299   25.3463 C   0  0  0  0  0  0  0  0  0  0  0  0
    6.7691   10.3132   26.2408 F   0  0  0  0  0  0  0  0  0  0  0  0
    7.7540   12.3124   25.3948 C   0  0  0  0  0  0  0  0  0  0  0  0
    7.0908   13.1533   26.3580 N   0  0  0  0  0  0  0  0  0  0  0  0
    7.6033   14.4848   26.6682 C   0  0  0  0  0  0  0  0  0  0  0  0
    7.5649   14.7466   28.1598 C   0  0  0  0  0  0  0  0  0  0  0  0
    6.1874   14.4830   28.6798 C   0  0  0  0  0  0  0  0  0  0  0  0
    5.7632   14.9974   29.7102 O   0  0  0  0  0  0  0  0  0  0  0  0
    5.4564   13.5639   27.9823 N   0  0  0  0  0  0  0  0  0  0  0  0
    5.8378   12.8367   26.8853 C   0  0  0  0  0  0  0  0  0  0  0  0
    5.0447   12.0009   26.4718 O   0  0  0  0  0  0  0  0  0  0  0  0
    8.7274   12.8174   24.5246 C   0  0  0  0  0  0  0  0  0  0  0  0
  2  1  1  6
  2  3  1  0
  3  4  1  0
  4  5  1  1
  5  6  2  0
  5  7  1  0
  7  8  1  0
  8  9  2  0
  9 10  1  0
 10 11  2  0
 11 12  1  0
 11 13  1  0
 13 14  1  0
 14 15  1  0
 15 16  1  0
 16 17  1  0
 17 18  2  0
 17 19  1  0
 19 20  1  0
 20 21  2  0
 13 22  2  0
  4  2  1  0
 22  8  1  0
 20 14  1  0
M  END
>  <alias>  (874) 
None

>  <rmsd(smina/fragmenstein)>  (874) 
1.192

>  <smiles>  (874) 
C[C@@H]1C[C@H]1C(=O)Nc1ccc(F)c(N2CCC(=O)NC2=O)c1

>  <gnina_score>  (874) 
5.278

>  <inspiration_score>  (874) 
None

>  <energy_score>  (874) 
-49.147753

>  <distance_score>  (874) 
1.259591

>  <gnina_score_min>  (874) 
5.237

>  <inchikey>  (874) 
USFMQVGGIBUIND-PSASIEDQSA-N

>  <exports>  (874) 
['/opt/xchem-fragalysis-2/maxwin/BulkDock/OUTPUTS/openbind_a71ev2a_c2_elabs_1LOUU54.sdf', '/opt/xchem-fragalysis-2/maxwin/BulkDock/OUTPUTS/openbind_a71ev2a_c2_elabs_1LSYIDY.sdf']

>  <name>  (874) 
P546757

>  <ref_pdb>  (874) 
A0884a

>  <subsites>  (874) 
None

>  <HIPPO Pose ID>  (874) 
546757

>  <ref_mols>  (874) 
A0884a

>  <HIPPO Compound ID>  (874) 
385325

>  <tags>  (874) 
openbind_a71ev2a_c2_elabs,syndirella_product,openbind_a71ev2a_c2_elabs_fragonly_scored_top80percent,openbind_a71ev2a_c2_elabs_scored,BulkDock Fragalysis export,openbind_a71ev2a_c2_elabs_scored_top80percent,openbind_a71ev2a_c2_elabs_activefrags_only_scored_5.2plus,syndirella_placed

>  <smina_score_min>  (874) 
-6.798

$$$$
P546760
     RDKit          3D

 22 23  0  0  0  0  0  0  0  0999 V2000
   12.4284   14.4739   19.8804 C   0  0  0  0  0  0  0  0  0  0  0  0
   11.0201   14.9716   20.0818 C   0  0  0  0  0  0  0  0  0  0  0  0
   10.6190   15.1095   21.5340 C   0  0  2  0  0  0  0  0  0  0  0  0
   11.6386   14.7561   22.4910 N   0  0  0  0  0  0  0  0  0  0  0  0
   11.2046   13.7687   23.3482 C   0  0  0  0  0  0  0  0  0  0  0  0
   11.7603   13.5098   24.4052 O   0  0  0  0  0  0  0  0  0  0  0  0
   10.0191   13.2716   22.8702 N   0  0  0  0  0  0  0  0  0  0  0  0
    9.1855   12.4725   23.6623 C   0  0  0  0  0  0  0  0  0  0  0  0
    9.3828   11.0959   23.6919 C   0  0  0  0  0  0  0  0  0  0  0  0
    8.5188   10.3040   24.4402 C   0  0  0  0  0  0  0  0  0  0  0  0
    7.4911   10.8814   25.1919 C   0  0  0  0  0  0  0  0  0  0  0  0
    7.3052   12.2597   25.1714 C   0  0  0  0  0  0  0  0  0  0  0  0
    6.3078   12.8882   25.9087 N   0  0  0  0  0  0  0  0  0  0  0  0
    5.3318   12.3180   26.9859 C   0  0  0  0  0  0  0  0  0  0  0  0
    5.1698   11.2188   27.3571 O   0  0  0  0  0  0  0  0  0  0  0  0
    4.5281   13.5015   27.5178 C   0  0  0  0  0  0  0  0  0  0  0  0
    5.5783   14.4621   28.6518 S   0  0  0  0  0  0  0  0  0  0  0  0
    4.3186   15.9861   29.2168 S   0  0  0  0  0  0  0  0  0  0  0  0
    3.4071   15.2351   30.5891 C   0  0  0  0  0  0  0  0  0  0  0  0
    8.1386   13.0527   24.3869 C   0  0  0  0  0  0  0  0  0  0  0  0
    9.5183   14.1360   21.9262 C   0  0  0  0  0  0  0  0  0  0  0  0
    8.3770   14.1507   21.4740 O   0  0  0  0  0  0  0  0  0  0  0  0
  1  2  1  0
  3  2  1  6
  3  4  1  0
  4  5  1  0
  5  6  2  0
  5  7  1  0
  7  8  1  0
  8  9  2  0
  9 10  1  0
 10 11  2  0
 11 12  1  0
 12 13  1  0
 13 14  1  0
 14 15  2  0
 14 16  1  0
 16 17  1  0
 17 18  1  0
 18 19  1  0
 12 20  2  0
  7 21  1  0
 21 22  2  0
 21  3  1  0
 20  8  1  0
M  END
>  <alias>  (875) 
None

>  <rmsd(smina/fragmenstein)>  (875) 
1.216

>  <smiles>  (875) 
CC[C@@H]1NC(=O)N(c2cccc(NC(=O)CSSC)c2)C1=O

>  <gnina_score>  (875) 
4.859

>  <inspiration_score>  (875) 
None

>  <energy_score>  (875) 
-15.87582

>  <distance_score>  (875) 
1.138575

>  <gnina_score_min>  (875) 
5.297

>  <inchikey>  (875) 
AIYLBDZWBDIEPN-NSHDSACASA-N

>  <exports>  (875) 
['/opt/xchem-fragalysis-2/maxwin/BulkDock/OUTPUTS/openbind_a71ev2a_c2_elabs_1LOUU54.sdf', '/opt/xchem-fragalysis-2/maxwin/BulkDock/OUTPUTS/openbind_a71ev2a_c2_elabs_1LSYIDY.sdf']

>  <name>  (875) 
P546760

>  <ref_pdb>  (875) 
A0884a

>  <subsites>  (875) 
None

>  <HIPPO Pose ID>  (875) 
546760

>  <ref_mols>  (875) 
A0884a

>  <HIPPO Compound ID>  (875) 
385327

>  <tags>  (875) 
openbind_a71ev2a_c2_elabs,syndirella_product,openbind_a71ev2a_c2_elabs_fragonly_scored_top80percent,openbind_a71ev2a_c2_elabs_scored,BulkDock Fragalysis export,openbind_a71ev2a_c2_elabs_scored_top80percent,openbind_a71ev2a_c2_elabs_activefrags_only_scored_5.2plus,syndirella_placed

>  <smina_score_min>  (875) 
-6.345

$$$$
P546762
     RDKit          3D

 22 23  0  0  0  0  0  0  0  0999 V2000
    5.7471   17.0376   27.8013 C   0  0  0  0  0  0  0  0  0  0  0  0
    6.8355   15.5973   27.9731 S   0  0  0  0  0  0  0  0  0  0  0  0
    5.6426   14.2572   28.9852 S   0  0  0  0  0  0  0  0  0  0  0  0
    4.6446   13.4842   27.6732 C   0  0  0  0  0  0  0  0  0  0  0  0
    5.3829   12.3047   27.0424 C   0  0  0  0  0  0  0  0  0  0  0  0
    5.0909   11.1891   27.2466 O   0  0  0  0  0  0  0  0  0  0  0  0
    6.4472   12.9101   26.0753 N   0  0  0  0  0  0  0  0  0  0  0  0
    7.3970   12.2832   25.2650 C   0  0  0  0  0  0  0  0  0  0  0  0
    7.4649   10.8930   25.2022 C   0  0  0  0  0  0  0  0  0  0  0  0
    8.4311   10.2777   24.4125 C   0  0  0  0  0  0  0  0  0  0  0  0
    9.3674   11.0419   23.7391 C   0  0  0  0  0  0  0  0  0  0  0  0
   10.3104   10.4118   23.0333 F   0  0  0  0  0  0  0  0  0  0  0  0
    9.3580   12.4323   23.8240 C   0  0  0  0  0  0  0  0  0  0  0  0
   10.4694   13.1137   23.2842 N   0  0  0  0  0  0  0  0  0  0  0  0
   11.3899   13.7704   24.0528 C   0  0  0  0  0  0  0  0  0  0  0  0
   11.4710   13.8015   25.2743 O   0  0  0  0  0  0  0  0  0  0  0  0
   12.2953   14.5687   23.1398 C   0  0  0  0  0  0  0  0  0  0  0  0
   11.6523   14.3967   21.8937 N   0  0  0  0  0  0  0  0  0  0  0  0
   10.4608   13.7458   22.0801 C   0  0  0  0  0  0  0  0  0  0  0  0
    9.5290   13.9012   21.3139 O   0  0  0  0  0  0  0  0  0  0  0  0
    8.3110   13.0686   24.5253 C   0  0  0  0  0  0  0  0  0  0  0  0
    8.1790   14.5615   24.4973 C   0  0  0  0  0  0  0  0  0  0  0  0
  1  2  1  0
  2  3  1  0
  3  4  1  0
  4  5  1  0
  5  6  2  0
  5  7  1  0
  7  8  1  0
  8  9  2  0
  9 10  1  0
 10 11  2  0
 11 12  1  0
 11 13  1  0
 13 14  1  0
 14 15  1  0
 15 16  2  0
 15 17  1  0
 17 18  1  0
 18 19  1  0
 19 20  2  0
 13 21  2  0
 21 22  1  0
 21  8  1  0
 19 14  1  0
M  END
>  <alias>  (876) 
None

>  <rmsd(smina/fragmenstein)>  (876) 
1.0

>  <smiles>  (876) 
CSSCC(=O)Nc1ccc(F)c(N2C(=O)CNC2=O)c1C

>  <gnina_score>  (876) 
5.678

>  <inspiration_score>  (876) 
None

>  <energy_score>  (876) 
-31.988326

>  <distance_score>  (876) 
1.556313

>  <gnina_score_min>  (876) 
5.635

>  <inchikey>  (876) 
DQDQYNACPBHLCN-UHFFFAOYSA-N

>  <exports>  (876) 
['/opt/xchem-fragalysis-2/maxwin/BulkDock/OUTPUTS/openbind_a71ev2a_c2_elabs_1LOUU54.sdf', '/opt/xchem-fragalysis-2/maxwin/BulkDock/OUTPUTS/openbind_a71ev2a_c2_elabs_1LSYIDY.sdf']

>  <name>  (876) 
P546762

>  <ref_pdb>  (876) 
A0884a

>  <subsites>  (876) 
None

>  <HIPPO Pose ID>  (876) 
546762

>  <ref_mols>  (876) 
A0884a

>  <HIPPO Compound ID>  (876) 
385328

>  <tags>  (876) 
openbind_a71ev2a_c2_elabs,syndirella_product,openbind_a71ev2a_c2_elabs_fragonly_scored_top80percent,BulkDock Fragalysis export,openbind_a71ev2a_c2_elabs_scored,openbind_a71ev2a_c2_elabs_scored_top80percent,openbind_a71ev2a_c2_elabs_activefrags_only_scored_5.2plus,openbind_a71ev2a_c2_elabs_activefrags_only_scored_5.5plus,syndirella_placed

>  <smina_score_min>  (876) 
-5.906

$$$$
P546763
     RDKit          3D

 22 23  0  0  0  0  0  0  0  0999 V2000
    7.4123   14.2445   28.4417 C   0  0  0  0  0  0  0  0  0  0  0  0
    5.8023   15.0630   28.5704 S   0  0  0  0  0  0  0  0  0  0  0  0
    5.3531   15.4795   26.6054 S   0  0  0  0  0  0  0  0  0  0  0  0
    4.4665   13.9913   26.0405 C   0  0  0  0  0  0  0  0  0  0  0  0
    5.4029   12.7943   25.9510 C   0  0  0  0  0  0  0  0  0  0  0  0
    5.3286   11.8702   26.6686 O   0  0  0  0  0  0  0  0  0  0  0  0
    6.4003   13.0931   24.7850 N   0  0  0  0  0  0  0  0  0  0  0  0
    7.4064   12.3023   24.2290 C   0  0  0  0  0  0  0  0  0  0  0  0
    7.5966   10.9956   24.6810 C   0  0  0  0  0  0  0  0  0  0  0  0
    8.5882   10.1982   24.1153 C   0  0  0  0  0  0  0  0  0  0  0  0
    9.5021   10.7422   23.2200 C   0  0  0  0  0  0  0  0  0  0  0  0
    9.4342   12.1085   22.8866 C   0  0  0  0  0  0  0  0  0  0  0  0
   10.6872   12.7807   23.0477 N   0  0  0  0  0  0  0  0  0  0  0  0
   11.1743   13.8784   22.3820 C   0  0  0  0  0  0  0  0  0  0  0  0
   11.0160   14.2627   21.2390 O   0  0  0  0  0  0  0  0  0  0  0  0
   11.8458   14.7002   23.2980 N   0  0  0  0  0  0  0  0  0  0  0  0
   11.2337   14.4619   24.5475 C   0  0  2  0  0  0  0  0  0  0  0  0
   11.9114   14.7647   25.8485 C   0  0  0  0  0  0  0  0  0  0  0  0
   10.8315   13.0744   24.3659 C   0  0  0  0  0  0  0  0  0  0  0  0
   10.3224   12.4713   25.2905 O   0  0  0  0  0  0  0  0  0  0  0  0
    8.2561   12.8363   23.2356 C   0  0  0  0  0  0  0  0  0  0  0  0
    7.9792   14.1915   22.6432 C   0  0  0  0  0  0  0  0  0  0  0  0
  1  2  1  0
  2  3  1  0
  3  4  1  0
  4  5  1  0
  5  6  2  0
  5  7  1  0
  7  8  1  0
  8  9  2  0
  9 10  1  0
 10 11  2  0
 11 12  1  0
 12 13  1  0
 13 14  1  0
 14 15  2  0
 14 16  1  0
 16 17  1  0
 17 18  1  1
 17 19  1  0
 19 20  2  0
 12 21  2  0
 21 22  1  0
 21  8  1  0
 19 13  1  0
M  END
>  <alias>  (877) 
None

>  <rmsd(smina/fragmenstein)>  (877) 
0.628

>  <smiles>  (877) 
CSSCC(=O)Nc1cccc(N2C(=O)N[C@H](C)C2=O)c1C

>  <gnina_score>  (877) 
5.39

>  <inspiration_score>  (877) 
None

>  <energy_score>  (877) 
-0.146912

>  <distance_score>  (877) 
1.386476

>  <gnina_score_min>  (877) 
5.214

>  <inchikey>  (877) 
RHTZTFMCNLRQFD-SECBINFHSA-N

>  <exports>  (877) 
['/opt/xchem-fragalysis-2/maxwin/BulkDock/OUTPUTS/openbind_a71ev2a_c2_elabs_1LOUU54.sdf', '/opt/xchem-fragalysis-2/maxwin/BulkDock/OUTPUTS/openbind_a71ev2a_c2_elabs_1LSYIDY.sdf']

>  <name>  (877) 
P546763

>  <ref_pdb>  (877) 
A0884a

>  <subsites>  (877) 
None

>  <HIPPO Pose ID>  (877) 
546763

>  <ref_mols>  (877) 
A0884a

>  <HIPPO Compound ID>  (877) 
385330

>  <tags>  (877) 
openbind_a71ev2a_c2_elabs,syndirella_product,openbind_a71ev2a_c2_elabs_fragonly_scored_top80percent,openbind_a71ev2a_c2_elabs_scored,BulkDock Fragalysis export,openbind_a71ev2a_c2_elabs_scored_top80percent,openbind_a71ev2a_c2_elabs_activefrags_only_scored_5.2plus,syndirella_placed

>  <smina_score_min>  (877) 
-4.001

$$$$
P546764
     RDKit          3D

 22 23  0  0  0  0  0  0  0  0999 V2000
    7.7162   14.5175   24.3848 C   0  0  0  0  0  0  0  0  0  0  0  0
    8.1333   13.0733   24.3121 C   0  0  0  0  0  0  0  0  0  0  0  0
    7.4384   12.1220   25.0972 C   0  0  0  0  0  0  0  0  0  0  0  0
    6.4246   12.5297   25.9717 N   0  0  0  0  0  0  0  0  0  0  0  0
    5.7776   11.7928   27.1884 C   0  0  0  0  0  0  0  0  0  0  0  0
    5.9427   10.7055   27.5921 O   0  0  0  0  0  0  0  0  0  0  0  0
    4.8915   12.8449   27.8895 C   0  0  0  0  0  0  0  0  0  0  0  0
    3.7034   12.1919   28.5807 C   0  0  0  0  0  0  0  0  0  0  0  0
    5.7487   13.6197   28.8862 C   0  0  0  0  0  0  0  0  0  0  0  0
    4.4038   13.7568   26.9904 F   0  0  0  0  0  0  0  0  0  0  0  0
    7.7720   10.7702   25.0246 C   0  0  0  0  0  0  0  0  0  0  0  0
    8.8110   10.3448   24.2063 C   0  0  0  0  0  0  0  0  0  0  0  0
    9.5594   11.2754   23.5007 C   0  0  0  0  0  0  0  0  0  0  0  0
    9.2485   12.6428   23.5521 C   0  0  0  0  0  0  0  0  0  0  0  0
   10.0942   13.5346   22.8069 N   0  0  0  0  0  0  0  0  0  0  0  0
    9.5537   14.1699   21.6887 C   0  0  0  0  0  0  0  0  0  0  0  0
    8.3651   14.0766   21.3572 O   0  0  0  0  0  0  0  0  0  0  0  0
   10.4933   14.9298   20.7869 C   0  0  0  0  0  0  0  0  0  0  0  0
   11.8283   15.2327   21.3974 C   0  0  0  0  0  0  0  0  0  0  0  0
   12.2698   14.2644   22.3373 N   0  0  0  0  0  0  0  0  0  0  0  0
   11.4431   13.5536   23.1314 C   0  0  0  0  0  0  0  0  0  0  0  0
   11.9589   13.0165   24.1087 O   0  0  0  0  0  0  0  0  0  0  0  0
  1  2  1  0
  2  3  2  0
  3  4  1  0
  4  5  1  0
  5  6  2  0
  5  7  1  0
  7  8  1  0
  7  9  1  0
  7 10  1  0
  3 11  1  0
 11 12  2  0
 12 13  1  0
 13 14  2  0
 14 15  1  0
 15 16  1  0
 16 17  2  0
 16 18  1  0
 18 19  1  0
 19 20  1  0
 20 21  1  0
 21 22  2  0
 14  2  1  0
 21 15  1  0
M  END
>  <alias>  (878) 
None

>  <rmsd(smina/fragmenstein)>  (878) 
0.456

>  <smiles>  (878) 
Cc1c(NC(=O)C(C)(C)F)cccc1N1C(=O)CCNC1=O

>  <gnina_score>  (878) 
5.333

>  <inspiration_score>  (878) 
None

>  <energy_score>  (878) 
-23.357191

>  <distance_score>  (878) 
1.368074

>  <gnina_score_min>  (878) 
5.277

>  <inchikey>  (878) 
XUFJZJXRUOATSY-UHFFFAOYSA-N

>  <exports>  (878) 
['/opt/xchem-fragalysis-2/maxwin/BulkDock/OUTPUTS/openbind_a71ev2a_c2_elabs_1LOUU54.sdf', '/opt/xchem-fragalysis-2/maxwin/BulkDock/OUTPUTS/openbind_a71ev2a_c2_elabs_1LSYIDY.sdf']

>  <name>  (878) 
P546764

>  <ref_pdb>  (878) 
A0884a

>  <subsites>  (878) 
None

>  <HIPPO Pose ID>  (878) 
546764

>  <ref_mols>  (878) 
A0884a

>  <HIPPO Compound ID>  (878) 
385331

>  <tags>  (878) 
openbind_a71ev2a_c2_elabs,syndirella_product,openbind_a71ev2a_c2_elabs_fragonly_scored_top80percent,openbind_a71ev2a_c2_elabs_scored,BulkDock Fragalysis export,openbind_a71ev2a_c2_elabs_scored_top80percent,openbind_a71ev2a_c2_elabs_activefrags_only_scored_5.2plus,syndirella_placed

>  <smina_score_min>  (878) 
-7.061

$$$$
P546765
     RDKit          3D

 22 23  0  0  0  0  0  0  0  0999 V2000
    3.7060    8.9210   28.8919 C   0  0  0  0  0  0  0  0  0  0  0  0
    2.7711   10.4643   29.0948 S   0  0  0  0  0  0  0  0  0  0  0  0
    4.2461   11.8466   29.4862 S   0  0  0  0  0  0  0  0  0  0  0  0
    4.7456   12.4388   27.8350 C   0  0  0  0  0  0  0  0  0  0  0  0
    5.8568   11.5868   27.2119 C   0  0  0  0  0  0  0  0  0  0  0  0
    6.1435   10.5106   27.5741 O   0  0  0  0  0  0  0  0  0  0  0  0
    6.4755   12.4737   26.0787 N   0  0  0  0  0  0  0  0  0  0  0  0
    7.4708   12.1826   25.1394 C   0  0  0  0  0  0  0  0  0  0  0  0
    7.8664   10.8546   24.9565 C   0  0  0  0  0  0  0  0  0  0  0  0
    8.9065   10.5374   24.0896 C   0  0  0  0  0  0  0  0  0  0  0  0
    9.5941   11.5568   23.4439 C   0  0  0  0  0  0  0  0  0  0  0  0
    9.2162   12.8985   23.6111 C   0  0  0  0  0  0  0  0  0  0  0  0
   10.0192   13.9131   22.9883 N   0  0  0  0  0  0  0  0  0  0  0  0
    9.5739   14.3440   21.6602 C   0  0  0  0  0  0  0  0  0  0  0  0
   10.5126   15.2752   20.9387 C   0  0  0  0  0  0  0  0  0  0  0  0
   11.8996   14.7554   21.1318 C   0  0  0  0  0  0  0  0  0  0  0  0
   12.6803   14.5275   20.2129 O   0  0  0  0  0  0  0  0  0  0  0  0
   12.2208   14.5507   22.4431 N   0  0  0  0  0  0  0  0  0  0  0  0
   11.3696   13.9594   23.3345 C   0  0  0  0  0  0  0  0  0  0  0  0
   11.8241   13.4876   24.3782 O   0  0  0  0  0  0  0  0  0  0  0  0
    8.0979   13.2214   24.4118 C   0  0  0  0  0  0  0  0  0  0  0  0
    7.6702   14.6531   24.5954 C   0  0  0  0  0  0  0  0  0  0  0  0
  1  2  1  0
  2  3  1  0
  3  4  1  0
  4  5  1  0
  5  6  2  0
  5  7  1  0
  7  8  1  0
  8  9  2  0
  9 10  1  0
 10 11  2  0
 11 12  1  0
 12 13  1  0
 13 14  1  0
 14 15  1  0
 15 16  1  0
 16 17  2  0
 16 18  1  0
 18 19  1  0
 19 20  2  0
 12 21  2  0
 21 22  1  0
 21  8  1  0
 19 13  1  0
M  END
>  <alias>  (879) 
None

>  <rmsd(smina/fragmenstein)>  (879) 
0.307

>  <smiles>  (879) 
CSSCC(=O)Nc1cccc(N2CCC(=O)NC2=O)c1C

>  <gnina_score>  (879) 
5.269

>  <inspiration_score>  (879) 
None

>  <energy_score>  (879) 
-47.957297

>  <distance_score>  (879) 
1.200082

>  <gnina_score_min>  (879) 
5.248

>  <inchikey>  (879) 
CNVIWXBOSZMINZ-UHFFFAOYSA-N

>  <exports>  (879) 
['/opt/xchem-fragalysis-2/maxwin/BulkDock/OUTPUTS/openbind_a71ev2a_c2_elabs_1LOUU54.sdf', '/opt/xchem-fragalysis-2/maxwin/BulkDock/OUTPUTS/openbind_a71ev2a_c2_elabs_1LSYIDY.sdf']

>  <name>  (879) 
P546765

>  <ref_pdb>  (879) 
A0884a

>  <subsites>  (879) 
None

>  <HIPPO Pose ID>  (879) 
546765

>  <ref_mols>  (879) 
A0884a

>  <HIPPO Compound ID>  (879) 
385333

>  <tags>  (879) 
openbind_a71ev2a_c2_elabs,syndirella_product,openbind_a71ev2a_c2_elabs_fragonly_scored_top80percent,openbind_a71ev2a_c2_elabs_scored,BulkDock Fragalysis export,openbind_a71ev2a_c2_elabs_scored_top80percent,openbind_a71ev2a_c2_elabs_activefrags_only_scored_5.2plus,syndirella_placed

>  <smina_score_min>  (879) 
-6.833

$$$$
P546766
     RDKit          3D

 22 23  0  0  0  0  0  0  0  0999 V2000
    7.3851   13.4004   29.5684 C   0  0  0  0  0  0  0  0  0  0  0  0
    5.7677   14.1380   29.9012 S   0  0  0  0  0  0  0  0  0  0  0  0
    5.1968   14.8022   28.0403 S   0  0  0  0  0  0  0  0  0  0  0  0
    4.3141   13.3749   27.3377 C   0  0  0  0  0  0  0  0  0  0  0  0
    5.2631   12.2587   26.9119 C   0  0  0  0  0  0  0  0  0  0  0  0
    5.1829   11.1651   27.3242 O   0  0  0  0  0  0  0  0  0  0  0  0
    6.1975   12.8599   25.8161 N   0  0  0  0  0  0  0  0  0  0  0  0
    7.2491   12.2777   25.1000 C   0  0  0  0  0  0  0  0  0  0  0  0
    7.4357   10.8957   25.1399 C   0  0  0  0  0  0  0  0  0  0  0  0
    8.4696   10.3031   24.4214 C   0  0  0  0  0  0  0  0  0  0  0  0
    9.3745   11.0892   23.7264 C   0  0  0  0  0  0  0  0  0  0  0  0
    9.2300   12.4816   23.7081 C   0  0  0  0  0  0  0  0  0  0  0  0
   10.3413   13.2058   23.2002 N   0  0  0  0  0  0  0  0  0  0  0  0
   11.3676   13.4646   24.0847 C   0  0  0  0  0  0  0  0  0  0  0  0
   11.2597   13.5454   25.3046 O   0  0  0  0  0  0  0  0  0  0  0  0
   12.6688   13.6996   23.4046 C   0  0  0  0  0  0  0  0  0  0  0  0
   12.4696   14.9135   22.5542 C   0  0  0  0  0  0  0  0  0  0  0  0
   11.3378   14.7067   21.7071 N   0  0  0  0  0  0  0  0  0  0  0  0
   10.2574   13.9530   22.0484 C   0  0  0  0  0  0  0  0  0  0  0  0
    9.2751   14.0200   21.3211 O   0  0  0  0  0  0  0  0  0  0  0  0
    8.1188   13.0881   24.3364 C   0  0  0  0  0  0  0  0  0  0  0  0
    7.9041   14.5741   24.2827 C   0  0  0  0  0  0  0  0  0  0  0  0
  1  2  1  0
  2  3  1  0
  3  4  1  0
  4  5  1  0
  5  6  2  0
  5  7  1  0
  7  8  1  0
  8  9  2  0
  9 10  1  0
 10 11  2  0
 11 12  1  0
 12 13  1  0
 13 14  1  0
 14 15  2  0
 14 16  1  0
 16 17  1  0
 17 18  1  0
 18 19  1  0
 19 20  2  0
 12 21  2  0
 21 22  1  0
 21  8  1  0
 19 13  1  0
M  END
>  <alias>  (880) 
None

>  <rmsd(smina/fragmenstein)>  (880) 
0.579

>  <smiles>  (880) 
CSSCC(=O)Nc1cccc(N2C(=O)CCNC2=O)c1C

>  <gnina_score>  (880) 
5.465

>  <inspiration_score>  (880) 
None

>  <energy_score>  (880) 
-24.093773

>  <distance_score>  (880) 
1.665449

>  <gnina_score_min>  (880) 
5.479

>  <inchikey>  (880) 
MJUSKRCPPIDKSM-UHFFFAOYSA-N

>  <exports>  (880) 
['/opt/xchem-fragalysis-2/maxwin/BulkDock/OUTPUTS/openbind_a71ev2a_c2_elabs_1LOUU54.sdf', '/opt/xchem-fragalysis-2/maxwin/BulkDock/OUTPUTS/openbind_a71ev2a_c2_elabs_1LSYIDY.sdf']

>  <name>  (880) 
P546766

>  <ref_pdb>  (880) 
A0884a

>  <subsites>  (880) 
None

>  <HIPPO Pose ID>  (880) 
546766

>  <ref_mols>  (880) 
A0884a

>  <HIPPO Compound ID>  (880) 
385334

>  <tags>  (880) 
openbind_a71ev2a_c2_elabs,syndirella_product,openbind_a71ev2a_c2_elabs_fragonly_scored_top80percent,openbind_a71ev2a_c2_elabs_scored,BulkDock Fragalysis export,openbind_a71ev2a_c2_elabs_scored_top80percent,openbind_a71ev2a_c2_elabs_activefrags_only_scored_5.2plus,syndirella_placed

>  <smina_score_min>  (880) 
-6.217

$$$$
P546767
     RDKit          3D

 22 23  0  0  0  0  0  0  0  0999 V2000
    5.6312   10.4599   30.0597 C   0  0  0  0  0  0  0  0  0  0  0  0
    4.7218   12.0171   30.2252 S   0  0  0  0  0  0  0  0  0  0  0  0
    3.5938   12.0689   28.5034 S   0  0  0  0  0  0  0  0  0  0  0  0
    4.6998   12.8732   27.3022 C   0  0  0  0  0  0  0  0  0  0  0  0
    5.7109   11.9066   26.6751 C   0  0  0  0  0  0  0  0  0  0  0  0
    5.7257   10.7492   26.8479 O   0  0  0  0  0  0  0  0  0  0  0  0
    6.6482   12.8132   25.8132 N   0  0  0  0  0  0  0  0  0  0  0  0
    7.6884   12.4765   24.9528 C   0  0  0  0  0  0  0  0  0  0  0  0
    8.0756   11.1506   24.7287 C   0  0  0  0  0  0  0  0  0  0  0  0
    9.1419   10.9003   23.8692 C   0  0  0  0  0  0  0  0  0  0  0  0
    9.7475    9.2035   23.3964 Br  0  0  0  0  0  0  0  0  0  0  0  0
    9.8370   11.9334   23.2809 C   0  0  0  0  0  0  0  0  0  0  0  0
    9.4545   13.2427   23.5109 C   0  0  0  0  0  0  0  0  0  0  0  0
   10.1898   14.2664   22.8697 N   0  0  0  0  0  0  0  0  0  0  0  0
    9.6708   14.6159   21.5445 C   0  0  0  0  0  0  0  0  0  0  0  0
   10.6218   15.4109   20.6988 C   0  0  0  0  0  0  0  0  0  0  0  0
   11.9870   14.8259   20.8845 C   0  0  0  0  0  0  0  0  0  0  0  0
   12.6796   14.3981   19.9676 O   0  0  0  0  0  0  0  0  0  0  0  0
   12.3777   14.8044   22.1913 N   0  0  0  0  0  0  0  0  0  0  0  0
   11.5568   14.2953   23.1518 C   0  0  0  0  0  0  0  0  0  0  0  0
   12.0309   13.8426   24.1956 O   0  0  0  0  0  0  0  0  0  0  0  0
    8.3612   13.5255   24.3181 C   0  0  0  0  0  0  0  0  0  0  0  0
  1  2  1  0
  2  3  1  0
  3  4  1  0
  4  5  1  0
  5  6  2  0
  5  7  1  0
  7  8  1  0
  8  9  2  0
  9 10  1  0
 10 11  1  0
 10 12  2  0
 12 13  1  0
 13 14  1  0
 14 15  1  0
 15 16  1  0
 16 17  1  0
 17 18  2  0
 17 19  1  0
 19 20  1  0
 20 21  2  0
 13 22  2  0
 22  8  1  0
 20 14  1  0
M  END
>  <alias>  (881) 
None

>  <rmsd(smina/fragmenstein)>  (881) 
0.438

>  <smiles>  (881) 
CSSCC(=O)Nc1cc(Br)cc(N2CCC(=O)NC2=O)c1

>  <gnina_score>  (881) 
5.7

>  <inspiration_score>  (881) 
None

>  <energy_score>  (881) 
-36.898985

>  <distance_score>  (881) 
1.25622

>  <gnina_score_min>  (881) 
5.695

>  <inchikey>  (881) 
YLHDMZXDLHTHOC-UHFFFAOYSA-N

>  <exports>  (881) 
['/opt/xchem-fragalysis-2/maxwin/BulkDock/OUTPUTS/openbind_a71ev2a_c2_elabs_1LOUU54.sdf', '/opt/xchem-fragalysis-2/maxwin/BulkDock/OUTPUTS/openbind_a71ev2a_c2_elabs_1LSYIDY.sdf']

>  <name>  (881) 
P546767

>  <ref_pdb>  (881) 
A0884a

>  <subsites>  (881) 
None

>  <HIPPO Pose ID>  (881) 
546767

>  <ref_mols>  (881) 
A0884a

>  <HIPPO Compound ID>  (881) 
385335

>  <tags>  (881) 
openbind_a71ev2a_c2_elabs,syndirella_product,openbind_a71ev2a_c2_elabs_fragonly_scored_top80percent,BulkDock Fragalysis export,openbind_a71ev2a_c2_elabs_scored,openbind_a71ev2a_c2_elabs_scored_top80percent,openbind_a71ev2a_c2_elabs_activefrags_only_scored_5.2plus,openbind_a71ev2a_c2_elabs_activefrags_only_scored_5.5plus,syndirella_placed

>  <smina_score_min>  (881) 
-6.161

$$$$
P546768
     RDKit          3D

 22 23  0  0  0  0  0  0  0  0999 V2000
    6.0780   17.8854   27.7437 C   0  0  0  0  0  0  0  0  0  0  0  0
    6.9230   16.2956   27.9580 S   0  0  0  0  0  0  0  0  0  0  0  0
    5.4625   15.1649   28.8666 S   0  0  0  0  0  0  0  0  0  0  0  0
    4.5055   14.5106   27.4631 C   0  0  0  0  0  0  0  0  0  0  0  0
    5.1286   13.2059   26.9733 C   0  0  0  0  0  0  0  0  0  0  0  0
    4.7530   12.1524   27.3243 O   0  0  0  0  0  0  0  0  0  0  0  0
    6.2587   13.5938   25.9653 N   0  0  0  0  0  0  0  0  0  0  0  0
    7.1774   12.7976   25.2885 C   0  0  0  0  0  0  0  0  0  0  0  0
    7.1675   11.4127   25.4136 C   0  0  0  0  0  0  0  0  0  0  0  0
    8.0983   10.6512   24.7156 C   0  0  0  0  0  0  0  0  0  0  0  0
    9.0374   11.2655   23.8856 C   0  0  0  0  0  0  0  0  0  0  0  0
   10.0216   10.2043   22.9780 Cl  0  0  0  0  0  0  0  0  0  0  0  0
    9.0648   12.6627   23.7460 C   0  0  0  0  0  0  0  0  0  0  0  0
    9.9995   13.3324   22.8868 N   0  0  0  0  0  0  0  0  0  0  0  0
    9.4681   14.3087   21.9450 C   0  0  0  0  0  0  0  0  0  0  0  0
   10.4477   14.7854   20.8946 C   0  0  0  0  0  0  0  0  0  0  0  0
   11.8690   14.5016   21.2576 C   0  0  0  0  0  0  0  0  0  0  0  0
   12.7608   14.4736   20.4140 O   0  0  0  0  0  0  0  0  0  0  0  0
   12.1095   14.3032   22.5828 N   0  0  0  0  0  0  0  0  0  0  0  0
   11.2855   13.5549   23.3800 C   0  0  0  0  0  0  0  0  0  0  0  0
   11.7021   13.1327   24.4565 O   0  0  0  0  0  0  0  0  0  0  0  0
    8.1216   13.4174   24.4614 C   0  0  0  0  0  0  0  0  0  0  0  0
  1  2  1  0
  2  3  1  0
  3  4  1  0
  4  5  1  0
  5  6  2  0
  5  7  1  0
  7  8  1  0
  8  9  2  0
  9 10  1  0
 10 11  2  0
 11 12  1  0
 11 13  1  0
 13 14  1  0
 14 15  1  0
 15 16  1  0
 16 17  1  0
 17 18  2  0
 17 19  1  0
 19 20  1  0
 20 21  2  0
 13 22  2  0
 22  8  1  0
 20 14  1  0
M  END
>  <alias>  (882) 
None

>  <rmsd(smina/fragmenstein)>  (882) 
1.066

>  <smiles>  (882) 
CSSCC(=O)Nc1ccc(Cl)c(N2CCC(=O)NC2=O)c1

>  <gnina_score>  (882) 
5.622

>  <inspiration_score>  (882) 
None

>  <energy_score>  (882) 
-35.216553

>  <distance_score>  (882) 
1.401313

>  <gnina_score_min>  (882) 
5.54

>  <inchikey>  (882) 
GMDVWSFRBPPQMA-UHFFFAOYSA-N

>  <exports>  (882) 
['/opt/xchem-fragalysis-2/maxwin/BulkDock/OUTPUTS/openbind_a71ev2a_c2_elabs_1LOUU54.sdf', '/opt/xchem-fragalysis-2/maxwin/BulkDock/OUTPUTS/openbind_a71ev2a_c2_elabs_1LSYIDY.sdf']

>  <name>  (882) 
P546768

>  <ref_pdb>  (882) 
A0884a

>  <subsites>  (882) 
None

>  <HIPPO Pose ID>  (882) 
546768

>  <ref_mols>  (882) 
A0884a

>  <HIPPO Compound ID>  (882) 
385336

>  <tags>  (882) 
openbind_a71ev2a_c2_elabs,syndirella_product,openbind_a71ev2a_c2_elabs_fragonly_scored_top80percent,BulkDock Fragalysis export,openbind_a71ev2a_c2_elabs_scored,openbind_a71ev2a_c2_elabs_scored_top80percent,openbind_a71ev2a_c2_elabs_activefrags_only_scored_5.2plus,openbind_a71ev2a_c2_elabs_activefrags_only_scored_5.5plus,syndirella_placed

>  <smina_score_min>  (882) 
-6.248

$$$$
P546769
     RDKit          3D

 22 23  0  0  0  0  0  0  0  0999 V2000
    7.3297   13.6295   29.5546 C   0  0  0  0  0  0  0  0  0  0  0  0
    5.9355   14.7231   29.9256 S   0  0  0  0  0  0  0  0  0  0  0  0
    5.6114   15.6631   28.1238 S   0  0  0  0  0  0  0  0  0  0  0  0
    4.4362   14.5586   27.2740 C   0  0  0  0  0  0  0  0  0  0  0  0
    5.0909   13.2469   26.8516 C   0  0  0  0  0  0  0  0  0  0  0  0
    4.7004   12.2001   27.2059 O   0  0  0  0  0  0  0  0  0  0  0  0
    6.2468   13.6158   25.8658 N   0  0  0  0  0  0  0  0  0  0  0  0
    7.1759   12.8060   25.2200 C   0  0  0  0  0  0  0  0  0  0  0  0
    7.1861   11.4268   25.3812 C   0  0  0  0  0  0  0  0  0  0  0  0
    8.1181   10.6597   24.6882 C   0  0  0  0  0  0  0  0  0  0  0  0
    9.0519   11.2541   23.8249 C   0  0  0  0  0  0  0  0  0  0  0  0
    9.9415   10.3204   23.0693 C   0  0  0  0  0  0  0  0  0  0  0  0
    9.0706   12.6544   23.6879 C   0  0  0  0  0  0  0  0  0  0  0  0
   10.0122   13.3245   22.8386 N   0  0  0  0  0  0  0  0  0  0  0  0
    9.4874   14.3191   21.9098 C   0  0  0  0  0  0  0  0  0  0  0  0
   10.4661   14.7869   20.8551 C   0  0  0  0  0  0  0  0  0  0  0  0
   11.8871   14.5222   21.2320 C   0  0  0  0  0  0  0  0  0  0  0  0
   12.7870   14.5097   20.3953 O   0  0  0  0  0  0  0  0  0  0  0  0
   12.1172   14.3170   22.5582 N   0  0  0  0  0  0  0  0  0  0  0  0
   11.2955   13.5502   23.3429 C   0  0  0  0  0  0  0  0  0  0  0  0
   11.7207   13.1101   24.4088 O   0  0  0  0  0  0  0  0  0  0  0  0
    8.1162   13.4131   24.3834 C   0  0  0  0  0  0  0  0  0  0  0  0
  1  2  1  0
  2  3  1  0
  3  4  1  0
  4  5  1  0
  5  6  2  0
  5  7  1  0
  7  8  1  0
  8  9  2  0
  9 10  1  0
 10 11  2  0
 11 12  1  0
 11 13  1  0
 13 14  1  0
 14 15  1  0
 15 16  1  0
 16 17  1  0
 17 18  2  0
 17 19  1  0
 19 20  1  0
 20 21  2  0
 13 22  2  0
 22  8  1  0
 20 14  1  0
M  END
>  <alias>  (883) 
None

>  <rmsd(smina/fragmenstein)>  (883) 
0.496

>  <smiles>  (883) 
CSSCC(=O)Nc1ccc(C)c(N2CCC(=O)NC2=O)c1

>  <gnina_score>  (883) 
5.401

>  <inspiration_score>  (883) 
None

>  <energy_score>  (883) 
-16.081356

>  <distance_score>  (883) 
1.408501

>  <gnina_score_min>  (883) 
5.376

>  <inchikey>  (883) 
FWSSVLAPLOVJNM-UHFFFAOYSA-N

>  <exports>  (883) 
['/opt/xchem-fragalysis-2/maxwin/BulkDock/OUTPUTS/openbind_a71ev2a_c2_elabs_1LOUU54.sdf', '/opt/xchem-fragalysis-2/maxwin/BulkDock/OUTPUTS/openbind_a71ev2a_c2_elabs_1LSYIDY.sdf']

>  <name>  (883) 
P546769

>  <ref_pdb>  (883) 
A0884a

>  <subsites>  (883) 
None

>  <HIPPO Pose ID>  (883) 
546769

>  <ref_mols>  (883) 
A0884a

>  <HIPPO Compound ID>  (883) 
385338

>  <tags>  (883) 
openbind_a71ev2a_c2_elabs,syndirella_product,openbind_a71ev2a_c2_elabs_fragonly_scored_top80percent,openbind_a71ev2a_c2_elabs_scored,BulkDock Fragalysis export,openbind_a71ev2a_c2_elabs_scored_top80percent,openbind_a71ev2a_c2_elabs_activefrags_only_scored_5.2plus,syndirella_placed

>  <smina_score_min>  (883) 
-6.262

$$$$
P546770
     RDKit          3D

 22 23  0  0  0  0  0  0  0  0999 V2000
    2.3125   16.0688   28.8363 C   0  0  0  0  0  0  0  0  0  0  0  0
    1.5939   14.9268   27.6288 S   0  0  0  0  0  0  0  0  0  0  0  0
    2.8493   13.3035   27.7713 S   0  0  0  0  0  0  0  0  0  0  0  0
    4.2042   13.7658   26.6441 C   0  0  0  0  0  0  0  0  0  0  0  0
    5.2175   12.6242   26.4757 C   0  0  0  0  0  0  0  0  0  0  0  0
    5.1607   11.5934   27.0288 O   0  0  0  0  0  0  0  0  0  0  0  0
    6.2593   13.1615   25.4349 N   0  0  0  0  0  0  0  0  0  0  0  0
    7.3423   12.5223   24.8219 C   0  0  0  0  0  0  0  0  0  0  0  0
    8.1538   13.3110   23.9971 C   0  0  0  0  0  0  0  0  0  0  0  0
    9.2959   12.7716   23.3965 C   0  0  0  0  0  0  0  0  0  0  0  0
   10.1701   13.5812   22.6289 N   0  0  0  0  0  0  0  0  0  0  0  0
    9.6069   14.5000   21.6512 C   0  0  0  0  0  0  0  0  0  0  0  0
   10.5834   14.9394   20.5814 C   0  0  0  0  0  0  0  0  0  0  0  0
   11.9948   14.5947   20.9369 C   0  0  0  0  0  0  0  0  0  0  0  0
   12.8527   14.3888   20.0843 O   0  0  0  0  0  0  0  0  0  0  0  0
   12.2603   14.5517   22.2711 N   0  0  0  0  0  0  0  0  0  0  0  0
   11.4717   13.7821   23.0799 C   0  0  0  0  0  0  0  0  0  0  0  0
   11.9320   13.3149   24.1206 O   0  0  0  0  0  0  0  0  0  0  0  0
    9.5780   11.4129   23.5462 C   0  0  0  0  0  0  0  0  0  0  0  0
    8.7400   10.6069   24.3086 C   0  0  0  0  0  0  0  0  0  0  0  0
    7.6525   11.1680   24.9715 C   0  0  0  0  0  0  0  0  0  0  0  0
    6.8968   10.3503   25.7095 F   0  0  0  0  0  0  0  0  0  0  0  0
  1  2  1  0
  2  3  1  0
  3  4  1  0
  4  5  1  0
  5  6  2  0
  5  7  1  0
  7  8  1  0
  8  9  2  0
  9 10  1  0
 10 11  1  0
 11 12  1  0
 12 13  1  0
 13 14  1  0
 14 15  2  0
 14 16  1  0
 16 17  1  0
 17 18  2  0
 10 19  2  0
 19 20  1  0
 20 21  2  0
 21 22  1  0
 21  8  1  0
 17 11  1  0
M  END
>  <alias>  (884) 
None

>  <rmsd(smina/fragmenstein)>  (884) 
0.883

>  <smiles>  (884) 
CSSCC(=O)Nc1cc(N2CCC(=O)NC2=O)ccc1F

>  <gnina_score>  (884) 
5.424

>  <inspiration_score>  (884) 
None

>  <energy_score>  (884) 
-31.768503

>  <distance_score>  (884) 
1.242408

>  <gnina_score_min>  (884) 
5.489

>  <inchikey>  (884) 
GFBNPXOKEFWFON-UHFFFAOYSA-N

>  <exports>  (884) 
['/opt/xchem-fragalysis-2/maxwin/BulkDock/OUTPUTS/openbind_a71ev2a_c2_elabs_1LOUU54.sdf', '/opt/xchem-fragalysis-2/maxwin/BulkDock/OUTPUTS/openbind_a71ev2a_c2_elabs_1LSYIDY.sdf']

>  <name>  (884) 
P546770

>  <ref_pdb>  (884) 
A0884a

>  <subsites>  (884) 
None

>  <HIPPO Pose ID>  (884) 
546770

>  <ref_mols>  (884) 
A0884a

>  <HIPPO Compound ID>  (884) 
385339

>  <tags>  (884) 
openbind_a71ev2a_c2_elabs,syndirella_product,openbind_a71ev2a_c2_elabs_fragonly_scored_top80percent,openbind_a71ev2a_c2_elabs_scored,BulkDock Fragalysis export,openbind_a71ev2a_c2_elabs_scored_top80percent,openbind_a71ev2a_c2_elabs_activefrags_only_scored_5.2plus,syndirella_placed

>  <smina_score_min>  (884) 
-6.621

$$$$
P546771
     RDKit          3D

 22 23  0  0  0  0  0  0  0  0999 V2000
    5.0623   10.5459   29.9381 C   0  0  0  0  0  0  0  0  0  0  0  0
    4.3556   12.2051   30.1274 S   0  0  0  0  0  0  0  0  0  0  0  0
    3.3303   12.4701   28.3609 S   0  0  0  0  0  0  0  0  0  0  0  0
    4.5737   13.1992   27.2475 C   0  0  0  0  0  0  0  0  0  0  0  0
    5.5316   12.1663   26.6460 C   0  0  0  0  0  0  0  0  0  0  0  0
    5.5036   11.0190   26.8746 O   0  0  0  0  0  0  0  0  0  0  0  0
    6.4550   12.9852   25.6853 N   0  0  0  0  0  0  0  0  0  0  0  0
    7.5435   12.5827   24.9200 C   0  0  0  0  0  0  0  0  0  0  0  0
    7.8983   11.2382   24.7928 C   0  0  0  0  0  0  0  0  0  0  0  0
    8.9857   10.9013   23.9920 C   0  0  0  0  0  0  0  0  0  0  0  0
    9.4228    9.2942   23.6690 Cl  0  0  0  0  0  0  0  0  0  0  0  0
    9.7500   11.8735   23.3800 C   0  0  0  0  0  0  0  0  0  0  0  0
    9.4031   13.2084   23.5203 C   0  0  0  0  0  0  0  0  0  0  0  0
   10.1833   14.1860   22.8578 N   0  0  0  0  0  0  0  0  0  0  0  0
    9.6566   14.5897   21.5517 C   0  0  0  0  0  0  0  0  0  0  0  0
   10.6133   15.3897   20.7137 C   0  0  0  0  0  0  0  0  0  0  0  0
   11.9818   14.8098   20.8907 C   0  0  0  0  0  0  0  0  0  0  0  0
   12.6939   14.4310   19.9664 O   0  0  0  0  0  0  0  0  0  0  0  0
   12.3662   14.7447   22.1984 N   0  0  0  0  0  0  0  0  0  0  0  0
   11.5461   14.2019   23.1408 C   0  0  0  0  0  0  0  0  0  0  0  0
   12.0236   13.7261   24.1728 O   0  0  0  0  0  0  0  0  0  0  0  0
    8.2786   13.5684   24.2564 C   0  0  0  0  0  0  0  0  0  0  0  0
  1  2  1  0
  2  3  1  0
  3  4  1  0
  4  5  1  0
  5  6  2  0
  5  7  1  0
  7  8  1  0
  8  9  2  0
  9 10  1  0
 10 11  1  0
 10 12  2  0
 12 13  1  0
 13 14  1  0
 14 15  1  0
 15 16  1  0
 16 17  1  0
 17 18  2  0
 17 19  1  0
 19 20  1  0
 20 21  2  0
 13 22  2  0
 22  8  1  0
 20 14  1  0
M  END
>  <alias>  (885) 
None

>  <rmsd(smina/fragmenstein)>  (885) 
0.54

>  <smiles>  (885) 
CSSCC(=O)Nc1cc(Cl)cc(N2CCC(=O)NC2=O)c1

>  <gnina_score>  (885) 
5.526

>  <inspiration_score>  (885) 
None

>  <energy_score>  (885) 
-27.715493

>  <distance_score>  (885) 
1.257545

>  <gnina_score_min>  (885) 
5.665

>  <inchikey>  (885) 
JYLHVLJLNOCUCW-UHFFFAOYSA-N

>  <exports>  (885) 
['/opt/xchem-fragalysis-2/maxwin/BulkDock/OUTPUTS/openbind_a71ev2a_c2_elabs_1LOUU54.sdf', '/opt/xchem-fragalysis-2/maxwin/BulkDock/OUTPUTS/openbind_a71ev2a_c2_elabs_1LSYIDY.sdf']

>  <name>  (885) 
P546771

>  <ref_pdb>  (885) 
A0884a

>  <subsites>  (885) 
None

>  <HIPPO Pose ID>  (885) 
546771

>  <ref_mols>  (885) 
A0884a

>  <HIPPO Compound ID>  (885) 
385340

>  <tags>  (885) 
openbind_a71ev2a_c2_elabs,syndirella_product,openbind_a71ev2a_c2_elabs_fragonly_scored_top80percent,BulkDock Fragalysis export,openbind_a71ev2a_c2_elabs_scored,openbind_a71ev2a_c2_elabs_scored_top80percent,openbind_a71ev2a_c2_elabs_activefrags_only_scored_5.2plus,openbind_a71ev2a_c2_elabs_activefrags_only_scored_5.5plus,syndirella_placed

>  <smina_score_min>  (885) 
-6.548

$$$$
P546772
     RDKit          3D

 22 23  0  0  0  0  0  0  0  0999 V2000
    4.5622   17.3983   26.9981 C   0  0  0  0  0  0  0  0  0  0  0  0
    4.0608   16.3815   28.4136 S   0  0  0  0  0  0  0  0  0  0  0  0
    5.3491   14.7849   28.2673 S   0  0  0  0  0  0  0  0  0  0  0  0
    4.4567   13.6763   27.1323 C   0  0  0  0  0  0  0  0  0  0  0  0
    5.4134   12.5964   26.6340 C   0  0  0  0  0  0  0  0  0  0  0  0
    5.3416   11.4725   26.9569 O   0  0  0  0  0  0  0  0  0  0  0  0
    6.3767   13.2999   25.6250 N   0  0  0  0  0  0  0  0  0  0  0  0
    7.4602   12.7989   24.9137 C   0  0  0  0  0  0  0  0  0  0  0  0
    7.7394   11.4351   24.8457 C   0  0  0  0  0  0  0  0  0  0  0  0
    8.8346   10.9868   24.0970 C   0  0  0  0  0  0  0  0  0  0  0  0
    9.1144    9.5473   23.8796 C   0  0  0  0  0  0  0  0  0  0  0  0
    9.6665   11.9010   23.4662 C   0  0  0  0  0  0  0  0  0  0  0  0
    9.3882   13.2582   23.5421 C   0  0  0  0  0  0  0  0  0  0  0  0
   10.2112   14.1711   22.8446 N   0  0  0  0  0  0  0  0  0  0  0  0
    9.6799   14.5873   21.5452 C   0  0  0  0  0  0  0  0  0  0  0  0
   10.6419   15.3764   20.7043 C   0  0  0  0  0  0  0  0  0  0  0  0
   12.0057   14.7842   20.8755 C   0  0  0  0  0  0  0  0  0  0  0  0
   12.7135   14.4064   19.9474 O   0  0  0  0  0  0  0  0  0  0  0  0
   12.3928   14.7087   22.1817 N   0  0  0  0  0  0  0  0  0  0  0  0
   11.5729   14.1557   23.1192 C   0  0  0  0  0  0  0  0  0  0  0  0
   12.0558   13.6574   24.1378 O   0  0  0  0  0  0  0  0  0  0  0  0
    8.2696   13.7090   24.2353 C   0  0  0  0  0  0  0  0  0  0  0  0
  1  2  1  0
  2  3  1  0
  3  4  1  0
  4  5  1  0
  5  6  2  0
  5  7  1  0
  7  8  1  0
  8  9  2  0
  9 10  1  0
 10 11  1  0
 10 12  2  0
 12 13  1  0
 13 14  1  0
 14 15  1  0
 15 16  1  0
 16 17  1  0
 17 18  2  0
 17 19  1  0
 19 20  1  0
 20 21  2  0
 13 22  2  0
 22  8  1  0
 20 14  1  0
M  END
>  <alias>  (886) 
None

>  <rmsd(smina/fragmenstein)>  (886) 
1.098

>  <smiles>  (886) 
CSSCC(=O)Nc1cc(C)cc(N2CCC(=O)NC2=O)c1

>  <gnina_score>  (886) 
5.402

>  <inspiration_score>  (886) 
None

>  <energy_score>  (886) 
-46.767267

>  <distance_score>  (886) 
1.328972

>  <gnina_score_min>  (886) 
5.59

>  <inchikey>  (886) 
NOKBCFWDHCKBNZ-UHFFFAOYSA-N

>  <exports>  (886) 
['/opt/xchem-fragalysis-2/maxwin/BulkDock/OUTPUTS/openbind_a71ev2a_c2_elabs_1LOUU54.sdf', '/opt/xchem-fragalysis-2/maxwin/BulkDock/OUTPUTS/openbind_a71ev2a_c2_elabs_1LSYIDY.sdf']

>  <name>  (886) 
P546772

>  <ref_pdb>  (886) 
A0884a

>  <subsites>  (886) 
None

>  <HIPPO Pose ID>  (886) 
546772

>  <ref_mols>  (886) 
A0884a

>  <HIPPO Compound ID>  (886) 
385341

>  <tags>  (886) 
openbind_a71ev2a_c2_elabs,syndirella_product,openbind_a71ev2a_c2_elabs_fragonly_scored_top80percent,BulkDock Fragalysis export,openbind_a71ev2a_c2_elabs_scored,openbind_a71ev2a_c2_elabs_scored_top80percent,openbind_a71ev2a_c2_elabs_activefrags_only_scored_5.2plus,openbind_a71ev2a_c2_elabs_activefrags_only_scored_5.5plus,syndirella_placed

>  <smina_score_min>  (886) 
-6.486

$$$$
P546773
     RDKit          3D

 22 23  0  0  0  0  0  0  0  0999 V2000
    6.4612   15.9335   30.8283 C   0  0  0  0  0  0  0  0  0  0  0  0
    7.5271   15.4305   29.4545 S   0  0  0  0  0  0  0  0  0  0  0  0
    6.6026   16.3220   27.8463 S   0  0  0  0  0  0  0  0  0  0  0  0
    5.2670   15.1553   27.4192 C   0  0  0  0  0  0  0  0  0  0  0  0
    5.8098   13.7747   27.0618 C   0  0  0  0  0  0  0  0  0  0  0  0
    5.5443   12.8098   27.6731 O   0  0  0  0  0  0  0  0  0  0  0  0
    6.6857   13.9518   25.7764 N   0  0  0  0  0  0  0  0  0  0  0  0
    7.4621   13.0201   25.0656 C   0  0  0  0  0  0  0  0  0  0  0  0
    8.3355   13.6209   24.1467 C   0  0  0  0  0  0  0  0  0  0  0  0
    9.3052   12.8918   23.4560 C   0  0  0  0  0  0  0  0  0  0  0  0
   10.2170   13.5542   22.5934 N   0  0  0  0  0  0  0  0  0  0  0  0
    9.6794   14.5073   21.6293 C   0  0  0  0  0  0  0  0  0  0  0  0
   10.6473   14.8904   20.5335 C   0  0  0  0  0  0  0  0  0  0  0  0
   12.0558   14.5578   20.9044 C   0  0  0  0  0  0  0  0  0  0  0  0
   12.9123   14.3369   20.0526 O   0  0  0  0  0  0  0  0  0  0  0  0
   12.3110   14.5224   22.2419 N   0  0  0  0  0  0  0  0  0  0  0  0
   11.5143   13.7683   23.0617 C   0  0  0  0  0  0  0  0  0  0  0  0
   11.9634   13.3166   24.1140 O   0  0  0  0  0  0  0  0  0  0  0  0
    9.3862   11.5181   23.6423 C   0  0  0  0  0  0  0  0  0  0  0  0
    8.4639   10.8892   24.4792 C   0  0  0  0  0  0  0  0  0  0  0  0
    7.4871   11.6251   25.1922 C   0  0  0  0  0  0  0  0  0  0  0  0
    6.5122   10.8487   26.0181 C   0  0  0  0  0  0  0  0  0  0  0  0
  1  2  1  0
  2  3  1  0
  3  4  1  0
  4  5  1  0
  5  6  2  0
  5  7  1  0
  7  8  1  0
  8  9  2  0
  9 10  1  0
 10 11  1  0
 11 12  1  0
 12 13  1  0
 13 14  1  0
 14 15  2  0
 14 16  1  0
 16 17  1  0
 17 18  2  0
 10 19  2  0
 19 20  1  0
 20 21  2  0
 21 22  1  0
 21  8  1  0
 17 11  1  0
M  END
>  <alias>  (887) 
None

>  <rmsd(smina/fragmenstein)>  (887) 
1.006

>  <smiles>  (887) 
CSSCC(=O)Nc1cc(N2CCC(=O)NC2=O)ccc1C

>  <gnina_score>  (887) 
5.316

>  <inspiration_score>  (887) 
None

>  <energy_score>  (887) 
-26.30299

>  <distance_score>  (887) 
1.49969

>  <gnina_score_min>  (887) 
5.31

>  <inchikey>  (887) 
SPCYFTABVCZIBS-UHFFFAOYSA-N

>  <exports>  (887) 
['/opt/xchem-fragalysis-2/maxwin/BulkDock/OUTPUTS/openbind_a71ev2a_c2_elabs_1LOUU54.sdf', '/opt/xchem-fragalysis-2/maxwin/BulkDock/OUTPUTS/openbind_a71ev2a_c2_elabs_1LSYIDY.sdf']

>  <name>  (887) 
P546773

>  <ref_pdb>  (887) 
A0884a

>  <subsites>  (887) 
None

>  <HIPPO Pose ID>  (887) 
546773

>  <ref_mols>  (887) 
A0884a

>  <HIPPO Compound ID>  (887) 
385342

>  <tags>  (887) 
openbind_a71ev2a_c2_elabs,syndirella_product,openbind_a71ev2a_c2_elabs_fragonly_scored_top80percent,openbind_a71ev2a_c2_elabs_scored,BulkDock Fragalysis export,openbind_a71ev2a_c2_elabs_scored_top80percent,openbind_a71ev2a_c2_elabs_activefrags_only_scored_5.2plus,syndirella_placed

>  <smina_score_min>  (887) 
-6.47

$$$$
P546774
     RDKit          3D

 22 23  0  0  0  0  0  0  0  0999 V2000
    7.1734   13.5932   29.4701 C   0  0  0  0  0  0  0  0  0  0  0  0
    5.5648   14.3851   29.7197 S   0  0  0  0  0  0  0  0  0  0  0  0
    5.1900   15.2266   27.8795 S   0  0  0  0  0  0  0  0  0  0  0  0
    4.2904   13.9177   26.9888 C   0  0  0  0  0  0  0  0  0  0  0  0
    5.1938   12.7355   26.6531 C   0  0  0  0  0  0  0  0  0  0  0  0
    5.0045   11.6550   27.0651 O   0  0  0  0  0  0  0  0  0  0  0  0
    6.3034   13.2726   25.6938 N   0  0  0  0  0  0  0  0  0  0  0  0
    7.3039   12.5970   25.0028 C   0  0  0  0  0  0  0  0  0  0  0  0
    7.4845   11.2188   25.1288 C   0  0  0  0  0  0  0  0  0  0  0  0
    8.5145   10.5903   24.4313 C   0  0  0  0  0  0  0  0  0  0  0  0
    9.3829   11.3460   23.6536 C   0  0  0  0  0  0  0  0  0  0  0  0
   10.3420   10.7078   22.9785 F   0  0  0  0  0  0  0  0  0  0  0  0
    9.2162   12.7267   23.5164 C   0  0  0  0  0  0  0  0  0  0  0  0
   10.1169   13.4856   22.7188 N   0  0  0  0  0  0  0  0  0  0  0  0
    9.5741   14.4352   21.7614 C   0  0  0  0  0  0  0  0  0  0  0  0
   10.5571   14.8891   20.7047 C   0  0  0  0  0  0  0  0  0  0  0  0
   11.9714   14.5581   21.0618 C   0  0  0  0  0  0  0  0  0  0  0  0
   12.8421   14.4284   20.2053 O   0  0  0  0  0  0  0  0  0  0  0  0
   12.2234   14.4372   22.3948 N   0  0  0  0  0  0  0  0  0  0  0  0
   11.4131   13.6741   23.1905 C   0  0  0  0  0  0  0  0  0  0  0  0
   11.8427   13.2083   24.2451 O   0  0  0  0  0  0  0  0  0  0  0  0
    8.1508   13.3440   24.1771 C   0  0  0  0  0  0  0  0  0  0  0  0
  1  2  1  0
  2  3  1  0
  3  4  1  0
  4  5  1  0
  5  6  2  0
  5  7  1  0
  7  8  1  0
  8  9  2  0
  9 10  1  0
 10 11  2  0
 11 12  1  0
 11 13  1  0
 13 14  1  0
 14 15  1  0
 15 16  1  0
 16 17  1  0
 17 18  2  0
 17 19  1  0
 19 20  1  0
 20 21  2  0
 13 22  2  0
 22  8  1  0
 20 14  1  0
M  END
>  <alias>  (888) 
None

>  <rmsd(smina/fragmenstein)>  (888) 
0.451

>  <smiles>  (888) 
CSSCC(=O)Nc1ccc(F)c(N2CCC(=O)NC2=O)c1

>  <gnina_score>  (888) 
5.343

>  <inspiration_score>  (888) 
None

>  <energy_score>  (888) 
-42.38871

>  <distance_score>  (888) 
1.24202

>  <gnina_score_min>  (888) 
5.329

>  <inchikey>  (888) 
SIKJEFCVDICHGX-UHFFFAOYSA-N

>  <exports>  (888) 
['/opt/xchem-fragalysis-2/maxwin/BulkDock/OUTPUTS/openbind_a71ev2a_c2_elabs_1LOUU54.sdf', '/opt/xchem-fragalysis-2/maxwin/BulkDock/OUTPUTS/openbind_a71ev2a_c2_elabs_1LSYIDY.sdf']

>  <name>  (888) 
P546774

>  <ref_pdb>  (888) 
A0884a

>  <subsites>  (888) 
None

>  <HIPPO Pose ID>  (888) 
546774

>  <ref_mols>  (888) 
A0884a

>  <HIPPO Compound ID>  (888) 
385343

>  <tags>  (888) 
openbind_a71ev2a_c2_elabs,syndirella_product,openbind_a71ev2a_c2_elabs_fragonly_scored_top80percent,openbind_a71ev2a_c2_elabs_scored,BulkDock Fragalysis export,openbind_a71ev2a_c2_elabs_scored_top80percent,openbind_a71ev2a_c2_elabs_activefrags_only_scored_5.2plus,syndirella_placed

>  <smina_score_min>  (888) 
-6.368

$$$$
P546777
     RDKit          3D

 22 23  0  0  0  0  0  0  0  0999 V2000
    4.8586   11.2649   29.9696 C   0  0  0  0  0  0  0  0  0  0  0  0
    5.2177   10.4409   28.7345 C   0  0  0  0  0  0  0  0  0  0  0  0
    4.0923    9.4803   28.4066 C   0  0  0  0  0  0  0  0  0  0  0  0
    6.3012    9.6730   29.0808 F   0  0  0  0  0  0  0  0  0  0  0  0
    5.6399   11.3741   27.5662 C   0  0  0  0  0  0  0  0  0  0  0  0
    5.4244   12.5270   27.5705 O   0  0  0  0  0  0  0  0  0  0  0  0
    6.4421   10.4944   26.5443 N   0  0  0  0  0  0  0  0  0  0  0  0
    7.1887   10.8625   25.4214 C   0  0  0  0  0  0  0  0  0  0  0  0
    7.9587    9.9328   24.7493 C   0  0  0  0  0  0  0  0  0  0  0  0
    8.9432   10.3252   23.8510 C   0  0  0  0  0  0  0  0  0  0  0  0
   10.0729    9.0823   23.0433 Br  0  0  0  0  0  0  0  0  0  0  0  0
    9.1843   11.6543   23.6066 C   0  0  0  0  0  0  0  0  0  0  0  0
    8.4357   12.6034   24.2856 C   0  0  0  0  0  0  0  0  0  0  0  0
    8.8676   13.9612   24.2973 N   0  0  0  0  0  0  0  0  0  0  0  0
    8.0772   14.8880   25.1203 C   0  0  0  0  0  0  0  0  0  0  0  0
    8.5849   14.9613   26.5407 C   0  0  0  0  0  0  0  0  0  0  0  0
   10.0823   15.1211   26.5114 C   0  0  0  0  0  0  0  0  0  0  0  0
   10.6698   15.8893   27.2688 O   0  0  0  0  0  0  0  0  0  0  0  0
   10.7764   14.4485   25.5381 N   0  0  0  0  0  0  0  0  0  0  0  0
   10.2651   14.1284   24.2982 C   0  0  0  0  0  0  0  0  0  0  0  0
   11.0210   13.9948   23.3407 O   0  0  0  0  0  0  0  0  0  0  0  0
    7.3808   12.1921   25.1179 C   0  0  0  0  0  0  0  0  0  0  0  0
  1  2  1  0
  2  3  1  0
  2  4  1  0
  2  5  1  0
  5  6  2  0
  5  7  1  0
  7  8  1  0
  8  9  2  0
  9 10  1  0
 10 11  1  0
 10 12  2  0
 12 13  1  0
 13 14  1  0
 14 15  1  0
 15 16  1  0
 16 17  1  0
 17 18  2  0
 17 19  1  0
 19 20  1  0
 20 21  2  0
 13 22  2  0
 22  8  1  0
 20 14  1  0
M  END
>  <alias>  (889) 
None

>  <rmsd(smina/fragmenstein)>  (889) 
0.718

>  <smiles>  (889) 
CC(C)(F)C(=O)Nc1cc(Br)cc(N2CCC(=O)NC2=O)c1

>  <gnina_score>  (889) 
5.353

>  <inspiration_score>  (889) 
None

>  <energy_score>  (889) 
-26.296971

>  <distance_score>  (889) 
1.610583

>  <gnina_score_min>  (889) 
5.232

>  <inchikey>  (889) 
WVDPBTAFZRNTAR-UHFFFAOYSA-N

>  <exports>  (889) 
['/opt/xchem-fragalysis-2/maxwin/BulkDock/OUTPUTS/openbind_a71ev2a_c2_elabs_1LOUU54.sdf', '/opt/xchem-fragalysis-2/maxwin/BulkDock/OUTPUTS/openbind_a71ev2a_c2_elabs_1LSYIDY.sdf']

>  <name>  (889) 
P546777

>  <ref_pdb>  (889) 
A0884a

>  <subsites>  (889) 
None

>  <HIPPO Pose ID>  (889) 
546777

>  <ref_mols>  (889) 
A0884a

>  <HIPPO Compound ID>  (889) 
385345

>  <tags>  (889) 
openbind_a71ev2a_c2_elabs,syndirella_product,openbind_a71ev2a_c2_elabs_fragonly_scored_top80percent,openbind_a71ev2a_c2_elabs_scored,BulkDock Fragalysis export,openbind_a71ev2a_c2_elabs_scored_top80percent,openbind_a71ev2a_c2_elabs_activefrags_only_scored_5.2plus,syndirella_placed

>  <smina_score_min>  (889) 
-4.898

$$$$
P546778
     RDKit          3D

 22 24  0  0  0  0  0  0  0  0999 V2000
    7.9628   14.5440   24.4193 C   0  0  0  0  0  0  0  0  0  0  0  0
    8.1642   13.0557   24.4235 C   0  0  0  0  0  0  0  0  0  0  0  0
    7.3052   12.2238   25.1756 C   0  0  0  0  0  0  0  0  0  0  0  0
    6.2949   12.7891   25.9607 N   0  0  0  0  0  0  0  0  0  0  0  0
    5.3370   12.1413   26.9757 C   0  0  0  0  0  0  0  0  0  0  0  0
    5.1847   11.0226   27.2632 O   0  0  0  0  0  0  0  0  0  0  0  0
    4.4706   13.1897   27.5897 C   0  0  2  0  0  0  0  0  0  0  0  0
    5.0814   14.3458   28.3536 C   0  0  0  0  0  0  0  0  0  0  0  0
    4.3419   13.2685   29.0961 C   0  0  1  0  0  0  0  0  0  0  0  0
    3.0197   13.5542   29.7206 C   0  0  0  0  0  0  0  0  0  0  0  0
    7.4802   10.8404   25.1513 C   0  0  0  0  0  0  0  0  0  0  0  0
    8.4945   10.2697   24.3885 C   0  0  0  0  0  0  0  0  0  0  0  0
    9.3901   11.0745   23.7045 C   0  0  0  0  0  0  0  0  0  0  0  0
    9.2560   12.4661   23.7471 C   0  0  0  0  0  0  0  0  0  0  0  0
   10.3594   13.1993   23.2393 N   0  0  0  0  0  0  0  0  0  0  0  0
   11.3660   13.5193   24.1264 C   0  0  0  0  0  0  0  0  0  0  0  0
   11.2412   13.7038   25.3341 O   0  0  0  0  0  0  0  0  0  0  0  0
   12.6726   13.7068   23.4393 C   0  0  0  0  0  0  0  0  0  0  0  0
   12.4847   14.8971   22.5509 C   0  0  0  0  0  0  0  0  0  0  0  0
   11.3401   14.6846   21.7214 N   0  0  0  0  0  0  0  0  0  0  0  0
   10.2626   13.9339   22.0798 C   0  0  0  0  0  0  0  0  0  0  0  0
    9.2694   13.9990   21.3679 O   0  0  0  0  0  0  0  0  0  0  0  0
  1  2  1  0
  2  3  2  0
  3  4  1  0
  4  5  1  0
  5  6  2  0
  7  5  1  1
  7  8  1  0
  8  9  1  0
  9 10  1  6
  3 11  1  0
 11 12  2  0
 12 13  1  0
 13 14  2  0
 14 15  1  0
 15 16  1  0
 16 17  2  0
 16 18  1  0
 18 19  1  0
 19 20  1  0
 20 21  1  0
 21 22  2  0
 14  2  1  0
 21 15  1  0
  9  7  1  0
M  END
>  <alias>  (890) 
None

>  <rmsd(smina/fragmenstein)>  (890) 
0.647

>  <smiles>  (890) 
Cc1c(NC(=O)[C@@H]2C[C@H]2C)cccc1N1C(=O)CCNC1=O

>  <gnina_score>  (890) 
5.464

>  <inspiration_score>  (890) 
None

>  <energy_score>  (890) 
-34.97479

>  <distance_score>  (890) 
1.631559

>  <gnina_score_min>  (890) 
5.487

>  <inchikey>  (890) 
SAFLUCPOVTUXPC-MWLCHTKSSA-N

>  <exports>  (890) 
['/opt/xchem-fragalysis-2/maxwin/BulkDock/OUTPUTS/openbind_a71ev2a_c2_elabs_1LOUU54.sdf', '/opt/xchem-fragalysis-2/maxwin/BulkDock/OUTPUTS/openbind_a71ev2a_c2_elabs_1LSYIDY.sdf']

>  <name>  (890) 
P546778

>  <ref_pdb>  (890) 
A0884a

>  <subsites>  (890) 
None

>  <HIPPO Pose ID>  (890) 
546778

>  <ref_mols>  (890) 
A0884a

>  <HIPPO Compound ID>  (890) 
385362

>  <tags>  (890) 
openbind_a71ev2a_c2_elabs,syndirella_product,openbind_a71ev2a_c2_elabs_fragonly_scored_top80percent,openbind_a71ev2a_c2_elabs_scored,BulkDock Fragalysis export,openbind_a71ev2a_c2_elabs_scored_top80percent,openbind_a71ev2a_c2_elabs_activefrags_only_scored_5.2plus,syndirella_placed

>  <smina_score_min>  (890) 
-6.707

$$$$
P546780
     RDKit          3D

 22 24  0  0  0  0  0  0  0  0999 V2000
    6.1629   13.7984   29.5225 C   0  0  0  0  0  0  0  0  0  0  0  0
    4.9463   13.2351   28.8664 C   0  0  2  0  0  0  0  0  0  0  0  0
    4.9665   11.8402   28.3084 C   0  0  0  0  0  0  0  0  0  0  0  0
    4.8737   13.0231   27.3662 C   0  0  2  0  0  0  0  0  0  0  0  0
    6.0056   13.4395   26.4832 C   0  0  0  0  0  0  0  0  0  0  0  0
    6.2593   14.5704   26.3791 O   0  0  0  0  0  0  0  0  0  0  0  0
    6.6284   12.2108   25.7992 N   0  0  0  0  0  0  0  0  0  0  0  0
    7.7200   12.1096   24.9438 C   0  0  0  0  0  0  0  0  0  0  0  0
    8.1667   10.8283   24.6063 C   0  0  0  0  0  0  0  0  0  0  0  0
    9.2586   10.6965   23.7608 C   0  0  0  0  0  0  0  0  0  0  0  0
    9.9643    9.0583   23.2287 Br  0  0  0  0  0  0  0  0  0  0  0  0
    9.9005   11.8055   23.2592 C   0  0  0  0  0  0  0  0  0  0  0  0
    9.4650   13.0776   23.5945 C   0  0  0  0  0  0  0  0  0  0  0  0
   10.1558   14.1720   23.0092 N   0  0  0  0  0  0  0  0  0  0  0  0
    9.6158   14.5719   21.7047 C   0  0  0  0  0  0  0  0  0  0  0  0
   10.5514   15.3812   20.8482 C   0  0  0  0  0  0  0  0  0  0  0  0
   11.9342   14.8366   21.0198 C   0  0  0  0  0  0  0  0  0  0  0  0
   12.6520   14.4841   20.0893 O   0  0  0  0  0  0  0  0  0  0  0  0
   12.3258   14.7829   22.3249 N   0  0  0  0  0  0  0  0  0  0  0  0
   11.5245   14.2269   23.2770 C   0  0  0  0  0  0  0  0  0  0  0  0
   12.0283   13.7463   24.2941 O   0  0  0  0  0  0  0  0  0  0  0  0
    8.3635   13.2424   24.4292 C   0  0  0  0  0  0  0  0  0  0  0  0
  2  1  1  6
  2  3  1  0
  3  4  1  0
  4  5  1  6
  5  6  2  0
  5  7  1  0
  7  8  1  0
  8  9  2  0
  9 10  1  0
 10 11  1  0
 10 12  2  0
 12 13  1  0
 13 14  1  0
 14 15  1  0
 15 16  1  0
 16 17  1  0
 17 18  2  0
 17 19  1  0
 19 20  1  0
 20 21  2  0
 13 22  2  0
  4  2  1  0
 22  8  1  0
 20 14  1  0
M  END
>  <alias>  (891) 
None

>  <rmsd(smina/fragmenstein)>  (891) 
0.458

>  <smiles>  (891) 
C[C@@H]1C[C@@H]1C(=O)Nc1cc(Br)cc(N2CCC(=O)NC2=O)c1

>  <gnina_score>  (891) 
5.704

>  <inspiration_score>  (891) 
None

>  <energy_score>  (891) 
-35.801586

>  <distance_score>  (891) 
1.184237

>  <gnina_score_min>  (891) 
5.724

>  <inchikey>  (891) 
XYUSNDIHXQOACL-PELKAZGASA-N

>  <exports>  (891) 
['/opt/xchem-fragalysis-2/maxwin/BulkDock/OUTPUTS/openbind_a71ev2a_c2_elabs_1LOUU54.sdf', '/opt/xchem-fragalysis-2/maxwin/BulkDock/OUTPUTS/openbind_a71ev2a_c2_elabs_1LSYIDY.sdf']

>  <name>  (891) 
P546780

>  <ref_pdb>  (891) 
A0884a

>  <subsites>  (891) 
None

>  <HIPPO Pose ID>  (891) 
546780

>  <ref_mols>  (891) 
A0884a

>  <HIPPO Compound ID>  (891) 
385363

>  <tags>  (891) 
openbind_a71ev2a_c2_elabs,syndirella_product,openbind_a71ev2a_c2_elabs_fragonly_scored_top80percent,BulkDock Fragalysis export,openbind_a71ev2a_c2_elabs_scored,openbind_a71ev2a_c2_elabs_scored_top80percent,openbind_a71ev2a_c2_elabs_activefrags_only_scored_5.2plus,openbind_a71ev2a_c2_elabs_activefrags_only_scored_5.5plus,syndirella_placed

>  <smina_score_min>  (891) 
-6.653

$$$$
P546783
     RDKit          3D

 22 24  0  0  0  0  0  0  0  0999 V2000
    3.2813   16.6762   25.8755 C   0  0  0  0  0  0  0  0  0  0  0  0
    3.3396   15.1882   25.9236 C   0  0  2  0  0  0  0  0  0  0  0  0
    2.6137   14.4322   26.9995 C   0  0  0  0  0  0  0  0  0  0  0  0
    4.1272   14.4910   27.0147 C   0  0  1  0  0  0  0  0  0  0  0  0
    4.9252   13.2720   26.6910 C   0  0  0  0  0  0  0  0  0  0  0  0
    4.6329   12.2450   27.1591 O   0  0  0  0  0  0  0  0  0  0  0  0
    6.0365   13.6319   25.6853 N   0  0  0  0  0  0  0  0  0  0  0  0
    7.0469   12.8482   25.1354 C   0  0  0  0  0  0  0  0  0  0  0  0
    7.1240   11.4818   25.3832 C   0  0  0  0  0  0  0  0  0  0  0  0
    8.0989   10.7211   24.7477 C   0  0  0  0  0  0  0  0  0  0  0  0
    9.0228   11.3246   23.8924 C   0  0  0  0  0  0  0  0  0  0  0  0
   10.0413   10.2507   23.0376 Cl  0  0  0  0  0  0  0  0  0  0  0  0
    8.9946   12.7112   23.6654 C   0  0  0  0  0  0  0  0  0  0  0  0
    9.9503   13.3766   22.8221 N   0  0  0  0  0  0  0  0  0  0  0  0
    9.4543   14.3583   21.8658 C   0  0  0  0  0  0  0  0  0  0  0  0
   10.4574   14.8085   20.8263 C   0  0  0  0  0  0  0  0  0  0  0  0
   11.8702   14.5312   21.2231 C   0  0  0  0  0  0  0  0  0  0  0  0
   12.7829   14.5224   20.4009 O   0  0  0  0  0  0  0  0  0  0  0  0
   12.0833   14.3085   22.5488 N   0  0  0  0  0  0  0  0  0  0  0  0
   11.2367   13.5678   23.3295 C   0  0  0  0  0  0  0  0  0  0  0  0
   11.6348   13.1335   24.4090 O   0  0  0  0  0  0  0  0  0  0  0  0
    7.9774   13.4565   24.2829 C   0  0  0  0  0  0  0  0  0  0  0  0
  2  1  1  1
  2  3  1  0
  3  4  1  0
  4  5  1  6
  5  6  2  0
  5  7  1  0
  7  8  1  0
  8  9  2  0
  9 10  1  0
 10 11  2  0
 11 12  1  0
 11 13  1  0
 13 14  1  0
 14 15  1  0
 15 16  1  0
 16 17  1  0
 17 18  2  0
 17 19  1  0
 19 20  1  0
 20 21  2  0
 13 22  2  0
  4  2  1  0
 22  8  1  0
 20 14  1  0
M  END
>  <alias>  (892) 
None

>  <rmsd(smina/fragmenstein)>  (892) 
0.504

>  <smiles>  (892) 
C[C@@H]1C[C@H]1C(=O)Nc1ccc(Cl)c(N2CCC(=O)NC2=O)c1

>  <gnina_score>  (892) 
5.7

>  <inspiration_score>  (892) 
None

>  <energy_score>  (892) 
-34.996151

>  <distance_score>  (892) 
1.478745

>  <gnina_score_min>  (892) 
5.675

>  <inchikey>  (892) 
XBRGYZQJUMYFOY-PSASIEDQSA-N

>  <exports>  (892) 
['/opt/xchem-fragalysis-2/maxwin/BulkDock/OUTPUTS/openbind_a71ev2a_c2_elabs_1LOUU54.sdf', '/opt/xchem-fragalysis-2/maxwin/BulkDock/OUTPUTS/openbind_a71ev2a_c2_elabs_1LSYIDY.sdf']

>  <name>  (892) 
P546783

>  <ref_pdb>  (892) 
A0884a

>  <subsites>  (892) 
None

>  <HIPPO Pose ID>  (892) 
546783

>  <ref_mols>  (892) 
A0884a

>  <HIPPO Compound ID>  (892) 
385364

>  <tags>  (892) 
openbind_a71ev2a_c2_elabs,syndirella_product,openbind_a71ev2a_c2_elabs_fragonly_scored_top80percent,BulkDock Fragalysis export,openbind_a71ev2a_c2_elabs_scored,openbind_a71ev2a_c2_elabs_scored_top80percent,openbind_a71ev2a_c2_elabs_activefrags_only_scored_5.2plus,openbind_a71ev2a_c2_elabs_activefrags_only_scored_5.5plus,syndirella_placed

>  <smina_score_min>  (892) 
-6.962

$$$$
P546790
     RDKit          3D

 22 24  0  0  0  0  0  0  0  0999 V2000
    9.9526   10.3144   23.0615 C   0  0  0  0  0  0  0  0  0  0  0  0
    9.0523   11.2264   23.8307 C   0  0  0  0  0  0  0  0  0  0  0  0
    8.1315   10.6069   24.6887 C   0  0  0  0  0  0  0  0  0  0  0  0
    7.1873   11.3492   25.3908 C   0  0  0  0  0  0  0  0  0  0  0  0
    7.1444   12.7285   25.2369 C   0  0  0  0  0  0  0  0  0  0  0  0
    6.1880   13.5094   25.8802 N   0  0  0  0  0  0  0  0  0  0  0  0
    5.0707   13.1144   26.8653 C   0  0  0  0  0  0  0  0  0  0  0  0
    4.7251   12.0640   27.2347 O   0  0  0  0  0  0  0  0  0  0  0  0
    4.3414   14.3359   27.3152 C   0  0  1  0  0  0  0  0  0  0  0  0
    4.1358   14.5913   28.7928 C   0  0  0  0  0  0  0  0  0  0  0  0
    5.0812   15.4596   28.0115 C   0  0  2  0  0  0  0  0  0  0  0  0
    4.7324   16.8781   27.7149 C   0  0  0  0  0  0  0  0  0  0  0  0
    8.0708   13.3614   24.4019 C   0  0  0  0  0  0  0  0  0  0  0  0
    9.0448   12.6275   23.7058 C   0  0  0  0  0  0  0  0  0  0  0  0
    9.9790   13.3190   22.8664 N   0  0  0  0  0  0  0  0  0  0  0  0
    9.4440   14.3068   21.9373 C   0  0  0  0  0  0  0  0  0  0  0  0
   10.4180   14.7844   20.8826 C   0  0  0  0  0  0  0  0  0  0  0  0
   11.8441   14.5642   21.2680 C   0  0  0  0  0  0  0  0  0  0  0  0
   12.7550   14.6239   20.4469 O   0  0  0  0  0  0  0  0  0  0  0  0
   12.0793   14.3193   22.5856 N   0  0  0  0  0  0  0  0  0  0  0  0
   11.2607   13.5488   23.3681 C   0  0  0  0  0  0  0  0  0  0  0  0
   11.6891   13.1227   24.4385 O   0  0  0  0  0  0  0  0  0  0  0  0
  1  2  1  0
  2  3  2  0
  3  4  1  0
  4  5  2  0
  5  6  1  0
  6  7  1  0
  7  8  2  0
  9  7  1  1
  9 10  1  0
 10 11  1  0
 11 12  1  6
  5 13  1  0
 13 14  2  0
 14 15  1  0
 15 16  1  0
 16 17  1  0
 17 18  1  0
 18 19  2  0
 18 20  1  0
 20 21  1  0
 21 22  2  0
 14  2  1  0
 21 15  1  0
 11  9  1  0
M  END
>  <alias>  (893) 
None

>  <rmsd(smina/fragmenstein)>  (893) 
0.587

>  <smiles>  (893) 
Cc1ccc(NC(=O)[C@H]2C[C@@H]2C)cc1N1CCC(=O)NC1=O

>  <gnina_score>  (893) 
5.413

>  <inspiration_score>  (893) 
None

>  <energy_score>  (893) 
-49.422249

>  <distance_score>  (893) 
1.371466

>  <gnina_score_min>  (893) 
5.415

>  <inchikey>  (893) 
YVBGOLLUEFPLKS-JQWIXIFHSA-N

>  <exports>  (893) 
['/opt/xchem-fragalysis-2/maxwin/BulkDock/OUTPUTS/openbind_a71ev2a_c2_elabs_1LOUU54.sdf', '/opt/xchem-fragalysis-2/maxwin/BulkDock/OUTPUTS/openbind_a71ev2a_c2_elabs_1LSYIDY.sdf']

>  <name>  (893) 
P546790

>  <ref_pdb>  (893) 
A0884a

>  <subsites>  (893) 
None

>  <HIPPO Pose ID>  (893) 
546790

>  <ref_mols>  (893) 
A0884a

>  <HIPPO Compound ID>  (893) 
385366

>  <tags>  (893) 
openbind_a71ev2a_c2_elabs,syndirella_product,openbind_a71ev2a_c2_elabs_fragonly_scored_top80percent,openbind_a71ev2a_c2_elabs_scored,BulkDock Fragalysis export,openbind_a71ev2a_c2_elabs_scored_top80percent,openbind_a71ev2a_c2_elabs_activefrags_only_scored_5.2plus,syndirella_placed

>  <smina_score_min>  (893) 
-6.803

$$$$
P546793
     RDKit          3D

 22 24  0  0  0  0  0  0  0  0999 V2000
    2.3715   13.9601   26.1875 C   0  0  0  0  0  0  0  0  0  0  0  0
    3.2889   14.6905   27.1059 C   0  0  2  0  0  0  0  0  0  0  0  0
    4.3815   15.5455   26.5299 C   0  0  0  0  0  0  0  0  0  0  0  0
    4.7376   14.2924   27.3030 C   0  0  2  0  0  0  0  0  0  0  0  0
    5.3297   13.0794   26.6553 C   0  0  0  0  0  0  0  0  0  0  0  0
    4.9578   12.0213   26.9724 O   0  0  0  0  0  0  0  0  0  0  0  0
    6.4468   13.4948   25.6776 N   0  0  0  0  0  0  0  0  0  0  0  0
    7.3774   12.7182   24.9765 C   0  0  0  0  0  0  0  0  0  0  0  0
    8.2399   13.4246   24.1286 C   0  0  0  0  0  0  0  0  0  0  0  0
    9.2814   12.7793   23.4538 C   0  0  0  0  0  0  0  0  0  0  0  0
   10.1782   13.5165   22.6384 N   0  0  0  0  0  0  0  0  0  0  0  0
    9.6268   14.4710   21.6858 C   0  0  0  0  0  0  0  0  0  0  0  0
   10.5981   14.9012   20.6091 C   0  0  0  0  0  0  0  0  0  0  0  0
   12.0115   14.5783   20.9741 C   0  0  0  0  0  0  0  0  0  0  0  0
   12.8771   14.4028   20.1214 O   0  0  0  0  0  0  0  0  0  0  0  0
   12.2653   14.5079   22.3102 N   0  0  0  0  0  0  0  0  0  0  0  0
   11.4718   13.7329   23.1118 C   0  0  0  0  0  0  0  0  0  0  0  0
   11.9180   13.2679   24.1593 O   0  0  0  0  0  0  0  0  0  0  0  0
    9.4421   11.4000   23.5899 C   0  0  0  0  0  0  0  0  0  0  0  0
    8.5550   10.6775   24.3865 C   0  0  0  0  0  0  0  0  0  0  0  0
    7.5423   11.3359   25.0888 C   0  0  0  0  0  0  0  0  0  0  0  0
    6.7688   10.5964   25.8904 F   0  0  0  0  0  0  0  0  0  0  0  0
  2  1  1  6
  2  3  1  0
  3  4  1  0
  4  5  1  6
  5  6  2  0
  5  7  1  0
  7  8  1  0
  8  9  2  0
  9 10  1  0
 10 11  1  0
 11 12  1  0
 12 13  1  0
 13 14  1  0
 14 15  2  0
 14 16  1  0
 16 17  1  0
 17 18  2  0
 10 19  2  0
 19 20  1  0
 20 21  2  0
 21 22  1  0
  4  2  1  0
 21  8  1  0
 17 11  1  0
M  END
>  <alias>  (894) 
None

>  <rmsd(smina/fragmenstein)>  (894) 
0.432

>  <smiles>  (894) 
C[C@@H]1C[C@@H]1C(=O)Nc1cc(N2CCC(=O)NC2=O)ccc1F

>  <gnina_score>  (894) 
5.465

>  <inspiration_score>  (894) 
None

>  <energy_score>  (894) 
-36.196493

>  <distance_score>  (894) 
1.25713

>  <gnina_score_min>  (894) 
5.491

>  <inchikey>  (894) 
XIPWMECVHJNQBC-SCZZXKLOSA-N

>  <exports>  (894) 
['/opt/xchem-fragalysis-2/maxwin/BulkDock/OUTPUTS/openbind_a71ev2a_c2_elabs_1LOUU54.sdf', '/opt/xchem-fragalysis-2/maxwin/BulkDock/OUTPUTS/openbind_a71ev2a_c2_elabs_1LSYIDY.sdf']

>  <name>  (894) 
P546793

>  <ref_pdb>  (894) 
A0884a

>  <subsites>  (894) 
None

>  <HIPPO Pose ID>  (894) 
546793

>  <ref_mols>  (894) 
A0884a

>  <HIPPO Compound ID>  (894) 
385367

>  <tags>  (894) 
openbind_a71ev2a_c2_elabs,syndirella_product,openbind_a71ev2a_c2_elabs_fragonly_scored_top80percent,openbind_a71ev2a_c2_elabs_scored,BulkDock Fragalysis export,openbind_a71ev2a_c2_elabs_scored_top80percent,openbind_a71ev2a_c2_elabs_activefrags_only_scored_5.2plus,syndirella_placed

>  <smina_score_min>  (894) 
-7.226

$$$$
P546797
     RDKit          3D

 22 24  0  0  0  0  0  0  0  0999 V2000
    3.3972   12.3942   28.7409 C   0  0  0  0  0  0  0  0  0  0  0  0
    4.7050   12.7920   29.3441 C   0  0  1  0  0  0  0  0  0  0  0  0
    5.6971   11.7402   29.7683 C   0  0  0  0  0  0  0  0  0  0  0  0
    6.0187   12.6600   28.6082 C   0  0  1  0  0  0  0  0  0  0  0  0
    6.1475   12.0785   27.2205 C   0  0  0  0  0  0  0  0  0  0  0  0
    5.4973   11.1666   26.9022 O   0  0  0  0  0  0  0  0  0  0  0  0
    7.2676   12.8103   26.4735 N   0  0  0  0  0  0  0  0  0  0  0  0
    7.8790   12.5266   25.2456 C   0  0  0  0  0  0  0  0  0  0  0  0
    8.0101   11.1962   24.8328 C   0  0  0  0  0  0  0  0  0  0  0  0
    8.9699   10.8932   23.8682 C   0  0  0  0  0  0  0  0  0  0  0  0
    9.4383    9.2984   23.4998 Cl  0  0  0  0  0  0  0  0  0  0  0  0
    9.6872   11.8873   23.2342 C   0  0  0  0  0  0  0  0  0  0  0  0
    9.4714   13.2147   23.5758 C   0  0  0  0  0  0  0  0  0  0  0  0
   10.2214   14.2116   22.9025 N   0  0  0  0  0  0  0  0  0  0  0  0
    9.6417   14.6172   21.6111 C   0  0  0  0  0  0  0  0  0  0  0  0
   10.5895   15.3832   20.7196 C   0  0  0  0  0  0  0  0  0  0  0  0
   11.9701   14.8227   20.8893 C   0  0  0  0  0  0  0  0  0  0  0  0
   12.6758   14.4258   19.9681 O   0  0  0  0  0  0  0  0  0  0  0  0
   12.3839   14.7834   22.1896 N   0  0  0  0  0  0  0  0  0  0  0  0
   11.5936   14.2101   23.1456 C   0  0  0  0  0  0  0  0  0  0  0  0
   12.1028   13.7108   24.1516 O   0  0  0  0  0  0  0  0  0  0  0  0
    8.5900   13.5405   24.6016 C   0  0  0  0  0  0  0  0  0  0  0  0
  2  1  1  6
  2  3  1  0
  3  4  1  0
  4  5  1  6
  5  6  2  0
  5  7  1  0
  7  8  1  0
  8  9  2  0
  9 10  1  0
 10 11  1  0
 10 12  2  0
 12 13  1  0
 13 14  1  0
 14 15  1  0
 15 16  1  0
 16 17  1  0
 17 18  2  0
 17 19  1  0
 19 20  1  0
 20 21  2  0
 13 22  2  0
  4  2  1  0
 22  8  1  0
 20 14  1  0
M  END
>  <alias>  (895) 
None

>  <rmsd(smina/fragmenstein)>  (895) 
0.405

>  <smiles>  (895) 
C[C@H]1C[C@H]1C(=O)Nc1cc(Cl)cc(N2CCC(=O)NC2=O)c1

>  <gnina_score>  (895) 
5.548

>  <inspiration_score>  (895) 
None

>  <energy_score>  (895) 
-4.337613

>  <distance_score>  (895) 
1.158136

>  <gnina_score_min>  (895) 
5.678

>  <inchikey>  (895) 
QBJGICSUQMZMOO-QPUJVOFHSA-N

>  <exports>  (895) 
['/opt/xchem-fragalysis-2/maxwin/BulkDock/OUTPUTS/openbind_a71ev2a_c2_elabs_1LOUU54.sdf', '/opt/xchem-fragalysis-2/maxwin/BulkDock/OUTPUTS/openbind_a71ev2a_c2_elabs_1LSYIDY.sdf']

>  <name>  (895) 
P546797

>  <ref_pdb>  (895) 
A0884a

>  <subsites>  (895) 
None

>  <HIPPO Pose ID>  (895) 
546797

>  <ref_mols>  (895) 
A0884a

>  <HIPPO Compound ID>  (895) 
385368

>  <tags>  (895) 
openbind_a71ev2a_c2_elabs,syndirella_product,openbind_a71ev2a_c2_elabs_fragonly_scored_top80percent,BulkDock Fragalysis export,openbind_a71ev2a_c2_elabs_scored,openbind_a71ev2a_c2_elabs_scored_top80percent,openbind_a71ev2a_c2_elabs_activefrags_only_scored_5.2plus,openbind_a71ev2a_c2_elabs_activefrags_only_scored_5.5plus,syndirella_placed

>  <smina_score_min>  (895) 
-7.187

$$$$
P546799
     RDKit          3D

 22 24  0  0  0  0  0  0  0  0999 V2000
    9.1279    9.5392   23.8736 C   0  0  0  0  0  0  0  0  0  0  0  0
    8.8391   10.9749   24.1034 C   0  0  0  0  0  0  0  0  0  0  0  0
    7.7414   11.4093   24.8557 C   0  0  0  0  0  0  0  0  0  0  0  0
    7.4471   12.7702   24.9323 C   0  0  0  0  0  0  0  0  0  0  0  0
    6.3550   13.2470   25.6493 N   0  0  0  0  0  0  0  0  0  0  0  0
    5.4422   12.5413   26.6675 C   0  0  0  0  0  0  0  0  0  0  0  0
    5.4116   11.4281   27.0104 O   0  0  0  0  0  0  0  0  0  0  0  0
    4.4707   13.5254   27.2286 C   0  0  1  0  0  0  0  0  0  0  0  0
    4.1082   13.4896   28.6974 C   0  0  0  0  0  0  0  0  0  0  0  0
    4.9138   14.6386   28.1594 C   0  0  1  0  0  0  0  0  0  0  0  0
    6.3323   14.8077   28.5907 C   0  0  0  0  0  0  0  0  0  0  0  0
    8.2484   13.6922   24.2593 C   0  0  0  0  0  0  0  0  0  0  0  0
    9.3747   13.2544   23.5677 C   0  0  0  0  0  0  0  0  0  0  0  0
   10.1966   14.1744   22.8763 N   0  0  0  0  0  0  0  0  0  0  0  0
    9.6720   14.5759   21.5708 C   0  0  0  0  0  0  0  0  0  0  0  0
   10.6378   15.3585   20.7288 C   0  0  0  0  0  0  0  0  0  0  0  0
   11.9976   14.7581   20.9007 C   0  0  0  0  0  0  0  0  0  0  0  0
   12.6993   14.3758   19.9707 O   0  0  0  0  0  0  0  0  0  0  0  0
   12.3846   14.6866   22.2069 N   0  0  0  0  0  0  0  0  0  0  0  0
   11.5594   14.1526   23.1516 C   0  0  0  0  0  0  0  0  0  0  0  0
   12.0376   13.6661   24.1778 O   0  0  0  0  0  0  0  0  0  0  0  0
    9.6635   11.8996   23.4809 C   0  0  0  0  0  0  0  0  0  0  0  0
  1  2  1  0
  2  3  2  0
  3  4  1  0
  4  5  1  0
  5  6  1  0
  6  7  2  0
  8  6  1  1
  8  9  1  0
  9 10  1  0
 10 11  1  1
  4 12  2  0
 12 13  1  0
 13 14  1  0
 14 15  1  0
 15 16  1  0
 16 17  1  0
 17 18  2  0
 17 19  1  0
 19 20  1  0
 20 21  2  0
 13 22  2  0
 22  2  1  0
 10  8  1  0
 20 14  1  0
M  END
>  <alias>  (896) 
None

>  <rmsd(smina/fragmenstein)>  (896) 
0.926

>  <smiles>  (896) 
Cc1cc(NC(=O)[C@H]2C[C@H]2C)cc(N2CCC(=O)NC2=O)c1

>  <gnina_score>  (896) 
5.417

>  <inspiration_score>  (896) 
None

>  <energy_score>  (896) 
-33.623681

>  <distance_score>  (896) 
1.304153

>  <gnina_score_min>  (896) 
5.608

>  <inchikey>  (896) 
NLZXZSIPCGYFMW-MFKMUULPSA-N

>  <exports>  (896) 
['/opt/xchem-fragalysis-2/maxwin/BulkDock/OUTPUTS/openbind_a71ev2a_c2_elabs_1LOUU54.sdf', '/opt/xchem-fragalysis-2/maxwin/BulkDock/OUTPUTS/openbind_a71ev2a_c2_elabs_1LSYIDY.sdf']

>  <name>  (896) 
P546799

>  <ref_pdb>  (896) 
A0884a

>  <subsites>  (896) 
None

>  <HIPPO Pose ID>  (896) 
546799

>  <ref_mols>  (896) 
A0884a

>  <HIPPO Compound ID>  (896) 
385369

>  <tags>  (896) 
openbind_a71ev2a_c2_elabs,syndirella_product,openbind_a71ev2a_c2_elabs_fragonly_scored_top80percent,BulkDock Fragalysis export,openbind_a71ev2a_c2_elabs_scored,openbind_a71ev2a_c2_elabs_scored_top80percent,openbind_a71ev2a_c2_elabs_activefrags_only_scored_5.2plus,openbind_a71ev2a_c2_elabs_activefrags_only_scored_5.5plus,syndirella_placed

>  <smina_score_min>  (896) 
-7.135

$$$$
P546802
     RDKit          3D

 22 24  0  0  0  0  0  0  0  0999 V2000
    9.9156    9.5925   22.8906 C   0  0  0  0  0  0  0  0  0  0  0  0
    9.1432   10.5910   23.6903 C   0  0  0  0  0  0  0  0  0  0  0  0
    8.1694   10.1165   24.5631 C   0  0  0  0  0  0  0  0  0  0  0  0
    7.4301   10.9663   25.3876 C   0  0  0  0  0  0  0  0  0  0  0  0
    7.6621   12.3397   25.4031 C   0  0  0  0  0  0  0  0  0  0  0  0
    6.9604   13.2106   26.3087 N   0  0  0  0  0  0  0  0  0  0  0  0
    7.3944   14.5958   26.4923 C   0  0  0  0  0  0  0  0  0  0  0  0
    7.3716   14.9771   27.9582 C   0  0  0  0  0  0  0  0  0  0  0  0
    6.0230   14.6772   28.5310 C   0  0  0  0  0  0  0  0  0  0  0  0
    5.6234   15.1836   29.5756 O   0  0  0  0  0  0  0  0  0  0  0  0
    5.2977   13.7232   27.8765 N   0  0  0  0  0  0  0  0  0  0  0  0
    5.7591   12.8510   26.9269 C   0  0  0  0  0  0  0  0  0  0  0  0
    5.0882   11.8416   26.7425 O   0  0  0  0  0  0  0  0  0  0  0  0
    8.6622   12.8103   24.5416 C   0  0  0  0  0  0  0  0  0  0  0  0
    9.3979   11.9543   23.7023 C   0  0  0  0  0  0  0  0  0  0  0  0
   10.3707   12.5133   22.8883 N   0  0  0  0  0  0  0  0  0  0  0  0
   11.1840   13.7976   23.0503 C   0  0  0  0  0  0  0  0  0  0  0  0
   11.2268   14.5574   23.9298 O   0  0  0  0  0  0  0  0  0  0  0  0
   11.9279   14.0664   21.7900 C   0  0  2  0  0  0  0  0  0  0  0  0
   12.4988   15.4336   21.5736 C   0  0  0  0  0  0  0  0  0  0  0  0
   11.3220   15.0004   20.7538 C   0  0  1  0  0  0  0  0  0  0  0  0
   11.5170   14.8105   19.2918 C   0  0  0  0  0  0  0  0  0  0  0  0
  1  2  1  0
  2  3  2  0
  3  4  1  0
  4  5  2  0
  5  6  1  0
  6  7  1  0
  7  8  1  0
  8  9  1  0
  9 10  2  0
  9 11  1  0
 11 12  1  0
 12 13  2  0
  5 14  1  0
 14 15  2  0
 15 16  1  0
 16 17  1  0
 17 18  2  0
 19 17  1  1
 19 20  1  0
 20 21  1  0
 21 22  1  6
 15  2  1  0
 21 19  1  0
 12  6  1  0
M  END
>  <alias>  (897) 
None

>  <rmsd(smina/fragmenstein)>  (897) 
0.983

>  <smiles>  (897) 
Cc1ccc(N2CCC(=O)NC2=O)cc1NC(=O)[C@@H]1C[C@H]1C

>  <gnina_score>  (897) 
5.453

>  <inspiration_score>  (897) 
None

>  <energy_score>  (897) 
-43.51093

>  <distance_score>  (897) 
1.302215

>  <gnina_score_min>  (897) 
5.208

>  <inchikey>  (897) 
HFPYITPTZUUZGT-ZYHUDNBSSA-N

>  <exports>  (897) 
['/opt/xchem-fragalysis-2/maxwin/BulkDock/OUTPUTS/openbind_a71ev2a_c2_elabs_1LOUU54.sdf', '/opt/xchem-fragalysis-2/maxwin/BulkDock/OUTPUTS/openbind_a71ev2a_c2_elabs_1LSYIDY.sdf']

>  <name>  (897) 
P546802

>  <ref_pdb>  (897) 
A0884a

>  <subsites>  (897) 
None

>  <HIPPO Pose ID>  (897) 
546802

>  <ref_mols>  (897) 
A0884a

>  <HIPPO Compound ID>  (897) 
385370

>  <tags>  (897) 
openbind_a71ev2a_c2_elabs,syndirella_product,openbind_a71ev2a_c2_elabs_fragonly_scored_top80percent,openbind_a71ev2a_c2_elabs_scored,BulkDock Fragalysis export,openbind_a71ev2a_c2_elabs_scored_top80percent,openbind_a71ev2a_c2_elabs_activefrags_only_scored_5.2plus,syndirella_placed

>  <smina_score_min>  (897) 
-7.022

$$$$
P546805
     RDKit          3D

 22 24  0  0  0  0  0  0  0  0999 V2000
    7.6781   14.6833   24.5837 C   0  0  0  0  0  0  0  0  0  0  0  0
    8.0954   13.2449   24.4259 C   0  0  0  0  0  0  0  0  0  0  0  0
    7.4308   12.2224   25.1452 C   0  0  0  0  0  0  0  0  0  0  0  0
    6.4234   12.5575   26.0583 N   0  0  0  0  0  0  0  0  0  0  0  0
    5.6401   11.6796   27.0485 C   0  0  0  0  0  0  0  0  0  0  0  0
    5.6530   10.5264   27.2090 O   0  0  0  0  0  0  0  0  0  0  0  0
    4.7145   12.5306   27.8526 C   0  0  2  0  0  0  0  0  0  0  0  0
    5.2536   13.6522   28.7156 C   0  0  0  0  0  0  0  0  0  0  0  0
    4.7085   12.4097   29.3618 C   0  0  1  0  0  0  0  0  0  0  0  0
    3.4213   12.4511   30.1110 C   0  0  0  0  0  0  0  0  0  0  0  0
    7.8029   10.8867   24.9718 C   0  0  0  0  0  0  0  0  0  0  0  0
    8.8554   10.5484   24.1260 C   0  0  0  0  0  0  0  0  0  0  0  0
    9.5735   11.5515   23.4860 C   0  0  0  0  0  0  0  0  0  0  0  0
    9.2175   12.8997   23.6412 C   0  0  0  0  0  0  0  0  0  0  0  0
   10.0328   13.8992   23.0118 N   0  0  0  0  0  0  0  0  0  0  0  0
    9.5950   14.3213   21.6795 C   0  0  0  0  0  0  0  0  0  0  0  0
   10.5358   15.2521   20.9623 C   0  0  0  0  0  0  0  0  0  0  0  0
   11.9184   14.7221   21.1549 C   0  0  0  0  0  0  0  0  0  0  0  0
   12.6902   14.4809   20.2327 O   0  0  0  0  0  0  0  0  0  0  0  0
   12.2390   14.5195   22.4665 N   0  0  0  0  0  0  0  0  0  0  0  0
   11.3828   13.9379   23.3602 C   0  0  0  0  0  0  0  0  0  0  0  0
   11.8301   13.4709   24.4088 O   0  0  0  0  0  0  0  0  0  0  0  0
  1  2  1  0
  2  3  2  0
  3  4  1  0
  4  5  1  0
  5  6  2  0
  7  5  1  6
  7  8  1  0
  8  9  1  0
  9 10  1  1
  3 11  1  0
 11 12  2  0
 12 13  1  0
 13 14  2  0
 14 15  1  0
 15 16  1  0
 16 17  1  0
 17 18  1  0
 18 19  2  0
 18 20  1  0
 20 21  1  0
 21 22  2  0
 14  2  1  0
 21 15  1  0
  9  7  1  0
M  END
>  <alias>  (898) 
None

>  <rmsd(smina/fragmenstein)>  (898) 
0.501

>  <smiles>  (898) 
Cc1c(NC(=O)[C@@H]2C[C@H]2C)cccc1N1CCC(=O)NC1=O

>  <gnina_score>  (898) 
5.368

>  <inspiration_score>  (898) 
None

>  <energy_score>  (898) 
-43.143872

>  <distance_score>  (898) 
1.164705

>  <gnina_score_min>  (898) 
5.318

>  <inchikey>  (898) 
BOCXJFUOMHETER-MWLCHTKSSA-N

>  <exports>  (898) 
['/opt/xchem-fragalysis-2/maxwin/BulkDock/OUTPUTS/openbind_a71ev2a_c2_elabs_1LOUU54.sdf', '/opt/xchem-fragalysis-2/maxwin/BulkDock/OUTPUTS/openbind_a71ev2a_c2_elabs_1LSYIDY.sdf']

>  <name>  (898) 
P546805

>  <ref_pdb>  (898) 
A0884a

>  <subsites>  (898) 
None

>  <HIPPO Pose ID>  (898) 
546805

>  <ref_mols>  (898) 
A0884a

>  <HIPPO Compound ID>  (898) 
385371

>  <tags>  (898) 
openbind_a71ev2a_c2_elabs,syndirella_product,openbind_a71ev2a_c2_elabs_fragonly_scored_top80percent,openbind_a71ev2a_c2_elabs_scored,BulkDock Fragalysis export,openbind_a71ev2a_c2_elabs_scored_top80percent,openbind_a71ev2a_c2_elabs_activefrags_only_scored_5.2plus,syndirella_placed

>  <smina_score_min>  (898) 
-7.212

$$$$
P546807
     RDKit          3D

 22 23  0  0  0  0  0  0  0  0999 V2000
    3.2744   14.8178   25.8167 C   0  0  0  0  0  0  0  0  0  0  0  0
    4.2079   14.5689   26.9969 C   0  0  0  0  0  0  0  0  0  0  0  0
    3.4363   14.5227   28.3083 C   0  0  0  0  0  0  0  0  0  0  0  0
    5.0739   15.6300   27.0607 F   0  0  0  0  0  0  0  0  0  0  0  0
    4.9803   13.2526   26.7653 C   0  0  0  0  0  0  0  0  0  0  0  0
    4.6207   12.2039   27.1470 O   0  0  0  0  0  0  0  0  0  0  0  0
    6.2109   13.6416   25.8802 N   0  0  0  0  0  0  0  0  0  0  0  0
    7.1499   12.8407   25.2369 C   0  0  0  0  0  0  0  0  0  0  0  0
    7.1667   11.4608   25.4093 C   0  0  0  0  0  0  0  0  0  0  0  0
    8.1041   10.6932   24.7271 C   0  0  0  0  0  0  0  0  0  0  0  0
    9.0353   11.2984   23.8807 C   0  0  0  0  0  0  0  0  0  0  0  0
   10.0257   10.2258   22.9929 Cl  0  0  0  0  0  0  0  0  0  0  0  0
    9.0471   12.6922   23.7059 C   0  0  0  0  0  0  0  0  0  0  0  0
    9.9901   13.3545   22.8478 N   0  0  0  0  0  0  0  0  0  0  0  0
    9.4732   14.3340   21.9003 C   0  0  0  0  0  0  0  0  0  0  0  0
   10.4616   14.7982   20.8522 C   0  0  0  0  0  0  0  0  0  0  0  0
   11.8805   14.5177   21.2271 C   0  0  0  0  0  0  0  0  0  0  0  0
   12.7800   14.4990   20.3899 O   0  0  0  0  0  0  0  0  0  0  0  0
   12.1106   14.3071   22.5527 N   0  0  0  0  0  0  0  0  0  0  0  0
   11.2765   13.5651   23.3462 C   0  0  0  0  0  0  0  0  0  0  0  0
   11.6850   13.1397   24.4250 O   0  0  0  0  0  0  0  0  0  0  0  0
    8.0851   13.4507   24.3917 C   0  0  0  0  0  0  0  0  0  0  0  0
  1  2  1  0
  2  3  1  0
  2  4  1  0
  2  5  1  0
  5  6  2  0
  5  7  1  0
  7  8  1  0
  8  9  2  0
  9 10  1  0
 10 11  2  0
 11 12  1  0
 11 13  1  0
 13 14  1  0
 14 15  1  0
 15 16  1  0
 16 17  1  0
 17 18  2  0
 17 19  1  0
 19 20  1  0
 20 21  2  0
 13 22  2  0
 22  8  1  0
 20 14  1  0
M  END
>  <alias>  (899) 
None

>  <rmsd(smina/fragmenstein)>  (899) 
0.941

>  <smiles>  (899) 
CC(C)(F)C(=O)Nc1ccc(Cl)c(N2CCC(=O)NC2=O)c1

>  <gnina_score>  (899) 
5.632

>  <inspiration_score>  (899) 
None

>  <energy_score>  (899) 
-37.208645

>  <distance_score>  (899) 
1.457143

>  <gnina_score_min>  (899) 
5.516

>  <inchikey>  (899) 
YLXAFQDOEFUKAK-UHFFFAOYSA-N

>  <exports>  (899) 
['/opt/xchem-fragalysis-2/maxwin/BulkDock/OUTPUTS/openbind_a71ev2a_c2_elabs_1LOUU54.sdf', '/opt/xchem-fragalysis-2/maxwin/BulkDock/OUTPUTS/openbind_a71ev2a_c2_elabs_1LSYIDY.sdf']

>  <name>  (899) 
P546807

>  <ref_pdb>  (899) 
A0884a

>  <subsites>  (899) 
None

>  <HIPPO Pose ID>  (899) 
546807

>  <ref_mols>  (899) 
A0884a

>  <HIPPO Compound ID>  (899) 
385373

>  <tags>  (899) 
openbind_a71ev2a_c2_elabs,syndirella_product,openbind_a71ev2a_c2_elabs_fragonly_scored_top80percent,BulkDock Fragalysis export,openbind_a71ev2a_c2_elabs_scored,openbind_a71ev2a_c2_elabs_scored_top80percent,openbind_a71ev2a_c2_elabs_activefrags_only_scored_5.2plus,openbind_a71ev2a_c2_elabs_activefrags_only_scored_5.5plus,syndirella_placed

>  <smina_score_min>  (899) 
-6.99

$$$$
P546808
     RDKit          3D

 22 24  0  0  0  0  0  0  0  0999 V2000
    8.1350   14.5582   24.6407 C   0  0  0  0  0  0  0  0  0  0  0  0
    8.2776   13.0654   24.6131 C   0  0  0  0  0  0  0  0  0  0  0  0
    7.3705   12.2433   25.3216 C   0  0  0  0  0  0  0  0  0  0  0  0
    6.3905   12.8197   26.1360 N   0  0  0  0  0  0  0  0  0  0  0  0
    5.3750   12.1666   27.0993 C   0  0  0  0  0  0  0  0  0  0  0  0
    5.1451   11.0416   27.3067 O   0  0  0  0  0  0  0  0  0  0  0  0
    4.6191   13.2531   27.7938 C   0  0  0  0  0  0  0  0  0  0  0  0
    4.5112   14.5804   27.5954 C   0  0  0  0  0  0  0  0  0  0  0  0
    3.5433   14.7566   28.7483 C   0  0  0  0  0  0  0  0  0  0  0  0
    3.6225   13.2260   28.9234 C   0  0  0  0  0  0  0  0  0  0  0  0
    7.4629   10.8556   25.2143 C   0  0  0  0  0  0  0  0  0  0  0  0
    8.4338   10.2781   24.4026 C   0  0  0  0  0  0  0  0  0  0  0  0
    9.3517   11.0767   23.7472 C   0  0  0  0  0  0  0  0  0  0  0  0
   10.2990   10.4847   23.0144 F   0  0  0  0  0  0  0  0  0  0  0  0
    9.3267   12.4634   23.8829 C   0  0  0  0  0  0  0  0  0  0  0  0
   10.4269   13.1671   23.3547 N   0  0  0  0  0  0  0  0  0  0  0  0
   11.3482   13.8338   24.1115 C   0  0  0  0  0  0  0  0  0  0  0  0
   11.4208   13.9000   25.3323 O   0  0  0  0  0  0  0  0  0  0  0  0
   12.2779   14.5800   23.1766 C   0  0  0  0  0  0  0  0  0  0  0  0
   11.6422   14.3769   21.9310 N   0  0  0  0  0  0  0  0  0  0  0  0
   10.4419   13.7458   22.1247 C   0  0  0  0  0  0  0  0  0  0  0  0
    9.5219   13.8745   21.3403 O   0  0  0  0  0  0  0  0  0  0  0  0
  1  2  1  0
  2  3  2  0
  3  4  1  0
  4  5  1  0
  5  6  2  0
  5  7  1  0
  7  8  2  0
  8  9  1  0
  9 10  1  0
  3 11  1  0
 11 12  2  0
 12 13  1  0
 13 14  1  0
 13 15  2  0
 15 16  1  0
 16 17  1  0
 17 18  2  0
 17 19  1  0
 19 20  1  0
 20 21  1  0
 21 22  2  0
 15  2  1  0
 21 16  1  0
 10  7  1  0
M  END
>  <alias>  (900) 
None

>  <rmsd(smina/fragmenstein)>  (900) 
0.516

>  <smiles>  (900) 
Cc1c(NC(=O)C2=CCC2)ccc(F)c1N1C(=O)CNC1=O

>  <gnina_score>  (900) 
5.53

>  <inspiration_score>  (900) 
None

>  <energy_score>  (900) 
-18.945103

>  <distance_score>  (900) 
1.556115

>  <gnina_score_min>  (900) 
5.496

>  <inchikey>  (900) 
RZGUXZCCQSZDJB-UHFFFAOYSA-N

>  <exports>  (900) 
['/opt/xchem-fragalysis-2/maxwin/BulkDock/OUTPUTS/openbind_a71ev2a_c2_elabs_1LOUU54.sdf', '/opt/xchem-fragalysis-2/maxwin/BulkDock/OUTPUTS/openbind_a71ev2a_c2_elabs_1LSYIDY.sdf']

>  <name>  (900) 
P546808

>  <ref_pdb>  (900) 
A0884a

>  <subsites>  (900) 
None

>  <HIPPO Pose ID>  (900) 
546808

>  <ref_mols>  (900) 
A0884a

>  <HIPPO Compound ID>  (900) 
385375

>  <tags>  (900) 
openbind_a71ev2a_c2_elabs,syndirella_product,openbind_a71ev2a_c2_elabs_fragonly_scored_top80percent,openbind_a71ev2a_c2_elabs_scored,BulkDock Fragalysis export,openbind_a71ev2a_c2_elabs_scored_top80percent,openbind_a71ev2a_c2_elabs_activefrags_only_scored_5.2plus,syndirella_placed

>  <smina_score_min>  (900) 
-6.421

$$$$
P546809
     RDKit          3D

 22 23  0  0  0  0  0  0  0  0999 V2000
    9.9579   10.3349   23.0681 C   0  0  0  0  0  0  0  0  0  0  0  0
    9.0578   11.2622   23.8191 C   0  0  0  0  0  0  0  0  0  0  0  0
    8.1342   10.6592   24.6868 C   0  0  0  0  0  0  0  0  0  0  0  0
    7.1768   11.4140   25.3567 C   0  0  0  0  0  0  0  0  0  0  0  0
    7.1200   12.7864   25.1529 C   0  0  0  0  0  0  0  0  0  0  0  0
    6.1296   13.5723   25.7335 N   0  0  0  0  0  0  0  0  0  0  0  0
    4.9845   13.1911   26.7321 C   0  0  0  0  0  0  0  0  0  0  0  0
    4.6597   12.1446   27.1522 O   0  0  0  0  0  0  0  0  0  0  0  0
    4.2083   14.4928   27.0969 C   0  0  0  0  0  0  0  0  0  0  0  0
    5.1088   15.5162   27.7813 C   0  0  0  0  0  0  0  0  0  0  0  0
    3.5050   15.0792   25.8770 C   0  0  0  0  0  0  0  0  0  0  0  0
    3.2132   14.2017   28.0032 F   0  0  0  0  0  0  0  0  0  0  0  0
    8.0541   13.4039   24.3166 C   0  0  0  0  0  0  0  0  0  0  0  0
    9.0460   12.6603   23.6586 C   0  0  0  0  0  0  0  0  0  0  0  0
    9.9918   13.3402   22.8214 N   0  0  0  0  0  0  0  0  0  0  0  0
    9.4766   14.3349   21.8875 C   0  0  0  0  0  0  0  0  0  0  0  0
   10.4619   14.7973   20.8370 C   0  0  0  0  0  0  0  0  0  0  0  0
   11.8805   14.5482   21.2305 C   0  0  0  0  0  0  0  0  0  0  0  0
   12.7909   14.5566   20.4061 O   0  0  0  0  0  0  0  0  0  0  0  0
   12.1009   14.3277   22.5554 N   0  0  0  0  0  0  0  0  0  0  0  0
   11.2754   13.5553   23.3298 C   0  0  0  0  0  0  0  0  0  0  0  0
   11.6956   13.1079   24.3952 O   0  0  0  0  0  0  0  0  0  0  0  0
  1  2  1  0
  2  3  2  0
  3  4  1  0
  4  5  2  0
  5  6  1  0
  6  7  1  0
  7  8  2  0
  7  9  1  0
  9 10  1  0
  9 11  1  0
  9 12  1  0
  5 13  1  0
 13 14  2  0
 14 15  1  0
 15 16  1  0
 16 17  1  0
 17 18  1  0
 18 19  2  0
 18 20  1  0
 20 21  1  0
 21 22  2  0
 14  2  1  0
 21 15  1  0
M  END
>  <alias>  (901) 
None

>  <rmsd(smina/fragmenstein)>  (901) 
0.562

>  <smiles>  (901) 
Cc1ccc(NC(=O)C(C)(C)F)cc1N1CCC(=O)NC1=O

>  <gnina_score>  (901) 
5.46

>  <inspiration_score>  (901) 
None

>  <energy_score>  (901) 
-37.925302

>  <distance_score>  (901) 
1.429852

>  <gnina_score_min>  (901) 
5.402

>  <inchikey>  (901) 
ZMTUPAAINUHXDT-UHFFFAOYSA-N

>  <exports>  (901) 
['/opt/xchem-fragalysis-2/maxwin/BulkDock/OUTPUTS/openbind_a71ev2a_c2_elabs_1LOUU54.sdf', '/opt/xchem-fragalysis-2/maxwin/BulkDock/OUTPUTS/openbind_a71ev2a_c2_elabs_1LSYIDY.sdf']

>  <name>  (901) 
P546809

>  <ref_pdb>  (901) 
A0884a

>  <subsites>  (901) 
None

>  <HIPPO Pose ID>  (901) 
546809

>  <ref_mols>  (901) 
A0884a

>  <HIPPO Compound ID>  (901) 
385376

>  <tags>  (901) 
openbind_a71ev2a_c2_elabs,syndirella_product,openbind_a71ev2a_c2_elabs_fragonly_scored_top80percent,openbind_a71ev2a_c2_elabs_scored,BulkDock Fragalysis export,openbind_a71ev2a_c2_elabs_scored_top80percent,openbind_a71ev2a_c2_elabs_activefrags_only_scored_5.2plus,syndirella_placed

>  <smina_score_min>  (901) 
-6.931

$$$$
P546810
     RDKit          3D

 22 23  0  0  0  0  0  0  0  0999 V2000
    3.6930   14.1275   28.0461 C   0  0  0  0  0  0  0  0  0  0  0  0
    5.1904   13.8656   28.1109 C   0  0  0  0  0  0  0  0  0  0  0  0
    5.6159   13.3571   29.4824 C   0  0  0  0  0  0  0  0  0  0  0  0
    5.8289   15.0700   27.9052 F   0  0  0  0  0  0  0  0  0  0  0  0
    5.5916   12.8410   27.0299 C   0  0  0  0  0  0  0  0  0  0  0  0
    5.0098   11.8444   26.8227 O   0  0  0  0  0  0  0  0  0  0  0  0
    6.9175   13.3801   26.4158 N   0  0  0  0  0  0  0  0  0  0  0  0
    7.7129   12.8710   25.3999 C   0  0  0  0  0  0  0  0  0  0  0  0
    7.7523   11.5098   25.1118 C   0  0  0  0  0  0  0  0  0  0  0  0
    8.6992   11.0459   24.2006 C   0  0  0  0  0  0  0  0  0  0  0  0
    8.9200    9.3924   23.9304 Cl  0  0  0  0  0  0  0  0  0  0  0  0
    9.5313   11.9045   23.5047 C   0  0  0  0  0  0  0  0  0  0  0  0
    9.4378   13.2643   23.7470 C   0  0  0  0  0  0  0  0  0  0  0  0
   10.2490   14.1577   23.0124 N   0  0  0  0  0  0  0  0  0  0  0  0
    9.7377   14.4902   21.6776 C   0  0  0  0  0  0  0  0  0  0  0  0
   10.6764   15.3402   20.8701 C   0  0  0  0  0  0  0  0  0  0  0  0
   12.0440   14.7525   21.0206 C   0  0  0  0  0  0  0  0  0  0  0  0
   12.7248   14.3626   20.0756 O   0  0  0  0  0  0  0  0  0  0  0  0
   12.4363   14.6584   22.3274 N   0  0  0  0  0  0  0  0  0  0  0  0
   11.6144   14.1242   23.2789 C   0  0  0  0  0  0  0  0  0  0  0  0
   12.0894   13.6371   24.3057 O   0  0  0  0  0  0  0  0  0  0  0  0
    8.5543   13.7495   24.7118 C   0  0  0  0  0  0  0  0  0  0  0  0
  1  2  1  0
  2  3  1  0
  2  4  1  0
  2  5  1  0
  5  6  2  0
  5  7  1  0
  7  8  1  0
  8  9  2  0
  9 10  1  0
 10 11  1  0
 10 12  2  0
 12 13  1  0
 13 14  1  0
 14 15  1  0
 15 16  1  0
 16 17  1  0
 17 18  2  0
 17 19  1  0
 19 20  1  0
 20 21  2  0
 13 22  2  0
 22  8  1  0
 20 14  1  0
M  END
>  <alias>  (902) 
None

>  <rmsd(smina/fragmenstein)>  (902) 
0.39

>  <smiles>  (902) 
CC(C)(F)C(=O)Nc1cc(Cl)cc(N2CCC(=O)NC2=O)c1

>  <gnina_score>  (902) 
5.223

>  <inspiration_score>  (902) 
None

>  <energy_score>  (902) 
-43.480385

>  <distance_score>  (902) 
1.296412

>  <gnina_score_min>  (902) 
5.33

>  <inchikey>  (902) 
KGPFRLRKHFUYMH-UHFFFAOYSA-N

>  <exports>  (902) 
['/opt/xchem-fragalysis-2/maxwin/BulkDock/OUTPUTS/openbind_a71ev2a_c2_elabs_1LOUU54.sdf', '/opt/xchem-fragalysis-2/maxwin/BulkDock/OUTPUTS/openbind_a71ev2a_c2_elabs_1LSYIDY.sdf']

>  <name>  (902) 
P546810

>  <ref_pdb>  (902) 
A0884a

>  <subsites>  (902) 
None

>  <HIPPO Pose ID>  (902) 
546810

>  <ref_mols>  (902) 
A0884a

>  <HIPPO Compound ID>  (902) 
385378

>  <tags>  (902) 
openbind_a71ev2a_c2_elabs,syndirella_product,openbind_a71ev2a_c2_elabs_fragonly_scored_top80percent,openbind_a71ev2a_c2_elabs_scored,BulkDock Fragalysis export,openbind_a71ev2a_c2_elabs_scored_top80percent,openbind_a71ev2a_c2_elabs_activefrags_only_scored_5.2plus,syndirella_placed

>  <smina_score_min>  (902) 
-6.581

$$$$
P546811
     RDKit          3D

 22 23  0  0  0  0  0  0  0  0999 V2000
    9.0651    9.5632   23.8967 C   0  0  0  0  0  0  0  0  0  0  0  0
    8.8026   11.0048   24.1253 C   0  0  0  0  0  0  0  0  0  0  0  0
    7.7552   11.4598   24.9378 C   0  0  0  0  0  0  0  0  0  0  0  0
    7.5082   12.8278   25.0520 C   0  0  0  0  0  0  0  0  0  0  0  0
    6.5173   13.3395   25.8857 N   0  0  0  0  0  0  0  0  0  0  0  0
    5.4923   12.6075   26.8103 C   0  0  0  0  0  0  0  0  0  0  0  0
    5.3797   11.4699   27.0672 O   0  0  0  0  0  0  0  0  0  0  0  0
    4.6539   13.7316   27.4568 C   0  0  0  0  0  0  0  0  0  0  0  0
    3.2234   13.2822   27.7122 C   0  0  0  0  0  0  0  0  0  0  0  0
    5.3355   14.1620   28.7521 C   0  0  0  0  0  0  0  0  0  0  0  0
    4.6084   14.8367   26.6460 F   0  0  0  0  0  0  0  0  0  0  0  0
    8.2928   13.7345   24.3376 C   0  0  0  0  0  0  0  0  0  0  0  0
    9.3622   13.2755   23.5726 C   0  0  0  0  0  0  0  0  0  0  0  0
   10.1787   14.1873   22.8622 N   0  0  0  0  0  0  0  0  0  0  0  0
    9.6521   14.5652   21.5489 C   0  0  0  0  0  0  0  0  0  0  0  0
   10.6078   15.3589   20.7033 C   0  0  0  0  0  0  0  0  0  0  0  0
   11.9743   14.7723   20.8732 C   0  0  0  0  0  0  0  0  0  0  0  0
   12.6901   14.4095   19.9459 O   0  0  0  0  0  0  0  0  0  0  0  0
   12.3640   14.6915   22.1792 N   0  0  0  0  0  0  0  0  0  0  0  0
   11.5410   14.1688   23.1323 C   0  0  0  0  0  0  0  0  0  0  0  0
   12.0245   13.7061   24.1672 O   0  0  0  0  0  0  0  0  0  0  0  0
    9.6152   11.9148   23.4630 C   0  0  0  0  0  0  0  0  0  0  0  0
  1  2  1  0
  2  3  2  0
  3  4  1  0
  4  5  1  0
  5  6  1  0
  6  7  2  0
  6  8  1  0
  8  9  1  0
  8 10  1  0
  8 11  1  0
  4 12  2  0
 12 13  1  0
 13 14  1  0
 14 15  1  0
 15 16  1  0
 16 17  1  0
 17 18  2  0
 17 19  1  0
 19 20  1  0
 20 21  2  0
 13 22  2  0
 22  2  1  0
 20 14  1  0
M  END
>  <alias>  (903) 
None

>  <rmsd(smina/fragmenstein)>  (903) 
0.778

>  <smiles>  (903) 
Cc1cc(NC(=O)C(C)(C)F)cc(N2CCC(=O)NC2=O)c1

>  <gnina_score>  (903) 
5.366

>  <inspiration_score>  (903) 
None

>  <energy_score>  (903) 
-26.532999

>  <distance_score>  (903) 
1.319827

>  <gnina_score_min>  (903) 
5.521

>  <inchikey>  (903) 
HWENZERWNHONPQ-UHFFFAOYSA-N

>  <exports>  (903) 
['/opt/xchem-fragalysis-2/maxwin/BulkDock/OUTPUTS/openbind_a71ev2a_c2_elabs_1LOUU54.sdf', '/opt/xchem-fragalysis-2/maxwin/BulkDock/OUTPUTS/openbind_a71ev2a_c2_elabs_1LSYIDY.sdf']

>  <name>  (903) 
P546811

>  <ref_pdb>  (903) 
A0884a

>  <subsites>  (903) 
None

>  <HIPPO Pose ID>  (903) 
546811

>  <ref_mols>  (903) 
A0884a

>  <HIPPO Compound ID>  (903) 
385379

>  <tags>  (903) 
openbind_a71ev2a_c2_elabs,syndirella_product,openbind_a71ev2a_c2_elabs_fragonly_scored_top80percent,BulkDock Fragalysis export,openbind_a71ev2a_c2_elabs_scored,openbind_a71ev2a_c2_elabs_scored_top80percent,openbind_a71ev2a_c2_elabs_activefrags_only_scored_5.2plus,openbind_a71ev2a_c2_elabs_activefrags_only_scored_5.5plus,syndirella_placed

>  <smina_score_min>  (903) 
-6.992

$$$$
P546812
     RDKit          3D

 22 23  0  0  0  0  0  0  0  0999 V2000
    7.8301   14.7083   24.7768 C   0  0  0  0  0  0  0  0  0  0  0  0
    8.1795   13.2593   24.5697 C   0  0  0  0  0  0  0  0  0  0  0  0
    7.5194   12.2481   25.3060 C   0  0  0  0  0  0  0  0  0  0  0  0
    6.6717   12.6058   26.3637 N   0  0  0  0  0  0  0  0  0  0  0  0
    5.7670   11.7236   27.2798 C   0  0  0  0  0  0  0  0  0  0  0  0
    5.6532   10.5601   27.3386 O   0  0  0  0  0  0  0  0  0  0  0  0
    4.9854   12.7207   28.1651 C   0  0  0  0  0  0  0  0  0  0  0  0
    3.6676   13.0844   27.4949 C   0  0  0  0  0  0  0  0  0  0  0  0
    4.7576   12.1418   29.5546 C   0  0  0  0  0  0  0  0  0  0  0  0
    5.6893   13.8905   28.3157 F   0  0  0  0  0  0  0  0  0  0  0  0
    7.7908   10.9034   25.0436 C   0  0  0  0  0  0  0  0  0  0  0  0
    8.7766   10.5472   24.1243 C   0  0  0  0  0  0  0  0  0  0  0  0
    9.5118   11.5359   23.4788 C   0  0  0  0  0  0  0  0  0  0  0  0
    9.2262   12.8915   23.6959 C   0  0  0  0  0  0  0  0  0  0  0  0
   10.0401   13.8802   23.0496 N   0  0  0  0  0  0  0  0  0  0  0  0
    9.5797   14.3115   21.7281 C   0  0  0  0  0  0  0  0  0  0  0  0
   10.5145   15.2354   20.9925 C   0  0  0  0  0  0  0  0  0  0  0  0
   11.9001   14.7076   21.1695 C   0  0  0  0  0  0  0  0  0  0  0  0
   12.6669   14.4736   20.2418 O   0  0  0  0  0  0  0  0  0  0  0  0
   12.2369   14.5014   22.4768 N   0  0  0  0  0  0  0  0  0  0  0  0
   11.3933   13.9121   23.3772 C   0  0  0  0  0  0  0  0  0  0  0  0
   11.8572   13.4379   24.4153 O   0  0  0  0  0  0  0  0  0  0  0  0
  1  2  1  0
  2  3  2  0
  3  4  1  0
  4  5  1  0
  5  6  2  0
  5  7  1  0
  7  8  1  0
  7  9  1  0
  7 10  1  0
  3 11  1  0
 11 12  2  0
 12 13  1  0
 13 14  2  0
 14 15  1  0
 15 16  1  0
 16 17  1  0
 17 18  1  0
 18 19  2  0
 18 20  1  0
 20 21  1  0
 21 22  2  0
 14  2  1  0
 21 15  1  0
M  END
>  <alias>  (904) 
None

>  <rmsd(smina/fragmenstein)>  (904) 
0.279

>  <smiles>  (904) 
Cc1c(NC(=O)C(C)(C)F)cccc1N1CCC(=O)NC1=O

>  <gnina_score>  (904) 
5.274

>  <inspiration_score>  (904) 
None

>  <energy_score>  (904) 
-39.735609

>  <distance_score>  (904) 
1.172267

>  <gnina_score_min>  (904) 
5.294

>  <inchikey>  (904) 
NXVVHKRWCFFAFZ-UHFFFAOYSA-N

>  <exports>  (904) 
['/opt/xchem-fragalysis-2/maxwin/BulkDock/OUTPUTS/openbind_a71ev2a_c2_elabs_1LOUU54.sdf', '/opt/xchem-fragalysis-2/maxwin/BulkDock/OUTPUTS/openbind_a71ev2a_c2_elabs_1LSYIDY.sdf']

>  <name>  (904) 
P546812

>  <ref_pdb>  (904) 
A0884a

>  <subsites>  (904) 
None

>  <HIPPO Pose ID>  (904) 
546812

>  <ref_mols>  (904) 
A0884a

>  <HIPPO Compound ID>  (904) 
385381

>  <tags>  (904) 
openbind_a71ev2a_c2_elabs,syndirella_product,openbind_a71ev2a_c2_elabs_fragonly_scored_top80percent,openbind_a71ev2a_c2_elabs_scored,BulkDock Fragalysis export,openbind_a71ev2a_c2_elabs_scored_top80percent,openbind_a71ev2a_c2_elabs_activefrags_only_scored_5.2plus,syndirella_placed

>  <smina_score_min>  (904) 
-7.233

$$$$
P546813
     RDKit          3D

 22 23  0  0  0  0  0  0  0  0999 V2000
    4.8394   15.5362   28.1182 C   0  0  0  0  0  0  0  0  0  0  0  0
    4.8917   14.4963   27.0090 C   0  0  0  0  0  0  0  0  0  0  0  0
    3.8418   14.7680   25.9376 C   0  0  0  0  0  0  0  0  0  0  0  0
    4.5878   13.2743   27.5647 F   0  0  0  0  0  0  0  0  0  0  0  0
    6.2861   14.4615   26.3501 C   0  0  0  0  0  0  0  0  0  0  0  0
    6.9576   15.4041   26.1767 O   0  0  0  0  0  0  0  0  0  0  0  0
    6.4973   12.9758   25.9173 N   0  0  0  0  0  0  0  0  0  0  0  0
    7.4878   12.3977   25.1362 C   0  0  0  0  0  0  0  0  0  0  0  0
    7.5820   11.0069   25.0807 C   0  0  0  0  0  0  0  0  0  0  0  0
    8.5689   10.4157   24.2953 C   0  0  0  0  0  0  0  0  0  0  0  0
    9.4376   11.2123   23.5603 C   0  0  0  0  0  0  0  0  0  0  0  0
   10.3039   10.6101   22.7423 F   0  0  0  0  0  0  0  0  0  0  0  0
    9.3436   12.6041   23.5942 C   0  0  0  0  0  0  0  0  0  0  0  0
   10.2037   13.3976   22.7895 N   0  0  0  0  0  0  0  0  0  0  0  0
    9.5995   14.3639   21.8878 C   0  0  0  0  0  0  0  0  0  0  0  0
   10.5347   14.8705   20.8110 C   0  0  0  0  0  0  0  0  0  0  0  0
   11.9689   14.5860   21.1318 C   0  0  0  0  0  0  0  0  0  0  0  0
   12.8246   14.4869   20.2559 O   0  0  0  0  0  0  0  0  0  0  0  0
   12.2527   14.4607   22.4584 N   0  0  0  0  0  0  0  0  0  0  0  0
   11.4910   13.6478   23.2544 C   0  0  0  0  0  0  0  0  0  0  0  0
   11.9607   13.1784   24.2893 O   0  0  0  0  0  0  0  0  0  0  0  0
    8.3644   13.1944   24.3948 C   0  0  0  0  0  0  0  0  0  0  0  0
  1  2  1  0
  2  3  1  0
  2  4  1  0
  2  5  1  0
  5  6  2  0
  5  7  1  0
  7  8  1  0
  8  9  2  0
  9 10  1  0
 10 11  2  0
 11 12  1  0
 11 13  1  0
 13 14  1  0
 14 15  1  0
 15 16  1  0
 16 17  1  0
 17 18  2  0
 17 19  1  0
 19 20  1  0
 20 21  2  0
 13 22  2  0
 22  8  1  0
 20 14  1  0
M  END
>  <alias>  (905) 
None

>  <rmsd(smina/fragmenstein)>  (905) 
0.774

>  <smiles>  (905) 
CC(C)(F)C(=O)Nc1ccc(F)c(N2CCC(=O)NC2=O)c1

>  <gnina_score>  (905) 
5.45

>  <inspiration_score>  (905) 
None

>  <energy_score>  (905) 
-39.202281

>  <distance_score>  (905) 
1.525852

>  <gnina_score_min>  (905) 
5.323

>  <inchikey>  (905) 
XWLVEOZQEHZGRR-UHFFFAOYSA-N

>  <exports>  (905) 
['/opt/xchem-fragalysis-2/maxwin/BulkDock/OUTPUTS/openbind_a71ev2a_c2_elabs_1LOUU54.sdf', '/opt/xchem-fragalysis-2/maxwin/BulkDock/OUTPUTS/openbind_a71ev2a_c2_elabs_1LSYIDY.sdf']

>  <name>  (905) 
P546813

>  <ref_pdb>  (905) 
A0884a

>  <subsites>  (905) 
None

>  <HIPPO Pose ID>  (905) 
546813

>  <ref_mols>  (905) 
A0884a

>  <HIPPO Compound ID>  (905) 
385382

>  <tags>  (905) 
openbind_a71ev2a_c2_elabs,syndirella_product,openbind_a71ev2a_c2_elabs_fragonly_scored_top80percent,openbind_a71ev2a_c2_elabs_scored,BulkDock Fragalysis export,openbind_a71ev2a_c2_elabs_scored_top80percent,openbind_a71ev2a_c2_elabs_activefrags_only_scored_5.2plus,syndirella_placed

>  <smina_score_min>  (905) 
-7.042

$$$$
P546814
     RDKit          3D

 22 23  0  0  0  0  0  0  0  0999 V2000
    7.8464   14.4950   22.8898 C   0  0  0  0  0  0  0  0  0  0  0  0
    8.1207   13.1084   23.3989 C   0  0  0  0  0  0  0  0  0  0  0  0
    7.2569   12.5306   24.3593 C   0  0  0  0  0  0  0  0  0  0  0  0
    6.2334   13.3074   24.9124 N   0  0  0  0  0  0  0  0  0  0  0  0
    5.1717   12.9579   26.0085 C   0  0  0  0  0  0  0  0  0  0  0  0
    5.0466   11.9933   26.6650 O   0  0  0  0  0  0  0  0  0  0  0  0
    4.2186   14.1845   26.1623 C   0  0  0  0  0  0  0  0  0  0  0  0
    3.4626   14.5094   24.8774 C   0  0  0  0  0  0  0  0  0  0  0  0
    4.9794   15.3999   26.6850 C   0  0  0  0  0  0  0  0  0  0  0  0
    3.2509   13.9070   27.1037 F   0  0  0  0  0  0  0  0  0  0  0  0
    7.4489   11.2117   24.7808 C   0  0  0  0  0  0  0  0  0  0  0  0
    8.4514   10.4332   24.2098 C   0  0  0  0  0  0  0  0  0  0  0  0
    9.3594   11.0132   23.3320 C   0  0  0  0  0  0  0  0  0  0  0  0
    9.2782   12.3887   23.0167 C   0  0  0  0  0  0  0  0  0  0  0  0
   10.5408   13.0425   23.0530 N   0  0  0  0  0  0  0  0  0  0  0  0
   11.0293   14.1151   22.3775 C   0  0  0  0  0  0  0  0  0  0  0  0
   10.7914   14.5103   21.2522 O   0  0  0  0  0  0  0  0  0  0  0  0
   11.9176   14.7978   23.1997 N   0  0  0  0  0  0  0  0  0  0  0  0
   12.1204   14.1345   24.4456 C   0  0  1  0  0  0  0  0  0  0  0  0
   11.8525   14.9385   25.7263 C   0  0  0  0  0  0  0  0  0  0  0  0
   11.0029   13.1776   24.3137 C   0  0  0  0  0  0  0  0  0  0  0  0
   10.4923   12.6643   25.2910 O   0  0  0  0  0  0  0  0  0  0  0  0
  1  2  1  0
  2  3  2  0
  3  4  1  0
  4  5  1  0
  5  6  2  0
  5  7  1  0
  7  8  1  0
  7  9  1  0
  7 10  1  0
  3 11  1  0
 11 12  2  0
 12 13  1  0
 13 14  2  0
 14 15  1  0
 15 16  1  0
 16 17  2  0
 16 18  1  0
 18 19  1  0
 19 20  1  1
 19 21  1  0
 21 22  2  0
 14  2  1  0
 21 15  1  0
M  END
>  <alias>  (906) 
None

>  <rmsd(smina/fragmenstein)>  (906) 
0.369

>  <smiles>  (906) 
Cc1c(NC(=O)C(C)(C)F)cccc1N1C(=O)N[C@@H](C)C1=O

>  <gnina_score>  (906) 
5.409

>  <inspiration_score>  (906) 
None

>  <energy_score>  (906) 
-4.019029

>  <distance_score>  (906) 
1.496299

>  <gnina_score_min>  (906) 
5.363

>  <inchikey>  (906) 
PVIPVVIHJBRKFD-VIFPVBQESA-N

>  <exports>  (906) 
['/opt/xchem-fragalysis-2/maxwin/BulkDock/OUTPUTS/openbind_a71ev2a_c2_elabs_1LOUU54.sdf', '/opt/xchem-fragalysis-2/maxwin/BulkDock/OUTPUTS/openbind_a71ev2a_c2_elabs_1LSYIDY.sdf']

>  <name>  (906) 
P546814

>  <ref_pdb>  (906) 
A0884a

>  <subsites>  (906) 
None

>  <HIPPO Pose ID>  (906) 
546814

>  <ref_mols>  (906) 
A0884a

>  <HIPPO Compound ID>  (906) 
385384

>  <tags>  (906) 
openbind_a71ev2a_c2_elabs,syndirella_product,openbind_a71ev2a_c2_elabs_fragonly_scored_top80percent,openbind_a71ev2a_c2_elabs_scored,BulkDock Fragalysis export,openbind_a71ev2a_c2_elabs_scored_top80percent,openbind_a71ev2a_c2_elabs_activefrags_only_scored_5.2plus,syndirella_placed

>  <smina_score_min>  (906) 
-4.882

$$$$
P559716
     RDKit          3D

 24 26  0  0  0  0  0  0  0  0999 V2000
   -5.1220   12.2781   14.4187 C   0  0  0  0  0  0  0  0  0  0  0  0
   -4.2624   13.5372   14.4621 C   0  0  0  0  0  0  0  0  0  0  0  0
   -4.6177   14.4720   13.3114 C   0  0  0  0  0  0  0  0  0  0  0  0
   -2.8908   13.1435   14.3006 O   0  0  0  0  0  0  0  0  0  0  0  0
   -2.1534   13.3657   15.4304 C   0  0  0  0  0  0  0  0  0  0  0  0
   -1.7993   14.6564   15.8085 C   0  0  0  0  0  0  0  0  0  0  0  0
   -0.9763   14.8428   16.9189 C   0  0  0  0  0  0  0  0  0  0  0  0
   -0.4757   13.7466   17.6490 C   0  0  0  0  0  0  0  0  0  0  0  0
    0.5224   14.0146   18.7771 C   0  0  1  0  0  0  0  0  0  0  0  0
   -0.1595   14.4440   19.9975 N   0  0  0  0  0  0  0  0  0  0  0  0
    0.5477   15.4756   20.7467 C   0  0  0  0  0  0  0  0  0  0  0  0
    1.7044   15.0126   21.5666 C   0  0  0  0  0  0  0  0  0  0  0  0
    3.0107   14.6652   21.2844 C   0  0  0  0  0  0  0  0  0  0  0  0
    3.6384   14.3943   22.5204 C   0  0  0  0  0  0  0  0  0  0  0  0
    2.6829   14.5940   23.4852 C   0  0  0  0  0  0  0  0  0  0  0  0
    1.5124   14.9832   22.9214 O   0  0  0  0  0  0  0  0  0  0  0  0
    1.5758   12.9299   18.9472 C   0  0  0  0  0  0  0  0  0  0  0  0
    2.6960   12.9740   18.1024 C   0  0  0  0  0  0  0  0  0  0  0  0
    3.7168   12.0400   18.2140 C   0  0  0  0  0  0  0  0  0  0  0  0
    3.6408   11.0380   19.1713 C   0  0  0  0  0  0  0  0  0  0  0  0
    2.5409   10.9780   20.0136 C   0  0  0  0  0  0  0  0  0  0  0  0
    1.5023   11.9020   19.8960 C   0  0  0  0  0  0  0  0  0  0  0  0
   -0.8730   12.4568   17.2650 C   0  0  0  0  0  0  0  0  0  0  0  0
   -1.6923   12.2665   16.1483 C   0  0  0  0  0  0  0  0  0  0  0  0
  1  2  1  0
  2  3  1  0
  2  4  1  0
  4  5  1  0
  5  6  2  0
  6  7  1  0
  7  8  2  0
  8  9  1  0
  9 10  1  1
 10 11  1  0
 11 12  1  0
 12 13  2  0
 13 14  1  0
 14 15  2  0
 15 16  1  0
  9 17  1  0
 17 18  2  0
 18 19  1  0
 19 20  2  0
 20 21  1  0
 21 22  2  0
  8 23  1  0
 23 24  2  0
 24  5  1  0
 16 12  1  0
 22 17  1  0
M  END
>  <alias>  (907) 
None

>  <rmsd(smina/fragmenstein)>  (907) 
1.62

>  <smiles>  (907) 
CC(C)Oc1ccc([C@@H](NCc2ccco2)c2ccccc2)cc1

>  <gnina_score>  (907) 
5.192

>  <inspiration_score>  (907) 
None

>  <energy_score>  (907) 
-32.336275

>  <distance_score>  (907) 
0.418042

>  <gnina_score_min>  (907) 
5.43

>  <inchikey>  (907) 
WILRNXBYRWJQRW-NRFANRHFSA-N

>  <exports>  (907) 
['/opt/xchem-fragalysis-2/maxwin/BulkDock/OUTPUTS/openbind_a71ev2a_c2_elabs_1LOUU54.sdf', '/opt/xchem-fragalysis-2/maxwin/BulkDock/OUTPUTS/openbind_a71ev2a_c2_elabs_1LSYIDY.sdf']

>  <name>  (907) 
P559716

>  <ref_pdb>  (907) 
A0836b

>  <subsites>  (907) 
None

>  <HIPPO Pose ID>  (907) 
559716

>  <ref_mols>  (907) 
A0836b

>  <HIPPO Compound ID>  (907) 
390302

>  <tags>  (907) 
openbind_a71ev2a_c2_elabs,syndirella_product,openbind_a71ev2a_c2_elabs_fragonly_scored_top80percent,openbind_a71ev2a_c2_elabs_scored,BulkDock Fragalysis export,openbind_a71ev2a_c2_elabs_scored_top80percent,openbind_a71ev2a_c2_elabs_activefrags_only_scored_5.2plus,syndirella_placed

>  <smina_score_min>  (907) 
-5.857

$$$$
P559789
     RDKit          3D

 25 27  0  0  0  0  0  0  0  0999 V2000
   -5.1935   12.3844   10.5421 C   0  0  0  0  0  0  0  0  0  0  0  0
   -4.4243   12.2192   11.8433 C   0  0  0  0  0  0  0  0  0  0  0  0
   -4.8566   13.2555   12.8834 C   0  0  0  0  0  0  0  0  0  0  0  0
   -4.1197   13.0838   14.2111 C   0  0  0  0  0  0  0  0  0  0  0  0
   -2.7224   13.3132   13.9964 O   0  0  0  0  0  0  0  0  0  0  0  0
   -2.0488   13.3932   15.1828 C   0  0  0  0  0  0  0  0  0  0  0  0
   -1.8857   12.2916   16.0161 C   0  0  0  0  0  0  0  0  0  0  0  0
   -1.1861   12.4323   17.2178 C   0  0  0  0  0  0  0  0  0  0  0  0
   -0.6237   13.6676   17.5954 C   0  0  0  0  0  0  0  0  0  0  0  0
    0.0896   13.7715   18.9551 C   0  0  2  0  0  0  0  0  0  0  0  0
    0.4295   15.1461   19.3628 N   0  0  0  0  0  0  0  0  0  0  0  0
    0.2833   15.3428   20.8025 C   0  0  0  0  0  0  0  0  0  0  0  0
   -1.0740   15.8728   21.1325 C   0  0  0  0  0  0  0  0  0  0  0  0
   -2.3230   15.2951   21.2424 C   0  0  0  0  0  0  0  0  0  0  0  0
   -3.2293   16.3402   21.5386 C   0  0  0  0  0  0  0  0  0  0  0  0
   -2.4814   17.4922   21.5811 C   0  0  0  0  0  0  0  0  0  0  0  0
   -1.1759   17.2213   21.3294 O   0  0  0  0  0  0  0  0  0  0  0  0
    1.3257   12.8842   19.0335 C   0  0  0  0  0  0  0  0  0  0  0  0
    1.4094   11.8623   19.9886 C   0  0  0  0  0  0  0  0  0  0  0  0
    2.5296   11.0346   20.0446 C   0  0  0  0  0  0  0  0  0  0  0  0
    3.5769   11.2097   19.1525 C   0  0  0  0  0  0  0  0  0  0  0  0
    3.5224   12.2374   18.2180 C   0  0  0  0  0  0  0  0  0  0  0  0
    2.4070   13.0701   18.1618 C   0  0  0  0  0  0  0  0  0  0  0  0
   -0.7658   14.7457   16.7063 C   0  0  0  0  0  0  0  0  0  0  0  0
   -1.4699   14.6114   15.5092 C   0  0  0  0  0  0  0  0  0  0  0  0
  1  2  1  0
  2  3  1  0
  3  4  1  0
  4  5  1  0
  5  6  1  0
  6  7  2  0
  7  8  1  0
  8  9  2  0
  9 10  1  0
 10 11  1  6
 11 12  1  0
 12 13  1  0
 13 14  2  0
 14 15  1  0
 15 16  2  0
 16 17  1  0
 10 18  1  0
 18 19  2  0
 19 20  1  0
 20 21  2  0
 21 22  1  0
 22 23  2  0
  9 24  1  0
 24 25  2  0
 25  6  1  0
 17 13  1  0
 23 18  1  0
M  END
>  <alias>  (908) 
None

>  <rmsd(smina/fragmenstein)>  (908) 
2.155

>  <smiles>  (908) 
CCCCOc1ccc([C@H](NCc2ccco2)c2ccccc2)cc1

>  <gnina_score>  (908) 
5.073

>  <inspiration_score>  (908) 
None

>  <energy_score>  (908) 
-53.169074

>  <distance_score>  (908) 
0.291838

>  <gnina_score_min>  (908) 
5.298

>  <inchikey>  (908) 
DFRCPGGVHSIRFD-JOCHJYFZSA-N

>  <exports>  (908) 
['/opt/xchem-fragalysis-2/maxwin/BulkDock/OUTPUTS/openbind_a71ev2a_c2_elabs_1LOUU54.sdf', '/opt/xchem-fragalysis-2/maxwin/BulkDock/OUTPUTS/openbind_a71ev2a_c2_elabs_1LSYIDY.sdf']

>  <name>  (908) 
P559789

>  <ref_pdb>  (908) 
A0836b

>  <subsites>  (908) 
None

>  <HIPPO Pose ID>  (908) 
559789

>  <ref_mols>  (908) 
A0836b

>  <HIPPO Compound ID>  (908) 
390338

>  <tags>  (908) 
openbind_a71ev2a_c2_elabs,syndirella_product,openbind_a71ev2a_c2_elabs_fragonly_scored_top80percent,openbind_a71ev2a_c2_elabs_scored,BulkDock Fragalysis export,openbind_a71ev2a_c2_elabs_scored_top80percent,openbind_a71ev2a_c2_elabs_activefrags_only_scored_5.2plus,syndirella_placed

>  <smina_score_min>  (908) 
-5.532

$$$$
P559808
     RDKit          3D

 25 27  0  0  0  0  0  0  0  0999 V2000
   -7.0636   12.1204   12.4770 C   0  0  0  0  0  0  0  0  0  0  0  0
   -6.3447   13.1160   13.0104 C   0  0  0  0  0  0  0  0  0  0  0  0
   -4.8565   13.2535   12.8589 C   0  0  0  0  0  0  0  0  0  0  0  0
   -4.1289   13.1799   14.2016 C   0  0  0  0  0  0  0  0  0  0  0  0
   -2.7251   13.3485   13.9540 O   0  0  0  0  0  0  0  0  0  0  0  0
   -2.0452   13.4241   15.1379 C   0  0  0  0  0  0  0  0  0  0  0  0
   -1.6194   14.6711   15.5764 C   0  0  0  0  0  0  0  0  0  0  0  0
   -0.9217   14.7747   16.7792 C   0  0  0  0  0  0  0  0  0  0  0  0
   -0.6218   13.6354   17.5486 C   0  0  0  0  0  0  0  0  0  0  0  0
    0.1006   13.7246   18.9036 C   0  0  2  0  0  0  0  0  0  0  0  0
    0.4123   15.1182   19.2602 N   0  0  0  0  0  0  0  0  0  0  0  0
    0.4782   15.3520   20.6945 C   0  0  0  0  0  0  0  0  0  0  0  0
    1.7639   14.9843   21.3455 C   0  0  0  0  0  0  0  0  0  0  0  0
    2.0675   14.5161   22.6073 C   0  0  0  0  0  0  0  0  0  0  0  0
    3.4660   14.3293   22.6422 C   0  0  0  0  0  0  0  0  0  0  0  0
    3.9309   14.6735   21.3975 C   0  0  0  0  0  0  0  0  0  0  0  0
    2.9149   15.1428   20.6252 O   0  0  0  0  0  0  0  0  0  0  0  0
    1.3271   12.8248   18.9757 C   0  0  0  0  0  0  0  0  0  0  0  0
    2.4061   12.9948   18.0972 C   0  0  0  0  0  0  0  0  0  0  0  0
    3.5297   12.1766   18.1803 C   0  0  0  0  0  0  0  0  0  0  0  0
    3.5888   11.1703   19.1376 C   0  0  0  0  0  0  0  0  0  0  0  0
    2.5377   11.0026   20.0263 C   0  0  0  0  0  0  0  0  0  0  0  0
    1.4119   11.8199   19.9487 C   0  0  0  0  0  0  0  0  0  0  0  0
   -1.0464   12.3829   17.0669 C   0  0  0  0  0  0  0  0  0  0  0  0
   -1.7438   12.2750   15.8619 C   0  0  0  0  0  0  0  0  0  0  0  0
  1  2  2  0
  2  3  1  0
  3  4  1  0
  4  5  1  0
  5  6  1  0
  6  7  2  0
  7  8  1  0
  8  9  2  0
  9 10  1  0
 10 11  1  6
 11 12  1  0
 12 13  1  0
 13 14  2  0
 14 15  1  0
 15 16  2  0
 16 17  1  0
 10 18  1  0
 18 19  2  0
 19 20  1  0
 20 21  2  0
 21 22  1  0
 22 23  2  0
  9 24  1  0
 24 25  2  0
 25  6  1  0
 17 13  1  0
 23 18  1  0
M  END
>  <alias>  (909) 
None

>  <rmsd(smina/fragmenstein)>  (909) 
2.038

>  <smiles>  (909) 
C=CCCOc1ccc([C@H](NCc2ccco2)c2ccccc2)cc1

>  <gnina_score>  (909) 
5.537

>  <inspiration_score>  (909) 
None

>  <energy_score>  (909) 
-34.308779

>  <distance_score>  (909) 
0.261482

>  <gnina_score_min>  (909) 
5.658

>  <inchikey>  (909) 
VREFHDNSKWUDAX-JOCHJYFZSA-N

>  <exports>  (909) 
['/opt/xchem-fragalysis-2/maxwin/BulkDock/OUTPUTS/openbind_a71ev2a_c2_elabs_1LOUU54.sdf', '/opt/xchem-fragalysis-2/maxwin/BulkDock/OUTPUTS/openbind_a71ev2a_c2_elabs_1LSYIDY.sdf']

>  <name>  (909) 
P559808

>  <ref_pdb>  (909) 
A0836b

>  <subsites>  (909) 
None

>  <HIPPO Pose ID>  (909) 
559808

>  <ref_mols>  (909) 
A0836b

>  <HIPPO Compound ID>  (909) 
390346

>  <tags>  (909) 
openbind_a71ev2a_c2_elabs,syndirella_product,openbind_a71ev2a_c2_elabs_fragonly_scored_top80percent,BulkDock Fragalysis export,openbind_a71ev2a_c2_elabs_scored,openbind_a71ev2a_c2_elabs_scored_top80percent,openbind_a71ev2a_c2_elabs_activefrags_only_scored_5.2plus,openbind_a71ev2a_c2_elabs_activefrags_only_scored_5.5plus,syndirella_placed

>  <smina_score_min>  (909) 
-5.795

$$$$
P559844
     RDKit          3D

 25 27  0  0  0  0  0  0  0  0999 V2000
   -4.8914   13.9914   13.3547 C   0  0  0  0  0  0  0  0  0  0  0  0
   -4.4134   13.4174   14.6851 C   0  0  1  0  0  0  0  0  0  0  0  0
   -5.2133   12.2272   15.0400 C   0  0  0  0  0  0  0  0  0  0  0  0
   -5.8651   11.3068   15.3192 N   0  0  0  0  0  0  0  0  0  0  0  0
   -3.0289   13.0651   14.5174 O   0  0  0  0  0  0  0  0  0  0  0  0
   -2.2880   13.3287   15.6362 C   0  0  0  0  0  0  0  0  0  0  0  0
   -1.7901   12.2618   16.3776 C   0  0  0  0  0  0  0  0  0  0  0  0
   -0.8911   12.4957   17.4257 C   0  0  0  0  0  0  0  0  0  0  0  0
   -0.4589   13.7971   17.7249 C   0  0  0  0  0  0  0  0  0  0  0  0
    0.7989   14.0779   18.5594 C   0  0  1  0  0  0  0  0  0  0  0  0
    0.7748   15.2113   19.5039 N   0  0  0  0  0  0  0  0  0  0  0  0
    0.3390   14.8980   20.8509 C   0  0  0  0  0  0  0  0  0  0  0  0
    1.4837   14.7900   21.8090 C   0  0  0  0  0  0  0  0  0  0  0  0
    2.8287   14.4906   21.6957 C   0  0  0  0  0  0  0  0  0  0  0  0
    3.3668   14.5061   23.0035 C   0  0  0  0  0  0  0  0  0  0  0  0
    2.3288   14.8383   23.8381 C   0  0  0  0  0  0  0  0  0  0  0  0
    1.1901   15.0330   23.1261 O   0  0  0  0  0  0  0  0  0  0  0  0
    1.7469   12.9332   18.8694 C   0  0  0  0  0  0  0  0  0  0  0  0
    1.5295   11.9676   19.8535 C   0  0  0  0  0  0  0  0  0  0  0  0
    2.4808   10.9686   20.0686 C   0  0  0  0  0  0  0  0  0  0  0  0
    3.6207   10.8791   19.2841 C   0  0  0  0  0  0  0  0  0  0  0  0
    3.8364   11.8224   18.2968 C   0  0  0  0  0  0  0  0  0  0  0  0
    2.9268   12.8475   18.1095 C   0  0  0  0  0  0  0  0  0  0  0  0
   -1.0264   14.8626   16.9889 C   0  0  0  0  0  0  0  0  0  0  0  0
   -1.9243   14.6329   15.9464 C   0  0  0  0  0  0  0  0  0  0  0  0
  2  1  1  6
  2  3  1  0
  3  4  3  0
  2  5  1  0
  5  6  1  0
  6  7  2  0
  7  8  1  0
  8  9  2  0
  9 10  1  0
 10 11  1  1
 11 12  1  0
 12 13  1  0
 13 14  2  0
 14 15  1  0
 15 16  2  0
 16 17  1  0
 10 18  1  0
 18 19  2  0
 19 20  1  0
 20 21  2  0
 21 22  1  0
 22 23  2  0
  9 24  1  0
 24 25  2  0
 25  6  1  0
 17 13  1  0
 23 18  1  0
M  END
>  <alias>  (910) 
None

>  <rmsd(smina/fragmenstein)>  (910) 
1.544

>  <smiles>  (910) 
C[C@@H](C#N)Oc1ccc([C@@H](NCc2ccco2)c2ccccc2)cc1

>  <gnina_score>  (910) 
5.213

>  <inspiration_score>  (910) 
None

>  <energy_score>  (910) 
-25.367801

>  <distance_score>  (910) 
0.353119

>  <gnina_score_min>  (910) 
5.33

>  <inchikey>  (910) 
FQJOUJCGPNNLOX-KKSFZXQISA-N

>  <exports>  (910) 
['/opt/xchem-fragalysis-2/maxwin/BulkDock/OUTPUTS/openbind_a71ev2a_c2_elabs_1LOUU54.sdf', '/opt/xchem-fragalysis-2/maxwin/BulkDock/OUTPUTS/openbind_a71ev2a_c2_elabs_1LSYIDY.sdf']

>  <name>  (910) 
P559844

>  <ref_pdb>  (910) 
A0836b

>  <subsites>  (910) 
None

>  <HIPPO Pose ID>  (910) 
559844

>  <ref_mols>  (910) 
A0836b

>  <HIPPO Compound ID>  (910) 
390359

>  <tags>  (910) 
openbind_a71ev2a_c2_elabs,syndirella_product,openbind_a71ev2a_c2_elabs_fragonly_scored_top80percent,openbind_a71ev2a_c2_elabs_scored,BulkDock Fragalysis export,openbind_a71ev2a_c2_elabs_scored_top80percent,openbind_a71ev2a_c2_elabs_activefrags_only_scored_5.2plus,syndirella_placed

>  <smina_score_min>  (910) 
-5.021

$$$$
P559866
     RDKit          3D

 25 27  0  0  0  0  0  0  0  0999 V2000
   -7.0760   14.0471   13.7160 N   0  0  0  0  0  0  0  0  0  0  0  0
   -6.3603   13.0142   12.9764 C   0  0  0  0  0  0  0  0  0  0  0  0
   -4.8596   13.2729   12.8715 C   0  0  0  0  0  0  0  0  0  0  0  0
   -4.1296   13.1642   14.2071 C   0  0  0  0  0  0  0  0  0  0  0  0
   -2.7298   13.3558   13.9563 O   0  0  0  0  0  0  0  0  0  0  0  0
   -2.0457   13.4271   15.1383 C   0  0  0  0  0  0  0  0  0  0  0  0
   -1.7459   12.2775   15.8624 C   0  0  0  0  0  0  0  0  0  0  0  0
   -1.0480   12.3845   17.0672 C   0  0  0  0  0  0  0  0  0  0  0  0
   -0.6215   13.6363   17.5488 C   0  0  0  0  0  0  0  0  0  0  0  0
    0.1009   13.7249   18.9039 C   0  0  2  0  0  0  0  0  0  0  0  0
    0.4123   15.1184   19.2610 N   0  0  0  0  0  0  0  0  0  0  0  0
    0.4781   15.3515   20.6955 C   0  0  0  0  0  0  0  0  0  0  0  0
    1.7639   14.9840   21.3462 C   0  0  0  0  0  0  0  0  0  0  0  0
    2.0679   14.5160   22.6080 C   0  0  0  0  0  0  0  0  0  0  0  0
    3.4664   14.3294   22.6426 C   0  0  0  0  0  0  0  0  0  0  0  0
    3.9310   14.6734   21.3978 C   0  0  0  0  0  0  0  0  0  0  0  0
    2.9148   15.1425   20.6256 O   0  0  0  0  0  0  0  0  0  0  0  0
    1.3272   12.8249   18.9756 C   0  0  0  0  0  0  0  0  0  0  0  0
    2.4062   12.9949   18.0971 C   0  0  0  0  0  0  0  0  0  0  0  0
    3.5297   12.1766   18.1801 C   0  0  0  0  0  0  0  0  0  0  0  0
    3.5888   11.1701   19.1373 C   0  0  0  0  0  0  0  0  0  0  0  0
    2.5377   11.0025   20.0261 C   0  0  0  0  0  0  0  0  0  0  0  0
    1.4119   11.8199   19.9485 C   0  0  0  0  0  0  0  0  0  0  0  0
   -0.9190   14.7759   16.7789 C   0  0  0  0  0  0  0  0  0  0  0  0
   -1.6169   14.6733   15.5761 C   0  0  0  0  0  0  0  0  0  0  0  0
  1  2  1  0
  2  3  1  0
  3  4  1  0
  4  5  1  0
  5  6  1  0
  6  7  2  0
  7  8  1  0
  8  9  2  0
  9 10  1  0
 10 11  1  6
 11 12  1  0
 12 13  1  0
 13 14  2  0
 14 15  1  0
 15 16  2  0
 16 17  1  0
 10 18  1  0
 18 19  2  0
 19 20  1  0
 20 21  2  0
 21 22  1  0
 22 23  2  0
  9 24  1  0
 24 25  2  0
 25  6  1  0
 17 13  1  0
 23 18  1  0
M  END
>  <alias>  (911) 
None

>  <rmsd(smina/fragmenstein)>  (911) 
1.943

>  <smiles>  (911) 
NCCCOc1ccc([C@H](NCc2ccco2)c2ccccc2)cc1

>  <gnina_score>  (911) 
5.438

>  <inspiration_score>  (911) 
None

>  <energy_score>  (911) 
-32.701671

>  <distance_score>  (911) 
0.262016

>  <gnina_score_min>  (911) 
5.732

>  <inchikey>  (911) 
ZHQVIPFDAQWRIK-OAQYLSRUSA-N

>  <exports>  (911) 
['/opt/xchem-fragalysis-2/maxwin/BulkDock/OUTPUTS/openbind_a71ev2a_c2_elabs_1LOUU54.sdf', '/opt/xchem-fragalysis-2/maxwin/BulkDock/OUTPUTS/openbind_a71ev2a_c2_elabs_1LSYIDY.sdf']

>  <name>  (911) 
P559866

>  <ref_pdb>  (911) 
A0836b

>  <subsites>  (911) 
None

>  <HIPPO Pose ID>  (911) 
559866

>  <ref_mols>  (911) 
A0836b

>  <HIPPO Compound ID>  (911) 
390365

>  <tags>  (911) 
openbind_a71ev2a_c2_elabs,syndirella_product,openbind_a71ev2a_c2_elabs_fragonly_scored_top80percent,BulkDock Fragalysis export,openbind_a71ev2a_c2_elabs_scored,openbind_a71ev2a_c2_elabs_scored_top80percent,openbind_a71ev2a_c2_elabs_activefrags_only_scored_5.2plus,openbind_a71ev2a_c2_elabs_activefrags_only_scored_5.5plus,syndirella_placed

>  <smina_score_min>  (911) 
-5.82

$$$$
P559895
     RDKit          3D

 26 28  0  0  0  0  0  0  0  0999 V2000
   -1.6480   17.2928    9.9098 C   0  0  0  0  0  0  0  0  0  0  0  0
   -0.8969   16.2454   10.7148 C   0  0  0  0  0  0  0  0  0  0  0  0
   -1.7951   15.5340   11.6338 C   0  0  0  0  0  0  0  0  0  0  0  0
   -2.5298   14.9444   12.3801 C   0  0  0  0  0  0  0  0  0  0  0  0
   -3.4300   14.2256   13.2961 C   0  0  0  0  0  0  0  0  0  0  0  0
   -2.7662   13.1236   13.9176 O   0  0  0  0  0  0  0  0  0  0  0  0
   -2.1100   13.3596   15.0935 C   0  0  0  0  0  0  0  0  0  0  0  0
   -1.6993   14.6041   15.5647 C   0  0  0  0  0  0  0  0  0  0  0  0
   -1.0176   14.7064   16.7827 C   0  0  0  0  0  0  0  0  0  0  0  0
   -0.7261   13.5700   17.5538 C   0  0  0  0  0  0  0  0  0  0  0  0
    0.0138   13.6447   18.9000 C   0  0  2  0  0  0  0  0  0  0  0  0
    0.3675   15.0291   19.2590 N   0  0  0  0  0  0  0  0  0  0  0  0
    0.4810   15.2648   20.6928 C   0  0  0  0  0  0  0  0  0  0  0  0
    1.7779   14.9160   21.3418 C   0  0  0  0  0  0  0  0  0  0  0  0
    3.0534   14.6144   20.9071 C   0  0  0  0  0  0  0  0  0  0  0  0
    3.8391   14.3709   22.0553 C   0  0  0  0  0  0  0  0  0  0  0  0
    3.0045   14.5528   23.1290 C   0  0  0  0  0  0  0  0  0  0  0  0
    1.7637   14.9098   22.7122 O   0  0  0  0  0  0  0  0  0  0  0  0
    1.2364   12.7378   18.9287 C   0  0  0  0  0  0  0  0  0  0  0  0
    2.2768   12.9001   18.0015 C   0  0  0  0  0  0  0  0  0  0  0  0
    3.4302   12.1246   18.0819 C   0  0  0  0  0  0  0  0  0  0  0  0
    3.5467   11.1533   19.0703 C   0  0  0  0  0  0  0  0  0  0  0  0
    2.5232   10.9781   19.9906 C   0  0  0  0  0  0  0  0  0  0  0  0
    1.3736   11.7627   19.9246 C   0  0  0  0  0  0  0  0  0  0  0  0
   -1.1525   12.3234   17.0655 C   0  0  0  0  0  0  0  0  0  0  0  0
   -1.8234   12.2204   15.8445 C   0  0  0  0  0  0  0  0  0  0  0  0
  1  2  1  0
  2  3  1  0
  3  4  3  0
  4  5  1  0
  5  6  1  0
  6  7  1  0
  7  8  2  0
  8  9  1  0
  9 10  2  0
 10 11  1  0
 11 12  1  6
 12 13  1  0
 13 14  1  0
 14 15  2  0
 15 16  1  0
 16 17  2  0
 17 18  1  0
 11 19  1  0
 19 20  2  0
 20 21  1  0
 21 22  2  0
 22 23  1  0
 23 24  2  0
 10 25  1  0
 25 26  2  0
 26  7  1  0
 18 14  1  0
 24 19  1  0
M  END
>  <alias>  (912) 
None

>  <rmsd(smina/fragmenstein)>  (912) 
0.735

>  <smiles>  (912) 
CCC#CCOc1ccc([C@H](NCc2ccco2)c2ccccc2)cc1

>  <gnina_score>  (912) 
5.459

>  <inspiration_score>  (912) 
None

>  <energy_score>  (912) 
-26.280665

>  <distance_score>  (912) 
0.504761

>  <gnina_score_min>  (912) 
5.357

>  <inchikey>  (912) 
QDGIPOZZHXIEKU-HSZRJFAPSA-N

>  <exports>  (912) 
['/opt/xchem-fragalysis-2/maxwin/BulkDock/OUTPUTS/openbind_a71ev2a_c2_elabs_1LOUU54.sdf', '/opt/xchem-fragalysis-2/maxwin/BulkDock/OUTPUTS/openbind_a71ev2a_c2_elabs_1LSYIDY.sdf']

>  <name>  (912) 
P559895

>  <ref_pdb>  (912) 
A0836b

>  <subsites>  (912) 
None

>  <HIPPO Pose ID>  (912) 
559895

>  <ref_mols>  (912) 
A0836b

>  <HIPPO Compound ID>  (912) 
390378

>  <tags>  (912) 
openbind_a71ev2a_c2_elabs,syndirella_product,openbind_a71ev2a_c2_elabs_fragonly_scored_top80percent,openbind_a71ev2a_c2_elabs_scored,BulkDock Fragalysis export,openbind_a71ev2a_c2_elabs_scored_top80percent,openbind_a71ev2a_c2_elabs_activefrags_only_scored_5.2plus,syndirella_placed

>  <smina_score_min>  (912) 
-5.676

$$$$
P559907
     RDKit          3D

 26 28  0  0  0  0  0  0  0  0999 V2000
   -4.6777   14.9856   12.5375 C   0  0  0  0  0  0  0  0  0  0  0  0
   -4.8823   13.5142   12.8833 C   0  0  0  0  0  0  0  0  0  0  0  0
   -6.3594   13.2109   13.1170 C   0  0  0  0  0  0  0  0  0  0  0  0
   -4.4930   12.7789   11.7970 F   0  0  0  0  0  0  0  0  0  0  0  0
   -4.0457   13.0682   14.0933 C   0  0  0  0  0  0  0  0  0  0  0  0
   -2.6772   13.4739   13.9259 O   0  0  0  0  0  0  0  0  0  0  0  0
   -2.0031   13.4611   15.1147 C   0  0  0  0  0  0  0  0  0  0  0  0
   -1.4718   14.6668   15.5536 C   0  0  0  0  0  0  0  0  0  0  0  0
   -0.8080   14.7264   16.7786 C   0  0  0  0  0  0  0  0  0  0  0  0
   -0.6645   13.5818   17.5812 C   0  0  0  0  0  0  0  0  0  0  0  0
   -0.0374   13.6064   18.9856 C   0  0  2  0  0  0  0  0  0  0  0  0
   -0.0187   14.9322   19.6425 N   0  0  0  0  0  0  0  0  0  0  0  0
   -1.3886   15.2506   20.0619 C   0  0  0  0  0  0  0  0  0  0  0  0
   -1.5769   16.6414   20.5436 C   0  0  0  0  0  0  0  0  0  0  0  0
   -1.7363   17.1847   21.8013 C   0  0  0  0  0  0  0  0  0  0  0  0
   -2.0832   18.5424   21.6078 C   0  0  0  0  0  0  0  0  0  0  0  0
   -2.0797   18.7494   20.2489 C   0  0  0  0  0  0  0  0  0  0  0  0
   -1.7694   17.6018   19.5931 O   0  0  0  0  0  0  0  0  0  0  0  0
    1.2948   12.8822   19.0701 C   0  0  0  0  0  0  0  0  0  0  0  0
    2.3361   13.1074   18.1649 C   0  0  0  0  0  0  0  0  0  0  0  0
    3.4824   12.3123   18.1908 C   0  0  0  0  0  0  0  0  0  0  0  0
    3.6039   11.2877   19.1249 C   0  0  0  0  0  0  0  0  0  0  0  0
    2.6063   11.0900   20.0650 C   0  0  0  0  0  0  0  0  0  0  0  0
    1.4658   11.8865   20.0461 C   0  0  0  0  0  0  0  0  0  0  0  0
   -1.1536   12.3602   17.0815 C   0  0  0  0  0  0  0  0  0  0  0  0
   -1.8148   12.2973   15.8534 C   0  0  0  0  0  0  0  0  0  0  0  0
  1  2  1  0
  2  3  1  0
  2  4  1  0
  2  5  1  0
  5  6  1  0
  6  7  1  0
  7  8  2  0
  8  9  1  0
  9 10  2  0
 10 11  1  0
 11 12  1  6
 12 13  1  0
 13 14  1  0
 14 15  2  0
 15 16  1  0
 16 17  2  0
 17 18  1  0
 11 19  1  0
 19 20  2  0
 20 21  1  0
 21 22  2  0
 22 23  1  0
 23 24  2  0
 10 25  1  0
 25 26  2  0
 26  7  1  0
 18 14  1  0
 24 19  1  0
M  END
>  <alias>  (913) 
None

>  <rmsd(smina/fragmenstein)>  (913) 
1.758

>  <smiles>  (913) 
CC(C)(F)COc1ccc([C@H](NCc2ccco2)c2ccccc2)cc1

>  <gnina_score>  (913) 
5.026

>  <inspiration_score>  (913) 
None

>  <energy_score>  (913) 
-40.154575

>  <distance_score>  (913) 
0.394544

>  <gnina_score_min>  (913) 
5.327

>  <inchikey>  (913) 
ILSGSCYUEKPFRZ-OAQYLSRUSA-N

>  <exports>  (913) 
['/opt/xchem-fragalysis-2/maxwin/BulkDock/OUTPUTS/openbind_a71ev2a_c2_elabs_1LOUU54.sdf', '/opt/xchem-fragalysis-2/maxwin/BulkDock/OUTPUTS/openbind_a71ev2a_c2_elabs_1LSYIDY.sdf']

>  <name>  (913) 
P559907

>  <ref_pdb>  (913) 
A0836b

>  <subsites>  (913) 
None

>  <HIPPO Pose ID>  (913) 
559907

>  <ref_mols>  (913) 
A0836b

>  <HIPPO Compound ID>  (913) 
390383

>  <tags>  (913) 
openbind_a71ev2a_c2_elabs,syndirella_product,openbind_a71ev2a_c2_elabs_fragonly_scored_top80percent,openbind_a71ev2a_c2_elabs_scored,BulkDock Fragalysis export,openbind_a71ev2a_c2_elabs_scored_top80percent,openbind_a71ev2a_c2_elabs_activefrags_only_scored_5.2plus,syndirella_placed

>  <smina_score_min>  (913) 
-5.409

$$$$
P559913
     RDKit          3D

 26 28  0  0  0  0  0  0  0  0999 V2000
   -3.1823   15.6819   11.8994 C   0  0  0  0  0  0  0  0  0  0  0  0
   -4.1226   15.4674   12.8282 C   0  0  0  0  0  0  0  0  0  0  0  0
   -4.8125   14.1446   13.0440 C   0  0  0  0  0  0  0  0  0  0  0  0
   -4.5098   13.5343   14.4249 C   0  0  1  0  0  0  0  0  0  0  0  0
   -5.4523   12.3613   14.6959 C   0  0  0  0  0  0  0  0  0  0  0  0
   -3.1735   13.0078   14.4056 O   0  0  0  0  0  0  0  0  0  0  0  0
   -2.4455   13.2732   15.5313 C   0  0  0  0  0  0  0  0  0  0  0  0
   -2.1925   14.5695   15.9647 C   0  0  0  0  0  0  0  0  0  0  0  0
   -1.2997   14.7804   17.0135 C   0  0  0  0  0  0  0  0  0  0  0  0
   -0.6194   13.7042   17.6235 C   0  0  0  0  0  0  0  0  0  0  0  0
    0.6519   14.0270   18.4064 C   0  0  1  0  0  0  0  0  0  0  0  0
    0.5989   15.1996   19.2949 N   0  0  0  0  0  0  0  0  0  0  0  0
    0.3591   14.9381   20.7028 C   0  0  0  0  0  0  0  0  0  0  0  0
    1.5934   14.8091   21.5429 C   0  0  0  0  0  0  0  0  0  0  0  0
    2.9339   14.5700   21.3022 C   0  0  0  0  0  0  0  0  0  0  0  0
    3.5740   14.4911   22.5607 C   0  0  0  0  0  0  0  0  0  0  0  0
    2.5979   14.7205   23.4975 C   0  0  0  0  0  0  0  0  0  0  0  0
    1.4041   14.9435   22.8940 O   0  0  0  0  0  0  0  0  0  0  0  0
    1.6282   12.9206   18.7569 C   0  0  0  0  0  0  0  0  0  0  0  0
    1.4114   11.9619   19.7479 C   0  0  0  0  0  0  0  0  0  0  0  0
    2.3975   11.0113   20.0206 C   0  0  0  0  0  0  0  0  0  0  0  0
    3.5730   10.9605   19.2848 C   0  0  0  0  0  0  0  0  0  0  0  0
    3.7897   11.8979   18.2917 C   0  0  0  0  0  0  0  0  0  0  0  0
    2.8428   12.8779   18.0501 C   0  0  0  0  0  0  0  0  0  0  0  0
   -0.9385   12.4025   17.2129 C   0  0  0  0  0  0  0  0  0  0  0  0
   -1.8373   12.1913   16.1635 C   0  0  0  0  0  0  0  0  0  0  0  0
  1  2  2  0
  2  3  1  0
  3  4  1  0
  4  5  1  6
  4  6  1  0
  6  7  1  0
  7  8  2  0
  8  9  1  0
  9 10  2  0
 10 11  1  0
 11 12  1  1
 12 13  1  0
 13 14  1  0
 14 15  2  0
 15 16  1  0
 16 17  2  0
 17 18  1  0
 11 19  1  0
 19 20  2  0
 20 21  1  0
 21 22  2  0
 22 23  1  0
 23 24  2  0
 10 25  1  0
 25 26  2  0
 26  7  1  0
 18 14  1  0
 24 19  1  0
M  END
>  <alias>  (914) 
None

>  <rmsd(smina/fragmenstein)>  (914) 
1.267

>  <smiles>  (914) 
C=CC[C@@H](C)Oc1ccc([C@@H](NCc2ccco2)c2ccccc2)cc1

>  <gnina_score>  (914) 
5.456

>  <inspiration_score>  (914) 
None

>  <energy_score>  (914) 
-40.704348

>  <distance_score>  (914) 
0.394299

>  <gnina_score_min>  (914) 
5.634

>  <inchikey>  (914) 
QIDYRLSFAXNFKO-JPYJTQIMSA-N

>  <exports>  (914) 
['/opt/xchem-fragalysis-2/maxwin/BulkDock/OUTPUTS/openbind_a71ev2a_c2_elabs_1LOUU54.sdf', '/opt/xchem-fragalysis-2/maxwin/BulkDock/OUTPUTS/openbind_a71ev2a_c2_elabs_1LSYIDY.sdf']

>  <name>  (914) 
P559913

>  <ref_pdb>  (914) 
A0836b

>  <subsites>  (914) 
None

>  <HIPPO Pose ID>  (914) 
559913

>  <ref_mols>  (914) 
A0836b

>  <HIPPO Compound ID>  (914) 
390385

>  <tags>  (914) 
openbind_a71ev2a_c2_elabs,syndirella_product,openbind_a71ev2a_c2_elabs_fragonly_scored_top80percent,BulkDock Fragalysis export,openbind_a71ev2a_c2_elabs_scored,openbind_a71ev2a_c2_elabs_scored_top80percent,openbind_a71ev2a_c2_elabs_activefrags_only_scored_5.2plus,openbind_a71ev2a_c2_elabs_activefrags_only_scored_5.5plus,syndirella_placed

>  <smina_score_min>  (914) 
-5.34

$$$$
P559917
     RDKit          3D

 26 29  0  0  0  0  0  0  0  0999 V2000
   -3.6926   13.3168   13.6925 C   0  0  0  0  0  0  0  0  0  0  0  0
   -4.7539   12.7568   13.7514 C   0  0  0  0  0  0  0  0  0  0  0  0
   -6.0154   12.0832   13.8399 C   0  0  0  0  0  0  0  0  0  0  0  0
   -6.0793   10.7607   14.5587 C   0  0  0  0  0  0  0  0  0  0  0  0
   -6.6866   11.9821   15.1849 C   0  0  0  0  0  0  0  0  0  0  0  0
   -2.5129   13.9376   13.6270 O   0  0  0  0  0  0  0  0  0  0  0  0
   -1.8816   13.9157   14.8445 C   0  0  0  0  0  0  0  0  0  0  0  0
   -1.7645   15.1097   15.5526 C   0  0  0  0  0  0  0  0  0  0  0  0
   -1.1365   15.1140   16.7986 C   0  0  0  0  0  0  0  0  0  0  0  0
   -0.5998   13.9319   17.3385 C   0  0  0  0  0  0  0  0  0  0  0  0
   -0.0080   13.9477   18.7545 C   0  0  1  0  0  0  0  0  0  0  0  0
   -1.0665   13.9514   19.7855 N   0  0  0  0  0  0  0  0  0  0  0  0
   -2.0927   12.9165   19.6358 C   0  0  0  0  0  0  0  0  0  0  0  0
   -3.2870   13.2080   20.4847 C   0  0  0  0  0  0  0  0  0  0  0  0
   -3.8849   14.3721   20.9264 C   0  0  0  0  0  0  0  0  0  0  0  0
   -5.0478   13.9857   21.6341 C   0  0  0  0  0  0  0  0  0  0  0  0
   -5.0894   12.6127   21.5789 C   0  0  0  0  0  0  0  0  0  0  0  0
   -4.0221   12.1303   20.8922 O   0  0  0  0  0  0  0  0  0  0  0  0
    1.1755   12.9978   18.9664 C   0  0  0  0  0  0  0  0  0  0  0  0
    2.3017   13.1445   18.1315 C   0  0  0  0  0  0  0  0  0  0  0  0
    3.4196   12.3193   18.2445 C   0  0  0  0  0  0  0  0  0  0  0  0
    3.4445   11.3266   19.2100 C   0  0  0  0  0  0  0  0  0  0  0  0
    2.3609   11.1804   20.0634 C   0  0  0  0  0  0  0  0  0  0  0  0
    1.2360   12.0039   19.9480 C   0  0  0  0  0  0  0  0  0  0  0  0
   -0.7057   12.7442   16.5923 C   0  0  0  0  0  0  0  0  0  0  0  0
   -1.3338   12.7361   15.3469 C   0  0  0  0  0  0  0  0  0  0  0  0
  1  2  3  0
  2  3  1  0
  3  4  1  0
  4  5  1  0
  1  6  1  0
  6  7  1  0
  7  8  2  0
  8  9  1  0
  9 10  2  0
 10 11  1  0
 11 12  1  1
 12 13  1  0
 13 14  1  0
 14 15  2  0
 15 16  1  0
 16 17  2  0
 17 18  1  0
 11 19  1  0
 19 20  2  0
 20 21  1  0
 21 22  2  0
 22 23  1  0
 23 24  2  0
 10 25  1  0
 25 26  2  0
  5  3  1  0
 26  7  1  0
 18 14  1  0
 24 19  1  0
M  END
>  <alias>  (915) 
None

>  <rmsd(smina/fragmenstein)>  (915) 
0.738

>  <smiles>  (915) 
C(#CC1CC1)Oc1ccc([C@@H](NCc2ccco2)c2ccccc2)cc1

>  <gnina_score>  (915) 
5.206

>  <inspiration_score>  (915) 
None

>  <energy_score>  (915) 
-28.086783

>  <distance_score>  (915) 
0.802168

>  <gnina_score_min>  (915) 
5.234

>  <inchikey>  (915) 
KPELYCBNHRYOLI-QHCPKHFHSA-N

>  <exports>  (915) 
['/opt/xchem-fragalysis-2/maxwin/BulkDock/OUTPUTS/openbind_a71ev2a_c2_elabs_1LOUU54.sdf', '/opt/xchem-fragalysis-2/maxwin/BulkDock/OUTPUTS/openbind_a71ev2a_c2_elabs_1LSYIDY.sdf']

>  <name>  (915) 
P559917

>  <ref_pdb>  (915) 
A0836b

>  <subsites>  (915) 
None

>  <HIPPO Pose ID>  (915) 
559917

>  <ref_mols>  (915) 
A0836b

>  <HIPPO Compound ID>  (915) 
390387

>  <tags>  (915) 
openbind_a71ev2a_c2_elabs,syndirella_product,openbind_a71ev2a_c2_elabs_fragonly_scored_top80percent,openbind_a71ev2a_c2_elabs_scored,BulkDock Fragalysis export,openbind_a71ev2a_c2_elabs_scored_top80percent,openbind_a71ev2a_c2_elabs_activefrags_only_scored_5.2plus,syndirella_placed

>  <smina_score_min>  (915) 
-4.84

$$$$
P559927
     RDKit          3D

 26 28  0  0  0  0  0  0  0  0999 V2000
   -6.5708   14.3185   11.5749 F   0  0  0  0  0  0  0  0  0  0  0  0
   -6.0017   14.1789   12.7897 C   0  0  0  0  0  0  0  0  0  0  0  0
   -6.4476   14.9146   13.8284 F   0  0  0  0  0  0  0  0  0  0  0  0
   -5.0065   13.3059   12.9536 C   0  0  0  0  0  0  0  0  0  0  0  0
   -4.3054   13.0676   14.2486 C   0  0  0  0  0  0  0  0  0  0  0  0
   -2.9064   13.2443   14.0080 O   0  0  0  0  0  0  0  0  0  0  0  0
   -2.2059   13.3169   15.1798 C   0  0  0  0  0  0  0  0  0  0  0  0
   -2.1255   12.2501   16.0712 C   0  0  0  0  0  0  0  0  0  0  0  0
   -1.3850   12.3851   17.2489 C   0  0  0  0  0  0  0  0  0  0  0  0
   -0.6984   13.5769   17.5387 C   0  0  0  0  0  0  0  0  0  0  0  0
    0.1280   13.6817   18.8359 C   0  0  2  0  0  0  0  0  0  0  0  0
    0.5051   15.0866   19.1224 N   0  0  0  0  0  0  0  0  0  0  0  0
    0.8765   15.3724   20.5027 C   0  0  0  0  0  0  0  0  0  0  0  0
    2.0909   14.6851   20.9848 C   0  0  0  0  0  0  0  0  0  0  0  0
    3.4525   14.7446   20.7665 C   0  0  0  0  0  0  0  0  0  0  0  0
    4.0399   13.6370   21.3846 C   0  0  0  0  0  0  0  0  0  0  0  0
    2.9746   12.9393   21.8602 C   0  0  0  0  0  0  0  0  0  0  0  0
    1.8256   13.6216   21.7775 O   0  0  0  0  0  0  0  0  0  0  0  0
    1.3201   12.7340   18.7732 C   0  0  0  0  0  0  0  0  0  0  0  0
    2.4336   13.0211   17.9749 C   0  0  0  0  0  0  0  0  0  0  0  0
    3.5675   12.2134   18.0096 C   0  0  0  0  0  0  0  0  0  0  0  0
    3.6046   11.0982   18.8370 C   0  0  0  0  0  0  0  0  0  0  0  0
    2.4990   10.7799   19.6087 C   0  0  0  0  0  0  0  0  0  0  0  0
    1.3537   11.5773   19.5658 C   0  0  0  0  0  0  0  0  0  0  0  0
   -0.7694   14.6198   16.5978 C   0  0  0  0  0  0  0  0  0  0  0  0
   -1.5143   14.4934   15.4277 C   0  0  0  0  0  0  0  0  0  0  0  0
  1  2  1  0
  2  3  1  0
  2  4  2  3
  4  5  1  0
  5  6  1  0
  6  7  1  0
  7  8  2  0
  8  9  1  0
  9 10  2  0
 10 11  1  0
 11 12  1  6
 12 13  1  0
 13 14  1  0
 14 15  2  0
 15 16  1  0
 16 17  2  0
 17 18  1  0
 11 19  1  0
 19 20  2  0
 20 21  1  0
 21 22  2  0
 22 23  1  0
 23 24  2  0
 10 25  1  0
 25 26  2  0
 26  7  1  0
 18 14  1  0
 24 19  1  0
M  END
>  <alias>  (916) 
None

>  <rmsd(smina/fragmenstein)>  (916) 
2.927

>  <smiles>  (916) 
FC(F)=CCOc1ccc([C@H](NCc2ccco2)c2ccccc2)cc1

>  <gnina_score>  (916) 
5.373

>  <inspiration_score>  (916) 
None

>  <energy_score>  (916) 
-18.960732

>  <distance_score>  (916) 
0.440957

>  <gnina_score_min>  (916) 
5.701

>  <inchikey>  (916) 
FIAUEYYXQMDTKH-OAQYLSRUSA-N

>  <exports>  (916) 
['/opt/xchem-fragalysis-2/maxwin/BulkDock/OUTPUTS/openbind_a71ev2a_c2_elabs_1LOUU54.sdf', '/opt/xchem-fragalysis-2/maxwin/BulkDock/OUTPUTS/openbind_a71ev2a_c2_elabs_1LSYIDY.sdf']

>  <name>  (916) 
P559927

>  <ref_pdb>  (916) 
A0836b

>  <subsites>  (916) 
None

>  <HIPPO Pose ID>  (916) 
559927

>  <ref_mols>  (916) 
A0836b

>  <HIPPO Compound ID>  (916) 
390391

>  <tags>  (916) 
openbind_a71ev2a_c2_elabs,syndirella_product,openbind_a71ev2a_c2_elabs_fragonly_scored_top80percent,BulkDock Fragalysis export,openbind_a71ev2a_c2_elabs_scored,openbind_a71ev2a_c2_elabs_scored_top80percent,openbind_a71ev2a_c2_elabs_activefrags_only_scored_5.2plus,openbind_a71ev2a_c2_elabs_activefrags_only_scored_5.5plus,syndirella_placed

>  <smina_score_min>  (916) 
-6.317

$$$$
P559935
     RDKit          3D

 26 29  0  0  0  0  0  0  0  0999 V2000
   -5.0237   13.3010   13.1626 C   0  0  0  0  0  0  0  0  0  0  0  0
   -4.2137   13.2979   14.2259 C   0  0  0  0  0  0  0  0  0  0  0  0
   -2.8505   13.1107   14.1394 O   0  0  0  0  0  0  0  0  0  0  0  0
   -2.1027   13.3499   15.2627 C   0  0  0  0  0  0  0  0  0  0  0  0
   -1.6113   12.2709   15.9941 C   0  0  0  0  0  0  0  0  0  0  0  0
   -0.8162   12.5004   17.1203 C   0  0  0  0  0  0  0  0  0  0  0  0
   -0.4818   13.8087   17.5012 C   0  0  0  0  0  0  0  0  0  0  0  0
    0.4030   14.1352   18.7048 C   0  0  1  0  0  0  0  0  0  0  0  0
   -0.4466   14.5157   19.8273 N   0  0  0  0  0  0  0  0  0  0  0  0
    0.1948   15.4165   20.7665 C   0  0  0  0  0  0  0  0  0  0  0  0
   -0.8388   16.1593   21.5454 C   0  0  0  0  0  0  0  0  0  0  0  0
   -1.2424   16.1210   22.8644 C   0  0  0  0  0  0  0  0  0  0  0  0
   -2.2437   17.1093   23.0116 C   0  0  0  0  0  0  0  0  0  0  0  0
   -2.3833   17.6962   21.7763 C   0  0  0  0  0  0  0  0  0  0  0  0
   -1.5239   17.1412   20.8848 O   0  0  0  0  0  0  0  0  0  0  0  0
    1.4950   13.1110   18.9834 C   0  0  0  0  0  0  0  0  0  0  0  0
    1.4107   12.1065   19.9537 C   0  0  0  0  0  0  0  0  0  0  0  0
    2.4383   11.1695   20.0900 C   0  0  0  0  0  0  0  0  0  0  0  0
    3.5490   11.2028   19.2588 C   0  0  0  0  0  0  0  0  0  0  0  0
    3.6494   12.1942   18.2952 C   0  0  0  0  0  0  0  0  0  0  0  0
    2.6374   13.1388   18.1653 C   0  0  0  0  0  0  0  0  0  0  0  0
   -0.9996   14.8808   16.7472 C   0  0  0  0  0  0  0  0  0  0  0  0
   -1.7935   14.6564   15.6258 C   0  0  0  0  0  0  0  0  0  0  0  0
   -4.9590   13.4875   15.5102 C   0  0  0  0  0  0  0  0  0  0  0  0
   -6.4113   13.2794   15.0733 C   0  0  0  0  0  0  0  0  0  0  0  0
   -6.4444   13.5109   13.5621 C   0  0  0  0  0  0  0  0  0  0  0  0
  1  2  2  0
  2  3  1  0
  3  4  1  0
  4  5  2  0
  5  6  1  0
  6  7  2  0
  7  8  1  0
  8  9  1  1
  9 10  1  0
 10 11  1  0
 11 12  2  0
 12 13  1  0
 13 14  2  0
 14 15  1  0
  8 16  1  0
 16 17  2  0
 17 18  1  0
 18 19  2  0
 19 20  1  0
 20 21  2  0
  7 22  1  0
 22 23  2  0
  2 24  1  0
 24 25  1  0
 25 26  1  0
 26  1  1  0
 23  4  1  0
 15 11  1  0
 21 16  1  0
M  END
>  <alias>  (917) 
None

>  <rmsd(smina/fragmenstein)>  (917) 
2.493

>  <smiles>  (917) 
C1=C(Oc2ccc([C@@H](NCc3ccco3)c3ccccc3)cc2)CCC1

>  <gnina_score>  (917) 
5.148

>  <inspiration_score>  (917) 
None

>  <energy_score>  (917) 
-24.061341

>  <distance_score>  (917) 
0.465456

>  <gnina_score_min>  (917) 
5.257

>  <inchikey>  (917) 
BHYPUVUIGAFBAP-QHCPKHFHSA-N

>  <exports>  (917) 
['/opt/xchem-fragalysis-2/maxwin/BulkDock/OUTPUTS/openbind_a71ev2a_c2_elabs_1LOUU54.sdf', '/opt/xchem-fragalysis-2/maxwin/BulkDock/OUTPUTS/openbind_a71ev2a_c2_elabs_1LSYIDY.sdf']

>  <name>  (917) 
P559935

>  <ref_pdb>  (917) 
A0836b

>  <subsites>  (917) 
None

>  <HIPPO Pose ID>  (917) 
559935

>  <ref_mols>  (917) 
A0836b

>  <HIPPO Compound ID>  (917) 
390394

>  <tags>  (917) 
openbind_a71ev2a_c2_elabs,syndirella_product,openbind_a71ev2a_c2_elabs_fragonly_scored_top80percent,openbind_a71ev2a_c2_elabs_scored,BulkDock Fragalysis export,openbind_a71ev2a_c2_elabs_scored_top80percent,openbind_a71ev2a_c2_elabs_activefrags_only_scored_5.2plus,syndirella_placed

>  <smina_score_min>  (917) 
-5.227

$$$$
P559947
     RDKit          3D

 26 29  0  0  0  0  0  0  0  0999 V2000
    3.5616   11.2242   19.1522 C   0  0  0  0  0  0  0  0  0  0  0  0
    3.5073   12.2283   18.1929 C   0  0  0  0  0  0  0  0  0  0  0  0
    2.4181   13.0972   18.1523 C   0  0  0  0  0  0  0  0  0  0  0  0
    1.3699   12.9850   19.0773 C   0  0  0  0  0  0  0  0  0  0  0  0
    0.1464   13.9042   19.0189 C   0  0  1  0  0  0  0  0  0  0  0  0
    0.5679   15.2834   19.3205 N   0  0  0  0  0  0  0  0  0  0  0  0
   -0.4994   16.2614   19.5082 C   0  0  0  0  0  0  0  0  0  0  0  0
   -1.4744   16.0177   20.6033 C   0  0  0  0  0  0  0  0  0  0  0  0
   -2.6511   15.2993   20.6775 C   0  0  0  0  0  0  0  0  0  0  0  0
   -3.2180   15.5875   21.9417 C   0  0  0  0  0  0  0  0  0  0  0  0
   -2.3469   16.4495   22.5647 C   0  0  0  0  0  0  0  0  0  0  0  0
   -1.2906   16.7233   21.7585 O   0  0  0  0  0  0  0  0  0  0  0  0
   -0.6406   13.6886   17.7146 C   0  0  0  0  0  0  0  0  0  0  0  0
   -0.7243   14.6352   16.6814 C   0  0  0  0  0  0  0  0  0  0  0  0
   -1.4751   14.3976   15.5285 C   0  0  0  0  0  0  0  0  0  0  0  0
   -2.1462   13.1903   15.3801 C   0  0  0  0  0  0  0  0  0  0  0  0
   -2.8692   12.8954   14.2540 O   0  0  0  0  0  0  0  0  0  0  0  0
   -3.8880   13.7003   13.8645 C   0  0  0  0  0  0  0  0  0  0  0  0
   -4.5873   13.3909   12.7156 C   0  0  0  0  0  0  0  0  0  0  0  0
   -5.8248   14.5466   12.4490 S   0  0  0  0  0  0  0  0  0  0  0  0
   -5.3376   15.3601   13.8773 C   0  0  0  0  0  0  0  0  0  0  0  0
   -4.3215   14.8370   14.5257 N   0  0  0  0  0  0  0  0  0  0  0  0
   -2.0339   12.2067   16.3580 C   0  0  0  0  0  0  0  0  0  0  0  0
   -1.2997   12.4602   17.5202 C   0  0  0  0  0  0  0  0  0  0  0  0
    1.4563   11.9849   20.0554 C   0  0  0  0  0  0  0  0  0  0  0  0
    2.5421   11.1106   20.0855 C   0  0  0  0  0  0  0  0  0  0  0  0
  1  2  2  0
  2  3  1  0
  3  4  2  0
  4  5  1  0
  5  6  1  6
  6  7  1  0
  7  8  1  0
  8  9  2  0
  9 10  1  0
 10 11  2  0
 11 12  1  0
  5 13  1  0
 13 14  2  0
 14 15  1  0
 15 16  2  0
 16 17  1  0
 17 18  1  0
 18 19  2  0
 19 20  1  0
 20 21  1  0
 21 22  2  0
 16 23  1  0
 23 24  2  0
  4 25  1  0
 25 26  2  0
 26  1  1  0
 12  8  1  0
 24 13  1  0
 22 18  1  0
M  END
>  <alias>  (918) 
None

>  <rmsd(smina/fragmenstein)>  (918) 
1.296

>  <smiles>  (918) 
c1ccc([C@@H](NCc2ccco2)c2ccc(Oc3cscn3)cc2)cc1

>  <gnina_score>  (918) 
5.208

>  <inspiration_score>  (918) 
None

>  <energy_score>  (918) 
-77.598081

>  <distance_score>  (918) 
0.382272

>  <gnina_score_min>  (918) 
5.365

>  <inchikey>  (918) 
HEGLEULBMMNJFL-OAQYLSRUSA-N

>  <exports>  (918) 
['/opt/xchem-fragalysis-2/maxwin/BulkDock/OUTPUTS/openbind_a71ev2a_c2_elabs_1LOUU54.sdf', '/opt/xchem-fragalysis-2/maxwin/BulkDock/OUTPUTS/openbind_a71ev2a_c2_elabs_1LSYIDY.sdf']

>  <name>  (918) 
P559947

>  <ref_pdb>  (918) 
A0836b

>  <subsites>  (918) 
None

>  <HIPPO Pose ID>  (918) 
559947

>  <ref_mols>  (918) 
A0836b

>  <HIPPO Compound ID>  (918) 
390399

>  <tags>  (918) 
openbind_a71ev2a_c2_elabs,syndirella_product,openbind_a71ev2a_c2_elabs_fragonly_scored_top80percent,openbind_a71ev2a_c2_elabs_scored,BulkDock Fragalysis export,openbind_a71ev2a_c2_elabs_scored_top80percent,openbind_a71ev2a_c2_elabs_activefrags_only_scored_5.2plus,syndirella_placed

>  <smina_score_min>  (918) 
-5.101

$$$$
P559954
     RDKit          3D

 26 28  0  0  0  0  0  0  0  0999 V2000
   -5.0599   13.5520   16.7153 O   0  0  0  0  0  0  0  0  0  0  0  0
   -5.2491   12.9526   15.4090 S   0  0  0  0  0  0  0  0  0  0  0  0
   -5.3399   11.5174   15.2266 O   0  0  0  0  0  0  0  0  0  0  0  0
   -7.0966   13.6415   14.8286 Cl  0  0  0  0  0  0  0  0  0  0  0  0
   -4.0919   13.6564   14.2205 C   0  0  0  0  0  0  0  0  0  0  0  0
   -2.7808   13.0632   14.1328 O   0  0  0  0  0  0  0  0  0  0  0  0
   -2.0585   13.2725   15.2716 C   0  0  0  0  0  0  0  0  0  0  0  0
   -1.7933   12.1823   16.0903 C   0  0  0  0  0  0  0  0  0  0  0  0
   -1.0765   12.3676   17.2732 C   0  0  0  0  0  0  0  0  0  0  0  0
   -0.5850   13.6352   17.6416 C   0  0  0  0  0  0  0  0  0  0  0  0
    0.1530   13.7739   18.9847 C   0  0  2  0  0  0  0  0  0  0  0  0
    0.5059   15.1387   19.3953 N   0  0  0  0  0  0  0  0  0  0  0  0
   -0.4841   15.7783   20.2503 C   0  0  0  0  0  0  0  0  0  0  0  0
   -1.7691   16.1313   19.5913 C   0  0  0  0  0  0  0  0  0  0  0  0
   -2.9703   15.4681   19.4411 C   0  0  0  0  0  0  0  0  0  0  0  0
   -3.8197   16.3349   18.7131 C   0  0  0  0  0  0  0  0  0  0  0  0
   -3.0918   17.4771   18.4801 C   0  0  0  0  0  0  0  0  0  0  0  0
   -1.8469   17.3649   19.0107 O   0  0  0  0  0  0  0  0  0  0  0  0
    1.3967   12.8954   19.0513 C   0  0  0  0  0  0  0  0  0  0  0  0
    1.4868   11.8802   20.0147 C   0  0  0  0  0  0  0  0  0  0  0  0
    2.5899   11.0311   20.0501 C   0  0  0  0  0  0  0  0  0  0  0  0
    3.6193   11.1855   19.1347 C   0  0  0  0  0  0  0  0  0  0  0  0
    3.5636   12.2125   18.1981 C   0  0  0  0  0  0  0  0  0  0  0  0
    2.4606   13.0621   18.1564 C   0  0  0  0  0  0  0  0  0  0  0  0
   -0.8220   14.7037   16.7604 C   0  0  0  0  0  0  0  0  0  0  0  0
   -1.5539   14.5281   15.5840 C   0  0  0  0  0  0  0  0  0  0  0  0
  1  2  2  0
  2  3  2  0
  2  4  1  0
  2  5  1  0
  5  6  1  0
  6  7  1  0
  7  8  2  0
  8  9  1  0
  9 10  2  0
 10 11  1  0
 11 12  1  6
 12 13  1  0
 13 14  1  0
 14 15  2  0
 15 16  1  0
 16 17  2  0
 17 18  1  0
 11 19  1  0
 19 20  2  0
 20 21  1  0
 21 22  2  0
 22 23  1  0
 23 24  2  0
 10 25  1  0
 25 26  2  0
 26  7  1  0
 18 14  1  0
 24 19  1  0
M  END
>  <alias>  (919) 
None

>  <rmsd(smina/fragmenstein)>  (919) 
1.346

>  <smiles>  (919) 
O=S(=O)(Cl)COc1ccc([C@H](NCc2ccco2)c2ccccc2)cc1

>  <gnina_score>  (919) 
5.087

>  <inspiration_score>  (919) 
None

>  <energy_score>  (919) 
-107.675008

>  <distance_score>  (919) 
0.253631

>  <gnina_score_min>  (919) 
5.261

>  <inchikey>  (919) 
FSYZXFMZMVOATH-LJQANCHMSA-N

>  <exports>  (919) 
['/opt/xchem-fragalysis-2/maxwin/BulkDock/OUTPUTS/openbind_a71ev2a_c2_elabs_1LOUU54.sdf', '/opt/xchem-fragalysis-2/maxwin/BulkDock/OUTPUTS/openbind_a71ev2a_c2_elabs_1LSYIDY.sdf']

>  <name>  (919) 
P559954

>  <ref_pdb>  (919) 
A0836b

>  <subsites>  (919) 
None

>  <HIPPO Pose ID>  (919) 
559954

>  <ref_mols>  (919) 
A0836b

>  <HIPPO Compound ID>  (919) 
390403

>  <tags>  (919) 
openbind_a71ev2a_c2_elabs,syndirella_product,openbind_a71ev2a_c2_elabs_fragonly_scored_top80percent,openbind_a71ev2a_c2_elabs_scored,BulkDock Fragalysis export,openbind_a71ev2a_c2_elabs_scored_top80percent,openbind_a71ev2a_c2_elabs_activefrags_only_scored_5.2plus,syndirella_placed

>  <smina_score_min>  (919) 
-4.803

$$$$
P559959
     RDKit          3D

 26 29  0  0  0  0  0  0  0  0999 V2000
    3.5648   11.2350   19.1664 C   0  0  0  0  0  0  0  0  0  0  0  0
    3.5034   12.2597   18.2294 C   0  0  0  0  0  0  0  0  0  0  0  0
    2.3844   13.0885   18.1756 C   0  0  0  0  0  0  0  0  0  0  0  0
    1.3070   12.9029   19.0531 C   0  0  0  0  0  0  0  0  0  0  0  0
    0.0553   13.7678   18.9630 C   0  0  1  0  0  0  0  0  0  0  0  0
    0.3703   15.1646   19.3230 N   0  0  0  0  0  0  0  0  0  0  0  0
    0.1590   15.4047   20.7493 C   0  0  0  0  0  0  0  0  0  0  0  0
   -1.2018   15.9671   21.0009 C   0  0  0  0  0  0  0  0  0  0  0  0
   -1.7159   17.2487   20.9605 C   0  0  0  0  0  0  0  0  0  0  0  0
   -3.0993   17.1366   21.2379 C   0  0  0  0  0  0  0  0  0  0  0  0
   -3.3445   15.7967   21.4195 C   0  0  0  0  0  0  0  0  0  0  0  0
   -2.2007   15.0812   21.2807 O   0  0  0  0  0  0  0  0  0  0  0  0
   -0.6579   13.6105   17.6080 C   0  0  0  0  0  0  0  0  0  0  0  0
   -0.7829   14.6428   16.6636 C   0  0  0  0  0  0  0  0  0  0  0  0
   -1.5081   14.4622   15.4842 C   0  0  0  0  0  0  0  0  0  0  0  0
   -2.1132   13.2359   15.2276 C   0  0  0  0  0  0  0  0  0  0  0  0
   -2.8217   12.9996   14.0787 O   0  0  0  0  0  0  0  0  0  0  0  0
   -3.8860   13.7444   13.7706 C   0  0  0  0  0  0  0  0  0  0  0  0
   -4.3651   14.7307   14.5022 N   0  0  0  0  0  0  0  0  0  0  0  0
   -5.4719   15.3242   13.9237 N   0  0  0  0  0  0  0  0  0  0  0  0
   -5.7881   14.7501   12.7839 C   0  0  0  0  0  0  0  0  0  0  0  0
   -4.7615   13.4592   12.3211 S   0  0  0  0  0  0  0  0  0  0  0  0
   -1.9519   12.1760   16.1144 C   0  0  0  0  0  0  0  0  0  0  0  0
   -1.2411   12.3670   17.2999 C   0  0  0  0  0  0  0  0  0  0  0  0
    1.3995   11.8854   20.0115 C   0  0  0  0  0  0  0  0  0  0  0  0
    2.5218   11.0602   20.0638 C   0  0  0  0  0  0  0  0  0  0  0  0
  1  2  2  0
  2  3  1  0
  3  4  2  0
  4  5  1  0
  5  6  1  6
  6  7  1  0
  7  8  1  0
  8  9  2  0
  9 10  1  0
 10 11  2  0
 11 12  1  0
  5 13  1  0
 13 14  2  0
 14 15  1  0
 15 16  2  0
 16 17  1  0
 17 18  1  0
 18 19  2  0
 19 20  1  0
 20 21  2  0
 21 22  1  0
 16 23  1  0
 23 24  2  0
  4 25  1  0
 25 26  2  0
 26  1  1  0
 12  8  1  0
 24 13  1  0
 22 18  1  0
M  END
>  <alias>  (920) 
None

>  <rmsd(smina/fragmenstein)>  (920) 
1.459

>  <smiles>  (920) 
c1ccc([C@@H](NCc2ccco2)c2ccc(Oc3nncs3)cc2)cc1

>  <gnina_score>  (920) 
5.171

>  <inspiration_score>  (920) 
None

>  <energy_score>  (920) 
-112.241317

>  <distance_score>  (920) 
0.375758

>  <gnina_score_min>  (920) 
5.329

>  <inchikey>  (920) 
HZVUMCMMGWQYEW-LJQANCHMSA-N

>  <exports>  (920) 
['/opt/xchem-fragalysis-2/maxwin/BulkDock/OUTPUTS/openbind_a71ev2a_c2_elabs_1LOUU54.sdf', '/opt/xchem-fragalysis-2/maxwin/BulkDock/OUTPUTS/openbind_a71ev2a_c2_elabs_1LSYIDY.sdf']

>  <name>  (920) 
P559959

>  <ref_pdb>  (920) 
A0836b

>  <subsites>  (920) 
None

>  <HIPPO Pose ID>  (920) 
559959

>  <ref_mols>  (920) 
A0836b

>  <HIPPO Compound ID>  (920) 
390405

>  <tags>  (920) 
openbind_a71ev2a_c2_elabs,syndirella_product,openbind_a71ev2a_c2_elabs_fragonly_scored_top80percent,openbind_a71ev2a_c2_elabs_scored,BulkDock Fragalysis export,openbind_a71ev2a_c2_elabs_scored_top80percent,openbind_a71ev2a_c2_elabs_activefrags_only_scored_5.2plus,syndirella_placed

>  <smina_score_min>  (920) 
-5.561

$$$$
P559964
     RDKit          3D

 26 29  0  0  0  0  0  0  0  0999 V2000
    3.5416   11.2472   19.2028 C   0  0  0  0  0  0  0  0  0  0  0  0
    2.5080   11.2259   20.1273 C   0  0  0  0  0  0  0  0  0  0  0  0
    1.5091   12.2019   20.1029 C   0  0  0  0  0  0  0  0  0  0  0  0
    1.5303   13.2245   19.1459 C   0  0  0  0  0  0  0  0  0  0  0  0
    0.4205   14.2680   18.9930 C   0  0  2  0  0  0  0  0  0  0  0  0
   -0.1850   14.6788   20.2708 N   0  0  0  0  0  0  0  0  0  0  0  0
   -1.2009   15.7180   20.1164 C   0  0  0  0  0  0  0  0  0  0  0  0
   -1.6275   16.2943   21.4251 C   0  0  0  0  0  0  0  0  0  0  0  0
   -1.2335   16.1210   22.7366 C   0  0  0  0  0  0  0  0  0  0  0  0
   -2.0211   16.9976   23.5193 C   0  0  0  0  0  0  0  0  0  0  0  0
   -2.8545   17.6461   22.6400 C   0  0  0  0  0  0  0  0  0  0  0  0
   -2.6244   17.2285   21.3692 O   0  0  0  0  0  0  0  0  0  0  0  0
   -0.5859   13.8645   17.9127 C   0  0  0  0  0  0  0  0  0  0  0  0
   -1.2339   12.6219   17.9109 C   0  0  0  0  0  0  0  0  0  0  0  0
   -2.1092   12.2682   16.8741 C   0  0  0  0  0  0  0  0  0  0  0  0
   -2.3624   13.1573   15.8300 C   0  0  0  0  0  0  0  0  0  0  0  0
   -3.1826   12.9451   14.7578 O   0  0  0  0  0  0  0  0  0  0  0  0
   -3.7178   11.6347   14.5656 C   0  0  0  0  0  0  0  0  0  0  0  0
   -4.1594   11.5186   13.1071 C   0  0  0  0  0  0  0  0  0  0  0  0
   -5.4968   12.2527   13.0468 C   0  0  0  0  0  0  0  0  0  0  0  0
   -6.0573   12.2275   14.4675 C   0  0  0  0  0  0  0  0  0  0  0  0
   -5.0391   11.4635   15.3106 C   0  0  0  0  0  0  0  0  0  0  0  0
   -1.7510   14.4091   15.8426 C   0  0  0  0  0  0  0  0  0  0  0  0
   -0.8728   14.7579   16.8686 C   0  0  0  0  0  0  0  0  0  0  0  0
    2.5904   13.2302   18.2240 C   0  0  0  0  0  0  0  0  0  0  0  0
    3.5862   12.2568   18.2526 C   0  0  0  0  0  0  0  0  0  0  0  0
  1  2  2  0
  2  3  1  0
  3  4  2  0
  4  5  1  0
  5  6  1  1
  6  7  1  0
  7  8  1  0
  8  9  2  0
  9 10  1  0
 10 11  2  0
 11 12  1  0
  5 13  1  0
 13 14  2  0
 14 15  1  0
 15 16  2  0
 16 17  1  0
 17 18  1  0
 18 19  1  0
 19 20  1  0
 20 21  1  0
 21 22  1  0
 16 23  1  0
 23 24  2  0
  4 25  1  0
 25 26  2  0
 26  1  1  0
 12  8  1  0
 24 13  1  0
 22 18  1  0
M  END
>  <alias>  (921) 
None

>  <rmsd(smina/fragmenstein)>  (921) 
2.56

>  <smiles>  (921) 
c1ccc([C@H](NCc2ccco2)c2ccc(OC3CCCC3)cc2)cc1

>  <gnina_score>  (921) 
5.194

>  <inspiration_score>  (921) 
None

>  <energy_score>  (921) 
-30.814484

>  <distance_score>  (921) 
0.787316

>  <gnina_score_min>  (921) 
5.214

>  <inchikey>  (921) 
VTZYIBQVPNJFNM-QHCPKHFHSA-N

>  <exports>  (921) 
['/opt/xchem-fragalysis-2/maxwin/BulkDock/OUTPUTS/openbind_a71ev2a_c2_elabs_1LOUU54.sdf', '/opt/xchem-fragalysis-2/maxwin/BulkDock/OUTPUTS/openbind_a71ev2a_c2_elabs_1LSYIDY.sdf']

>  <name>  (921) 
P559964

>  <ref_pdb>  (921) 
A0836b

>  <subsites>  (921) 
None

>  <HIPPO Pose ID>  (921) 
559964

>  <ref_mols>  (921) 
A0836b

>  <HIPPO Compound ID>  (921) 
390408

>  <tags>  (921) 
openbind_a71ev2a_c2_elabs,syndirella_product,openbind_a71ev2a_c2_elabs_fragonly_scored_top80percent,openbind_a71ev2a_c2_elabs_scored,BulkDock Fragalysis export,openbind_a71ev2a_c2_elabs_scored_top80percent,openbind_a71ev2a_c2_elabs_activefrags_only_scored_5.2plus,syndirella_placed

>  <smina_score_min>  (921) 
-5.698

$$$$
P559969
     RDKit          3D

 26 29  0  0  0  0  0  0  0  0999 V2000
    3.5318   11.2577   19.1561 C   0  0  0  0  0  0  0  0  0  0  0  0
    2.5175   11.0699   20.0836 C   0  0  0  0  0  0  0  0  0  0  0  0
    1.3946   11.8977   20.0831 C   0  0  0  0  0  0  0  0  0  0  0  0
    1.2703   12.9308   19.1464 C   0  0  0  0  0  0  0  0  0  0  0  0
    0.0156   13.8093   19.1206 C   0  0  1  0  0  0  0  0  0  0  0  0
    0.3839   15.1742   19.5424 N   0  0  0  0  0  0  0  0  0  0  0  0
   -0.6997   16.1444   19.6456 C   0  0  0  0  0  0  0  0  0  0  0  0
   -1.6446   15.9626   20.7758 C   0  0  0  0  0  0  0  0  0  0  0  0
   -2.8546   15.3114   20.8986 C   0  0  0  0  0  0  0  0  0  0  0  0
   -3.3625   15.6523   22.1750 C   0  0  0  0  0  0  0  0  0  0  0  0
   -2.4175   16.4615   22.7610 C   0  0  0  0  0  0  0  0  0  0  0  0
   -1.3695   16.6539   21.9206 O   0  0  0  0  0  0  0  0  0  0  0  0
   -0.7183   13.6579   17.7794 C   0  0  0  0  0  0  0  0  0  0  0  0
   -0.7006   14.6350   16.7726 C   0  0  0  0  0  0  0  0  0  0  0  0
   -1.3829   14.4570   15.5689 C   0  0  0  0  0  0  0  0  0  0  0  0
   -2.0802   13.2771   15.3488 C   0  0  0  0  0  0  0  0  0  0  0  0
   -2.7418   13.1097   14.1605 O   0  0  0  0  0  0  0  0  0  0  0  0
   -4.0752   13.3203   14.1204 C   0  0  0  0  0  0  0  0  0  0  0  0
   -4.9804   13.7767   15.0974 C   0  0  0  0  0  0  0  0  0  0  0  0
   -6.2308   13.8460   14.6259 N   0  0  0  0  0  0  0  0  0  0  0  0
   -6.1101   13.4322   13.3502 N   0  0  0  0  0  0  0  0  0  0  0  0
   -4.8322   13.1091   12.9968 C   0  0  0  0  0  0  0  0  0  0  0  0
   -2.0729   12.2617   16.3005 C   0  0  0  0  0  0  0  0  0  0  0  0
   -1.4036   12.4573   17.5112 C   0  0  0  0  0  0  0  0  0  0  0  0
    2.3186   13.1246   18.2333 C   0  0  0  0  0  0  0  0  0  0  0  0
    3.4392   12.2947   18.2362 C   0  0  0  0  0  0  0  0  0  0  0  0
  1  2  2  0
  2  3  1  0
  3  4  2  0
  4  5  1  0
  5  6  1  6
  6  7  1  0
  7  8  1  0
  8  9  2  0
  9 10  1  0
 10 11  2  0
 11 12  1  0
  5 13  1  0
 13 14  2  0
 14 15  1  0
 15 16  2  0
 16 17  1  0
 17 18  1  0
 18 19  1  0
 19 20  2  0
 20 21  1  0
 21 22  1  0
 16 23  1  0
 23 24  2  0
  4 25  1  0
 25 26  2  0
 26  1  1  0
 12  8  1  0
 24 13  1  0
 22 18  2  0
M  END
>  <alias>  (922) 
None

>  <rmsd(smina/fragmenstein)>  (922) 
1.171

>  <smiles>  (922) 
c1ccc([C@@H](NCc2ccco2)c2ccc(Oc3cn[nH]c3)cc2)cc1

>  <gnina_score>  (922) 
5.203

>  <inspiration_score>  (922) 
None

>  <energy_score>  (922) 
-39.214156

>  <distance_score>  (922) 
0.389261

>  <gnina_score_min>  (922) 
5.352

>  <inchikey>  (922) 
CCZKUAAZUNORAT-OAQYLSRUSA-N

>  <exports>  (922) 
['/opt/xchem-fragalysis-2/maxwin/BulkDock/OUTPUTS/openbind_a71ev2a_c2_elabs_1LOUU54.sdf', '/opt/xchem-fragalysis-2/maxwin/BulkDock/OUTPUTS/openbind_a71ev2a_c2_elabs_1LSYIDY.sdf']

>  <name>  (922) 
P559969

>  <ref_pdb>  (922) 
A0836b

>  <subsites>  (922) 
None

>  <HIPPO Pose ID>  (922) 
559969

>  <ref_mols>  (922) 
A0836b

>  <HIPPO Compound ID>  (922) 
390410

>  <tags>  (922) 
openbind_a71ev2a_c2_elabs,syndirella_product,openbind_a71ev2a_c2_elabs_fragonly_scored_top80percent,openbind_a71ev2a_c2_elabs_scored,BulkDock Fragalysis export,openbind_a71ev2a_c2_elabs_scored_top80percent,openbind_a71ev2a_c2_elabs_activefrags_only_scored_5.2plus,syndirella_placed

>  <smina_score_min>  (922) 
-5.081

$$$$
P559970
     RDKit          3D

 26 28  0  0  0  0  0  0  0  0999 V2000
   -4.8873   15.3707   12.9522 C   0  0  0  0  0  0  0  0  0  0  0  0
   -4.7721   13.8393   12.8632 C   0  0  0  0  0  0  0  0  0  0  0  0
   -4.0894   13.4671   11.5360 C   0  0  0  0  0  0  0  0  0  0  0  0
   -6.1798   13.2234   12.8979 C   0  0  0  0  0  0  0  0  0  0  0  0
   -3.9548   13.2947   14.0583 C   0  0  0  0  0  0  0  0  0  0  0  0
   -2.6331   13.8533   14.0375 O   0  0  0  0  0  0  0  0  0  0  0  0
   -1.9987   13.7076   15.2399 C   0  0  0  0  0  0  0  0  0  0  0  0
   -1.7518   12.4593   15.7996 C   0  0  0  0  0  0  0  0  0  0  0  0
   -1.1131   12.3783   17.0357 C   0  0  0  0  0  0  0  0  0  0  0  0
   -0.6977   13.5377   17.7226 C   0  0  0  0  0  0  0  0  0  0  0  0
   -0.0460   13.3716   19.0968 C   0  0  2  0  0  0  0  0  0  0  0  0
   -0.0715   14.5709   19.9507 N   0  0  0  0  0  0  0  0  0  0  0  0
    1.1414   15.3751   19.9520 C   0  0  0  0  0  0  0  0  0  0  0  0
    2.0972   14.9731   21.0252 C   0  0  0  0  0  0  0  0  0  0  0  0
    3.4113   14.5515   21.0208 C   0  0  0  0  0  0  0  0  0  0  0  0
    3.7732   14.3542   22.3712 C   0  0  0  0  0  0  0  0  0  0  0  0
    2.6509   14.6268   23.1139 C   0  0  0  0  0  0  0  0  0  0  0  0
    1.6353   15.0300   22.3097 O   0  0  0  0  0  0  0  0  0  0  0  0
    1.2631   12.5992   19.0707 C   0  0  0  0  0  0  0  0  0  0  0  0
    2.2618   12.8461   18.1171 C   0  0  0  0  0  0  0  0  0  0  0  0
    3.4492   12.1180   18.1291 C   0  0  0  0  0  0  0  0  0  0  0  0
    3.6404   11.1153   19.0746 C   0  0  0  0  0  0  0  0  0  0  0  0
    2.6713   10.8773   20.0358 C   0  0  0  0  0  0  0  0  0  0  0  0
    1.4958   11.6198   20.0425 C   0  0  0  0  0  0  0  0  0  0  0  0
   -0.9176   14.7814   17.1162 C   0  0  0  0  0  0  0  0  0  0  0  0
   -1.5583   14.8649   15.8770 C   0  0  0  0  0  0  0  0  0  0  0  0
  1  2  1  0
  2  3  1  0
  2  4  1  0
  2  5  1  0
  5  6  1  0
  6  7  1  0
  7  8  2  0
  8  9  1  0
  9 10  2  0
 10 11  1  0
 11 12  1  6
 12 13  1  0
 13 14  1  0
 14 15  2  0
 15 16  1  0
 16 17  2  0
 17 18  1  0
 11 19  1  0
 19 20  2  0
 20 21  1  0
 21 22  2  0
 22 23  1  0
 23 24  2  0
 10 25  1  0
 25 26  2  0
 26  7  1  0
 18 14  1  0
 24 19  1  0
M  END
>  <alias>  (923) 
None

>  <rmsd(smina/fragmenstein)>  (923) 
1.282

>  <smiles>  (923) 
CC(C)(C)COc1ccc([C@H](NCc2ccco2)c2ccccc2)cc1

>  <gnina_score>  (923) 
5.365

>  <inspiration_score>  (923) 
None

>  <energy_score>  (923) 
-41.604751

>  <distance_score>  (923) 
0.478582

>  <gnina_score_min>  (923) 
5.312

>  <inchikey>  (923) 
BNEGVZVGEBPUOB-JOCHJYFZSA-N

>  <exports>  (923) 
['/opt/xchem-fragalysis-2/maxwin/BulkDock/OUTPUTS/openbind_a71ev2a_c2_elabs_1LOUU54.sdf', '/opt/xchem-fragalysis-2/maxwin/BulkDock/OUTPUTS/openbind_a71ev2a_c2_elabs_1LSYIDY.sdf']

>  <name>  (923) 
P559970

>  <ref_pdb>  (923) 
A0836b

>  <subsites>  (923) 
None

>  <HIPPO Pose ID>  (923) 
559970

>  <ref_mols>  (923) 
A0836b

>  <HIPPO Compound ID>  (923) 
390411

>  <tags>  (923) 
openbind_a71ev2a_c2_elabs,syndirella_product,openbind_a71ev2a_c2_elabs_fragonly_scored_top80percent,openbind_a71ev2a_c2_elabs_scored,BulkDock Fragalysis export,openbind_a71ev2a_c2_elabs_scored_top80percent,openbind_a71ev2a_c2_elabs_activefrags_only_scored_5.2plus,syndirella_placed

>  <smina_score_min>  (923) 
-5.73

$$$$
P559979
     RDKit          3D

 26 29  0  0  0  0  0  0  0  0999 V2000
    3.5888   11.3044   19.1294 C   0  0  0  0  0  0  0  0  0  0  0  0
    3.4363   12.3472   18.2210 C   0  0  0  0  0  0  0  0  0  0  0  0
    2.2709   13.1148   18.2240 C   0  0  0  0  0  0  0  0  0  0  0  0
    1.2398   12.8401   19.1288 C   0  0  0  0  0  0  0  0  0  0  0  0
   -0.1138   13.5322   19.0687 C   0  0  1  0  0  0  0  0  0  0  0  0
   -0.1218   14.8598   19.7315 N   0  0  0  0  0  0  0  0  0  0  0  0
   -1.4949   15.1246   20.2028 C   0  0  0  0  0  0  0  0  0  0  0  0
   -1.6699   16.4906   20.7610 C   0  0  0  0  0  0  0  0  0  0  0  0
   -1.9011   17.7196   20.1785 C   0  0  0  0  0  0  0  0  0  0  0  0
   -2.1330   18.6275   21.2376 C   0  0  0  0  0  0  0  0  0  0  0  0
   -2.0173   17.8999   22.3986 C   0  0  0  0  0  0  0  0  0  0  0  0
   -1.7292   16.6025   22.1209 O   0  0  0  0  0  0  0  0  0  0  0  0
   -0.7238   13.5304   17.6627 C   0  0  0  0  0  0  0  0  0  0  0  0
   -1.2089   12.3212   17.1310 C   0  0  0  0  0  0  0  0  0  0  0  0
   -1.8262   12.2869   15.8819 C   0  0  0  0  0  0  0  0  0  0  0  0
   -1.9741   13.4679   15.1601 C   0  0  0  0  0  0  0  0  0  0  0  0
   -2.6069   13.4537   13.9446 O   0  0  0  0  0  0  0  0  0  0  0  0
   -3.9639   13.4456   13.8931 C   0  0  0  0  0  0  0  0  0  0  0  0
   -4.8922   13.5773   14.9689 C   0  0  0  0  0  0  0  0  0  0  0  0
   -6.1983   13.5293   14.5307 C   0  0  0  0  0  0  0  0  0  0  0  0
   -6.3011   13.3334   12.8334 S   0  0  0  0  0  0  0  0  0  0  0  0
   -4.5968   13.3122   12.6782 C   0  0  0  0  0  0  0  0  0  0  0  0
   -1.4555   14.6672   15.6382 C   0  0  0  0  0  0  0  0  0  0  0  0
   -0.8285   14.6948   16.8837 C   0  0  0  0  0  0  0  0  0  0  0  0
    1.4411   11.8255   20.0776 C   0  0  0  0  0  0  0  0  0  0  0  0
    2.6027   11.0597   20.0707 C   0  0  0  0  0  0  0  0  0  0  0  0
  1  2  2  0
  2  3  1  0
  3  4  2  0
  4  5  1  0
  5  6  1  6
  6  7  1  0
  7  8  1  0
  8  9  2  0
  9 10  1  0
 10 11  2  0
 11 12  1  0
  5 13  1  0
 13 14  2  0
 14 15  1  0
 15 16  2  0
 16 17  1  0
 17 18  1  0
 18 19  1  0
 19 20  2  0
 20 21  1  0
 21 22  1  0
 16 23  1  0
 23 24  2  0
  4 25  1  0
 25 26  2  0
 26  1  1  0
 12  8  1  0
 24 13  1  0
 22 18  2  0
M  END
>  <alias>  (924) 
None

>  <rmsd(smina/fragmenstein)>  (924) 
1.082

>  <smiles>  (924) 
c1ccc([C@@H](NCc2ccco2)c2ccc(Oc3ccsc3)cc2)cc1

>  <gnina_score>  (924) 
5.179

>  <inspiration_score>  (924) 
None

>  <energy_score>  (924) 
-39.831088

>  <distance_score>  (924) 
0.440826

>  <gnina_score_min>  (924) 
5.21

>  <inchikey>  (924) 
CBNBMMGAHBCCBN-JOCHJYFZSA-N

>  <exports>  (924) 
['/opt/xchem-fragalysis-2/maxwin/BulkDock/OUTPUTS/openbind_a71ev2a_c2_elabs_1LOUU54.sdf', '/opt/xchem-fragalysis-2/maxwin/BulkDock/OUTPUTS/openbind_a71ev2a_c2_elabs_1LSYIDY.sdf']

>  <name>  (924) 
P559979

>  <ref_pdb>  (924) 
A0836b

>  <subsites>  (924) 
None

>  <HIPPO Pose ID>  (924) 
559979

>  <ref_mols>  (924) 
A0836b

>  <HIPPO Compound ID>  (924) 
390417

>  <tags>  (924) 
openbind_a71ev2a_c2_elabs,syndirella_product,openbind_a71ev2a_c2_elabs_fragonly_scored_top80percent,openbind_a71ev2a_c2_elabs_scored,BulkDock Fragalysis export,openbind_a71ev2a_c2_elabs_scored_top80percent,openbind_a71ev2a_c2_elabs_activefrags_only_scored_5.2plus,syndirella_placed

>  <smina_score_min>  (924) 
-5.103

$$$$
P559982
     RDKit          3D

 26 28  0  0  0  0  0  0  0  0999 V2000
   -4.7424   13.4827   10.5540 C   0  0  0  0  0  0  0  0  0  0  0  0
   -4.1912   13.3318   11.8620 O   0  0  0  0  0  0  0  0  0  0  0  0
   -3.5367   12.1534   12.0604 C   0  0  0  0  0  0  0  0  0  0  0  0
   -3.4452   11.2585   11.2267 O   0  0  0  0  0  0  0  0  0  0  0  0
   -2.9852   12.0436   13.4734 C   0  0  0  0  0  0  0  0  0  0  0  0
   -2.6023   13.3106   13.9938 O   0  0  0  0  0  0  0  0  0  0  0  0
   -1.9819   13.3124   15.2113 C   0  0  0  0  0  0  0  0  0  0  0  0
   -1.4467   14.5420   15.5900 C   0  0  0  0  0  0  0  0  0  0  0  0
   -0.7651   14.6811   16.8022 C   0  0  0  0  0  0  0  0  0  0  0  0
   -0.6212   13.5977   17.6798 C   0  0  0  0  0  0  0  0  0  0  0  0
    0.1239   13.6798   19.0275 C   0  0  2  0  0  0  0  0  0  0  0  0
    0.4599   15.0662   19.4323 N   0  0  0  0  0  0  0  0  0  0  0  0
    0.5350   15.2192   20.8895 C   0  0  0  0  0  0  0  0  0  0  0  0
    1.8398   14.8888   21.5246 C   0  0  0  0  0  0  0  0  0  0  0  0
    3.1167   14.6310   21.0680 C   0  0  0  0  0  0  0  0  0  0  0  0
    3.9262   14.4061   22.2019 C   0  0  0  0  0  0  0  0  0  0  0  0
    3.1015   14.5505   23.2896 C   0  0  0  0  0  0  0  0  0  0  0  0
    1.8412   14.8639   22.8947 O   0  0  0  0  0  0  0  0  0  0  0  0
    1.3453   12.7755   19.0322 C   0  0  0  0  0  0  0  0  0  0  0  0
    2.3848   12.9566   18.1092 C   0  0  0  0  0  0  0  0  0  0  0  0
    3.5129   12.1412   18.1410 C   0  0  0  0  0  0  0  0  0  0  0  0
    3.6102   11.1233   19.0845 C   0  0  0  0  0  0  0  0  0  0  0  0
    2.5940   10.9405   20.0103 C   0  0  0  0  0  0  0  0  0  0  0  0
    1.4662   11.7572   19.9868 C   0  0  0  0  0  0  0  0  0  0  0  0
   -1.1822   12.3682   17.2896 C   0  0  0  0  0  0  0  0  0  0  0  0
   -1.8505   12.2231   16.0683 C   0  0  0  0  0  0  0  0  0  0  0  0
  1  2  1  0
  2  3  1  0
  3  4  2  0
  3  5  1  0
  5  6  1  0
  6  7  1  0
  7  8  2  0
  8  9  1  0
  9 10  2  0
 10 11  1  0
 11 12  1  6
 12 13  1  0
 13 14  1  0
 14 15  2  0
 15 16  1  0
 16 17  2  0
 17 18  1  0
 11 19  1  0
 19 20  2  0
 20 21  1  0
 21 22  2  0
 22 23  1  0
 23 24  2  0
 10 25  1  0
 25 26  2  0
 26  7  1  0
 18 14  1  0
 24 19  1  0
M  END
>  <alias>  (925) 
None

>  <rmsd(smina/fragmenstein)>  (925) 
1.677

>  <smiles>  (925) 
COC(=O)COc1ccc([C@H](NCc2ccco2)c2ccccc2)cc1

>  <gnina_score>  (925) 
5.256

>  <inspiration_score>  (925) 
None

>  <energy_score>  (925) 
-35.215935

>  <distance_score>  (925) 
0.568029

>  <gnina_score_min>  (925) 
5.609

>  <inchikey>  (925) 
PCAAYYCUOIIYHT-OAQYLSRUSA-N

>  <exports>  (925) 
['/opt/xchem-fragalysis-2/maxwin/BulkDock/OUTPUTS/openbind_a71ev2a_c2_elabs_1LOUU54.sdf', '/opt/xchem-fragalysis-2/maxwin/BulkDock/OUTPUTS/openbind_a71ev2a_c2_elabs_1LSYIDY.sdf']

>  <name>  (925) 
P559982

>  <ref_pdb>  (925) 
A0836b

>  <subsites>  (925) 
None

>  <HIPPO Pose ID>  (925) 
559982

>  <ref_mols>  (925) 
A0836b

>  <HIPPO Compound ID>  (925) 
390419

>  <tags>  (925) 
openbind_a71ev2a_c2_elabs,syndirella_product,openbind_a71ev2a_c2_elabs_fragonly_scored_top80percent,BulkDock Fragalysis export,openbind_a71ev2a_c2_elabs_scored,openbind_a71ev2a_c2_elabs_scored_top80percent,openbind_a71ev2a_c2_elabs_activefrags_only_scored_5.2plus,openbind_a71ev2a_c2_elabs_activefrags_only_scored_5.5plus,syndirella_placed

>  <smina_score_min>  (925) 
-5.808

$$$$
P559996
     RDKit          3D

 26 28  0  0  0  0  0  0  0  0999 V2000
   -6.2331   12.1139   14.3355 C   0  0  0  0  0  0  0  0  0  0  0  0
   -4.7231   12.2298   14.5026 C   0  0  0  0  0  0  0  0  0  0  0  0
   -4.0778   13.5331   13.9671 C   0  0  0  0  0  0  0  0  0  0  0  0
   -4.5774   14.7774   14.7226 C   0  0  0  0  0  0  0  0  0  0  0  0
   -4.4203   13.7205   12.4765 C   0  0  0  0  0  0  0  0  0  0  0  0
   -2.6263   13.4316   13.9634 O   0  0  0  0  0  0  0  0  0  0  0  0
   -2.0068   13.4563   15.1788 C   0  0  0  0  0  0  0  0  0  0  0  0
   -1.7991   12.2768   15.8841 C   0  0  0  0  0  0  0  0  0  0  0  0
   -1.1736   12.3170   17.1295 C   0  0  0  0  0  0  0  0  0  0  0  0
   -0.7154   13.5322   17.6676 C   0  0  0  0  0  0  0  0  0  0  0  0
   -0.1040   13.5395   19.0721 C   0  0  2  0  0  0  0  0  0  0  0  0
   -0.1122   14.8688   19.7323 N   0  0  0  0  0  0  0  0  0  0  0  0
   -1.4850   15.1310   20.2067 C   0  0  0  0  0  0  0  0  0  0  0  0
   -1.6649   16.5010   20.7537 C   0  0  0  0  0  0  0  0  0  0  0  0
   -1.9029   17.7238   20.1610 C   0  0  0  0  0  0  0  0  0  0  0  0
   -2.1381   18.6397   21.2124 C   0  0  0  0  0  0  0  0  0  0  0  0
   -2.0183   17.9224   22.3794 C   0  0  0  0  0  0  0  0  0  0  0  0
   -1.7233   16.6243   22.1127 O   0  0  0  0  0  0  0  0  0  0  0  0
    1.2492   12.8467   19.1338 C   0  0  0  0  0  0  0  0  0  0  0  0
    1.4488   11.8320   20.0830 C   0  0  0  0  0  0  0  0  0  0  0  0
    2.6077   11.0622   20.0741 C   0  0  0  0  0  0  0  0  0  0  0  0
    3.5928   11.3034   19.1309 C   0  0  0  0  0  0  0  0  0  0  0  0
    3.4421   12.3464   18.2223 C   0  0  0  0  0  0  0  0  0  0  0  0
    2.2793   13.1178   18.2269 C   0  0  0  0  0  0  0  0  0  0  0  0
   -0.8444   14.6941   16.8914 C   0  0  0  0  0  0  0  0  0  0  0  0
   -1.4847   14.6564   15.6522 C   0  0  0  0  0  0  0  0  0  0  0  0
  1  2  1  0
  2  3  1  0
  3  4  1  0
  3  5  1  0
  3  6  1  0
  6  7  1  0
  7  8  2  0
  8  9  1  0
  9 10  2  0
 10 11  1  0
 11 12  1  6
 12 13  1  0
 13 14  1  0
 14 15  2  0
 15 16  1  0
 16 17  2  0
 17 18  1  0
 11 19  1  0
 19 20  2  0
 20 21  1  0
 21 22  2  0
 22 23  1  0
 23 24  2  0
 10 25  1  0
 25 26  2  0
 26  7  1  0
 18 14  1  0
 24 19  1  0
M  END
>  <alias>  (926) 
None

>  <rmsd(smina/fragmenstein)>  (926) 
1.947

>  <smiles>  (926) 
CCC(C)(C)Oc1ccc([C@H](NCc2ccco2)c2ccccc2)cc1

>  <gnina_score>  (926) 
5.118

>  <inspiration_score>  (926) 
None

>  <energy_score>  (926) 
-32.756747

>  <distance_score>  (926) 
0.425733

>  <gnina_score_min>  (926) 
5.277

>  <inchikey>  (926) 
IELOUVQEIHKDTL-JOCHJYFZSA-N

>  <exports>  (926) 
['/opt/xchem-fragalysis-2/maxwin/BulkDock/OUTPUTS/openbind_a71ev2a_c2_elabs_1LOUU54.sdf', '/opt/xchem-fragalysis-2/maxwin/BulkDock/OUTPUTS/openbind_a71ev2a_c2_elabs_1LSYIDY.sdf']

>  <name>  (926) 
P559996

>  <ref_pdb>  (926) 
A0836b

>  <subsites>  (926) 
None

>  <HIPPO Pose ID>  (926) 
559996

>  <ref_mols>  (926) 
A0836b

>  <HIPPO Compound ID>  (926) 
390427

>  <tags>  (926) 
openbind_a71ev2a_c2_elabs,syndirella_product,openbind_a71ev2a_c2_elabs_fragonly_scored_top80percent,openbind_a71ev2a_c2_elabs_scored,BulkDock Fragalysis export,openbind_a71ev2a_c2_elabs_scored_top80percent,openbind_a71ev2a_c2_elabs_activefrags_only_scored_5.2plus,syndirella_placed

>  <smina_score_min>  (926) 
-5.065

$$$$
P560030
     RDKit          3D

 26 29  0  0  0  0  0  0  0  0999 V2000
    3.5236   11.2162   19.2678 C   0  0  0  0  0  0  0  0  0  0  0  0
    3.6457   12.1967   18.2948 C   0  0  0  0  0  0  0  0  0  0  0  0
    2.6387   13.1418   18.1331 C   0  0  0  0  0  0  0  0  0  0  0  0
    1.4808   13.1211   18.9264 C   0  0  0  0  0  0  0  0  0  0  0  0
    0.3924   14.1422   18.6355 C   0  0  2  0  0  0  0  0  0  0  0  0
   -0.4892   14.4784   19.7550 N   0  0  0  0  0  0  0  0  0  0  0  0
    0.1674   15.3234   20.7467 C   0  0  0  0  0  0  0  0  0  0  0  0
   -0.8563   16.1192   21.4872 C   0  0  0  0  0  0  0  0  0  0  0  0
   -1.2674   16.1545   22.8030 C   0  0  0  0  0  0  0  0  0  0  0  0
   -2.2634   17.1551   22.8885 C   0  0  0  0  0  0  0  0  0  0  0  0
   -2.3974   17.6696   21.6204 C   0  0  0  0  0  0  0  0  0  0  0  0
   -1.5414   17.0562   20.7635 O   0  0  0  0  0  0  0  0  0  0  0  0
   -0.4689   13.8053   17.4161 C   0  0  0  0  0  0  0  0  0  0  0  0
   -0.9131   14.8621   16.5980 C   0  0  0  0  0  0  0  0  0  0  0  0
   -1.7186   14.6233   15.4890 C   0  0  0  0  0  0  0  0  0  0  0  0
   -2.1098   13.3193   15.2029 C   0  0  0  0  0  0  0  0  0  0  0  0
   -2.8782   13.0689   14.0961 O   0  0  0  0  0  0  0  0  0  0  0  0
   -4.2063   13.2594   14.1154 C   0  0  0  0  0  0  0  0  0  0  0  0
   -5.0573   13.1776   13.0256 C   0  0  0  0  0  0  0  0  0  0  0  0
   -6.4000   13.4052   13.2614 N   0  0  0  0  0  0  0  0  0  0  0  0
   -6.5676   13.6437   14.5418 C   0  0  0  0  0  0  0  0  0  0  0  0
   -5.1572   13.6182   15.5104 S   0  0  0  0  0  0  0  0  0  0  0  0
   -1.6863   12.2545   15.9952 C   0  0  0  0  0  0  0  0  0  0  0  0
   -0.8816   12.5000   17.1098 C   0  0  0  0  0  0  0  0  0  0  0  0
    1.3727   12.1288   19.9060 C   0  0  0  0  0  0  0  0  0  0  0  0
    2.3951   11.1929   20.0761 C   0  0  0  0  0  0  0  0  0  0  0  0
  1  2  2  0
  2  3  1  0
  3  4  2  0
  4  5  1  0
  5  6  1  1
  6  7  1  0
  7  8  1  0
  8  9  2  0
  9 10  1  0
 10 11  2  0
 11 12  1  0
  5 13  1  0
 13 14  2  0
 14 15  1  0
 15 16  2  0
 16 17  1  0
 17 18  1  0
 18 19  2  0
 19 20  1  0
 20 21  2  0
 21 22  1  0
 16 23  1  0
 23 24  2  0
  4 25  1  0
 25 26  2  0
 26  1  1  0
 12  8  1  0
 24 13  1  0
 22 18  1  0
M  END
>  <alias>  (927) 
None

>  <rmsd(smina/fragmenstein)>  (927) 
1.634

>  <smiles>  (927) 
c1ccc([C@H](NCc2ccco2)c2ccc(Oc3cncs3)cc2)cc1

>  <gnina_score>  (927) 
5.212

>  <inspiration_score>  (927) 
None

>  <energy_score>  (927) 
-83.914792

>  <distance_score>  (927) 
0.498131

>  <gnina_score_min>  (927) 
5.312

>  <inchikey>  (927) 
KAAFLYKBGVLEOO-NRFANRHFSA-N

>  <exports>  (927) 
['/opt/xchem-fragalysis-2/maxwin/BulkDock/OUTPUTS/openbind_a71ev2a_c2_elabs_1LOUU54.sdf', '/opt/xchem-fragalysis-2/maxwin/BulkDock/OUTPUTS/openbind_a71ev2a_c2_elabs_1LSYIDY.sdf']

>  <name>  (927) 
P560030

>  <ref_pdb>  (927) 
A0836b

>  <subsites>  (927) 
None

>  <HIPPO Pose ID>  (927) 
560030

>  <ref_mols>  (927) 
A0836b

>  <HIPPO Compound ID>  (927) 
390442

>  <tags>  (927) 
openbind_a71ev2a_c2_elabs,syndirella_product,openbind_a71ev2a_c2_elabs_fragonly_scored_top80percent,openbind_a71ev2a_c2_elabs_scored,BulkDock Fragalysis export,openbind_a71ev2a_c2_elabs_scored_top80percent,openbind_a71ev2a_c2_elabs_activefrags_only_scored_5.2plus,syndirella_placed

>  <smina_score_min>  (927) 
-5.246

$$$$
P560034
     RDKit          3D

 26 29  0  0  0  0  0  0  0  0999 V2000
    3.5764   11.1861   19.2248 C   0  0  0  0  0  0  0  0  0  0  0  0
    3.5608   12.2722   18.3619 C   0  0  0  0  0  0  0  0  0  0  0  0
    2.4606   13.1247   18.3456 C   0  0  0  0  0  0  0  0  0  0  0  0
    1.3344   12.8830   19.1587 C   0  0  0  0  0  0  0  0  0  0  0  0
    0.1089   13.8137   19.1063 C   0  0  1  0  0  0  0  0  0  0  0  0
    0.6264   15.1398   19.4882 N   0  0  0  0  0  0  0  0  0  0  0  0
   -0.2663   16.2741   19.5677 C   0  0  0  0  0  0  0  0  0  0  0  0
   -1.2148   16.2696   20.7134 C   0  0  0  0  0  0  0  0  0  0  0  0
   -2.5795   16.4492   20.8228 C   0  0  0  0  0  0  0  0  0  0  0  0
   -2.8780   16.4428   22.2070 C   0  0  0  0  0  0  0  0  0  0  0  0
   -1.6782   16.2711   22.8536 C   0  0  0  0  0  0  0  0  0  0  0  0
   -0.6675   16.1560   21.9568 O   0  0  0  0  0  0  0  0  0  0  0  0
   -0.6861   13.7158   17.7816 C   0  0  0  0  0  0  0  0  0  0  0  0
   -0.3080   12.8776   16.7171 C   0  0  0  0  0  0  0  0  0  0  0  0
   -1.0541   12.7904   15.5345 C   0  0  0  0  0  0  0  0  0  0  0  0
   -2.2115   13.5363   15.3891 C   0  0  0  0  0  0  0  0  0  0  0  0
   -2.8810   13.4752   14.1951 O   0  0  0  0  0  0  0  0  0  0  0  0
   -4.1605   13.0834   14.1297 C   0  0  0  0  0  0  0  0  0  0  0  0
   -5.0551   13.3468   13.1089 C   0  0  0  0  0  0  0  0  0  0  0  0
   -6.3180   12.7462   13.3670 C   0  0  0  0  0  0  0  0  0  0  0  0
   -6.4330   12.0455   14.4898 N   0  0  0  0  0  0  0  0  0  0  0  0
   -4.9680   12.0736   15.2705 S   0  0  0  0  0  0  0  0  0  0  0  0
   -2.6317   14.3593   16.4233 C   0  0  0  0  0  0  0  0  0  0  0  0
   -1.8996   14.4045   17.6153 C   0  0  0  0  0  0  0  0  0  0  0  0
    1.3788   11.7985   20.0375 C   0  0  0  0  0  0  0  0  0  0  0  0
    2.5000   10.9677   20.0731 C   0  0  0  0  0  0  0  0  0  0  0  0
  1  2  2  0
  2  3  1  0
  3  4  2  0
  4  5  1  0
  5  6  1  6
  6  7  1  0
  7  8  1  0
  8  9  2  0
  9 10  1  0
 10 11  2  0
 11 12  1  0
  5 13  1  0
 13 14  2  0
 14 15  1  0
 15 16  2  0
 16 17  1  0
 17 18  1  0
 18 19  2  0
 19 20  1  0
 20 21  2  0
 21 22  1  0
 16 23  1  0
 23 24  2  0
  4 25  1  0
 25 26  2  0
 26  1  1  0
 12  8  1  0
 24 13  1  0
 22 18  1  0
M  END
>  <alias>  (928) 
None

>  <rmsd(smina/fragmenstein)>  (928) 
1.544

>  <smiles>  (928) 
c1ccc([C@@H](NCc2ccco2)c2ccc(Oc3ccns3)cc2)cc1

>  <gnina_score>  (928) 
5.115

>  <inspiration_score>  (928) 
None

>  <energy_score>  (928) 
-38.736151

>  <distance_score>  (928) 
0.589601

>  <gnina_score_min>  (928) 
5.347

>  <inchikey>  (928) 
AEXZDSPIXAXPFA-OAQYLSRUSA-N

>  <exports>  (928) 
['/opt/xchem-fragalysis-2/maxwin/BulkDock/OUTPUTS/openbind_a71ev2a_c2_elabs_1LOUU54.sdf', '/opt/xchem-fragalysis-2/maxwin/BulkDock/OUTPUTS/openbind_a71ev2a_c2_elabs_1LSYIDY.sdf']

>  <name>  (928) 
P560034

>  <ref_pdb>  (928) 
A0836b

>  <subsites>  (928) 
None

>  <HIPPO Pose ID>  (928) 
560034

>  <ref_mols>  (928) 
A0836b

>  <HIPPO Compound ID>  (928) 
390444

>  <tags>  (928) 
openbind_a71ev2a_c2_elabs,syndirella_product,openbind_a71ev2a_c2_elabs_fragonly_scored_top80percent,openbind_a71ev2a_c2_elabs_scored,BulkDock Fragalysis export,openbind_a71ev2a_c2_elabs_scored_top80percent,openbind_a71ev2a_c2_elabs_activefrags_only_scored_5.2plus,syndirella_placed

>  <smina_score_min>  (928) 
-4.901

$$$$
P560044
     RDKit          3D

 26 28  0  0  0  0  0  0  0  0999 V2000
   -4.6539   10.5083   13.5236 C   0  0  0  0  0  0  0  0  0  0  0  0
   -5.7591   11.2931   13.9511 O   0  0  0  0  0  0  0  0  0  0  0  0
   -5.4357   12.2324   14.9903 C   0  0  2  0  0  0  0  0  0  0  0  0
   -6.7709   12.7676   15.4998 C   0  0  0  0  0  0  0  0  0  0  0  0
   -4.5626   13.3960   14.4803 C   0  0  0  0  0  0  0  0  0  0  0  0
   -3.1864   12.9982   14.3803 O   0  0  0  0  0  0  0  0  0  0  0  0
   -2.4623   13.2579   15.5103 C   0  0  0  0  0  0  0  0  0  0  0  0
   -1.8324   12.1841   16.1350 C   0  0  0  0  0  0  0  0  0  0  0  0
   -0.9415   12.4081   17.1882 C   0  0  0  0  0  0  0  0  0  0  0  0
   -0.6532   13.7139   17.6088 C   0  0  0  0  0  0  0  0  0  0  0  0
    0.6148   14.0601   18.3900 C   0  0  1  0  0  0  0  0  0  0  0  0
    0.5447   15.2633   19.2416 N   0  0  0  0  0  0  0  0  0  0  0  0
    0.4111   15.0282   20.6696 C   0  0  0  0  0  0  0  0  0  0  0  0
    1.7132   14.8548   21.3883 C   0  0  0  0  0  0  0  0  0  0  0  0
    2.0235   14.4660   22.6760 C   0  0  0  0  0  0  0  0  0  0  0  0
    3.4317   14.3805   22.7478 C   0  0  0  0  0  0  0  0  0  0  0  0
    3.9003   14.7313   21.5065 C   0  0  0  0  0  0  0  0  0  0  0  0
    2.8715   15.1033   20.6992 O   0  0  0  0  0  0  0  0  0  0  0  0
    1.6026   12.9713   18.7670 C   0  0  0  0  0  0  0  0  0  0  0  0
    2.8309   12.9436   18.0834 C   0  0  0  0  0  0  0  0  0  0  0  0
    3.7749   11.9602   18.3240 C   0  0  0  0  0  0  0  0  0  0  0  0
    3.5459   11.0118   19.3037 C   0  0  0  0  0  0  0  0  0  0  0  0
    2.3617   11.0560   20.0267 C   0  0  0  0  0  0  0  0  0  0  0  0
    1.3773   12.0076   19.7504 C   0  0  0  0  0  0  0  0  0  0  0  0
   -1.3542   14.7798   17.0026 C   0  0  0  0  0  0  0  0  0  0  0  0
   -2.2386   14.5571   15.9501 C   0  0  0  0  0  0  0  0  0  0  0  0
  1  2  1  0
  2  3  1  0
  3  4  1  6
  3  5  1  0
  5  6  1  0
  6  7  1  0
  7  8  2  0
  8  9  1  0
  9 10  2  0
 10 11  1  0
 11 12  1  1
 12 13  1  0
 13 14  1  0
 14 15  2  0
 15 16  1  0
 16 17  2  0
 17 18  1  0
 11 19  1  0
 19 20  2  0
 20 21  1  0
 21 22  2  0
 22 23  1  0
 23 24  2  0
 10 25  1  0
 25 26  2  0
 26  7  1  0
 18 14  1  0
 24 19  1  0
M  END
>  <alias>  (929) 
None

>  <rmsd(smina/fragmenstein)>  (929) 
0.987

>  <smiles>  (929) 
CO[C@H](C)COc1ccc([C@@H](NCc2ccco2)c2ccccc2)cc1

>  <gnina_score>  (929) 
5.468

>  <inspiration_score>  (929) 
None

>  <energy_score>  (929) 
-39.515124

>  <distance_score>  (929) 
0.411742

>  <gnina_score_min>  (929) 
5.546

>  <inchikey>  (929) 
SLRPYWRHYBXPJU-VGSWGCGISA-N

>  <exports>  (929) 
['/opt/xchem-fragalysis-2/maxwin/BulkDock/OUTPUTS/openbind_a71ev2a_c2_elabs_1LOUU54.sdf', '/opt/xchem-fragalysis-2/maxwin/BulkDock/OUTPUTS/openbind_a71ev2a_c2_elabs_1LSYIDY.sdf']

>  <name>  (929) 
P560044

>  <ref_pdb>  (929) 
A0836b

>  <subsites>  (929) 
None

>  <HIPPO Pose ID>  (929) 
560044

>  <ref_mols>  (929) 
A0836b

>  <HIPPO Compound ID>  (929) 
390448

>  <tags>  (929) 
openbind_a71ev2a_c2_elabs,syndirella_product,openbind_a71ev2a_c2_elabs_fragonly_scored_top80percent,BulkDock Fragalysis export,openbind_a71ev2a_c2_elabs_scored,openbind_a71ev2a_c2_elabs_scored_top80percent,openbind_a71ev2a_c2_elabs_activefrags_only_scored_5.2plus,openbind_a71ev2a_c2_elabs_activefrags_only_scored_5.5plus,syndirella_placed

>  <smina_score_min>  (929) 
-4.848

$$$$
P560052
     RDKit          3D

 26 29  0  0  0  0  0  0  0  0999 V2000
    3.5373   11.1976   19.2390 C   0  0  0  0  0  0  0  0  0  0  0  0
    3.6300   12.1988   18.2839 C   0  0  0  0  0  0  0  0  0  0  0  0
    2.6149   13.1428   18.1681 C   0  0  0  0  0  0  0  0  0  0  0  0
    1.4787   13.1045   18.9943 C   0  0  0  0  0  0  0  0  0  0  0  0
    0.3895   14.1531   18.7669 C   0  0  2  0  0  0  0  0  0  0  0  0
   -0.4431   14.4314   19.9430 N   0  0  0  0  0  0  0  0  0  0  0  0
   -0.8611   15.8312   19.9983 C   0  0  0  0  0  0  0  0  0  0  0  0
   -1.7727   16.0897   21.1467 C   0  0  0  0  0  0  0  0  0  0  0  0
   -2.9765   15.5431   21.5430 C   0  0  0  0  0  0  0  0  0  0  0  0
   -3.3862   16.2626   22.6909 C   0  0  0  0  0  0  0  0  0  0  0  0
   -2.4031   17.1940   22.9294 C   0  0  0  0  0  0  0  0  0  0  0  0
   -1.4233   17.1017   21.9941 O   0  0  0  0  0  0  0  0  0  0  0  0
   -0.4809   13.8477   17.5453 C   0  0  0  0  0  0  0  0  0  0  0  0
   -0.8019   14.8823   16.6492 C   0  0  0  0  0  0  0  0  0  0  0  0
   -1.5722   14.6449   15.5135 C   0  0  0  0  0  0  0  0  0  0  0  0
   -2.0518   13.3646   15.2727 C   0  0  0  0  0  0  0  0  0  0  0  0
   -2.7654   13.1403   14.1291 O   0  0  0  0  0  0  0  0  0  0  0  0
   -4.1704   13.1721   14.4048 C   0  0  0  0  0  0  0  0  0  0  0  0
   -4.9591   13.0668   13.0985 C   0  0  0  0  0  0  0  0  0  0  0  0
   -4.6062   11.9121   12.1280 C   0  0  0  0  0  0  0  0  0  0  0  0
   -3.8120   12.9202   11.2771 C   0  0  0  0  0  0  0  0  0  0  0  0
   -4.6027   14.0525   11.9577 C   0  0  0  0  0  0  0  0  0  0  0  0
   -1.7557   12.3182   16.1414 C   0  0  0  0  0  0  0  0  0  0  0  0
   -0.9868   12.5635   17.2831 C   0  0  0  0  0  0  0  0  0  0  0  0
    1.3969   12.0830   19.9476 C   0  0  0  0  0  0  0  0  0  0  0  0
    2.4281   11.1489   20.0717 C   0  0  0  0  0  0  0  0  0  0  0  0
  1  2  2  0
  2  3  1  0
  3  4  2  0
  4  5  1  0
  5  6  1  1
  6  7  1  0
  7  8  1  0
  8  9  2  0
  9 10  1  0
 10 11  2  0
 11 12  1  0
  5 13  1  0
 13 14  2  0
 14 15  1  0
 15 16  2  0
 16 17  1  0
 17 18  1  0
 18 19  1  0
 19 20  1  0
 20 21  1  0
 21 22  1  0
 16 23  1  0
 23 24  2  0
  4 25  1  0
 25 26  2  0
 26  1  1  0
 12  8  1  0
 24 13  1  0
 22 19  1  0
M  END
>  <alias>  (930) 
None

>  <rmsd(smina/fragmenstein)>  (930) 
2.544

>  <smiles>  (930) 
c1ccc([C@H](NCc2ccco2)c2ccc(OCC3CCC3)cc2)cc1

>  <gnina_score>  (930) 
5.051

>  <inspiration_score>  (930) 
None

>  <energy_score>  (930) 
-32.116955

>  <distance_score>  (930) 
0.493326

>  <gnina_score_min>  (930) 
5.44

>  <inchikey>  (930) 
UVRJSNDBKPWLDH-QHCPKHFHSA-N

>  <exports>  (930) 
['/opt/xchem-fragalysis-2/maxwin/BulkDock/OUTPUTS/openbind_a71ev2a_c2_elabs_1LOUU54.sdf', '/opt/xchem-fragalysis-2/maxwin/BulkDock/OUTPUTS/openbind_a71ev2a_c2_elabs_1LSYIDY.sdf']

>  <name>  (930) 
P560052

>  <ref_pdb>  (930) 
A0836b

>  <subsites>  (930) 
None

>  <HIPPO Pose ID>  (930) 
560052

>  <ref_mols>  (930) 
A0836b

>  <HIPPO Compound ID>  (930) 
390452

>  <tags>  (930) 
openbind_a71ev2a_c2_elabs,syndirella_product,openbind_a71ev2a_c2_elabs_fragonly_scored_top80percent,openbind_a71ev2a_c2_elabs_scored,BulkDock Fragalysis export,openbind_a71ev2a_c2_elabs_scored_top80percent,openbind_a71ev2a_c2_elabs_activefrags_only_scored_5.2plus,syndirella_placed

>  <smina_score_min>  (930) 
-5.525

$$$$
P560069
     RDKit          3D

 26 28  0  0  0  0  0  0  0  0999 V2000
   -7.1824   13.0839   11.7938 C   0  0  0  0  0  0  0  0  0  0  0  0
   -6.3511   12.9354   13.0602 C   0  0  0  0  0  0  0  0  0  0  0  0
   -4.9128   13.4656   12.9217 C   0  0  1  0  0  0  0  0  0  0  0  0
   -4.8775   14.9731   12.6453 C   0  0  0  0  0  0  0  0  0  0  0  0
   -4.1130   13.1318   14.1942 C   0  0  0  0  0  0  0  0  0  0  0  0
   -2.7396   13.4897   13.9870 O   0  0  0  0  0  0  0  0  0  0  0  0
   -2.0586   13.5083   15.1725 C   0  0  0  0  0  0  0  0  0  0  0  0
   -1.7686   12.3378   15.8666 C   0  0  0  0  0  0  0  0  0  0  0  0
   -1.0650   12.4070   17.0710 C   0  0  0  0  0  0  0  0  0  0  0  0
   -0.6216   13.6413   17.5834 C   0  0  0  0  0  0  0  0  0  0  0  0
    0.1226   13.6806   18.9285 C   0  0  2  0  0  0  0  0  0  0  0  0
    0.4983   15.0509   19.3116 N   0  0  0  0  0  0  0  0  0  0  0  0
    0.6021   15.2534   20.7499 C   0  0  0  0  0  0  0  0  0  0  0  0
    1.8982   14.8998   21.3951 C   0  0  0  0  0  0  0  0  0  0  0  0
    3.1736   14.6033   20.9564 C   0  0  0  0  0  0  0  0  0  0  0  0
    3.9658   14.3774   22.1031 C   0  0  0  0  0  0  0  0  0  0  0  0
    3.1323   14.5510   23.1791 C   0  0  0  0  0  0  0  0  0  0  0  0
    1.8851   14.8888   22.7653 O   0  0  0  0  0  0  0  0  0  0  0  0
    1.3263   12.7505   18.9547 C   0  0  0  0  0  0  0  0  0  0  0  0
    2.3756   12.8995   18.0364 C   0  0  0  0  0  0  0  0  0  0  0  0
    3.5091   12.0955   18.1162 C   0  0  0  0  0  0  0  0  0  0  0  0
    3.5979   11.1121   19.0957 C   0  0  0  0  0  0  0  0  0  0  0  0
    2.5669   10.9538   20.0098 C   0  0  0  0  0  0  0  0  0  0  0  0
    1.4366   11.7651   19.9443 C   0  0  0  0  0  0  0  0  0  0  0  0
   -0.9165   14.8039   16.8491 C   0  0  0  0  0  0  0  0  0  0  0  0
   -1.6185   14.7381   15.6454 C   0  0  0  0  0  0  0  0  0  0  0  0
  1  2  1  0
  2  3  1  0
  3  4  1  1
  3  5  1  0
  5  6  1  0
  6  7  1  0
  7  8  2  0
  8  9  1  0
  9 10  2  0
 10 11  1  0
 11 12  1  6
 12 13  1  0
 13 14  1  0
 14 15  2  0
 15 16  1  0
 16 17  2  0
 17 18  1  0
 11 19  1  0
 19 20  2  0
 20 21  1  0
 21 22  2  0
 22 23  1  0
 23 24  2  0
 10 25  1  0
 25 26  2  0
 26  7  1  0
 18 14  1  0
 24 19  1  0
M  END
>  <alias>  (931) 
None

>  <rmsd(smina/fragmenstein)>  (931) 
2.22

>  <smiles>  (931) 
CC[C@@H](C)COc1ccc([C@H](NCc2ccco2)c2ccccc2)cc1

>  <gnina_score>  (931) 
5.35

>  <inspiration_score>  (931) 
None

>  <energy_score>  (931) 
-54.064691

>  <distance_score>  (931) 
0.25926

>  <gnina_score_min>  (931) 
5.472

>  <inchikey>  (931) 
NZWKPHJMDNWMMS-WZONZLPQSA-N

>  <exports>  (931) 
['/opt/xchem-fragalysis-2/maxwin/BulkDock/OUTPUTS/openbind_a71ev2a_c2_elabs_1LOUU54.sdf', '/opt/xchem-fragalysis-2/maxwin/BulkDock/OUTPUTS/openbind_a71ev2a_c2_elabs_1LSYIDY.sdf']

>  <name>  (931) 
P560069

>  <ref_pdb>  (931) 
A0836b

>  <subsites>  (931) 
None

>  <HIPPO Pose ID>  (931) 
560069

>  <ref_mols>  (931) 
A0836b

>  <HIPPO Compound ID>  (931) 
390459

>  <tags>  (931) 
openbind_a71ev2a_c2_elabs,syndirella_product,openbind_a71ev2a_c2_elabs_fragonly_scored_top80percent,openbind_a71ev2a_c2_elabs_scored,BulkDock Fragalysis export,openbind_a71ev2a_c2_elabs_scored_top80percent,openbind_a71ev2a_c2_elabs_activefrags_only_scored_5.2plus,syndirella_placed

>  <smina_score_min>  (931) 
-5.771

$$$$
P560075
     RDKit          3D

 26 29  0  0  0  0  0  0  0  0999 V2000
    3.5619   11.2334   19.1659 C   0  0  0  0  0  0  0  0  0  0  0  0
    3.5055   12.2265   18.1952 C   0  0  0  0  0  0  0  0  0  0  0  0
    2.3808   13.0427   18.0978 C   0  0  0  0  0  0  0  0  0  0  0  0
    1.2968   12.8827   18.9721 C   0  0  0  0  0  0  0  0  0  0  0  0
    0.0528   13.7591   18.8619 C   0  0  1  0  0  0  0  0  0  0  0  0
    0.3628   15.1546   19.2063 N   0  0  0  0  0  0  0  0  0  0  0  0
    0.3163   15.4017   20.6371 C   0  0  0  0  0  0  0  0  0  0  0  0
   -1.0263   15.9230   21.0313 C   0  0  0  0  0  0  0  0  0  0  0  0
   -2.2753   15.3445   21.1468 C   0  0  0  0  0  0  0  0  0  0  0  0
   -3.1650   16.3711   21.5412 C   0  0  0  0  0  0  0  0  0  0  0  0
   -2.4074   17.5129   21.6416 C   0  0  0  0  0  0  0  0  0  0  0  0
   -1.1113   17.2532   21.3357 O   0  0  0  0  0  0  0  0  0  0  0  0
   -0.6510   13.6510   17.5046 C   0  0  0  0  0  0  0  0  0  0  0  0
   -1.0690   12.3929   17.0355 C   0  0  0  0  0  0  0  0  0  0  0  0
   -1.7895   12.2747   15.8452 C   0  0  0  0  0  0  0  0  0  0  0  0
   -2.1164   13.4178   15.1180 C   0  0  0  0  0  0  0  0  0  0  0  0
   -2.8111   13.3605   13.9369 O   0  0  0  0  0  0  0  0  0  0  0  0
   -4.0182   12.8020   13.8972 C   0  0  0  0  0  0  0  0  0  0  0  0
   -4.7297   12.3414   14.9022 N   0  0  0  0  0  0  0  0  0  0  0  0
   -5.8928   11.8795   14.3410 C   0  0  0  0  0  0  0  0  0  0  0  0
   -5.8865   12.0652   12.9783 C   0  0  0  0  0  0  0  0  0  0  0  0
   -4.6836   12.6581   12.7115 N   0  0  0  0  0  0  0  0  0  0  0  0
   -1.6887   14.6698   15.5461 C   0  0  0  0  0  0  0  0  0  0  0  0
   -0.9718   14.7846   16.7361 C   0  0  0  0  0  0  0  0  0  0  0  0
    1.3826   11.8958   19.9632 C   0  0  0  0  0  0  0  0  0  0  0  0
    2.5080   11.0785   20.0540 C   0  0  0  0  0  0  0  0  0  0  0  0
  1  2  2  0
  2  3  1  0
  3  4  2  0
  4  5  1  0
  5  6  1  6
  6  7  1  0
  7  8  1  0
  8  9  2  0
  9 10  1  0
 10 11  2  0
 11 12  1  0
  5 13  1  0
 13 14  2  0
 14 15  1  0
 15 16  2  0
 16 17  1  0
 17 18  1  0
 18 19  2  0
 19 20  1  0
 20 21  2  0
 21 22  1  0
 16 23  1  0
 23 24  2  0
  4 25  1  0
 25 26  2  0
 26  1  1  0
 12  8  1  0
 24 13  1  0
 22 18  1  0
M  END
>  <alias>  (932) 
None

>  <rmsd(smina/fragmenstein)>  (932) 
0.863

>  <smiles>  (932) 
c1ccc([C@@H](NCc2ccco2)c2ccc(Oc3ncc[nH]3)cc2)cc1

>  <gnina_score>  (932) 
5.209

>  <inspiration_score>  (932) 
None

>  <energy_score>  (932) 
-33.065595

>  <distance_score>  (932) 
0.344783

>  <gnina_score_min>  (932) 
5.263

>  <inchikey>  (932) 
ROCUESJABGAWPT-HXUWFJFHSA-N

>  <exports>  (932) 
['/opt/xchem-fragalysis-2/maxwin/BulkDock/OUTPUTS/openbind_a71ev2a_c2_elabs_1LOUU54.sdf', '/opt/xchem-fragalysis-2/maxwin/BulkDock/OUTPUTS/openbind_a71ev2a_c2_elabs_1LSYIDY.sdf']

>  <name>  (932) 
P560075

>  <ref_pdb>  (932) 
A0836b

>  <subsites>  (932) 
None

>  <HIPPO Pose ID>  (932) 
560075

>  <ref_mols>  (932) 
A0836b

>  <HIPPO Compound ID>  (932) 
390461

>  <tags>  (932) 
openbind_a71ev2a_c2_elabs,syndirella_product,openbind_a71ev2a_c2_elabs_fragonly_scored_top80percent,openbind_a71ev2a_c2_elabs_scored,BulkDock Fragalysis export,openbind_a71ev2a_c2_elabs_scored_top80percent,openbind_a71ev2a_c2_elabs_activefrags_only_scored_5.2plus,syndirella_placed

>  <smina_score_min>  (932) 
-4.97

$$$$
P560078
     RDKit          3D

 26 28  0  0  0  0  0  0  0  0999 V2000
   -4.7576   11.1600   13.4017 C   0  0  0  0  0  0  0  0  0  0  0  0
   -4.9402   12.2874   14.4100 C   0  0  0  0  0  0  0  0  0  0  0  0
   -4.1227   13.5576   14.1069 C   0  0  0  0  0  0  0  0  0  0  0  0
   -4.5736   14.2233   12.7959 C   0  0  0  0  0  0  0  0  0  0  0  0
   -3.8950   15.5688   12.5693 C   0  0  0  0  0  0  0  0  0  0  0  0
   -2.7278   13.2265   13.9752 O   0  0  0  0  0  0  0  0  0  0  0  0
   -2.0518   13.3707   15.1545 C   0  0  0  0  0  0  0  0  0  0  0  0
   -1.6816   12.2297   15.8561 C   0  0  0  0  0  0  0  0  0  0  0  0
   -0.9862   12.3542   17.0595 C   0  0  0  0  0  0  0  0  0  0  0  0
   -0.6178   13.6180   17.5569 C   0  0  0  0  0  0  0  0  0  0  0  0
    0.1076   13.7203   18.9092 C   0  0  2  0  0  0  0  0  0  0  0  0
    0.4167   15.1172   19.2543 N   0  0  0  0  0  0  0  0  0  0  0  0
    0.4832   15.3594   20.6876 C   0  0  0  0  0  0  0  0  0  0  0  0
    1.7668   14.9898   21.3416 C   0  0  0  0  0  0  0  0  0  0  0  0
    2.0664   14.5232   22.6049 C   0  0  0  0  0  0  0  0  0  0  0  0
    3.4643   14.3323   22.6433 C   0  0  0  0  0  0  0  0  0  0  0  0
    3.9327   14.6726   21.3989 C   0  0  0  0  0  0  0  0  0  0  0  0
    2.9199   15.1435   20.6233 O   0  0  0  0  0  0  0  0  0  0  0  0
    1.3375   12.8247   18.9843 C   0  0  0  0  0  0  0  0  0  0  0  0
    2.4150   12.9941   18.1039 C   0  0  0  0  0  0  0  0  0  0  0  0
    3.5370   12.1736   18.1839 C   0  0  0  0  0  0  0  0  0  0  0  0
    3.5959   11.1660   19.1400 C   0  0  0  0  0  0  0  0  0  0  0  0
    2.5465   10.9998   20.0310 C   0  0  0  0  0  0  0  0  0  0  0  0
    1.4224   11.8194   19.9567 C   0  0  0  0  0  0  0  0  0  0  0  0
   -0.9804   14.7527   16.8082 C   0  0  0  0  0  0  0  0  0  0  0  0
   -1.6858   14.6319   15.6105 C   0  0  0  0  0  0  0  0  0  0  0  0
  1  2  1  0
  2  3  1  0
  3  4  1  0
  4  5  1  0
  3  6  1  0
  6  7  1  0
  7  8  2  0
  8  9  1  0
  9 10  2  0
 10 11  1  0
 11 12  1  6
 12 13  1  0
 13 14  1  0
 14 15  2  0
 15 16  1  0
 16 17  2  0
 17 18  1  0
 11 19  1  0
 19 20  2  0
 20 21  1  0
 21 22  2  0
 22 23  1  0
 23 24  2  0
 10 25  1  0
 25 26  2  0
 26  7  1  0
 18 14  1  0
 24 19  1  0
M  END
>  <alias>  (933) 
None

>  <rmsd(smina/fragmenstein)>  (933) 
1.565

>  <smiles>  (933) 
CCC(CC)Oc1ccc([C@H](NCc2ccco2)c2ccccc2)cc1

>  <gnina_score>  (933) 
5.686

>  <inspiration_score>  (933) 
None

>  <energy_score>  (933) 
-48.708437

>  <distance_score>  (933) 
0.25483

>  <gnina_score_min>  (933) 
5.726

>  <inchikey>  (933) 
VSRGXWUVUQJLNH-HSZRJFAPSA-N

>  <exports>  (933) 
['/opt/xchem-fragalysis-2/maxwin/BulkDock/OUTPUTS/openbind_a71ev2a_c2_elabs_1LOUU54.sdf', '/opt/xchem-fragalysis-2/maxwin/BulkDock/OUTPUTS/openbind_a71ev2a_c2_elabs_1LSYIDY.sdf']

>  <name>  (933) 
P560078

>  <ref_pdb>  (933) 
A0836b

>  <subsites>  (933) 
None

>  <HIPPO Pose ID>  (933) 
560078

>  <ref_mols>  (933) 
A0836b

>  <HIPPO Compound ID>  (933) 
390463

>  <tags>  (933) 
openbind_a71ev2a_c2_elabs,syndirella_product,openbind_a71ev2a_c2_elabs_fragonly_scored_top80percent,BulkDock Fragalysis export,openbind_a71ev2a_c2_elabs_scored,openbind_a71ev2a_c2_elabs_scored_top80percent,openbind_a71ev2a_c2_elabs_activefrags_only_scored_5.2plus,openbind_a71ev2a_c2_elabs_activefrags_only_scored_5.5plus,syndirella_placed

>  <smina_score_min>  (933) 
-5.804

$$$$
P560084
     RDKit          3D

 26 28  0  0  0  0  0  0  0  0999 V2000
   -4.8416    9.1937   13.5435 C   0  0  0  0  0  0  0  0  0  0  0  0
   -3.7420   10.0433   12.9846 C   0  0  0  0  0  0  0  0  0  0  0  0
   -3.0040    9.7059   12.0701 O   0  0  0  0  0  0  0  0  0  0  0  0
   -3.6887   11.2285   13.6422 O   0  0  0  0  0  0  0  0  0  0  0  0
   -2.6501   12.0877   13.1693 C   0  0  0  0  0  0  0  0  0  0  0  0
   -2.6267   13.3252   13.8877 O   0  0  0  0  0  0  0  0  0  0  0  0
   -1.9764   13.3277   15.0898 C   0  0  0  0  0  0  0  0  0  0  0  0
   -1.6360   14.5912   15.5698 C   0  0  0  0  0  0  0  0  0  0  0  0
   -0.9600   14.7315   16.7838 C   0  0  0  0  0  0  0  0  0  0  0  0
   -0.6157   13.6097   17.5535 C   0  0  0  0  0  0  0  0  0  0  0  0
    0.1018   13.7209   18.9082 C   0  0  2  0  0  0  0  0  0  0  0  0
    0.4084   15.1196   19.2485 N   0  0  0  0  0  0  0  0  0  0  0  0
    0.4765   15.3653   20.6811 C   0  0  0  0  0  0  0  0  0  0  0  0
    1.7604   14.9964   21.3355 C   0  0  0  0  0  0  0  0  0  0  0  0
    2.0599   14.5264   22.5976 C   0  0  0  0  0  0  0  0  0  0  0  0
    3.4573   14.3321   22.6347 C   0  0  0  0  0  0  0  0  0  0  0  0
    3.9259   14.6749   21.3910 C   0  0  0  0  0  0  0  0  0  0  0  0
    2.9139   15.1524   20.6182 O   0  0  0  0  0  0  0  0  0  0  0  0
    1.3338   12.8273   18.9867 C   0  0  0  0  0  0  0  0  0  0  0  0
    2.4119   12.9969   18.1065 C   0  0  0  0  0  0  0  0  0  0  0  0
    3.5343   12.1769   18.1869 C   0  0  0  0  0  0  0  0  0  0  0  0
    3.5930   11.1695   19.1431 C   0  0  0  0  0  0  0  0  0  0  0  0
    2.5432   11.0030   20.0337 C   0  0  0  0  0  0  0  0  0  0  0  0
    1.4186   11.8221   19.9591 C   0  0  0  0  0  0  0  0  0  0  0  0
   -0.9966   12.3460   17.0719 C   0  0  0  0  0  0  0  0  0  0  0  0
   -1.6650   12.2044   15.8516 C   0  0  0  0  0  0  0  0  0  0  0  0
  1  2  1  0
  2  3  2  0
  2  4  1  0
  4  5  1  0
  5  6  1  0
  6  7  1  0
  7  8  2  0
  8  9  1  0
  9 10  2  0
 10 11  1  0
 11 12  1  6
 12 13  1  0
 13 14  1  0
 14 15  2  0
 15 16  1  0
 16 17  2  0
 17 18  1  0
 11 19  1  0
 19 20  2  0
 20 21  1  0
 21 22  2  0
 22 23  1  0
 23 24  2  0
 10 25  1  0
 25 26  2  0
 26  7  1  0
 18 14  1  0
 24 19  1  0
M  END
>  <alias>  (934) 
None

>  <rmsd(smina/fragmenstein)>  (934) 
1.436

>  <smiles>  (934) 
CC(=O)OCOc1ccc([C@H](NCc2ccco2)c2ccccc2)cc1

>  <gnina_score>  (934) 
5.623

>  <inspiration_score>  (934) 
None

>  <energy_score>  (934) 
-42.174428

>  <distance_score>  (934) 
0.632754

>  <gnina_score_min>  (934) 
5.942

>  <inchikey>  (934) 
GVFIYQGRGOYEGE-OAQYLSRUSA-N

>  <exports>  (934) 
['/opt/xchem-fragalysis-2/maxwin/BulkDock/OUTPUTS/openbind_a71ev2a_c2_elabs_1LOUU54.sdf', '/opt/xchem-fragalysis-2/maxwin/BulkDock/OUTPUTS/openbind_a71ev2a_c2_elabs_1LSYIDY.sdf']

>  <name>  (934) 
P560084

>  <ref_pdb>  (934) 
A0836b

>  <subsites>  (934) 
None

>  <HIPPO Pose ID>  (934) 
560084

>  <ref_mols>  (934) 
A0836b

>  <HIPPO Compound ID>  (934) 
390466

>  <tags>  (934) 
openbind_a71ev2a_c2_elabs,syndirella_product,openbind_a71ev2a_c2_elabs_fragonly_scored_top80percent,BulkDock Fragalysis export,openbind_a71ev2a_c2_elabs_scored,openbind_a71ev2a_c2_elabs_scored_top80percent,openbind_a71ev2a_c2_elabs_activefrags_only_scored_5.2plus,openbind_a71ev2a_c2_elabs_activefrags_only_scored_5.5plus,syndirella_placed

>  <smina_score_min>  (934) 
-6.181

$$$$
P560093
     RDKit          3D

 26 29  0  0  0  0  0  0  0  0999 V2000
    3.6013   11.1822   19.1234 C   0  0  0  0  0  0  0  0  0  0  0  0
    3.5294   12.2246   18.2056 C   0  0  0  0  0  0  0  0  0  0  0  0
    2.4066   13.0486   18.1715 C   0  0  0  0  0  0  0  0  0  0  0  0
    1.3369   12.8390   19.0509 C   0  0  0  0  0  0  0  0  0  0  0  0
    0.0901   13.7064   19.0019 C   0  0  1  0  0  0  0  0  0  0  0  0
    0.3437   15.1136   19.3778 N   0  0  0  0  0  0  0  0  0  0  0  0
    0.4527   15.3056   20.8234 C   0  0  0  0  0  0  0  0  0  0  0  0
    1.7585   14.9540   21.4421 C   0  0  0  0  0  0  0  0  0  0  0  0
    2.0878   14.4791   22.6957 C   0  0  0  0  0  0  0  0  0  0  0  0
    3.4912   14.3317   22.7167 C   0  0  0  0  0  0  0  0  0  0  0  0
    3.9340   14.7015   21.4717 C   0  0  0  0  0  0  0  0  0  0  0  0
    2.8993   15.1569   20.7169 O   0  0  0  0  0  0  0  0  0  0  0  0
   -0.6378   13.5795   17.6469 C   0  0  0  0  0  0  0  0  0  0  0  0
   -0.7806   14.6498   16.7460 C   0  0  0  0  0  0  0  0  0  0  0  0
   -1.4864   14.5016   15.5509 C   0  0  0  0  0  0  0  0  0  0  0  0
   -2.0537   13.2725   15.2376 C   0  0  0  0  0  0  0  0  0  0  0  0
   -2.7342   13.0993   14.0646 O   0  0  0  0  0  0  0  0  0  0  0  0
   -4.0401   13.6687   14.1341 C   0  0  1  0  0  0  0  0  0  0  0  0
   -4.6481   13.7358   12.7499 C   0  0  0  0  0  0  0  0  0  0  0  0
   -6.1254   13.8209   13.0595 C   0  0  0  0  0  0  0  0  0  0  0  0
   -6.3417   13.0884   14.2745 O   0  0  0  0  0  0  0  0  0  0  0  0
   -5.0577   12.7888   14.8470 C   0  0  0  0  0  0  0  0  0  0  0  0
   -1.8788   12.1795   16.0784 C   0  0  0  0  0  0  0  0  0  0  0  0
   -1.1893   12.3373   17.2821 C   0  0  0  0  0  0  0  0  0  0  0  0
    1.4368   11.7995   19.9861 C   0  0  0  0  0  0  0  0  0  0  0  0
    2.5646   10.9827   20.0219 C   0  0  0  0  0  0  0  0  0  0  0  0
  1  2  2  0
  2  3  1  0
  3  4  2  0
  4  5  1  0
  5  6  1  6
  6  7  1  0
  7  8  1  0
  8  9  2  0
  9 10  1  0
 10 11  2  0
 11 12  1  0
  5 13  1  0
 13 14  2  0
 14 15  1  0
 15 16  2  0
 16 17  1  0
 18 17  1  6
 18 19  1  0
 19 20  1  0
 20 21  1  0
 21 22  1  0
 16 23  1  0
 23 24  2  0
  4 25  1  0
 25 26  2  0
 26  1  1  0
 12  8  1  0
 24 13  1  0
 22 18  1  0
M  END
>  <alias>  (935) 
None

>  <rmsd(smina/fragmenstein)>  (935) 
2.299

>  <smiles>  (935) 
c1ccc([C@@H](NCc2ccco2)c2ccc(O[C@H]3CCOC3)cc2)cc1

>  <gnina_score>  (935) 
5.497

>  <inspiration_score>  (935) 
None

>  <energy_score>  (935) 
-29.600409

>  <distance_score>  (935) 
0.310458

>  <gnina_score_min>  (935) 
5.865

>  <inchikey>  (935) 
KKZMYPJRVIYOOZ-FCHUYYIVSA-N

>  <exports>  (935) 
['/opt/xchem-fragalysis-2/maxwin/BulkDock/OUTPUTS/openbind_a71ev2a_c2_elabs_1LOUU54.sdf', '/opt/xchem-fragalysis-2/maxwin/BulkDock/OUTPUTS/openbind_a71ev2a_c2_elabs_1LSYIDY.sdf']

>  <name>  (935) 
P560093

>  <ref_pdb>  (935) 
A0836b

>  <subsites>  (935) 
None

>  <HIPPO Pose ID>  (935) 
560093

>  <ref_mols>  (935) 
A0836b

>  <HIPPO Compound ID>  (935) 
390468

>  <tags>  (935) 
openbind_a71ev2a_c2_elabs,syndirella_product,openbind_a71ev2a_c2_elabs_fragonly_scored_top80percent,BulkDock Fragalysis export,openbind_a71ev2a_c2_elabs_scored,openbind_a71ev2a_c2_elabs_scored_top80percent,openbind_a71ev2a_c2_elabs_activefrags_only_scored_5.2plus,openbind_a71ev2a_c2_elabs_activefrags_only_scored_5.5plus,syndirella_placed

>  <smina_score_min>  (935) 
-6.288

$$$$
P560099
     RDKit          3D

 26 28  0  0  0  0  0  0  0  0999 V2000
   -7.5559   15.5253   14.0761 N   0  0  0  0  0  0  0  0  0  0  0  0
   -6.8712   14.9034   13.3761 C   0  0  0  0  0  0  0  0  0  0  0  0
   -5.9849   14.1304   12.4972 C   0  0  0  0  0  0  0  0  0  0  0  0
   -5.0988   13.1631   13.2749 C   0  0  0  0  0  0  0  0  0  0  0  0
   -4.1022   13.8668   14.1967 C   0  0  0  0  0  0  0  0  0  0  0  0
   -3.2511   12.8661   14.7484 O   0  0  0  0  0  0  0  0  0  0  0  0
   -2.4088   13.2502   15.7533 C   0  0  0  0  0  0  0  0  0  0  0  0
   -1.8175   12.2020   16.4582 C   0  0  0  0  0  0  0  0  0  0  0  0
   -0.8678   12.4507   17.4557 C   0  0  0  0  0  0  0  0  0  0  0  0
   -0.4713   13.7597   17.7590 C   0  0  0  0  0  0  0  0  0  0  0  0
    0.8082   14.0658   18.5467 C   0  0  1  0  0  0  0  0  0  0  0  0
    0.8052   15.2051   19.4836 N   0  0  0  0  0  0  0  0  0  0  0  0
    0.3533   14.9094   20.8302 C   0  0  0  0  0  0  0  0  0  0  0  0
    1.4897   14.7962   21.7980 C   0  0  0  0  0  0  0  0  0  0  0  0
    2.8352   14.4950   21.6939 C   0  0  0  0  0  0  0  0  0  0  0  0
    3.3630   14.5045   23.0059 C   0  0  0  0  0  0  0  0  0  0  0  0
    2.3187   14.8341   23.8336 C   0  0  0  0  0  0  0  0  0  0  0  0
    1.1861   15.0343   23.1135 O   0  0  0  0  0  0  0  0  0  0  0  0
    1.7623   12.9287   18.8654 C   0  0  0  0  0  0  0  0  0  0  0  0
    2.9415   12.8433   18.1066 C   0  0  0  0  0  0  0  0  0  0  0  0
    3.8486   11.8165   18.2948 C   0  0  0  0  0  0  0  0  0  0  0  0
    3.6327   10.8744   19.2837 C   0  0  0  0  0  0  0  0  0  0  0  0
    2.4953   10.9673   20.0711 C   0  0  0  0  0  0  0  0  0  0  0  0
    1.5463   11.9678   19.8552 C   0  0  0  0  0  0  0  0  0  0  0  0
   -1.1174   14.8088   17.0704 C   0  0  0  0  0  0  0  0  0  0  0  0
   -2.0753   14.5598   16.0806 C   0  0  0  0  0  0  0  0  0  0  0  0
  1  2  3  0
  2  3  1  0
  3  4  1  0
  4  5  1  0
  5  6  1  0
  6  7  1  0
  7  8  2  0
  8  9  1  0
  9 10  2  0
 10 11  1  0
 11 12  1  1
 12 13  1  0
 13 14  1  0
 14 15  2  0
 15 16  1  0
 16 17  2  0
 17 18  1  0
 11 19  1  0
 19 20  2  0
 20 21  1  0
 21 22  2  0
 22 23  1  0
 23 24  2  0
 10 25  1  0
 25 26  2  0
 26  7  1  0
 18 14  1  0
 24 19  1  0
M  END
>  <alias>  (936) 
None

>  <rmsd(smina/fragmenstein)>  (936) 
2.013

>  <smiles>  (936) 
N#CCCCOc1ccc([C@@H](NCc2ccco2)c2ccccc2)cc1

>  <gnina_score>  (936) 
5.163

>  <inspiration_score>  (936) 
None

>  <energy_score>  (936) 
-26.448623

>  <distance_score>  (936) 
0.440384

>  <gnina_score_min>  (936) 
5.619

>  <inchikey>  (936) 
SVVGQJPKWLYDHH-QFIPXVFZSA-N

>  <exports>  (936) 
['/opt/xchem-fragalysis-2/maxwin/BulkDock/OUTPUTS/openbind_a71ev2a_c2_elabs_1LOUU54.sdf', '/opt/xchem-fragalysis-2/maxwin/BulkDock/OUTPUTS/openbind_a71ev2a_c2_elabs_1LSYIDY.sdf']

>  <name>  (936) 
P560099

>  <ref_pdb>  (936) 
A0836b

>  <subsites>  (936) 
None

>  <HIPPO Pose ID>  (936) 
560099

>  <ref_mols>  (936) 
A0836b

>  <HIPPO Compound ID>  (936) 
390471

>  <tags>  (936) 
openbind_a71ev2a_c2_elabs,syndirella_product,openbind_a71ev2a_c2_elabs_fragonly_scored_top80percent,BulkDock Fragalysis export,openbind_a71ev2a_c2_elabs_scored,openbind_a71ev2a_c2_elabs_scored_top80percent,openbind_a71ev2a_c2_elabs_activefrags_only_scored_5.2plus,openbind_a71ev2a_c2_elabs_activefrags_only_scored_5.5plus,syndirella_placed

>  <smina_score_min>  (936) 
-4.79

$$$$
P560103
     RDKit          3D

 26 28  0  0  0  0  0  0  0  0999 V2000
   -6.9542   16.0877   11.2147 C   0  0  0  0  0  0  0  0  0  0  0  0
   -5.8045   15.2766   11.7927 C   0  0  0  0  0  0  0  0  0  0  0  0
   -6.3153   14.0804   12.5965 C   0  0  0  0  0  0  0  0  0  0  0  0
   -5.1973   13.1701   13.1056 C   0  0  0  0  0  0  0  0  0  0  0  0
   -4.2790   13.8365   14.1284 C   0  0  0  0  0  0  0  0  0  0  0  0
   -3.3543   12.8530   14.5867 O   0  0  0  0  0  0  0  0  0  0  0  0
   -2.5456   13.2049   15.6304 C   0  0  0  0  0  0  0  0  0  0  0  0
   -2.3285   14.5000   16.0908 C   0  0  0  0  0  0  0  0  0  0  0  0
   -1.3869   14.7301   17.0964 C   0  0  0  0  0  0  0  0  0  0  0  0
   -0.6379   13.6752   17.6559 C   0  0  0  0  0  0  0  0  0  0  0  0
    0.6471   14.0236   18.4022 C   0  0  1  0  0  0  0  0  0  0  0  0
    0.6020   15.2001   19.2866 N   0  0  0  0  0  0  0  0  0  0  0  0
    0.3384   14.9411   20.6919 C   0  0  0  0  0  0  0  0  0  0  0  0
    1.5598   14.8163   21.5519 C   0  0  0  0  0  0  0  0  0  0  0  0
    2.9015   14.5605   21.3360 C   0  0  0  0  0  0  0  0  0  0  0  0
    3.5210   14.4943   22.6058 C   0  0  0  0  0  0  0  0  0  0  0  0
    2.5327   14.7477   23.5234 C   0  0  0  0  0  0  0  0  0  0  0  0
    1.3512   14.9741   22.8975 O   0  0  0  0  0  0  0  0  0  0  0  0
    1.6325   12.9268   18.7574 C   0  0  0  0  0  0  0  0  0  0  0  0
    2.8456   12.8882   18.0494 C   0  0  0  0  0  0  0  0  0  0  0  0
    3.7935   11.9083   18.2887 C   0  0  0  0  0  0  0  0  0  0  0  0
    3.5798   10.9694   19.2818 C   0  0  0  0  0  0  0  0  0  0  0  0
    2.4065   11.0180   20.0207 C   0  0  0  0  0  0  0  0  0  0  0  0
    1.4196   11.9680   19.7501 C   0  0  0  0  0  0  0  0  0  0  0  0
   -0.9245   12.3715   17.2337 C   0  0  0  0  0  0  0  0  0  0  0  0
   -1.8637   12.1432   16.2251 C   0  0  0  0  0  0  0  0  0  0  0  0
  1  2  1  0
  2  3  1  0
  3  4  1  0
  4  5  1  0
  5  6  1  0
  6  7  1  0
  7  8  2  0
  8  9  1  0
  9 10  2  0
 10 11  1  0
 11 12  1  1
 12 13  1  0
 13 14  1  0
 14 15  2  0
 15 16  1  0
 16 17  2  0
 17 18  1  0
 11 19  1  0
 19 20  2  0
 20 21  1  0
 21 22  2  0
 22 23  1  0
 23 24  2  0
 10 25  1  0
 25 26  2  0
 26  7  1  0
 18 14  1  0
 24 19  1  0
M  END
>  <alias>  (937) 
None

>  <rmsd(smina/fragmenstein)>  (937) 
2.105

>  <smiles>  (937) 
CCCCCOc1ccc([C@@H](NCc2ccco2)c2ccccc2)cc1

>  <gnina_score>  (937) 
5.312

>  <inspiration_score>  (937) 
None

>  <energy_score>  (937) 
-37.709968

>  <distance_score>  (937) 
0.473396

>  <gnina_score_min>  (937) 
5.507

>  <inchikey>  (937) 
SLGCRJOCCRUBNF-QHCPKHFHSA-N

>  <exports>  (937) 
['/opt/xchem-fragalysis-2/maxwin/BulkDock/OUTPUTS/openbind_a71ev2a_c2_elabs_1LOUU54.sdf', '/opt/xchem-fragalysis-2/maxwin/BulkDock/OUTPUTS/openbind_a71ev2a_c2_elabs_1LSYIDY.sdf']

>  <name>  (937) 
P560103

>  <ref_pdb>  (937) 
A0836b

>  <subsites>  (937) 
None

>  <HIPPO Pose ID>  (937) 
560103

>  <ref_mols>  (937) 
A0836b

>  <HIPPO Compound ID>  (937) 
390473

>  <tags>  (937) 
openbind_a71ev2a_c2_elabs,syndirella_product,openbind_a71ev2a_c2_elabs_fragonly_scored_top80percent,BulkDock Fragalysis export,openbind_a71ev2a_c2_elabs_scored,openbind_a71ev2a_c2_elabs_scored_top80percent,openbind_a71ev2a_c2_elabs_activefrags_only_scored_5.2plus,openbind_a71ev2a_c2_elabs_activefrags_only_scored_5.5plus,syndirella_placed

>  <smina_score_min>  (937) 
-5.218

$$$$
P560131
     RDKit          3D

 26 28  0  0  0  0  0  0  0  0999 V2000
   -6.7501   15.8082   14.6875 N   0  0  0  0  0  0  0  0  0  0  0  0
   -5.9327   15.5407   13.9401 N   0  0  0  0  0  0  0  0  0  0  0  0
   -5.0430   15.2384   13.1260 N   0  0  0  0  0  0  0  0  0  0  0  0
   -4.8182   13.7954   12.9177 C   0  0  0  0  0  0  0  0  0  0  0  0
   -4.0031   13.1876   14.0625 C   0  0  0  0  0  0  0  0  0  0  0  0
   -2.6754   13.7264   14.0191 O   0  0  0  0  0  0  0  0  0  0  0  0
   -2.0282   13.6142   15.2179 C   0  0  0  0  0  0  0  0  0  0  0  0
   -1.8864   12.4045   15.8896 C   0  0  0  0  0  0  0  0  0  0  0  0
   -1.2324   12.3751   17.1215 C   0  0  0  0  0  0  0  0  0  0  0  0
   -0.7021   13.5473   17.6955 C   0  0  0  0  0  0  0  0  0  0  0  0
   -0.0414   13.4472   19.0755 C   0  0  2  0  0  0  0  0  0  0  0  0
   -0.0686   14.6894   19.8666 N   0  0  0  0  0  0  0  0  0  0  0  0
    1.1501   15.4686   19.8883 C   0  0  0  0  0  0  0  0  0  0  0  0
    2.1123   15.0374   20.9396 C   0  0  0  0  0  0  0  0  0  0  0  0
    1.9990   14.6481   22.2578 C   0  0  0  0  0  0  0  0  0  0  0  0
    3.3083   14.3589   22.7077 C   0  0  0  0  0  0  0  0  0  0  0  0
    4.1415   14.5901   21.6409 C   0  0  0  0  0  0  0  0  0  0  0  0
    3.4296   15.0425   20.5791 O   0  0  0  0  0  0  0  0  0  0  0  0
    1.2605   12.6630   19.0712 C   0  0  0  0  0  0  0  0  0  0  0  0
    1.4709   11.6783   20.0440 C   0  0  0  0  0  0  0  0  0  0  0  0
    2.6372   10.9199   20.0498 C   0  0  0  0  0  0  0  0  0  0  0  0
    3.6200   11.1450   19.0998 C   0  0  0  0  0  0  0  0  0  0  0  0
    3.4514   12.1507   18.1541 C   0  0  0  0  0  0  0  0  0  0  0  0
    2.2742   12.8957   18.1305 C   0  0  0  0  0  0  0  0  0  0  0  0
   -0.8059   14.7423   16.9699 C   0  0  0  0  0  0  0  0  0  0  0  0
   -1.4624   14.7743   15.7375 C   0  0  0  0  0  0  0  0  0  0  0  0
  1  2  2  0
  2  3  2  0
  3  4  1  0
  4  5  1  0
  5  6  1  0
  6  7  1  0
  7  8  2  0
  8  9  1  0
  9 10  2  0
 10 11  1  0
 11 12  1  6
 12 13  1  0
 13 14  1  0
 14 15  2  0
 15 16  1  0
 16 17  2  0
 17 18  1  0
 11 19  1  0
 19 20  2  0
 20 21  1  0
 21 22  2  0
 22 23  1  0
 23 24  2  0
 10 25  1  0
 25 26  2  0
 26  7  1  0
 18 14  1  0
 24 19  1  0
M  CHG  2   1  -1   2   1
M  END
>  <alias>  (938) 
None

>  <rmsd(smina/fragmenstein)>  (938) 
1.258

>  <smiles>  (938) 
[N-]=[N+]=NCCOc1ccc([C@H](NCc2ccco2)c2ccccc2)cc1

>  <gnina_score>  (938) 
5.481

>  <inspiration_score>  (938) 
None

>  <energy_score>  (938) 
-52.77808

>  <distance_score>  (938) 
0.44739

>  <gnina_score_min>  (938) 
5.463

>  <inchikey>  (938) 
INUGZJOADIZYGY-HXUWFJFHSA-N

>  <exports>  (938) 
['/opt/xchem-fragalysis-2/maxwin/BulkDock/OUTPUTS/openbind_a71ev2a_c2_elabs_1LOUU54.sdf', '/opt/xchem-fragalysis-2/maxwin/BulkDock/OUTPUTS/openbind_a71ev2a_c2_elabs_1LSYIDY.sdf']

>  <name>  (938) 
P560131

>  <ref_pdb>  (938) 
A0836b

>  <subsites>  (938) 
None

>  <HIPPO Pose ID>  (938) 
560131

>  <ref_mols>  (938) 
A0836b

>  <HIPPO Compound ID>  (938) 
390484

>  <tags>  (938) 
openbind_a71ev2a_c2_elabs,syndirella_product,openbind_a71ev2a_c2_elabs_fragonly_scored_top80percent,openbind_a71ev2a_c2_elabs_scored,BulkDock Fragalysis export,openbind_a71ev2a_c2_elabs_scored_top80percent,openbind_a71ev2a_c2_elabs_activefrags_only_scored_5.2plus,syndirella_placed

>  <smina_score_min>  (938) 
-5.666

$$$$
P560136
     RDKit          3D

 26 29  0  0  0  0  0  0  0  0999 V2000
    3.6021   11.2120   19.1393 C   0  0  0  0  0  0  0  0  0  0  0  0
    2.5763   11.0591   20.0592 C   0  0  0  0  0  0  0  0  0  0  0  0
    1.4728   11.9085   20.0271 C   0  0  0  0  0  0  0  0  0  0  0  0
    1.3774   12.9225   19.0627 C   0  0  0  0  0  0  0  0  0  0  0  0
    0.1265   13.7942   18.9961 C   0  0  1  0  0  0  0  0  0  0  0  0
    0.4685   15.1686   19.3996 N   0  0  0  0  0  0  0  0  0  0  0  0
   -0.5379   15.7984   20.2477 C   0  0  0  0  0  0  0  0  0  0  0  0
   -1.8648   16.0404   19.6188 C   0  0  0  0  0  0  0  0  0  0  0  0
   -2.4326   17.1161   18.9657 C   0  0  0  0  0  0  0  0  0  0  0  0
   -3.7308   16.7090   18.5734 C   0  0  0  0  0  0  0  0  0  0  0  0
   -3.8836   15.4229   19.0324 C   0  0  0  0  0  0  0  0  0  0  0  0
   -2.7695   15.0193   19.6930 O   0  0  0  0  0  0  0  0  0  0  0  0
   -0.6066   13.6458   17.6501 C   0  0  0  0  0  0  0  0  0  0  0  0
   -0.8254   14.7041   16.7520 C   0  0  0  0  0  0  0  0  0  0  0  0
   -1.5600   14.5224   15.5779 C   0  0  0  0  0  0  0  0  0  0  0  0
   -2.0851   13.2698   15.2790 C   0  0  0  0  0  0  0  0  0  0  0  0
   -2.7939   13.0377   14.1292 O   0  0  0  0  0  0  0  0  0  0  0  0
   -3.9296   13.6979   13.8833 C   0  0  0  0  0  0  0  0  0  0  0  0
   -4.4812   14.5739   14.6979 N   0  0  0  0  0  0  0  0  0  0  0  0
   -5.6494   15.0557   14.1433 C   0  0  0  0  0  0  0  0  0  0  0  0
   -5.9751   14.5464   12.9058 C   0  0  0  0  0  0  0  0  0  0  0  0
   -4.7803   13.4201   12.4161 S   0  0  0  0  0  0  0  0  0  0  0  0
   -1.8389   12.1896   16.1201 C   0  0  0  0  0  0  0  0  0  0  0  0
   -1.1182   12.3809   17.3008 C   0  0  0  0  0  0  0  0  0  0  0  0
    2.4373   13.0860   18.1623 C   0  0  0  0  0  0  0  0  0  0  0  0
    3.5414   12.2367   18.2006 C   0  0  0  0  0  0  0  0  0  0  0  0
  1  2  2  0
  2  3  1  0
  3  4  2  0
  4  5  1  0
  5  6  1  6
  6  7  1  0
  7  8  1  0
  8  9  2  0
  9 10  1  0
 10 11  2  0
 11 12  1  0
  5 13  1  0
 13 14  2  0
 14 15  1  0
 15 16  2  0
 16 17  1  0
 17 18  1  0
 18 19  2  0
 19 20  1  0
 20 21  2  0
 21 22  1  0
 16 23  1  0
 23 24  2  0
  4 25  1  0
 25 26  2  0
 26  1  1  0
 12  8  1  0
 24 13  1  0
 22 18  1  0
M  END
>  <alias>  (939) 
None

>  <rmsd(smina/fragmenstein)>  (939) 
1.817

>  <smiles>  (939) 
c1ccc([C@@H](NCc2ccco2)c2ccc(Oc3nccs3)cc2)cc1

>  <gnina_score>  (939) 
5.223

>  <inspiration_score>  (939) 
None

>  <energy_score>  (939) 
-92.910119

>  <distance_score>  (939) 
0.302823

>  <gnina_score_min>  (939) 
5.401

>  <inchikey>  (939) 
FNTRTDLWEQJTHX-HXUWFJFHSA-N

>  <exports>  (939) 
['/opt/xchem-fragalysis-2/maxwin/BulkDock/OUTPUTS/openbind_a71ev2a_c2_elabs_1LOUU54.sdf', '/opt/xchem-fragalysis-2/maxwin/BulkDock/OUTPUTS/openbind_a71ev2a_c2_elabs_1LSYIDY.sdf']

>  <name>  (939) 
P560136

>  <ref_pdb>  (939) 
A0836b

>  <subsites>  (939) 
None

>  <HIPPO Pose ID>  (939) 
560136

>  <ref_mols>  (939) 
A0836b

>  <HIPPO Compound ID>  (939) 
390486

>  <tags>  (939) 
openbind_a71ev2a_c2_elabs,syndirella_product,openbind_a71ev2a_c2_elabs_fragonly_scored_top80percent,openbind_a71ev2a_c2_elabs_scored,BulkDock Fragalysis export,openbind_a71ev2a_c2_elabs_scored_top80percent,openbind_a71ev2a_c2_elabs_activefrags_only_scored_5.2plus,syndirella_placed

>  <smina_score_min>  (939) 
-5.495

$$$$
P560147
     RDKit          3D

 26 28  0  0  0  0  0  0  0  0999 V2000
   -4.5892   13.6362   11.9706 C   0  0  0  0  0  0  0  0  0  0  0  0
   -5.0682   12.9260   13.2200 C   0  0  0  0  0  0  0  0  0  0  0  0
   -5.1047   11.5882   12.9779 F   0  0  0  0  0  0  0  0  0  0  0  0
   -6.3553   13.2985   13.4653 F   0  0  0  0  0  0  0  0  0  0  0  0
   -4.2306   13.2010   14.4666 C   0  0  0  0  0  0  0  0  0  0  0  0
   -2.8292   13.0819   14.1748 O   0  0  0  0  0  0  0  0  0  0  0  0
   -2.0944   13.3311   15.3003 C   0  0  0  0  0  0  0  0  0  0  0  0
   -1.7927   12.3005   16.1863 C   0  0  0  0  0  0  0  0  0  0  0  0
   -1.0084   12.5635   17.3137 C   0  0  0  0  0  0  0  0  0  0  0  0
   -0.4907   13.8483   17.5422 C   0  0  0  0  0  0  0  0  0  0  0  0
    0.4102   14.1745   18.7338 C   0  0  1  0  0  0  0  0  0  0  0  0
   -0.3558   14.5289   19.9386 N   0  0  0  0  0  0  0  0  0  0  0  0
   -0.9342   15.8704   19.8402 C   0  0  0  0  0  0  0  0  0  0  0  0
   -1.4998   16.3770   21.1247 C   0  0  0  0  0  0  0  0  0  0  0  0
   -1.2898   16.1004   22.4604 C   0  0  0  0  0  0  0  0  0  0  0  0
   -2.1113   16.9876   23.1963 C   0  0  0  0  0  0  0  0  0  0  0  0
   -2.7716   17.7534   22.2664 C   0  0  0  0  0  0  0  0  0  0  0  0
   -2.4012   17.3997   21.0100 O   0  0  0  0  0  0  0  0  0  0  0  0
    1.4892   13.1197   18.9746 C   0  0  0  0  0  0  0  0  0  0  0  0
    1.3937   12.1143   19.9429 C   0  0  0  0  0  0  0  0  0  0  0  0
    2.4140   11.1706   20.0807 C   0  0  0  0  0  0  0  0  0  0  0  0
    3.5267   11.1972   19.2509 C   0  0  0  0  0  0  0  0  0  0  0  0
    3.6333   12.1855   18.2841 C   0  0  0  0  0  0  0  0  0  0  0  0
    2.6280   13.1373   18.1522 C   0  0  0  0  0  0  0  0  0  0  0  0
   -0.8158   14.8665   16.6276 C   0  0  0  0  0  0  0  0  0  0  0  0
   -1.6040   14.6130   15.5080 C   0  0  0  0  0  0  0  0  0  0  0  0
  1  2  1  0
  2  3  1  0
  2  4  1  0
  2  5  1  0
  5  6  1  0
  6  7  1  0
  7  8  2  0
  8  9  1  0
  9 10  2  0
 10 11  1  0
 11 12  1  1
 12 13  1  0
 13 14  1  0
 14 15  2  0
 15 16  1  0
 16 17  2  0
 17 18  1  0
 11 19  1  0
 19 20  2  0
 20 21  1  0
 21 22  2  0
 22 23  1  0
 23 24  2  0
 10 25  1  0
 25 26  2  0
 26  7  1  0
 18 14  1  0
 24 19  1  0
M  END
>  <alias>  (940) 
None

>  <rmsd(smina/fragmenstein)>  (940) 
2.325

>  <smiles>  (940) 
CC(F)(F)COc1ccc([C@@H](NCc2ccco2)c2ccccc2)cc1

>  <gnina_score>  (940) 
4.961

>  <inspiration_score>  (940) 
None

>  <energy_score>  (940) 
-40.446748

>  <distance_score>  (940) 
0.481503

>  <gnina_score_min>  (940) 
5.201

>  <inchikey>  (940) 
PFAUBIBSHUPDIO-FQEVSTJZSA-N

>  <exports>  (940) 
['/opt/xchem-fragalysis-2/maxwin/BulkDock/OUTPUTS/openbind_a71ev2a_c2_elabs_1LOUU54.sdf', '/opt/xchem-fragalysis-2/maxwin/BulkDock/OUTPUTS/openbind_a71ev2a_c2_elabs_1LSYIDY.sdf']

>  <name>  (940) 
P560147

>  <ref_pdb>  (940) 
A0836b

>  <subsites>  (940) 
None

>  <HIPPO Pose ID>  (940) 
560147

>  <ref_mols>  (940) 
A0836b

>  <HIPPO Compound ID>  (940) 
390490

>  <tags>  (940) 
openbind_a71ev2a_c2_elabs,syndirella_product,openbind_a71ev2a_c2_elabs_fragonly_scored_top80percent,openbind_a71ev2a_c2_elabs_scored,BulkDock Fragalysis export,openbind_a71ev2a_c2_elabs_scored_top80percent,openbind_a71ev2a_c2_elabs_activefrags_only_scored_5.2plus,syndirella_placed

>  <smina_score_min>  (940) 
-5.592

$$$$
P560155
     RDKit          3D

 26 28  0  0  0  0  0  0  0  0999 V2000
   -5.7676   15.5067   13.6636 C   0  0  0  0  0  0  0  0  0  0  0  0
   -4.2984   15.0983   13.8077 C   0  0  0  0  0  0  0  0  0  0  0  0
   -3.5359   15.5038   12.5393 C   0  0  0  0  0  0  0  0  0  0  0  0
   -4.1281   13.5832   14.0983 C   0  0  2  0  0  0  0  0  0  0  0  0
   -4.9212   13.0870   15.3138 C   0  0  0  0  0  0  0  0  0  0  0  0
   -2.7365   13.1895   14.1024 O   0  0  0  0  0  0  0  0  0  0  0  0
   -2.0702   13.3457   15.2831 C   0  0  0  0  0  0  0  0  0  0  0  0
   -1.8788   12.2337   16.0963 C   0  0  0  0  0  0  0  0  0  0  0  0
   -1.1804   12.3621   17.2983 C   0  0  0  0  0  0  0  0  0  0  0  0
   -0.6233   13.5941   17.6891 C   0  0  0  0  0  0  0  0  0  0  0  0
    0.1322   13.6741   19.0314 C   0  0  2  0  0  0  0  0  0  0  0  0
    0.4684   15.0601   19.4360 N   0  0  0  0  0  0  0  0  0  0  0  0
    0.5531   15.2133   20.8923 C   0  0  0  0  0  0  0  0  0  0  0  0
    1.8601   14.8814   21.5210 C   0  0  0  0  0  0  0  0  0  0  0  0
    3.1356   14.6292   21.0578 C   0  0  0  0  0  0  0  0  0  0  0  0
    3.9510   14.4034   22.1871 C   0  0  0  0  0  0  0  0  0  0  0  0
    3.1308   14.5406   23.2789 C   0  0  0  0  0  0  0  0  0  0  0  0
    1.8672   14.8504   22.8913 O   0  0  0  0  0  0  0  0  0  0  0  0
    1.3520   12.7693   19.0322 C   0  0  0  0  0  0  0  0  0  0  0  0
    1.4718   11.7480   19.9839 C   0  0  0  0  0  0  0  0  0  0  0  0
    2.5998   10.9319   20.0072 C   0  0  0  0  0  0  0  0  0  0  0  0
    3.6175   11.1188   19.0840 C   0  0  0  0  0  0  0  0  0  0  0  0
    3.5212   12.1396   18.1436 C   0  0  0  0  0  0  0  0  0  0  0  0
    2.3924   12.9539   18.1113 C   0  0  0  0  0  0  0  0  0  0  0  0
   -0.7770   14.6841   16.8169 C   0  0  0  0  0  0  0  0  0  0  0  0
   -1.4918   14.5617   15.6223 C   0  0  0  0  0  0  0  0  0  0  0  0
  1  2  1  0
  2  3  1  0
  2  4  1  0
  4  5  1  1
  4  6  1  0
  6  7  1  0
  7  8  2  0
  8  9  1  0
  9 10  2  0
 10 11  1  0
 11 12  1  6
 12 13  1  0
 13 14  1  0
 14 15  2  0
 15 16  1  0
 16 17  2  0
 17 18  1  0
 11 19  1  0
 19 20  2  0
 20 21  1  0
 21 22  2  0
 22 23  1  0
 23 24  2  0
 10 25  1  0
 25 26  2  0
 26  7  1  0
 18 14  1  0
 24 19  1  0
M  END
>  <alias>  (941) 
None

>  <rmsd(smina/fragmenstein)>  (941) 
1.073

>  <smiles>  (941) 
CC(C)[C@H](C)Oc1ccc([C@H](NCc2ccco2)c2ccccc2)cc1

>  <gnina_score>  (941) 
5.5

>  <inspiration_score>  (941) 
None

>  <energy_score>  (941) 
-14.247234

>  <distance_score>  (941) 
0.278619

>  <gnina_score_min>  (941) 
5.638

>  <inchikey>  (941) 
AOXVZBCKLYGLDY-FDDCHVKYSA-N

>  <exports>  (941) 
['/opt/xchem-fragalysis-2/maxwin/BulkDock/OUTPUTS/openbind_a71ev2a_c2_elabs_1LOUU54.sdf', '/opt/xchem-fragalysis-2/maxwin/BulkDock/OUTPUTS/openbind_a71ev2a_c2_elabs_1LSYIDY.sdf']

>  <name>  (941) 
P560155

>  <ref_pdb>  (941) 
A0836b

>  <subsites>  (941) 
None

>  <HIPPO Pose ID>  (941) 
560155

>  <ref_mols>  (941) 
A0836b

>  <HIPPO Compound ID>  (941) 
390494

>  <tags>  (941) 
openbind_a71ev2a_c2_elabs,syndirella_product,openbind_a71ev2a_c2_elabs_fragonly_scored_top80percent,BulkDock Fragalysis export,openbind_a71ev2a_c2_elabs_scored,openbind_a71ev2a_c2_elabs_scored_top80percent,openbind_a71ev2a_c2_elabs_activefrags_only_scored_5.2plus,openbind_a71ev2a_c2_elabs_activefrags_only_scored_5.5plus,syndirella_placed

>  <smina_score_min>  (941) 
-5.64

$$$$
P560166
     RDKit          3D

 26 29  0  0  0  0  0  0  0  0999 V2000
    3.5866   11.3035   19.1257 C   0  0  0  0  0  0  0  0  0  0  0  0
    2.6017   11.0557   20.0674 C   0  0  0  0  0  0  0  0  0  0  0  0
    1.4386   11.8194   20.0759 C   0  0  0  0  0  0  0  0  0  0  0  0
    1.2345   12.8349   19.1285 C   0  0  0  0  0  0  0  0  0  0  0  0
   -0.1184   13.5287   19.0753 C   0  0  1  0  0  0  0  0  0  0  0  0
   -0.1249   14.8480   19.7555 N   0  0  0  0  0  0  0  0  0  0  0  0
   -1.5010   15.1164   20.2155 C   0  0  0  0  0  0  0  0  0  0  0  0
   -1.6699   16.4724   20.7998 C   0  0  0  0  0  0  0  0  0  0  0  0
   -1.8896   17.7139   20.2396 C   0  0  0  0  0  0  0  0  0  0  0  0
   -2.1245   18.6022   21.3145 C   0  0  0  0  0  0  0  0  0  0  0  0
   -2.0181   17.8523   22.4621 C   0  0  0  0  0  0  0  0  0  0  0  0
   -1.7362   16.5586   22.1614 O   0  0  0  0  0  0  0  0  0  0  0  0
   -0.7302   13.5467   17.6710 C   0  0  0  0  0  0  0  0  0  0  0  0
   -0.8102   14.7165   16.8997 C   0  0  0  0  0  0  0  0  0  0  0  0
   -1.4425   14.7110   15.6566 C   0  0  0  0  0  0  0  0  0  0  0  0
   -2.0027   13.5340   15.1716 C   0  0  0  0  0  0  0  0  0  0  0  0
   -2.6371   13.5962   13.9615 O   0  0  0  0  0  0  0  0  0  0  0  0
   -4.0051   13.1787   14.0577 C   0  0  0  0  0  0  0  0  0  0  0  0
   -4.7114   13.6328   12.7954 C   0  0  0  0  0  0  0  0  0  0  0  0
   -4.3699   12.8636   11.5167 C   0  0  0  0  0  0  0  0  0  0  0  0
   -5.7586   12.5133   11.3065 O   0  0  0  0  0  0  0  0  0  0  0  0
   -6.1205   13.0736   12.5892 C   0  0  0  0  0  0  0  0  0  0  0  0
   -1.8719   12.3454   15.8849 C   0  0  0  0  0  0  0  0  0  0  0  0
   -1.2431   12.3544   17.1305 C   0  0  0  0  0  0  0  0  0  0  0  0
    2.2642   13.1121   18.2230 C   0  0  0  0  0  0  0  0  0  0  0  0
    3.4311   12.3467   18.2183 C   0  0  0  0  0  0  0  0  0  0  0  0
  1  2  2  0
  2  3  1  0
  3  4  2  0
  4  5  1  0
  5  6  1  6
  6  7  1  0
  7  8  1  0
  8  9  2  0
  9 10  1  0
 10 11  2  0
 11 12  1  0
  5 13  1  0
 13 14  2  0
 14 15  1  0
 15 16  2  0
 16 17  1  0
 17 18  1  0
 18 19  1  0
 19 20  1  0
 20 21  1  0
 21 22  1  0
 16 23  1  0
 23 24  2  0
  4 25  1  0
 25 26  2  0
 26  1  1  0
 12  8  1  0
 24 13  1  0
 22 19  1  0
M  END
>  <alias>  (942) 
None

>  <rmsd(smina/fragmenstein)>  (942) 
1.922

>  <smiles>  (942) 
c1ccc([C@@H](NCc2ccco2)c2ccc(OCC3COC3)cc2)cc1

>  <gnina_score>  (942) 
4.888

>  <inspiration_score>  (942) 
None

>  <energy_score>  (942) 
-76.130316

>  <distance_score>  (942) 
0.444409

>  <gnina_score_min>  (942) 
5.241

>  <inchikey>  (942) 
FZFMEXDJHNDXKE-JOCHJYFZSA-N

>  <exports>  (942) 
['/opt/xchem-fragalysis-2/maxwin/BulkDock/OUTPUTS/openbind_a71ev2a_c2_elabs_1LOUU54.sdf', '/opt/xchem-fragalysis-2/maxwin/BulkDock/OUTPUTS/openbind_a71ev2a_c2_elabs_1LSYIDY.sdf']

>  <name>  (942) 
P560166

>  <ref_pdb>  (942) 
A0836b

>  <subsites>  (942) 
None

>  <HIPPO Pose ID>  (942) 
560166

>  <ref_mols>  (942) 
A0836b

>  <HIPPO Compound ID>  (942) 
390498

>  <tags>  (942) 
openbind_a71ev2a_c2_elabs,syndirella_product,openbind_a71ev2a_c2_elabs_fragonly_scored_top80percent,openbind_a71ev2a_c2_elabs_scored,BulkDock Fragalysis export,openbind_a71ev2a_c2_elabs_scored_top80percent,openbind_a71ev2a_c2_elabs_activefrags_only_scored_5.2plus,syndirella_placed

>  <smina_score_min>  (942) 
-5.003

$$$$
P560179
     RDKit          3D

 26 28  0  0  0  0  0  0  0  0999 V2000
   -2.3307   13.3223   11.2636 C   0  0  0  0  0  0  0  0  0  0  0  0
   -2.7916   14.7654   12.1900 S   0  0  0  0  0  0  0  0  0  0  0  0
   -1.5700   15.4596   12.5636 O   0  0  0  0  0  0  0  0  0  0  0  0
   -3.8114   15.4637   11.4270 O   0  0  0  0  0  0  0  0  0  0  0  0
   -3.5771   14.0684   13.6587 C   0  0  0  0  0  0  0  0  0  0  0  0
   -2.8706   12.9817   14.2605 O   0  0  0  0  0  0  0  0  0  0  0  0
   -2.1239   13.2672   15.3656 C   0  0  0  0  0  0  0  0  0  0  0  0
   -1.5672   14.5034   15.6762 C   0  0  0  0  0  0  0  0  0  0  0  0
   -0.8221   14.6650   16.8478 C   0  0  0  0  0  0  0  0  0  0  0  0
   -0.6319   13.6037   17.7432 C   0  0  0  0  0  0  0  0  0  0  0  0
    0.1191   13.7422   19.0762 C   0  0  2  0  0  0  0  0  0  0  0  0
    0.4657   15.1301   19.4230 N   0  0  0  0  0  0  0  0  0  0  0  0
    0.5522   15.3211   20.8689 C   0  0  0  0  0  0  0  0  0  0  0  0
   -0.6799   15.9718   21.4175 C   0  0  0  0  0  0  0  0  0  0  0  0
   -1.2233   16.0453   22.6839 C   0  0  0  0  0  0  0  0  0  0  0  0
   -2.3787   16.8553   22.5849 C   0  0  0  0  0  0  0  0  0  0  0  0
   -2.4685   17.2315   21.2659 C   0  0  0  0  0  0  0  0  0  0  0  0
   -1.4398   16.7106   20.5508 O   0  0  0  0  0  0  0  0  0  0  0  0
    1.3612   12.8604   19.1149 C   0  0  0  0  0  0  0  0  0  0  0  0
    1.4605   11.8158   20.0423 C   0  0  0  0  0  0  0  0  0  0  0  0
    2.5784   10.9845   20.0546 C   0  0  0  0  0  0  0  0  0  0  0  0
    3.6063   11.1779   19.1438 C   0  0  0  0  0  0  0  0  0  0  0  0
    3.5355   12.2272   18.2343 C   0  0  0  0  0  0  0  0  0  0  0  0
    2.4225   13.0641   18.2218 C   0  0  0  0  0  0  0  0  0  0  0  0
   -1.1754   12.3557   17.3968 C   0  0  0  0  0  0  0  0  0  0  0  0
   -1.8996   12.1871   16.2158 C   0  0  0  0  0  0  0  0  0  0  0  0
  1  2  1  0
  2  3  2  0
  2  4  2  0
  2  5  1  0
  5  6  1  0
  6  7  1  0
  7  8  2  0
  8  9  1  0
  9 10  2  0
 10 11  1  0
 11 12  1  6
 12 13  1  0
 13 14  1  0
 14 15  2  0
 15 16  1  0
 16 17  2  0
 17 18  1  0
 11 19  1  0
 19 20  2  0
 20 21  1  0
 21 22  2  0
 22 23  1  0
 23 24  2  0
 10 25  1  0
 25 26  2  0
 26  7  1  0
 18 14  1  0
 24 19  1  0
M  END
>  <alias>  (943) 
None

>  <rmsd(smina/fragmenstein)>  (943) 
0.643

>  <smiles>  (943) 
CS(=O)(=O)COc1ccc([C@H](NCc2ccco2)c2ccccc2)cc1

>  <gnina_score>  (943) 
5.281

>  <inspiration_score>  (943) 
None

>  <energy_score>  (943) 
-65.865939

>  <distance_score>  (943) 
0.398625

>  <gnina_score_min>  (943) 
5.248

>  <inchikey>  (943) 
VBGUKRGFZDQKSH-HXUWFJFHSA-N

>  <exports>  (943) 
['/opt/xchem-fragalysis-2/maxwin/BulkDock/OUTPUTS/openbind_a71ev2a_c2_elabs_1LOUU54.sdf', '/opt/xchem-fragalysis-2/maxwin/BulkDock/OUTPUTS/openbind_a71ev2a_c2_elabs_1LSYIDY.sdf']

>  <name>  (943) 
P560179

>  <ref_pdb>  (943) 
A0836b

>  <subsites>  (943) 
None

>  <HIPPO Pose ID>  (943) 
560179

>  <ref_mols>  (943) 
A0836b

>  <HIPPO Compound ID>  (943) 
390502

>  <tags>  (943) 
openbind_a71ev2a_c2_elabs,syndirella_product,openbind_a71ev2a_c2_elabs_fragonly_scored_top80percent,openbind_a71ev2a_c2_elabs_scored,BulkDock Fragalysis export,openbind_a71ev2a_c2_elabs_scored_top80percent,openbind_a71ev2a_c2_elabs_activefrags_only_scored_5.2plus,syndirella_placed

>  <smina_score_min>  (943) 
-5.138

$$$$
P560181
     RDKit          3D

 26 28  0  0  0  0  0  0  0  0999 V2000
   -6.7719   10.5759   13.5223 C   0  0  0  0  0  0  0  0  0  0  0  0
   -6.2488   11.4645   12.6682 C   0  0  0  0  0  0  0  0  0  0  0  0
   -6.2283   12.9476   12.9035 C   0  0  0  0  0  0  0  0  0  0  0  0
   -4.8136   13.5229   12.9555 C   0  0  0  0  0  0  0  0  0  0  0  0
   -4.0027   13.0172   14.1476 C   0  0  0  0  0  0  0  0  0  0  0  0
   -2.7378   13.6890   14.1276 O   0  0  0  0  0  0  0  0  0  0  0  0
   -2.0704   13.6299   15.3203 C   0  0  0  0  0  0  0  0  0  0  0  0
   -1.4758   14.8121   15.7491 C   0  0  0  0  0  0  0  0  0  0  0  0
   -0.7874   14.8510   16.9630 C   0  0  0  0  0  0  0  0  0  0  0  0
   -0.6738   13.7097   17.7672 C   0  0  0  0  0  0  0  0  0  0  0  0
    0.0491   13.7134   19.1152 C   0  0  2  0  0  0  0  0  0  0  0  0
    0.3750   15.0559   19.6513 N   0  0  0  0  0  0  0  0  0  0  0  0
   -0.6186   15.5269   20.6223 C   0  0  0  0  0  0  0  0  0  0  0  0
   -1.6090   16.4706   20.0380 C   0  0  0  0  0  0  0  0  0  0  0  0
   -2.7722   16.2995   19.3147 C   0  0  0  0  0  0  0  0  0  0  0  0
   -3.2880   17.5936   19.0683 C   0  0  0  0  0  0  0  0  0  0  0  0
   -2.4200   18.4720   19.6711 C   0  0  0  0  0  0  0  0  0  0  0  0
   -1.4019   17.8022   20.2698 O   0  0  0  0  0  0  0  0  0  0  0  0
    1.3080   12.8474   19.1021 C   0  0  0  0  0  0  0  0  0  0  0  0
    1.4551   11.8182   20.0426 C   0  0  0  0  0  0  0  0  0  0  0  0
    2.5870   11.0070   20.0370 C   0  0  0  0  0  0  0  0  0  0  0  0
    3.5891   11.2141   19.1017 C   0  0  0  0  0  0  0  0  0  0  0  0
    3.4768   12.2548   18.1854 C   0  0  0  0  0  0  0  0  0  0  0  0
    2.3444   13.0670   18.1858 C   0  0  0  0  0  0  0  0  0  0  0  0
   -1.2420   12.5123   17.2935 C   0  0  0  0  0  0  0  0  0  0  0  0
   -1.9301   12.4693   16.0771 C   0  0  0  0  0  0  0  0  0  0  0  0
  1  2  2  0
  2  3  1  0
  3  4  1  0
  4  5  1  0
  5  6  1  0
  6  7  1  0
  7  8  2  0
  8  9  1  0
  9 10  2  0
 10 11  1  0
 11 12  1  6
 12 13  1  0
 13 14  1  0
 14 15  2  0
 15 16  1  0
 16 17  2  0
 17 18  1  0
 11 19  1  0
 19 20  2  0
 20 21  1  0
 21 22  2  0
 22 23  1  0
 23 24  2  0
 10 25  1  0
 25 26  2  0
 26  7  1  0
 18 14  1  0
 24 19  1  0
M  END
>  <alias>  (944) 
None

>  <rmsd(smina/fragmenstein)>  (944) 
1.795

>  <smiles>  (944) 
C=CCCCOc1ccc([C@H](NCc2ccco2)c2ccccc2)cc1

>  <gnina_score>  (944) 
5.173

>  <inspiration_score>  (944) 
None

>  <energy_score>  (944) 
-41.014225

>  <distance_score>  (944) 
0.34234

>  <gnina_score_min>  (944) 
5.289

>  <inchikey>  (944) 
SSONVDUAWDONMI-HSZRJFAPSA-N

>  <exports>  (944) 
['/opt/xchem-fragalysis-2/maxwin/BulkDock/OUTPUTS/openbind_a71ev2a_c2_elabs_1LOUU54.sdf', '/opt/xchem-fragalysis-2/maxwin/BulkDock/OUTPUTS/openbind_a71ev2a_c2_elabs_1LSYIDY.sdf']

>  <name>  (944) 
P560181

>  <ref_pdb>  (944) 
A0836b

>  <subsites>  (944) 
None

>  <HIPPO Pose ID>  (944) 
560181

>  <ref_mols>  (944) 
A0836b

>  <HIPPO Compound ID>  (944) 
390503

>  <tags>  (944) 
openbind_a71ev2a_c2_elabs,syndirella_product,openbind_a71ev2a_c2_elabs_fragonly_scored_top80percent,openbind_a71ev2a_c2_elabs_scored,BulkDock Fragalysis export,openbind_a71ev2a_c2_elabs_scored_top80percent,openbind_a71ev2a_c2_elabs_activefrags_only_scored_5.2plus,syndirella_placed

>  <smina_score_min>  (944) 
-4.773

$$$$
P560185
     RDKit          3D

 26 28  0  0  0  0  0  0  0  0999 V2000
   -7.1419   11.7963   13.0603 C   0  0  0  0  0  0  0  0  0  0  0  0
   -6.4668   12.9299   13.3112 C   0  0  0  0  0  0  0  0  0  0  0  0
   -7.1693   14.1831   13.7528 C   0  0  0  0  0  0  0  0  0  0  0  0
   -4.9687   13.0166   13.1270 C   0  0  0  0  0  0  0  0  0  0  0  0
   -4.1996   13.1408   14.4439 C   0  0  0  0  0  0  0  0  0  0  0  0
   -2.7978   13.1664   14.1363 O   0  0  0  0  0  0  0  0  0  0  0  0
   -2.0698   13.3783   15.2744 C   0  0  0  0  0  0  0  0  0  0  0  0
   -1.5845   14.6560   15.5175 C   0  0  0  0  0  0  0  0  0  0  0  0
   -0.8063   14.8868   16.6494 C   0  0  0  0  0  0  0  0  0  0  0  0
   -0.4829   13.8486   17.5405 C   0  0  0  0  0  0  0  0  0  0  0  0
    0.3924   14.1491   18.7599 C   0  0  1  0  0  0  0  0  0  0  0  0
   -0.4376   14.4337   19.9371 N   0  0  0  0  0  0  0  0  0  0  0  0
   -0.8198   15.8428   20.0071 C   0  0  0  0  0  0  0  0  0  0  0  0
   -1.7477   16.1082   21.1410 C   0  0  0  0  0  0  0  0  0  0  0  0
   -2.9389   15.5394   21.5441 C   0  0  0  0  0  0  0  0  0  0  0  0
   -3.3762   16.2770   22.6700 C   0  0  0  0  0  0  0  0  0  0  0  0
   -2.4216   17.2421   22.8888 C   0  0  0  0  0  0  0  0  0  0  0  0
   -1.4337   17.1538   21.9616 O   0  0  0  0  0  0  0  0  0  0  0  0
    1.4776   13.0972   18.9871 C   0  0  0  0  0  0  0  0  0  0  0  0
    2.6165   13.1371   18.1648 C   0  0  0  0  0  0  0  0  0  0  0  0
    3.6320   12.1940   18.2836 C   0  0  0  0  0  0  0  0  0  0  0  0
    3.5372   11.1926   19.2380 C   0  0  0  0  0  0  0  0  0  0  0  0
    2.4251   11.1422   20.0667 C   0  0  0  0  0  0  0  0  0  0  0  0
    1.3928   12.0747   19.9390 C   0  0  0  0  0  0  0  0  0  0  0  0
   -0.9923   12.5666   17.2753 C   0  0  0  0  0  0  0  0  0  0  0  0
   -1.7691   12.3277   16.1371 C   0  0  0  0  0  0  0  0  0  0  0  0
  1  2  2  0
  2  3  1  0
  2  4  1  0
  4  5  1  0
  5  6  1  0
  6  7  1  0
  7  8  2  0
  8  9  1  0
  9 10  2  0
 10 11  1  0
 11 12  1  1
 12 13  1  0
 13 14  1  0
 14 15  2  0
 15 16  1  0
 16 17  2  0
 17 18  1  0
 11 19  1  0
 19 20  2  0
 20 21  1  0
 21 22  2  0
 22 23  1  0
 23 24  2  0
 10 25  1  0
 25 26  2  0
 26  7  1  0
 18 14  1  0
 24 19  1  0
M  END
>  <alias>  (945) 
None

>  <rmsd(smina/fragmenstein)>  (945) 
1.917

>  <smiles>  (945) 
C=C(C)CCOc1ccc([C@@H](NCc2ccco2)c2ccccc2)cc1

>  <gnina_score>  (945) 
5.029

>  <inspiration_score>  (945) 
None

>  <energy_score>  (945) 
-33.767085

>  <distance_score>  (945) 
0.492452

>  <gnina_score_min>  (945) 
5.2

>  <inchikey>  (945) 
IPOXCVNIDLZBCF-QHCPKHFHSA-N

>  <exports>  (945) 
['/opt/xchem-fragalysis-2/maxwin/BulkDock/OUTPUTS/openbind_a71ev2a_c2_elabs_1LOUU54.sdf', '/opt/xchem-fragalysis-2/maxwin/BulkDock/OUTPUTS/openbind_a71ev2a_c2_elabs_1LSYIDY.sdf']

>  <name>  (945) 
P560185

>  <ref_pdb>  (945) 
A0836b

>  <subsites>  (945) 
None

>  <HIPPO Pose ID>  (945) 
560185

>  <ref_mols>  (945) 
A0836b

>  <HIPPO Compound ID>  (945) 
390505

>  <tags>  (945) 
openbind_a71ev2a_c2_elabs,syndirella_product,openbind_a71ev2a_c2_elabs_fragonly_scored_top80percent,openbind_a71ev2a_c2_elabs_scored,BulkDock Fragalysis export,openbind_a71ev2a_c2_elabs_scored_top80percent,openbind_a71ev2a_c2_elabs_activefrags_only_scored_5.2plus,syndirella_placed

>  <smina_score_min>  (945) 
-4.636

$$$$
P560195
     RDKit          3D

 26 28  0  0  0  0  0  0  0  0999 V2000
   -7.1166   10.9100   14.5112 C   0  0  0  0  0  0  0  0  0  0  0  0
   -6.9779   11.0720   13.1081 O   0  0  0  0  0  0  0  0  0  0  0  0
   -5.6284   11.0287   12.6457 C   0  0  0  0  0  0  0  0  0  0  0  0
   -4.8456   12.2946   12.9825 C   0  0  0  0  0  0  0  0  0  0  0  0
   -3.9085   12.1010   14.1731 C   0  0  0  0  0  0  0  0  0  0  0  0
   -3.2193   13.3309   14.3913 O   0  0  0  0  0  0  0  0  0  0  0  0
   -2.3681   13.3804   15.4605 C   0  0  0  0  0  0  0  0  0  0  0  0
   -1.8223   14.6397   15.7035 C   0  0  0  0  0  0  0  0  0  0  0  0
   -0.9322   14.8327   16.7598 C   0  0  0  0  0  0  0  0  0  0  0  0
   -0.5542   13.7659   17.5900 C   0  0  0  0  0  0  0  0  0  0  0  0
    0.4297   14.0233   18.7331 C   0  0  1  0  0  0  0  0  0  0  0  0
   -0.2976   14.2980   19.9789 N   0  0  0  0  0  0  0  0  0  0  0  0
    0.3195   15.3482   20.7967 C   0  0  0  0  0  0  0  0  0  0  0  0
    1.5389   14.9662   21.5712 C   0  0  0  0  0  0  0  0  0  0  0  0
    2.8457   14.6620   21.2425 C   0  0  0  0  0  0  0  0  0  0  0  0
    3.5325   14.4201   22.4538 C   0  0  0  0  0  0  0  0  0  0  0  0
    2.6168   14.6234   23.4554 C   0  0  0  0  0  0  0  0  0  0  0  0
    1.4162   14.9818   22.9365 O   0  0  0  0  0  0  0  0  0  0  0  0
    1.4914   12.9429   18.8692 C   0  0  0  0  0  0  0  0  0  0  0  0
    2.6152   12.9998   18.0341 C   0  0  0  0  0  0  0  0  0  0  0  0
    3.6534   12.0855   18.1677 C   0  0  0  0  0  0  0  0  0  0  0  0
    3.5848   11.0895   19.1336 C   0  0  0  0  0  0  0  0  0  0  0  0
    2.4776   11.0167   19.9661 C   0  0  0  0  0  0  0  0  0  0  0  0
    1.4277   11.9237   19.8292 C   0  0  0  0  0  0  0  0  0  0  0  0
   -1.1255   12.5088   17.3516 C   0  0  0  0  0  0  0  0  0  0  0  0
   -2.0181   12.3144   16.2893 C   0  0  0  0  0  0  0  0  0  0  0  0
  1  2  1  0
  2  3  1  0
  3  4  1  0
  4  5  1  0
  5  6  1  0
  6  7  1  0
  7  8  2  0
  8  9  1  0
  9 10  2  0
 10 11  1  0
 11 12  1  1
 12 13  1  0
 13 14  1  0
 14 15  2  0
 15 16  1  0
 16 17  2  0
 17 18  1  0
 11 19  1  0
 19 20  2  0
 20 21  1  0
 21 22  2  0
 22 23  1  0
 23 24  2  0
 10 25  1  0
 25 26  2  0
 26  7  1  0
 18 14  1  0
 24 19  1  0
M  END
>  <alias>  (946) 
None

>  <rmsd(smina/fragmenstein)>  (946) 
1.238

>  <smiles>  (946) 
COCCCOc1ccc([C@@H](NCc2ccco2)c2ccccc2)cc1

>  <gnina_score>  (946) 
5.18

>  <inspiration_score>  (946) 
None

>  <energy_score>  (946) 
-29.653472

>  <distance_score>  (946) 
0.61124

>  <gnina_score_min>  (946) 
5.385

>  <inchikey>  (946) 
YVGZRFYJQOZJNA-QFIPXVFZSA-N

>  <exports>  (946) 
['/opt/xchem-fragalysis-2/maxwin/BulkDock/OUTPUTS/openbind_a71ev2a_c2_elabs_1LOUU54.sdf', '/opt/xchem-fragalysis-2/maxwin/BulkDock/OUTPUTS/openbind_a71ev2a_c2_elabs_1LSYIDY.sdf']

>  <name>  (946) 
P560195

>  <ref_pdb>  (946) 
A0836b

>  <subsites>  (946) 
None

>  <HIPPO Pose ID>  (946) 
560195

>  <ref_mols>  (946) 
A0836b

>  <HIPPO Compound ID>  (946) 
390510

>  <tags>  (946) 
openbind_a71ev2a_c2_elabs,syndirella_product,openbind_a71ev2a_c2_elabs_fragonly_scored_top80percent,openbind_a71ev2a_c2_elabs_scored,BulkDock Fragalysis export,openbind_a71ev2a_c2_elabs_scored_top80percent,openbind_a71ev2a_c2_elabs_activefrags_only_scored_5.2plus,syndirella_placed

>  <smina_score_min>  (946) 
-4.95

$$$$
P560201
     RDKit          3D

 26 29  0  0  0  0  0  0  0  0999 V2000
    3.5492   11.2846   19.1759 C   0  0  0  0  0  0  0  0  0  0  0  0
    3.4864   12.2931   18.2219 C   0  0  0  0  0  0  0  0  0  0  0  0
    2.3763   13.1357   18.1675 C   0  0  0  0  0  0  0  0  0  0  0  0
    1.3110   12.9853   19.0662 C   0  0  0  0  0  0  0  0  0  0  0  0
    0.0436   13.8289   18.9610 C   0  0  1  0  0  0  0  0  0  0  0  0
    0.3153   15.2393   19.3179 N   0  0  0  0  0  0  0  0  0  0  0  0
   -0.9279   16.0057   19.4753 C   0  0  0  0  0  0  0  0  0  0  0  0
   -1.2766   16.3250   20.8838 C   0  0  0  0  0  0  0  0  0  0  0  0
   -0.8338   15.8994   22.1166 C   0  0  0  0  0  0  0  0  0  0  0  0
   -1.5967   16.5930   23.0872 C   0  0  0  0  0  0  0  0  0  0  0  0
   -2.4573   17.4026   22.3866 C   0  0  0  0  0  0  0  0  0  0  0  0
   -2.2723   17.2484   21.0511 O   0  0  0  0  0  0  0  0  0  0  0  0
   -0.6581   13.6194   17.6026 C   0  0  0  0  0  0  0  0  0  0  0  0
   -0.7547   14.6211   16.6187 C   0  0  0  0  0  0  0  0  0  0  0  0
   -1.4549   14.4093   15.4327 C   0  0  0  0  0  0  0  0  0  0  0  0
   -2.0590   13.1793   15.2098 C   0  0  0  0  0  0  0  0  0  0  0  0
   -2.7616   12.9840   14.0506 O   0  0  0  0  0  0  0  0  0  0  0  0
   -4.0772   13.2274   14.0480 C   0  0  0  0  0  0  0  0  0  0  0  0
   -4.9648   13.6661   15.0190 C   0  0  0  0  0  0  0  0  0  0  0  0
   -6.2834   13.8043   14.6155 N   0  0  0  0  0  0  0  0  0  0  0  0
   -6.4365   13.4770   13.3442 N   0  0  0  0  0  0  0  0  0  0  0  0
   -5.0073   12.9993   12.6184 S   0  0  0  0  0  0  0  0  0  0  0  0
   -1.9337   12.1459   16.1333 C   0  0  0  0  0  0  0  0  0  0  0  0
   -1.2448   12.3705   17.3270 C   0  0  0  0  0  0  0  0  0  0  0  0
    1.4094   11.9850   20.0437 C   0  0  0  0  0  0  0  0  0  0  0  0
    2.5184   11.1412   20.0919 C   0  0  0  0  0  0  0  0  0  0  0  0
  1  2  2  0
  2  3  1  0
  3  4  2  0
  4  5  1  0
  5  6  1  6
  6  7  1  0
  7  8  1  0
  8  9  2  0
  9 10  1  0
 10 11  2  0
 11 12  1  0
  5 13  1  0
 13 14  2  0
 14 15  1  0
 15 16  2  0
 16 17  1  0
 17 18  1  0
 18 19  2  0
 19 20  1  0
 20 21  2  0
 21 22  1  0
 16 23  1  0
 23 24  2  0
  4 25  1  0
 25 26  2  0
 26  1  1  0
 12  8  1  0
 24 13  1  0
 22 18  1  0
M  END
>  <alias>  (947) 
None

>  <rmsd(smina/fragmenstein)>  (947) 
1.488

>  <smiles>  (947) 
c1ccc([C@@H](NCc2ccco2)c2ccc(Oc3cnns3)cc2)cc1

>  <gnina_score>  (947) 
5.181

>  <inspiration_score>  (947) 
None

>  <energy_score>  (947) 
-42.167528

>  <distance_score>  (947) 
0.37064

>  <gnina_score_min>  (947) 
5.278

>  <inchikey>  (947) 
RBGVGMYLZRCFSC-HXUWFJFHSA-N

>  <exports>  (947) 
['/opt/xchem-fragalysis-2/maxwin/BulkDock/OUTPUTS/openbind_a71ev2a_c2_elabs_1LOUU54.sdf', '/opt/xchem-fragalysis-2/maxwin/BulkDock/OUTPUTS/openbind_a71ev2a_c2_elabs_1LSYIDY.sdf']

>  <name>  (947) 
P560201

>  <ref_pdb>  (947) 
A0836b

>  <subsites>  (947) 
None

>  <HIPPO Pose ID>  (947) 
560201

>  <ref_mols>  (947) 
A0836b

>  <HIPPO Compound ID>  (947) 
390513

>  <tags>  (947) 
openbind_a71ev2a_c2_elabs,syndirella_product,openbind_a71ev2a_c2_elabs_fragonly_scored_top80percent,openbind_a71ev2a_c2_elabs_scored,BulkDock Fragalysis export,openbind_a71ev2a_c2_elabs_scored_top80percent,openbind_a71ev2a_c2_elabs_activefrags_only_scored_5.2plus,syndirella_placed

>  <smina_score_min>  (947) 
-5.202

$$$$
P568618
     RDKit          3D

 17 18  0  0  0  0  0  0  0  0999 V2000
    6.6084   11.8215   27.0390 O   0  0  0  0  0  0  0  0  0  0  0  0
    6.7430   12.5854   26.1686 C   0  0  0  0  0  0  0  0  0  0  0  0
    6.1645   14.0087   25.9858 N   0  0  0  0  0  0  0  0  0  0  0  0
    5.3838   14.8167   26.8743 C   0  0  0  0  0  0  0  0  0  0  0  0
    5.8953   16.2438   27.0289 C   0  0  0  0  0  0  0  0  0  0  0  0
    7.5005   16.2344   27.8883 S   0  0  0  0  0  0  0  0  0  0  0  0
    3.8906   14.6015   26.9158 C   0  0  0  0  0  0  0  0  0  0  0  0
    4.7249   14.1892   28.0896 C   0  0  0  0  0  0  0  0  0  0  0  0
    7.7009   12.2239   25.0609 C   0  0  0  0  0  0  0  0  0  0  0  0
    8.5321   13.2367   24.5392 C   0  0  0  0  0  0  0  0  0  0  0  0
    9.5318   12.9298   23.6213 C   0  0  0  0  0  0  0  0  0  0  0  0
   10.6660   14.2589   22.9162 Br  0  0  0  0  0  0  0  0  0  0  0  0
    9.7473   11.6241   23.2325 C   0  0  0  0  0  0  0  0  0  0  0  0
    8.9894   10.6069   23.7877 C   0  0  0  0  0  0  0  0  0  0  0  0
    9.4560    8.8484   23.3039 Br  0  0  0  0  0  0  0  0  0  0  0  0
    7.9587   10.8909   24.6935 C   0  0  0  0  0  0  0  0  0  0  0  0
    7.2237    9.8530   25.2030 O   0  0  0  0  0  0  0  0  0  0  0  0
  1  2  2  0
  2  3  1  0
  3  4  1  0
  4  5  1  0
  5  6  1  0
  4  7  1  0
  7  8  1  0
  2  9  1  0
  9 10  2  0
 10 11  1  0
 11 12  1  0
 11 13  2  0
 13 14  1  0
 14 15  1  0
 14 16  2  0
 16 17  1  0
  8  4  1  0
 16  9  1  0
M  END
>  <alias>  (948) 
None

>  <rmsd(smina/fragmenstein)>  (948) 
0.729

>  <smiles>  (948) 
O=C(NC1(CS)CC1)c1cc(Br)cc(Br)c1O

>  <gnina_score>  (948) 
5.038

>  <inspiration_score>  (948) 
None

>  <energy_score>  (948) 
-16.426222

>  <distance_score>  (948) 
1.000418

>  <gnina_score_min>  (948) 
5.218

>  <inchikey>  (948) 
LUSBGKSPPVKPBS-UHFFFAOYSA-N

>  <exports>  (948) 
['/opt/xchem-fragalysis-2/maxwin/BulkDock/OUTPUTS/openbind_a71ev2a_c2_elabs_1LOUU54.sdf', '/opt/xchem-fragalysis-2/maxwin/BulkDock/OUTPUTS/openbind_a71ev2a_c2_elabs_1LSYIDY.sdf']

>  <name>  (948) 
P568618

>  <ref_pdb>  (948) 
A1292a

>  <subsites>  (948) 
None

>  <HIPPO Pose ID>  (948) 
568618

>  <ref_mols>  (948) 
A1292a

>  <HIPPO Compound ID>  (948) 
408881

>  <tags>  (948) 
openbind_a71ev2a_c2_elabs,syndirella_product,openbind_a71ev2a_c2_elabs_fragonly_scored_top80percent,openbind_a71ev2a_c2_elabs_scored,BulkDock Fragalysis export,openbind_a71ev2a_c2_elabs_scored_top80percent,openbind_a71ev2a_c2_elabs_activefrags_only_scored_5.2plus,syndirella_placed

>  <smina_score_min>  (948) 
-4.635

$$$$
P576667
     RDKit          3D

 16 17  0  0  0  0  0  0  0  0999 V2000
    9.2534    8.5540   23.3740 C   0  0  0  0  0  0  0  0  0  0  0  0
    9.1693    9.9687   23.6523 N   0  0  0  0  0  0  0  0  0  0  0  0
    9.9745   10.8985   23.0564 C   0  0  0  0  0  0  0  0  0  0  0  0
    9.8004   12.1093   23.6939 C   0  0  0  0  0  0  0  0  0  0  0  0
   10.6304   13.3087   23.5660 C   0  0  0  0  0  0  0  0  0  0  0  0
   10.6945   14.0466   24.4682 O   0  0  0  0  0  0  0  0  0  0  0  0
   11.3693   13.3226   22.2023 N   0  0  0  0  0  0  0  0  0  0  0  0
   12.1818   14.2072   21.6870 C   0  0  0  0  0  0  0  0  0  0  0  0
   12.8974   15.0018   21.2565 N   0  0  0  0  0  0  0  0  0  0  0  0
    8.7021   11.9306   24.5970 C   0  0  0  0  0  0  0  0  0  0  0  0
    8.0059   12.7995   25.4659 C   0  0  0  0  0  0  0  0  0  0  0  0
    7.0320   12.2886   26.3271 C   0  0  0  0  0  0  0  0  0  0  0  0
    6.7447   10.9306   26.3238 C   0  0  0  0  0  0  0  0  0  0  0  0
    5.6814   10.2968   27.5217 Cl  0  0  0  0  0  0  0  0  0  0  0  0
    7.3687   10.0566   25.4301 C   0  0  0  0  0  0  0  0  0  0  0  0
    8.3544   10.5765   24.5790 C   0  0  0  0  0  0  0  0  0  0  0  0
  1  2  1  0
  2  3  1  0
  3  4  2  0
  4  5  1  0
  5  6  2  0
  5  7  1  0
  7  8  1  0
  8  9  3  0
  4 10  1  0
 10 11  2  0
 11 12  1  0
 12 13  2  0
 13 14  1  0
 13 15  1  0
 15 16  2  0
 16  2  1  0
 16 10  1  0
M  END
>  <alias>  (949) 
None

>  <rmsd(smina/fragmenstein)>  (949) 
0.32

>  <smiles>  (949) 
Cn1cc(C(=O)NC#N)c2ccc(Cl)cc21

>  <gnina_score>  (949) 
5.323

>  <inspiration_score>  (949) 
None

>  <energy_score>  (949) 
-11.757614

>  <distance_score>  (949) 
0.317245

>  <gnina_score_min>  (949) 
5.293

>  <inchikey>  (949) 
JJERDKCUTMQXIU-UHFFFAOYSA-N

>  <exports>  (949) 
['/opt/xchem-fragalysis-2/maxwin/BulkDock/OUTPUTS/openbind_a71ev2a_c2_elabs_1LOUU54.sdf', '/opt/xchem-fragalysis-2/maxwin/BulkDock/OUTPUTS/openbind_a71ev2a_c2_elabs_1LSYIDY.sdf']

>  <name>  (949) 
P576667

>  <ref_pdb>  (949) 
A3066a

>  <subsites>  (949) 
None

>  <HIPPO Pose ID>  (949) 
576667

>  <ref_mols>  (949) 
A3066a

>  <HIPPO Compound ID>  (949) 
349428

>  <tags>  (949) 
openbind_a71ev2a_c2_elabs,syndirella_product,openbind_a71ev2a_c2_elabs_fragonly_scored_top80percent,openbind_a71ev2a_c2_elabs_scored,BulkDock Fragalysis export,openbind_a71ev2a_c2_elabs_scored_top80percent,openbind_a71ev2a_c2_elabs_activefrags_only_scored_5.2plus,syndirella_placed

>  <smina_score_min>  (949) 
-6.756

$$$$
P576669
     RDKit          3D

 16 17  0  0  0  0  0  0  0  0999 V2000
    9.2731    8.5463   23.3842 C   0  0  0  0  0  0  0  0  0  0  0  0
    9.1685    9.9603   23.6610 N   0  0  0  0  0  0  0  0  0  0  0  0
    9.9636   10.8992   23.0641 C   0  0  0  0  0  0  0  0  0  0  0  0
    9.7730   12.1080   23.6995 C   0  0  0  0  0  0  0  0  0  0  0  0
   10.5783   13.3227   23.5668 C   0  0  0  0  0  0  0  0  0  0  0  0
   10.6155   14.0707   24.4614 O   0  0  0  0  0  0  0  0  0  0  0  0
   11.2721   13.3788   22.1815 N   0  0  0  0  0  0  0  0  0  0  0  0
   12.1385   14.2314   21.7007 C   0  0  0  0  0  0  0  0  0  0  0  0
   12.8789   15.0167   21.2961 N   0  0  0  0  0  0  0  0  0  0  0  0
    8.6784   11.9166   24.6047 C   0  0  0  0  0  0  0  0  0  0  0  0
    7.9750   12.7789   25.4748 C   0  0  0  0  0  0  0  0  0  0  0  0
    7.0135   12.2598   26.3444 C   0  0  0  0  0  0  0  0  0  0  0  0
    6.7441   10.8983   26.3461 C   0  0  0  0  0  0  0  0  0  0  0  0
    5.6077   10.1919   27.6882 Br  0  0  0  0  0  0  0  0  0  0  0  0
    7.3693   10.0300   25.4458 C   0  0  0  0  0  0  0  0  0  0  0  0
    8.3458   10.5591   24.5883 C   0  0  0  0  0  0  0  0  0  0  0  0
  1  2  1  0
  2  3  1  0
  3  4  2  0
  4  5  1  0
  5  6  2  0
  5  7  1  0
  7  8  1  0
  8  9  3  0
  4 10  1  0
 10 11  2  0
 11 12  1  0
 12 13  2  0
 13 14  1  0
 13 15  1  0
 15 16  2  0
 16  2  1  0
 16 10  1  0
M  END
>  <alias>  (950) 
None

>  <rmsd(smina/fragmenstein)>  (950) 
0.301

>  <smiles>  (950) 
Cn1cc(C(=O)NC#N)c2ccc(Br)cc21

>  <gnina_score>  (950) 
5.365

>  <inspiration_score>  (950) 
None

>  <energy_score>  (950) 
-0.182693

>  <distance_score>  (950) 
0.336631

>  <gnina_score_min>  (950) 
5.301

>  <inchikey>  (950) 
JTWMTHAXIAHASS-UHFFFAOYSA-N

>  <exports>  (950) 
['/opt/xchem-fragalysis-2/maxwin/BulkDock/OUTPUTS/openbind_a71ev2a_c2_elabs_1LOUU54.sdf', '/opt/xchem-fragalysis-2/maxwin/BulkDock/OUTPUTS/openbind_a71ev2a_c2_elabs_1LSYIDY.sdf']

>  <name>  (950) 
P576669

>  <ref_pdb>  (950) 
A3066a

>  <subsites>  (950) 
None

>  <HIPPO Pose ID>  (950) 
576669

>  <ref_mols>  (950) 
A3066a

>  <HIPPO Compound ID>  (950) 
349431

>  <tags>  (950) 
openbind_a71ev2a_c2_elabs,syndirella_product,openbind_a71ev2a_c2_elabs_fragonly_scored_top80percent,openbind_a71ev2a_c2_elabs_scored,BulkDock Fragalysis export,openbind_a71ev2a_c2_elabs_scored_top80percent,openbind_a71ev2a_c2_elabs_activefrags_only_scored_5.2plus,syndirella_placed

>  <smina_score_min>  (950) 
-6.712

$$$$
P576671
     RDKit          3D

 17 18  0  0  0  0  0  0  0  0999 V2000
    9.3602    8.5033   23.5043 C   0  0  0  0  0  0  0  0  0  0  0  0
    9.0418    9.8960   23.7127 N   0  0  0  0  0  0  0  0  0  0  0  0
    9.6638   10.8981   23.0275 C   0  0  0  0  0  0  0  0  0  0  0  0
    9.1553   12.1127   23.4482 C   0  0  0  0  0  0  0  0  0  0  0  0
    9.6118   13.4502   23.0678 C   0  0  0  0  0  0  0  0  0  0  0  0
    9.2298   14.3603   23.6788 O   0  0  0  0  0  0  0  0  0  0  0  0
   10.6359   13.3764   21.9356 N   0  0  0  0  0  0  0  0  0  0  0  0
   11.4719   14.3804   21.3809 C   0  0  0  0  0  0  0  0  0  0  0  0
   12.5190   14.7668   22.4264 C   0  0  0  0  0  0  0  0  0  0  0  0
   12.8301   13.1342   24.0234 I   0  0  0  0  0  0  0  0  0  0  0  0
    8.2293   11.8185   24.4979 C   0  0  0  0  0  0  0  0  0  0  0  0
    7.4597   12.6199   25.3718 C   0  0  0  0  0  0  0  0  0  0  0  0
    6.6156   12.0124   26.2989 C   0  0  0  0  0  0  0  0  0  0  0  0
    5.6015   13.0836   27.4809 Br  0  0  0  0  0  0  0  0  0  0  0  0
    6.5032   10.6321   26.3557 C   0  0  0  0  0  0  0  0  0  0  0  0
    7.2581    9.8279   25.5009 C   0  0  0  0  0  0  0  0  0  0  0  0
    8.1450   10.4300   24.6065 C   0  0  0  0  0  0  0  0  0  0  0  0
  1  2  1  0
  2  3  1  0
  3  4  2  0
  4  5  1  0
  5  6  2  0
  5  7  1  0
  7  8  1  0
  8  9  1  0
  9 10  1  0
  4 11  1  0
 11 12  2  0
 12 13  1  0
 13 14  1  0
 13 15  2  0
 15 16  1  0
 16 17  2  0
 17  2  1  0
 17 11  1  0
M  END
>  <alias>  (951) 
None

>  <rmsd(smina/fragmenstein)>  (951) 
0.322

>  <smiles>  (951) 
Cn1cc(C(=O)NCCI)c2cc(Br)ccc21

>  <gnina_score>  (951) 
5.686

>  <inspiration_score>  (951) 
None

>  <energy_score>  (951) 
-3.46713

>  <distance_score>  (951) 
0.92469

>  <gnina_score_min>  (951) 
5.527

>  <inchikey>  (951) 
RUQMUOVLXTXBQT-UHFFFAOYSA-N

>  <exports>  (951) 
['/opt/xchem-fragalysis-2/maxwin/BulkDock/OUTPUTS/openbind_a71ev2a_c2_elabs_1LOUU54.sdf', '/opt/xchem-fragalysis-2/maxwin/BulkDock/OUTPUTS/openbind_a71ev2a_c2_elabs_1LSYIDY.sdf']

>  <name>  (951) 
P576671

>  <ref_pdb>  (951) 
A3066a

>  <subsites>  (951) 
None

>  <HIPPO Pose ID>  (951) 
576671

>  <ref_mols>  (951) 
A3066a

>  <HIPPO Compound ID>  (951) 
349444

>  <tags>  (951) 
openbind_a71ev2a_c2_elabs,syndirella_product,openbind_a71ev2a_c2_elabs_fragonly_scored_top80percent,BulkDock Fragalysis export,openbind_a71ev2a_c2_elabs_scored,openbind_a71ev2a_c2_elabs_scored_top80percent,openbind_a71ev2a_c2_elabs_activefrags_only_scored_5.2plus,openbind_a71ev2a_c2_elabs_activefrags_only_scored_5.5plus,syndirella_placed

>  <smina_score_min>  (951) 
-5.268

$$$$
P576672
     RDKit          3D

 17 19  0  0  0  0  0  0  0  0999 V2000
    9.3230    8.5593   23.3393 C   0  0  0  0  0  0  0  0  0  0  0  0
    9.1962    9.9510   23.7054 N   0  0  0  0  0  0  0  0  0  0  0  0
    9.9626   10.9437   23.1687 C   0  0  0  0  0  0  0  0  0  0  0  0
    9.6806   12.1222   23.8267 C   0  0  0  0  0  0  0  0  0  0  0  0
   10.3501   13.3998   23.6310 C   0  0  0  0  0  0  0  0  0  0  0  0
   10.5480   14.1066   24.5359 O   0  0  0  0  0  0  0  0  0  0  0  0
   10.6071   13.6067   22.1307 N   0  0  0  0  0  0  0  0  0  0  0  0
   11.2304   14.6566   21.4532 C   0  0  0  0  0  0  0  0  0  0  0  0
   12.4820   14.3973   20.6848 C   0  0  0  0  0  0  0  0  0  0  0  0
   11.2024   14.7067   19.9567 C   0  0  0  0  0  0  0  0  0  0  0  0
    8.6076   11.8479   24.7230 C   0  0  0  0  0  0  0  0  0  0  0  0
    7.8432   12.6487   25.5980 C   0  0  0  0  0  0  0  0  0  0  0  0
    6.8378   12.0550   26.3612 C   0  0  0  0  0  0  0  0  0  0  0  0
    5.8258   13.1156   27.5546 Br  0  0  0  0  0  0  0  0  0  0  0  0
    6.5795   10.6938   26.2677 C   0  0  0  0  0  0  0  0  0  0  0  0
    7.3166    9.8912   25.3952 C   0  0  0  0  0  0  0  0  0  0  0  0
    8.3254   10.4831   24.6297 C   0  0  0  0  0  0  0  0  0  0  0  0
  1  2  1  0
  2  3  1  0
  3  4  2  0
  4  5  1  0
  5  6  2  0
  5  7  1  0
  7  8  1  0
  8  9  1  0
  9 10  1  0
  4 11  1  0
 11 12  2  0
 12 13  1  0
 13 14  1  0
 13 15  2  0
 15 16  1  0
 16 17  2  0
 17  2  1  0
 10  8  1  0
 17 11  1  0
M  END
>  <alias>  (952) 
None

>  <rmsd(smina/fragmenstein)>  (952) 
0.909

>  <smiles>  (952) 
Cn1cc(C(=O)NC2CC2)c2cc(Br)ccc21

>  <gnina_score>  (952) 
5.312

>  <inspiration_score>  (952) 
None

>  <energy_score>  (952) 
-8.217987

>  <distance_score>  (952) 
0.56707

>  <gnina_score_min>  (952) 
5.309

>  <inchikey>  (952) 
VLJDRCMVEMGUEV-UHFFFAOYSA-N

>  <exports>  (952) 
['/opt/xchem-fragalysis-2/maxwin/BulkDock/OUTPUTS/openbind_a71ev2a_c2_elabs_1LOUU54.sdf', '/opt/xchem-fragalysis-2/maxwin/BulkDock/OUTPUTS/openbind_a71ev2a_c2_elabs_1LSYIDY.sdf']

>  <name>  (952) 
P576672

>  <ref_pdb>  (952) 
A3066a

>  <subsites>  (952) 
None

>  <HIPPO Pose ID>  (952) 
576672

>  <ref_mols>  (952) 
A3066a

>  <HIPPO Compound ID>  (952) 
349446

>  <tags>  (952) 
openbind_a71ev2a_c2_elabs,syndirella_product,openbind_a71ev2a_c2_elabs_fragonly_scored_top80percent,openbind_a71ev2a_c2_elabs_scored,BulkDock Fragalysis export,openbind_a71ev2a_c2_elabs_scored_top80percent,openbind_a71ev2a_c2_elabs_activefrags_only_scored_5.2plus,syndirella_placed

>  <smina_score_min>  (952) 
-7.449

$$$$
P576673
     RDKit          3D

 17 18  0  0  0  0  0  0  0  0999 V2000
   12.8834   14.4760   22.6819 C   0  0  0  0  0  0  0  0  0  0  0  0
   12.4527   14.4257   21.2337 C   0  0  0  0  0  0  0  0  0  0  0  0
   10.9526   14.5838   21.1077 C   0  0  0  0  0  0  0  0  0  0  0  0
   10.3438   13.5226   21.8413 N   0  0  0  0  0  0  0  0  0  0  0  0
    9.9064   13.4493   23.3047 C   0  0  0  0  0  0  0  0  0  0  0  0
    9.9000   14.2657   24.1304 O   0  0  0  0  0  0  0  0  0  0  0  0
    9.4346   12.1158   23.6358 C   0  0  0  0  0  0  0  0  0  0  0  0
    9.8564   10.9199   23.0953 C   0  0  0  0  0  0  0  0  0  0  0  0
    9.1711    9.9064   23.7005 N   0  0  0  0  0  0  0  0  0  0  0  0
    9.3903    8.5119   23.3986 C   0  0  0  0  0  0  0  0  0  0  0  0
    8.2802   10.4231   24.6135 C   0  0  0  0  0  0  0  0  0  0  0  0
    7.3244    9.8099   25.4263 C   0  0  0  0  0  0  0  0  0  0  0  0
    6.5620   10.5986   26.2901 C   0  0  0  0  0  0  0  0  0  0  0  0
    6.7408   11.9736   26.3274 C   0  0  0  0  0  0  0  0  0  0  0  0
    5.7090   13.0194   27.5166 Br  0  0  0  0  0  0  0  0  0  0  0  0
    7.6715   12.5938   25.4962 C   0  0  0  0  0  0  0  0  0  0  0  0
    8.4532   11.8064   24.6221 C   0  0  0  0  0  0  0  0  0  0  0  0
  1  2  1  0
  2  3  1  0
  3  4  1  0
  4  5  1  0
  5  6  2  0
  5  7  1  0
  7  8  2  0
  8  9  1  0
  9 10  1  0
  9 11  1  0
 11 12  2  0
 12 13  1  0
 13 14  2  0
 14 15  1  0
 14 16  1  0
 16 17  2  0
 17  7  1  0
 17 11  1  0
M  END
>  <alias>  (953) 
None

>  <rmsd(smina/fragmenstein)>  (953) 
0.45

>  <smiles>  (953) 
CCCNC(=O)c1cn(C)c2ccc(Br)cc12

>  <gnina_score>  (953) 
5.376

>  <inspiration_score>  (953) 
None

>  <energy_score>  (953) 
-1.961805

>  <distance_score>  (953) 
0.814076

>  <gnina_score_min>  (953) 
5.357

>  <inchikey>  (953) 
ZMANULXTJOFXGK-UHFFFAOYSA-N

>  <exports>  (953) 
['/opt/xchem-fragalysis-2/maxwin/BulkDock/OUTPUTS/openbind_a71ev2a_c2_elabs_1LOUU54.sdf', '/opt/xchem-fragalysis-2/maxwin/BulkDock/OUTPUTS/openbind_a71ev2a_c2_elabs_1LSYIDY.sdf']

>  <name>  (953) 
P576673

>  <ref_pdb>  (953) 
A3066a

>  <subsites>  (953) 
None

>  <HIPPO Pose ID>  (953) 
576673

>  <ref_mols>  (953) 
A3066a

>  <HIPPO Compound ID>  (953) 
349447

>  <tags>  (953) 
openbind_a71ev2a_c2_elabs,syndirella_product,openbind_a71ev2a_c2_elabs_fragonly_scored_top80percent,openbind_a71ev2a_c2_elabs_scored,BulkDock Fragalysis export,openbind_a71ev2a_c2_elabs_scored_top80percent,openbind_a71ev2a_c2_elabs_activefrags_only_scored_5.2plus,syndirella_placed

>  <smina_score_min>  (953) 
-6.767

$$$$
P576674
     RDKit          3D

 17 18  0  0  0  0  0  0  0  0999 V2000
   11.5347   14.4070   19.7971 C   0  0  0  0  0  0  0  0  0  0  0  0
   11.3769   14.6821   21.2820 C   0  0  0  0  0  0  0  0  0  0  0  0
   12.7133   14.9245   21.9479 C   0  0  0  0  0  0  0  0  0  0  0  0
   10.7584   13.5781   21.9678 N   0  0  0  0  0  0  0  0  0  0  0  0
   10.3132   13.4353   23.4296 C   0  0  0  0  0  0  0  0  0  0  0  0
   10.4443   14.1585   24.3326 O   0  0  0  0  0  0  0  0  0  0  0  0
    9.6586   12.1496   23.6533 C   0  0  0  0  0  0  0  0  0  0  0  0
    9.9620   10.9503   23.0454 C   0  0  0  0  0  0  0  0  0  0  0  0
    9.2258    9.9605   23.6302 N   0  0  0  0  0  0  0  0  0  0  0  0
    9.3778    8.5586   23.3158 C   0  0  0  0  0  0  0  0  0  0  0  0
    8.3595   10.5042   24.5514 C   0  0  0  0  0  0  0  0  0  0  0  0
    7.3788    9.9142   25.3560 C   0  0  0  0  0  0  0  0  0  0  0  0
    6.6420   10.7282   26.2179 C   0  0  0  0  0  0  0  0  0  0  0  0
    6.8784   12.0959   26.2676 C   0  0  0  0  0  0  0  0  0  0  0  0
    5.8724   13.1722   27.4525 Br  0  0  0  0  0  0  0  0  0  0  0  0
    7.8549   12.6862   25.4642 C   0  0  0  0  0  0  0  0  0  0  0  0
    8.6124   11.8775   24.5893 C   0  0  0  0  0  0  0  0  0  0  0  0
  1  2  1  0
  2  3  1  0
  2  4  1  0
  4  5  1  0
  5  6  2  0
  5  7  1  0
  7  8  2  0
  8  9  1  0
  9 10  1  0
  9 11  1  0
 11 12  2  0
 12 13  1  0
 13 14  2  0
 14 15  1  0
 14 16  1  0
 16 17  2  0
 17  7  1  0
 17 11  1  0
M  END
>  <alias>  (954) 
None

>  <rmsd(smina/fragmenstein)>  (954) 
0.47

>  <smiles>  (954) 
CC(C)NC(=O)c1cn(C)c2ccc(Br)cc12

>  <gnina_score>  (954) 
5.405

>  <inspiration_score>  (954) 
None

>  <energy_score>  (954) 
-10.793236

>  <distance_score>  (954) 
0.545769

>  <gnina_score_min>  (954) 
5.424

>  <inchikey>  (954) 
RXBGSHWHDWXDNA-UHFFFAOYSA-N

>  <exports>  (954) 
['/opt/xchem-fragalysis-2/maxwin/BulkDock/OUTPUTS/openbind_a71ev2a_c2_elabs_1LOUU54.sdf', '/opt/xchem-fragalysis-2/maxwin/BulkDock/OUTPUTS/openbind_a71ev2a_c2_elabs_1LSYIDY.sdf']

>  <name>  (954) 
P576674

>  <ref_pdb>  (954) 
A3066a

>  <subsites>  (954) 
None

>  <HIPPO Pose ID>  (954) 
576674

>  <ref_mols>  (954) 
A3066a

>  <HIPPO Compound ID>  (954) 
349448

>  <tags>  (954) 
openbind_a71ev2a_c2_elabs,syndirella_product,openbind_a71ev2a_c2_elabs_fragonly_scored_top80percent,openbind_a71ev2a_c2_elabs_scored,BulkDock Fragalysis export,openbind_a71ev2a_c2_elabs_scored_top80percent,openbind_a71ev2a_c2_elabs_activefrags_only_scored_5.2plus,syndirella_placed

>  <smina_score_min>  (954) 
-7.453

$$$$
P576675
     RDKit          3D

 17 19  0  0  0  0  0  0  0  0999 V2000
    8.8367    8.7557   23.8412 C   0  0  0  0  0  0  0  0  0  0  0  0
    8.9570   10.1816   24.0253 N   0  0  0  0  0  0  0  0  0  0  0  0
    9.9546   10.8688   23.3868 C   0  0  0  0  0  0  0  0  0  0  0  0
   10.0240   12.1255   23.9372 C   0  0  0  0  0  0  0  0  0  0  0  0
   11.0106   13.1538   23.6865 C   0  0  0  0  0  0  0  0  0  0  0  0
   11.3519   13.8706   24.5376 O   0  0  0  0  0  0  0  0  0  0  0  0
   11.3628   13.1419   22.1997 N   0  0  0  0  0  0  0  0  0  0  0  0
   12.1068   14.0297   21.4454 C   0  0  0  0  0  0  0  0  0  0  0  0
   11.5955   14.5920   20.1618 C   0  0  0  0  0  0  0  0  0  0  0  0
   11.5448   15.4060   21.4246 C   0  0  0  0  0  0  0  0  0  0  0  0
    8.8939   12.2728   24.7802 C   0  0  0  0  0  0  0  0  0  0  0  0
    8.3890   13.3810   25.4969 C   0  0  0  0  0  0  0  0  0  0  0  0
    7.2564   13.2566   26.2864 C   0  0  0  0  0  0  0  0  0  0  0  0
    6.6239   12.0349   26.3652 C   0  0  0  0  0  0  0  0  0  0  0  0
    7.0946   10.9264   25.6488 C   0  0  0  0  0  0  0  0  0  0  0  0
    6.0662    9.3957   25.8388 Br  0  0  0  0  0  0  0  0  0  0  0  0
    8.2381   11.0367   24.8410 C   0  0  0  0  0  0  0  0  0  0  0  0
  1  2  1  0
  2  3  1  0
  3  4  2  0
  4  5  1  0
  5  6  2  0
  5  7  1  0
  7  8  1  0
  8  9  1  0
  9 10  1  0
  4 11  1  0
 11 12  2  0
 12 13  1  0
 13 14  2  0
 14 15  1  0
 15 16  1  0
 15 17  2  0
 17  2  1  0
 10  8  1  0
 17 11  1  0
M  END
>  <alias>  (955) 
None

>  <rmsd(smina/fragmenstein)>  (955) 
1.025

>  <smiles>  (955) 
Cn1cc(C(=O)NC2CC2)c2cccc(Br)c21

>  <gnina_score>  (955) 
5.216

>  <inspiration_score>  (955) 
None

>  <energy_score>  (955) 
-6.48281

>  <distance_score>  (955) 
0.771312

>  <gnina_score_min>  (955) 
5.271

>  <inchikey>  (955) 
BELYFPJBMZRROT-UHFFFAOYSA-N

>  <exports>  (955) 
['/opt/xchem-fragalysis-2/maxwin/BulkDock/OUTPUTS/openbind_a71ev2a_c2_elabs_1LOUU54.sdf', '/opt/xchem-fragalysis-2/maxwin/BulkDock/OUTPUTS/openbind_a71ev2a_c2_elabs_1LSYIDY.sdf']

>  <name>  (955) 
P576675

>  <ref_pdb>  (955) 
A3066a

>  <subsites>  (955) 
None

>  <HIPPO Pose ID>  (955) 
576675

>  <ref_mols>  (955) 
A3066a

>  <HIPPO Compound ID>  (955) 
349449

>  <tags>  (955) 
openbind_a71ev2a_c2_elabs,syndirella_product,openbind_a71ev2a_c2_elabs_fragonly_scored_top80percent,openbind_a71ev2a_c2_elabs_scored,BulkDock Fragalysis export,openbind_a71ev2a_c2_elabs_scored_top80percent,openbind_a71ev2a_c2_elabs_activefrags_only_scored_5.2plus,syndirella_placed

>  <smina_score_min>  (955) 
-7.09

$$$$
P576676
     RDKit          3D

 17 18  0  0  0  0  0  0  0  0999 V2000
   10.4758    8.1360   23.4045 C   0  0  0  0  0  0  0  0  0  0  0  0
    9.0968    8.7141   23.5931 C   0  0  0  0  0  0  0  0  0  0  0  0
    9.0984   10.1500   23.7833 N   0  0  0  0  0  0  0  0  0  0  0  0
    9.9315   11.0203   23.1375 C   0  0  0  0  0  0  0  0  0  0  0  0
    9.8210   12.2643   23.7251 C   0  0  0  0  0  0  0  0  0  0  0  0
   10.6580   13.4405   23.4467 C   0  0  0  0  0  0  0  0  0  0  0  0
   10.8969   14.1894   24.3046 O   0  0  0  0  0  0  0  0  0  0  0  0
   11.0560   13.4651   21.9659 N   0  0  0  0  0  0  0  0  0  0  0  0
   11.7545   14.4661   21.2006 C   0  0  0  0  0  0  0  0  0  0  0  0
   10.9647   14.8163   19.9430 C   0  0  0  0  0  0  0  0  0  0  0  0
    9.5348   15.8072   20.3251 Cl  0  0  0  0  0  0  0  0  0  0  0  0
    8.7417   12.1608   24.6641 C   0  0  0  0  0  0  0  0  0  0  0  0
    8.0866   13.0861   25.5027 C   0  0  0  0  0  0  0  0  0  0  0  0
    7.0416   12.6592   26.3287 C   0  0  0  0  0  0  0  0  0  0  0  0
    6.6433   11.3277   26.3360 C   0  0  0  0  0  0  0  0  0  0  0  0
    7.2675   10.3907   25.5126 C   0  0  0  0  0  0  0  0  0  0  0  0
    8.3101   10.8304   24.6817 C   0  0  0  0  0  0  0  0  0  0  0  0
  1  2  1  0
  2  3  1  0
  3  4  1  0
  4  5  2  0
  5  6  1  0
  6  7  2  0
  6  8  1  0
  8  9  1  0
  9 10  1  0
 10 11  1  0
  5 12  1  0
 12 13  2  0
 13 14  1  0
 14 15  2  0
 15 16  1  0
 16 17  2  0
 17  3  1  0
 17 12  1  0
M  END
>  <alias>  (956) 
None

>  <rmsd(smina/fragmenstein)>  (956) 
0.764

>  <smiles>  (956) 
CCn1cc(C(=O)NCCCl)c2ccccc21

>  <gnina_score>  (956) 
5.458

>  <inspiration_score>  (956) 
None

>  <energy_score>  (956) 
-12.532585

>  <distance_score>  (956) 
0.547287

>  <gnina_score_min>  (956) 
5.234

>  <inchikey>  (956) 
SDVAZFYVROYBKS-UHFFFAOYSA-N

>  <exports>  (956) 
['/opt/xchem-fragalysis-2/maxwin/BulkDock/OUTPUTS/openbind_a71ev2a_c2_elabs_1LOUU54.sdf', '/opt/xchem-fragalysis-2/maxwin/BulkDock/OUTPUTS/openbind_a71ev2a_c2_elabs_1LSYIDY.sdf']

>  <name>  (956) 
P576676

>  <ref_pdb>  (956) 
A3066a

>  <subsites>  (956) 
None

>  <HIPPO Pose ID>  (956) 
576676

>  <ref_mols>  (956) 
A3066a

>  <HIPPO Compound ID>  (956) 
349451

>  <tags>  (956) 
openbind_a71ev2a_c2_elabs,syndirella_product,openbind_a71ev2a_c2_elabs_fragonly_scored_top80percent,openbind_a71ev2a_c2_elabs_scored,BulkDock Fragalysis export,openbind_a71ev2a_c2_elabs_scored_top80percent,openbind_a71ev2a_c2_elabs_activefrags_only_scored_5.2plus,syndirella_placed

>  <smina_score_min>  (956) 
-6.678

$$$$
P576679
     RDKit          3D

 17 18  0  0  0  0  0  0  0  0999 V2000
   10.5092    8.1378   23.4030 C   0  0  0  0  0  0  0  0  0  0  0  0
    9.1218    8.6904   23.5953 C   0  0  0  0  0  0  0  0  0  0  0  0
    9.0974   10.1237   23.8029 N   0  0  0  0  0  0  0  0  0  0  0  0
    9.9137   11.0219   23.1711 C   0  0  0  0  0  0  0  0  0  0  0  0
    9.7652   12.2522   23.7761 C   0  0  0  0  0  0  0  0  0  0  0  0
   10.5407   13.4643   23.5053 C   0  0  0  0  0  0  0  0  0  0  0  0
   10.7426   14.2168   24.3677 O   0  0  0  0  0  0  0  0  0  0  0  0
   10.8741   13.5509   22.0159 N   0  0  0  0  0  0  0  0  0  0  0  0
   11.4423   14.6207   21.2488 C   0  0  0  0  0  0  0  0  0  0  0  0
   10.3556   15.3440   20.5617 C   0  0  0  0  0  0  0  0  0  0  0  0
    9.4786   15.8909   20.0304 N   0  0  0  0  0  0  0  0  0  0  0  0
    8.6853   12.1131   24.7082 C   0  0  0  0  0  0  0  0  0  0  0  0
    8.0008   13.0142   25.5505 C   0  0  0  0  0  0  0  0  0  0  0  0
    6.9638   12.5530   26.3672 C   0  0  0  0  0  0  0  0  0  0  0  0
    6.6006   11.2120   26.3576 C   0  0  0  0  0  0  0  0  0  0  0  0
    7.2505   10.3014   25.5245 C   0  0  0  0  0  0  0  0  0  0  0  0
    8.2871   10.7743   24.7053 C   0  0  0  0  0  0  0  0  0  0  0  0
  1  2  1  0
  2  3  1  0
  3  4  1  0
  4  5  2  0
  5  6  1  0
  6  7  2  0
  6  8  1  0
  8  9  1  0
  9 10  1  0
 10 11  3  0
  5 12  1  0
 12 13  2  0
 13 14  1  0
 14 15  2  0
 15 16  1  0
 16 17  2  0
 17  3  1  0
 17 12  1  0
M  END
>  <alias>  (957) 
None

>  <rmsd(smina/fragmenstein)>  (957) 
0.708

>  <smiles>  (957) 
CCn1cc(C(=O)NCC#N)c2ccccc21

>  <gnina_score>  (957) 
5.464

>  <inspiration_score>  (957) 
None

>  <energy_score>  (957) 
-3.339331

>  <distance_score>  (957) 
0.58161

>  <gnina_score_min>  (957) 
5.41

>  <inchikey>  (957) 
VSIZDATUCXBFNG-UHFFFAOYSA-N

>  <exports>  (957) 
['/opt/xchem-fragalysis-2/maxwin/BulkDock/OUTPUTS/openbind_a71ev2a_c2_elabs_1LOUU54.sdf', '/opt/xchem-fragalysis-2/maxwin/BulkDock/OUTPUTS/openbind_a71ev2a_c2_elabs_1LSYIDY.sdf']

>  <name>  (957) 
P576679

>  <ref_pdb>  (957) 
A3066a

>  <subsites>  (957) 
None

>  <HIPPO Pose ID>  (957) 
576679

>  <ref_mols>  (957) 
A3066a

>  <HIPPO Compound ID>  (957) 
349454

>  <tags>  (957) 
openbind_a71ev2a_c2_elabs,syndirella_product,openbind_a71ev2a_c2_elabs_fragonly_scored_top80percent,openbind_a71ev2a_c2_elabs_scored,BulkDock Fragalysis export,openbind_a71ev2a_c2_elabs_scored_top80percent,openbind_a71ev2a_c2_elabs_activefrags_only_scored_5.2plus,syndirella_placed

>  <smina_score_min>  (957) 
-6.643

$$$$
P576681
     RDKit          3D

 17 18  0  0  0  0  0  0  0  0999 V2000
    9.4330    8.5919   23.2260 C   0  0  0  0  0  0  0  0  0  0  0  0
    9.3049    9.9888   23.5723 N   0  0  0  0  0  0  0  0  0  0  0  0
   10.0360   10.9876   22.9951 C   0  0  0  0  0  0  0  0  0  0  0  0
    9.7454   12.1747   23.6279 C   0  0  0  0  0  0  0  0  0  0  0  0
   10.3669   13.4758   23.3970 C   0  0  0  0  0  0  0  0  0  0  0  0
   10.5083   14.1900   24.3037 O   0  0  0  0  0  0  0  0  0  0  0  0
   10.6405   13.6976   21.9045 N   0  0  0  0  0  0  0  0  0  0  0  0
   11.0572   14.8771   21.1968 C   0  0  0  0  0  0  0  0  0  0  0  0
    9.9001   15.8686   21.0385 C   0  0  0  0  0  0  0  0  0  0  0  0
    8.8600   15.6596   19.5785 S   0  0  0  0  0  0  0  0  0  0  0  0
    8.6978   11.8900   24.5624 C   0  0  0  0  0  0  0  0  0  0  0  0
    7.9322   12.6879   25.4407 C   0  0  0  0  0  0  0  0  0  0  0  0
    6.9473   12.0879   26.2276 C   0  0  0  0  0  0  0  0  0  0  0  0
    5.9283   13.1501   27.4143 Br  0  0  0  0  0  0  0  0  0  0  0  0
    6.7122   10.7202   26.1612 C   0  0  0  0  0  0  0  0  0  0  0  0
    7.4583    9.9160   25.2979 C   0  0  0  0  0  0  0  0  0  0  0  0
    8.4413   10.5183   24.5044 C   0  0  0  0  0  0  0  0  0  0  0  0
  1  2  1  0
  2  3  1  0
  3  4  2  0
  4  5  1  0
  5  6  2  0
  5  7  1  0
  7  8  1  0
  8  9  1  0
  9 10  1  0
  4 11  1  0
 11 12  2  0
 12 13  1  0
 13 14  1  0
 13 15  2  0
 15 16  1  0
 16 17  2  0
 17  2  1  0
 17 11  1  0
M  END
>  <alias>  (958) 
None

>  <rmsd(smina/fragmenstein)>  (958) 
0.617

>  <smiles>  (958) 
Cn1cc(C(=O)NCCS)c2cc(Br)ccc21

>  <gnina_score>  (958) 
5.487

>  <inspiration_score>  (958) 
None

>  <energy_score>  (958) 
-6.78356

>  <distance_score>  (958) 
0.595577

>  <gnina_score_min>  (958) 
5.62

>  <inchikey>  (958) 
ANCOXIPDEBVSIH-UHFFFAOYSA-N

>  <exports>  (958) 
['/opt/xchem-fragalysis-2/maxwin/BulkDock/OUTPUTS/openbind_a71ev2a_c2_elabs_1LOUU54.sdf', '/opt/xchem-fragalysis-2/maxwin/BulkDock/OUTPUTS/openbind_a71ev2a_c2_elabs_1LSYIDY.sdf']

>  <name>  (958) 
P576681

>  <ref_pdb>  (958) 
A3066a

>  <subsites>  (958) 
None

>  <HIPPO Pose ID>  (958) 
576681

>  <ref_mols>  (958) 
A3066a

>  <HIPPO Compound ID>  (958) 
349459

>  <tags>  (958) 
openbind_a71ev2a_c2_elabs,syndirella_product,openbind_a71ev2a_c2_elabs_fragonly_scored_top80percent,BulkDock Fragalysis export,openbind_a71ev2a_c2_elabs_scored,openbind_a71ev2a_c2_elabs_scored_top80percent,openbind_a71ev2a_c2_elabs_activefrags_only_scored_5.2plus,openbind_a71ev2a_c2_elabs_activefrags_only_scored_5.5plus,syndirella_placed

>  <smina_score_min>  (958) 
-6.171

$$$$
P576682
     RDKit          3D

 17 18  0  0  0  0  0  0  0  0999 V2000
    9.7502   15.7646   20.3319 C   0  0  0  0  0  0  0  0  0  0  0  0
   10.7806   14.9147   20.2265 C   0  0  0  0  0  0  0  0  0  0  0  0
   11.7014   14.5510   21.3482 C   0  0  0  0  0  0  0  0  0  0  0  0
   11.0809   13.4723   22.0416 N   0  0  0  0  0  0  0  0  0  0  0  0
   10.5916   13.3698   23.4894 C   0  0  0  0  0  0  0  0  0  0  0  0
   10.6849   14.1215   24.3719 O   0  0  0  0  0  0  0  0  0  0  0  0
    9.8360   12.1291   23.6920 C   0  0  0  0  0  0  0  0  0  0  0  0
   10.0378   10.9235   23.0541 C   0  0  0  0  0  0  0  0  0  0  0  0
    9.2472    9.9751   23.6352 N   0  0  0  0  0  0  0  0  0  0  0  0
    9.3226    8.5679   23.3201 C   0  0  0  0  0  0  0  0  0  0  0  0
    8.4078   10.5626   24.5523 C   0  0  0  0  0  0  0  0  0  0  0  0
    7.3854   10.0229   25.3426 C   0  0  0  0  0  0  0  0  0  0  0  0
    6.6819   10.8778   26.1924 C   0  0  0  0  0  0  0  0  0  0  0  0
    6.9927   12.2309   26.2458 C   0  0  0  0  0  0  0  0  0  0  0  0
    6.0267   13.3607   27.4148 Br  0  0  0  0  0  0  0  0  0  0  0  0
    8.0180   12.7668   25.4633 C   0  0  0  0  0  0  0  0  0  0  0  0
    8.7470   11.9186   24.6013 C   0  0  0  0  0  0  0  0  0  0  0  0
  1  2  2  0
  2  3  1  0
  3  4  1  0
  4  5  1  0
  5  6  2  0
  5  7  1  0
  7  8  2  0
  8  9  1  0
  9 10  1  0
  9 11  1  0
 11 12  2  0
 12 13  1  0
 13 14  2  0
 14 15  1  0
 14 16  1  0
 16 17  2  0
 17  7  1  0
 17 11  1  0
M  END
>  <alias>  (959) 
None

>  <rmsd(smina/fragmenstein)>  (959) 
0.278

>  <smiles>  (959) 
C=CCNC(=O)c1cn(C)c2ccc(Br)cc12

>  <gnina_score>  (959) 
5.478

>  <inspiration_score>  (959) 
None

>  <energy_score>  (959) 
-2.085304

>  <distance_score>  (959) 
0.389126

>  <gnina_score_min>  (959) 
5.378

>  <inchikey>  (959) 
KJRDFBHESJBDTE-UHFFFAOYSA-N

>  <exports>  (959) 
['/opt/xchem-fragalysis-2/maxwin/BulkDock/OUTPUTS/openbind_a71ev2a_c2_elabs_1LOUU54.sdf', '/opt/xchem-fragalysis-2/maxwin/BulkDock/OUTPUTS/openbind_a71ev2a_c2_elabs_1LSYIDY.sdf']

>  <name>  (959) 
P576682

>  <ref_pdb>  (959) 
A3066a

>  <subsites>  (959) 
None

>  <HIPPO Pose ID>  (959) 
576682

>  <ref_mols>  (959) 
A3066a

>  <HIPPO Compound ID>  (959) 
349464

>  <tags>  (959) 
openbind_a71ev2a_c2_elabs,syndirella_product,openbind_a71ev2a_c2_elabs_fragonly_scored_top80percent,openbind_a71ev2a_c2_elabs_scored,BulkDock Fragalysis export,openbind_a71ev2a_c2_elabs_scored_top80percent,openbind_a71ev2a_c2_elabs_activefrags_only_scored_5.2plus,syndirella_placed

>  <smina_score_min>  (959) 
-7.206

$$$$
P576684
     RDKit          3D

 17 18  0  0  0  0  0  0  0  0999 V2000
   13.1079   15.0079   21.5921 C   0  0  0  0  0  0  0  0  0  0  0  0
   11.9342   14.9155   21.3862 C   0  0  0  0  0  0  0  0  0  0  0  0
   10.5153   14.7732   21.1544 C   0  0  0  0  0  0  0  0  0  0  0  0
   10.1098   13.6393   21.8993 N   0  0  0  0  0  0  0  0  0  0  0  0
    9.6851   13.5122   23.3545 C   0  0  0  0  0  0  0  0  0  0  0  0
    9.5233   14.3254   24.1639 O   0  0  0  0  0  0  0  0  0  0  0  0
    9.3591   12.1365   23.6844 C   0  0  0  0  0  0  0  0  0  0  0  0
    9.8569   10.9752   23.1321 C   0  0  0  0  0  0  0  0  0  0  0  0
    9.2202    9.9158   23.7164 N   0  0  0  0  0  0  0  0  0  0  0  0
    9.5067    8.5357   23.3988 C   0  0  0  0  0  0  0  0  0  0  0  0
    8.2917   10.3732   24.6243 C   0  0  0  0  0  0  0  0  0  0  0  0
    7.3546    9.7037   25.4103 C   0  0  0  0  0  0  0  0  0  0  0  0
    6.5464   10.4342   26.2838 C   0  0  0  0  0  0  0  0  0  0  0  0
    6.6605   11.8131   26.3569 C   0  0  0  0  0  0  0  0  0  0  0  0
    5.6720   12.6939   27.4547 Cl  0  0  0  0  0  0  0  0  0  0  0  0
    7.5677   12.4904   25.5476 C   0  0  0  0  0  0  0  0  0  0  0  0
    8.3967   11.7596   24.6659 C   0  0  0  0  0  0  0  0  0  0  0  0
  1  2  3  0
  2  3  1  0
  3  4  1  0
  4  5  1  0
  5  6  2  0
  5  7  1  0
  7  8  2  0
  8  9  1  0
  9 10  1  0
  9 11  1  0
 11 12  2  0
 12 13  1  0
 13 14  2  0
 14 15  1  0
 14 16  1  0
 16 17  2  0
 17  7  1  0
 17 11  1  0
M  END
>  <alias>  (960) 
None

>  <rmsd(smina/fragmenstein)>  (960) 
0.426

>  <smiles>  (960) 
C#CCNC(=O)c1cn(C)c2ccc(Cl)cc12

>  <gnina_score>  (960) 
5.257

>  <inspiration_score>  (960) 
None

>  <energy_score>  (960) 
-6.502447

>  <distance_score>  (960) 
0.978455

>  <gnina_score_min>  (960) 
5.245

>  <inchikey>  (960) 
IOXQQWTVCNLWHB-UHFFFAOYSA-N

>  <exports>  (960) 
['/opt/xchem-fragalysis-2/maxwin/BulkDock/OUTPUTS/openbind_a71ev2a_c2_elabs_1LOUU54.sdf', '/opt/xchem-fragalysis-2/maxwin/BulkDock/OUTPUTS/openbind_a71ev2a_c2_elabs_1LSYIDY.sdf']

>  <name>  (960) 
P576684

>  <ref_pdb>  (960) 
A3066a

>  <subsites>  (960) 
None

>  <HIPPO Pose ID>  (960) 
576684

>  <ref_mols>  (960) 
A3066a

>  <HIPPO Compound ID>  (960) 
349470

>  <tags>  (960) 
openbind_a71ev2a_c2_elabs,syndirella_product,openbind_a71ev2a_c2_elabs_fragonly_scored_top80percent,openbind_a71ev2a_c2_elabs_scored,BulkDock Fragalysis export,openbind_a71ev2a_c2_elabs_scored_top80percent,openbind_a71ev2a_c2_elabs_activefrags_only_scored_5.2plus,syndirella_placed

>  <smina_score_min>  (960) 
-6.674

$$$$
P576685
     RDKit          3D

 17 18  0  0  0  0  0  0  0  0999 V2000
    9.6810   15.7190   20.3328 C   0  0  0  0  0  0  0  0  0  0  0  0
   10.8927   14.8556   20.0182 C   0  0  0  0  0  0  0  0  0  0  0  0
   11.6881   14.4798   21.2645 C   0  0  0  0  0  0  0  0  0  0  0  0
   10.9638   13.4673   21.9776 N   0  0  0  0  0  0  0  0  0  0  0  0
   10.5287   13.4009   23.4452 C   0  0  0  0  0  0  0  0  0  0  0  0
   10.6198   14.1899   24.2955 O   0  0  0  0  0  0  0  0  0  0  0  0
    9.8125   12.1437   23.6972 C   0  0  0  0  0  0  0  0  0  0  0  0
   10.0368   10.9277   23.0846 C   0  0  0  0  0  0  0  0  0  0  0  0
    9.2574    9.9774   23.6772 N   0  0  0  0  0  0  0  0  0  0  0  0
    9.3618    8.5655   23.3904 C   0  0  0  0  0  0  0  0  0  0  0  0
    8.4042   10.5695   24.5787 C   0  0  0  0  0  0  0  0  0  0  0  0
    7.3822   10.0300   25.3700 C   0  0  0  0  0  0  0  0  0  0  0  0
    6.6702   10.8889   26.2086 C   0  0  0  0  0  0  0  0  0  0  0  0
    6.9672   12.2455   26.2470 C   0  0  0  0  0  0  0  0  0  0  0  0
    6.0805   13.2757   27.3027 Cl  0  0  0  0  0  0  0  0  0  0  0  0
    7.9873   12.7817   25.4588 C   0  0  0  0  0  0  0  0  0  0  0  0
    8.7292   11.9305   24.6115 C   0  0  0  0  0  0  0  0  0  0  0  0
  1  2  1  0
  2  3  1  0
  3  4  1  0
  4  5  1  0
  5  6  2  0
  5  7  1  0
  7  8  2  0
  8  9  1  0
  9 10  1  0
  9 11  1  0
 11 12  2  0
 12 13  1  0
 13 14  2  0
 14 15  1  0
 14 16  1  0
 16 17  2  0
 17  7  1  0
 17 11  1  0
M  END
>  <alias>  (961) 
None

>  <rmsd(smina/fragmenstein)>  (961) 
0.378

>  <smiles>  (961) 
CCCNC(=O)c1cn(C)c2ccc(Cl)cc12

>  <gnina_score>  (961) 
5.452

>  <inspiration_score>  (961) 
None

>  <energy_score>  (961) 
-1.438434

>  <distance_score>  (961) 
0.439717

>  <gnina_score_min>  (961) 
5.295

>  <inchikey>  (961) 
WSYVKTMLGQHDLL-UHFFFAOYSA-N

>  <exports>  (961) 
['/opt/xchem-fragalysis-2/maxwin/BulkDock/OUTPUTS/openbind_a71ev2a_c2_elabs_1LOUU54.sdf', '/opt/xchem-fragalysis-2/maxwin/BulkDock/OUTPUTS/openbind_a71ev2a_c2_elabs_1LSYIDY.sdf']

>  <name>  (961) 
P576685

>  <ref_pdb>  (961) 
A3066a

>  <subsites>  (961) 
None

>  <HIPPO Pose ID>  (961) 
576685

>  <ref_mols>  (961) 
A3066a

>  <HIPPO Compound ID>  (961) 
349471

>  <tags>  (961) 
openbind_a71ev2a_c2_elabs,syndirella_product,openbind_a71ev2a_c2_elabs_fragonly_scored_top80percent,openbind_a71ev2a_c2_elabs_scored,BulkDock Fragalysis export,openbind_a71ev2a_c2_elabs_scored_top80percent,openbind_a71ev2a_c2_elabs_activefrags_only_scored_5.2plus,syndirella_placed

>  <smina_score_min>  (961) 
-7.217

$$$$
P576686
     RDKit          3D

 17 18  0  0  0  0  0  0  0  0999 V2000
    9.3756    8.6049   23.2364 C   0  0  0  0  0  0  0  0  0  0  0  0
    9.2655    9.9931   23.6209 N   0  0  0  0  0  0  0  0  0  0  0  0
   10.0330   10.9919   23.0929 C   0  0  0  0  0  0  0  0  0  0  0  0
    9.7802   12.1557   23.7854 C   0  0  0  0  0  0  0  0  0  0  0  0
   10.4860   13.4276   23.6627 C   0  0  0  0  0  0  0  0  0  0  0  0
   10.6172   14.0906   24.6100 O   0  0  0  0  0  0  0  0  0  0  0  0
   10.8553   13.6996   22.2009 N   0  0  0  0  0  0  0  0  0  0  0  0
   11.3779   14.8810   21.5751 C   0  0  0  0  0  0  0  0  0  0  0  0
   10.2293   15.7546   21.0791 C   0  0  0  0  0  0  0  0  0  0  0  0
    9.9321   15.4931   19.3622 Cl  0  0  0  0  0  0  0  0  0  0  0  0
    8.6865   11.8746   24.6640 C   0  0  0  0  0  0  0  0  0  0  0  0
    7.9178   12.6640   25.5469 C   0  0  0  0  0  0  0  0  0  0  0  0
    6.9071   12.0637   26.2989 C   0  0  0  0  0  0  0  0  0  0  0  0
    5.9855   13.0161   27.3966 Cl  0  0  0  0  0  0  0  0  0  0  0  0
    6.6517   10.7027   26.1936 C   0  0  0  0  0  0  0  0  0  0  0  0
    7.3941    9.9079   25.3186 C   0  0  0  0  0  0  0  0  0  0  0  0
    8.3989   10.5123   24.5554 C   0  0  0  0  0  0  0  0  0  0  0  0
  1  2  1  0
  2  3  1  0
  3  4  2  0
  4  5  1  0
  5  6  2  0
  5  7  1  0
  7  8  1  0
  8  9  1  0
  9 10  1  0
  4 11  1  0
 11 12  2  0
 12 13  1  0
 13 14  1  0
 13 15  2  0
 15 16  1  0
 16 17  2  0
 17  2  1  0
 17 11  1  0
M  END
>  <alias>  (962) 
None

>  <rmsd(smina/fragmenstein)>  (962) 
0.313

>  <smiles>  (962) 
Cn1cc(C(=O)NCCCl)c2cc(Cl)ccc21

>  <gnina_score>  (962) 
5.361

>  <inspiration_score>  (962) 
None

>  <energy_score>  (962) 
-10.623505

>  <distance_score>  (962) 
0.464183

>  <gnina_score_min>  (962) 
5.431

>  <inchikey>  (962) 
MYCYSOXTHQYAMK-UHFFFAOYSA-N

>  <exports>  (962) 
['/opt/xchem-fragalysis-2/maxwin/BulkDock/OUTPUTS/openbind_a71ev2a_c2_elabs_1LOUU54.sdf', '/opt/xchem-fragalysis-2/maxwin/BulkDock/OUTPUTS/openbind_a71ev2a_c2_elabs_1LSYIDY.sdf']

>  <name>  (962) 
P576686

>  <ref_pdb>  (962) 
A3066a

>  <subsites>  (962) 
None

>  <HIPPO Pose ID>  (962) 
576686

>  <ref_mols>  (962) 
A3066a

>  <HIPPO Compound ID>  (962) 
349472

>  <tags>  (962) 
openbind_a71ev2a_c2_elabs,syndirella_product,openbind_a71ev2a_c2_elabs_fragonly_scored_top80percent,openbind_a71ev2a_c2_elabs_scored,BulkDock Fragalysis export,openbind_a71ev2a_c2_elabs_scored_top80percent,openbind_a71ev2a_c2_elabs_activefrags_only_scored_5.2plus,syndirella_placed

>  <smina_score_min>  (962) 
-6.5

$$$$
P576687
     RDKit          3D

 17 18  0  0  0  0  0  0  0  0999 V2000
    9.3539    8.5948   23.3080 C   0  0  0  0  0  0  0  0  0  0  0  0
    9.1540    9.9598   23.7393 N   0  0  0  0  0  0  0  0  0  0  0  0
    9.8559   11.0207   23.2443 C   0  0  0  0  0  0  0  0  0  0  0  0
    9.4579   12.1474   23.9300 C   0  0  0  0  0  0  0  0  0  0  0  0
    9.9660   13.4821   23.7519 C   0  0  0  0  0  0  0  0  0  0  0  0
   10.2703   14.1310   24.6665 O   0  0  0  0  0  0  0  0  0  0  0  0
    9.9281   13.8232   22.2649 N   0  0  0  0  0  0  0  0  0  0  0  0
   10.3431   14.9985   21.5729 C   0  0  0  0  0  0  0  0  0  0  0  0
   11.8127   15.2235   21.8620 C   0  0  0  0  0  0  0  0  0  0  0  0
   12.7281   14.2180   20.6916 S   0  0  0  0  0  0  0  0  0  0  0  0
    8.4320   11.7744   24.8283 C   0  0  0  0  0  0  0  0  0  0  0  0
    7.6272   12.4983   25.7323 C   0  0  0  0  0  0  0  0  0  0  0  0
    6.6659   11.8195   26.4750 C   0  0  0  0  0  0  0  0  0  0  0  0
    5.6963   12.6816   27.6043 Cl  0  0  0  0  0  0  0  0  0  0  0  0
    6.4912   10.4514   26.3237 C   0  0  0  0  0  0  0  0  0  0  0  0
    7.2755    9.7311   25.4197 C   0  0  0  0  0  0  0  0  0  0  0  0
    8.2481   10.4022   24.6810 C   0  0  0  0  0  0  0  0  0  0  0  0
  1  2  1  0
  2  3  1  0
  3  4  2  0
  4  5  1  0
  5  6  2  0
  5  7  1  0
  7  8  1  0
  8  9  1  0
  9 10  1  0
  4 11  1  0
 11 12  2  0
 12 13  1  0
 13 14  1  0
 13 15  2  0
 15 16  1  0
 16 17  2  0
 17  2  1  0
 17 11  1  0
M  END
>  <alias>  (963) 
None

>  <rmsd(smina/fragmenstein)>  (963) 
0.714

>  <smiles>  (963) 
Cn1cc(C(=O)NCCS)c2cc(Cl)ccc21

>  <gnina_score>  (963) 
5.405

>  <inspiration_score>  (963) 
None

>  <energy_score>  (963) 
-5.698689

>  <distance_score>  (963) 
0.914434

>  <gnina_score_min>  (963) 
5.325

>  <inchikey>  (963) 
NCUXDKAIKJVMHY-UHFFFAOYSA-N

>  <exports>  (963) 
['/opt/xchem-fragalysis-2/maxwin/BulkDock/OUTPUTS/openbind_a71ev2a_c2_elabs_1LOUU54.sdf', '/opt/xchem-fragalysis-2/maxwin/BulkDock/OUTPUTS/openbind_a71ev2a_c2_elabs_1LSYIDY.sdf']

>  <name>  (963) 
P576687

>  <ref_pdb>  (963) 
A3066a

>  <subsites>  (963) 
None

>  <HIPPO Pose ID>  (963) 
576687

>  <ref_mols>  (963) 
A3066a

>  <HIPPO Compound ID>  (963) 
349478

>  <tags>  (963) 
openbind_a71ev2a_c2_elabs,syndirella_product,openbind_a71ev2a_c2_elabs_fragonly_scored_top80percent,openbind_a71ev2a_c2_elabs_scored,BulkDock Fragalysis export,openbind_a71ev2a_c2_elabs_scored_top80percent,openbind_a71ev2a_c2_elabs_activefrags_only_scored_5.2plus,syndirella_placed

>  <smina_score_min>  (963) 
-5.811

$$$$
P576688
     RDKit          3D

 17 18  0  0  0  0  0  0  0  0999 V2000
    9.3079    8.6584   23.2588 C   0  0  0  0  0  0  0  0  0  0  0  0
    9.1763   10.0341   23.6852 N   0  0  0  0  0  0  0  0  0  0  0  0
    9.9541   11.0520   23.2131 C   0  0  0  0  0  0  0  0  0  0  0  0
    9.6802   12.1890   23.9473 C   0  0  0  0  0  0  0  0  0  0  0  0
   10.4369   13.4332   23.9112 C   0  0  0  0  0  0  0  0  0  0  0  0
   10.6351   14.0245   24.8918 O   0  0  0  0  0  0  0  0  0  0  0  0
   10.9085   13.6972   22.4833 N   0  0  0  0  0  0  0  0  0  0  0  0
   11.6464   14.7948   21.9347 C   0  0  0  0  0  0  0  0  0  0  0  0
   12.5061   14.3167   20.7838 C   0  0  0  0  0  0  0  0  0  0  0  0
   11.7392   14.2748   19.5807 O   0  0  0  0  0  0  0  0  0  0  0  0
    8.5736   11.8805   24.7873 C   0  0  0  0  0  0  0  0  0  0  0  0
    7.8006   12.6375   25.6924 C   0  0  0  0  0  0  0  0  0  0  0  0
    6.7922   12.0065   26.4195 C   0  0  0  0  0  0  0  0  0  0  0  0
    5.8611   12.9143   27.5464 Cl  0  0  0  0  0  0  0  0  0  0  0  0
    6.5473   10.6479   26.2680 C   0  0  0  0  0  0  0  0  0  0  0  0
    7.2942    9.8875   25.3665 C   0  0  0  0  0  0  0  0  0  0  0  0
    8.2970   10.5206   24.6270 C   0  0  0  0  0  0  0  0  0  0  0  0
  1  2  1  0
  2  3  1  0
  3  4  2  0
  4  5  1  0
  5  6  2  0
  5  7  1  0
  7  8  1  0
  8  9  1  0
  9 10  1  0
  4 11  1  0
 11 12  2  0
 12 13  1  0
 13 14  1  0
 13 15  2  0
 15 16  1  0
 16 17  2  0
 17  2  1  0
 17 11  1  0
M  END
>  <alias>  (964) 
None

>  <rmsd(smina/fragmenstein)>  (964) 
0.486

>  <smiles>  (964) 
Cn1cc(C(=O)NCCO)c2cc(Cl)ccc21

>  <gnina_score>  (964) 
5.216

>  <inspiration_score>  (964) 
None

>  <energy_score>  (964) 
-6.117171

>  <distance_score>  (964) 
0.488081

>  <gnina_score_min>  (964) 
5.333

>  <inchikey>  (964) 
JVWVSNBRQSUOPX-UHFFFAOYSA-N

>  <exports>  (964) 
['/opt/xchem-fragalysis-2/maxwin/BulkDock/OUTPUTS/openbind_a71ev2a_c2_elabs_1LOUU54.sdf', '/opt/xchem-fragalysis-2/maxwin/BulkDock/OUTPUTS/openbind_a71ev2a_c2_elabs_1LSYIDY.sdf']

>  <name>  (964) 
P576688

>  <ref_pdb>  (964) 
A3066a

>  <subsites>  (964) 
None

>  <HIPPO Pose ID>  (964) 
576688

>  <ref_mols>  (964) 
A3066a

>  <HIPPO Compound ID>  (964) 
349480

>  <tags>  (964) 
openbind_a71ev2a_c2_elabs,syndirella_product,openbind_a71ev2a_c2_elabs_fragonly_scored_top80percent,openbind_a71ev2a_c2_elabs_scored,BulkDock Fragalysis export,openbind_a71ev2a_c2_elabs_scored_top80percent,openbind_a71ev2a_c2_elabs_activefrags_only_scored_5.2plus,syndirella_placed

>  <smina_score_min>  (964) 
-6.954

$$$$
P576689
     RDKit          3D

 17 18  0  0  0  0  0  0  0  0999 V2000
    8.9463    8.8703   23.7611 C   0  0  0  0  0  0  0  0  0  0  0  0
    8.9760   10.3117   23.8844 N   0  0  0  0  0  0  0  0  0  0  0  0
    9.8697   11.0573   23.1581 C   0  0  0  0  0  0  0  0  0  0  0  0
    9.8212   12.3589   23.6011 C   0  0  0  0  0  0  0  0  0  0  0  0
   10.6914   13.4614   23.2222 C   0  0  0  0  0  0  0  0  0  0  0  0
   10.9704   14.2500   24.0320 O   0  0  0  0  0  0  0  0  0  0  0  0
   11.1734   13.3090   21.7789 N   0  0  0  0  0  0  0  0  0  0  0  0
   12.0314   14.1476   20.9862 C   0  0  0  0  0  0  0  0  0  0  0  0
   12.8711   15.0677   21.8354 C   0  0  0  0  0  0  0  0  0  0  0  0
   13.4355   14.3728   22.9397 O   0  0  0  0  0  0  0  0  0  0  0  0
    8.7983   12.4185   24.5869 C   0  0  0  0  0  0  0  0  0  0  0  0
    8.2906   13.4866   25.3613 C   0  0  0  0  0  0  0  0  0  0  0  0
    7.2496   13.2893   26.2562 C   0  0  0  0  0  0  0  0  0  0  0  0
    6.6921   12.0353   26.3696 C   0  0  0  0  0  0  0  0  0  0  0  0
    7.1668   10.9629   25.6038 C   0  0  0  0  0  0  0  0  0  0  0  0
    6.1881    9.3998   25.7862 Br  0  0  0  0  0  0  0  0  0  0  0  0
    8.2496   11.1366   24.7257 C   0  0  0  0  0  0  0  0  0  0  0  0
  1  2  1  0
  2  3  1  0
  3  4  2  0
  4  5  1  0
  5  6  2  0
  5  7  1  0
  7  8  1  0
  8  9  1  0
  9 10  1  0
  4 11  1  0
 11 12  2  0
 12 13  1  0
 13 14  2  0
 14 15  1  0
 15 16  1  0
 15 17  2  0
 17  2  1  0
 17 11  1  0
M  END
>  <alias>  (965) 
None

>  <rmsd(smina/fragmenstein)>  (965) 
1.092

>  <smiles>  (965) 
Cn1cc(C(=O)NCCO)c2cccc(Br)c21

>  <gnina_score>  (965) 
5.099

>  <inspiration_score>  (965) 
None

>  <energy_score>  (965) 
-2.709717

>  <distance_score>  (965) 
0.836248

>  <gnina_score_min>  (965) 
5.224

>  <inchikey>  (965) 
NQUREXGKCUGPLE-UHFFFAOYSA-N

>  <exports>  (965) 
['/opt/xchem-fragalysis-2/maxwin/BulkDock/OUTPUTS/openbind_a71ev2a_c2_elabs_1LOUU54.sdf', '/opt/xchem-fragalysis-2/maxwin/BulkDock/OUTPUTS/openbind_a71ev2a_c2_elabs_1LSYIDY.sdf']

>  <name>  (965) 
P576689

>  <ref_pdb>  (965) 
A3066a

>  <subsites>  (965) 
None

>  <HIPPO Pose ID>  (965) 
576689

>  <ref_mols>  (965) 
A3066a

>  <HIPPO Compound ID>  (965) 
349482

>  <tags>  (965) 
openbind_a71ev2a_c2_elabs,syndirella_product,openbind_a71ev2a_c2_elabs_fragonly_scored_top80percent,openbind_a71ev2a_c2_elabs_scored,BulkDock Fragalysis export,openbind_a71ev2a_c2_elabs_scored_top80percent,openbind_a71ev2a_c2_elabs_activefrags_only_scored_5.2plus,syndirella_placed

>  <smina_score_min>  (965) 
-6.301

$$$$
P576690
     RDKit          3D

 17 19  0  0  0  0  0  0  0  0999 V2000
    9.3480    8.5241   23.4091 C   0  0  0  0  0  0  0  0  0  0  0  0
    9.1871    9.9261   23.7132 N   0  0  0  0  0  0  0  0  0  0  0  0
    9.9436   10.9080   23.1436 C   0  0  0  0  0  0  0  0  0  0  0  0
    9.6633   12.1000   23.7779 C   0  0  0  0  0  0  0  0  0  0  0  0
   10.3460   13.3704   23.5752 C   0  0  0  0  0  0  0  0  0  0  0  0
   10.5396   14.0763   24.4805 O   0  0  0  0  0  0  0  0  0  0  0  0
   10.6831   13.5443   22.0871 N   0  0  0  0  0  0  0  0  0  0  0  0
   11.2290   14.6321   21.4010 C   0  0  0  0  0  0  0  0  0  0  0  0
   12.5019   14.4228   20.6504 C   0  0  0  0  0  0  0  0  0  0  0  0
   11.2251   14.6958   19.9033 C   0  0  0  0  0  0  0  0  0  0  0  0
    8.5940   11.8439   24.6851 C   0  0  0  0  0  0  0  0  0  0  0  0
    7.8399   12.6613   25.5540 C   0  0  0  0  0  0  0  0  0  0  0  0
    6.8390   12.0845   26.3349 C   0  0  0  0  0  0  0  0  0  0  0  0
    5.9300   13.0658   27.4171 Cl  0  0  0  0  0  0  0  0  0  0  0  0
    6.5767   10.7225   26.2652 C   0  0  0  0  0  0  0  0  0  0  0  0
    7.3057    9.9013   25.4032 C   0  0  0  0  0  0  0  0  0  0  0  0
    8.3119   10.4772   24.6216 C   0  0  0  0  0  0  0  0  0  0  0  0
  1  2  1  0
  2  3  1  0
  3  4  2  0
  4  5  1  0
  5  6  2  0
  5  7  1  0
  7  8  1  0
  8  9  1  0
  9 10  1  0
  4 11  1  0
 11 12  2  0
 12 13  1  0
 13 14  1  0
 13 15  2  0
 15 16  1  0
 16 17  2  0
 17  2  1  0
 10  8  1  0
 17 11  1  0
M  END
>  <alias>  (966) 
None

>  <rmsd(smina/fragmenstein)>  (966) 
0.272

>  <smiles>  (966) 
Cn1cc(C(=O)NC2CC2)c2cc(Cl)ccc21

>  <gnina_score>  (966) 
5.266

>  <inspiration_score>  (966) 
None

>  <energy_score>  (966) 
-2.628208

>  <distance_score>  (966) 
0.56532

>  <gnina_score_min>  (966) 
5.324

>  <inchikey>  (966) 
KPBLURPYRPFUQD-UHFFFAOYSA-N

>  <exports>  (966) 
['/opt/xchem-fragalysis-2/maxwin/BulkDock/OUTPUTS/openbind_a71ev2a_c2_elabs_1LOUU54.sdf', '/opt/xchem-fragalysis-2/maxwin/BulkDock/OUTPUTS/openbind_a71ev2a_c2_elabs_1LSYIDY.sdf']

>  <name>  (966) 
P576690

>  <ref_pdb>  (966) 
A3066a

>  <subsites>  (966) 
None

>  <HIPPO Pose ID>  (966) 
576690

>  <ref_mols>  (966) 
A3066a

>  <HIPPO Compound ID>  (966) 
349486

>  <tags>  (966) 
openbind_a71ev2a_c2_elabs,syndirella_product,openbind_a71ev2a_c2_elabs_fragonly_scored_top80percent,openbind_a71ev2a_c2_elabs_scored,BulkDock Fragalysis export,openbind_a71ev2a_c2_elabs_scored_top80percent,openbind_a71ev2a_c2_elabs_activefrags_only_scored_5.2plus,syndirella_placed

>  <smina_score_min>  (966) 
-6.812

$$$$
P576691
     RDKit          3D

 17 18  0  0  0  0  0  0  0  0999 V2000
   11.6643   14.3718   19.6751 C   0  0  0  0  0  0  0  0  0  0  0  0
   11.5527   14.7292   21.1435 C   0  0  0  0  0  0  0  0  0  0  0  0
   12.9022   14.9694   21.7758 C   0  0  0  0  0  0  0  0  0  0  0  0
   10.9360   13.6954   21.9250 N   0  0  0  0  0  0  0  0  0  0  0  0
   10.7405   13.5752   23.4381 C   0  0  0  0  0  0  0  0  0  0  0  0
   11.1150   14.2569   24.3043 O   0  0  0  0  0  0  0  0  0  0  0  0
    9.8867   12.4432   23.7441 C   0  0  0  0  0  0  0  0  0  0  0  0
    9.9292   11.1784   23.2055 C   0  0  0  0  0  0  0  0  0  0  0  0
    9.0315   10.3889   23.8825 N   0  0  0  0  0  0  0  0  0  0  0  0
    9.0029    8.9523   23.6992 C   0  0  0  0  0  0  0  0  0  0  0  0
    8.2872   11.1691   24.7537 C   0  0  0  0  0  0  0  0  0  0  0  0
    7.1886   10.9502   25.6004 C   0  0  0  0  0  0  0  0  0  0  0  0
    6.2352    9.3671   25.7063 Br  0  0  0  0  0  0  0  0  0  0  0  0
    6.6858   11.9859   26.3987 C   0  0  0  0  0  0  0  0  0  0  0  0
    7.2368   13.2473   26.3548 C   0  0  0  0  0  0  0  0  0  0  0  0
    8.3041   13.4880   25.5028 C   0  0  0  0  0  0  0  0  0  0  0  0
    8.8372   12.4553   24.6981 C   0  0  0  0  0  0  0  0  0  0  0  0
  1  2  1  0
  2  3  1  0
  2  4  1  0
  4  5  1  0
  5  6  2  0
  5  7  1  0
  7  8  2  0
  8  9  1  0
  9 10  1  0
  9 11  1  0
 11 12  2  0
 12 13  1  0
 12 14  1  0
 14 15  2  0
 15 16  1  0
 16 17  2  0
 17  7  1  0
 17 11  1  0
M  END
>  <alias>  (967) 
None

>  <rmsd(smina/fragmenstein)>  (967) 
0.933

>  <smiles>  (967) 
CC(C)NC(=O)c1cn(C)c2c(Br)cccc12

>  <gnina_score>  (967) 
5.318

>  <inspiration_score>  (967) 
None

>  <energy_score>  (967) 
-3.739771

>  <distance_score>  (967) 
0.829809

>  <gnina_score_min>  (967) 
5.32

>  <inchikey>  (967) 
SCPOCZKSKTZLKR-UHFFFAOYSA-N

>  <exports>  (967) 
['/opt/xchem-fragalysis-2/maxwin/BulkDock/OUTPUTS/openbind_a71ev2a_c2_elabs_1LOUU54.sdf', '/opt/xchem-fragalysis-2/maxwin/BulkDock/OUTPUTS/openbind_a71ev2a_c2_elabs_1LSYIDY.sdf']

>  <name>  (967) 
P576691

>  <ref_pdb>  (967) 
A3066a

>  <subsites>  (967) 
None

>  <HIPPO Pose ID>  (967) 
576691

>  <ref_mols>  (967) 
A3066a

>  <HIPPO Compound ID>  (967) 
349491

>  <tags>  (967) 
openbind_a71ev2a_c2_elabs,syndirella_product,openbind_a71ev2a_c2_elabs_fragonly_scored_top80percent,openbind_a71ev2a_c2_elabs_scored,BulkDock Fragalysis export,openbind_a71ev2a_c2_elabs_scored_top80percent,openbind_a71ev2a_c2_elabs_activefrags_only_scored_5.2plus,syndirella_placed

>  <smina_score_min>  (967) 
-6.786

$$$$
P576693
     RDKit          3D

 17 18  0  0  0  0  0  0  0  0999 V2000
    9.2931    8.6115   23.2494 C   0  0  0  0  0  0  0  0  0  0  0  0
    9.1891    9.9729   23.7223 N   0  0  0  0  0  0  0  0  0  0  0  0
   10.0029   10.9836   23.2957 C   0  0  0  0  0  0  0  0  0  0  0  0
    9.7616   12.0961   24.0755 C   0  0  0  0  0  0  0  0  0  0  0  0
   10.5137   13.3450   24.1112 C   0  0  0  0  0  0  0  0  0  0  0  0
   10.5106   13.9896   25.0782 O   0  0  0  0  0  0  0  0  0  0  0  0
   11.1226   13.6211   22.7404 N   0  0  0  0  0  0  0  0  0  0  0  0
   11.7756   14.7840   22.2325 C   0  0  0  0  0  0  0  0  0  0  0  0
   10.7566   15.5040   21.3629 C   0  0  0  0  0  0  0  0  0  0  0  0
   10.8760   14.8211   19.4035 I   0  0  0  0  0  0  0  0  0  0  0  0
    8.6056   11.7995   24.8580 C   0  0  0  0  0  0  0  0  0  0  0  0
    7.8093   12.5587   25.7434 C   0  0  0  0  0  0  0  0  0  0  0  0
    6.7705   11.9370   26.4330 C   0  0  0  0  0  0  0  0  0  0  0  0
    5.8226   12.8457   27.5447 Cl  0  0  0  0  0  0  0  0  0  0  0  0
    6.5143   10.5844   26.2599 C   0  0  0  0  0  0  0  0  0  0  0  0
    7.2717    9.8282   25.3639 C   0  0  0  0  0  0  0  0  0  0  0  0
    8.3033   10.4525   24.6594 C   0  0  0  0  0  0  0  0  0  0  0  0
  1  2  1  0
  2  3  1  0
  3  4  2  0
  4  5  1  0
  5  6  2  0
  5  7  1  0
  7  8  1  0
  8  9  1  0
  9 10  1  0
  4 11  1  0
 11 12  2  0
 12 13  1  0
 13 14  1  0
 13 15  2  0
 15 16  1  0
 16 17  2  0
 17  2  1  0
 17 11  1  0
M  END
>  <alias>  (968) 
None

>  <rmsd(smina/fragmenstein)>  (968) 
0.812

>  <smiles>  (968) 
Cn1cc(C(=O)NCCI)c2cc(Cl)ccc21

>  <gnina_score>  (968) 
5.39

>  <inspiration_score>  (968) 
None

>  <energy_score>  (968) 
-0.692576

>  <distance_score>  (968) 
0.507204

>  <gnina_score_min>  (968) 
5.599

>  <inchikey>  (968) 
ZCKJYCKHVLOOOI-UHFFFAOYSA-N

>  <exports>  (968) 
['/opt/xchem-fragalysis-2/maxwin/BulkDock/OUTPUTS/openbind_a71ev2a_c2_elabs_1LOUU54.sdf', '/opt/xchem-fragalysis-2/maxwin/BulkDock/OUTPUTS/openbind_a71ev2a_c2_elabs_1LSYIDY.sdf']

>  <name>  (968) 
P576693

>  <ref_pdb>  (968) 
A3066a

>  <subsites>  (968) 
None

>  <HIPPO Pose ID>  (968) 
576693

>  <ref_mols>  (968) 
A3066a

>  <HIPPO Compound ID>  (968) 
349494

>  <tags>  (968) 
openbind_a71ev2a_c2_elabs,syndirella_product,openbind_a71ev2a_c2_elabs_fragonly_scored_top80percent,BulkDock Fragalysis export,openbind_a71ev2a_c2_elabs_scored,openbind_a71ev2a_c2_elabs_scored_top80percent,openbind_a71ev2a_c2_elabs_activefrags_only_scored_5.2plus,openbind_a71ev2a_c2_elabs_activefrags_only_scored_5.5plus,syndirella_placed

>  <smina_score_min>  (968) 
-6.172

$$$$
P576694
     RDKit          3D

 17 18  0  0  0  0  0  0  0  0999 V2000
    9.2401    8.5893   23.3216 C   0  0  0  0  0  0  0  0  0  0  0  0
    9.1805   10.0011   23.6261 N   0  0  0  0  0  0  0  0  0  0  0  0
   10.0089   10.9314   23.0657 C   0  0  0  0  0  0  0  0  0  0  0  0
    9.8504   12.1293   23.7328 C   0  0  0  0  0  0  0  0  0  0  0  0
   10.6983   13.3177   23.6298 C   0  0  0  0  0  0  0  0  0  0  0  0
   10.7764   14.0343   24.5479 O   0  0  0  0  0  0  0  0  0  0  0  0
   11.4221   13.3593   22.2582 N   0  0  0  0  0  0  0  0  0  0  0  0
   12.2336   14.2518   21.7541 C   0  0  0  0  0  0  0  0  0  0  0  0
   12.9490   15.0531   21.3365 N   0  0  0  0  0  0  0  0  0  0  0  0
    8.7370   11.9496   24.6170 C   0  0  0  0  0  0  0  0  0  0  0  0
    8.0370   12.7994   25.5016 C   0  0  0  0  0  0  0  0  0  0  0  0
    6.9984   12.2770   26.2732 C   0  0  0  0  0  0  0  0  0  0  0  0
    6.3562   13.0786   27.1326 F   0  0  0  0  0  0  0  0  0  0  0  0
    6.6303   10.9471   26.1887 C   0  0  0  0  0  0  0  0  0  0  0  0
    7.2993   10.1101   25.3078 C   0  0  0  0  0  0  0  0  0  0  0  0
    6.9101    8.8399   25.1867 F   0  0  0  0  0  0  0  0  0  0  0  0
    8.3498   10.6090   24.5355 C   0  0  0  0  0  0  0  0  0  0  0  0
  1  2  1  0
  2  3  1  0
  3  4  2  0
  4  5  1  0
  5  6  2  0
  5  7  1  0
  7  8  1  0
  8  9  3  0
  4 10  1  0
 10 11  2  0
 11 12  1  0
 12 13  1  0
 12 14  2  0
 14 15  1  0
 15 16  1  0
 15 17  2  0
 17  2  1  0
 17 10  1  0
M  END
>  <alias>  (969) 
None

>  <rmsd(smina/fragmenstein)>  (969) 
0.517

>  <smiles>  (969) 
Cn1cc(C(=O)NC#N)c2cc(F)cc(F)c21

>  <gnina_score>  (969) 
5.427

>  <inspiration_score>  (969) 
None

>  <energy_score>  (969) 
-0.309956

>  <distance_score>  (969) 
0.277481

>  <gnina_score_min>  (969) 
5.33

>  <inchikey>  (969) 
ZBYDPBAZDSGTNH-UHFFFAOYSA-N

>  <exports>  (969) 
['/opt/xchem-fragalysis-2/maxwin/BulkDock/OUTPUTS/openbind_a71ev2a_c2_elabs_1LOUU54.sdf', '/opt/xchem-fragalysis-2/maxwin/BulkDock/OUTPUTS/openbind_a71ev2a_c2_elabs_1LSYIDY.sdf']

>  <name>  (969) 
P576694

>  <ref_pdb>  (969) 
A3066a

>  <subsites>  (969) 
None

>  <HIPPO Pose ID>  (969) 
576694

>  <ref_mols>  (969) 
A3066a

>  <HIPPO Compound ID>  (969) 
349495

>  <tags>  (969) 
openbind_a71ev2a_c2_elabs,syndirella_product,openbind_a71ev2a_c2_elabs_fragonly_scored_top80percent,openbind_a71ev2a_c2_elabs_scored,BulkDock Fragalysis export,openbind_a71ev2a_c2_elabs_scored_top80percent,openbind_a71ev2a_c2_elabs_activefrags_only_scored_5.2plus,syndirella_placed

>  <smina_score_min>  (969) 
-6.451

$$$$
P576696
     RDKit          3D

 17 18  0  0  0  0  0  0  0  0999 V2000
    8.8853    8.9302   23.8482 C   0  0  0  0  0  0  0  0  0  0  0  0
    8.8924   10.3570   24.0935 N   0  0  0  0  0  0  0  0  0  0  0  0
    9.8033   11.1694   23.4692 C   0  0  0  0  0  0  0  0  0  0  0  0
    9.7326   12.4077   24.0610 C   0  0  0  0  0  0  0  0  0  0  0  0
   10.5294   13.5552   23.7406 C   0  0  0  0  0  0  0  0  0  0  0  0
   11.1836   14.1001   24.5311 O   0  0  0  0  0  0  0  0  0  0  0  0
   10.2962   13.8643   22.2695 N   0  0  0  0  0  0  0  0  0  0  0  0
   10.7359   14.9537   21.4755 C   0  0  0  0  0  0  0  0  0  0  0  0
   12.2485   14.9311   21.4993 C   0  0  0  0  0  0  0  0  0  0  0  0
   12.7312   14.0505   20.0260 S   0  0  0  0  0  0  0  0  0  0  0  0
    8.6692   12.3979   24.9782 C   0  0  0  0  0  0  0  0  0  0  0  0
    8.1158   13.4176   25.7830 C   0  0  0  0  0  0  0  0  0  0  0  0
    7.0323   13.1496   26.6023 C   0  0  0  0  0  0  0  0  0  0  0  0
    6.4829   11.8857   26.5941 C   0  0  0  0  0  0  0  0  0  0  0  0
    6.9996   10.8731   25.7735 C   0  0  0  0  0  0  0  0  0  0  0  0
    6.0203    9.3061   25.7732 Br  0  0  0  0  0  0  0  0  0  0  0  0
    8.1238   11.1093   24.9713 C   0  0  0  0  0  0  0  0  0  0  0  0
  1  2  1  0
  2  3  1  0
  3  4  2  0
  4  5  1  0
  5  6  2  0
  5  7  1  0
  7  8  1  0
  8  9  1  0
  9 10  1  0
  4 11  1  0
 11 12  2  0
 12 13  1  0
 13 14  2  0
 14 15  1  0
 15 16  1  0
 15 17  2  0
 17  2  1  0
 17 11  1  0
M  END
>  <alias>  (970) 
None

>  <rmsd(smina/fragmenstein)>  (970) 
0.799

>  <smiles>  (970) 
Cn1cc(C(=O)NCCS)c2cccc(Br)c21

>  <gnina_score>  (970) 
5.25

>  <inspiration_score>  (970) 
None

>  <energy_score>  (970) 
-2.827012

>  <distance_score>  (970) 
1.0007

>  <gnina_score_min>  (970) 
5.275

>  <inchikey>  (970) 
FSOKVANOMJDDCH-UHFFFAOYSA-N

>  <exports>  (970) 
['/opt/xchem-fragalysis-2/maxwin/BulkDock/OUTPUTS/openbind_a71ev2a_c2_elabs_1LOUU54.sdf', '/opt/xchem-fragalysis-2/maxwin/BulkDock/OUTPUTS/openbind_a71ev2a_c2_elabs_1LSYIDY.sdf']

>  <name>  (970) 
P576696

>  <ref_pdb>  (970) 
A3066a

>  <subsites>  (970) 
None

>  <HIPPO Pose ID>  (970) 
576696

>  <ref_mols>  (970) 
A3066a

>  <HIPPO Compound ID>  (970) 
349498

>  <tags>  (970) 
openbind_a71ev2a_c2_elabs,syndirella_product,openbind_a71ev2a_c2_elabs_fragonly_scored_top80percent,openbind_a71ev2a_c2_elabs_scored,BulkDock Fragalysis export,openbind_a71ev2a_c2_elabs_scored_top80percent,openbind_a71ev2a_c2_elabs_activefrags_only_scored_5.2plus,syndirella_placed

>  <smina_score_min>  (970) 
-4.831

$$$$
P576697
     RDKit          3D

 17 18  0  0  0  0  0  0  0  0999 V2000
    9.1385    8.8885   23.5653 C   0  0  0  0  0  0  0  0  0  0  0  0
    9.2022   10.3224   23.7620 N   0  0  0  0  0  0  0  0  0  0  0  0
   10.1049   11.1119   23.0982 C   0  0  0  0  0  0  0  0  0  0  0  0
   10.0854   12.3832   23.6332 C   0  0  0  0  0  0  0  0  0  0  0  0
   10.9625   13.5175   23.2956 C   0  0  0  0  0  0  0  0  0  0  0  0
   11.2130   14.3140   24.1073 O   0  0  0  0  0  0  0  0  0  0  0  0
   11.3224   13.4688   21.8065 N   0  0  0  0  0  0  0  0  0  0  0  0
   11.9869   14.4351   20.9729 C   0  0  0  0  0  0  0  0  0  0  0  0
   11.1043   14.7873   19.7836 C   0  0  0  0  0  0  0  0  0  0  0  0
    9.5497   15.8113   20.3675 Br  0  0  0  0  0  0  0  0  0  0  0  0
    9.0045   12.3896   24.5715 C   0  0  0  0  0  0  0  0  0  0  0  0
    8.4307   13.4088   25.3647 C   0  0  0  0  0  0  0  0  0  0  0  0
    7.3382   13.1448   26.1872 C   0  0  0  0  0  0  0  0  0  0  0  0
    6.8024   11.8720   26.2262 C   0  0  0  0  0  0  0  0  0  0  0  0
    7.3416   10.8470   25.4451 C   0  0  0  0  0  0  0  0  0  0  0  0
    6.5507    9.3481   25.5142 Cl  0  0  0  0  0  0  0  0  0  0  0  0
    8.4512   11.1002   24.6207 C   0  0  0  0  0  0  0  0  0  0  0  0
  1  2  1  0
  2  3  1  0
  3  4  2  0
  4  5  1  0
  5  6  2  0
  5  7  1  0
  7  8  1  0
  8  9  1  0
  9 10  1  0
  4 11  1  0
 11 12  2  0
 12 13  1  0
 13 14  2  0
 14 15  1  0
 15 16  1  0
 15 17  2  0
 17  2  1  0
 17 11  1  0
M  END
>  <alias>  (971) 
None

>  <rmsd(smina/fragmenstein)>  (971) 
0.421

>  <smiles>  (971) 
Cn1cc(C(=O)NCCBr)c2cccc(Cl)c21

>  <gnina_score>  (971) 
5.57

>  <inspiration_score>  (971) 
None

>  <energy_score>  (971) 
-3.018316

>  <distance_score>  (971) 
0.723029

>  <gnina_score_min>  (971) 
5.562

>  <inchikey>  (971) 
OWTIGKNKQGETJT-UHFFFAOYSA-N

>  <exports>  (971) 
['/opt/xchem-fragalysis-2/maxwin/BulkDock/OUTPUTS/openbind_a71ev2a_c2_elabs_1LOUU54.sdf', '/opt/xchem-fragalysis-2/maxwin/BulkDock/OUTPUTS/openbind_a71ev2a_c2_elabs_1LSYIDY.sdf']

>  <name>  (971) 
P576697

>  <ref_pdb>  (971) 
A3066a

>  <subsites>  (971) 
None

>  <HIPPO Pose ID>  (971) 
576697

>  <ref_mols>  (971) 
A3066a

>  <HIPPO Compound ID>  (971) 
349500

>  <tags>  (971) 
openbind_a71ev2a_c2_elabs,syndirella_product,openbind_a71ev2a_c2_elabs_fragonly_scored_top80percent,BulkDock Fragalysis export,openbind_a71ev2a_c2_elabs_scored,openbind_a71ev2a_c2_elabs_scored_top80percent,openbind_a71ev2a_c2_elabs_activefrags_only_scored_5.2plus,openbind_a71ev2a_c2_elabs_activefrags_only_scored_5.5plus,syndirella_placed

>  <smina_score_min>  (971) 
-6.593

$$$$
P576698
     RDKit          3D

 17 18  0  0  0  0  0  0  0  0999 V2000
    9.3532    8.7471   23.3758 C   0  0  0  0  0  0  0  0  0  0  0  0
    9.1901   10.1445   23.7122 N   0  0  0  0  0  0  0  0  0  0  0  0
    9.8897   11.1577   23.1234 C   0  0  0  0  0  0  0  0  0  0  0  0
    9.5125   12.3490   23.7078 C   0  0  0  0  0  0  0  0  0  0  0  0
   10.0442   13.6442   23.3311 C   0  0  0  0  0  0  0  0  0  0  0  0
   10.8544   14.1840   23.9689 O   0  0  0  0  0  0  0  0  0  0  0  0
    9.4179   14.0297   21.9845 N   0  0  0  0  0  0  0  0  0  0  0  0
    9.7222   15.1125   21.0883 C   0  0  0  0  0  0  0  0  0  0  0  0
   10.8655   14.7713   20.1406 C   0  0  0  0  0  0  0  0  0  0  0  0
   12.4195   14.4069   21.0161 S   0  0  0  0  0  0  0  0  0  0  0  0
    8.5213   12.0506   24.6750 C   0  0  0  0  0  0  0  0  0  0  0  0
    7.7598   12.8436   25.5559 C   0  0  0  0  0  0  0  0  0  0  0  0
    6.8492   12.2307   26.4185 C   0  0  0  0  0  0  0  0  0  0  0  0
    6.6821   10.8518   26.3908 C   0  0  0  0  0  0  0  0  0  0  0  0
    5.6458   10.1104   27.5505 Cl  0  0  0  0  0  0  0  0  0  0  0  0
    7.3871   10.0473   25.4906 C   0  0  0  0  0  0  0  0  0  0  0  0
    8.3230   10.6650   24.6513 C   0  0  0  0  0  0  0  0  0  0  0  0
  1  2  1  0
  2  3  1  0
  3  4  2  0
  4  5  1  0
  5  6  2  0
  5  7  1  0
  7  8  1  0
  8  9  1  0
  9 10  1  0
  4 11  1  0
 11 12  2  0
 12 13  1  0
 13 14  2  0
 14 15  1  0
 14 16  1  0
 16 17  2  0
 17  2  1  0
 17 11  1  0
M  END
>  <alias>  (972) 
None

>  <rmsd(smina/fragmenstein)>  (972) 
0.224

>  <smiles>  (972) 
Cn1cc(C(=O)NCCS)c2ccc(Cl)cc21

>  <gnina_score>  (972) 
5.537

>  <inspiration_score>  (972) 
None

>  <energy_score>  (972) 
-6.718133

>  <distance_score>  (972) 
1.084664

>  <gnina_score_min>  (972) 
5.479

>  <inchikey>  (972) 
OVWNAGOJWRVXIC-UHFFFAOYSA-N

>  <exports>  (972) 
['/opt/xchem-fragalysis-2/maxwin/BulkDock/OUTPUTS/openbind_a71ev2a_c2_elabs_1LOUU54.sdf', '/opt/xchem-fragalysis-2/maxwin/BulkDock/OUTPUTS/openbind_a71ev2a_c2_elabs_1LSYIDY.sdf']

>  <name>  (972) 
P576698

>  <ref_pdb>  (972) 
A3066a

>  <subsites>  (972) 
None

>  <HIPPO Pose ID>  (972) 
576698

>  <ref_mols>  (972) 
A3066a

>  <HIPPO Compound ID>  (972) 
349503

>  <tags>  (972) 
openbind_a71ev2a_c2_elabs,syndirella_product,openbind_a71ev2a_c2_elabs_fragonly_scored_top80percent,openbind_a71ev2a_c2_elabs_scored,BulkDock Fragalysis export,openbind_a71ev2a_c2_elabs_scored_top80percent,openbind_a71ev2a_c2_elabs_activefrags_only_scored_5.2plus,syndirella_placed

>  <smina_score_min>  (972) 
-6.275

$$$$
P576699
     RDKit          3D

 17 18  0  0  0  0  0  0  0  0999 V2000
    8.6663    8.6841   24.0424 C   0  0  0  0  0  0  0  0  0  0  0  0
    8.6634   10.1095   24.2614 N   0  0  0  0  0  0  0  0  0  0  0  0
    9.4788   10.9731   23.6191 C   0  0  0  0  0  0  0  0  0  0  0  0
   10.3568   10.3278   22.3551 Cl  0  0  0  0  0  0  0  0  0  0  0  0
    9.4299   12.2164   24.1858 C   0  0  0  0  0  0  0  0  0  0  0  0
   10.2916   13.3682   23.9070 C   0  0  0  0  0  0  0  0  0  0  0  0
   10.5513   14.1067   24.7684 O   0  0  0  0  0  0  0  0  0  0  0  0
   10.6604   13.4068   22.4202 N   0  0  0  0  0  0  0  0  0  0  0  0
   11.5074   14.3120   21.6899 C   0  0  0  0  0  0  0  0  0  0  0  0
   10.8394   14.7469   20.3892 C   0  0  0  0  0  0  0  0  0  0  0  0
    9.4643   15.9080   20.6478 S   0  0  0  0  0  0  0  0  0  0  0  0
    8.3524   12.1335   25.1258 C   0  0  0  0  0  0  0  0  0  0  0  0
    7.7253   13.0775   25.9617 C   0  0  0  0  0  0  0  0  0  0  0  0
    6.6851   12.6725   26.8003 C   0  0  0  0  0  0  0  0  0  0  0  0
    6.2587   11.3497   26.8141 C   0  0  0  0  0  0  0  0  0  0  0  0
    6.8428   10.3958   25.9824 C   0  0  0  0  0  0  0  0  0  0  0  0
    7.8905   10.8083   25.1515 C   0  0  0  0  0  0  0  0  0  0  0  0
  1  2  1  0
  2  3  1  0
  3  4  1  0
  3  5  2  0
  5  6  1  0
  6  7  2  0
  6  8  1  0
  8  9  1  0
  9 10  1  0
 10 11  1  0
  5 12  1  0
 12 13  2  0
 13 14  1  0
 14 15  2  0
 15 16  1  0
 16 17  2  0
 17  2  1  0
 17 12  1  0
M  END
>  <alias>  (973) 
None

>  <rmsd(smina/fragmenstein)>  (973) 
1.272

>  <smiles>  (973) 
Cn1c(Cl)c(C(=O)NCCS)c2ccccc21

>  <gnina_score>  (973) 
5.435

>  <inspiration_score>  (973) 
None

>  <energy_score>  (973) 
-9.49832

>  <distance_score>  (973) 
0.949889

>  <gnina_score_min>  (973) 
5.441

>  <inchikey>  (973) 
WCAGTCOZHPVYFJ-UHFFFAOYSA-N

>  <exports>  (973) 
['/opt/xchem-fragalysis-2/maxwin/BulkDock/OUTPUTS/openbind_a71ev2a_c2_elabs_1LOUU54.sdf', '/opt/xchem-fragalysis-2/maxwin/BulkDock/OUTPUTS/openbind_a71ev2a_c2_elabs_1LSYIDY.sdf']

>  <name>  (973) 
P576699

>  <ref_pdb>  (973) 
A3066a

>  <subsites>  (973) 
None

>  <HIPPO Pose ID>  (973) 
576699

>  <ref_mols>  (973) 
A3066a

>  <HIPPO Compound ID>  (973) 
349506

>  <tags>  (973) 
openbind_a71ev2a_c2_elabs,syndirella_product,openbind_a71ev2a_c2_elabs_fragonly_scored_top80percent,openbind_a71ev2a_c2_elabs_scored,BulkDock Fragalysis export,openbind_a71ev2a_c2_elabs_scored_top80percent,openbind_a71ev2a_c2_elabs_activefrags_only_scored_5.2plus,syndirella_placed

>  <smina_score_min>  (973) 
-5.89

$$$$
P576700
     RDKit          3D

 17 18  0  0  0  0  0  0  0  0999 V2000
    9.1771    8.3877   23.4568 C   0  0  0  0  0  0  0  0  0  0  0  0
    9.0942    9.7999   23.7178 N   0  0  0  0  0  0  0  0  0  0  0  0
    9.9449   10.6852   23.1316 C   0  0  0  0  0  0  0  0  0  0  0  0
    9.8545   11.8752   23.8150 C   0  0  0  0  0  0  0  0  0  0  0  0
   10.7915   12.9839   23.7423 C   0  0  0  0  0  0  0  0  0  0  0  0
   10.8865   13.7078   24.6485 O   0  0  0  0  0  0  0  0  0  0  0  0
   11.4705   13.0163   22.3698 N   0  0  0  0  0  0  0  0  0  0  0  0
   12.3329   13.9896   21.7859 C   0  0  0  0  0  0  0  0  0  0  0  0
   11.5967   15.2983   21.8331 C   0  0  0  0  0  0  0  0  0  0  0  0
   10.0751   15.3086   20.6105 Br  0  0  0  0  0  0  0  0  0  0  0  0
    8.7132   11.7724   24.6671 C   0  0  0  0  0  0  0  0  0  0  0  0
    8.0466   12.6807   25.5177 C   0  0  0  0  0  0  0  0  0  0  0  0
    7.0363   12.2228   26.3656 C   0  0  0  0  0  0  0  0  0  0  0  0
    6.6883   10.8793   26.3634 C   0  0  0  0  0  0  0  0  0  0  0  0
    5.6014   10.2917   27.5647 Cl  0  0  0  0  0  0  0  0  0  0  0  0
    7.2721    9.9754   25.4716 C   0  0  0  0  0  0  0  0  0  0  0  0
    8.2919   10.4412   24.6319 C   0  0  0  0  0  0  0  0  0  0  0  0
  1  2  1  0
  2  3  1  0
  3  4  2  0
  4  5  1  0
  5  6  2  0
  5  7  1  0
  7  8  1  0
  8  9  1  0
  9 10  1  0
  4 11  1  0
 11 12  2  0
 12 13  1  0
 13 14  2  0
 14 15  1  0
 14 16  1  0
 16 17  2  0
 17  2  1  0
 17 11  1  0
M  END
>  <alias>  (974) 
None

>  <rmsd(smina/fragmenstein)>  (974) 
0.281

>  <smiles>  (974) 
Cn1cc(C(=O)NCCBr)c2ccc(Cl)cc21

>  <gnina_score>  (974) 
5.54

>  <inspiration_score>  (974) 
None

>  <energy_score>  (974) 
-1.249624

>  <distance_score>  (974) 
0.392598

>  <gnina_score_min>  (974) 
5.581

>  <inchikey>  (974) 
XHOJFPHNBRFJRV-UHFFFAOYSA-N

>  <exports>  (974) 
['/opt/xchem-fragalysis-2/maxwin/BulkDock/OUTPUTS/openbind_a71ev2a_c2_elabs_1LOUU54.sdf', '/opt/xchem-fragalysis-2/maxwin/BulkDock/OUTPUTS/openbind_a71ev2a_c2_elabs_1LSYIDY.sdf']

>  <name>  (974) 
P576700

>  <ref_pdb>  (974) 
A3066a

>  <subsites>  (974) 
None

>  <HIPPO Pose ID>  (974) 
576700

>  <ref_mols>  (974) 
A3066a

>  <HIPPO Compound ID>  (974) 
349509

>  <tags>  (974) 
openbind_a71ev2a_c2_elabs,syndirella_product,openbind_a71ev2a_c2_elabs_fragonly_scored_top80percent,BulkDock Fragalysis export,openbind_a71ev2a_c2_elabs_scored,openbind_a71ev2a_c2_elabs_scored_top80percent,openbind_a71ev2a_c2_elabs_activefrags_only_scored_5.2plus,openbind_a71ev2a_c2_elabs_activefrags_only_scored_5.5plus,syndirella_placed

>  <smina_score_min>  (974) 
-6.561

$$$$
P576703
     RDKit          3D

 17 18  0  0  0  0  0  0  0  0999 V2000
    9.3182    8.6726   23.3039 C   0  0  0  0  0  0  0  0  0  0  0  0
    9.1988   10.0705   23.6525 N   0  0  0  0  0  0  0  0  0  0  0  0
    9.9620   11.0602   23.0999 C   0  0  0  0  0  0  0  0  0  0  0  0
    9.7081   12.2362   23.7741 C   0  0  0  0  0  0  0  0  0  0  0  0
   10.4508   13.4822   23.6388 C   0  0  0  0  0  0  0  0  0  0  0  0
   10.7981   14.0497   24.5926 O   0  0  0  0  0  0  0  0  0  0  0  0
   10.6476   13.8159   22.1593 N   0  0  0  0  0  0  0  0  0  0  0  0
   11.3952   14.8691   21.5314 C   0  0  0  0  0  0  0  0  0  0  0  0
   12.6199   14.3146   20.8381 C   0  0  0  0  0  0  0  0  0  0  0  0
   12.3444   14.1114   19.5223 F   0  0  0  0  0  0  0  0  0  0  0  0
    8.6399   11.9713   24.6778 C   0  0  0  0  0  0  0  0  0  0  0  0
    7.9091   12.7783   25.5744 C   0  0  0  0  0  0  0  0  0  0  0  0
    6.9500   12.1954   26.4043 C   0  0  0  0  0  0  0  0  0  0  0  0
    6.7159   10.8282   26.3410 C   0  0  0  0  0  0  0  0  0  0  0  0
    5.6515   10.1080   27.4884 Cl  0  0  0  0  0  0  0  0  0  0  0  0
    7.3851   10.0135   25.4227 C   0  0  0  0  0  0  0  0  0  0  0  0
    8.3534   10.6053   24.6007 C   0  0  0  0  0  0  0  0  0  0  0  0
  1  2  1  0
  2  3  1  0
  3  4  2  0
  4  5  1  0
  5  6  2  0
  5  7  1  0
  7  8  1  0
  8  9  1  0
  9 10  1  0
  4 11  1  0
 11 12  2  0
 12 13  1  0
 13 14  2  0
 14 15  1  0
 14 16  1  0
 16 17  2  0
 17  2  1  0
 17 11  1  0
M  END
>  <alias>  (975) 
None

>  <rmsd(smina/fragmenstein)>  (975) 
0.351

>  <smiles>  (975) 
Cn1cc(C(=O)NCCF)c2ccc(Cl)cc21

>  <gnina_score>  (975) 
5.183

>  <inspiration_score>  (975) 
None

>  <energy_score>  (975) 
-4.256158

>  <distance_score>  (975) 
0.515449

>  <gnina_score_min>  (975) 
5.258

>  <inchikey>  (975) 
JVRAMKZPLFNNGA-UHFFFAOYSA-N

>  <exports>  (975) 
['/opt/xchem-fragalysis-2/maxwin/BulkDock/OUTPUTS/openbind_a71ev2a_c2_elabs_1LOUU54.sdf', '/opt/xchem-fragalysis-2/maxwin/BulkDock/OUTPUTS/openbind_a71ev2a_c2_elabs_1LSYIDY.sdf']

>  <name>  (975) 
P576703

>  <ref_pdb>  (975) 
A3066a

>  <subsites>  (975) 
None

>  <HIPPO Pose ID>  (975) 
576703

>  <ref_mols>  (975) 
A3066a

>  <HIPPO Compound ID>  (975) 
349517

>  <tags>  (975) 
openbind_a71ev2a_c2_elabs,syndirella_product,openbind_a71ev2a_c2_elabs_fragonly_scored_top80percent,openbind_a71ev2a_c2_elabs_scored,BulkDock Fragalysis export,openbind_a71ev2a_c2_elabs_scored_top80percent,openbind_a71ev2a_c2_elabs_activefrags_only_scored_5.2plus,syndirella_placed

>  <smina_score_min>  (975) 
-6.963

$$$$
P576707
     RDKit          3D

 17 18  0  0  0  0  0  0  0  0999 V2000
   11.2669   14.7072   19.4228 C   0  0  0  0  0  0  0  0  0  0  0  0
   12.1838   14.3722   20.3393 C   0  0  0  0  0  0  0  0  0  0  0  0
   12.0515   14.6396   21.7916 C   0  0  0  0  0  0  0  0  0  0  0  0
   11.2453   13.6034   22.3426 N   0  0  0  0  0  0  0  0  0  0  0  0
   10.6659   13.4355   23.7480 C   0  0  0  0  0  0  0  0  0  0  0  0
   10.8154   14.0768   24.7074 O   0  0  0  0  0  0  0  0  0  0  0  0
    9.8384   12.2251   23.8193 C   0  0  0  0  0  0  0  0  0  0  0  0
   10.0256   11.0500   23.1194 C   0  0  0  0  0  0  0  0  0  0  0  0
    9.2154   10.0851   23.6490 N   0  0  0  0  0  0  0  0  0  0  0  0
    9.2824    8.6891   23.2775 C   0  0  0  0  0  0  0  0  0  0  0  0
    8.3863   10.6405   24.5967 C   0  0  0  0  0  0  0  0  0  0  0  0
    7.3969   10.0711   25.4106 C   0  0  0  0  0  0  0  0  0  0  0  0
    6.7460   10.9010   26.3273 C   0  0  0  0  0  0  0  0  0  0  0  0
    5.6693   10.2058   27.4778 Cl  0  0  0  0  0  0  0  0  0  0  0  0
    7.0127   12.2623   26.3902 C   0  0  0  0  0  0  0  0  0  0  0  0
    7.9981   12.8202   25.5725 C   0  0  0  0  0  0  0  0  0  0  0  0
    8.7230   11.9958   24.6856 C   0  0  0  0  0  0  0  0  0  0  0  0
  1  2  2  0
  2  3  1  0
  3  4  1  0
  4  5  1  0
  5  6  2  0
  5  7  1  0
  7  8  2  0
  8  9  1  0
  9 10  1  0
  9 11  1  0
 11 12  2  0
 12 13  1  0
 13 14  1  0
 13 15  2  0
 15 16  1  0
 16 17  2  0
 17  7  1  0
 17 11  1  0
M  END
>  <alias>  (976) 
None

>  <rmsd(smina/fragmenstein)>  (976) 
0.823

>  <smiles>  (976) 
C=CCNC(=O)c1cn(C)c2cc(Cl)ccc12

>  <gnina_score>  (976) 
5.259

>  <inspiration_score>  (976) 
None

>  <energy_score>  (976) 
-10.469505

>  <distance_score>  (976) 
0.313755

>  <gnina_score_min>  (976) 
5.412

>  <inchikey>  (976) 
UUARSFOSUQIZPH-UHFFFAOYSA-N

>  <exports>  (976) 
['/opt/xchem-fragalysis-2/maxwin/BulkDock/OUTPUTS/openbind_a71ev2a_c2_elabs_1LOUU54.sdf', '/opt/xchem-fragalysis-2/maxwin/BulkDock/OUTPUTS/openbind_a71ev2a_c2_elabs_1LSYIDY.sdf']

>  <name>  (976) 
P576707

>  <ref_pdb>  (976) 
A3066a

>  <subsites>  (976) 
None

>  <HIPPO Pose ID>  (976) 
576707

>  <ref_mols>  (976) 
A3066a

>  <HIPPO Compound ID>  (976) 
349524

>  <tags>  (976) 
openbind_a71ev2a_c2_elabs,syndirella_product,openbind_a71ev2a_c2_elabs_fragonly_scored_top80percent,openbind_a71ev2a_c2_elabs_scored,BulkDock Fragalysis export,openbind_a71ev2a_c2_elabs_scored_top80percent,openbind_a71ev2a_c2_elabs_activefrags_only_scored_5.2plus,syndirella_placed

>  <smina_score_min>  (976) 
-7.283

$$$$
P576708
     RDKit          3D

 17 18  0  0  0  0  0  0  0  0999 V2000
    9.3012    8.5503   23.4506 C   0  0  0  0  0  0  0  0  0  0  0  0
    9.2120    9.9730   23.6820 N   0  0  0  0  0  0  0  0  0  0  0  0
   10.0101   10.8839   23.0503 C   0  0  0  0  0  0  0  0  0  0  0  0
    9.8398   12.1183   23.6429 C   0  0  0  0  0  0  0  0  0  0  0  0
   10.6331   13.3324   23.4089 C   0  0  0  0  0  0  0  0  0  0  0  0
   10.7055   14.1293   24.2503 O   0  0  0  0  0  0  0  0  0  0  0  0
   11.2139   13.3281   21.9962 N   0  0  0  0  0  0  0  0  0  0  0  0
   11.9278   14.3408   21.2814 C   0  0  0  0  0  0  0  0  0  0  0  0
   11.1165   14.8272   20.1562 C   0  0  0  0  0  0  0  0  0  0  0  0
   10.4979   15.2267   19.2568 N   0  0  0  0  0  0  0  0  0  0  0  0
    8.7558   11.9640   24.5690 C   0  0  0  0  0  0  0  0  0  0  0  0
    8.0635   12.8593   25.4134 C   0  0  0  0  0  0  0  0  0  0  0  0
    7.0838   12.3774   26.2859 C   0  0  0  0  0  0  0  0  0  0  0  0
    6.7850   11.0221   26.3160 C   0  0  0  0  0  0  0  0  0  0  0  0
    5.7088   10.4249   27.5207 Cl  0  0  0  0  0  0  0  0  0  0  0  0
    7.4047   10.1200   25.4479 C   0  0  0  0  0  0  0  0  0  0  0  0
    8.3977   10.6110   24.5876 C   0  0  0  0  0  0  0  0  0  0  0  0
  1  2  1  0
  2  3  1  0
  3  4  2  0
  4  5  1  0
  5  6  2  0
  5  7  1  0
  7  8  1  0
  8  9  1  0
  9 10  3  0
  4 11  1  0
 11 12  2  0
 12 13  1  0
 13 14  2  0
 14 15  1  0
 14 16  1  0
 16 17  2  0
 17  2  1  0
 17 11  1  0
M  END
>  <alias>  (977) 
None

>  <rmsd(smina/fragmenstein)>  (977) 
0.458

>  <smiles>  (977) 
Cn1cc(C(=O)NCC#N)c2ccc(Cl)cc21

>  <gnina_score>  (977) 
5.65

>  <inspiration_score>  (977) 
None

>  <energy_score>  (977) 
-2.299489

>  <distance_score>  (977) 
0.403417

>  <gnina_score_min>  (977) 
5.636

>  <inchikey>  (977) 
UZKQXGLHURYLGV-UHFFFAOYSA-N

>  <exports>  (977) 
['/opt/xchem-fragalysis-2/maxwin/BulkDock/OUTPUTS/openbind_a71ev2a_c2_elabs_1LOUU54.sdf', '/opt/xchem-fragalysis-2/maxwin/BulkDock/OUTPUTS/openbind_a71ev2a_c2_elabs_1LSYIDY.sdf']

>  <name>  (977) 
P576708

>  <ref_pdb>  (977) 
A3066a

>  <subsites>  (977) 
None

>  <HIPPO Pose ID>  (977) 
576708

>  <ref_mols>  (977) 
A3066a

>  <HIPPO Compound ID>  (977) 
349528

>  <tags>  (977) 
openbind_a71ev2a_c2_elabs,syndirella_product,openbind_a71ev2a_c2_elabs_fragonly_scored_top80percent,BulkDock Fragalysis export,openbind_a71ev2a_c2_elabs_scored,openbind_a71ev2a_c2_elabs_scored_top80percent,openbind_a71ev2a_c2_elabs_activefrags_only_scored_5.2plus,openbind_a71ev2a_c2_elabs_activefrags_only_scored_5.5plus,syndirella_placed

>  <smina_score_min>  (977) 
-7.12

$$$$
P576709
     RDKit          3D

 17 18  0  0  0  0  0  0  0  0999 V2000
    9.4365   16.1072   20.3345 C   0  0  0  0  0  0  0  0  0  0  0  0
   10.3539   15.4341   20.7181 C   0  0  0  0  0  0  0  0  0  0  0  0
   11.4692   14.6492   21.2540 C   0  0  0  0  0  0  0  0  0  0  0  0
   10.9146   13.5513   21.9676 N   0  0  0  0  0  0  0  0  0  0  0  0
   10.5795   13.3975   23.4528 C   0  0  0  0  0  0  0  0  0  0  0  0
   10.7732   14.1149   24.3483 O   0  0  0  0  0  0  0  0  0  0  0  0
    9.8296   12.1592   23.6755 C   0  0  0  0  0  0  0  0  0  0  0  0
   10.0251   10.9468   23.0494 C   0  0  0  0  0  0  0  0  0  0  0  0
    9.2357   10.0062   23.6472 N   0  0  0  0  0  0  0  0  0  0  0  0
    9.3050    8.5958   23.3422 C   0  0  0  0  0  0  0  0  0  0  0  0
    8.4176   10.6044   24.5783 C   0  0  0  0  0  0  0  0  0  0  0  0
    7.4304   10.0752   25.4215 C   0  0  0  0  0  0  0  0  0  0  0  0
    6.7883   10.9465   26.3053 C   0  0  0  0  0  0  0  0  0  0  0  0
    5.7087   10.3049   27.4843 Cl  0  0  0  0  0  0  0  0  0  0  0  0
    7.0626   12.3078   26.3092 C   0  0  0  0  0  0  0  0  0  0  0  0
    8.0398   12.8268   25.4562 C   0  0  0  0  0  0  0  0  0  0  0  0
    8.7534   11.9624   24.5981 C   0  0  0  0  0  0  0  0  0  0  0  0
  1  2  3  0
  2  3  1  0
  3  4  1  0
  4  5  1  0
  5  6  2  0
  5  7  1  0
  7  8  2  0
  8  9  1  0
  9 10  1  0
  9 11  1  0
 11 12  2  0
 12 13  1  0
 13 14  1  0
 13 15  2  0
 15 16  1  0
 16 17  2  0
 17  7  1  0
 17 11  1  0
M  END
>  <alias>  (978) 
None

>  <rmsd(smina/fragmenstein)>  (978) 
0.268

>  <smiles>  (978) 
C#CCNC(=O)c1cn(C)c2cc(Cl)ccc12

>  <gnina_score>  (978) 
5.476

>  <inspiration_score>  (978) 
None

>  <energy_score>  (978) 
-0.524141

>  <distance_score>  (978) 
0.462311

>  <gnina_score_min>  (978) 
5.468

>  <inchikey>  (978) 
AISZDQKKOPZMLZ-UHFFFAOYSA-N

>  <exports>  (978) 
['/opt/xchem-fragalysis-2/maxwin/BulkDock/OUTPUTS/openbind_a71ev2a_c2_elabs_1LOUU54.sdf', '/opt/xchem-fragalysis-2/maxwin/BulkDock/OUTPUTS/openbind_a71ev2a_c2_elabs_1LSYIDY.sdf']

>  <name>  (978) 
P576709

>  <ref_pdb>  (978) 
A3066a

>  <subsites>  (978) 
None

>  <HIPPO Pose ID>  (978) 
576709

>  <ref_mols>  (978) 
A3066a

>  <HIPPO Compound ID>  (978) 
349529

>  <tags>  (978) 
openbind_a71ev2a_c2_elabs,syndirella_product,openbind_a71ev2a_c2_elabs_fragonly_scored_top80percent,openbind_a71ev2a_c2_elabs_scored,BulkDock Fragalysis export,openbind_a71ev2a_c2_elabs_scored_top80percent,openbind_a71ev2a_c2_elabs_activefrags_only_scored_5.2plus,syndirella_placed

>  <smina_score_min>  (978) 
-7.29

$$$$
P576710
     RDKit          3D

 17 18  0  0  0  0  0  0  0  0999 V2000
   11.0395   14.7581   20.0952 C   0  0  0  0  0  0  0  0  0  0  0  0
   12.3457   14.3849   20.7888 C   0  0  0  0  0  0  0  0  0  0  0  0
   12.2307   14.4197   22.2929 C   0  0  0  0  0  0  0  0  0  0  0  0
   11.2523   13.4857   22.7324 N   0  0  0  0  0  0  0  0  0  0  0  0
   10.5494   13.3459   24.0776 C   0  0  0  0  0  0  0  0  0  0  0  0
   10.5958   14.0165   25.0257 O   0  0  0  0  0  0  0  0  0  0  0  0
    9.7088   12.1494   24.0603 C   0  0  0  0  0  0  0  0  0  0  0  0
    9.9172   11.0011   23.3196 C   0  0  0  0  0  0  0  0  0  0  0  0
    9.0819   10.0267   23.7869 N   0  0  0  0  0  0  0  0  0  0  0  0
    9.1779    8.6423   23.3846 C   0  0  0  0  0  0  0  0  0  0  0  0
    8.2307   10.5550   24.7312 C   0  0  0  0  0  0  0  0  0  0  0  0
    7.2260    9.9696   25.5118 C   0  0  0  0  0  0  0  0  0  0  0  0
    6.5719   10.7705   26.4526 C   0  0  0  0  0  0  0  0  0  0  0  0
    5.5033   10.0408   27.5909 Cl  0  0  0  0  0  0  0  0  0  0  0  0
    6.8315   12.1300   26.5540 C   0  0  0  0  0  0  0  0  0  0  0  0
    7.8210   12.7096   25.7610 C   0  0  0  0  0  0  0  0  0  0  0  0
    8.5629   11.9054   24.8702 C   0  0  0  0  0  0  0  0  0  0  0  0
  1  2  1  0
  2  3  1  0
  3  4  1  0
  4  5  1  0
  5  6  2  0
  5  7  1  0
  7  8  2  0
  8  9  1  0
  9 10  1  0
  9 11  1  0
 11 12  2  0
 12 13  1  0
 13 14  1  0
 13 15  2  0
 15 16  1  0
 16 17  2  0
 17  7  1  0
 17 11  1  0
M  END
>  <alias>  (979) 
None

>  <rmsd(smina/fragmenstein)>  (979) 
0.311

>  <smiles>  (979) 
CCCNC(=O)c1cn(C)c2cc(Cl)ccc12

>  <gnina_score>  (979) 
5.293

>  <inspiration_score>  (979) 
None

>  <energy_score>  (979) 
-0.991942

>  <distance_score>  (979) 
0.492155

>  <gnina_score_min>  (979) 
5.363

>  <inchikey>  (979) 
XEOFZAIZUGVACT-UHFFFAOYSA-N

>  <exports>  (979) 
['/opt/xchem-fragalysis-2/maxwin/BulkDock/OUTPUTS/openbind_a71ev2a_c2_elabs_1LOUU54.sdf', '/opt/xchem-fragalysis-2/maxwin/BulkDock/OUTPUTS/openbind_a71ev2a_c2_elabs_1LSYIDY.sdf']

>  <name>  (979) 
P576710

>  <ref_pdb>  (979) 
A3066a

>  <subsites>  (979) 
None

>  <HIPPO Pose ID>  (979) 
576710

>  <ref_mols>  (979) 
A3066a

>  <HIPPO Compound ID>  (979) 
349530

>  <tags>  (979) 
openbind_a71ev2a_c2_elabs,syndirella_product,openbind_a71ev2a_c2_elabs_fragonly_scored_top80percent,openbind_a71ev2a_c2_elabs_scored,BulkDock Fragalysis export,openbind_a71ev2a_c2_elabs_scored_top80percent,openbind_a71ev2a_c2_elabs_activefrags_only_scored_5.2plus,syndirella_placed

>  <smina_score_min>  (979) 
-6.909

$$$$
P576711
     RDKit          3D

 17 19  0  0  0  0  0  0  0  0999 V2000
    9.2890    8.5825   23.3758 C   0  0  0  0  0  0  0  0  0  0  0  0
    9.1725    9.9855   23.7023 N   0  0  0  0  0  0  0  0  0  0  0  0
    9.9443   10.9558   23.1307 C   0  0  0  0  0  0  0  0  0  0  0  0
    9.6881   12.1549   23.7622 C   0  0  0  0  0  0  0  0  0  0  0  0
   10.3911   13.4148   23.5473 C   0  0  0  0  0  0  0  0  0  0  0  0
   10.5432   14.1556   24.4335 O   0  0  0  0  0  0  0  0  0  0  0  0
   10.7470   13.5549   22.0599 N   0  0  0  0  0  0  0  0  0  0  0  0
   11.4312   14.5669   21.3813 C   0  0  0  0  0  0  0  0  0  0  0  0
   12.8747   14.8381   21.6307 C   0  0  0  0  0  0  0  0  0  0  0  0
   12.4592   14.1488   20.3719 C   0  0  0  0  0  0  0  0  0  0  0  0
    8.6251   11.9142   24.6813 C   0  0  0  0  0  0  0  0  0  0  0  0
    7.8930   12.7453   25.5560 C   0  0  0  0  0  0  0  0  0  0  0  0
    6.9324   12.1867   26.4009 C   0  0  0  0  0  0  0  0  0  0  0  0
    6.6901   10.8204   26.3673 C   0  0  0  0  0  0  0  0  0  0  0  0
    5.6239   10.1293   27.5306 Cl  0  0  0  0  0  0  0  0  0  0  0  0
    7.3525    9.9840   25.4645 C   0  0  0  0  0  0  0  0  0  0  0  0
    8.3305   10.5485   24.6357 C   0  0  0  0  0  0  0  0  0  0  0  0
  1  2  1  0
  2  3  1  0
  3  4  2  0
  4  5  1  0
  5  6  2  0
  5  7  1  0
  7  8  1  0
  8  9  1  0
  9 10  1  0
  4 11  1  0
 11 12  2  0
 12 13  1  0
 13 14  2  0
 14 15  1  0
 14 16  1  0
 16 17  2  0
 17  2  1  0
 10  8  1  0
 17 11  1  0
M  END
>  <alias>  (980) 
None

>  <rmsd(smina/fragmenstein)>  (980) 
0.277

>  <smiles>  (980) 
Cn1cc(C(=O)NC2CC2)c2ccc(Cl)cc21

>  <gnina_score>  (980) 
5.339

>  <inspiration_score>  (980) 
None

>  <energy_score>  (980) 
-12.681851

>  <distance_score>  (980) 
0.524052

>  <gnina_score_min>  (980) 
5.382

>  <inchikey>  (980) 
DQMHZNUNUOAPDN-UHFFFAOYSA-N

>  <exports>  (980) 
['/opt/xchem-fragalysis-2/maxwin/BulkDock/OUTPUTS/openbind_a71ev2a_c2_elabs_1LOUU54.sdf', '/opt/xchem-fragalysis-2/maxwin/BulkDock/OUTPUTS/openbind_a71ev2a_c2_elabs_1LSYIDY.sdf']

>  <name>  (980) 
P576711

>  <ref_pdb>  (980) 
A3066a

>  <subsites>  (980) 
None

>  <HIPPO Pose ID>  (980) 
576711

>  <ref_mols>  (980) 
A3066a

>  <HIPPO Compound ID>  (980) 
349532

>  <tags>  (980) 
openbind_a71ev2a_c2_elabs,syndirella_product,openbind_a71ev2a_c2_elabs_fragonly_scored_top80percent,openbind_a71ev2a_c2_elabs_scored,BulkDock Fragalysis export,openbind_a71ev2a_c2_elabs_scored_top80percent,openbind_a71ev2a_c2_elabs_activefrags_only_scored_5.2plus,syndirella_placed

>  <smina_score_min>  (980) 
-7.252

$$$$
P576712
     RDKit          3D

 17 19  0  0  0  0  0  0  0  0999 V2000
    8.8881    8.7751   23.7289 C   0  0  0  0  0  0  0  0  0  0  0  0
    8.9227   10.1961   23.9907 N   0  0  0  0  0  0  0  0  0  0  0  0
    9.9017   10.9844   23.4479 C   0  0  0  0  0  0  0  0  0  0  0  0
    9.8876   12.1963   24.1029 C   0  0  0  0  0  0  0  0  0  0  0  0
   10.8852   13.2502   24.0417 C   0  0  0  0  0  0  0  0  0  0  0  0
   11.0152   13.9851   24.9344 O   0  0  0  0  0  0  0  0  0  0  0  0
   11.5701   13.2179   22.6780 N   0  0  0  0  0  0  0  0  0  0  0  0
   12.4608   14.1020   22.0987 C   0  0  0  0  0  0  0  0  0  0  0  0
   11.8609   15.3625   21.5857 C   0  0  0  0  0  0  0  0  0  0  0  0
   12.4841   14.3820   20.6393 C   0  0  0  0  0  0  0  0  0  0  0  0
    8.7144   12.2208   24.8994 C   0  0  0  0  0  0  0  0  0  0  0  0
    8.1249   13.2308   25.6938 C   0  0  0  0  0  0  0  0  0  0  0  0
    7.0007   12.9576   26.4603 C   0  0  0  0  0  0  0  0  0  0  0  0
    6.4504   11.6925   26.4258 C   0  0  0  0  0  0  0  0  0  0  0  0
    6.9914   10.6916   25.6115 C   0  0  0  0  0  0  0  0  0  0  0  0
    6.1517    9.2253   25.5735 Cl  0  0  0  0  0  0  0  0  0  0  0  0
    8.1386   10.9463   24.8471 C   0  0  0  0  0  0  0  0  0  0  0  0
  1  2  1  0
  2  3  1  0
  3  4  2  0
  4  5  1  0
  5  6  2  0
  5  7  1  0
  7  8  1  0
  8  9  1  0
  9 10  1  0
  4 11  1  0
 11 12  2  0
 12 13  1  0
 13 14  2  0
 14 15  1  0
 15 16  1  0
 15 17  2  0
 17  2  1  0
 10  8  1  0
 17 11  1  0
M  END
>  <alias>  (981) 
None

>  <rmsd(smina/fragmenstein)>  (981) 
1.309

>  <smiles>  (981) 
Cn1cc(C(=O)NC2CC2)c2cccc(Cl)c21

>  <gnina_score>  (981) 
5.138

>  <inspiration_score>  (981) 
None

>  <energy_score>  (981) 
-1.498293

>  <distance_score>  (981) 
0.685988

>  <gnina_score_min>  (981) 
5.273

>  <inchikey>  (981) 
SBEZUAJXWLOHFK-UHFFFAOYSA-N

>  <exports>  (981) 
['/opt/xchem-fragalysis-2/maxwin/BulkDock/OUTPUTS/openbind_a71ev2a_c2_elabs_1LOUU54.sdf', '/opt/xchem-fragalysis-2/maxwin/BulkDock/OUTPUTS/openbind_a71ev2a_c2_elabs_1LSYIDY.sdf']

>  <name>  (981) 
P576712

>  <ref_pdb>  (981) 
A3066a

>  <subsites>  (981) 
None

>  <HIPPO Pose ID>  (981) 
576712

>  <ref_mols>  (981) 
A3066a

>  <HIPPO Compound ID>  (981) 
349537

>  <tags>  (981) 
openbind_a71ev2a_c2_elabs,syndirella_product,openbind_a71ev2a_c2_elabs_fragonly_scored_top80percent,openbind_a71ev2a_c2_elabs_scored,BulkDock Fragalysis export,openbind_a71ev2a_c2_elabs_scored_top80percent,openbind_a71ev2a_c2_elabs_activefrags_only_scored_5.2plus,syndirella_placed

>  <smina_score_min>  (981) 
-6.966

$$$$
P576714
     RDKit          3D

 17 18  0  0  0  0  0  0  0  0999 V2000
   10.1004    7.8851   23.7332 C   0  0  0  0  0  0  0  0  0  0  0  0
    9.2431    8.8014   22.9299 C   0  0  0  0  0  0  0  0  0  0  0  0
    9.1991   10.1198   23.5266 N   0  0  0  0  0  0  0  0  0  0  0  0
   10.0184   11.1182   23.1074 C   0  0  0  0  0  0  0  0  0  0  0  0
    9.7298   12.2579   23.8216 C   0  0  0  0  0  0  0  0  0  0  0  0
   10.4225   13.5194   23.6439 C   0  0  0  0  0  0  0  0  0  0  0  0
   10.6884   14.2002   24.5489 O   0  0  0  0  0  0  0  0  0  0  0  0
   10.6805   13.7119   22.1464 N   0  0  0  0  0  0  0  0  0  0  0  0
   11.2340   14.8215   21.4336 C   0  0  0  0  0  0  0  0  0  0  0  0
   12.7284   14.5906   21.3372 C   0  0  0  0  0  0  0  0  0  0  0  0
   10.5241   14.9472   20.0910 C   0  0  0  0  0  0  0  0  0  0  0  0
    8.6609   11.9364   24.7025 C   0  0  0  0  0  0  0  0  0  0  0  0
    7.8986   12.6826   25.6240 C   0  0  0  0  0  0  0  0  0  0  0  0
    6.8971   12.0509   26.3653 C   0  0  0  0  0  0  0  0  0  0  0  0
    6.6536   10.6923   26.2035 C   0  0  0  0  0  0  0  0  0  0  0  0
    7.3841    9.9381   25.2826 C   0  0  0  0  0  0  0  0  0  0  0  0
    8.3712   10.5786   24.5253 C   0  0  0  0  0  0  0  0  0  0  0  0
  1  2  1  0
  2  3  1  0
  3  4  1  0
  4  5  2  0
  5  6  1  0
  6  7  2  0
  6  8  1  0
  8  9  1  0
  9 10  1  0
  9 11  1  0
  5 12  1  0
 12 13  2  0
 13 14  1  0
 14 15  2  0
 15 16  1  0
 16 17  2  0
 17  3  1  0
 17 12  1  0
M  END
>  <alias>  (982) 
None

>  <rmsd(smina/fragmenstein)>  (982) 
0.466

>  <smiles>  (982) 
CCn1cc(C(=O)NC(C)C)c2ccccc21

>  <gnina_score>  (982) 
5.345

>  <inspiration_score>  (982) 
None

>  <energy_score>  (982) 
-7.16816

>  <distance_score>  (982) 
0.544408

>  <gnina_score_min>  (982) 
5.304

>  <inchikey>  (982) 
YFEGYONTZDOPJC-UHFFFAOYSA-N

>  <exports>  (982) 
['/opt/xchem-fragalysis-2/maxwin/BulkDock/OUTPUTS/openbind_a71ev2a_c2_elabs_1LOUU54.sdf', '/opt/xchem-fragalysis-2/maxwin/BulkDock/OUTPUTS/openbind_a71ev2a_c2_elabs_1LSYIDY.sdf']

>  <name>  (982) 
P576714

>  <ref_pdb>  (982) 
A3066a

>  <subsites>  (982) 
None

>  <HIPPO Pose ID>  (982) 
576714

>  <ref_mols>  (982) 
A3066a

>  <HIPPO Compound ID>  (982) 
349543

>  <tags>  (982) 
openbind_a71ev2a_c2_elabs,syndirella_product,openbind_a71ev2a_c2_elabs_fragonly_scored_top80percent,openbind_a71ev2a_c2_elabs_scored,BulkDock Fragalysis export,openbind_a71ev2a_c2_elabs_scored_top80percent,openbind_a71ev2a_c2_elabs_activefrags_only_scored_5.2plus,syndirella_placed

>  <smina_score_min>  (982) 
-6.807

$$$$
P576716
     RDKit          3D

 17 18  0  0  0  0  0  0  0  0999 V2000
    9.7611   15.5533   20.2915 C   0  0  0  0  0  0  0  0  0  0  0  0
   11.0151   14.8158   19.8409 C   0  0  0  0  0  0  0  0  0  0  0  0
   11.9491   14.4536   20.9974 C   0  0  0  0  0  0  0  0  0  0  0  0
   11.3028   13.4868   21.8352 N   0  0  0  0  0  0  0  0  0  0  0  0
   10.9262   13.5481   23.3183 C   0  0  0  0  0  0  0  0  0  0  0  0
   11.1479   14.3620   24.1203 O   0  0  0  0  0  0  0  0  0  0  0  0
   10.0746   12.3990   23.6621 C   0  0  0  0  0  0  0  0  0  0  0  0
   10.1070   11.1304   23.1218 C   0  0  0  0  0  0  0  0  0  0  0  0
    9.2041   10.3332   23.7759 N   0  0  0  0  0  0  0  0  0  0  0  0
    9.1397    8.9015   23.5651 C   0  0  0  0  0  0  0  0  0  0  0  0
    8.4469   11.1025   24.6373 C   0  0  0  0  0  0  0  0  0  0  0  0
    7.3346   10.8401   25.4544 C   0  0  0  0  0  0  0  0  0  0  0  0
    6.5550    9.3366   25.5147 Cl  0  0  0  0  0  0  0  0  0  0  0  0
    6.7853   11.8582   26.2375 C   0  0  0  0  0  0  0  0  0  0  0  0
    7.3138   13.1340   26.2080 C   0  0  0  0  0  0  0  0  0  0  0  0
    8.4088   13.4079   25.3924 C   0  0  0  0  0  0  0  0  0  0  0  0
    8.9926   12.3947   24.5980 C   0  0  0  0  0  0  0  0  0  0  0  0
  1  2  1  0
  2  3  1  0
  3  4  1  0
  4  5  1  0
  5  6  2  0
  5  7  1  0
  7  8  2  0
  8  9  1  0
  9 10  1  0
  9 11  1  0
 11 12  2  0
 12 13  1  0
 12 14  1  0
 14 15  2  0
 15 16  1  0
 16 17  2  0
 17  7  1  0
 17 11  1  0
M  END
>  <alias>  (983) 
None

>  <rmsd(smina/fragmenstein)>  (983) 
0.792

>  <smiles>  (983) 
CCCNC(=O)c1cn(C)c2c(Cl)cccc12

>  <gnina_score>  (983) 
5.488

>  <inspiration_score>  (983) 
None

>  <energy_score>  (983) 
-5.04373

>  <distance_score>  (983) 
0.719842

>  <gnina_score_min>  (983) 
5.32

>  <inchikey>  (983) 
CYSLMNBRVQAIJW-UHFFFAOYSA-N

>  <exports>  (983) 
['/opt/xchem-fragalysis-2/maxwin/BulkDock/OUTPUTS/openbind_a71ev2a_c2_elabs_1LOUU54.sdf', '/opt/xchem-fragalysis-2/maxwin/BulkDock/OUTPUTS/openbind_a71ev2a_c2_elabs_1LSYIDY.sdf']

>  <name>  (983) 
P576716

>  <ref_pdb>  (983) 
A3066a

>  <subsites>  (983) 
None

>  <HIPPO Pose ID>  (983) 
576716

>  <ref_mols>  (983) 
A3066a

>  <HIPPO Compound ID>  (983) 
349545

>  <tags>  (983) 
openbind_a71ev2a_c2_elabs,syndirella_product,openbind_a71ev2a_c2_elabs_fragonly_scored_top80percent,openbind_a71ev2a_c2_elabs_scored,BulkDock Fragalysis export,openbind_a71ev2a_c2_elabs_scored_top80percent,openbind_a71ev2a_c2_elabs_activefrags_only_scored_5.2plus,syndirella_placed

>  <smina_score_min>  (983) 
-7.121

$$$$
P576717
     RDKit          3D

 17 18  0  0  0  0  0  0  0  0999 V2000
   10.9369   14.8823   20.2687 C   0  0  0  0  0  0  0  0  0  0  0  0
   11.9738   14.1317   21.0931 C   0  0  0  0  0  0  0  0  0  0  0  0
   12.8753   15.0313   21.8938 C   0  0  0  0  0  0  0  0  0  0  0  0
   11.2694   13.2208   21.9438 N   0  0  0  0  0  0  0  0  0  0  0  0
   10.8349   13.3575   23.4062 C   0  0  0  0  0  0  0  0  0  0  0  0
   11.0456   14.2010   24.1810 O   0  0  0  0  0  0  0  0  0  0  0  0
    9.9572   12.2425   23.7545 C   0  0  0  0  0  0  0  0  0  0  0  0
    9.9829   10.9637   23.2422 C   0  0  0  0  0  0  0  0  0  0  0  0
    9.0500   10.2034   23.8929 N   0  0  0  0  0  0  0  0  0  0  0  0
    8.9795    8.7735   23.6915 C   0  0  0  0  0  0  0  0  0  0  0  0
    8.3013   11.0019   24.7345 C   0  0  0  0  0  0  0  0  0  0  0  0
    7.1755   10.7849   25.5446 C   0  0  0  0  0  0  0  0  0  0  0  0
    6.3300    9.3183   25.5975 Cl  0  0  0  0  0  0  0  0  0  0  0  0
    6.6565   11.8274   26.3178 C   0  0  0  0  0  0  0  0  0  0  0  0
    7.2165   13.0892   26.2737 C   0  0  0  0  0  0  0  0  0  0  0  0
    8.3137   13.3245   25.4520 C   0  0  0  0  0  0  0  0  0  0  0  0
    8.8728   12.2814   24.6789 C   0  0  0  0  0  0  0  0  0  0  0  0
  1  2  1  0
  2  3  1  0
  2  4  1  0
  4  5  1  0
  5  6  2  0
  5  7  1  0
  7  8  2  0
  8  9  1  0
  9 10  1  0
  9 11  1  0
 11 12  2  0
 12 13  1  0
 12 14  1  0
 14 15  2  0
 15 16  1  0
 16 17  2  0
 17  7  1  0
 17 11  1  0
M  END
>  <alias>  (984) 
None

>  <rmsd(smina/fragmenstein)>  (984) 
0.511

>  <smiles>  (984) 
CC(C)NC(=O)c1cn(C)c2c(Cl)cccc12

>  <gnina_score>  (984) 
5.345

>  <inspiration_score>  (984) 
None

>  <energy_score>  (984) 
-8.611074

>  <distance_score>  (984) 
0.701111

>  <gnina_score_min>  (984) 
5.371

>  <inchikey>  (984) 
GZVFTSXXPBLBEU-UHFFFAOYSA-N

>  <exports>  (984) 
['/opt/xchem-fragalysis-2/maxwin/BulkDock/OUTPUTS/openbind_a71ev2a_c2_elabs_1LOUU54.sdf', '/opt/xchem-fragalysis-2/maxwin/BulkDock/OUTPUTS/openbind_a71ev2a_c2_elabs_1LSYIDY.sdf']

>  <name>  (984) 
P576717

>  <ref_pdb>  (984) 
A3066a

>  <subsites>  (984) 
None

>  <HIPPO Pose ID>  (984) 
576717

>  <ref_mols>  (984) 
A3066a

>  <HIPPO Compound ID>  (984) 
349547

>  <tags>  (984) 
openbind_a71ev2a_c2_elabs,syndirella_product,openbind_a71ev2a_c2_elabs_fragonly_scored_top80percent,openbind_a71ev2a_c2_elabs_scored,BulkDock Fragalysis export,openbind_a71ev2a_c2_elabs_scored_top80percent,openbind_a71ev2a_c2_elabs_activefrags_only_scored_5.2plus,syndirella_placed

>  <smina_score_min>  (984) 
-6.808

$$$$
P576718
     RDKit          3D

 17 18  0  0  0  0  0  0  0  0999 V2000
   11.2955   14.6973   19.4333 C   0  0  0  0  0  0  0  0  0  0  0  0
   12.2776   14.3515   20.2754 C   0  0  0  0  0  0  0  0  0  0  0  0
   12.2796   14.6335   21.7306 C   0  0  0  0  0  0  0  0  0  0  0  0
   11.3868   13.7083   22.3362 N   0  0  0  0  0  0  0  0  0  0  0  0
   11.0006   13.5162   23.7966 C   0  0  0  0  0  0  0  0  0  0  0  0
   11.2885   14.1306   24.7393 O   0  0  0  0  0  0  0  0  0  0  0  0
   10.0436   12.4172   23.9119 C   0  0  0  0  0  0  0  0  0  0  0  0
   10.0665   11.2068   23.2515 C   0  0  0  0  0  0  0  0  0  0  0  0
    9.1381   10.3767   23.8283 N   0  0  0  0  0  0  0  0  0  0  0  0
    9.1091    8.9505   23.5716 C   0  0  0  0  0  0  0  0  0  0  0  0
    8.3527   11.1009   24.7073 C   0  0  0  0  0  0  0  0  0  0  0  0
    7.2290   10.8011   25.4934 C   0  0  0  0  0  0  0  0  0  0  0  0
    6.4632    9.2911   25.4879 Cl  0  0  0  0  0  0  0  0  0  0  0  0
    6.6622   11.7831   26.3117 C   0  0  0  0  0  0  0  0  0  0  0  0
    7.1851   13.0611   26.3510 C   0  0  0  0  0  0  0  0  0  0  0  0
    8.3007   13.3706   25.5805 C   0  0  0  0  0  0  0  0  0  0  0  0
    8.9004   12.3900   24.7585 C   0  0  0  0  0  0  0  0  0  0  0  0
  1  2  2  0
  2  3  1  0
  3  4  1  0
  4  5  1  0
  5  6  2  0
  5  7  1  0
  7  8  2  0
  8  9  1  0
  9 10  1  0
  9 11  1  0
 11 12  2  0
 12 13  1  0
 12 14  1  0
 14 15  2  0
 15 16  1  0
 16 17  2  0
 17  7  1  0
 17 11  1  0
M  END
>  <alias>  (985) 
None

>  <rmsd(smina/fragmenstein)>  (985) 
0.991

>  <smiles>  (985) 
C=CCNC(=O)c1cn(C)c2c(Cl)cccc12

>  <gnina_score>  (985) 
5.152

>  <inspiration_score>  (985) 
None

>  <energy_score>  (985) 
-0.610395

>  <distance_score>  (985) 
0.639455

>  <gnina_score_min>  (985) 
5.338

>  <inchikey>  (985) 
KGRJSJYSVKTAGQ-UHFFFAOYSA-N

>  <exports>  (985) 
['/opt/xchem-fragalysis-2/maxwin/BulkDock/OUTPUTS/openbind_a71ev2a_c2_elabs_1LOUU54.sdf', '/opt/xchem-fragalysis-2/maxwin/BulkDock/OUTPUTS/openbind_a71ev2a_c2_elabs_1LSYIDY.sdf']

>  <name>  (985) 
P576718

>  <ref_pdb>  (985) 
A3066a

>  <subsites>  (985) 
None

>  <HIPPO Pose ID>  (985) 
576718

>  <ref_mols>  (985) 
A3066a

>  <HIPPO Compound ID>  (985) 
349548

>  <tags>  (985) 
openbind_a71ev2a_c2_elabs,syndirella_product,openbind_a71ev2a_c2_elabs_fragonly_scored_top80percent,openbind_a71ev2a_c2_elabs_scored,BulkDock Fragalysis export,openbind_a71ev2a_c2_elabs_scored_top80percent,openbind_a71ev2a_c2_elabs_activefrags_only_scored_5.2plus,syndirella_placed

>  <smina_score_min>  (985) 
-6.968

$$$$
P576719
     RDKit          3D

 17 18  0  0  0  0  0  0  0  0999 V2000
    9.0498    8.9112   23.6247 C   0  0  0  0  0  0  0  0  0  0  0  0
    9.0383   10.3391   23.8704 N   0  0  0  0  0  0  0  0  0  0  0  0
    9.9183   11.1909   23.2525 C   0  0  0  0  0  0  0  0  0  0  0  0
    9.8125   12.4283   23.8479 C   0  0  0  0  0  0  0  0  0  0  0  0
   10.6249   13.6001   23.5892 C   0  0  0  0  0  0  0  0  0  0  0  0
   11.0187   14.2464   24.4724 O   0  0  0  0  0  0  0  0  0  0  0  0
   10.7351   13.8118   22.0797 N   0  0  0  0  0  0  0  0  0  0  0  0
   11.4310   14.8087   21.3307 C   0  0  0  0  0  0  0  0  0  0  0  0
   12.9128   14.5444   21.4237 C   0  0  0  0  0  0  0  0  0  0  0  0
   13.2756   14.4274   22.7302 F   0  0  0  0  0  0  0  0  0  0  0  0
    8.7470   12.3586   24.7785 C   0  0  0  0  0  0  0  0  0  0  0  0
    8.1537   13.3283   25.6178 C   0  0  0  0  0  0  0  0  0  0  0  0
    7.0838   12.9905   26.4371 C   0  0  0  0  0  0  0  0  0  0  0  0
    6.5865   11.7028   26.4064 C   0  0  0  0  0  0  0  0  0  0  0  0
    7.1448   10.7364   25.5631 C   0  0  0  0  0  0  0  0  0  0  0  0
    6.3628    9.2402   25.5185 Cl  0  0  0  0  0  0  0  0  0  0  0  0
    8.2498   11.0508   24.7594 C   0  0  0  0  0  0  0  0  0  0  0  0
  1  2  1  0
  2  3  1  0
  3  4  2  0
  4  5  1  0
  5  6  2  0
  5  7  1  0
  7  8  1  0
  8  9  1  0
  9 10  1  0
  4 11  1  0
 11 12  2  0
 12 13  1  0
 13 14  2  0
 14 15  1  0
 15 16  1  0
 15 17  2  0
 17  2  1  0
 17 11  1  0
M  END
>  <alias>  (986) 
None

>  <rmsd(smina/fragmenstein)>  (986) 
0.597

>  <smiles>  (986) 
Cn1cc(C(=O)NCCF)c2cccc(Cl)c21

>  <gnina_score>  (986) 
5.242

>  <inspiration_score>  (986) 
None

>  <energy_score>  (986) 
-2.24467

>  <distance_score>  (986) 
0.752991

>  <gnina_score_min>  (986) 
5.243

>  <inchikey>  (986) 
VFMNXBDBQLLAFB-UHFFFAOYSA-N

>  <exports>  (986) 
['/opt/xchem-fragalysis-2/maxwin/BulkDock/OUTPUTS/openbind_a71ev2a_c2_elabs_1LOUU54.sdf', '/opt/xchem-fragalysis-2/maxwin/BulkDock/OUTPUTS/openbind_a71ev2a_c2_elabs_1LSYIDY.sdf']

>  <name>  (986) 
P576719

>  <ref_pdb>  (986) 
A3066a

>  <subsites>  (986) 
None

>  <HIPPO Pose ID>  (986) 
576719

>  <ref_mols>  (986) 
A3066a

>  <HIPPO Compound ID>  (986) 
349549

>  <tags>  (986) 
openbind_a71ev2a_c2_elabs,syndirella_product,openbind_a71ev2a_c2_elabs_fragonly_scored_top80percent,openbind_a71ev2a_c2_elabs_scored,BulkDock Fragalysis export,openbind_a71ev2a_c2_elabs_scored_top80percent,openbind_a71ev2a_c2_elabs_activefrags_only_scored_5.2plus,syndirella_placed

>  <smina_score_min>  (986) 
-6.554

$$$$
P576725
     RDKit          3D

 17 18  0  0  0  0  0  0  0  0999 V2000
   10.0451   15.6258   19.8675 C   0  0  0  0  0  0  0  0  0  0  0  0
   10.9532   15.0352   20.3846 C   0  0  0  0  0  0  0  0  0  0  0  0
   12.0318   14.3336   21.0856 C   0  0  0  0  0  0  0  0  0  0  0  0
   11.3613   13.3987   21.9175 N   0  0  0  0  0  0  0  0  0  0  0  0
   11.0316   13.4533   23.4056 C   0  0  0  0  0  0  0  0  0  0  0  0
   11.3213   14.2373   24.2142 O   0  0  0  0  0  0  0  0  0  0  0  0
   10.1292   12.3499   23.7460 C   0  0  0  0  0  0  0  0  0  0  0  0
   10.0856   11.0829   23.2074 C   0  0  0  0  0  0  0  0  0  0  0  0
    9.1407   10.3433   23.8740 N   0  0  0  0  0  0  0  0  0  0  0  0
    9.0293    8.9127   23.6805 C   0  0  0  0  0  0  0  0  0  0  0  0
    8.4200   11.1651   24.7216 C   0  0  0  0  0  0  0  0  0  0  0  0
    7.2934   10.9982   25.5461 C   0  0  0  0  0  0  0  0  0  0  0  0
    6.3147    9.4296   25.7062 Br  0  0  0  0  0  0  0  0  0  0  0  0
    6.7997   12.0726   26.2956 C   0  0  0  0  0  0  0  0  0  0  0  0
    7.3976   13.3124   26.2354 C   0  0  0  0  0  0  0  0  0  0  0  0
    8.5108   13.4905   25.4249 C   0  0  0  0  0  0  0  0  0  0  0  0
    9.0382   12.4235   24.6627 C   0  0  0  0  0  0  0  0  0  0  0  0
  1  2  3  0
  2  3  1  0
  3  4  1  0
  4  5  1  0
  5  6  2  0
  5  7  1  0
  7  8  2  0
  8  9  1  0
  9 10  1  0
  9 11  1  0
 11 12  2  0
 12 13  1  0
 12 14  1  0
 14 15  2  0
 15 16  1  0
 16 17  2  0
 17  7  1  0
 17 11  1  0
M  END
>  <alias>  (987) 
None

>  <rmsd(smina/fragmenstein)>  (987) 
0.86

>  <smiles>  (987) 
C#CCNC(=O)c1cn(C)c2c(Br)cccc12

>  <gnina_score>  (987) 
5.485

>  <inspiration_score>  (987) 
None

>  <energy_score>  (987) 
-5.996624

>  <distance_score>  (987) 
0.790957

>  <gnina_score_min>  (987) 
5.358

>  <inchikey>  (987) 
WVMRMYIRKISMNP-UHFFFAOYSA-N

>  <exports>  (987) 
['/opt/xchem-fragalysis-2/maxwin/BulkDock/OUTPUTS/openbind_a71ev2a_c2_elabs_1LOUU54.sdf', '/opt/xchem-fragalysis-2/maxwin/BulkDock/OUTPUTS/openbind_a71ev2a_c2_elabs_1LSYIDY.sdf']

>  <name>  (987) 
P576725

>  <ref_pdb>  (987) 
A3066a

>  <subsites>  (987) 
None

>  <HIPPO Pose ID>  (987) 
576725

>  <ref_mols>  (987) 
A3066a

>  <HIPPO Compound ID>  (987) 
349568

>  <tags>  (987) 
openbind_a71ev2a_c2_elabs,syndirella_product,openbind_a71ev2a_c2_elabs_fragonly_scored_top80percent,openbind_a71ev2a_c2_elabs_scored,BulkDock Fragalysis export,openbind_a71ev2a_c2_elabs_scored_top80percent,openbind_a71ev2a_c2_elabs_activefrags_only_scored_5.2plus,syndirella_placed

>  <smina_score_min>  (987) 
-6.877

$$$$
P576726
     RDKit          3D

 17 18  0  0  0  0  0  0  0  0999 V2000
    9.2799    8.5370   23.5843 C   0  0  0  0  0  0  0  0  0  0  0  0
    8.9638    9.9320   23.7775 N   0  0  0  0  0  0  0  0  0  0  0  0
    9.5900   10.9196   23.0718 C   0  0  0  0  0  0  0  0  0  0  0  0
    9.0986   12.1429   23.4858 C   0  0  0  0  0  0  0  0  0  0  0  0
    9.5690   13.4746   23.1048 C   0  0  0  0  0  0  0  0  0  0  0  0
    9.2277   14.3791   23.7463 O   0  0  0  0  0  0  0  0  0  0  0  0
   10.5463   13.4042   21.9331 N   0  0  0  0  0  0  0  0  0  0  0  0
   11.3788   14.4043   21.3642 C   0  0  0  0  0  0  0  0  0  0  0  0
   12.4654   14.7730   22.3790 C   0  0  0  0  0  0  0  0  0  0  0  0
   12.8009   13.1557   23.9654 I   0  0  0  0  0  0  0  0  0  0  0  0
    8.1788   11.8701   24.5458 C   0  0  0  0  0  0  0  0  0  0  0  0
    7.4286   12.6952   25.4144 C   0  0  0  0  0  0  0  0  0  0  0  0
    6.6206   12.1285   26.3976 C   0  0  0  0  0  0  0  0  0  0  0  0
    6.5261   10.7505   26.4954 C   0  0  0  0  0  0  0  0  0  0  0  0
    5.4940   10.0022   27.8977 Br  0  0  0  0  0  0  0  0  0  0  0  0
    7.2205    9.9100   25.6198 C   0  0  0  0  0  0  0  0  0  0  0  0
    8.0866   10.4843   24.6817 C   0  0  0  0  0  0  0  0  0  0  0  0
  1  2  1  0
  2  3  1  0
  3  4  2  0
  4  5  1  0
  5  6  2  0
  5  7  1  0
  7  8  1  0
  8  9  1  0
  9 10  1  0
  4 11  1  0
 11 12  2  0
 12 13  1  0
 13 14  2  0
 14 15  1  0
 14 16  1  0
 16 17  2  0
 17  2  1  0
 17 11  1  0
M  END
>  <alias>  (988) 
None

>  <rmsd(smina/fragmenstein)>  (988) 
0.287

>  <smiles>  (988) 
Cn1cc(C(=O)NCCI)c2ccc(Br)cc21

>  <gnina_score>  (988) 
5.685

>  <inspiration_score>  (988) 
None

>  <energy_score>  (988) 
-0.816757

>  <distance_score>  (988) 
0.96511

>  <gnina_score_min>  (988) 
5.595

>  <inchikey>  (988) 
FZIJDZVXRFVJFU-UHFFFAOYSA-N

>  <exports>  (988) 
['/opt/xchem-fragalysis-2/maxwin/BulkDock/OUTPUTS/openbind_a71ev2a_c2_elabs_1LOUU54.sdf', '/opt/xchem-fragalysis-2/maxwin/BulkDock/OUTPUTS/openbind_a71ev2a_c2_elabs_1LSYIDY.sdf']

>  <name>  (988) 
P576726

>  <ref_pdb>  (988) 
A3066a

>  <subsites>  (988) 
None

>  <HIPPO Pose ID>  (988) 
576726

>  <ref_mols>  (988) 
A3066a

>  <HIPPO Compound ID>  (988) 
349569

>  <tags>  (988) 
openbind_a71ev2a_c2_elabs,syndirella_product,openbind_a71ev2a_c2_elabs_fragonly_scored_top80percent,BulkDock Fragalysis export,openbind_a71ev2a_c2_elabs_scored,openbind_a71ev2a_c2_elabs_scored_top80percent,openbind_a71ev2a_c2_elabs_activefrags_only_scored_5.2plus,openbind_a71ev2a_c2_elabs_activefrags_only_scored_5.5plus,syndirella_placed

>  <smina_score_min>  (988) 
-5.278

$$$$
P576727
     RDKit          3D

 17 18  0  0  0  0  0  0  0  0999 V2000
   12.4128   15.0177   21.9734 C   0  0  0  0  0  0  0  0  0  0  0  0
   11.2470   14.4304   21.2074 C   0  0  0  0  0  0  0  0  0  0  0  0
   10.1757   15.4014   20.7289 C   0  0  0  0  0  0  0  0  0  0  0  0
   10.5975   13.4159   21.9877 N   0  0  0  0  0  0  0  0  0  0  0  0
   10.3401   13.3313   23.5003 C   0  0  0  0  0  0  0  0  0  0  0  0
   10.5452   14.1053   24.3449 O   0  0  0  0  0  0  0  0  0  0  0  0
    9.6472   12.0774   23.7897 C   0  0  0  0  0  0  0  0  0  0  0  0
    9.9697   10.8776   23.1858 C   0  0  0  0  0  0  0  0  0  0  0  0
    9.2221    9.8890   23.7363 N   0  0  0  0  0  0  0  0  0  0  0  0
    9.3927    8.4929   23.4110 C   0  0  0  0  0  0  0  0  0  0  0  0
    8.3307   10.4267   24.6328 C   0  0  0  0  0  0  0  0  0  0  0  0
    7.3383    9.8022   25.3947 C   0  0  0  0  0  0  0  0  0  0  0  0
    6.5494   10.5614   26.2487 C   0  0  0  0  0  0  0  0  0  0  0  0
    6.7257   11.9311   26.3186 C   0  0  0  0  0  0  0  0  0  0  0  0
    7.7073   12.5674   25.5441 C   0  0  0  0  0  0  0  0  0  0  0  0
    7.7615   14.4487   25.6995 Br  0  0  0  0  0  0  0  0  0  0  0  0
    8.5568   11.8120   24.6919 C   0  0  0  0  0  0  0  0  0  0  0  0
  1  2  1  0
  2  3  1  0
  2  4  1  0
  4  5  1  0
  5  6  2  0
  5  7  1  0
  7  8  2  0
  8  9  1  0
  9 10  1  0
  9 11  1  0
 11 12  2  0
 12 13  1  0
 13 14  2  0
 14 15  1  0
 15 16  1  0
 15 17  2  0
 17  7  1  0
 17 11  1  0
M  END
>  <alias>  (989) 
None

>  <rmsd(smina/fragmenstein)>  (989) 
0.178

>  <smiles>  (989) 
CC(C)NC(=O)c1cn(C)c2cccc(Br)c12

>  <gnina_score>  (989) 
5.578

>  <inspiration_score>  (989) 
None

>  <energy_score>  (989) 
-17.785059

>  <distance_score>  (989) 
0.619967

>  <gnina_score_min>  (989) 
5.566

>  <inchikey>  (989) 
BNOBKWKQPXPQGG-UHFFFAOYSA-N

>  <exports>  (989) 
['/opt/xchem-fragalysis-2/maxwin/BulkDock/OUTPUTS/openbind_a71ev2a_c2_elabs_1LOUU54.sdf', '/opt/xchem-fragalysis-2/maxwin/BulkDock/OUTPUTS/openbind_a71ev2a_c2_elabs_1LSYIDY.sdf']

>  <name>  (989) 
P576727

>  <ref_pdb>  (989) 
A3066a

>  <subsites>  (989) 
None

>  <HIPPO Pose ID>  (989) 
576727

>  <ref_mols>  (989) 
A3066a

>  <HIPPO Compound ID>  (989) 
349570

>  <tags>  (989) 
openbind_a71ev2a_c2_elabs,syndirella_product,openbind_a71ev2a_c2_elabs_fragonly_scored_top80percent,BulkDock Fragalysis export,openbind_a71ev2a_c2_elabs_scored,openbind_a71ev2a_c2_elabs_scored_top80percent,openbind_a71ev2a_c2_elabs_activefrags_only_scored_5.2plus,openbind_a71ev2a_c2_elabs_activefrags_only_scored_5.5plus,syndirella_placed

>  <smina_score_min>  (989) 
-7.219

$$$$
P576728
     RDKit          3D

 17 18  0  0  0  0  0  0  0  0999 V2000
   11.9440   14.3871   19.5893 C   0  0  0  0  0  0  0  0  0  0  0  0
   10.8119   14.8483   20.1311 C   0  0  0  0  0  0  0  0  0  0  0  0
   10.6719   15.1775   21.5709 C   0  0  0  0  0  0  0  0  0  0  0  0
   10.1721   14.0312   22.2509 N   0  0  0  0  0  0  0  0  0  0  0  0
   10.3215   13.5968   23.7111 C   0  0  0  0  0  0  0  0  0  0  0  0
   10.8122   14.1422   24.6143 O   0  0  0  0  0  0  0  0  0  0  0  0
    9.6732   12.3034   23.8736 C   0  0  0  0  0  0  0  0  0  0  0  0
   10.0313   11.1804   23.1545 C   0  0  0  0  0  0  0  0  0  0  0  0
    9.3195   10.1181   23.6221 N   0  0  0  0  0  0  0  0  0  0  0  0
    9.4977    8.7560   23.1669 C   0  0  0  0  0  0  0  0  0  0  0  0
    8.4159   10.5475   24.5686 C   0  0  0  0  0  0  0  0  0  0  0  0
    7.4544    9.8306   25.2891 C   0  0  0  0  0  0  0  0  0  0  0  0
    6.6306   10.5089   26.1824 C   0  0  0  0  0  0  0  0  0  0  0  0
    6.7588   11.8787   26.3514 C   0  0  0  0  0  0  0  0  0  0  0  0
    7.7283   12.5968   25.6390 C   0  0  0  0  0  0  0  0  0  0  0  0
    7.7870   14.4634   25.9357 Br  0  0  0  0  0  0  0  0  0  0  0  0
    8.5932   11.9291   24.7367 C   0  0  0  0  0  0  0  0  0  0  0  0
  1  2  2  0
  2  3  1  0
  3  4  1  0
  4  5  1  0
  5  6  2  0
  5  7  1  0
  7  8  2  0
  8  9  1  0
  9 10  1  0
  9 11  1  0
 11 12  2  0
 12 13  1  0
 13 14  2  0
 14 15  1  0
 15 16  1  0
 15 17  2  0
 17  7  1  0
 17 11  1  0
M  END
>  <alias>  (990) 
None

>  <rmsd(smina/fragmenstein)>  (990) 
0.766

>  <smiles>  (990) 
C=CCNC(=O)c1cn(C)c2cccc(Br)c12

>  <gnina_score>  (990) 
5.285

>  <inspiration_score>  (990) 
None

>  <energy_score>  (990) 
-6.843606

>  <distance_score>  (990) 
0.746691

>  <gnina_score_min>  (990) 
5.451

>  <inchikey>  (990) 
WDENRZUSLULJNJ-UHFFFAOYSA-N

>  <exports>  (990) 
['/opt/xchem-fragalysis-2/maxwin/BulkDock/OUTPUTS/openbind_a71ev2a_c2_elabs_1LOUU54.sdf', '/opt/xchem-fragalysis-2/maxwin/BulkDock/OUTPUTS/openbind_a71ev2a_c2_elabs_1LSYIDY.sdf']

>  <name>  (990) 
P576728

>  <ref_pdb>  (990) 
A3066a

>  <subsites>  (990) 
None

>  <HIPPO Pose ID>  (990) 
576728

>  <ref_mols>  (990) 
A3066a

>  <HIPPO Compound ID>  (990) 
349571

>  <tags>  (990) 
openbind_a71ev2a_c2_elabs,syndirella_product,openbind_a71ev2a_c2_elabs_fragonly_scored_top80percent,openbind_a71ev2a_c2_elabs_scored,BulkDock Fragalysis export,openbind_a71ev2a_c2_elabs_scored_top80percent,openbind_a71ev2a_c2_elabs_activefrags_only_scored_5.2plus,syndirella_placed

>  <smina_score_min>  (990) 
-6.882

$$$$
P576729
     RDKit          3D

 17 19  0  0  0  0  0  0  0  0999 V2000
    9.2708    8.5707   23.4274 C   0  0  0  0  0  0  0  0  0  0  0  0
    9.1398    9.9756   23.7375 N   0  0  0  0  0  0  0  0  0  0  0  0
    9.9130   10.9422   23.1602 C   0  0  0  0  0  0  0  0  0  0  0  0
    9.6602   12.1417   23.7916 C   0  0  0  0  0  0  0  0  0  0  0  0
   10.3683   13.3987   23.5854 C   0  0  0  0  0  0  0  0  0  0  0  0
   10.5341   14.1275   24.4785 O   0  0  0  0  0  0  0  0  0  0  0  0
   10.7327   13.5440   22.1016 N   0  0  0  0  0  0  0  0  0  0  0  0
   11.2777   14.6243   21.4016 C   0  0  0  0  0  0  0  0  0  0  0  0
   12.5299   14.3964   20.6239 C   0  0  0  0  0  0  0  0  0  0  0  0
   11.2415   14.6855   19.9040 C   0  0  0  0  0  0  0  0  0  0  0  0
    8.5946   11.9077   24.7083 C   0  0  0  0  0  0  0  0  0  0  0  0
    7.8686   12.7454   25.5814 C   0  0  0  0  0  0  0  0  0  0  0  0
    6.9157   12.1948   26.4389 C   0  0  0  0  0  0  0  0  0  0  0  0
    6.6731   10.8283   26.4165 C   0  0  0  0  0  0  0  0  0  0  0  0
    5.5355   10.0809   27.7359 Br  0  0  0  0  0  0  0  0  0  0  0  0
    7.3209    9.9854   25.5069 C   0  0  0  0  0  0  0  0  0  0  0  0
    8.2966   10.5429   24.6687 C   0  0  0  0  0  0  0  0  0  0  0  0
  1  2  1  0
  2  3  1  0
  3  4  2  0
  4  5  1  0
  5  6  2  0
  5  7  1  0
  7  8  1  0
  8  9  1  0
  9 10  1  0
  4 11  1  0
 11 12  2  0
 12 13  1  0
 13 14  2  0
 14 15  1  0
 14 16  1  0
 16 17  2  0
 17  2  1  0
 10  8  1  0
 17 11  1  0
M  END
>  <alias>  (991) 
None

>  <rmsd(smina/fragmenstein)>  (991) 
0.283

>  <smiles>  (991) 
Cn1cc(C(=O)NC2CC2)c2ccc(Br)cc21

>  <gnina_score>  (991) 
5.315

>  <inspiration_score>  (991) 
None

>  <energy_score>  (991) 
-2.942192

>  <distance_score>  (991) 
0.564391

>  <gnina_score_min>  (991) 
5.393

>  <inchikey>  (991) 
OZZOIMNXEIISRP-UHFFFAOYSA-N

>  <exports>  (991) 
['/opt/xchem-fragalysis-2/maxwin/BulkDock/OUTPUTS/openbind_a71ev2a_c2_elabs_1LOUU54.sdf', '/opt/xchem-fragalysis-2/maxwin/BulkDock/OUTPUTS/openbind_a71ev2a_c2_elabs_1LSYIDY.sdf']

>  <name>  (991) 
P576729

>  <ref_pdb>  (991) 
A3066a

>  <subsites>  (991) 
None

>  <HIPPO Pose ID>  (991) 
576729

>  <ref_mols>  (991) 
A3066a

>  <HIPPO Compound ID>  (991) 
349573

>  <tags>  (991) 
openbind_a71ev2a_c2_elabs,syndirella_product,openbind_a71ev2a_c2_elabs_fragonly_scored_top80percent,openbind_a71ev2a_c2_elabs_scored,BulkDock Fragalysis export,openbind_a71ev2a_c2_elabs_scored_top80percent,openbind_a71ev2a_c2_elabs_activefrags_only_scored_5.2plus,syndirella_placed

>  <smina_score_min>  (991) 
-6.895

$$$$
P576730
     RDKit          3D

 17 18  0  0  0  0  0  0  0  0999 V2000
    9.6357   15.7423   20.4181 C   0  0  0  0  0  0  0  0  0  0  0  0
   10.8331   14.8862   20.0403 C   0  0  0  0  0  0  0  0  0  0  0  0
   11.7090   14.5307   21.2361 C   0  0  0  0  0  0  0  0  0  0  0  0
   11.0767   13.4774   21.9763 N   0  0  0  0  0  0  0  0  0  0  0  0
   10.6322   13.4175   23.4428 C   0  0  0  0  0  0  0  0  0  0  0  0
   10.7764   14.1841   24.3073 O   0  0  0  0  0  0  0  0  0  0  0  0
    9.8676   12.1858   23.6869 C   0  0  0  0  0  0  0  0  0  0  0  0
   10.0488   10.9617   23.0756 C   0  0  0  0  0  0  0  0  0  0  0  0
    9.2376   10.0373   23.6682 N   0  0  0  0  0  0  0  0  0  0  0  0
    9.2756    8.6260   23.3621 C   0  0  0  0  0  0  0  0  0  0  0  0
    8.4147   10.6550   24.5797 C   0  0  0  0  0  0  0  0  0  0  0  0
    7.3856   10.1505   25.3856 C   0  0  0  0  0  0  0  0  0  0  0  0
    6.7143   11.0458   26.2144 C   0  0  0  0  0  0  0  0  0  0  0  0
    5.7464   10.5869   27.0181 F   0  0  0  0  0  0  0  0  0  0  0  0
    7.0316   12.3939   26.2475 C   0  0  0  0  0  0  0  0  0  0  0  0
    8.0638   12.8874   25.4461 C   0  0  0  0  0  0  0  0  0  0  0  0
    8.7792   12.0079   24.6031 C   0  0  0  0  0  0  0  0  0  0  0  0
  1  2  1  0
  2  3  1  0
  3  4  1  0
  4  5  1  0
  5  6  2  0
  5  7  1  0
  7  8  2  0
  8  9  1  0
  9 10  1  0
  9 11  1  0
 11 12  2  0
 12 13  1  0
 13 14  1  0
 13 15  2  0
 15 16  1  0
 16 17  2  0
 17  7  1  0
 17 11  1  0
M  END
>  <alias>  (992) 
None

>  <rmsd(smina/fragmenstein)>  (992) 
0.364

>  <smiles>  (992) 
CCCNC(=O)c1cn(C)c2cc(F)ccc12

>  <gnina_score>  (992) 
5.414

>  <inspiration_score>  (992) 
None

>  <energy_score>  (992) 
-1.120986

>  <distance_score>  (992) 
0.426223

>  <gnina_score_min>  (992) 
5.328

>  <inchikey>  (992) 
PETBGTRTVOQQEC-UHFFFAOYSA-N

>  <exports>  (992) 
['/opt/xchem-fragalysis-2/maxwin/BulkDock/OUTPUTS/openbind_a71ev2a_c2_elabs_1LOUU54.sdf', '/opt/xchem-fragalysis-2/maxwin/BulkDock/OUTPUTS/openbind_a71ev2a_c2_elabs_1LSYIDY.sdf']

>  <name>  (992) 
P576730

>  <ref_pdb>  (992) 
A3066a

>  <subsites>  (992) 
None

>  <HIPPO Pose ID>  (992) 
576730

>  <ref_mols>  (992) 
A3066a

>  <HIPPO Compound ID>  (992) 
349576

>  <tags>  (992) 
openbind_a71ev2a_c2_elabs,syndirella_product,openbind_a71ev2a_c2_elabs_fragonly_scored_top80percent,openbind_a71ev2a_c2_elabs_scored,BulkDock Fragalysis export,openbind_a71ev2a_c2_elabs_scored_top80percent,openbind_a71ev2a_c2_elabs_activefrags_only_scored_5.2plus,syndirella_placed

>  <smina_score_min>  (992) 
-7.287

$$$$
P576731
     RDKit          3D

 17 18  0  0  0  0  0  0  0  0999 V2000
    9.2240    8.6627   23.3306 C   0  0  0  0  0  0  0  0  0  0  0  0
    9.1304   10.0435   23.7487 N   0  0  0  0  0  0  0  0  0  0  0  0
    9.9568   11.0281   23.2882 C   0  0  0  0  0  0  0  0  0  0  0  0
    9.7392   12.1716   24.0342 C   0  0  0  0  0  0  0  0  0  0  0  0
   10.5782   13.3688   24.0477 C   0  0  0  0  0  0  0  0  0  0  0  0
   10.6934   13.9953   25.0200 O   0  0  0  0  0  0  0  0  0  0  0  0
   11.2240   13.5418   22.6772 N   0  0  0  0  0  0  0  0  0  0  0  0
   12.2203   14.4618   22.2298 C   0  0  0  0  0  0  0  0  0  0  0  0
   12.4760   14.3112   20.7505 C   0  0  0  0  0  0  0  0  0  0  0  0
   11.0236   14.7360   19.8109 Cl  0  0  0  0  0  0  0  0  0  0  0  0
    8.5937   11.9155   24.8404 C   0  0  0  0  0  0  0  0  0  0  0  0
    7.8365   12.7104   25.7282 C   0  0  0  0  0  0  0  0  0  0  0  0
    6.7989   12.1315   26.4574 C   0  0  0  0  0  0  0  0  0  0  0  0
    6.5244   10.7827   26.3094 C   0  0  0  0  0  0  0  0  0  0  0  0
    5.5571   10.2320   27.0533 F   0  0  0  0  0  0  0  0  0  0  0  0
    7.2335    9.9767   25.4218 C   0  0  0  0  0  0  0  0  0  0  0  0
    8.2635   10.5651   24.6816 C   0  0  0  0  0  0  0  0  0  0  0  0
  1  2  1  0
  2  3  1  0
  3  4  2  0
  4  5  1  0
  5  6  2  0
  5  7  1  0
  7  8  1  0
  8  9  1  0
  9 10  1  0
  4 11  1  0
 11 12  2  0
 12 13  1  0
 13 14  2  0
 14 15  1  0
 14 16  1  0
 16 17  2  0
 17  2  1  0
 17 11  1  0
M  END
>  <alias>  (993) 
None

>  <rmsd(smina/fragmenstein)>  (993) 
0.337

>  <smiles>  (993) 
Cn1cc(C(=O)NCCCl)c2ccc(F)cc21

>  <gnina_score>  (993) 
5.319

>  <inspiration_score>  (993) 
None

>  <energy_score>  (993) 
-8.305969

>  <distance_score>  (993) 
0.446144

>  <gnina_score_min>  (993) 
5.362

>  <inchikey>  (993) 
KRSZKSHBJZMDQK-UHFFFAOYSA-N

>  <exports>  (993) 
['/opt/xchem-fragalysis-2/maxwin/BulkDock/OUTPUTS/openbind_a71ev2a_c2_elabs_1LOUU54.sdf', '/opt/xchem-fragalysis-2/maxwin/BulkDock/OUTPUTS/openbind_a71ev2a_c2_elabs_1LSYIDY.sdf']

>  <name>  (993) 
P576731

>  <ref_pdb>  (993) 
A3066a

>  <subsites>  (993) 
None

>  <HIPPO Pose ID>  (993) 
576731

>  <ref_mols>  (993) 
A3066a

>  <HIPPO Compound ID>  (993) 
349577

>  <tags>  (993) 
openbind_a71ev2a_c2_elabs,syndirella_product,openbind_a71ev2a_c2_elabs_fragonly_scored_top80percent,openbind_a71ev2a_c2_elabs_scored,BulkDock Fragalysis export,openbind_a71ev2a_c2_elabs_scored_top80percent,openbind_a71ev2a_c2_elabs_activefrags_only_scored_5.2plus,syndirella_placed

>  <smina_score_min>  (993) 
-6.841

$$$$
P576732
     RDKit          3D

 17 18  0  0  0  0  0  0  0  0999 V2000
   10.0225   15.4015   20.7592 C   0  0  0  0  0  0  0  0  0  0  0  0
   11.1870   14.7671   21.5128 C   0  0  0  0  0  0  0  0  0  0  0  0
   12.3516   14.3657   20.6251 C   0  0  0  0  0  0  0  0  0  0  0  0
   10.6921   13.6163   22.2029 N   0  0  0  0  0  0  0  0  0  0  0  0
   10.3981   13.3979   23.6869 C   0  0  0  0  0  0  0  0  0  0  0  0
   10.5822   14.0912   24.6024 O   0  0  0  0  0  0  0  0  0  0  0  0
    9.7091   12.1272   23.8568 C   0  0  0  0  0  0  0  0  0  0  0  0
    9.9708   10.9496   23.1888 C   0  0  0  0  0  0  0  0  0  0  0  0
    9.1900    9.9644   23.7210 N   0  0  0  0  0  0  0  0  0  0  0  0
    9.3048    8.5715   23.3553 C   0  0  0  0  0  0  0  0  0  0  0  0
    8.3223   10.5050   24.6431 C   0  0  0  0  0  0  0  0  0  0  0  0
    7.3044    9.9298   25.4095 C   0  0  0  0  0  0  0  0  0  0  0  0
    6.5850   10.7555   26.2703 C   0  0  0  0  0  0  0  0  0  0  0  0
    5.6243   10.2168   27.0318 F   0  0  0  0  0  0  0  0  0  0  0  0
    6.8416   12.1120   26.3707 C   0  0  0  0  0  0  0  0  0  0  0  0
    7.8600   12.6812   25.6067 C   0  0  0  0  0  0  0  0  0  0  0  0
    8.6213   11.8670   24.7390 C   0  0  0  0  0  0  0  0  0  0  0  0
  1  2  1  0
  2  3  1  0
  2  4  1  0
  4  5  1  0
  5  6  2  0
  5  7  1  0
  7  8  2  0
  8  9  1  0
  9 10  1  0
  9 11  1  0
 11 12  2  0
 12 13  1  0
 13 14  1  0
 13 15  2  0
 15 16  1  0
 16 17  2  0
 17  7  1  0
 17 11  1  0
M  END
>  <alias>  (994) 
None

>  <rmsd(smina/fragmenstein)>  (994) 
0.395

>  <smiles>  (994) 
CC(C)NC(=O)c1cn(C)c2cc(F)ccc12

>  <gnina_score>  (994) 
5.348

>  <inspiration_score>  (994) 
None

>  <energy_score>  (994) 
-0.713759

>  <distance_score>  (994) 
0.555404

>  <gnina_score_min>  (994) 
5.377

>  <inchikey>  (994) 
CWGIIXMIFFYPFC-UHFFFAOYSA-N

>  <exports>  (994) 
['/opt/xchem-fragalysis-2/maxwin/BulkDock/OUTPUTS/openbind_a71ev2a_c2_elabs_1LOUU54.sdf', '/opt/xchem-fragalysis-2/maxwin/BulkDock/OUTPUTS/openbind_a71ev2a_c2_elabs_1LSYIDY.sdf']

>  <name>  (994) 
P576732

>  <ref_pdb>  (994) 
A3066a

>  <subsites>  (994) 
None

>  <HIPPO Pose ID>  (994) 
576732

>  <ref_mols>  (994) 
A3066a

>  <HIPPO Compound ID>  (994) 
349578

>  <tags>  (994) 
openbind_a71ev2a_c2_elabs,syndirella_product,openbind_a71ev2a_c2_elabs_fragonly_scored_top80percent,openbind_a71ev2a_c2_elabs_scored,BulkDock Fragalysis export,openbind_a71ev2a_c2_elabs_scored_top80percent,openbind_a71ev2a_c2_elabs_activefrags_only_scored_5.2plus,syndirella_placed

>  <smina_score_min>  (994) 
-7.442

$$$$
P576733
     RDKit          3D

 17 18  0  0  0  0  0  0  0  0999 V2000
   12.8546   14.8957   22.1341 C   0  0  0  0  0  0  0  0  0  0  0  0
   12.2124   14.5617   21.0124 C   0  0  0  0  0  0  0  0  0  0  0  0
   10.7336   14.6214   20.9251 C   0  0  0  0  0  0  0  0  0  0  0  0
   10.2760   13.5313   21.7120 N   0  0  0  0  0  0  0  0  0  0  0  0
    9.7714   13.4902   23.1494 C   0  0  0  0  0  0  0  0  0  0  0  0
    9.5744   14.3496   23.9015 O   0  0  0  0  0  0  0  0  0  0  0  0
    9.4086   12.1365   23.5525 C   0  0  0  0  0  0  0  0  0  0  0  0
    9.8714   10.9361   23.0576 C   0  0  0  0  0  0  0  0  0  0  0  0
    9.2170    9.9187   23.6956 N   0  0  0  0  0  0  0  0  0  0  0  0
    9.4694    8.5224   23.4240 C   0  0  0  0  0  0  0  0  0  0  0  0
    8.3134   10.4353   24.5962 C   0  0  0  0  0  0  0  0  0  0  0  0
    7.3702    9.8253   25.4273 C   0  0  0  0  0  0  0  0  0  0  0  0
    6.5998   10.6302   26.2640 C   0  0  0  0  0  0  0  0  0  0  0  0
    5.7088   10.0547   27.0811 F   0  0  0  0  0  0  0  0  0  0  0  0
    6.7340   12.0052   26.2797 C   0  0  0  0  0  0  0  0  0  0  0  0
    7.6511   12.6133   25.4258 C   0  0  0  0  0  0  0  0  0  0  0  0
    8.4522   11.8228   24.5677 C   0  0  0  0  0  0  0  0  0  0  0  0
  1  2  2  0
  2  3  1  0
  3  4  1  0
  4  5  1  0
  5  6  2  0
  5  7  1  0
  7  8  2  0
  8  9  1  0
  9 10  1  0
  9 11  1  0
 11 12  2  0
 12 13  1  0
 13 14  1  0
 13 15  2  0
 15 16  1  0
 16 17  2  0
 17  7  1  0
 17 11  1  0
M  END
>  <alias>  (995) 
None

>  <rmsd(smina/fragmenstein)>  (995) 
0.445

>  <smiles>  (995) 
C=CCNC(=O)c1cn(C)c2cc(F)ccc12

>  <gnina_score>  (995) 
5.275

>  <inspiration_score>  (995) 
None

>  <energy_score>  (995) 
-1.879618

>  <distance_score>  (995) 
0.930667

>  <gnina_score_min>  (995) 
5.281

>  <inchikey>  (995) 
PKXKOESAPIOLOR-UHFFFAOYSA-N

>  <exports>  (995) 
['/opt/xchem-fragalysis-2/maxwin/BulkDock/OUTPUTS/openbind_a71ev2a_c2_elabs_1LOUU54.sdf', '/opt/xchem-fragalysis-2/maxwin/BulkDock/OUTPUTS/openbind_a71ev2a_c2_elabs_1LSYIDY.sdf']

>  <name>  (995) 
P576733

>  <ref_pdb>  (995) 
A3066a

>  <subsites>  (995) 
None

>  <HIPPO Pose ID>  (995) 
576733

>  <ref_mols>  (995) 
A3066a

>  <HIPPO Compound ID>  (995) 
349579

>  <tags>  (995) 
openbind_a71ev2a_c2_elabs,syndirella_product,openbind_a71ev2a_c2_elabs_fragonly_scored_top80percent,openbind_a71ev2a_c2_elabs_scored,BulkDock Fragalysis export,openbind_a71ev2a_c2_elabs_scored_top80percent,openbind_a71ev2a_c2_elabs_activefrags_only_scored_5.2plus,syndirella_placed

>  <smina_score_min>  (995) 
-6.927

$$$$
P576735
     RDKit          3D

 17 18  0  0  0  0  0  0  0  0999 V2000
    9.1423    8.4051   23.4936 C   0  0  0  0  0  0  0  0  0  0  0  0
    9.0730    9.8153   23.7683 N   0  0  0  0  0  0  0  0  0  0  0  0
    9.9360   10.6965   23.1961 C   0  0  0  0  0  0  0  0  0  0  0  0
    9.8327   11.8959   23.8644 C   0  0  0  0  0  0  0  0  0  0  0  0
   10.7558   13.0187   23.7755 C   0  0  0  0  0  0  0  0  0  0  0  0
   10.8315   13.7716   24.6605 O   0  0  0  0  0  0  0  0  0  0  0  0
   11.4976   12.9829   22.4353 N   0  0  0  0  0  0  0  0  0  0  0  0
   12.4128   13.9072   21.8606 C   0  0  0  0  0  0  0  0  0  0  0  0
   11.7519   15.2522   21.8415 C   0  0  0  0  0  0  0  0  0  0  0  0
   10.1965   15.2639   20.6593 Br  0  0  0  0  0  0  0  0  0  0  0  0
    8.6831   11.7926   24.7062 C   0  0  0  0  0  0  0  0  0  0  0  0
    7.9981   12.7058   25.5383 C   0  0  0  0  0  0  0  0  0  0  0  0
    6.9360   12.2614   26.3262 C   0  0  0  0  0  0  0  0  0  0  0  0
    6.5646   10.9285   26.2893 C   0  0  0  0  0  0  0  0  0  0  0  0
    5.5785   10.5059   27.0909 F   0  0  0  0  0  0  0  0  0  0  0  0
    7.1974   10.0077   25.4574 C   0  0  0  0  0  0  0  0  0  0  0  0
    8.2550   10.4618   24.6621 C   0  0  0  0  0  0  0  0  0  0  0  0
  1  2  1  0
  2  3  1  0
  3  4  2  0
  4  5  1  0
  5  6  2  0
  5  7  1  0
  7  8  1  0
  8  9  1  0
  9 10  1  0
  4 11  1  0
 11 12  2  0
 12 13  1  0
 13 14  2  0
 14 15  1  0
 14 16  1  0
 16 17  2  0
 17  2  1  0
 17 11  1  0
M  END
>  <alias>  (996) 
None

>  <rmsd(smina/fragmenstein)>  (996) 
0.281

>  <smiles>  (996) 
Cn1cc(C(=O)NCCBr)c2ccc(F)cc21

>  <gnina_score>  (996) 
5.434

>  <inspiration_score>  (996) 
None

>  <energy_score>  (996) 
-8.3599

>  <distance_score>  (996) 
0.422224

>  <gnina_score_min>  (996) 
5.486

>  <inchikey>  (996) 
ZBBJVCYPCGILKF-UHFFFAOYSA-N

>  <exports>  (996) 
['/opt/xchem-fragalysis-2/maxwin/BulkDock/OUTPUTS/openbind_a71ev2a_c2_elabs_1LOUU54.sdf', '/opt/xchem-fragalysis-2/maxwin/BulkDock/OUTPUTS/openbind_a71ev2a_c2_elabs_1LSYIDY.sdf']

>  <name>  (996) 
P576735

>  <ref_pdb>  (996) 
A3066a

>  <subsites>  (996) 
None

>  <HIPPO Pose ID>  (996) 
576735

>  <ref_mols>  (996) 
A3066a

>  <HIPPO Compound ID>  (996) 
349581

>  <tags>  (996) 
openbind_a71ev2a_c2_elabs,syndirella_product,openbind_a71ev2a_c2_elabs_fragonly_scored_top80percent,openbind_a71ev2a_c2_elabs_scored,BulkDock Fragalysis export,openbind_a71ev2a_c2_elabs_scored_top80percent,openbind_a71ev2a_c2_elabs_activefrags_only_scored_5.2plus,syndirella_placed

>  <smina_score_min>  (996) 
-6.526

$$$$
P576737
     RDKit          3D

 17 18  0  0  0  0  0  0  0  0999 V2000
    9.3488    8.5108   23.5446 C   0  0  0  0  0  0  0  0  0  0  0  0
    9.0336    9.9035   23.7597 N   0  0  0  0  0  0  0  0  0  0  0  0
    9.6072   10.8965   23.0343 C   0  0  0  0  0  0  0  0  0  0  0  0
    9.1057   12.1187   23.4543 C   0  0  0  0  0  0  0  0  0  0  0  0
    9.4455   13.4194   22.8538 C   0  0  0  0  0  0  0  0  0  0  0  0
    8.7893   14.3508   23.0576 O   0  0  0  0  0  0  0  0  0  0  0  0
   10.7577   13.2836   22.0940 N   0  0  0  0  0  0  0  0  0  0  0  0
   11.5919   14.2740   21.5040 C   0  0  0  0  0  0  0  0  0  0  0  0
   12.6065   14.6746   22.5742 C   0  0  0  0  0  0  0  0  0  0  0  0
   12.9225   13.3531   23.8516 S   0  0  0  0  0  0  0  0  0  0  0  0
    8.2497   11.8414   24.5845 C   0  0  0  0  0  0  0  0  0  0  0  0
    7.5226   12.5890   25.5530 C   0  0  0  0  0  0  0  0  0  0  0  0
    7.7033   14.4513   25.8391 Br  0  0  0  0  0  0  0  0  0  0  0  0
    6.6492   11.9426   26.4404 C   0  0  0  0  0  0  0  0  0  0  0  0
    6.4923   10.5704   26.4026 C   0  0  0  0  0  0  0  0  0  0  0  0
    7.2458    9.8114   25.5182 C   0  0  0  0  0  0  0  0  0  0  0  0
    8.1443   10.4419   24.6543 C   0  0  0  0  0  0  0  0  0  0  0  0
  1  2  1  0
  2  3  1  0
  3  4  2  0
  4  5  1  0
  5  6  2  0
  5  7  1  0
  7  8  1  0
  8  9  1  0
  9 10  1  0
  4 11  1  0
 11 12  2  0
 12 13  1  0
 12 14  1  0
 14 15  2  0
 15 16  1  0
 16 17  2  0
 17  2  1  0
 17 11  1  0
M  END
>  <alias>  (997) 
None

>  <rmsd(smina/fragmenstein)>  (997) 
0.334

>  <smiles>  (997) 
Cn1cc(C(=O)NCCS)c2c(Br)cccc21

>  <gnina_score>  (997) 
5.571

>  <inspiration_score>  (997) 
None

>  <energy_score>  (997) 
-14.258558

>  <distance_score>  (997) 
1.050622

>  <gnina_score_min>  (997) 
5.44

>  <inchikey>  (997) 
VVRALZJKGKUYCM-UHFFFAOYSA-N

>  <exports>  (997) 
['/opt/xchem-fragalysis-2/maxwin/BulkDock/OUTPUTS/openbind_a71ev2a_c2_elabs_1LOUU54.sdf', '/opt/xchem-fragalysis-2/maxwin/BulkDock/OUTPUTS/openbind_a71ev2a_c2_elabs_1LSYIDY.sdf']

>  <name>  (997) 
P576737

>  <ref_pdb>  (997) 
A3066a

>  <subsites>  (997) 
None

>  <HIPPO Pose ID>  (997) 
576737

>  <ref_mols>  (997) 
A3066a

>  <HIPPO Compound ID>  (997) 
349588

>  <tags>  (997) 
openbind_a71ev2a_c2_elabs,syndirella_product,openbind_a71ev2a_c2_elabs_fragonly_scored_top80percent,openbind_a71ev2a_c2_elabs_scored,BulkDock Fragalysis export,openbind_a71ev2a_c2_elabs_scored_top80percent,openbind_a71ev2a_c2_elabs_activefrags_only_scored_5.2plus,syndirella_placed

>  <smina_score_min>  (997) 
-5.806

$$$$
P576738
     RDKit          3D

 17 18  0  0  0  0  0  0  0  0999 V2000
   10.3307   15.0941   19.6928 C   0  0  0  0  0  0  0  0  0  0  0  0
   10.3871   15.6268   21.1059 C   0  0  0  0  0  0  0  0  0  0  0  0
   11.4861   14.9143   21.8916 C   0  0  0  0  0  0  0  0  0  0  0  0
   10.9074   13.7424   22.4783 N   0  0  0  0  0  0  0  0  0  0  0  0
   10.5579   13.4277   23.9361 C   0  0  0  0  0  0  0  0  0  0  0  0
   10.7536   14.0377   24.9073 O   0  0  0  0  0  0  0  0  0  0  0  0
    9.7799   12.1898   23.9833 C   0  0  0  0  0  0  0  0  0  0  0  0
   10.0588   11.0722   23.2206 C   0  0  0  0  0  0  0  0  0  0  0  0
    9.2856   10.0405   23.6533 N   0  0  0  0  0  0  0  0  0  0  0  0
    9.4122    8.6823   23.1719 C   0  0  0  0  0  0  0  0  0  0  0  0
    8.3946   10.4960   24.5970 C   0  0  0  0  0  0  0  0  0  0  0  0
    7.4003    9.8094   25.3010 C   0  0  0  0  0  0  0  0  0  0  0  0
    6.5879   10.5068   26.1876 C   0  0  0  0  0  0  0  0  0  0  0  0
    6.7491   11.8723   26.3522 C   0  0  0  0  0  0  0  0  0  0  0  0
    7.7537   12.5625   25.6589 C   0  0  0  0  0  0  0  0  0  0  0  0
    7.8116   14.4328   25.9366 Br  0  0  0  0  0  0  0  0  0  0  0  0
    8.6294   11.8672   24.7842 C   0  0  0  0  0  0  0  0  0  0  0  0
  1  2  1  0
  2  3  1  0
  3  4  1  0
  4  5  1  0
  5  6  2  0
  5  7  1  0
  7  8  2  0
  8  9  1  0
  9 10  1  0
  9 11  1  0
 11 12  2  0
 12 13  1  0
 13 14  2  0
 14 15  1  0
 15 16  1  0
 15 17  2  0
 17  7  1  0
 17 11  1  0
M  END
>  <alias>  (998) 
None

>  <rmsd(smina/fragmenstein)>  (998) 
0.293

>  <smiles>  (998) 
CCCNC(=O)c1cn(C)c2cccc(Br)c12

>  <gnina_score>  (998) 
5.504

>  <inspiration_score>  (998) 
None

>  <energy_score>  (998) 
-6.054163

>  <distance_score>  (998) 
0.494043

>  <gnina_score_min>  (998) 
5.516

>  <inchikey>  (998) 
OUQHGBJRRZAOLS-UHFFFAOYSA-N

>  <exports>  (998) 
['/opt/xchem-fragalysis-2/maxwin/BulkDock/OUTPUTS/openbind_a71ev2a_c2_elabs_1LOUU54.sdf', '/opt/xchem-fragalysis-2/maxwin/BulkDock/OUTPUTS/openbind_a71ev2a_c2_elabs_1LSYIDY.sdf']

>  <name>  (998) 
P576738

>  <ref_pdb>  (998) 
A3066a

>  <subsites>  (998) 
None

>  <HIPPO Pose ID>  (998) 
576738

>  <ref_mols>  (998) 
A3066a

>  <HIPPO Compound ID>  (998) 
349591

>  <tags>  (998) 
openbind_a71ev2a_c2_elabs,syndirella_product,openbind_a71ev2a_c2_elabs_fragonly_scored_top80percent,BulkDock Fragalysis export,openbind_a71ev2a_c2_elabs_scored,openbind_a71ev2a_c2_elabs_scored_top80percent,openbind_a71ev2a_c2_elabs_activefrags_only_scored_5.2plus,openbind_a71ev2a_c2_elabs_activefrags_only_scored_5.5plus,syndirella_placed

>  <smina_score_min>  (998) 
-6.75

$$$$
P576739
     RDKit          3D

 17 18  0  0  0  0  0  0  0  0999 V2000
    9.3844    8.6752   23.3157 C   0  0  0  0  0  0  0  0  0  0  0  0
    9.1911   10.0500   23.7220 N   0  0  0  0  0  0  0  0  0  0  0  0
    9.8945   11.0992   23.2183 C   0  0  0  0  0  0  0  0  0  0  0  0
    9.5094   12.2463   23.8865 C   0  0  0  0  0  0  0  0  0  0  0  0
   10.1332   13.5339   23.6518 C   0  0  0  0  0  0  0  0  0  0  0  0
   10.6350   14.1350   24.5107 O   0  0  0  0  0  0  0  0  0  0  0  0
   10.0458   13.8293   22.1540 N   0  0  0  0  0  0  0  0  0  0  0  0
   10.6346   14.8739   21.3780 C   0  0  0  0  0  0  0  0  0  0  0  0
   12.0631   14.9224   21.6680 C   0  0  0  0  0  0  0  0  0  0  0  0
   13.1818   14.9279   21.9635 N   0  0  0  0  0  0  0  0  0  0  0  0
    8.4579   11.8942   24.7824 C   0  0  0  0  0  0  0  0  0  0  0  0
    7.6100   12.5883   25.6796 C   0  0  0  0  0  0  0  0  0  0  0  0
    7.6712   14.4643   25.9143 Br  0  0  0  0  0  0  0  0  0  0  0  0
    6.6567   11.8896   26.4291 C   0  0  0  0  0  0  0  0  0  0  0  0
    6.5230   10.5167   26.2919 C   0  0  0  0  0  0  0  0  0  0  0  0
    7.3282    9.8156   25.3990 C   0  0  0  0  0  0  0  0  0  0  0  0
    8.2870   10.5080   24.6552 C   0  0  0  0  0  0  0  0  0  0  0  0
  1  2  1  0
  2  3  1  0
  3  4  2  0
  4  5  1  0
  5  6  2  0
  5  7  1  0
  7  8  1  0
  8  9  1  0
  9 10  3  0
  4 11  1  0
 11 12  2  0
 12 13  1  0
 12 14  1  0
 14 15  2  0
 15 16  1  0
 16 17  2  0
 17  2  1  0
 17 11  1  0
M  END
>  <alias>  (999) 
None

>  <rmsd(smina/fragmenstein)>  (999) 
0.259

>  <smiles>  (999) 
Cn1cc(C(=O)NCC#N)c2c(Br)cccc21

>  <gnina_score>  (999) 
5.47

>  <inspiration_score>  (999) 
None

>  <energy_score>  (999) 
-1.872178

>  <distance_score>  (999) 
0.814931

>  <gnina_score_min>  (999) 
5.494

>  <inchikey>  (999) 
KRBMGVPBFVKSHC-UHFFFAOYSA-N

>  <exports>  (999) 
['/opt/xchem-fragalysis-2/maxwin/BulkDock/OUTPUTS/openbind_a71ev2a_c2_elabs_1LOUU54.sdf', '/opt/xchem-fragalysis-2/maxwin/BulkDock/OUTPUTS/openbind_a71ev2a_c2_elabs_1LSYIDY.sdf']

>  <name>  (999) 
P576739

>  <ref_pdb>  (999) 
A3066a

>  <subsites>  (999) 
None

>  <HIPPO Pose ID>  (999) 
576739

>  <ref_mols>  (999) 
A3066a

>  <HIPPO Compound ID>  (999) 
349592

>  <tags>  (999) 
openbind_a71ev2a_c2_elabs,syndirella_product,openbind_a71ev2a_c2_elabs_fragonly_scored_top80percent,openbind_a71ev2a_c2_elabs_scored,BulkDock Fragalysis export,openbind_a71ev2a_c2_elabs_scored_top80percent,openbind_a71ev2a_c2_elabs_activefrags_only_scored_5.2plus,syndirella_placed

>  <smina_score_min>  (999) 
-6.68

$$$$
P576740
     RDKit          3D

 17 18  0  0  0  0  0  0  0  0999 V2000
   12.6270   13.8887   20.4342 C   0  0  0  0  0  0  0  0  0  0  0  0
   12.3675   14.0664   21.9080 C   0  0  0  0  0  0  0  0  0  0  0  0
   11.8898   15.4596   22.1742 C   0  0  0  0  0  0  0  0  0  0  0  0
   11.4042   13.1514   22.4244 N   0  0  0  0  0  0  0  0  0  0  0  0
   10.6623   13.1373   23.7669 C   0  0  0  0  0  0  0  0  0  0  0  0
   10.7740   13.8273   24.6989 O   0  0  0  0  0  0  0  0  0  0  0  0
    9.7546   11.9997   23.8314 C   0  0  0  0  0  0  0  0  0  0  0  0
    9.8958   10.8064   23.1574 C   0  0  0  0  0  0  0  0  0  0  0  0
    9.0637    9.8921   23.7320 N   0  0  0  0  0  0  0  0  0  0  0  0
    9.1603    8.4820   23.4507 C   0  0  0  0  0  0  0  0  0  0  0  0
    8.2527   10.5046   24.6601 C   0  0  0  0  0  0  0  0  0  0  0  0
    7.2556   10.0007   25.5072 C   0  0  0  0  0  0  0  0  0  0  0  0
    6.6636   10.8778   26.4212 C   0  0  0  0  0  0  0  0  0  0  0  0
    5.5260   10.1869   27.7718 Br  0  0  0  0  0  0  0  0  0  0  0  0
    6.9731   12.2310   26.4328 C   0  0  0  0  0  0  0  0  0  0  0  0
    7.9526   12.7274   25.5711 C   0  0  0  0  0  0  0  0  0  0  0  0
    8.6317   11.8490   24.6997 C   0  0  0  0  0  0  0  0  0  0  0  0
  1  2  1  0
  2  3  1  0
  2  4  1  0
  4  5  1  0
  5  6  2  0
  5  7  1  0
  7  8  2  0
  8  9  1  0
  9 10  1  0
  9 11  1  0
 11 12  2  0
 12 13  1  0
 13 14  1  0
 13 15  2  0
 15 16  1  0
 16 17  2  0
 17  7  1  0
 17 11  1  0
M  END
>  <alias>  (1000) 
None

>  <rmsd(smina/fragmenstein)>  (1000) 
0.305

>  <smiles>  (1000) 
CC(C)NC(=O)c1cn(C)c2cc(Br)ccc12

>  <gnina_score>  (1000) 
5.251

>  <inspiration_score>  (1000) 
None

>  <energy_score>  (1000) 
-0.673247

>  <distance_score>  (1000) 
0.393202

>  <gnina_score_min>  (1000) 
5.353

>  <inchikey>  (1000) 
QSVINKGRXUTXDV-UHFFFAOYSA-N

>  <exports>  (1000) 
['/opt/xchem-fragalysis-2/maxwin/BulkDock/OUTPUTS/openbind_a71ev2a_c2_elabs_1LOUU54.sdf', '/opt/xchem-fragalysis-2/maxwin/BulkDock/OUTPUTS/openbind_a71ev2a_c2_elabs_1LSYIDY.sdf']

>  <name>  (1000) 
P576740

>  <ref_pdb>  (1000) 
A3066a

>  <subsites>  (1000) 
None

>  <HIPPO Pose ID>  (1000) 
576740

>  <ref_mols>  (1000) 
A3066a

>  <HIPPO Compound ID>  (1000) 
349597

>  <tags>  (1000) 
openbind_a71ev2a_c2_elabs,syndirella_product,openbind_a71ev2a_c2_elabs_fragonly_scored_top80percent,openbind_a71ev2a_c2_elabs_scored,BulkDock Fragalysis export,openbind_a71ev2a_c2_elabs_scored_top80percent,openbind_a71ev2a_c2_elabs_activefrags_only_scored_5.2plus,syndirella_placed

>  <smina_score_min>  (1000) 
-6.272

$$$$
P576742
     RDKit          3D

 17 18  0  0  0  0  0  0  0  0999 V2000
    9.1581    8.6257   23.4200 C   0  0  0  0  0  0  0  0  0  0  0  0
    9.0554   10.0142   23.8078 N   0  0  0  0  0  0  0  0  0  0  0  0
    9.8960   10.9815   23.3346 C   0  0  0  0  0  0  0  0  0  0  0  0
    9.6999   12.1339   24.0728 C   0  0  0  0  0  0  0  0  0  0  0  0
   10.5614   13.3181   24.1011 C   0  0  0  0  0  0  0  0  0  0  0  0
   10.5810   14.0056   25.0380 O   0  0  0  0  0  0  0  0  0  0  0  0
   11.3588   13.3912   22.8047 N   0  0  0  0  0  0  0  0  0  0  0  0
   12.2814   14.3725   22.3381 C   0  0  0  0  0  0  0  0  0  0  0  0
   12.2723   14.4333   20.8265 C   0  0  0  0  0  0  0  0  0  0  0  0
   10.6187   14.9130   20.2104 S   0  0  0  0  0  0  0  0  0  0  0  0
    8.5470   11.9026   24.8787 C   0  0  0  0  0  0  0  0  0  0  0  0
    7.8118   12.7148   25.7678 C   0  0  0  0  0  0  0  0  0  0  0  0
    6.8286   12.1444   26.5752 C   0  0  0  0  0  0  0  0  0  0  0  0
    6.5674   10.7842   26.4882 C   0  0  0  0  0  0  0  0  0  0  0  0
    5.4253    9.9926   27.7784 Br  0  0  0  0  0  0  0  0  0  0  0  0
    7.2061    9.9753   25.5424 C   0  0  0  0  0  0  0  0  0  0  0  0
    8.2074   10.5526   24.7498 C   0  0  0  0  0  0  0  0  0  0  0  0
  1  2  1  0
  2  3  1  0
  3  4  2  0
  4  5  1  0
  5  6  2  0
  5  7  1  0
  7  8  1  0
  8  9  1  0
  9 10  1  0
  4 11  1  0
 11 12  2  0
 12 13  1  0
 13 14  2  0
 14 15  1  0
 14 16  1  0
 16 17  2  0
 17  2  1  0
 17 11  1  0
M  END
>  <alias>  (1001) 
None

>  <rmsd(smina/fragmenstein)>  (1001) 
0.234

>  <smiles>  (1001) 
Cn1cc(C(=O)NCCS)c2ccc(Br)cc21

>  <gnina_score>  (1001) 
5.555

>  <inspiration_score>  (1001) 
None

>  <energy_score>  (1001) 
-17.749847

>  <distance_score>  (1001) 
0.514178

>  <gnina_score_min>  (1001) 
5.606

>  <inchikey>  (1001) 
SCKZLWODOPSQRX-UHFFFAOYSA-N

>  <exports>  (1001) 
['/opt/xchem-fragalysis-2/maxwin/BulkDock/OUTPUTS/openbind_a71ev2a_c2_elabs_1LOUU54.sdf', '/opt/xchem-fragalysis-2/maxwin/BulkDock/OUTPUTS/openbind_a71ev2a_c2_elabs_1LSYIDY.sdf']

>  <name>  (1001) 
P576742

>  <ref_pdb>  (1001) 
A3066a

>  <subsites>  (1001) 
None

>  <HIPPO Pose ID>  (1001) 
576742

>  <ref_mols>  (1001) 
A3066a

>  <HIPPO Compound ID>  (1001) 
349602

>  <tags>  (1001) 
openbind_a71ev2a_c2_elabs,syndirella_product,openbind_a71ev2a_c2_elabs_fragonly_scored_top80percent,BulkDock Fragalysis export,openbind_a71ev2a_c2_elabs_scored,openbind_a71ev2a_c2_elabs_scored_top80percent,openbind_a71ev2a_c2_elabs_activefrags_only_scored_5.2plus,openbind_a71ev2a_c2_elabs_activefrags_only_scored_5.5plus,syndirella_placed

>  <smina_score_min>  (1001) 
-6.68

$$$$
P576743
     RDKit          3D

 17 18  0  0  0  0  0  0  0  0999 V2000
    9.1205    8.4260   23.4987 C   0  0  0  0  0  0  0  0  0  0  0  0
    9.0650    9.8359   23.7785 N   0  0  0  0  0  0  0  0  0  0  0  0
    9.9380   10.7130   23.2151 C   0  0  0  0  0  0  0  0  0  0  0  0
    9.8360   11.9123   23.8844 C   0  0  0  0  0  0  0  0  0  0  0  0
   10.7688   13.0262   23.7964 C   0  0  0  0  0  0  0  0  0  0  0  0
   10.8507   13.7849   24.6759 O   0  0  0  0  0  0  0  0  0  0  0  0
   11.5028   12.9806   22.4520 N   0  0  0  0  0  0  0  0  0  0  0  0
   12.4149   13.8990   21.8665 C   0  0  0  0  0  0  0  0  0  0  0  0
   11.7707   15.2606   21.8499 C   0  0  0  0  0  0  0  0  0  0  0  0
    9.9929   15.3028   20.6351 I   0  0  0  0  0  0  0  0  0  0  0  0
    8.6844   11.8132   24.7223 C   0  0  0  0  0  0  0  0  0  0  0  0
    8.0019   12.7280   25.5543 C   0  0  0  0  0  0  0  0  0  0  0  0
    6.9380   12.2855   26.3406 C   0  0  0  0  0  0  0  0  0  0  0  0
    6.5606   10.9540   26.3009 C   0  0  0  0  0  0  0  0  0  0  0  0
    5.5765   10.5347   27.1067 F   0  0  0  0  0  0  0  0  0  0  0  0
    7.1883   10.0326   25.4659 C   0  0  0  0  0  0  0  0  0  0  0  0
    8.2499   10.4844   24.6739 C   0  0  0  0  0  0  0  0  0  0  0  0
  1  2  1  0
  2  3  1  0
  3  4  2  0
  4  5  1  0
  5  6  2  0
  5  7  1  0
  7  8  1  0
  8  9  1  0
  9 10  1  0
  4 11  1  0
 11 12  2  0
 12 13  1  0
 13 14  2  0
 14 15  1  0
 14 16  1  0
 16 17  2  0
 17  2  1  0
 17 11  1  0
M  END
>  <alias>  (1002) 
None

>  <rmsd(smina/fragmenstein)>  (1002) 
0.245

>  <smiles>  (1002) 
Cn1cc(C(=O)NCCI)c2ccc(F)cc21

>  <gnina_score>  (1002) 
5.532

>  <inspiration_score>  (1002) 
None

>  <energy_score>  (1002) 
-10.053966

>  <distance_score>  (1002) 
0.428076

>  <gnina_score_min>  (1002) 
5.602

>  <inchikey>  (1002) 
CYLCRYPCUPIFSI-UHFFFAOYSA-N

>  <exports>  (1002) 
['/opt/xchem-fragalysis-2/maxwin/BulkDock/OUTPUTS/openbind_a71ev2a_c2_elabs_1LOUU54.sdf', '/opt/xchem-fragalysis-2/maxwin/BulkDock/OUTPUTS/openbind_a71ev2a_c2_elabs_1LSYIDY.sdf']

>  <name>  (1002) 
P576743

>  <ref_pdb>  (1002) 
A3066a

>  <subsites>  (1002) 
None

>  <HIPPO Pose ID>  (1002) 
576743

>  <ref_mols>  (1002) 
A3066a

>  <HIPPO Compound ID>  (1002) 
349607

>  <tags>  (1002) 
openbind_a71ev2a_c2_elabs,syndirella_product,openbind_a71ev2a_c2_elabs_fragonly_scored_top80percent,BulkDock Fragalysis export,openbind_a71ev2a_c2_elabs_scored,openbind_a71ev2a_c2_elabs_scored_top80percent,openbind_a71ev2a_c2_elabs_activefrags_only_scored_5.2plus,openbind_a71ev2a_c2_elabs_activefrags_only_scored_5.5plus,syndirella_placed

>  <smina_score_min>  (1002) 
-6.474

$$$$
P576744
     RDKit          3D

 17 19  0  0  0  0  0  0  0  0999 V2000
    9.2930    8.5516   23.4030 C   0  0  0  0  0  0  0  0  0  0  0  0
    9.1708    9.9548   23.7234 N   0  0  0  0  0  0  0  0  0  0  0  0
    9.9489   10.9222   23.1575 C   0  0  0  0  0  0  0  0  0  0  0  0
    9.6907   12.1230   23.7855 C   0  0  0  0  0  0  0  0  0  0  0  0
   10.3981   13.3806   23.5740 C   0  0  0  0  0  0  0  0  0  0  0  0
   10.5289   14.1320   24.4544 O   0  0  0  0  0  0  0  0  0  0  0  0
   10.8414   13.4789   22.1069 N   0  0  0  0  0  0  0  0  0  0  0  0
   11.4385   14.5307   21.4073 C   0  0  0  0  0  0  0  0  0  0  0  0
   12.4420   14.1787   20.3493 C   0  0  0  0  0  0  0  0  0  0  0  0
   12.8761   14.8623   21.6061 C   0  0  0  0  0  0  0  0  0  0  0  0
    8.6146   11.8876   24.6907 C   0  0  0  0  0  0  0  0  0  0  0  0
    7.8690   12.7235   25.5512 C   0  0  0  0  0  0  0  0  0  0  0  0
    6.8588   12.1758   26.3423 C   0  0  0  0  0  0  0  0  0  0  0  0
    6.5938   10.8187   26.2760 C   0  0  0  0  0  0  0  0  0  0  0  0
    5.6402   10.3025   27.0617 F   0  0  0  0  0  0  0  0  0  0  0  0
    7.2988    9.9697   25.4262 C   0  0  0  0  0  0  0  0  0  0  0  0
    8.3111   10.5231   24.6356 C   0  0  0  0  0  0  0  0  0  0  0  0
  1  2  1  0
  2  3  1  0
  3  4  2  0
  4  5  1  0
  5  6  2  0
  5  7  1  0
  7  8  1  0
  8  9  1  0
  9 10  1  0
  4 11  1  0
 11 12  2  0
 12 13  1  0
 13 14  2  0
 14 15  1  0
 14 16  1  0
 16 17  2  0
 17  2  1  0
 10  8  1  0
 17 11  1  0
M  END
>  <alias>  (1003) 
None

>  <rmsd(smina/fragmenstein)>  (1003) 
0.286

>  <smiles>  (1003) 
Cn1cc(C(=O)NC2CC2)c2ccc(F)cc21

>  <gnina_score>  (1003) 
5.236

>  <inspiration_score>  (1003) 
None

>  <energy_score>  (1003) 
-6.141838

>  <distance_score>  (1003) 
0.512395

>  <gnina_score_min>  (1003) 
5.285

>  <inchikey>  (1003) 
MAHMEXQEEDILQF-UHFFFAOYSA-N

>  <exports>  (1003) 
['/opt/xchem-fragalysis-2/maxwin/BulkDock/OUTPUTS/openbind_a71ev2a_c2_elabs_1LOUU54.sdf', '/opt/xchem-fragalysis-2/maxwin/BulkDock/OUTPUTS/openbind_a71ev2a_c2_elabs_1LSYIDY.sdf']

>  <name>  (1003) 
P576744

>  <ref_pdb>  (1003) 
A3066a

>  <subsites>  (1003) 
None

>  <HIPPO Pose ID>  (1003) 
576744

>  <ref_mols>  (1003) 
A3066a

>  <HIPPO Compound ID>  (1003) 
349608

>  <tags>  (1003) 
openbind_a71ev2a_c2_elabs,syndirella_product,openbind_a71ev2a_c2_elabs_fragonly_scored_top80percent,openbind_a71ev2a_c2_elabs_scored,BulkDock Fragalysis export,openbind_a71ev2a_c2_elabs_scored_top80percent,openbind_a71ev2a_c2_elabs_activefrags_only_scored_5.2plus,syndirella_placed

>  <smina_score_min>  (1003) 
-7.184

$$$$
P576745
     RDKit          3D

 17 19  0  0  0  0  0  0  0  0999 V2000
    9.3378    8.6280   23.3001 C   0  0  0  0  0  0  0  0  0  0  0  0
    9.2017   10.0073   23.7118 N   0  0  0  0  0  0  0  0  0  0  0  0
    9.9630   11.0198   23.2227 C   0  0  0  0  0  0  0  0  0  0  0  0
    9.6574   12.1847   23.9038 C   0  0  0  0  0  0  0  0  0  0  0  0
   10.4118   13.4248   23.7237 C   0  0  0  0  0  0  0  0  0  0  0  0
   10.7150   14.0874   24.6338 O   0  0  0  0  0  0  0  0  0  0  0  0
   10.7263   13.5833   22.2245 N   0  0  0  0  0  0  0  0  0  0  0  0
   11.3811   14.6111   21.5366 C   0  0  0  0  0  0  0  0  0  0  0  0
   12.8358   14.8766   21.7151 C   0  0  0  0  0  0  0  0  0  0  0  0
   12.3639   14.1925   20.4769 C   0  0  0  0  0  0  0  0  0  0  0  0
    8.5528   11.8833   24.7694 C   0  0  0  0  0  0  0  0  0  0  0  0
    7.7101   12.6052   25.6530 C   0  0  0  0  0  0  0  0  0  0  0  0
    7.8059   14.4772   25.8927 Br  0  0  0  0  0  0  0  0  0  0  0  0
    6.7216   11.9410   26.3927 C   0  0  0  0  0  0  0  0  0  0  0  0
    6.5435   10.5737   26.2648 C   0  0  0  0  0  0  0  0  0  0  0  0
    7.3305    9.8456   25.3805 C   0  0  0  0  0  0  0  0  0  0  0  0
    8.3181   10.5039   24.6409 C   0  0  0  0  0  0  0  0  0  0  0  0
  1  2  1  0
  2  3  1  0
  3  4  2  0
  4  5  1  0
  5  6  2  0
  5  7  1  0
  7  8  1  0
  8  9  1  0
  9 10  1  0
  4 11  1  0
 11 12  2  0
 12 13  1  0
 12 14  1  0
 14 15  2  0
 15 16  1  0
 16 17  2  0
 17  2  1  0
 10  8  1  0
 17 11  1  0
M  END
>  <alias>  (1004) 
None

>  <rmsd(smina/fragmenstein)>  (1004) 
0.193

>  <smiles>  (1004) 
Cn1cc(C(=O)NC2CC2)c2c(Br)cccc21

>  <gnina_score>  (1004) 
5.43

>  <inspiration_score>  (1004) 
None

>  <energy_score>  (1004) 
-3.56802

>  <distance_score>  (1004) 
0.546121

>  <gnina_score_min>  (1004) 
5.398

>  <inchikey>  (1004) 
VOFRLLZCPQWXDP-UHFFFAOYSA-N

>  <exports>  (1004) 
['/opt/xchem-fragalysis-2/maxwin/BulkDock/OUTPUTS/openbind_a71ev2a_c2_elabs_1LOUU54.sdf', '/opt/xchem-fragalysis-2/maxwin/BulkDock/OUTPUTS/openbind_a71ev2a_c2_elabs_1LSYIDY.sdf']

>  <name>  (1004) 
P576745

>  <ref_pdb>  (1004) 
A3066a

>  <subsites>  (1004) 
None

>  <HIPPO Pose ID>  (1004) 
576745

>  <ref_mols>  (1004) 
A3066a

>  <HIPPO Compound ID>  (1004) 
349609

>  <tags>  (1004) 
openbind_a71ev2a_c2_elabs,syndirella_product,openbind_a71ev2a_c2_elabs_fragonly_scored_top80percent,openbind_a71ev2a_c2_elabs_scored,BulkDock Fragalysis export,openbind_a71ev2a_c2_elabs_scored_top80percent,openbind_a71ev2a_c2_elabs_activefrags_only_scored_5.2plus,syndirella_placed

>  <smina_score_min>  (1004) 
-7.195

$$$$
P576746
     RDKit          3D

 17 18  0  0  0  0  0  0  0  0999 V2000
    9.2231    8.6655   23.3333 C   0  0  0  0  0  0  0  0  0  0  0  0
    9.1125   10.0249   23.8135 N   0  0  0  0  0  0  0  0  0  0  0  0
    9.9496   11.0247   23.4302 C   0  0  0  0  0  0  0  0  0  0  0  0
    9.7074   12.1359   24.2226 C   0  0  0  0  0  0  0  0  0  0  0  0
   10.6057   13.2906   24.2998 C   0  0  0  0  0  0  0  0  0  0  0  0
   10.7583   13.8783   25.2893 O   0  0  0  0  0  0  0  0  0  0  0  0
   11.2245   13.4957   22.9241 N   0  0  0  0  0  0  0  0  0  0  0  0
   12.2312   14.4033   22.4874 C   0  0  0  0  0  0  0  0  0  0  0  0
   12.1636   14.5441   20.9826 C   0  0  0  0  0  0  0  0  0  0  0  0
   10.1623   15.2031   20.4085 I   0  0  0  0  0  0  0  0  0  0  0  0
    8.5077   11.8634   24.9562 C   0  0  0  0  0  0  0  0  0  0  0  0
    7.6484   12.5891   25.8196 C   0  0  0  0  0  0  0  0  0  0  0  0
    7.7784   14.4575   26.0954 Br  0  0  0  0  0  0  0  0  0  0  0  0
    6.6186   11.9310   26.5026 C   0  0  0  0  0  0  0  0  0  0  0  0
    6.4161   10.5714   26.3303 C   0  0  0  0  0  0  0  0  0  0  0  0
    7.1966    9.8521   25.4323 C   0  0  0  0  0  0  0  0  0  0  0  0
    8.2221   10.5049   24.7442 C   0  0  0  0  0  0  0  0  0  0  0  0
  1  2  1  0
  2  3  1  0
  3  4  2  0
  4  5  1  0
  5  6  2  0
  5  7  1  0
  7  8  1  0
  8  9  1  0
  9 10  1  0
  4 11  1  0
 11 12  2  0
 12 13  1  0
 12 14  1  0
 14 15  2  0
 15 16  1  0
 16 17  2  0
 17  2  1  0
 17 11  1  0
M  END
>  <alias>  (1005) 
None

>  <rmsd(smina/fragmenstein)>  (1005) 
0.136

>  <smiles>  (1005) 
Cn1cc(C(=O)NCCI)c2c(Br)cccc21

>  <gnina_score>  (1005) 
5.57

>  <inspiration_score>  (1005) 
None

>  <energy_score>  (1005) 
-14.803225

>  <distance_score>  (1005) 
0.597369

>  <gnina_score_min>  (1005) 
5.601

>  <inchikey>  (1005) 
HONNARXIGDMOAH-UHFFFAOYSA-N

>  <exports>  (1005) 
['/opt/xchem-fragalysis-2/maxwin/BulkDock/OUTPUTS/openbind_a71ev2a_c2_elabs_1LOUU54.sdf', '/opt/xchem-fragalysis-2/maxwin/BulkDock/OUTPUTS/openbind_a71ev2a_c2_elabs_1LSYIDY.sdf']

>  <name>  (1005) 
P576746

>  <ref_pdb>  (1005) 
A3066a

>  <subsites>  (1005) 
None

>  <HIPPO Pose ID>  (1005) 
576746

>  <ref_mols>  (1005) 
A3066a

>  <HIPPO Compound ID>  (1005) 
349610

>  <tags>  (1005) 
openbind_a71ev2a_c2_elabs,syndirella_product,openbind_a71ev2a_c2_elabs_fragonly_scored_top80percent,BulkDock Fragalysis export,openbind_a71ev2a_c2_elabs_scored,openbind_a71ev2a_c2_elabs_scored_top80percent,openbind_a71ev2a_c2_elabs_activefrags_only_scored_5.2plus,openbind_a71ev2a_c2_elabs_activefrags_only_scored_5.5plus,syndirella_placed

>  <smina_score_min>  (1005) 
-6.893

$$$$
P576747
     RDKit          3D

 17 18  0  0  0  0  0  0  0  0999 V2000
    9.3068   15.9716   20.2004 C   0  0  0  0  0  0  0  0  0  0  0  0
   10.2307   15.4283   20.7435 C   0  0  0  0  0  0  0  0  0  0  0  0
   11.3307   14.7591   21.4500 C   0  0  0  0  0  0  0  0  0  0  0  0
   10.7783   13.6464   22.1468 N   0  0  0  0  0  0  0  0  0  0  0  0
   10.4921   13.4480   23.6402 C   0  0  0  0  0  0  0  0  0  0  0  0
   10.7320   14.1306   24.5515 O   0  0  0  0  0  0  0  0  0  0  0  0
    9.7487   12.1971   23.8241 C   0  0  0  0  0  0  0  0  0  0  0  0
   10.0435   11.0364   23.1350 C   0  0  0  0  0  0  0  0  0  0  0  0
    9.2915   10.0188   23.6290 N   0  0  0  0  0  0  0  0  0  0  0  0
    9.4170    8.6426   23.2032 C   0  0  0  0  0  0  0  0  0  0  0  0
    8.4119   10.5069   24.5653 C   0  0  0  0  0  0  0  0  0  0  0  0
    7.4305    9.8368   25.3048 C   0  0  0  0  0  0  0  0  0  0  0  0
    6.6312   10.5558   26.1843 C   0  0  0  0  0  0  0  0  0  0  0  0
    6.7990   11.9236   26.3132 C   0  0  0  0  0  0  0  0  0  0  0  0
    7.7875   12.5979   25.5792 C   0  0  0  0  0  0  0  0  0  0  0  0
    7.8549   14.4686   25.8309 Br  0  0  0  0  0  0  0  0  0  0  0  0
    8.6413   11.8874   24.6946 C   0  0  0  0  0  0  0  0  0  0  0  0
  1  2  3  0
  2  3  1  0
  3  4  1  0
  4  5  1  0
  5  6  2  0
  5  7  1  0
  7  8  2  0
  8  9  1  0
  9 10  1  0
  9 11  1  0
 11 12  2  0
 12 13  1  0
 13 14  2  0
 14 15  1  0
 15 16  1  0
 15 17  2  0
 17  7  1  0
 17 11  1  0
M  END
>  <alias>  (1006) 
None

>  <rmsd(smina/fragmenstein)>  (1006) 
0.272

>  <smiles>  (1006) 
C#CCNC(=O)c1cn(C)c2cccc(Br)c12

>  <gnina_score>  (1006) 
5.499

>  <inspiration_score>  (1006) 
None

>  <energy_score>  (1006) 
-1.790943

>  <distance_score>  (1006) 
0.507575

>  <gnina_score_min>  (1006) 
5.534

>  <inchikey>  (1006) 
CMPKDDGJRPSFQB-UHFFFAOYSA-N

>  <exports>  (1006) 
['/opt/xchem-fragalysis-2/maxwin/BulkDock/OUTPUTS/openbind_a71ev2a_c2_elabs_1LOUU54.sdf', '/opt/xchem-fragalysis-2/maxwin/BulkDock/OUTPUTS/openbind_a71ev2a_c2_elabs_1LSYIDY.sdf']

>  <name>  (1006) 
P576747

>  <ref_pdb>  (1006) 
A3066a

>  <subsites>  (1006) 
None

>  <HIPPO Pose ID>  (1006) 
576747

>  <ref_mols>  (1006) 
A3066a

>  <HIPPO Compound ID>  (1006) 
349613

>  <tags>  (1006) 
openbind_a71ev2a_c2_elabs,syndirella_product,openbind_a71ev2a_c2_elabs_fragonly_scored_top80percent,BulkDock Fragalysis export,openbind_a71ev2a_c2_elabs_scored,openbind_a71ev2a_c2_elabs_scored_top80percent,openbind_a71ev2a_c2_elabs_activefrags_only_scored_5.2plus,openbind_a71ev2a_c2_elabs_activefrags_only_scored_5.5plus,syndirella_placed

>  <smina_score_min>  (1006) 
-7.155

$$$$
P576750
     RDKit          3D

 17 18  0  0  0  0  0  0  0  0999 V2000
    9.3556    8.4789   23.5000 C   0  0  0  0  0  0  0  0  0  0  0  0
    9.0556    9.8734   23.7188 N   0  0  0  0  0  0  0  0  0  0  0  0
    9.7104   10.8726   23.0619 C   0  0  0  0  0  0  0  0  0  0  0  0
    9.2358   12.0875   23.5142 C   0  0  0  0  0  0  0  0  0  0  0  0
    9.7638   13.4071   23.1943 C   0  0  0  0  0  0  0  0  0  0  0  0
    9.4908   14.2927   23.8925 O   0  0  0  0  0  0  0  0  0  0  0  0
   10.7022   13.3477   21.9920 N   0  0  0  0  0  0  0  0  0  0  0  0
   11.5737   14.3325   21.4500 C   0  0  0  0  0  0  0  0  0  0  0  0
   12.6180   14.6819   22.5138 C   0  0  0  0  0  0  0  0  0  0  0  0
   12.9614   13.3535   23.7682 S   0  0  0  0  0  0  0  0  0  0  0  0
    8.2691   11.7995   24.5250 C   0  0  0  0  0  0  0  0  0  0  0  0
    7.4933   12.6030   25.3892 C   0  0  0  0  0  0  0  0  0  0  0  0
    6.6228   11.9946   26.2850 C   0  0  0  0  0  0  0  0  0  0  0  0
    5.8938   12.7527   27.1146 F   0  0  0  0  0  0  0  0  0  0  0  0
    6.4899   10.6192   26.3325 C   0  0  0  0  0  0  0  0  0  0  0  0
    7.2463    9.8115   25.4841 C   0  0  0  0  0  0  0  0  0  0  0  0
    8.1553   10.4106   24.6085 C   0  0  0  0  0  0  0  0  0  0  0  0
  1  2  1  0
  2  3  1  0
  3  4  2  0
  4  5  1  0
  5  6  2  0
  5  7  1  0
  7  8  1  0
  8  9  1  0
  9 10  1  0
  4 11  1  0
 11 12  2  0
 12 13  1  0
 13 14  1  0
 13 15  2  0
 15 16  1  0
 16 17  2  0
 17  2  1  0
 17 11  1  0
M  END
>  <alias>  (1007) 
None

>  <rmsd(smina/fragmenstein)>  (1007) 
0.294

>  <smiles>  (1007) 
Cn1cc(C(=O)NCCS)c2cc(F)ccc21

>  <gnina_score>  (1007) 
5.402

>  <inspiration_score>  (1007) 
None

>  <energy_score>  (1007) 
-1.534079

>  <distance_score>  (1007) 
0.825396

>  <gnina_score_min>  (1007) 
5.375

>  <inchikey>  (1007) 
PVCJPHMERYYFFT-UHFFFAOYSA-N

>  <exports>  (1007) 
['/opt/xchem-fragalysis-2/maxwin/BulkDock/OUTPUTS/openbind_a71ev2a_c2_elabs_1LOUU54.sdf', '/opt/xchem-fragalysis-2/maxwin/BulkDock/OUTPUTS/openbind_a71ev2a_c2_elabs_1LSYIDY.sdf']

>  <name>  (1007) 
P576750

>  <ref_pdb>  (1007) 
A3066a

>  <subsites>  (1007) 
None

>  <HIPPO Pose ID>  (1007) 
576750

>  <ref_mols>  (1007) 
A3066a

>  <HIPPO Compound ID>  (1007) 
349628

>  <tags>  (1007) 
openbind_a71ev2a_c2_elabs,syndirella_product,openbind_a71ev2a_c2_elabs_fragonly_scored_top80percent,openbind_a71ev2a_c2_elabs_scored,BulkDock Fragalysis export,openbind_a71ev2a_c2_elabs_scored_top80percent,openbind_a71ev2a_c2_elabs_activefrags_only_scored_5.2plus,syndirella_placed

>  <smina_score_min>  (1007) 
-5.575

$$$$
P576751
     RDKit          3D

 17 18  0  0  0  0  0  0  0  0999 V2000
    9.3392    8.5281   23.4663 C   0  0  0  0  0  0  0  0  0  0  0  0
    9.1288    9.9334   23.7227 N   0  0  0  0  0  0  0  0  0  0  0  0
    9.8251   10.9168   23.0749 C   0  0  0  0  0  0  0  0  0  0  0  0
    9.4324   12.1364   23.5810 C   0  0  0  0  0  0  0  0  0  0  0  0
    9.9236   13.4597   23.2246 C   0  0  0  0  0  0  0  0  0  0  0  0
    9.8543   14.2985   24.0215 O   0  0  0  0  0  0  0  0  0  0  0  0
   10.4356   13.4996   21.7903 N   0  0  0  0  0  0  0  0  0  0  0  0
   11.0581   14.5519   21.0580 C   0  0  0  0  0  0  0  0  0  0  0  0
   12.3555   14.7691   21.6800 C   0  0  0  0  0  0  0  0  0  0  0  0
   13.3260   14.8721   22.2997 N   0  0  0  0  0  0  0  0  0  0  0  0
    8.4548   11.8712   24.5888 C   0  0  0  0  0  0  0  0  0  0  0  0
    7.7026   12.7015   25.4500 C   0  0  0  0  0  0  0  0  0  0  0  0
    6.8154   12.1385   26.3654 C   0  0  0  0  0  0  0  0  0  0  0  0
    6.6497   10.7632   26.4046 C   0  0  0  0  0  0  0  0  0  0  0  0
    5.5497   10.0179   27.7562 Br  0  0  0  0  0  0  0  0  0  0  0  0
    7.3345    9.9210   25.5212 C   0  0  0  0  0  0  0  0  0  0  0  0
    8.2646   10.4902   24.6400 C   0  0  0  0  0  0  0  0  0  0  0  0
  1  2  1  0
  2  3  1  0
  3  4  2  0
  4  5  1  0
  5  6  2  0
  5  7  1  0
  7  8  1  0
  8  9  1  0
  9 10  3  0
  4 11  1  0
 11 12  2  0
 12 13  1  0
 13 14  2  0
 14 15  1  0
 14 16  1  0
 16 17  2  0
 17  2  1  0
 17 11  1  0
M  END
>  <alias>  (1008) 
None

>  <rmsd(smina/fragmenstein)>  (1008) 
0.451

>  <smiles>  (1008) 
Cn1cc(C(=O)NCC#N)c2ccc(Br)cc21

>  <gnina_score>  (1008) 
5.407

>  <inspiration_score>  (1008) 
None

>  <energy_score>  (1008) 
-2.291138

>  <distance_score>  (1008) 
0.808897

>  <gnina_score_min>  (1008) 
5.5

>  <inchikey>  (1008) 
WKFUHDFBHALPAB-UHFFFAOYSA-N

>  <exports>  (1008) 
['/opt/xchem-fragalysis-2/maxwin/BulkDock/OUTPUTS/openbind_a71ev2a_c2_elabs_1LOUU54.sdf', '/opt/xchem-fragalysis-2/maxwin/BulkDock/OUTPUTS/openbind_a71ev2a_c2_elabs_1LSYIDY.sdf']

>  <name>  (1008) 
P576751

>  <ref_pdb>  (1008) 
A3066a

>  <subsites>  (1008) 
None

>  <HIPPO Pose ID>  (1008) 
576751

>  <ref_mols>  (1008) 
A3066a

>  <HIPPO Compound ID>  (1008) 
349636

>  <tags>  (1008) 
openbind_a71ev2a_c2_elabs,syndirella_product,openbind_a71ev2a_c2_elabs_fragonly_scored_top80percent,BulkDock Fragalysis export,openbind_a71ev2a_c2_elabs_scored,openbind_a71ev2a_c2_elabs_scored_top80percent,openbind_a71ev2a_c2_elabs_activefrags_only_scored_5.2plus,openbind_a71ev2a_c2_elabs_activefrags_only_scored_5.5plus,syndirella_placed

>  <smina_score_min>  (1008) 
-6.73

$$$$
P576752
     RDKit          3D

 17 18  0  0  0  0  0  0  0  0999 V2000
    5.4021   12.6401   28.0642 C   0  0  0  0  0  0  0  0  0  0  0  0
    6.4424   13.1077   27.2163 O   0  0  0  0  0  0  0  0  0  0  0  0
    6.9985   12.2033   26.3531 C   0  0  0  0  0  0  0  0  0  0  0  0
    6.6595   10.8590   26.2479 C   0  0  0  0  0  0  0  0  0  0  0  0
    7.3300   10.0150   25.3551 C   0  0  0  0  0  0  0  0  0  0  0  0
    8.3534   10.5494   24.5646 C   0  0  0  0  0  0  0  0  0  0  0  0
    8.7165   11.8953   24.6450 C   0  0  0  0  0  0  0  0  0  0  0  0
    8.0172   12.7261   25.5475 C   0  0  0  0  0  0  0  0  0  0  0  0
    9.8183   12.1031   23.7517 C   0  0  0  0  0  0  0  0  0  0  0  0
   10.6507   13.3039   23.6522 C   0  0  0  0  0  0  0  0  0  0  0  0
   10.7347   14.0137   24.5756 O   0  0  0  0  0  0  0  0  0  0  0  0
   11.3693   13.3542   22.2764 N   0  0  0  0  0  0  0  0  0  0  0  0
   12.1809   14.2487   21.7753 C   0  0  0  0  0  0  0  0  0  0  0  0
   12.9026   15.0434   21.3546 N   0  0  0  0  0  0  0  0  0  0  0  0
    9.9920   10.9130   23.0746 C   0  0  0  0  0  0  0  0  0  0  0  0
    9.1820    9.9671   23.6355 N   0  0  0  0  0  0  0  0  0  0  0  0
    9.2572    8.5622   23.3118 C   0  0  0  0  0  0  0  0  0  0  0  0
  1  2  1  0
  2  3  1  0
  3  4  2  0
  4  5  1  0
  5  6  2  0
  6  7  1  0
  7  8  2  0
  7  9  1  0
  9 10  1  0
 10 11  2  0
 10 12  1  0
 12 13  1  0
 13 14  3  0
  9 15  2  0
 15 16  1  0
 16 17  1  0
  8  3  1  0
 16  6  1  0
M  END
>  <alias>  (1009) 
None

>  <rmsd(smina/fragmenstein)>  (1009) 
0.309

>  <smiles>  (1009) 
COc1ccc2c(c1)c(C(=O)NC#N)cn2C

>  <gnina_score>  (1009) 
5.237

>  <inspiration_score>  (1009) 
None

>  <energy_score>  (1009) 
-1.780646

>  <distance_score>  (1009) 
0.287229

>  <gnina_score_min>  (1009) 
5.209

>  <inchikey>  (1009) 
XHXIELBJHBOIMZ-UHFFFAOYSA-N

>  <exports>  (1009) 
['/opt/xchem-fragalysis-2/maxwin/BulkDock/OUTPUTS/openbind_a71ev2a_c2_elabs_1LOUU54.sdf', '/opt/xchem-fragalysis-2/maxwin/BulkDock/OUTPUTS/openbind_a71ev2a_c2_elabs_1LSYIDY.sdf']

>  <name>  (1009) 
P576752

>  <ref_pdb>  (1009) 
A3066a

>  <subsites>  (1009) 
None

>  <HIPPO Pose ID>  (1009) 
576752

>  <ref_mols>  (1009) 
A3066a

>  <HIPPO Compound ID>  (1009) 
349637

>  <tags>  (1009) 
openbind_a71ev2a_c2_elabs,syndirella_product,openbind_a71ev2a_c2_elabs_fragonly_scored_top80percent,openbind_a71ev2a_c2_elabs_scored,BulkDock Fragalysis export,openbind_a71ev2a_c2_elabs_scored_top80percent,openbind_a71ev2a_c2_elabs_activefrags_only_scored_5.2plus,syndirella_placed

>  <smina_score_min>  (1009) 
-6.452

$$$$
P576753
     RDKit          3D

 18 19  0  0  0  0  0  0  0  0999 V2000
   12.3800   14.4198   20.9897 C   0  0  0  0  0  0  0  0  0  0  0  0
   11.2062   14.9276   21.8077 C   0  0  1  0  0  0  0  0  0  0  0  0
   10.1845   15.8552   21.1358 C   0  0  0  0  0  0  0  0  0  0  0  0
    9.7989   15.4750   19.4654 Cl  0  0  0  0  0  0  0  0  0  0  0  0
   10.5301   13.8195   22.4208 N   0  0  0  0  0  0  0  0  0  0  0  0
   10.3866   13.4346   23.8932 C   0  0  0  0  0  0  0  0  0  0  0  0
   10.7267   13.9924   24.8550 O   0  0  0  0  0  0  0  0  0  0  0  0
    9.6493   12.1864   23.9759 C   0  0  0  0  0  0  0  0  0  0  0  0
    9.9660   11.0632   23.2372 C   0  0  0  0  0  0  0  0  0  0  0  0
    9.2187   10.0238   23.6971 N   0  0  0  0  0  0  0  0  0  0  0  0
    9.3786    8.6563   23.2557 C   0  0  0  0  0  0  0  0  0  0  0  0
    8.3201   10.4799   24.6352 C   0  0  0  0  0  0  0  0  0  0  0  0
    7.3382    9.7942   25.3548 C   0  0  0  0  0  0  0  0  0  0  0  0
    6.5319   10.4947   26.2464 C   0  0  0  0  0  0  0  0  0  0  0  0
    6.6847   11.8630   26.4021 C   0  0  0  0  0  0  0  0  0  0  0  0
    7.6706   12.5537   25.6871 C   0  0  0  0  0  0  0  0  0  0  0  0
    7.7402   14.4274   25.9426 Br  0  0  0  0  0  0  0  0  0  0  0  0
    8.5317   11.8552   24.8036 C   0  0  0  0  0  0  0  0  0  0  0  0
  2  1  1  6
  2  3  1  0
  3  4  1  0
  2  5  1  0
  5  6  1  0
  6  7  2  0
  6  8  1  0
  8  9  2  0
  9 10  1  0
 10 11  1  0
 10 12  1  0
 12 13  2  0
 13 14  1  0
 14 15  2  0
 15 16  1  0
 16 17  1  0
 16 18  2  0
 18  8  1  0
 18 12  1  0
M  END
>  <alias>  (1010) 
None

>  <rmsd(smina/fragmenstein)>  (1010) 
0.622

>  <smiles>  (1010) 
C[C@@H](CCl)NC(=O)c1cn(C)c2cccc(Br)c12

>  <gnina_score>  (1010) 
5.612

>  <inspiration_score>  (1010) 
None

>  <energy_score>  (1010) 
-3.420807

>  <distance_score>  (1010) 
0.619243

>  <gnina_score_min>  (1010) 
5.625

>  <inchikey>  (1010) 
PUOKHRVVODUHNP-QMMMGPOBSA-N

>  <exports>  (1010) 
['/opt/xchem-fragalysis-2/maxwin/BulkDock/OUTPUTS/openbind_a71ev2a_c2_elabs_1LOUU54.sdf', '/opt/xchem-fragalysis-2/maxwin/BulkDock/OUTPUTS/openbind_a71ev2a_c2_elabs_1LSYIDY.sdf']

>  <name>  (1010) 
P576753

>  <ref_pdb>  (1010) 
A3066a

>  <subsites>  (1010) 
None

>  <HIPPO Pose ID>  (1010) 
576753

>  <ref_mols>  (1010) 
A3066a

>  <HIPPO Compound ID>  (1010) 
349639

>  <tags>  (1010) 
openbind_a71ev2a_c2_elabs,syndirella_product,openbind_a71ev2a_c2_elabs_fragonly_scored_top80percent,BulkDock Fragalysis export,openbind_a71ev2a_c2_elabs_scored,openbind_a71ev2a_c2_elabs_scored_top80percent,openbind_a71ev2a_c2_elabs_activefrags_only_scored_5.2plus,openbind_a71ev2a_c2_elabs_activefrags_only_scored_5.5plus,syndirella_placed

>  <smina_score_min>  (1010) 
-7.082

$$$$
P576754
     RDKit          3D

 18 19  0  0  0  0  0  0  0  0999 V2000
    8.9787    8.9657   23.8125 C   0  0  0  0  0  0  0  0  0  0  0  0
    9.0015   10.3983   24.0250 N   0  0  0  0  0  0  0  0  0  0  0  0
    9.8819   11.2011   23.3456 C   0  0  0  0  0  0  0  0  0  0  0  0
    9.7673   12.4834   23.8347 C   0  0  0  0  0  0  0  0  0  0  0  0
   10.4265   13.6731   23.3391 C   0  0  0  0  0  0  0  0  0  0  0  0
   10.9194   14.4506   24.0480 O   0  0  0  0  0  0  0  0  0  0  0  0
   10.2321   13.6966   21.8271 N   0  0  0  0  0  0  0  0  0  0  0  0
   10.6816   14.6303   20.8499 C   0  0  0  0  0  0  0  0  0  0  0  0
   12.1818   14.4860   20.6595 C   0  0  0  0  0  0  0  0  0  0  0  0
   12.8777   15.2630   21.6831 N   0  0  0  0  0  0  0  0  0  0  0  0
   13.2996   14.3187   22.6957 O   0  0  0  0  0  0  0  0  0  0  0  0
    8.7689   12.4686   24.8336 C   0  0  0  0  0  0  0  0  0  0  0  0
    8.2167   13.4989   25.6263 C   0  0  0  0  0  0  0  0  0  0  0  0
    7.1599   13.2390   26.4850 C   0  0  0  0  0  0  0  0  0  0  0  0
    6.6229   11.9704   26.5243 C   0  0  0  0  0  0  0  0  0  0  0  0
    7.1354   10.9427   25.7216 C   0  0  0  0  0  0  0  0  0  0  0  0
    6.1602    9.3699   25.7653 Br  0  0  0  0  0  0  0  0  0  0  0  0
    8.2449   11.1702   24.8934 C   0  0  0  0  0  0  0  0  0  0  0  0
  1  2  1  0
  2  3  1  0
  3  4  2  0
  4  5  1  0
  5  6  2  0
  5  7  1  0
  7  8  1  0
  8  9  1  0
  9 10  1  0
 10 11  1  0
  4 12  1  0
 12 13  2  0
 13 14  1  0
 14 15  2  0
 15 16  1  0
 16 17  1  0
 16 18  2  0
 18  2  1  0
 18 12  1  0
M  END
>  <alias>  (1011) 
None

>  <rmsd(smina/fragmenstein)>  (1011) 
0.839

>  <smiles>  (1011) 
Cn1cc(C(=O)NCCNO)c2cccc(Br)c21

>  <gnina_score>  (1011) 
5.318

>  <inspiration_score>  (1011) 
None

>  <energy_score>  (1011) 
-1.598946

>  <distance_score>  (1011) 
1.054605

>  <gnina_score_min>  (1011) 
5.508

>  <inchikey>  (1011) 
JGKXLWMZFQLQSO-UHFFFAOYSA-N

>  <exports>  (1011) 
['/opt/xchem-fragalysis-2/maxwin/BulkDock/OUTPUTS/openbind_a71ev2a_c2_elabs_1LOUU54.sdf', '/opt/xchem-fragalysis-2/maxwin/BulkDock/OUTPUTS/openbind_a71ev2a_c2_elabs_1LSYIDY.sdf']

>  <name>  (1011) 
P576754

>  <ref_pdb>  (1011) 
A3066a

>  <subsites>  (1011) 
None

>  <HIPPO Pose ID>  (1011) 
576754

>  <ref_mols>  (1011) 
A3066a

>  <HIPPO Compound ID>  (1011) 
349644

>  <tags>  (1011) 
openbind_a71ev2a_c2_elabs,syndirella_product,openbind_a71ev2a_c2_elabs_fragonly_scored_top80percent,BulkDock Fragalysis export,openbind_a71ev2a_c2_elabs_scored,openbind_a71ev2a_c2_elabs_scored_top80percent,openbind_a71ev2a_c2_elabs_activefrags_only_scored_5.2plus,openbind_a71ev2a_c2_elabs_activefrags_only_scored_5.5plus,syndirella_placed

>  <smina_score_min>  (1011) 
-5.928

$$$$
P576755
     RDKit          3D

 18 19  0  0  0  0  0  0  0  0999 V2000
    9.0680    8.9389   23.6454 C   0  0  0  0  0  0  0  0  0  0  0  0
    9.1548   10.3728   23.8307 N   0  0  0  0  0  0  0  0  0  0  0  0
   10.0647   11.1346   23.1387 C   0  0  0  0  0  0  0  0  0  0  0  0
   10.0743   12.4052   23.6668 C   0  0  0  0  0  0  0  0  0  0  0  0
   10.9034   13.5439   23.2823 C   0  0  0  0  0  0  0  0  0  0  0  0
   11.3605   14.2354   24.0973 O   0  0  0  0  0  0  0  0  0  0  0  0
   10.9270   13.6575   21.7610 N   0  0  0  0  0  0  0  0  0  0  0  0
   11.4300   14.6835   20.9207 C   0  0  0  0  0  0  0  0  0  0  0  0
   10.3300   15.6165   20.6548 C   0  0  0  0  0  0  0  0  0  0  0  0
    9.5068   16.4754   20.4905 C   0  0  0  0  0  0  0  0  0  0  0  0
    8.3398   17.9755   20.2838 Br  0  0  0  0  0  0  0  0  0  0  0  0
    9.0241   12.4484   24.6278 C   0  0  0  0  0  0  0  0  0  0  0  0
    8.5029   13.5020   25.4120 C   0  0  0  0  0  0  0  0  0  0  0  0
    7.4120   13.3010   26.2469 C   0  0  0  0  0  0  0  0  0  0  0  0
    6.8294   12.0538   26.3051 C   0  0  0  0  0  0  0  0  0  0  0  0
    7.3216   10.9926   25.5353 C   0  0  0  0  0  0  0  0  0  0  0  0
    6.3511    9.4185   25.6808 Br  0  0  0  0  0  0  0  0  0  0  0  0
    8.4325   11.1789   24.6941 C   0  0  0  0  0  0  0  0  0  0  0  0
  1  2  1  0
  2  3  1  0
  3  4  2  0
  4  5  1  0
  5  6  2  0
  5  7  1  0
  7  8  1  0
  8  9  1  0
  9 10  3  0
 10 11  1  0
  4 12  1  0
 12 13  2  0
 13 14  1  0
 14 15  2  0
 15 16  1  0
 16 17  1  0
 16 18  2  0
 18  2  1  0
 18 12  1  0
M  END
>  <alias>  (1012) 
None

>  <rmsd(smina/fragmenstein)>  (1012) 
0.614

>  <smiles>  (1012) 
Cn1cc(C(=O)NCC#CBr)c2cccc(Br)c21

>  <gnina_score>  (1012) 
5.47

>  <inspiration_score>  (1012) 
None

>  <energy_score>  (1012) 
-2.065912

>  <distance_score>  (1012) 
0.865651

>  <gnina_score_min>  (1012) 
5.358

>  <inchikey>  (1012) 
YFJDDQQENHBVMR-UHFFFAOYSA-N

>  <exports>  (1012) 
['/opt/xchem-fragalysis-2/maxwin/BulkDock/OUTPUTS/openbind_a71ev2a_c2_elabs_1LOUU54.sdf', '/opt/xchem-fragalysis-2/maxwin/BulkDock/OUTPUTS/openbind_a71ev2a_c2_elabs_1LSYIDY.sdf']

>  <name>  (1012) 
P576755

>  <ref_pdb>  (1012) 
A3066a

>  <subsites>  (1012) 
None

>  <HIPPO Pose ID>  (1012) 
576755

>  <ref_mols>  (1012) 
A3066a

>  <HIPPO Compound ID>  (1012) 
349645

>  <tags>  (1012) 
openbind_a71ev2a_c2_elabs,syndirella_product,openbind_a71ev2a_c2_elabs_fragonly_scored_top80percent,openbind_a71ev2a_c2_elabs_scored,BulkDock Fragalysis export,openbind_a71ev2a_c2_elabs_scored_top80percent,openbind_a71ev2a_c2_elabs_activefrags_only_scored_5.2plus,syndirella_placed

>  <smina_score_min>  (1012) 
-6.935

$$$$
P576758
     RDKit          3D

 18 19  0  0  0  0  0  0  0  0999 V2000
   13.1519   15.0543   21.6104 C   0  0  0  0  0  0  0  0  0  0  0  0
   11.9585   15.0296   21.5634 C   0  0  0  0  0  0  0  0  0  0  0  0
   10.5116   14.9857   21.5006 C   0  0  1  0  0  0  0  0  0  0  0  0
   10.0228   15.0230   20.0715 C   0  0  0  0  0  0  0  0  0  0  0  0
   10.1220   13.8136   22.2019 N   0  0  0  0  0  0  0  0  0  0  0  0
   10.1683   13.4873   23.6948 C   0  0  0  0  0  0  0  0  0  0  0  0
   10.6034   14.0940   24.5862 O   0  0  0  0  0  0  0  0  0  0  0  0
    9.5471   12.1947   23.8966 C   0  0  0  0  0  0  0  0  0  0  0  0
    9.9241   11.0546   23.2157 C   0  0  0  0  0  0  0  0  0  0  0  0
    9.2097   10.0067   23.7058 N   0  0  0  0  0  0  0  0  0  0  0  0
    9.3910    8.6372   23.2793 C   0  0  0  0  0  0  0  0  0  0  0  0
    8.3056   10.4612   24.6405 C   0  0  0  0  0  0  0  0  0  0  0  0
    7.3427    9.7689   25.3778 C   0  0  0  0  0  0  0  0  0  0  0  0
    6.5303   10.4664   26.2667 C   0  0  0  0  0  0  0  0  0  0  0  0
    6.6591   11.8391   26.4037 C   0  0  0  0  0  0  0  0  0  0  0  0
    7.6178   12.5394   25.6620 C   0  0  0  0  0  0  0  0  0  0  0  0
    7.6568   14.4175   25.8905 Br  0  0  0  0  0  0  0  0  0  0  0  0
    8.4785   11.8451   24.7754 C   0  0  0  0  0  0  0  0  0  0  0  0
  1  2  3  0
  2  3  1  0
  3  4  1  6
  3  5  1  0
  5  6  1  0
  6  7  2  0
  6  8  1  0
  8  9  2  0
  9 10  1  0
 10 11  1  0
 10 12  1  0
 12 13  2  0
 13 14  1  0
 14 15  2  0
 15 16  1  0
 16 17  1  0
 16 18  2  0
 18  8  1  0
 18 12  1  0
M  END
>  <alias>  (1013) 
None

>  <rmsd(smina/fragmenstein)>  (1013) 
0.196

>  <smiles>  (1013) 
C#C[C@@H](C)NC(=O)c1cn(C)c2cccc(Br)c12

>  <gnina_score>  (1013) 
5.538

>  <inspiration_score>  (1013) 
None

>  <energy_score>  (1013) 
-3.678246

>  <distance_score>  (1013) 
0.812449

>  <gnina_score_min>  (1013) 
5.501

>  <inchikey>  (1013) 
OMPYXKHSOHXWCE-SECBINFHSA-N

>  <exports>  (1013) 
['/opt/xchem-fragalysis-2/maxwin/BulkDock/OUTPUTS/openbind_a71ev2a_c2_elabs_1LOUU54.sdf', '/opt/xchem-fragalysis-2/maxwin/BulkDock/OUTPUTS/openbind_a71ev2a_c2_elabs_1LSYIDY.sdf']

>  <name>  (1013) 
P576758

>  <ref_pdb>  (1013) 
A3066a

>  <subsites>  (1013) 
None

>  <HIPPO Pose ID>  (1013) 
576758

>  <ref_mols>  (1013) 
A3066a

>  <HIPPO Compound ID>  (1013) 
349648

>  <tags>  (1013) 
openbind_a71ev2a_c2_elabs,syndirella_product,openbind_a71ev2a_c2_elabs_fragonly_scored_top80percent,BulkDock Fragalysis export,openbind_a71ev2a_c2_elabs_scored,openbind_a71ev2a_c2_elabs_scored_top80percent,openbind_a71ev2a_c2_elabs_activefrags_only_scored_5.2plus,openbind_a71ev2a_c2_elabs_activefrags_only_scored_5.5plus,syndirella_placed

>  <smina_score_min>  (1013) 
-7.069

$$$$
P576759
     RDKit          3D

 18 19  0  0  0  0  0  0  0  0999 V2000
    9.2270    8.7073   23.3252 C   0  0  0  0  0  0  0  0  0  0  0  0
    9.1016   10.0591   23.8268 N   0  0  0  0  0  0  0  0  0  0  0  0
    9.9366   11.0721   23.4691 C   0  0  0  0  0  0  0  0  0  0  0  0
    9.6712   12.1735   24.2698 C   0  0  0  0  0  0  0  0  0  0  0  0
   10.5512   13.3416   24.3946 C   0  0  0  0  0  0  0  0  0  0  0  0
   10.6536   13.9145   25.3987 O   0  0  0  0  0  0  0  0  0  0  0  0
   11.2533   13.5533   23.0615 N   0  0  0  0  0  0  0  0  0  0  0  0
   12.2965   14.4484   22.6978 C   0  0  0  0  0  0  0  0  0  0  0  0
   12.4992   14.4039   21.2097 C   0  0  0  0  0  0  0  0  0  0  0  0
   11.2125   14.6867   20.4554 C   0  0  0  0  0  0  0  0  0  0  0  0
   11.5634   14.5323   18.7428 Cl  0  0  0  0  0  0  0  0  0  0  0  0
    8.4647   11.8780   24.9838 C   0  0  0  0  0  0  0  0  0  0  0  0
    7.5882   12.5854   25.8453 C   0  0  0  0  0  0  0  0  0  0  0  0
    7.6758   14.4571   26.1225 Br  0  0  0  0  0  0  0  0  0  0  0  0
    6.5685   11.9051   26.5209 C   0  0  0  0  0  0  0  0  0  0  0  0
    6.3899   10.5434   26.3392 C   0  0  0  0  0  0  0  0  0  0  0  0
    7.1832    9.8439   25.4368 C   0  0  0  0  0  0  0  0  0  0  0  0
    8.2012   10.5176   24.7585 C   0  0  0  0  0  0  0  0  0  0  0  0
  1  2  1  0
  2  3  1  0
  3  4  2  0
  4  5  1  0
  5  6  2  0
  5  7  1  0
  7  8  1  0
  8  9  1  0
  9 10  1  0
 10 11  1  0
  4 12  1  0
 12 13  2  0
 13 14  1  0
 13 15  1  0
 15 16  2  0
 16 17  1  0
 17 18  2  0
 18  2  1  0
 18 12  1  0
M  END
>  <alias>  (1014) 
None

>  <rmsd(smina/fragmenstein)>  (1014) 
0.845

>  <smiles>  (1014) 
Cn1cc(C(=O)NCCCCl)c2c(Br)cccc21

>  <gnina_score>  (1014) 
5.397

>  <inspiration_score>  (1014) 
None

>  <energy_score>  (1014) 
-2.002224

>  <distance_score>  (1014) 
0.667846

>  <gnina_score_min>  (1014) 
5.515

>  <inchikey>  (1014) 
PTEULWNQCYRDAI-UHFFFAOYSA-N

>  <exports>  (1014) 
['/opt/xchem-fragalysis-2/maxwin/BulkDock/OUTPUTS/openbind_a71ev2a_c2_elabs_1LOUU54.sdf', '/opt/xchem-fragalysis-2/maxwin/BulkDock/OUTPUTS/openbind_a71ev2a_c2_elabs_1LSYIDY.sdf']

>  <name>  (1014) 
P576759

>  <ref_pdb>  (1014) 
A3066a

>  <subsites>  (1014) 
None

>  <HIPPO Pose ID>  (1014) 
576759

>  <ref_mols>  (1014) 
A3066a

>  <HIPPO Compound ID>  (1014) 
349650

>  <tags>  (1014) 
openbind_a71ev2a_c2_elabs,syndirella_product,openbind_a71ev2a_c2_elabs_fragonly_scored_top80percent,BulkDock Fragalysis export,openbind_a71ev2a_c2_elabs_scored,openbind_a71ev2a_c2_elabs_scored_top80percent,openbind_a71ev2a_c2_elabs_activefrags_only_scored_5.2plus,openbind_a71ev2a_c2_elabs_activefrags_only_scored_5.5plus,syndirella_placed

>  <smina_score_min>  (1014) 
-7.024

$$$$
P576760
     RDKit          3D

 18 19  0  0  0  0  0  0  0  0999 V2000
   12.5685   14.1222   20.4731 C   0  0  0  0  0  0  0  0  0  0  0  0
   11.2113   14.7519   20.3994 C   0  0  0  0  0  0  0  0  0  0  0  0
   10.6201   14.9461   19.3397 O   0  0  0  0  0  0  0  0  0  0  0  0
   10.6098   15.1612   21.7109 C   0  0  0  0  0  0  0  0  0  0  0  0
   10.1502   13.9855   22.3740 N   0  0  0  0  0  0  0  0  0  0  0  0
   10.3155   13.5345   23.8233 C   0  0  0  0  0  0  0  0  0  0  0  0
   10.9182   14.0092   24.6967 O   0  0  0  0  0  0  0  0  0  0  0  0
    9.6373   12.2600   23.9672 C   0  0  0  0  0  0  0  0  0  0  0  0
    9.9779   11.1422   23.2307 C   0  0  0  0  0  0  0  0  0  0  0  0
    9.2445   10.0882   23.6825 N   0  0  0  0  0  0  0  0  0  0  0  0
    9.4050    8.7297   23.2104 C   0  0  0  0  0  0  0  0  0  0  0  0
    8.3454   10.5257   24.6305 C   0  0  0  0  0  0  0  0  0  0  0  0
    7.3698    9.8245   25.3450 C   0  0  0  0  0  0  0  0  0  0  0  0
    6.5610   10.5131   26.2453 C   0  0  0  0  0  0  0  0  0  0  0  0
    6.7124   11.8800   26.4231 C   0  0  0  0  0  0  0  0  0  0  0  0
    7.6951   12.5827   25.7163 C   0  0  0  0  0  0  0  0  0  0  0  0
    7.8060   14.4462   26.0210 Br  0  0  0  0  0  0  0  0  0  0  0  0
    8.5466   11.9016   24.8134 C   0  0  0  0  0  0  0  0  0  0  0  0
  1  2  1  0
  2  3  2  0
  2  4  1  0
  4  5  1  0
  5  6  1  0
  6  7  2  0
  6  8  1  0
  8  9  2  0
  9 10  1  0
 10 11  1  0
 10 12  1  0
 12 13  2  0
 13 14  1  0
 14 15  2  0
 15 16  1  0
 16 17  1  0
 16 18  2  0
 18  8  1  0
 18 12  1  0
M  END
>  <alias>  (1015) 
None

>  <rmsd(smina/fragmenstein)>  (1015) 
0.527

>  <smiles>  (1015) 
CC(=O)CNC(=O)c1cn(C)c2cccc(Br)c12

>  <gnina_score>  (1015) 
5.316

>  <inspiration_score>  (1015) 
None

>  <energy_score>  (1015) 
-4.400328

>  <distance_score>  (1015) 
0.770398

>  <gnina_score_min>  (1015) 
5.432

>  <inchikey>  (1015) 
ONGXUDBQCTUDOF-UHFFFAOYSA-N

>  <exports>  (1015) 
['/opt/xchem-fragalysis-2/maxwin/BulkDock/OUTPUTS/openbind_a71ev2a_c2_elabs_1LOUU54.sdf', '/opt/xchem-fragalysis-2/maxwin/BulkDock/OUTPUTS/openbind_a71ev2a_c2_elabs_1LSYIDY.sdf']

>  <name>  (1015) 
P576760

>  <ref_pdb>  (1015) 
A3066a

>  <subsites>  (1015) 
None

>  <HIPPO Pose ID>  (1015) 
576760

>  <ref_mols>  (1015) 
A3066a

>  <HIPPO Compound ID>  (1015) 
349651

>  <tags>  (1015) 
openbind_a71ev2a_c2_elabs,syndirella_product,openbind_a71ev2a_c2_elabs_fragonly_scored_top80percent,openbind_a71ev2a_c2_elabs_scored,BulkDock Fragalysis export,openbind_a71ev2a_c2_elabs_scored_top80percent,openbind_a71ev2a_c2_elabs_activefrags_only_scored_5.2plus,syndirella_placed

>  <smina_score_min>  (1015) 
-6.846

$$$$
P576762
     RDKit          3D

 18 19  0  0  0  0  0  0  0  0999 V2000
   11.9620   15.5147   22.8106 C   0  0  0  0  0  0  0  0  0  0  0  0
   12.7259   14.7099   22.0930 C   0  0  0  0  0  0  0  0  0  0  0  0
   12.0435   13.7623   21.2108 C   0  0  2  0  0  0  0  0  0  0  0  0
   11.4179   14.4890   20.0125 C   0  0  0  0  0  0  0  0  0  0  0  0
   11.0433   12.9895   21.9300 N   0  0  0  0  0  0  0  0  0  0  0  0
   10.7455   12.8907   23.4550 C   0  0  0  0  0  0  0  0  0  0  0  0
   11.2087   13.4750   24.3582 O   0  0  0  0  0  0  0  0  0  0  0  0
    9.7974   11.8126   23.6846 C   0  0  0  0  0  0  0  0  0  0  0  0
    9.9412   10.6038   23.0413 C   0  0  0  0  0  0  0  0  0  0  0  0
    9.1565    9.6956   23.6599 N   0  0  0  0  0  0  0  0  0  0  0  0
    9.2980    8.2869   23.4157 C   0  0  0  0  0  0  0  0  0  0  0  0
    8.3286   10.3186   24.5580 C   0  0  0  0  0  0  0  0  0  0  0  0
    7.3054    9.7977   25.3581 C   0  0  0  0  0  0  0  0  0  0  0  0
    6.6039   10.6383   26.2116 C   0  0  0  0  0  0  0  0  0  0  0  0
    6.9150   11.9833   26.2619 C   0  0  0  0  0  0  0  0  0  0  0  0
    7.9490   12.5059   25.4702 C   0  0  0  0  0  0  0  0  0  0  0  0
    8.2493   14.3516   25.6476 Br  0  0  0  0  0  0  0  0  0  0  0  0
    8.6910   11.6745   24.5943 C   0  0  0  0  0  0  0  0  0  0  0  0
  1  2  2  0
  2  3  1  0
  3  4  1  6
  3  5  1  0
  5  6  1  0
  6  7  2  0
  6  8  1  0
  8  9  2  0
  9 10  1  0
 10 11  1  0
 10 12  1  0
 12 13  2  0
 13 14  1  0
 14 15  2  0
 15 16  1  0
 16 17  1  0
 16 18  2  0
 18  8  1  0
 18 12  1  0
M  END
>  <alias>  (1016) 
None

>  <rmsd(smina/fragmenstein)>  (1016) 
0.828

>  <smiles>  (1016) 
C=C[C@H](C)NC(=O)c1cn(C)c2cccc(Br)c12

>  <gnina_score>  (1016) 
5.383

>  <inspiration_score>  (1016) 
None

>  <energy_score>  (1016) 
-5.38646

>  <distance_score>  (1016) 
0.544179

>  <gnina_score_min>  (1016) 
5.503

>  <inchikey>  (1016) 
WEAFZUCCCUNMDT-VIFPVBQESA-N

>  <exports>  (1016) 
['/opt/xchem-fragalysis-2/maxwin/BulkDock/OUTPUTS/openbind_a71ev2a_c2_elabs_1LOUU54.sdf', '/opt/xchem-fragalysis-2/maxwin/BulkDock/OUTPUTS/openbind_a71ev2a_c2_elabs_1LSYIDY.sdf']

>  <name>  (1016) 
P576762

>  <ref_pdb>  (1016) 
A3066a

>  <subsites>  (1016) 
None

>  <HIPPO Pose ID>  (1016) 
576762

>  <ref_mols>  (1016) 
A3066a

>  <HIPPO Compound ID>  (1016) 
349653

>  <tags>  (1016) 
openbind_a71ev2a_c2_elabs,syndirella_product,openbind_a71ev2a_c2_elabs_fragonly_scored_top80percent,BulkDock Fragalysis export,openbind_a71ev2a_c2_elabs_scored,openbind_a71ev2a_c2_elabs_scored_top80percent,openbind_a71ev2a_c2_elabs_activefrags_only_scored_5.2plus,openbind_a71ev2a_c2_elabs_activefrags_only_scored_5.5plus,syndirella_placed

>  <smina_score_min>  (1016) 
-6.231

$$$$
P576763
     RDKit          3D

 18 19  0  0  0  0  0  0  0  0999 V2000
   12.1059   14.2838   19.7841 C   0  0  0  0  0  0  0  0  0  0  0  0
   11.6866   14.6053   21.0089 C   0  0  0  0  0  0  0  0  0  0  0  0
   12.8313   14.6284   22.2943 Cl  0  0  0  0  0  0  0  0  0  0  0  0
   10.2794   14.9356   21.3676 C   0  0  0  0  0  0  0  0  0  0  0  0
    9.7832   13.8774   22.1843 N   0  0  0  0  0  0  0  0  0  0  0  0
   10.0163   13.5709   23.6667 C   0  0  0  0  0  0  0  0  0  0  0  0
   10.5882   14.1737   24.4810 O   0  0  0  0  0  0  0  0  0  0  0  0
    9.4615   12.2616   23.9283 C   0  0  0  0  0  0  0  0  0  0  0  0
    9.8783   11.1252   23.2616 C   0  0  0  0  0  0  0  0  0  0  0  0
    9.1796   10.0642   23.7473 N   0  0  0  0  0  0  0  0  0  0  0  0
    9.3691    8.6997   23.3061 C   0  0  0  0  0  0  0  0  0  0  0  0
    8.2709   10.5032   24.6859 C   0  0  0  0  0  0  0  0  0  0  0  0
    7.3133    9.7977   25.4171 C   0  0  0  0  0  0  0  0  0  0  0  0
    6.4984   10.4842   26.3133 C   0  0  0  0  0  0  0  0  0  0  0  0
    6.6201   11.8568   26.4664 C   0  0  0  0  0  0  0  0  0  0  0  0
    7.5687   12.5699   25.7261 C   0  0  0  0  0  0  0  0  0  0  0  0
    7.6222   14.4452   25.9774 Br  0  0  0  0  0  0  0  0  0  0  0  0
    8.4241   11.8891   24.8268 C   0  0  0  0  0  0  0  0  0  0  0  0
  1  2  2  0
  2  3  1  0
  2  4  1  0
  4  5  1  0
  5  6  1  0
  6  7  2  0
  6  8  1  0
  8  9  2  0
  9 10  1  0
 10 11  1  0
 10 12  1  0
 12 13  2  0
 13 14  1  0
 14 15  2  0
 15 16  1  0
 16 17  1  0
 16 18  2  0
 18  8  1  0
 18 12  1  0
M  END
>  <alias>  (1017) 
None

>  <rmsd(smina/fragmenstein)>  (1017) 
0.329

>  <smiles>  (1017) 
C=C(Cl)CNC(=O)c1cn(C)c2cccc(Br)c12

>  <gnina_score>  (1017) 
5.513

>  <inspiration_score>  (1017) 
None

>  <energy_score>  (1017) 
-2.700344

>  <distance_score>  (1017) 
0.937434

>  <gnina_score_min>  (1017) 
5.506

>  <inchikey>  (1017) 
LGMXKKVFVLFIOG-UHFFFAOYSA-N

>  <exports>  (1017) 
['/opt/xchem-fragalysis-2/maxwin/BulkDock/OUTPUTS/openbind_a71ev2a_c2_elabs_1LOUU54.sdf', '/opt/xchem-fragalysis-2/maxwin/BulkDock/OUTPUTS/openbind_a71ev2a_c2_elabs_1LSYIDY.sdf']

>  <name>  (1017) 
P576763

>  <ref_pdb>  (1017) 
A3066a

>  <subsites>  (1017) 
None

>  <HIPPO Pose ID>  (1017) 
576763

>  <ref_mols>  (1017) 
A3066a

>  <HIPPO Compound ID>  (1017) 
349654

>  <tags>  (1017) 
openbind_a71ev2a_c2_elabs,syndirella_product,openbind_a71ev2a_c2_elabs_fragonly_scored_top80percent,BulkDock Fragalysis export,openbind_a71ev2a_c2_elabs_scored,openbind_a71ev2a_c2_elabs_scored_top80percent,openbind_a71ev2a_c2_elabs_activefrags_only_scored_5.2plus,openbind_a71ev2a_c2_elabs_activefrags_only_scored_5.5plus,syndirella_placed

>  <smina_score_min>  (1017) 
-6.649

$$$$
P576765
     RDKit          3D

 18 19  0  0  0  0  0  0  0  0999 V2000
   12.7230   13.8437   20.0308 C   0  0  0  0  0  0  0  0  0  0  0  0
   12.4122   14.3294   21.4186 C   0  0  1  0  0  0  0  0  0  0  0  0
   13.2624   15.4250   21.6909 O   0  0  0  0  0  0  0  0  0  0  0  0
   10.9589   14.7575   21.5708 C   0  0  0  0  0  0  0  0  0  0  0  0
   10.2606   13.7581   22.3076 N   0  0  0  0  0  0  0  0  0  0  0  0
   10.2551   13.4496   23.8055 C   0  0  0  0  0  0  0  0  0  0  0  0
   10.7589   14.0079   24.6925 O   0  0  0  0  0  0  0  0  0  0  0  0
    9.5528   12.1950   23.9896 C   0  0  0  0  0  0  0  0  0  0  0  0
    9.8905   11.0485   23.2940 C   0  0  0  0  0  0  0  0  0  0  0  0
    9.1388   10.0207   23.7682 N   0  0  0  0  0  0  0  0  0  0  0  0
    9.2887    8.6498   23.3350 C   0  0  0  0  0  0  0  0  0  0  0  0
    8.2480   10.4957   24.7046 C   0  0  0  0  0  0  0  0  0  0  0  0
    7.2592    9.8292   25.4320 C   0  0  0  0  0  0  0  0  0  0  0  0
    6.4735   10.5468   26.3290 C   0  0  0  0  0  0  0  0  0  0  0  0
    6.6504   11.9128   26.4820 C   0  0  0  0  0  0  0  0  0  0  0  0
    7.6346   12.5862   25.7504 C   0  0  0  0  0  0  0  0  0  0  0  0
    7.7618   14.4558   26.0105 Br  0  0  0  0  0  0  0  0  0  0  0  0
    8.4689   11.8727   24.8559 C   0  0  0  0  0  0  0  0  0  0  0  0
  2  1  1  6
  2  3  1  0
  2  4  1  0
  4  5  1  0
  5  6  1  0
  6  7  2  0
  6  8  1  0
  8  9  2  0
  9 10  1  0
 10 11  1  0
 10 12  1  0
 12 13  2  0
 13 14  1  0
 14 15  2  0
 15 16  1  0
 16 17  1  0
 16 18  2  0
 18  8  1  0
 18 12  1  0
M  END
>  <alias>  (1018) 
None

>  <rmsd(smina/fragmenstein)>  (1018) 
0.343

>  <smiles>  (1018) 
C[C@@H](O)CNC(=O)c1cn(C)c2cccc(Br)c12

>  <gnina_score>  (1018) 
5.193

>  <inspiration_score>  (1018) 
None

>  <energy_score>  (1018) 
-3.354982

>  <distance_score>  (1018) 
0.72376

>  <gnina_score_min>  (1018) 
5.26

>  <inchikey>  (1018) 
BCSOHEOWAYAGJC-MRVPVSSYSA-N

>  <exports>  (1018) 
['/opt/xchem-fragalysis-2/maxwin/BulkDock/OUTPUTS/openbind_a71ev2a_c2_elabs_1LOUU54.sdf', '/opt/xchem-fragalysis-2/maxwin/BulkDock/OUTPUTS/openbind_a71ev2a_c2_elabs_1LSYIDY.sdf']

>  <name>  (1018) 
P576765

>  <ref_pdb>  (1018) 
A3066a

>  <subsites>  (1018) 
None

>  <HIPPO Pose ID>  (1018) 
576765

>  <ref_mols>  (1018) 
A3066a

>  <HIPPO Compound ID>  (1018) 
349655

>  <tags>  (1018) 
openbind_a71ev2a_c2_elabs,syndirella_product,openbind_a71ev2a_c2_elabs_fragonly_scored_top80percent,openbind_a71ev2a_c2_elabs_scored,BulkDock Fragalysis export,openbind_a71ev2a_c2_elabs_scored_top80percent,openbind_a71ev2a_c2_elabs_activefrags_only_scored_5.2plus,syndirella_placed

>  <smina_score_min>  (1018) 
-6.358

$$$$
P576766
     RDKit          3D

 18 19  0  0  0  0  0  0  0  0999 V2000
   11.3897   14.4847   19.1851 C   0  0  0  0  0  0  0  0  0  0  0  0
   12.4516   13.9587   19.9614 O   0  0  0  0  0  0  0  0  0  0  0  0
   12.7033   14.5675   21.2220 C   0  0  0  0  0  0  0  0  0  0  0  0
   11.5102   15.0636   22.0194 C   0  0  0  0  0  0  0  0  0  0  0  0
   10.7211   13.9846   22.5365 N   0  0  0  0  0  0  0  0  0  0  0  0
   10.4806   13.5299   23.9785 C   0  0  0  0  0  0  0  0  0  0  0  0
   10.8215   14.0028   24.9856 O   0  0  0  0  0  0  0  0  0  0  0  0
    9.7146   12.2887   23.9748 C   0  0  0  0  0  0  0  0  0  0  0  0
   10.0330   11.1918   23.1969 C   0  0  0  0  0  0  0  0  0  0  0  0
    9.2901   10.1302   23.6186 N   0  0  0  0  0  0  0  0  0  0  0  0
    9.4637    8.7762   23.1349 C   0  0  0  0  0  0  0  0  0  0  0  0
    8.3885   10.5477   24.5721 C   0  0  0  0  0  0  0  0  0  0  0  0
    7.4195    9.8259   25.2769 C   0  0  0  0  0  0  0  0  0  0  0  0
    6.5992   10.4935   26.1812 C   0  0  0  0  0  0  0  0  0  0  0  0
    6.7339   11.8599   26.3718 C   0  0  0  0  0  0  0  0  0  0  0  0
    7.7165   12.5819   25.6818 C   0  0  0  0  0  0  0  0  0  0  0  0
    7.7737   14.4468   25.9987 Br  0  0  0  0  0  0  0  0  0  0  0  0
    8.5868   11.9209   24.7789 C   0  0  0  0  0  0  0  0  0  0  0  0
  1  2  1  0
  2  3  1  0
  3  4  1  0
  4  5  1  0
  5  6  1  0
  6  7  2  0
  6  8  1  0
  8  9  2  0
  9 10  1  0
 10 11  1  0
 10 12  1  0
 12 13  2  0
 13 14  1  0
 14 15  2  0
 15 16  1  0
 16 17  1  0
 16 18  2  0
 18  8  1  0
 18 12  1  0
M  END
>  <alias>  (1019) 
None

>  <rmsd(smina/fragmenstein)>  (1019) 
1.523

>  <smiles>  (1019) 
COCCNC(=O)c1cn(C)c2cccc(Br)c12

>  <gnina_score>  (1019) 
5.372

>  <inspiration_score>  (1019) 
None

>  <energy_score>  (1019) 
-13.843199

>  <distance_score>  (1019) 
0.55773

>  <gnina_score_min>  (1019) 
5.349

>  <inchikey>  (1019) 
XUTPWJVLVOZRJS-UHFFFAOYSA-N

>  <exports>  (1019) 
['/opt/xchem-fragalysis-2/maxwin/BulkDock/OUTPUTS/openbind_a71ev2a_c2_elabs_1LOUU54.sdf', '/opt/xchem-fragalysis-2/maxwin/BulkDock/OUTPUTS/openbind_a71ev2a_c2_elabs_1LSYIDY.sdf']

>  <name>  (1019) 
P576766

>  <ref_pdb>  (1019) 
A3066a

>  <subsites>  (1019) 
None

>  <HIPPO Pose ID>  (1019) 
576766

>  <ref_mols>  (1019) 
A3066a

>  <HIPPO Compound ID>  (1019) 
349658

>  <tags>  (1019) 
openbind_a71ev2a_c2_elabs,syndirella_product,openbind_a71ev2a_c2_elabs_fragonly_scored_top80percent,openbind_a71ev2a_c2_elabs_scored,BulkDock Fragalysis export,openbind_a71ev2a_c2_elabs_scored_top80percent,openbind_a71ev2a_c2_elabs_activefrags_only_scored_5.2plus,syndirella_placed

>  <smina_score_min>  (1019) 
-6.919

$$$$
P576767
     RDKit          3D

 18 20  0  0  0  0  0  0  0  0999 V2000
    9.3109    8.5495   23.3520 C   0  0  0  0  0  0  0  0  0  0  0  0
    9.1651    9.9295   23.7537 N   0  0  0  0  0  0  0  0  0  0  0  0
    9.9310   10.9351   23.2601 C   0  0  0  0  0  0  0  0  0  0  0  0
    9.6229   12.0992   23.9367 C   0  0  0  0  0  0  0  0  0  0  0  0
   10.3562   13.3400   23.7490 C   0  0  0  0  0  0  0  0  0  0  0  0
   10.6391   14.0215   24.6511 O   0  0  0  0  0  0  0  0  0  0  0  0
   10.6129   13.5212   22.2434 N   0  0  0  0  0  0  0  0  0  0  0  0
   11.1737   14.5962   21.5370 C   0  0  0  0  0  0  0  0  0  0  0  0
   12.4937   15.0267   22.0887 C   0  0  0  0  0  0  0  0  0  0  0  0
   10.9833   14.6945   20.0482 C   0  0  0  0  0  0  0  0  0  0  0  0
   10.2020   15.5984   20.9461 C   0  0  0  0  0  0  0  0  0  0  0  0
    8.5147   11.8136   24.7962 C   0  0  0  0  0  0  0  0  0  0  0  0
    7.6686   12.5517   25.6636 C   0  0  0  0  0  0  0  0  0  0  0  0
    7.7579   14.4296   25.8693 Br  0  0  0  0  0  0  0  0  0  0  0  0
    6.6771   11.8993   26.4076 C   0  0  0  0  0  0  0  0  0  0  0  0
    6.4955   10.5319   26.2912 C   0  0  0  0  0  0  0  0  0  0  0  0
    7.2806    9.7935   25.4131 C   0  0  0  0  0  0  0  0  0  0  0  0
    8.2776   10.4358   24.6751 C   0  0  0  0  0  0  0  0  0  0  0  0
  1  2  1  0
  2  3  1  0
  3  4  2  0
  4  5  1  0
  5  6  2  0
  5  7  1  0
  7  8  1  0
  8  9  1  0
  8 10  1  0
 10 11  1  0
  4 12  1  0
 12 13  2  0
 13 14  1  0
 13 15  1  0
 15 16  2  0
 16 17  1  0
 17 18  2  0
 18  2  1  0
 11  8  1  0
 18 12  1  0
M  END
>  <alias>  (1020) 
None

>  <rmsd(smina/fragmenstein)>  (1020) 
0.291

>  <smiles>  (1020) 
Cn1cc(C(=O)NC2(C)CC2)c2c(Br)cccc21

>  <gnina_score>  (1020) 
5.642

>  <inspiration_score>  (1020) 
None

>  <energy_score>  (1020) 
-10.841171

>  <distance_score>  (1020) 
0.618693

>  <gnina_score_min>  (1020) 
5.697

>  <inchikey>  (1020) 
IPIIEYPDLBMOPJ-UHFFFAOYSA-N

>  <exports>  (1020) 
['/opt/xchem-fragalysis-2/maxwin/BulkDock/OUTPUTS/openbind_a71ev2a_c2_elabs_1LOUU54.sdf', '/opt/xchem-fragalysis-2/maxwin/BulkDock/OUTPUTS/openbind_a71ev2a_c2_elabs_1LSYIDY.sdf']

>  <name>  (1020) 
P576767

>  <ref_pdb>  (1020) 
A3066a

>  <subsites>  (1020) 
None

>  <HIPPO Pose ID>  (1020) 
576767

>  <ref_mols>  (1020) 
A3066a

>  <HIPPO Compound ID>  (1020) 
349659

>  <tags>  (1020) 
openbind_a71ev2a_c2_elabs,syndirella_product,openbind_a71ev2a_c2_elabs_fragonly_scored_top80percent,BulkDock Fragalysis export,openbind_a71ev2a_c2_elabs_scored,openbind_a71ev2a_c2_elabs_scored_top80percent,openbind_a71ev2a_c2_elabs_activefrags_only_scored_5.2plus,openbind_a71ev2a_c2_elabs_activefrags_only_scored_5.5plus,syndirella_placed

>  <smina_score_min>  (1020) 
-7.697

$$$$
P576768
     RDKit          3D

 18 19  0  0  0  0  0  0  0  0999 V2000
    9.1732    8.5575   23.6011 C   0  0  0  0  0  0  0  0  0  0  0  0
    8.9904    9.9425   23.9611 N   0  0  0  0  0  0  0  0  0  0  0  0
    9.7155   10.9435   23.3943 C   0  0  0  0  0  0  0  0  0  0  0  0
    9.3290   12.1363   23.9751 C   0  0  0  0  0  0  0  0  0  0  0  0
    9.8084   13.4212   23.5373 C   0  0  0  0  0  0  0  0  0  0  0  0
    9.0770   14.2967   23.3334 O   0  0  0  0  0  0  0  0  0  0  0  0
   11.3124   13.3218   23.3270 N   0  0  0  0  0  0  0  0  0  0  0  0
   12.2275   14.2397   22.7337 C   0  0  0  0  0  0  0  0  0  0  0  0
   12.0839   13.8744   21.2640 C   0  0  0  0  0  0  0  0  0  0  0  0
   12.8222   14.6768   20.3412 N   0  0  0  0  0  0  0  0  0  0  0  0
   12.3630   14.2091   19.0350 O   0  0  0  0  0  0  0  0  0  0  0  0
    8.3047   11.8556   24.9000 C   0  0  0  0  0  0  0  0  0  0  0  0
    7.5161   12.6679   25.7399 C   0  0  0  0  0  0  0  0  0  0  0  0
    6.5569   12.0751   26.5554 C   0  0  0  0  0  0  0  0  0  0  0  0
    6.3660   10.7055   26.5029 C   0  0  0  0  0  0  0  0  0  0  0  0
    5.4455   10.1484   27.3006 F   0  0  0  0  0  0  0  0  0  0  0  0
    7.1019    9.8875   25.6480 C   0  0  0  0  0  0  0  0  0  0  0  0
    8.0980   10.4732   24.8665 C   0  0  0  0  0  0  0  0  0  0  0  0
  1  2  1  0
  2  3  1  0
  3  4  2  0
  4  5  1  0
  5  6  2  0
  5  7  1  0
  7  8  1  0
  8  9  1  0
  9 10  1  0
 10 11  1  0
  4 12  1  0
 12 13  2  0
 13 14  1  0
 14 15  2  0
 15 16  1  0
 15 17  1  0
 17 18  2  0
 18  2  1  0
 18 12  1  0
M  END
>  <alias>  (1021) 
None

>  <rmsd(smina/fragmenstein)>  (1021) 
0.528

>  <smiles>  (1021) 
Cn1cc(C(=O)NCCNO)c2ccc(F)cc21

>  <gnina_score>  (1021) 
5.342

>  <inspiration_score>  (1021) 
None

>  <energy_score>  (1021) 
-20.218183

>  <distance_score>  (1021) 
0.943544

>  <gnina_score_min>  (1021) 
5.575

>  <inchikey>  (1021) 
KNALPPXBXQERRA-UHFFFAOYSA-N

>  <exports>  (1021) 
['/opt/xchem-fragalysis-2/maxwin/BulkDock/OUTPUTS/openbind_a71ev2a_c2_elabs_1LOUU54.sdf', '/opt/xchem-fragalysis-2/maxwin/BulkDock/OUTPUTS/openbind_a71ev2a_c2_elabs_1LSYIDY.sdf']

>  <name>  (1021) 
P576768

>  <ref_pdb>  (1021) 
A3066a

>  <subsites>  (1021) 
None

>  <HIPPO Pose ID>  (1021) 
576768

>  <ref_mols>  (1021) 
A3066a

>  <HIPPO Compound ID>  (1021) 
349661

>  <tags>  (1021) 
openbind_a71ev2a_c2_elabs,syndirella_product,openbind_a71ev2a_c2_elabs_fragonly_scored_top80percent,BulkDock Fragalysis export,openbind_a71ev2a_c2_elabs_scored,openbind_a71ev2a_c2_elabs_scored_top80percent,openbind_a71ev2a_c2_elabs_activefrags_only_scored_5.2plus,openbind_a71ev2a_c2_elabs_activefrags_only_scored_5.5plus,syndirella_placed

>  <smina_score_min>  (1021) 
-7.785

$$$$
P576769
     RDKit          3D

 18 20  0  0  0  0  0  0  0  0999 V2000
    9.3038    8.6299   23.2693 C   0  0  0  0  0  0  0  0  0  0  0  0
    9.2342   10.0104   23.6885 N   0  0  0  0  0  0  0  0  0  0  0  0
   10.0197   10.9988   23.1718 C   0  0  0  0  0  0  0  0  0  0  0  0
    9.8024   12.1517   23.8932 C   0  0  0  0  0  0  0  0  0  0  0  0
   10.4993   13.4142   23.7227 C   0  0  0  0  0  0  0  0  0  0  0  0
   10.8093   14.0695   24.6502 O   0  0  0  0  0  0  0  0  0  0  0  0
   10.6133   13.6950   22.2557 N   0  0  0  0  0  0  0  0  0  0  0  0
    9.3467   14.3993   21.7149 C   0  0  0  0  0  0  0  0  0  0  0  0
   10.1049   14.9585   20.5689 C   0  0  0  0  0  0  0  0  0  0  0  0
    9.4833   16.6233   20.2075 S   0  0  0  0  0  0  0  0  0  0  0  0
   11.2528   14.8606   21.5142 C   0  0  0  0  0  0  0  0  0  0  0  0
    8.7058   11.8931   24.7635 C   0  0  0  0  0  0  0  0  0  0  0  0
    7.9459   12.7037   25.6351 C   0  0  0  0  0  0  0  0  0  0  0  0
    6.9091   12.1353   26.3753 C   0  0  0  0  0  0  0  0  0  0  0  0
    6.6339   10.7838   26.2490 C   0  0  0  0  0  0  0  0  0  0  0  0
    5.6614   10.2468   26.9969 F   0  0  0  0  0  0  0  0  0  0  0  0
    7.3489    9.9626   25.3797 C   0  0  0  0  0  0  0  0  0  0  0  0
    8.3803   10.5396   24.6315 C   0  0  0  0  0  0  0  0  0  0  0  0
  1  2  1  0
  2  3  1  0
  3  4  2  0
  4  5  1  0
  5  6  2  0
  5  7  1  0
  7  8  1  0
  8  9  1  0
  9 10  1  0
  9 11  1  0
  4 12  1  0
 12 13  2  0
 13 14  1  0
 14 15  2  0
 15 16  1  0
 15 17  1  0
 17 18  2  0
 18  2  1  0
 11  7  1  0
 18 12  1  0
M  END
>  <alias>  (1022) 
None

>  <rmsd(smina/fragmenstein)>  (1022) 
0.161

>  <smiles>  (1022) 
Cn1cc(C(=O)N2CC(S)C2)c2ccc(F)cc21

>  <gnina_score>  (1022) 
5.587

>  <inspiration_score>  (1022) 
None

>  <energy_score>  (1022) 
-4.620556

>  <distance_score>  (1022) 
0.521481

>  <gnina_score_min>  (1022) 
5.613

>  <inchikey>  (1022) 
KDJVLXATUGGSDP-UHFFFAOYSA-N

>  <exports>  (1022) 
['/opt/xchem-fragalysis-2/maxwin/BulkDock/OUTPUTS/openbind_a71ev2a_c2_elabs_1LOUU54.sdf', '/opt/xchem-fragalysis-2/maxwin/BulkDock/OUTPUTS/openbind_a71ev2a_c2_elabs_1LSYIDY.sdf']

>  <name>  (1022) 
P576769

>  <ref_pdb>  (1022) 
A3066a

>  <subsites>  (1022) 
None

>  <HIPPO Pose ID>  (1022) 
576769

>  <ref_mols>  (1022) 
A3066a

>  <HIPPO Compound ID>  (1022) 
349664

>  <tags>  (1022) 
openbind_a71ev2a_c2_elabs,syndirella_product,openbind_a71ev2a_c2_elabs_fragonly_scored_top80percent,BulkDock Fragalysis export,openbind_a71ev2a_c2_elabs_scored,openbind_a71ev2a_c2_elabs_scored_top80percent,openbind_a71ev2a_c2_elabs_activefrags_only_scored_5.2plus,openbind_a71ev2a_c2_elabs_activefrags_only_scored_5.5plus,syndirella_placed

>  <smina_score_min>  (1022) 
-7.747

$$$$
P576770
     RDKit          3D

 18 20  0  0  0  0  0  0  0  0999 V2000
    9.2203    8.1194   22.5518 C   0  0  0  0  0  0  0  0  0  0  0  0
    9.6252    8.7067   23.8549 C   0  0  0  0  0  0  0  0  0  0  0  0
    9.3400   10.1191   23.9328 N   0  0  0  0  0  0  0  0  0  0  0  0
   10.1109   11.0553   23.3104 C   0  0  0  0  0  0  0  0  0  0  0  0
    9.9041   12.2636   23.9346 C   0  0  0  0  0  0  0  0  0  0  0  0
   10.6573   13.4918   23.7055 C   0  0  0  0  0  0  0  0  0  0  0  0
   10.8077   14.2562   24.5691 O   0  0  0  0  0  0  0  0  0  0  0  0
   11.0486   13.5734   22.2298 N   0  0  0  0  0  0  0  0  0  0  0  0
   11.6208   14.6444   21.4793 C   0  0  0  0  0  0  0  0  0  0  0  0
   10.5700   14.9669   20.4554 C   0  0  0  0  0  0  0  0  0  0  0  0
    9.1236   14.9844   20.9246 C   0  0  0  0  0  0  0  0  0  0  0  0
    9.7478   16.2318   20.4023 C   0  0  0  0  0  0  0  0  0  0  0  0
    8.7627   12.0829   24.7818 C   0  0  0  0  0  0  0  0  0  0  0  0
    7.9835   12.9532   25.5716 C   0  0  0  0  0  0  0  0  0  0  0  0
    6.9121   12.4445   26.3121 C   0  0  0  0  0  0  0  0  0  0  0  0
    6.6063   11.0888   26.2737 C   0  0  0  0  0  0  0  0  0  0  0  0
    7.3481   10.2084   25.4858 C   0  0  0  0  0  0  0  0  0  0  0  0
    8.4201   10.7276   24.7484 C   0  0  0  0  0  0  0  0  0  0  0  0
  1  2  1  0
  2  3  1  0
  3  4  1  0
  4  5  2  0
  5  6  1  0
  6  7  2  0
  6  8  1  0
  8  9  1  0
  9 10  1  0
 10 11  1  0
 11 12  1  0
  5 13  1  0
 13 14  2  0
 14 15  1  0
 15 16  2  0
 16 17  1  0
 17 18  2  0
 18  3  1  0
 12 10  1  0
 18 13  1  0
M  END
>  <alias>  (1023) 
None

>  <rmsd(smina/fragmenstein)>  (1023) 
0.745

>  <smiles>  (1023) 
CCn1cc(C(=O)NCC2CC2)c2ccccc21

>  <gnina_score>  (1023) 
5.342

>  <inspiration_score>  (1023) 
None

>  <energy_score>  (1023) 
-3.722399

>  <distance_score>  (1023) 
0.50753

>  <gnina_score_min>  (1023) 
5.291

>  <inchikey>  (1023) 
XPWFPLBBJIVRDJ-UHFFFAOYSA-N

>  <exports>  (1023) 
['/opt/xchem-fragalysis-2/maxwin/BulkDock/OUTPUTS/openbind_a71ev2a_c2_elabs_1LOUU54.sdf', '/opt/xchem-fragalysis-2/maxwin/BulkDock/OUTPUTS/openbind_a71ev2a_c2_elabs_1LSYIDY.sdf']

>  <name>  (1023) 
P576770

>  <ref_pdb>  (1023) 
A3066a

>  <subsites>  (1023) 
None

>  <HIPPO Pose ID>  (1023) 
576770

>  <ref_mols>  (1023) 
A3066a

>  <HIPPO Compound ID>  (1023) 
349669

>  <tags>  (1023) 
openbind_a71ev2a_c2_elabs,syndirella_product,openbind_a71ev2a_c2_elabs_fragonly_scored_top80percent,openbind_a71ev2a_c2_elabs_scored,BulkDock Fragalysis export,openbind_a71ev2a_c2_elabs_scored_top80percent,openbind_a71ev2a_c2_elabs_activefrags_only_scored_5.2plus,syndirella_placed

>  <smina_score_min>  (1023) 
-7.2

$$$$
P576771
     RDKit          3D

 18 19  0  0  0  0  0  0  0  0999 V2000
   10.1408    7.8475   23.7337 C   0  0  0  0  0  0  0  0  0  0  0  0
    9.2822    8.7047   22.8710 C   0  0  0  0  0  0  0  0  0  0  0  0
    9.1813   10.0385   23.4268 N   0  0  0  0  0  0  0  0  0  0  0  0
    9.9289   11.0682   22.9477 C   0  0  0  0  0  0  0  0  0  0  0  0
    9.4961   12.2297   23.5371 C   0  0  0  0  0  0  0  0  0  0  0  0
   10.0081   13.5556   23.2697 C   0  0  0  0  0  0  0  0  0  0  0  0
   10.0175   14.3266   24.1368 O   0  0  0  0  0  0  0  0  0  0  0  0
   10.5231   13.6716   21.8336 N   0  0  0  0  0  0  0  0  0  0  0  0
   11.2441   14.7263   21.1859 C   0  0  2  0  0  0  0  0  0  0  0  0
   11.5063   14.4317   19.7240 C   0  0  0  0  0  0  0  0  0  0  0  0
   12.4912   14.8152   21.9363 C   0  0  0  0  0  0  0  0  0  0  0  0
   13.3757   14.7320   22.6751 N   0  0  0  0  0  0  0  0  0  0  0  0
    8.5163   11.8669   24.5076 C   0  0  0  0  0  0  0  0  0  0  0  0
    7.7422   12.5970   25.4350 C   0  0  0  0  0  0  0  0  0  0  0  0
    6.8310   11.9308   26.2569 C   0  0  0  0  0  0  0  0  0  0  0  0
    6.6834   10.5534   26.1641 C   0  0  0  0  0  0  0  0  0  0  0  0
    7.4377    9.8143   25.2501 C   0  0  0  0  0  0  0  0  0  0  0  0
    8.3467   10.4842   24.4257 C   0  0  0  0  0  0  0  0  0  0  0  0
  1  2  1  0
  2  3  1  0
  3  4  1  0
  4  5  2  0
  5  6  1  0
  6  7  2  0
  6  8  1  0
  8  9  1  0
  9 10  1  6
  9 11  1  0
 11 12  3  0
  5 13  1  0
 13 14  2  0
 14 15  1  0
 15 16  2  0
 16 17  1  0
 17 18  2  0
 18  3  1  0
 18 13  1  0
M  END
>  <alias>  (1024) 
None

>  <rmsd(smina/fragmenstein)>  (1024) 
0.678

>  <smiles>  (1024) 
CCn1cc(C(=O)N[C@H](C)C#N)c2ccccc21

>  <gnina_score>  (1024) 
5.403

>  <inspiration_score>  (1024) 
None

>  <energy_score>  (1024) 
-15.954761

>  <distance_score>  (1024) 
0.716349

>  <gnina_score_min>  (1024) 
5.497

>  <inchikey>  (1024) 
VDVQPPSESPTVDQ-SNVBAGLBSA-N

>  <exports>  (1024) 
['/opt/xchem-fragalysis-2/maxwin/BulkDock/OUTPUTS/openbind_a71ev2a_c2_elabs_1LOUU54.sdf', '/opt/xchem-fragalysis-2/maxwin/BulkDock/OUTPUTS/openbind_a71ev2a_c2_elabs_1LSYIDY.sdf']

>  <name>  (1024) 
P576771

>  <ref_pdb>  (1024) 
A3066a

>  <subsites>  (1024) 
None

>  <HIPPO Pose ID>  (1024) 
576771

>  <ref_mols>  (1024) 
A3066a

>  <HIPPO Compound ID>  (1024) 
349671

>  <tags>  (1024) 
openbind_a71ev2a_c2_elabs,syndirella_product,openbind_a71ev2a_c2_elabs_fragonly_scored_top80percent,openbind_a71ev2a_c2_elabs_scored,BulkDock Fragalysis export,openbind_a71ev2a_c2_elabs_scored_top80percent,openbind_a71ev2a_c2_elabs_activefrags_only_scored_5.2plus,syndirella_placed

>  <smina_score_min>  (1024) 
-6.503

$$$$
P576773
     RDKit          3D

 18 19  0  0  0  0  0  0  0  0999 V2000
    9.2367    8.1053   22.5473 C   0  0  0  0  0  0  0  0  0  0  0  0
    9.6295    8.7243   23.8389 C   0  0  0  0  0  0  0  0  0  0  0  0
    9.2762   10.1213   23.9052 N   0  0  0  0  0  0  0  0  0  0  0  0
    9.9870   11.0895   23.2600 C   0  0  0  0  0  0  0  0  0  0  0  0
    9.6868   12.2915   23.8556 C   0  0  0  0  0  0  0  0  0  0  0  0
   10.3788   13.5390   23.6104 C   0  0  0  0  0  0  0  0  0  0  0  0
   10.6905   14.2159   24.5017 O   0  0  0  0  0  0  0  0  0  0  0  0
   10.4841   13.7730   22.1039 N   0  0  0  0  0  0  0  0  0  0  0  0
   11.0822   14.8505   21.3662 C   0  0  2  0  0  0  0  0  0  0  0  0
   10.4371   14.9534   19.9925 C   0  0  0  0  0  0  0  0  0  0  0  0
   12.6051   14.7134   21.3901 C   0  0  0  0  0  0  0  0  0  0  0  0
   13.0961   14.0077   20.2618 O   0  0  0  0  0  0  0  0  0  0  0  0
    8.6047   12.0576   24.7534 C   0  0  0  0  0  0  0  0  0  0  0  0
    7.8254   12.8904   25.5811 C   0  0  0  0  0  0  0  0  0  0  0  0
    6.8075   12.3318   26.3586 C   0  0  0  0  0  0  0  0  0  0  0  0
    6.5570   10.9650   26.3173 C   0  0  0  0  0  0  0  0  0  0  0  0
    7.3119   10.1215   25.5009 C   0  0  0  0  0  0  0  0  0  0  0  0
    8.3384   10.6873   24.7350 C   0  0  0  0  0  0  0  0  0  0  0  0
  1  2  1  0
  2  3  1  0
  3  4  1  0
  4  5  2  0
  5  6  1  0
  6  7  2  0
  6  8  1  0
  8  9  1  0
  9 10  1  6
  9 11  1  0
 11 12  1  0
  5 13  1  0
 13 14  2  0
 14 15  1  0
 15 16  2  0
 16 17  1  0
 17 18  2  0
 18  3  1  0
 18 13  1  0
M  END
>  <alias>  (1025) 
None

>  <rmsd(smina/fragmenstein)>  (1025) 
0.64

>  <smiles>  (1025) 
CCn1cc(C(=O)N[C@H](C)CO)c2ccccc21

>  <gnina_score>  (1025) 
5.377

>  <inspiration_score>  (1025) 
None

>  <energy_score>  (1025) 
-6.824638

>  <distance_score>  (1025) 
0.678714

>  <gnina_score_min>  (1025) 
5.455

>  <inchikey>  (1025) 
FAJOPLJWXSDNQQ-SNVBAGLBSA-N

>  <exports>  (1025) 
['/opt/xchem-fragalysis-2/maxwin/BulkDock/OUTPUTS/openbind_a71ev2a_c2_elabs_1LOUU54.sdf', '/opt/xchem-fragalysis-2/maxwin/BulkDock/OUTPUTS/openbind_a71ev2a_c2_elabs_1LSYIDY.sdf']

>  <name>  (1025) 
P576773

>  <ref_pdb>  (1025) 
A3066a

>  <subsites>  (1025) 
None

>  <HIPPO Pose ID>  (1025) 
576773

>  <ref_mols>  (1025) 
A3066a

>  <HIPPO Compound ID>  (1025) 
349675

>  <tags>  (1025) 
openbind_a71ev2a_c2_elabs,syndirella_product,openbind_a71ev2a_c2_elabs_fragonly_scored_top80percent,openbind_a71ev2a_c2_elabs_scored,BulkDock Fragalysis export,openbind_a71ev2a_c2_elabs_scored_top80percent,openbind_a71ev2a_c2_elabs_activefrags_only_scored_5.2plus,syndirella_placed

>  <smina_score_min>  (1025) 
-7.174

$$$$
P576774
     RDKit          3D

 18 20  0  0  0  0  0  0  0  0999 V2000
   10.0916    7.8245   23.7318 C   0  0  0  0  0  0  0  0  0  0  0  0
    9.2070    8.7296   22.9467 C   0  0  0  0  0  0  0  0  0  0  0  0
    9.1505   10.0361   23.5649 N   0  0  0  0  0  0  0  0  0  0  0  0
    9.9787   11.0332   23.1658 C   0  0  0  0  0  0  0  0  0  0  0  0
    9.6722   12.1639   23.8827 C   0  0  0  0  0  0  0  0  0  0  0  0
   10.3341   13.4311   23.7018 C   0  0  0  0  0  0  0  0  0  0  0  0
   10.5630   14.1394   24.5970 O   0  0  0  0  0  0  0  0  0  0  0  0
   10.5442   13.6324   22.1927 N   0  0  0  0  0  0  0  0  0  0  0  0
   11.1496   14.6783   21.4922 C   0  0  0  0  0  0  0  0  0  0  0  0
   12.4746   15.0699   22.0597 C   0  0  0  0  0  0  0  0  0  0  0  0
   10.2039   15.6799   20.8631 C   0  0  0  0  0  0  0  0  0  0  0  0
   10.9935   14.7478   19.9980 C   0  0  0  0  0  0  0  0  0  0  0  0
    8.6030   11.8404   24.7547 C   0  0  0  0  0  0  0  0  0  0  0  0
    7.8361   12.5849   25.6737 C   0  0  0  0  0  0  0  0  0  0  0  0
    6.8332   11.9507   26.4080 C   0  0  0  0  0  0  0  0  0  0  0  0
    6.5930   10.5933   26.2370 C   0  0  0  0  0  0  0  0  0  0  0  0
    7.3270    9.8458   25.3129 C   0  0  0  0  0  0  0  0  0  0  0  0
    8.3178   10.4855   24.5639 C   0  0  0  0  0  0  0  0  0  0  0  0
  1  2  1  0
  2  3  1  0
  3  4  1  0
  4  5  2  0
  5  6  1  0
  6  7  2  0
  6  8  1  0
  8  9  1  0
  9 10  1  0
  9 11  1  0
 11 12  1  0
  5 13  1  0
 13 14  2  0
 14 15  1  0
 15 16  2  0
 16 17  1  0
 17 18  2  0
 18  3  1  0
 12  9  1  0
 18 13  1  0
M  END
>  <alias>  (1026) 
None

>  <rmsd(smina/fragmenstein)>  (1026) 
0.513

>  <smiles>  (1026) 
CCn1cc(C(=O)NC2(C)CC2)c2ccccc21

>  <gnina_score>  (1026) 
5.482

>  <inspiration_score>  (1026) 
None

>  <energy_score>  (1026) 
-8.683158

>  <distance_score>  (1026) 
0.594647

>  <gnina_score_min>  (1026) 
5.468

>  <inchikey>  (1026) 
SRUDUMAWUFWYOD-UHFFFAOYSA-N

>  <exports>  (1026) 
['/opt/xchem-fragalysis-2/maxwin/BulkDock/OUTPUTS/openbind_a71ev2a_c2_elabs_1LOUU54.sdf', '/opt/xchem-fragalysis-2/maxwin/BulkDock/OUTPUTS/openbind_a71ev2a_c2_elabs_1LSYIDY.sdf']

>  <name>  (1026) 
P576774

>  <ref_pdb>  (1026) 
A3066a

>  <subsites>  (1026) 
None

>  <HIPPO Pose ID>  (1026) 
576774

>  <ref_mols>  (1026) 
A3066a

>  <HIPPO Compound ID>  (1026) 
349676

>  <tags>  (1026) 
openbind_a71ev2a_c2_elabs,syndirella_product,openbind_a71ev2a_c2_elabs_fragonly_scored_top80percent,openbind_a71ev2a_c2_elabs_scored,BulkDock Fragalysis export,openbind_a71ev2a_c2_elabs_scored_top80percent,openbind_a71ev2a_c2_elabs_activefrags_only_scored_5.2plus,syndirella_placed

>  <smina_score_min>  (1026) 
-7.129

$$$$
P576776
     RDKit          3D

 18 20  0  0  0  0  0  0  0  0999 V2000
   11.2014   14.7846   19.2392 C   0  0  0  0  0  0  0  0  0  0  0  0
   11.1115   14.6637   20.5573 C   0  0  0  0  0  0  0  0  0  0  0  0
   12.0229   14.5848   21.7093 C   0  0  0  0  0  0  0  0  0  0  0  0
   11.0452   13.6074   22.3477 N   0  0  0  0  0  0  0  0  0  0  0  0
   10.6154   13.4468   23.7680 C   0  0  0  0  0  0  0  0  0  0  0  0
   10.8721   14.0901   24.7182 O   0  0  0  0  0  0  0  0  0  0  0  0
    9.8023   12.2386   23.8789 C   0  0  0  0  0  0  0  0  0  0  0  0
    9.9987   11.0765   23.1593 C   0  0  0  0  0  0  0  0  0  0  0  0
    9.2071   10.0977   23.6832 N   0  0  0  0  0  0  0  0  0  0  0  0
    9.2905    8.7057   23.3041 C   0  0  0  0  0  0  0  0  0  0  0  0
    8.3574   10.6414   24.6206 C   0  0  0  0  0  0  0  0  0  0  0  0
    7.3348   10.0689   25.3859 C   0  0  0  0  0  0  0  0  0  0  0  0
    6.6361   10.8988   26.2596 C   0  0  0  0  0  0  0  0  0  0  0  0
    5.6678   10.3715   27.0192 F   0  0  0  0  0  0  0  0  0  0  0  0
    6.9241   12.2486   26.3803 C   0  0  0  0  0  0  0  0  0  0  0  0
    7.9578   12.8096   25.6286 C   0  0  0  0  0  0  0  0  0  0  0  0
    8.6951   11.9957   24.7419 C   0  0  0  0  0  0  0  0  0  0  0  0
   10.0362   14.5197   21.5369 C   0  0  0  0  0  0  0  0  0  0  0  0
  1  2  2  0
  2  3  1  0
  3  4  1  0
  4  5  1  0
  5  6  2  0
  5  7  1  0
  7  8  2  0
  8  9  1  0
  9 10  1  0
  9 11  1  0
 11 12  2  0
 12 13  1  0
 13 14  1  0
 13 15  2  0
 15 16  1  0
 16 17  2  0
  4 18  1  0
 18  2  1  0
 17  7  1  0
 17 11  1  0
M  END
>  <alias>  (1027) 
None

>  <rmsd(smina/fragmenstein)>  (1027) 
0.469

>  <smiles>  (1027) 
C=C1CN(C(=O)c2cn(C)c3cc(F)ccc23)C1

>  <gnina_score>  (1027) 
5.35

>  <inspiration_score>  (1027) 
None

>  <energy_score>  (1027) 
-0.245303

>  <distance_score>  (1027) 
0.363232

>  <gnina_score_min>  (1027) 
5.373

>  <inchikey>  (1027) 
PHRNQNJBQWZILN-UHFFFAOYSA-N

>  <exports>  (1027) 
['/opt/xchem-fragalysis-2/maxwin/BulkDock/OUTPUTS/openbind_a71ev2a_c2_elabs_1LOUU54.sdf', '/opt/xchem-fragalysis-2/maxwin/BulkDock/OUTPUTS/openbind_a71ev2a_c2_elabs_1LSYIDY.sdf']

>  <name>  (1027) 
P576776

>  <ref_pdb>  (1027) 
A3066a

>  <subsites>  (1027) 
None

>  <HIPPO Pose ID>  (1027) 
576776

>  <ref_mols>  (1027) 
A3066a

>  <HIPPO Compound ID>  (1027) 
349679

>  <tags>  (1027) 
openbind_a71ev2a_c2_elabs,syndirella_product,openbind_a71ev2a_c2_elabs_fragonly_scored_top80percent,openbind_a71ev2a_c2_elabs_scored,BulkDock Fragalysis export,openbind_a71ev2a_c2_elabs_scored_top80percent,openbind_a71ev2a_c2_elabs_activefrags_only_scored_5.2plus,syndirella_placed

>  <smina_score_min>  (1027) 
-7.973

$$$$
P576778
     RDKit          3D

 18 19  0  0  0  0  0  0  0  0999 V2000
   10.3303   15.2328   20.7677 C   0  0  0  0  0  0  0  0  0  0  0  0
   11.4319   14.2757   21.2069 C   0  0  1  0  0  0  0  0  0  0  0  0
   12.6177   14.8635   21.9637 C   0  0  0  0  0  0  0  0  0  0  0  0
   12.2173   15.6518   23.0706 O   0  0  0  0  0  0  0  0  0  0  0  0
   10.8111   13.2387   21.9937 N   0  0  0  0  0  0  0  0  0  0  0  0
   10.3225   13.2481   23.4469 C   0  0  0  0  0  0  0  0  0  0  0  0
   10.4115   14.0677   24.2663 O   0  0  0  0  0  0  0  0  0  0  0  0
    9.6089   12.0100   23.7364 C   0  0  0  0  0  0  0  0  0  0  0  0
    9.9326   10.7975   23.1627 C   0  0  0  0  0  0  0  0  0  0  0  0
    9.1879    9.8243   23.7405 N   0  0  0  0  0  0  0  0  0  0  0  0
    9.3784    8.4241   23.4534 C   0  0  0  0  0  0  0  0  0  0  0  0
    8.2981   10.3819   24.6250 C   0  0  0  0  0  0  0  0  0  0  0  0
    7.3138    9.7754   25.4104 C   0  0  0  0  0  0  0  0  0  0  0  0
    6.5305   10.5501   26.2546 C   0  0  0  0  0  0  0  0  0  0  0  0
    6.6979   11.9213   26.2858 C   0  0  0  0  0  0  0  0  0  0  0  0
    7.6654   12.5427   25.4820 C   0  0  0  0  0  0  0  0  0  0  0  0
    7.6794   14.4299   25.5700 Br  0  0  0  0  0  0  0  0  0  0  0  0
    8.5160   11.7690   24.6447 C   0  0  0  0  0  0  0  0  0  0  0  0
  2  1  1  1
  2  3  1  0
  3  4  1  0
  2  5  1  0
  5  6  1  0
  6  7  2  0
  6  8  1  0
  8  9  2  0
  9 10  1  0
 10 11  1  0
 10 12  1  0
 12 13  2  0
 13 14  1  0
 14 15  2  0
 15 16  1  0
 16 17  1  0
 16 18  2  0
 18  8  1  0
 18 12  1  0
M  END
>  <alias>  (1028) 
None

>  <rmsd(smina/fragmenstein)>  (1028) 
0.611

>  <smiles>  (1028) 
C[C@@H](CO)NC(=O)c1cn(C)c2cccc(Br)c12

>  <gnina_score>  (1028) 
5.509

>  <inspiration_score>  (1028) 
None

>  <energy_score>  (1028) 
-0.295753

>  <distance_score>  (1028) 
0.612071

>  <gnina_score_min>  (1028) 
5.332

>  <inchikey>  (1028) 
JVWNOIHMSRGOBA-QMMMGPOBSA-N

>  <exports>  (1028) 
['/opt/xchem-fragalysis-2/maxwin/BulkDock/OUTPUTS/openbind_a71ev2a_c2_elabs_1LOUU54.sdf', '/opt/xchem-fragalysis-2/maxwin/BulkDock/OUTPUTS/openbind_a71ev2a_c2_elabs_1LSYIDY.sdf']

>  <name>  (1028) 
P576778

>  <ref_pdb>  (1028) 
A3066a

>  <subsites>  (1028) 
None

>  <HIPPO Pose ID>  (1028) 
576778

>  <ref_mols>  (1028) 
A3066a

>  <HIPPO Compound ID>  (1028) 
349682

>  <tags>  (1028) 
openbind_a71ev2a_c2_elabs,syndirella_product,openbind_a71ev2a_c2_elabs_fragonly_scored_top80percent,openbind_a71ev2a_c2_elabs_scored,BulkDock Fragalysis export,openbind_a71ev2a_c2_elabs_scored_top80percent,openbind_a71ev2a_c2_elabs_activefrags_only_scored_5.2plus,syndirella_placed

>  <smina_score_min>  (1028) 
-6.469

$$$$
P576781
     RDKit          3D

 18 20  0  0  0  0  0  0  0  0999 V2000
   10.9913   14.4990   19.5610 C   0  0  0  0  0  0  0  0  0  0  0  0
   12.0962   14.5675   20.5494 C   0  0  1  0  0  0  0  0  0  0  0  0
   11.7995   15.4556   21.7163 C   0  0  0  0  0  0  0  0  0  0  0  0
   12.1103   14.0315   21.9513 C   0  0  1  0  0  0  0  0  0  0  0  0
   11.1111   13.2308   22.4784 N   0  0  0  0  0  0  0  0  0  0  0  0
   10.5189   13.1759   23.8955 C   0  0  0  0  0  0  0  0  0  0  0  0
   10.7227   13.8470   24.8258 O   0  0  0  0  0  0  0  0  0  0  0  0
    9.6387   12.0186   23.9878 C   0  0  0  0  0  0  0  0  0  0  0  0
    9.8770   10.8437   23.2998 C   0  0  0  0  0  0  0  0  0  0  0  0
    9.0653    9.8793   23.7963 N   0  0  0  0  0  0  0  0  0  0  0  0
    9.1981    8.4898   23.4336 C   0  0  0  0  0  0  0  0  0  0  0  0
    8.1978   10.4273   24.7095 C   0  0  0  0  0  0  0  0  0  0  0  0
    7.1800    9.8303   25.4576 C   0  0  0  0  0  0  0  0  0  0  0  0
    6.4333   10.6044   26.3370 C   0  0  0  0  0  0  0  0  0  0  0  0
    6.6655   11.9646   26.4379 C   0  0  0  0  0  0  0  0  0  0  0  0
    7.6776   12.5720   25.6837 C   0  0  0  0  0  0  0  0  0  0  0  0
    7.8312   14.4465   25.8727 Br  0  0  0  0  0  0  0  0  0  0  0  0
    8.4930   11.7955   24.8200 C   0  0  0  0  0  0  0  0  0  0  0  0
  2  1  1  6
  2  3  1  0
  3  4  1  0
  4  5  1  6
  5  6  1  0
  6  7  2  0
  6  8  1  0
  8  9  2  0
  9 10  1  0
 10 11  1  0
 10 12  1  0
 12 13  2  0
 13 14  1  0
 14 15  2  0
 15 16  1  0
 16 17  1  0
 16 18  2  0
  4  2  1  0
 18  8  1  0
 18 12  1  0
M  END
>  <alias>  (1029) 
None

>  <rmsd(smina/fragmenstein)>  (1029) 
0.315

>  <smiles>  (1029) 
C[C@H]1C[C@H]1NC(=O)c1cn(C)c2cccc(Br)c12

>  <gnina_score>  (1029) 
5.451

>  <inspiration_score>  (1029) 
None

>  <energy_score>  (1029) 
-1.958875

>  <distance_score>  (1029) 
0.518565

>  <gnina_score_min>  (1029) 
5.532

>  <inchikey>  (1029) 
XVWMFTXGIOUUIF-GZMMTYOYSA-N

>  <exports>  (1029) 
['/opt/xchem-fragalysis-2/maxwin/BulkDock/OUTPUTS/openbind_a71ev2a_c2_elabs_1LOUU54.sdf', '/opt/xchem-fragalysis-2/maxwin/BulkDock/OUTPUTS/openbind_a71ev2a_c2_elabs_1LSYIDY.sdf']

>  <name>  (1029) 
P576781

>  <ref_pdb>  (1029) 
A3066a

>  <subsites>  (1029) 
None

>  <HIPPO Pose ID>  (1029) 
576781

>  <ref_mols>  (1029) 
A3066a

>  <HIPPO Compound ID>  (1029) 
349690

>  <tags>  (1029) 
openbind_a71ev2a_c2_elabs,syndirella_product,openbind_a71ev2a_c2_elabs_fragonly_scored_top80percent,BulkDock Fragalysis export,openbind_a71ev2a_c2_elabs_scored,openbind_a71ev2a_c2_elabs_scored_top80percent,openbind_a71ev2a_c2_elabs_activefrags_only_scored_5.2plus,openbind_a71ev2a_c2_elabs_activefrags_only_scored_5.5plus,syndirella_placed

>  <smina_score_min>  (1029) 
-7.036

$$$$
P576782
     RDKit          3D

 18 19  0  0  0  0  0  0  0  0999 V2000
   12.3799   14.3170   20.7645 C   0  0  0  0  0  0  0  0  0  0  0  0
   11.2036   14.8245   21.5788 C   0  0  1  0  0  0  0  0  0  0  0  0
   10.2087   15.5387   20.7562 C   0  0  0  0  0  0  0  0  0  0  0  0
    9.4141   16.0978   20.1196 N   0  0  0  0  0  0  0  0  0  0  0  0
   10.5871   13.7213   22.2545 N   0  0  0  0  0  0  0  0  0  0  0  0
   10.3970   13.4511   23.7465 C   0  0  0  0  0  0  0  0  0  0  0  0
   10.7763   14.0407   24.6738 O   0  0  0  0  0  0  0  0  0  0  0  0
    9.6646   12.1999   23.9019 C   0  0  0  0  0  0  0  0  0  0  0  0
    9.9789   11.0502   23.2019 C   0  0  0  0  0  0  0  0  0  0  0  0
    9.2254   10.0248   23.6804 N   0  0  0  0  0  0  0  0  0  0  0  0
    9.3626    8.6523   23.2449 C   0  0  0  0  0  0  0  0  0  0  0  0
    8.3400   10.5025   24.6190 C   0  0  0  0  0  0  0  0  0  0  0  0
    7.3575    9.8307   25.3529 C   0  0  0  0  0  0  0  0  0  0  0  0
    6.5631   10.5467   26.2418 C   0  0  0  0  0  0  0  0  0  0  0  0
    6.7327   11.9142   26.3841 C   0  0  0  0  0  0  0  0  0  0  0  0
    7.7191   12.5902   25.6536 C   0  0  0  0  0  0  0  0  0  0  0  0
    7.8166   14.4602   25.9113 Br  0  0  0  0  0  0  0  0  0  0  0  0
    8.5643   11.8806   24.7633 C   0  0  0  0  0  0  0  0  0  0  0  0
  2  1  1  6
  2  3  1  0
  3  4  3  0
  2  5  1  0
  5  6  1  0
  6  7  2  0
  6  8  1  0
  8  9  2  0
  9 10  1  0
 10 11  1  0
 10 12  1  0
 12 13  2  0
 13 14  1  0
 14 15  2  0
 15 16  1  0
 16 17  1  0
 16 18  2  0
 18  8  1  0
 18 12  1  0
M  END
>  <alias>  (1030) 
None

>  <rmsd(smina/fragmenstein)>  (1030) 
0.318

>  <smiles>  (1030) 
C[C@@H](C#N)NC(=O)c1cn(C)c2cccc(Br)c12

>  <gnina_score>  (1030) 
5.769

>  <inspiration_score>  (1030) 
None

>  <energy_score>  (1030) 
-4.286551

>  <distance_score>  (1030) 
0.583504

>  <gnina_score_min>  (1030) 
5.817

>  <inchikey>  (1030) 
FNIAACLITRGGBD-QMMMGPOBSA-N

>  <exports>  (1030) 
['/opt/xchem-fragalysis-2/maxwin/BulkDock/OUTPUTS/openbind_a71ev2a_c2_elabs_1LOUU54.sdf', '/opt/xchem-fragalysis-2/maxwin/BulkDock/OUTPUTS/openbind_a71ev2a_c2_elabs_1LSYIDY.sdf']

>  <name>  (1030) 
P576782

>  <ref_pdb>  (1030) 
A3066a

>  <subsites>  (1030) 
None

>  <HIPPO Pose ID>  (1030) 
576782

>  <ref_mols>  (1030) 
A3066a

>  <HIPPO Compound ID>  (1030) 
349692

>  <tags>  (1030) 
openbind_a71ev2a_c2_elabs,syndirella_product,openbind_a71ev2a_c2_elabs_fragonly_scored_top80percent,BulkDock Fragalysis export,openbind_a71ev2a_c2_elabs_scored,openbind_a71ev2a_c2_elabs_scored_top80percent,openbind_a71ev2a_c2_elabs_activefrags_only_scored_5.2plus,openbind_a71ev2a_c2_elabs_activefrags_only_scored_5.5plus,syndirella_placed

>  <smina_score_min>  (1030) 
-7.391

$$$$
P576783
     RDKit          3D

 18 20  0  0  0  0  0  0  0  0999 V2000
    9.3746    8.7195   23.2888 C   0  0  0  0  0  0  0  0  0  0  0  0
    9.1915   10.0858   23.7287 N   0  0  0  0  0  0  0  0  0  0  0  0
    9.8827   11.1441   23.2277 C   0  0  0  0  0  0  0  0  0  0  0  0
    9.4808   12.2877   23.8913 C   0  0  0  0  0  0  0  0  0  0  0  0
   10.0336   13.5936   23.5888 C   0  0  0  0  0  0  0  0  0  0  0  0
   10.6989   14.1790   24.3439 O   0  0  0  0  0  0  0  0  0  0  0  0
    9.6519   13.9184   22.1402 N   0  0  0  0  0  0  0  0  0  0  0  0
   10.0790   14.9756   21.2840 C   0  0  0  0  0  0  0  0  0  0  0  0
   11.4626   14.7483   20.7766 C   0  0  0  0  0  0  0  0  0  0  0  0
   12.3632   13.6207   21.2074 C   0  0  0  0  0  0  0  0  0  0  0  0
   12.6488   14.9991   21.6839 C   0  0  0  0  0  0  0  0  0  0  0  0
    8.4530   11.9191   24.8047 C   0  0  0  0  0  0  0  0  0  0  0  0
    7.6104   12.6037   25.7120 C   0  0  0  0  0  0  0  0  0  0  0  0
    7.6948   14.4747   25.9743 Br  0  0  0  0  0  0  0  0  0  0  0  0
    6.6611   11.8971   26.4588 C   0  0  0  0  0  0  0  0  0  0  0  0
    6.5291   10.5245   26.3099 C   0  0  0  0  0  0  0  0  0  0  0  0
    7.3358    9.8304   25.4120 C   0  0  0  0  0  0  0  0  0  0  0  0
    8.2907   10.5318   24.6713 C   0  0  0  0  0  0  0  0  0  0  0  0
  1  2  1  0
  2  3  1  0
  3  4  2  0
  4  5  1  0
  5  6  2  0
  5  7  1  0
  7  8  1  0
  8  9  1  0
  9 10  1  0
 10 11  1  0
  4 12  1  0
 12 13  2  0
 13 14  1  0
 13 15  1  0
 15 16  2  0
 16 17  1  0
 17 18  2  0
 18  2  1  0
 11  9  1  0
 18 12  1  0
M  END
>  <alias>  (1031) 
None

>  <rmsd(smina/fragmenstein)>  (1031) 
0.247

>  <smiles>  (1031) 
Cn1cc(C(=O)NCC2CC2)c2c(Br)cccc21

>  <gnina_score>  (1031) 
5.438

>  <inspiration_score>  (1031) 
None

>  <energy_score>  (1031) 
-17.460389

>  <distance_score>  (1031) 
0.981111

>  <gnina_score_min>  (1031) 
5.435

>  <inchikey>  (1031) 
FREMFLLWMIPOIB-UHFFFAOYSA-N

>  <exports>  (1031) 
['/opt/xchem-fragalysis-2/maxwin/BulkDock/OUTPUTS/openbind_a71ev2a_c2_elabs_1LOUU54.sdf', '/opt/xchem-fragalysis-2/maxwin/BulkDock/OUTPUTS/openbind_a71ev2a_c2_elabs_1LSYIDY.sdf']

>  <name>  (1031) 
P576783

>  <ref_pdb>  (1031) 
A3066a

>  <subsites>  (1031) 
None

>  <HIPPO Pose ID>  (1031) 
576783

>  <ref_mols>  (1031) 
A3066a

>  <HIPPO Compound ID>  (1031) 
349693

>  <tags>  (1031) 
openbind_a71ev2a_c2_elabs,syndirella_product,openbind_a71ev2a_c2_elabs_fragonly_scored_top80percent,openbind_a71ev2a_c2_elabs_scored,BulkDock Fragalysis export,openbind_a71ev2a_c2_elabs_scored_top80percent,openbind_a71ev2a_c2_elabs_activefrags_only_scored_5.2plus,syndirella_placed

>  <smina_score_min>  (1031) 
-6.586

$$$$
P576784
     RDKit          3D

 18 19  0  0  0  0  0  0  0  0999 V2000
   11.5522   14.6732   18.8298 C   0  0  0  0  0  0  0  0  0  0  0  0
   10.8615   14.6502   20.1642 C   0  0  2  0  0  0  0  0  0  0  0  0
    9.6426   16.1419   20.4278 Br  0  0  0  0  0  0  0  0  0  0  0  0
   11.8153   14.4687   21.3403 C   0  0  0  0  0  0  0  0  0  0  0  0
   11.1863   13.5003   22.1832 N   0  0  0  0  0  0  0  0  0  0  0  0
   10.9308   13.5108   23.6810 C   0  0  0  0  0  0  0  0  0  0  0  0
   11.2558   14.2721   24.4958 O   0  0  0  0  0  0  0  0  0  0  0  0
   10.0560   12.3831   23.9870 C   0  0  0  0  0  0  0  0  0  0  0  0
   10.0499   11.1275   23.4170 C   0  0  0  0  0  0  0  0  0  0  0  0
    9.0750   10.3710   24.0167 N   0  0  0  0  0  0  0  0  0  0  0  0
    8.9733    8.9480   23.7681 C   0  0  0  0  0  0  0  0  0  0  0  0
    8.3229   11.1698   24.8600 C   0  0  0  0  0  0  0  0  0  0  0  0
    7.1733   10.9807   25.6437 C   0  0  0  0  0  0  0  0  0  0  0  0
    6.2075    9.4017   25.7435 Br  0  0  0  0  0  0  0  0  0  0  0  0
    6.6483   12.0372   26.3980 C   0  0  0  0  0  0  0  0  0  0  0  0
    7.2309   13.2859   26.3743 C   0  0  0  0  0  0  0  0  0  0  0  0
    8.3640   13.4909   25.6008 C   0  0  0  0  0  0  0  0  0  0  0  0
    8.9290   12.4350   24.8502 C   0  0  0  0  0  0  0  0  0  0  0  0
  2  1  1  6
  2  3  1  0
  2  4  1  0
  4  5  1  0
  5  6  1  0
  6  7  2  0
  6  8  1  0
  8  9  2  0
  9 10  1  0
 10 11  1  0
 10 12  1  0
 12 13  2  0
 13 14  1  0
 13 15  1  0
 15 16  2  0
 16 17  1  0
 17 18  2  0
 18  8  1  0
 18 12  1  0
M  END
>  <alias>  (1032) 
None

>  <rmsd(smina/fragmenstein)>  (1032) 
0.889

>  <smiles>  (1032) 
C[C@H](Br)CNC(=O)c1cn(C)c2c(Br)cccc12

>  <gnina_score>  (1032) 
5.402

>  <inspiration_score>  (1032) 
None

>  <energy_score>  (1032) 
-3.69571

>  <distance_score>  (1032) 
0.807252

>  <gnina_score_min>  (1032) 
5.307

>  <inchikey>  (1032) 
TUCKJSRNOWNMFU-QMMMGPOBSA-N

>  <exports>  (1032) 
['/opt/xchem-fragalysis-2/maxwin/BulkDock/OUTPUTS/openbind_a71ev2a_c2_elabs_1LOUU54.sdf', '/opt/xchem-fragalysis-2/maxwin/BulkDock/OUTPUTS/openbind_a71ev2a_c2_elabs_1LSYIDY.sdf']

>  <name>  (1032) 
P576784

>  <ref_pdb>  (1032) 
A3066a

>  <subsites>  (1032) 
None

>  <HIPPO Pose ID>  (1032) 
576784

>  <ref_mols>  (1032) 
A3066a

>  <HIPPO Compound ID>  (1032) 
349697

>  <tags>  (1032) 
openbind_a71ev2a_c2_elabs,syndirella_product,openbind_a71ev2a_c2_elabs_fragonly_scored_top80percent,openbind_a71ev2a_c2_elabs_scored,BulkDock Fragalysis export,openbind_a71ev2a_c2_elabs_scored_top80percent,openbind_a71ev2a_c2_elabs_activefrags_only_scored_5.2plus,syndirella_placed

>  <smina_score_min>  (1032) 
-6.293

$$$$
P576786
     RDKit          3D

 18 19  0  0  0  0  0  0  0  0999 V2000
    9.0816    8.9643   23.6366 C   0  0  0  0  0  0  0  0  0  0  0  0
    9.1748   10.3994   23.8167 N   0  0  0  0  0  0  0  0  0  0  0  0
   10.0978   11.1534   23.1346 C   0  0  0  0  0  0  0  0  0  0  0  0
   10.1159   12.4330   23.6472 C   0  0  0  0  0  0  0  0  0  0  0  0
   11.0021   13.5490   23.2787 C   0  0  0  0  0  0  0  0  0  0  0  0
   11.2225   14.3863   24.0567 O   0  0  0  0  0  0  0  0  0  0  0  0
   11.4128   13.4267   21.8089 N   0  0  0  0  0  0  0  0  0  0  0  0
   12.0994   14.3474   20.9551 C   0  0  0  0  0  0  0  0  0  0  0  0
   11.2043   14.7392   19.7872 C   0  0  0  0  0  0  0  0  0  0  0  0
    9.9536   15.4966   20.2086 C   0  0  0  0  0  0  0  0  0  0  0  0
    9.3176   15.9878   19.0318 O   0  0  0  0  0  0  0  0  0  0  0  0
    9.0459   12.4830   24.5950 C   0  0  0  0  0  0  0  0  0  0  0  0
    8.5156   13.5344   25.3768 C   0  0  0  0  0  0  0  0  0  0  0  0
    7.4212   13.3349   26.2090 C   0  0  0  0  0  0  0  0  0  0  0  0
    6.8423   12.0868   26.2735 C   0  0  0  0  0  0  0  0  0  0  0  0
    7.3410   11.0244   25.5117 C   0  0  0  0  0  0  0  0  0  0  0  0
    6.3883    9.4398   25.6774 Br  0  0  0  0  0  0  0  0  0  0  0  0
    8.4520   11.2129   24.6698 C   0  0  0  0  0  0  0  0  0  0  0  0
  1  2  1  0
  2  3  1  0
  3  4  2  0
  4  5  1  0
  5  6  2  0
  5  7  1  0
  7  8  1  0
  8  9  1  0
  9 10  1  0
 10 11  1  0
  4 12  1  0
 12 13  2  0
 13 14  1  0
 14 15  2  0
 15 16  1  0
 16 17  1  0
 16 18  2  0
 18  2  1  0
 18 12  1  0
M  END
>  <alias>  (1033) 
None

>  <rmsd(smina/fragmenstein)>  (1033) 
0.479

>  <smiles>  (1033) 
Cn1cc(C(=O)NCCCO)c2cccc(Br)c21

>  <gnina_score>  (1033) 
5.46

>  <inspiration_score>  (1033) 
None

>  <energy_score>  (1033) 
-8.529047

>  <distance_score>  (1033) 
0.827673

>  <gnina_score_min>  (1033) 
5.502

>  <inchikey>  (1033) 
RFSLSLQKVFNLNW-UHFFFAOYSA-N

>  <exports>  (1033) 
['/opt/xchem-fragalysis-2/maxwin/BulkDock/OUTPUTS/openbind_a71ev2a_c2_elabs_1LOUU54.sdf', '/opt/xchem-fragalysis-2/maxwin/BulkDock/OUTPUTS/openbind_a71ev2a_c2_elabs_1LSYIDY.sdf']

>  <name>  (1033) 
P576786

>  <ref_pdb>  (1033) 
A3066a

>  <subsites>  (1033) 
None

>  <HIPPO Pose ID>  (1033) 
576786

>  <ref_mols>  (1033) 
A3066a

>  <HIPPO Compound ID>  (1033) 
349704

>  <tags>  (1033) 
openbind_a71ev2a_c2_elabs,syndirella_product,openbind_a71ev2a_c2_elabs_fragonly_scored_top80percent,BulkDock Fragalysis export,openbind_a71ev2a_c2_elabs_scored,openbind_a71ev2a_c2_elabs_scored_top80percent,openbind_a71ev2a_c2_elabs_activefrags_only_scored_5.2plus,openbind_a71ev2a_c2_elabs_activefrags_only_scored_5.5plus,syndirella_placed

>  <smina_score_min>  (1033) 
-6.539

$$$$
P576788
     RDKit          3D

 18 19  0  0  0  0  0  0  0  0999 V2000
    9.4053   15.9398   20.3751 C   0  0  0  0  0  0  0  0  0  0  0  0
   10.5851   14.9899   20.2558 C   0  0  0  0  0  0  0  0  0  0  0  0
   11.2589   14.7530   21.6058 C   0  0  2  0  0  0  0  0  0  0  0  0
   12.6953   14.2996   21.4557 C   0  0  0  0  0  0  0  0  0  0  0  0
   10.5310   13.7426   22.3199 N   0  0  0  0  0  0  0  0  0  0  0  0
   10.4110   13.4776   23.8225 C   0  0  0  0  0  0  0  0  0  0  0  0
   10.8196   14.0802   24.7300 O   0  0  0  0  0  0  0  0  0  0  0  0
    9.6720   12.2308   23.9864 C   0  0  0  0  0  0  0  0  0  0  0  0
    9.9784   11.0884   23.2681 C   0  0  0  0  0  0  0  0  0  0  0  0
    9.2114   10.0636   23.7232 N   0  0  0  0  0  0  0  0  0  0  0  0
    9.3346    8.6984   23.2626 C   0  0  0  0  0  0  0  0  0  0  0  0
    8.3255   10.5357   24.6643 C   0  0  0  0  0  0  0  0  0  0  0  0
    7.3281    9.8642   25.3783 C   0  0  0  0  0  0  0  0  0  0  0  0
    6.5353   10.5774   26.2712 C   0  0  0  0  0  0  0  0  0  0  0  0
    6.7184   11.9409   26.4356 C   0  0  0  0  0  0  0  0  0  0  0  0
    7.7188   12.6163   25.7245 C   0  0  0  0  0  0  0  0  0  0  0  0
    7.8432   14.4811   26.0114 Br  0  0  0  0  0  0  0  0  0  0  0  0
    8.5644   11.9096   24.8336 C   0  0  0  0  0  0  0  0  0  0  0  0
  1  2  1  0
  2  3  1  0
  3  4  1  6
  3  5  1  0
  5  6  1  0
  6  7  2  0
  6  8  1  0
  8  9  2  0
  9 10  1  0
 10 11  1  0
 10 12  1  0
 12 13  2  0
 13 14  1  0
 14 15  2  0
 15 16  1  0
 16 17  1  0
 16 18  2  0
 18  8  1  0
 18 12  1  0
M  END
>  <alias>  (1034) 
None

>  <rmsd(smina/fragmenstein)>  (1034) 
0.236

>  <smiles>  (1034) 
CC[C@H](C)NC(=O)c1cn(C)c2cccc(Br)c12

>  <gnina_score>  (1034) 
5.603

>  <inspiration_score>  (1034) 
None

>  <energy_score>  (1034) 
-5.201807

>  <distance_score>  (1034) 
0.597412

>  <gnina_score_min>  (1034) 
5.623

>  <inchikey>  (1034) 
BVMNWOORCDNUMG-VIFPVBQESA-N

>  <exports>  (1034) 
['/opt/xchem-fragalysis-2/maxwin/BulkDock/OUTPUTS/openbind_a71ev2a_c2_elabs_1LOUU54.sdf', '/opt/xchem-fragalysis-2/maxwin/BulkDock/OUTPUTS/openbind_a71ev2a_c2_elabs_1LSYIDY.sdf']

>  <name>  (1034) 
P576788

>  <ref_pdb>  (1034) 
A3066a

>  <subsites>  (1034) 
None

>  <HIPPO Pose ID>  (1034) 
576788

>  <ref_mols>  (1034) 
A3066a

>  <HIPPO Compound ID>  (1034) 
349707

>  <tags>  (1034) 
openbind_a71ev2a_c2_elabs,syndirella_product,openbind_a71ev2a_c2_elabs_fragonly_scored_top80percent,BulkDock Fragalysis export,openbind_a71ev2a_c2_elabs_scored,openbind_a71ev2a_c2_elabs_scored_top80percent,openbind_a71ev2a_c2_elabs_activefrags_only_scored_5.2plus,openbind_a71ev2a_c2_elabs_activefrags_only_scored_5.5plus,syndirella_placed

>  <smina_score_min>  (1034) 
-7.691

$$$$
P576789
     RDKit          3D

 18 20  0  0  0  0  0  0  0  0999 V2000
    9.3760    8.7429   23.2246 C   0  0  0  0  0  0  0  0  0  0  0  0
    9.2483   10.1073   23.6895 N   0  0  0  0  0  0  0  0  0  0  0  0
    9.9968   11.1451   23.2244 C   0  0  0  0  0  0  0  0  0  0  0  0
    9.7224   12.2758   23.9719 C   0  0  0  0  0  0  0  0  0  0  0  0
   10.4569   13.5444   23.8754 C   0  0  0  0  0  0  0  0  0  0  0  0
   10.6852   14.1747   24.8419 O   0  0  0  0  0  0  0  0  0  0  0  0
   10.7131   13.8558   22.4310 N   0  0  0  0  0  0  0  0  0  0  0  0
   12.1449   13.3396   21.9699 C   0  0  0  0  0  0  0  0  0  0  0  0
   12.0631   14.2792   20.8138 C   0  0  0  0  0  0  0  0  0  0  0  0
   12.4814   14.3175   19.6838 O   0  0  0  0  0  0  0  0  0  0  0  0
   11.2564   15.1309   21.7584 C   0  0  0  0  0  0  0  0  0  0  0  0
    8.5984   11.9398   24.8124 C   0  0  0  0  0  0  0  0  0  0  0  0
    7.7327   12.6304   25.7018 C   0  0  0  0  0  0  0  0  0  0  0  0
    7.7903   14.4992   25.9892 Br  0  0  0  0  0  0  0  0  0  0  0  0
    6.7376   11.9374   26.4069 C   0  0  0  0  0  0  0  0  0  0  0  0
    6.5728   10.5727   26.2409 C   0  0  0  0  0  0  0  0  0  0  0  0
    7.3783    9.8755   25.3490 C   0  0  0  0  0  0  0  0  0  0  0  0
    8.3672   10.5650   24.6386 C   0  0  0  0  0  0  0  0  0  0  0  0
  1  2  1  0
  2  3  1  0
  3  4  2  0
  4  5  1  0
  5  6  2  0
  5  7  1  0
  7  8  1  0
  8  9  1  0
  9 10  2  0
  9 11  1  0
  4 12  1  0
 12 13  2  0
 13 14  1  0
 13 15  1  0
 15 16  2  0
 16 17  1  0
 17 18  2  0
 18  2  1  0
 11  7  1  0
 18 12  1  0
M  END
>  <alias>  (1035) 
None

>  <rmsd(smina/fragmenstein)>  (1035) 
0.293

>  <smiles>  (1035) 
Cn1cc(C(=O)N2CC(=O)C2)c2c(Br)cccc21

>  <gnina_score>  (1035) 
5.32

>  <inspiration_score>  (1035) 
None

>  <energy_score>  (1035) 
-0.256666

>  <distance_score>  (1035) 
0.58922

>  <gnina_score_min>  (1035) 
5.338

>  <inchikey>  (1035) 
WLBWXNXCHJHUST-UHFFFAOYSA-N

>  <exports>  (1035) 
['/opt/xchem-fragalysis-2/maxwin/BulkDock/OUTPUTS/openbind_a71ev2a_c2_elabs_1LOUU54.sdf', '/opt/xchem-fragalysis-2/maxwin/BulkDock/OUTPUTS/openbind_a71ev2a_c2_elabs_1LSYIDY.sdf']

>  <name>  (1035) 
P576789

>  <ref_pdb>  (1035) 
A3066a

>  <subsites>  (1035) 
None

>  <HIPPO Pose ID>  (1035) 
576789

>  <ref_mols>  (1035) 
A3066a

>  <HIPPO Compound ID>  (1035) 
349708

>  <tags>  (1035) 
openbind_a71ev2a_c2_elabs,syndirella_product,openbind_a71ev2a_c2_elabs_fragonly_scored_top80percent,openbind_a71ev2a_c2_elabs_scored,BulkDock Fragalysis export,openbind_a71ev2a_c2_elabs_scored_top80percent,openbind_a71ev2a_c2_elabs_activefrags_only_scored_5.2plus,syndirella_placed

>  <smina_score_min>  (1035) 
-6.468

$$$$
P576790
     RDKit          3D

 18 20  0  0  0  0  0  0  0  0999 V2000
    9.0965    8.3493   23.5986 C   0  0  0  0  0  0  0  0  0  0  0  0
    8.9216    9.7488   23.8667 N   0  0  0  0  0  0  0  0  0  0  0  0
    9.7467   10.6585   23.3113 C   0  0  0  0  0  0  0  0  0  0  0  0
    9.5456   11.8656   23.9472 C   0  0  0  0  0  0  0  0  0  0  0  0
   10.5170   12.9324   23.8369 C   0  0  0  0  0  0  0  0  0  0  0  0
   10.7306   13.6518   24.7337 O   0  0  0  0  0  0  0  0  0  0  0  0
   11.2009   12.8259   22.4478 N   0  0  0  0  0  0  0  0  0  0  0  0
   12.2708   13.4706   21.9494 N   0  0  0  0  0  0  0  0  0  0  0  0
   12.7576   14.5296   22.8133 C   0  0  0  0  0  0  0  0  0  0  0  0
   12.8402   15.4160   21.5990 C   0  0  0  0  0  0  0  0  0  0  0  0
   11.8888   14.4412   20.9193 C   0  0  0  0  0  0  0  0  0  0  0  0
    8.4059   11.7223   24.7979 C   0  0  0  0  0  0  0  0  0  0  0  0
    7.6420   12.5580   25.6512 C   0  0  0  0  0  0  0  0  0  0  0  0
    7.8642   14.4292   25.7609 Br  0  0  0  0  0  0  0  0  0  0  0  0
    6.6341   12.0152   26.4567 C   0  0  0  0  0  0  0  0  0  0  0  0
    6.3557   10.6613   26.4148 C   0  0  0  0  0  0  0  0  0  0  0  0
    7.0492    9.8295   25.5443 C   0  0  0  0  0  0  0  0  0  0  0  0
    8.0710   10.3593   24.7529 C   0  0  0  0  0  0  0  0  0  0  0  0
  1  2  1  0
  2  3  1  0
  3  4  2  0
  4  5  1  0
  5  6  2  0
  5  7  1  0
  7  8  1  0
  8  9  1  0
  9 10  1  0
 10 11  1  0
  4 12  1  0
 12 13  2  0
 13 14  1  0
 13 15  1  0
 15 16  2  0
 16 17  1  0
 17 18  2  0
 18  2  1  0
 11  8  1  0
 18 12  1  0
M  END
>  <alias>  (1036) 
None

>  <rmsd(smina/fragmenstein)>  (1036) 
0.23

>  <smiles>  (1036) 
Cn1cc(C(=O)NN2CCC2)c2c(Br)cccc21

>  <gnina_score>  (1036) 
5.614

>  <inspiration_score>  (1036) 
None

>  <energy_score>  (1036) 
-4.472215

>  <distance_score>  (1036) 
0.670236

>  <gnina_score_min>  (1036) 
5.576

>  <inchikey>  (1036) 
KUKSDHBXDIWLON-UHFFFAOYSA-N

>  <exports>  (1036) 
['/opt/xchem-fragalysis-2/maxwin/BulkDock/OUTPUTS/openbind_a71ev2a_c2_elabs_1LOUU54.sdf', '/opt/xchem-fragalysis-2/maxwin/BulkDock/OUTPUTS/openbind_a71ev2a_c2_elabs_1LSYIDY.sdf']

>  <name>  (1036) 
P576790

>  <ref_pdb>  (1036) 
A3066a

>  <subsites>  (1036) 
None

>  <HIPPO Pose ID>  (1036) 
576790

>  <ref_mols>  (1036) 
A3066a

>  <HIPPO Compound ID>  (1036) 
349709

>  <tags>  (1036) 
openbind_a71ev2a_c2_elabs,syndirella_product,openbind_a71ev2a_c2_elabs_fragonly_scored_top80percent,BulkDock Fragalysis export,openbind_a71ev2a_c2_elabs_scored,openbind_a71ev2a_c2_elabs_scored_top80percent,openbind_a71ev2a_c2_elabs_activefrags_only_scored_5.2plus,openbind_a71ev2a_c2_elabs_activefrags_only_scored_5.5plus,syndirella_placed

>  <smina_score_min>  (1036) 
-6.435

$$$$
P576791
     RDKit          3D

 18 19  0  0  0  0  0  0  0  0999 V2000
    9.4716    8.4875   23.3305 C   0  0  0  0  0  0  0  0  0  0  0  0
    9.2730    9.8844   23.6377 N   0  0  0  0  0  0  0  0  0  0  0  0
    9.9853   10.8888   23.0643 C   0  0  0  0  0  0  0  0  0  0  0  0
    9.6579   12.0773   23.6827 C   0  0  0  0  0  0  0  0  0  0  0  0
   10.3542   13.3377   23.4439 C   0  0  0  0  0  0  0  0  0  0  0  0
   10.5034   14.0775   24.3313 O   0  0  0  0  0  0  0  0  0  0  0  0
   10.7005   13.4877   21.9495 N   0  0  0  0  0  0  0  0  0  0  0  0
   11.2180   14.6207   21.2142 C   0  0  0  0  0  0  0  0  0  0  0  0
   10.0447   15.5909   21.0324 C   0  0  0  0  0  0  0  0  0  0  0  0
   11.7397   14.2535   19.8243 C   0  0  0  0  0  0  0  0  0  0  0  0
   12.3837   15.1576   22.0333 C   0  0  0  0  0  0  0  0  0  0  0  0
    8.5726   11.7951   24.5899 C   0  0  0  0  0  0  0  0  0  0  0  0
    7.7116   12.5360   25.4450 C   0  0  0  0  0  0  0  0  0  0  0  0
    7.6953   14.4216   25.5636 Br  0  0  0  0  0  0  0  0  0  0  0  0
    6.7547   11.8813   26.2355 C   0  0  0  0  0  0  0  0  0  0  0  0
    6.6138   10.5070   26.1796 C   0  0  0  0  0  0  0  0  0  0  0  0
    7.4158    9.7622   25.3248 C   0  0  0  0  0  0  0  0  0  0  0  0
    8.3808   10.4059   24.5439 C   0  0  0  0  0  0  0  0  0  0  0  0
  1  2  1  0
  2  3  1  0
  3  4  2  0
  4  5  1  0
  5  6  2  0
  5  7  1  0
  7  8  1  0
  8  9  1  0
  8 10  1  0
  8 11  1  0
  4 12  1  0
 12 13  2  0
 13 14  1  0
 13 15  1  0
 15 16  2  0
 16 17  1  0
 17 18  2  0
 18  2  1  0
 18 12  1  0
M  END
>  <alias>  (1037) 
None

>  <rmsd(smina/fragmenstein)>  (1037) 
0.205

>  <smiles>  (1037) 
Cn1cc(C(=O)NC(C)(C)C)c2c(Br)cccc21

>  <gnina_score>  (1037) 
5.628

>  <inspiration_score>  (1037) 
None

>  <energy_score>  (1037) 
-8.021008

>  <distance_score>  (1037) 
0.599305

>  <gnina_score_min>  (1037) 
5.631

>  <inchikey>  (1037) 
SNKYFILRTLVEOH-UHFFFAOYSA-N

>  <exports>  (1037) 
['/opt/xchem-fragalysis-2/maxwin/BulkDock/OUTPUTS/openbind_a71ev2a_c2_elabs_1LOUU54.sdf', '/opt/xchem-fragalysis-2/maxwin/BulkDock/OUTPUTS/openbind_a71ev2a_c2_elabs_1LSYIDY.sdf']

>  <name>  (1037) 
P576791

>  <ref_pdb>  (1037) 
A3066a

>  <subsites>  (1037) 
None

>  <HIPPO Pose ID>  (1037) 
576791

>  <ref_mols>  (1037) 
A3066a

>  <HIPPO Compound ID>  (1037) 
349713

>  <tags>  (1037) 
openbind_a71ev2a_c2_elabs,syndirella_product,openbind_a71ev2a_c2_elabs_fragonly_scored_top80percent,BulkDock Fragalysis export,openbind_a71ev2a_c2_elabs_scored,openbind_a71ev2a_c2_elabs_scored_top80percent,openbind_a71ev2a_c2_elabs_activefrags_only_scored_5.2plus,openbind_a71ev2a_c2_elabs_activefrags_only_scored_5.5plus,syndirella_placed

>  <smina_score_min>  (1037) 
-6.915

$$$$
P576792
     RDKit          3D

 18 19  0  0  0  0  0  0  0  0999 V2000
    9.3715    8.6470   23.3611 C   0  0  0  0  0  0  0  0  0  0  0  0
    9.0680   10.0037   23.7616 N   0  0  0  0  0  0  0  0  0  0  0  0
    9.6908   11.0999   23.2530 C   0  0  0  0  0  0  0  0  0  0  0  0
    9.1642   12.2172   23.8741 C   0  0  0  0  0  0  0  0  0  0  0  0
    9.6464   13.5629   23.6860 C   0  0  0  0  0  0  0  0  0  0  0  0
    9.8033   14.2482   24.6096 O   0  0  0  0  0  0  0  0  0  0  0  0
    9.9497   13.8066   22.2083 N   0  0  0  0  0  0  0  0  0  0  0  0
   10.5931   14.8993   21.5651 C   0  0  0  0  0  0  0  0  0  0  0  0
   11.8787   15.2343   22.2938 C   0  0  0  0  0  0  0  0  0  0  0  0
   12.8894   14.1229   22.2778 C   0  0  0  0  0  0  0  0  0  0  0  0
   12.8363   13.0465   23.9133 Br  0  0  0  0  0  0  0  0  0  0  0  0
    8.1602   11.7942   24.7892 C   0  0  0  0  0  0  0  0  0  0  0  0
    7.2561   12.4277   25.6828 C   0  0  0  0  0  0  0  0  0  0  0  0
    7.0401   14.3067   25.8353 Br  0  0  0  0  0  0  0  0  0  0  0  0
    6.4075   11.6540   26.4799 C   0  0  0  0  0  0  0  0  0  0  0  0
    6.4055   10.2754   26.3665 C   0  0  0  0  0  0  0  0  0  0  0  0
    7.2511    9.6458   25.4596 C   0  0  0  0  0  0  0  0  0  0  0  0
    8.1343   10.3999   24.6938 C   0  0  0  0  0  0  0  0  0  0  0  0
  1  2  1  0
  2  3  1  0
  3  4  2  0
  4  5  1  0
  5  6  2  0
  5  7  1  0
  7  8  1  0
  8  9  1  0
  9 10  1  0
 10 11  1  0
  4 12  1  0
 12 13  2  0
 13 14  1  0
 13 15  1  0
 15 16  2  0
 16 17  1  0
 17 18  2  0
 18  2  1  0
 18 12  1  0
M  END
>  <alias>  (1038) 
None

>  <rmsd(smina/fragmenstein)>  (1038) 
0.316

>  <smiles>  (1038) 
Cn1cc(C(=O)NCCCBr)c2c(Br)cccc21

>  <gnina_score>  (1038) 
5.591

>  <inspiration_score>  (1038) 
None

>  <energy_score>  (1038) 
-2.531943

>  <distance_score>  (1038) 
1.028353

>  <gnina_score_min>  (1038) 
5.547

>  <inchikey>  (1038) 
ZXZHZTWVPIJWLD-UHFFFAOYSA-N

>  <exports>  (1038) 
['/opt/xchem-fragalysis-2/maxwin/BulkDock/OUTPUTS/openbind_a71ev2a_c2_elabs_1LOUU54.sdf', '/opt/xchem-fragalysis-2/maxwin/BulkDock/OUTPUTS/openbind_a71ev2a_c2_elabs_1LSYIDY.sdf']

>  <name>  (1038) 
P576792

>  <ref_pdb>  (1038) 
A3066a

>  <subsites>  (1038) 
None

>  <HIPPO Pose ID>  (1038) 
576792

>  <ref_mols>  (1038) 
A3066a

>  <HIPPO Compound ID>  (1038) 
349716

>  <tags>  (1038) 
openbind_a71ev2a_c2_elabs,syndirella_product,openbind_a71ev2a_c2_elabs_fragonly_scored_top80percent,BulkDock Fragalysis export,openbind_a71ev2a_c2_elabs_scored,openbind_a71ev2a_c2_elabs_scored_top80percent,openbind_a71ev2a_c2_elabs_activefrags_only_scored_5.2plus,openbind_a71ev2a_c2_elabs_activefrags_only_scored_5.5plus,syndirella_placed

>  <smina_score_min>  (1038) 
-5.483

$$$$
P576793
     RDKit          3D

 18 20  0  0  0  0  0  0  0  0999 V2000
    9.3027    8.6473   23.2899 C   0  0  0  0  0  0  0  0  0  0  0  0
    9.1826   10.0083   23.7629 N   0  0  0  0  0  0  0  0  0  0  0  0
    9.9701   11.0300   23.3328 C   0  0  0  0  0  0  0  0  0  0  0  0
    9.6790   12.1518   24.0858 C   0  0  0  0  0  0  0  0  0  0  0  0
   10.4315   13.3898   23.9981 C   0  0  0  0  0  0  0  0  0  0  0  0
   10.8303   13.9403   24.9418 O   0  0  0  0  0  0  0  0  0  0  0  0
   10.5135   13.7699   22.5200 N   0  0  0  0  0  0  0  0  0  0  0  0
   11.1907   14.8698   21.8677 C   0  0  0  0  0  0  0  0  0  0  0  0
   10.2565   15.5650   20.8445 C   0  0  0  0  0  0  0  0  0  0  0  0
   11.0798   14.7210   19.4721 S   0  0  0  0  0  0  0  0  0  0  0  0
   12.2339   14.4219   20.8305 C   0  0  0  0  0  0  0  0  0  0  0  0
    8.5413   11.8438   24.8914 C   0  0  0  0  0  0  0  0  0  0  0  0
    7.6868   12.5591   25.7670 C   0  0  0  0  0  0  0  0  0  0  0  0
    7.8181   14.4260   26.0485 Br  0  0  0  0  0  0  0  0  0  0  0  0
    6.6715   11.8908   26.4605 C   0  0  0  0  0  0  0  0  0  0  0  0
    6.4823   10.5293   26.2875 C   0  0  0  0  0  0  0  0  0  0  0  0
    7.2766    9.8151   25.3961 C   0  0  0  0  0  0  0  0  0  0  0  0
    8.2898   10.4779   24.6997 C   0  0  0  0  0  0  0  0  0  0  0  0
  1  2  1  0
  2  3  1  0
  3  4  2  0
  4  5  1  0
  5  6  2  0
  5  7  1  0
  7  8  1  0
  8  9  1  0
  9 10  1  0
 10 11  1  0
  4 12  1  0
 12 13  2  0
 13 14  1  0
 13 15  1  0
 15 16  2  0
 16 17  1  0
 17 18  2  0
 18  2  1  0
 11  8  1  0
 18 12  1  0
M  END
>  <alias>  (1039) 
None

>  <rmsd(smina/fragmenstein)>  (1039) 
0.326

>  <smiles>  (1039) 
Cn1cc(C(=O)NC2CSC2)c2c(Br)cccc21

>  <gnina_score>  (1039) 
5.568

>  <inspiration_score>  (1039) 
None

>  <energy_score>  (1039) 
-14.175196

>  <distance_score>  (1039) 
0.641173

>  <gnina_score_min>  (1039) 
5.591

>  <inchikey>  (1039) 
MPKMUMZYTJYABD-UHFFFAOYSA-N

>  <exports>  (1039) 
['/opt/xchem-fragalysis-2/maxwin/BulkDock/OUTPUTS/openbind_a71ev2a_c2_elabs_1LOUU54.sdf', '/opt/xchem-fragalysis-2/maxwin/BulkDock/OUTPUTS/openbind_a71ev2a_c2_elabs_1LSYIDY.sdf']

>  <name>  (1039) 
P576793

>  <ref_pdb>  (1039) 
A3066a

>  <subsites>  (1039) 
None

>  <HIPPO Pose ID>  (1039) 
576793

>  <ref_mols>  (1039) 
A3066a

>  <HIPPO Compound ID>  (1039) 
349718

>  <tags>  (1039) 
openbind_a71ev2a_c2_elabs,syndirella_product,openbind_a71ev2a_c2_elabs_fragonly_scored_top80percent,BulkDock Fragalysis export,openbind_a71ev2a_c2_elabs_scored,openbind_a71ev2a_c2_elabs_scored_top80percent,openbind_a71ev2a_c2_elabs_activefrags_only_scored_5.2plus,openbind_a71ev2a_c2_elabs_activefrags_only_scored_5.5plus,syndirella_placed

>  <smina_score_min>  (1039) 
-6.514

$$$$
P576795
     RDKit          3D

 18 19  0  0  0  0  0  0  0  0999 V2000
   11.4592   14.4088   19.9182 C   0  0  0  0  0  0  0  0  0  0  0  0
   11.2873   14.7013   21.3964 C   0  0  2  0  0  0  0  0  0  0  0  0
   12.6270   14.9512   22.0570 C   0  0  0  0  0  0  0  0  0  0  0  0
   12.3880   15.6086   23.2239 F   0  0  0  0  0  0  0  0  0  0  0  0
   10.6342   13.6064   22.0768 N   0  0  0  0  0  0  0  0  0  0  0  0
   10.2899   13.4171   23.5641 C   0  0  0  0  0  0  0  0  0  0  0  0
   10.5457   14.0777   24.4878 O   0  0  0  0  0  0  0  0  0  0  0  0
    9.5886   12.1530   23.7584 C   0  0  0  0  0  0  0  0  0  0  0  0
    9.9380   10.9769   23.1235 C   0  0  0  0  0  0  0  0  0  0  0  0
    9.2208    9.9572   23.6658 N   0  0  0  0  0  0  0  0  0  0  0  0
    9.4154    8.5661   23.3256 C   0  0  0  0  0  0  0  0  0  0  0  0
    8.3257   10.4563   24.5829 C   0  0  0  0  0  0  0  0  0  0  0  0
    7.3675    9.7935   25.3556 C   0  0  0  0  0  0  0  0  0  0  0  0
    6.5678   10.5226   26.2276 C   0  0  0  0  0  0  0  0  0  0  0  0
    6.7043   11.8973   26.3105 C   0  0  0  0  0  0  0  0  0  0  0  0
    7.6559   12.5690   25.5302 C   0  0  0  0  0  0  0  0  0  0  0  0
    7.6641   14.4527   25.6888 Br  0  0  0  0  0  0  0  0  0  0  0  0
    8.5094   11.8452   24.6564 C   0  0  0  0  0  0  0  0  0  0  0  0
  2  1  1  6
  2  3  1  0
  3  4  1  0
  2  5  1  0
  5  6  1  0
  6  7  2  0
  6  8  1  0
  8  9  2  0
  9 10  1  0
 10 11  1  0
 10 12  1  0
 12 13  2  0
 13 14  1  0
 14 15  2  0
 15 16  1  0
 16 17  1  0
 16 18  2  0
 18  8  1  0
 18 12  1  0
M  END
>  <alias>  (1040) 
None

>  <rmsd(smina/fragmenstein)>  (1040) 
0.578

>  <smiles>  (1040) 
C[C@H](CF)NC(=O)c1cn(C)c2cccc(Br)c12

>  <gnina_score>  (1040) 
5.578

>  <inspiration_score>  (1040) 
None

>  <energy_score>  (1040) 
-0.583166

>  <distance_score>  (1040) 
0.596749

>  <gnina_score_min>  (1040) 
5.647

>  <inchikey>  (1040) 
BBBQDNVUHXEPSC-MRVPVSSYSA-N

>  <exports>  (1040) 
['/opt/xchem-fragalysis-2/maxwin/BulkDock/OUTPUTS/openbind_a71ev2a_c2_elabs_1LOUU54.sdf', '/opt/xchem-fragalysis-2/maxwin/BulkDock/OUTPUTS/openbind_a71ev2a_c2_elabs_1LSYIDY.sdf']

>  <name>  (1040) 
P576795

>  <ref_pdb>  (1040) 
A3066a

>  <subsites>  (1040) 
None

>  <HIPPO Pose ID>  (1040) 
576795

>  <ref_mols>  (1040) 
A3066a

>  <HIPPO Compound ID>  (1040) 
349727

>  <tags>  (1040) 
openbind_a71ev2a_c2_elabs,syndirella_product,openbind_a71ev2a_c2_elabs_fragonly_scored_top80percent,BulkDock Fragalysis export,openbind_a71ev2a_c2_elabs_scored,openbind_a71ev2a_c2_elabs_scored_top80percent,openbind_a71ev2a_c2_elabs_activefrags_only_scored_5.2plus,openbind_a71ev2a_c2_elabs_activefrags_only_scored_5.5plus,syndirella_placed

>  <smina_score_min>  (1040) 
-7.57

$$$$
P576797
     RDKit          3D

 18 19  0  0  0  0  0  0  0  0999 V2000
   11.7075   14.4818   19.4203 C   0  0  0  0  0  0  0  0  0  0  0  0
   11.5354   14.2941   20.9108 C   0  0  1  0  0  0  0  0  0  0  0  0
   12.8086   15.0741   21.8460 Cl  0  0  0  0  0  0  0  0  0  0  0  0
   10.1538   14.7474   21.3829 C   0  0  0  0  0  0  0  0  0  0  0  0
    9.6866   13.7479   22.2893 N   0  0  0  0  0  0  0  0  0  0  0  0
   10.0716   13.4652   23.7403 C   0  0  0  0  0  0  0  0  0  0  0  0
   10.7748   14.0459   24.4606 O   0  0  0  0  0  0  0  0  0  0  0  0
    9.4446   12.2072   24.0654 C   0  0  0  0  0  0  0  0  0  0  0  0
    9.8114   11.0500   23.4009 C   0  0  0  0  0  0  0  0  0  0  0  0
    9.0731   10.0218   23.8905 N   0  0  0  0  0  0  0  0  0  0  0  0
    9.2502    8.6473   23.4778 C   0  0  0  0  0  0  0  0  0  0  0  0
    8.1697   10.5079   24.8112 C   0  0  0  0  0  0  0  0  0  0  0  0
    7.1725    9.8532   25.5364 C   0  0  0  0  0  0  0  0  0  0  0  0
    6.3948   10.5830   26.4320 C   0  0  0  0  0  0  0  0  0  0  0  0
    6.5788   11.9502   26.5782 C   0  0  0  0  0  0  0  0  0  0  0  0
    7.5606   12.6140   25.8376 C   0  0  0  0  0  0  0  0  0  0  0  0
    7.7255   14.4820   26.0836 Br  0  0  0  0  0  0  0  0  0  0  0  0
    8.3866   11.8881   24.9503 C   0  0  0  0  0  0  0  0  0  0  0  0
  2  1  1  6
  2  3  1  0
  2  4  1  0
  4  5  1  0
  5  6  1  0
  6  7  2  0
  6  8  1  0
  8  9  2  0
  9 10  1  0
 10 11  1  0
 10 12  1  0
 12 13  2  0
 13 14  1  0
 14 15  2  0
 15 16  1  0
 16 17  1  0
 16 18  2  0
 18  8  1  0
 18 12  1  0
M  END
>  <alias>  (1041) 
None

>  <rmsd(smina/fragmenstein)>  (1041) 
0.259

>  <smiles>  (1041) 
C[C@@H](Cl)CNC(=O)c1cn(C)c2cccc(Br)c12

>  <gnina_score>  (1041) 
5.436

>  <inspiration_score>  (1041) 
None

>  <energy_score>  (1041) 
-0.530028

>  <distance_score>  (1041) 
0.992206

>  <gnina_score_min>  (1041) 
5.479

>  <inchikey>  (1041) 
UKFGCWYFQLONNW-MRVPVSSYSA-N

>  <exports>  (1041) 
['/opt/xchem-fragalysis-2/maxwin/BulkDock/OUTPUTS/openbind_a71ev2a_c2_elabs_1LOUU54.sdf', '/opt/xchem-fragalysis-2/maxwin/BulkDock/OUTPUTS/openbind_a71ev2a_c2_elabs_1LSYIDY.sdf']

>  <name>  (1041) 
P576797

>  <ref_pdb>  (1041) 
A3066a

>  <subsites>  (1041) 
None

>  <HIPPO Pose ID>  (1041) 
576797

>  <ref_mols>  (1041) 
A3066a

>  <HIPPO Compound ID>  (1041) 
349728

>  <tags>  (1041) 
openbind_a71ev2a_c2_elabs,syndirella_product,openbind_a71ev2a_c2_elabs_fragonly_scored_top80percent,openbind_a71ev2a_c2_elabs_scored,BulkDock Fragalysis export,openbind_a71ev2a_c2_elabs_scored_top80percent,openbind_a71ev2a_c2_elabs_activefrags_only_scored_5.2plus,syndirella_placed

>  <smina_score_min>  (1041) 
-6.581

$$$$
P576798
     RDKit          3D

 18 19  0  0  0  0  0  0  0  0999 V2000
    9.1345   16.5293   20.7522 C   0  0  0  0  0  0  0  0  0  0  0  0
    9.8932   15.2803   20.3707 C   0  0  2  0  0  0  0  0  0  0  0  0
    8.9572   14.2818   20.2916 F   0  0  0  0  0  0  0  0  0  0  0  0
   10.9864   14.8462   21.3598 C   0  0  0  0  0  0  0  0  0  0  0  0
   10.5384   13.7125   22.1171 N   0  0  0  0  0  0  0  0  0  0  0  0
   10.4305   13.5059   23.6311 C   0  0  0  0  0  0  0  0  0  0  0  0
   10.7591   14.1919   24.5115 O   0  0  0  0  0  0  0  0  0  0  0  0
    9.7345   12.2372   23.8623 C   0  0  0  0  0  0  0  0  0  0  0  0
   10.0495   11.0789   23.1763 C   0  0  0  0  0  0  0  0  0  0  0  0
    9.2996   10.0540   23.6574 N   0  0  0  0  0  0  0  0  0  0  0  0
    9.4222    8.6842   23.2095 C   0  0  0  0  0  0  0  0  0  0  0  0
    8.4143   10.5320   24.5948 C   0  0  0  0  0  0  0  0  0  0  0  0
    7.4288    9.8551   25.3226 C   0  0  0  0  0  0  0  0  0  0  0  0
    6.6235   10.5684   26.2023 C   0  0  0  0  0  0  0  0  0  0  0  0
    6.7892   11.9361   26.3434 C   0  0  0  0  0  0  0  0  0  0  0  0
    7.7803   12.6165   25.6198 C   0  0  0  0  0  0  0  0  0  0  0  0
    7.8621   14.4843   25.8894 Br  0  0  0  0  0  0  0  0  0  0  0  0
    8.6379   11.9130   24.7355 C   0  0  0  0  0  0  0  0  0  0  0  0
  2  1  1  1
  2  3  1  0
  2  4  1  0
  4  5  1  0
  5  6  1  0
  6  7  2  0
  6  8  1  0
  8  9  2  0
  9 10  1  0
 10 11  1  0
 10 12  1  0
 12 13  2  0
 13 14  1  0
 14 15  2  0
 15 16  1  0
 16 17  1  0
 16 18  2  0
 18  8  1  0
 18 12  1  0
M  END
>  <alias>  (1042) 
None

>  <rmsd(smina/fragmenstein)>  (1042) 
0.232

>  <smiles>  (1042) 
C[C@H](F)CNC(=O)c1cn(C)c2cccc(Br)c12

>  <gnina_score>  (1042) 
5.458

>  <inspiration_score>  (1042) 
None

>  <energy_score>  (1042) 
-0.43448

>  <distance_score>  (1042) 
0.614167

>  <gnina_score_min>  (1042) 
5.484

>  <inchikey>  (1042) 
KDBMXYOWDWKUKH-QMMMGPOBSA-N

>  <exports>  (1042) 
['/opt/xchem-fragalysis-2/maxwin/BulkDock/OUTPUTS/openbind_a71ev2a_c2_elabs_1LOUU54.sdf', '/opt/xchem-fragalysis-2/maxwin/BulkDock/OUTPUTS/openbind_a71ev2a_c2_elabs_1LSYIDY.sdf']

>  <name>  (1042) 
P576798

>  <ref_pdb>  (1042) 
A3066a

>  <subsites>  (1042) 
None

>  <HIPPO Pose ID>  (1042) 
576798

>  <ref_mols>  (1042) 
A3066a

>  <HIPPO Compound ID>  (1042) 
349735

>  <tags>  (1042) 
openbind_a71ev2a_c2_elabs,syndirella_product,openbind_a71ev2a_c2_elabs_fragonly_scored_top80percent,openbind_a71ev2a_c2_elabs_scored,BulkDock Fragalysis export,openbind_a71ev2a_c2_elabs_scored_top80percent,openbind_a71ev2a_c2_elabs_activefrags_only_scored_5.2plus,syndirella_placed

>  <smina_score_min>  (1042) 
-7.435

$$$$
P576799
     RDKit          3D

 18 19  0  0  0  0  0  0  0  0999 V2000
   12.5500   14.1897   20.6747 C   0  0  0  0  0  0  0  0  0  0  0  0
   12.0386   15.0494   21.8079 C   0  0  0  0  0  0  0  0  0  0  0  0
   10.5934   15.0776   21.9580 N   0  0  0  0  0  0  0  0  0  0  0  0
    9.8092   15.4967   20.8106 C   0  0  0  0  0  0  0  0  0  0  0  0
   10.1203   13.9537   22.5510 N   0  0  0  0  0  0  0  0  0  0  0  0
   10.2753   13.4445   23.9950 C   0  0  0  0  0  0  0  0  0  0  0  0
   10.7688   13.9462   24.9251 O   0  0  0  0  0  0  0  0  0  0  0  0
    9.6066   12.1683   24.0751 C   0  0  0  0  0  0  0  0  0  0  0  0
    9.9465   11.0707   23.3112 C   0  0  0  0  0  0  0  0  0  0  0  0
    9.1969   10.0161   23.7349 N   0  0  0  0  0  0  0  0  0  0  0  0
    9.3564    8.6656   23.2417 C   0  0  0  0  0  0  0  0  0  0  0  0
    8.2888   10.4460   24.6788 C   0  0  0  0  0  0  0  0  0  0  0  0
    7.3004    9.7486   25.3743 C   0  0  0  0  0  0  0  0  0  0  0  0
    6.4854   10.4308   26.2742 C   0  0  0  0  0  0  0  0  0  0  0  0
    6.6326   11.7963   26.4608 C   0  0  0  0  0  0  0  0  0  0  0  0
    7.6230   12.5003   25.7696 C   0  0  0  0  0  0  0  0  0  0  0  0
    7.7094   14.3694   26.0620 Br  0  0  0  0  0  0  0  0  0  0  0  0
    8.4910   11.8154   24.8839 C   0  0  0  0  0  0  0  0  0  0  0  0
  1  2  1  0
  2  3  1  0
  3  4  1  0
  3  5  1  0
  5  6  1  0
  6  7  2  0
  6  8  1  0
  8  9  2  0
  9 10  1  0
 10 11  1  0
 10 12  1  0
 12 13  2  0
 13 14  1  0
 14 15  2  0
 15 16  1  0
 16 17  1  0
 16 18  2  0
 18  8  1  0
 18 12  1  0
M  END
>  <alias>  (1043) 
None

>  <rmsd(smina/fragmenstein)>  (1043) 
0.251

>  <smiles>  (1043) 
CCN(C)NC(=O)c1cn(C)c2cccc(Br)c12

>  <gnina_score>  (1043) 
5.719

>  <inspiration_score>  (1043) 
None

>  <energy_score>  (1043) 
-23.188489

>  <distance_score>  (1043) 
0.814573

>  <gnina_score_min>  (1043) 
5.75

>  <inchikey>  (1043) 
BFXCSLOEQZOIJT-UHFFFAOYSA-N

>  <exports>  (1043) 
['/opt/xchem-fragalysis-2/maxwin/BulkDock/OUTPUTS/openbind_a71ev2a_c2_elabs_1LOUU54.sdf', '/opt/xchem-fragalysis-2/maxwin/BulkDock/OUTPUTS/openbind_a71ev2a_c2_elabs_1LSYIDY.sdf']

>  <name>  (1043) 
P576799

>  <ref_pdb>  (1043) 
A3066a

>  <subsites>  (1043) 
None

>  <HIPPO Pose ID>  (1043) 
576799

>  <ref_mols>  (1043) 
A3066a

>  <HIPPO Compound ID>  (1043) 
349738

>  <tags>  (1043) 
openbind_a71ev2a_c2_elabs,syndirella_product,openbind_a71ev2a_c2_elabs_fragonly_scored_top80percent,BulkDock Fragalysis export,openbind_a71ev2a_c2_elabs_scored,openbind_a71ev2a_c2_elabs_scored_top80percent,openbind_a71ev2a_c2_elabs_activefrags_only_scored_5.2plus,openbind_a71ev2a_c2_elabs_activefrags_only_scored_5.5plus,syndirella_placed

>  <smina_score_min>  (1043) 
-6.875

$$$$
P576800
     RDKit          3D

 18 19  0  0  0  0  0  0  0  0999 V2000
    9.4426    8.6585   23.1718 C   0  0  0  0  0  0  0  0  0  0  0  0
    9.3219   10.0318   23.6066 N   0  0  0  0  0  0  0  0  0  0  0  0
   10.0660   11.0542   23.1093 C   0  0  0  0  0  0  0  0  0  0  0  0
    9.7591   12.2141   23.7924 C   0  0  0  0  0  0  0  0  0  0  0  0
   10.4623   13.4817   23.5813 C   0  0  0  0  0  0  0  0  0  0  0  0
   10.7626   14.1477   24.4880 O   0  0  0  0  0  0  0  0  0  0  0  0
   10.6023   13.7319   22.0719 N   0  0  0  0  0  0  0  0  0  0  0  0
   11.0549   14.8956   21.3542 C   0  0  0  0  0  0  0  0  0  0  0  0
    9.9123   15.4860   20.5026 C   0  0  0  0  0  0  0  0  0  0  0  0
    8.6184   15.5156   21.2101 N   0  0  0  0  0  0  0  0  0  0  0  0
    8.2801   16.9322   21.3248 O   0  0  0  0  0  0  0  0  0  0  0  0
    8.6639   11.8948   24.6750 C   0  0  0  0  0  0  0  0  0  0  0  0
    7.8078   12.6005   25.5607 C   0  0  0  0  0  0  0  0  0  0  0  0
    7.8738   14.4701   25.8166 Br  0  0  0  0  0  0  0  0  0  0  0  0
    6.8208   11.9222   26.2928 C   0  0  0  0  0  0  0  0  0  0  0  0
    6.6575   10.5541   26.1611 C   0  0  0  0  0  0  0  0  0  0  0  0
    7.4635    9.8383   25.2848 C   0  0  0  0  0  0  0  0  0  0  0  0
    8.4432   10.5133   24.5473 C   0  0  0  0  0  0  0  0  0  0  0  0
  1  2  1  0
  2  3  1  0
  3  4  2  0
  4  5  1  0
  5  6  2  0
  5  7  1  0
  7  8  1  0
  8  9  1  0
  9 10  1  0
 10 11  1  0
  4 12  1  0
 12 13  2  0
 13 14  1  0
 13 15  1  0
 15 16  2  0
 16 17  1  0
 17 18  2  0
 18  2  1  0
 18 12  1  0
M  END
>  <alias>  (1044) 
None

>  <rmsd(smina/fragmenstein)>  (1044) 
0.245

>  <smiles>  (1044) 
Cn1cc(C(=O)NCCNO)c2c(Br)cccc21

>  <gnina_score>  (1044) 
5.377

>  <inspiration_score>  (1044) 
None

>  <energy_score>  (1044) 
-14.362038

>  <distance_score>  (1044) 
0.581309

>  <gnina_score_min>  (1044) 
5.468

>  <inchikey>  (1044) 
ZTYQFTUDBPKOTR-UHFFFAOYSA-N

>  <exports>  (1044) 
['/opt/xchem-fragalysis-2/maxwin/BulkDock/OUTPUTS/openbind_a71ev2a_c2_elabs_1LOUU54.sdf', '/opt/xchem-fragalysis-2/maxwin/BulkDock/OUTPUTS/openbind_a71ev2a_c2_elabs_1LSYIDY.sdf']

>  <name>  (1044) 
P576800

>  <ref_pdb>  (1044) 
A3066a

>  <subsites>  (1044) 
None

>  <HIPPO Pose ID>  (1044) 
576800

>  <ref_mols>  (1044) 
A3066a

>  <HIPPO Compound ID>  (1044) 
349742

>  <tags>  (1044) 
openbind_a71ev2a_c2_elabs,syndirella_product,openbind_a71ev2a_c2_elabs_fragonly_scored_top80percent,openbind_a71ev2a_c2_elabs_scored,BulkDock Fragalysis export,openbind_a71ev2a_c2_elabs_scored_top80percent,openbind_a71ev2a_c2_elabs_activefrags_only_scored_5.2plus,syndirella_placed

>  <smina_score_min>  (1044) 
-7.1

$$$$
P576801
     RDKit          3D

 18 19  0  0  0  0  0  0  0  0999 V2000
    9.5785   15.8589   20.3964 C   0  0  0  0  0  0  0  0  0  0  0  0
   10.6576   15.0740   20.2984 C   0  0  0  0  0  0  0  0  0  0  0  0
   11.0215   14.6803   19.0566 F   0  0  0  0  0  0  0  0  0  0  0  0
   11.5232   14.6605   21.4480 C   0  0  0  0  0  0  0  0  0  0  0  0
   10.8669   13.5911   22.1264 N   0  0  0  0  0  0  0  0  0  0  0  0
   10.5078   13.4215   23.6093 C   0  0  0  0  0  0  0  0  0  0  0  0
   10.7578   14.0917   24.5277 O   0  0  0  0  0  0  0  0  0  0  0  0
    9.7450   12.1799   23.7929 C   0  0  0  0  0  0  0  0  0  0  0  0
   10.0316   11.0085   23.1184 C   0  0  0  0  0  0  0  0  0  0  0  0
    9.2754   10.0002   23.6249 N   0  0  0  0  0  0  0  0  0  0  0  0
    9.3973    8.6189   23.2152 C   0  0  0  0  0  0  0  0  0  0  0  0
    8.4020   10.5023   24.5589 C   0  0  0  0  0  0  0  0  0  0  0  0
    7.4206    9.8436   25.3088 C   0  0  0  0  0  0  0  0  0  0  0  0
    6.6300   10.5739   26.1865 C   0  0  0  0  0  0  0  0  0  0  0  0
    6.8067   11.9415   26.3030 C   0  0  0  0  0  0  0  0  0  0  0  0
    7.7945   12.6042   25.5572 C   0  0  0  0  0  0  0  0  0  0  0  0
    7.8716   14.4755   25.7938 Br  0  0  0  0  0  0  0  0  0  0  0  0
    8.6390   11.8831   24.6723 C   0  0  0  0  0  0  0  0  0  0  0  0
  1  2  2  0
  2  3  1  0
  2  4  1  0
  4  5  1  0
  5  6  1  0
  6  7  2  0
  6  8  1  0
  8  9  2  0
  9 10  1  0
 10 11  1  0
 10 12  1  0
 12 13  2  0
 13 14  1  0
 14 15  2  0
 15 16  1  0
 16 17  1  0
 16 18  2  0
 18  8  1  0
 18 12  1  0
M  END
>  <alias>  (1045) 
None

>  <rmsd(smina/fragmenstein)>  (1045) 
0.184

>  <smiles>  (1045) 
C=C(F)CNC(=O)c1cn(C)c2cccc(Br)c12

>  <gnina_score>  (1045) 
5.511

>  <inspiration_score>  (1045) 
None

>  <energy_score>  (1045) 
-0.816221

>  <distance_score>  (1045) 
0.460988

>  <gnina_score_min>  (1045) 
5.496

>  <inchikey>  (1045) 
HAPIFNQKPIWFPL-UHFFFAOYSA-N

>  <exports>  (1045) 
['/opt/xchem-fragalysis-2/maxwin/BulkDock/OUTPUTS/openbind_a71ev2a_c2_elabs_1LOUU54.sdf', '/opt/xchem-fragalysis-2/maxwin/BulkDock/OUTPUTS/openbind_a71ev2a_c2_elabs_1LSYIDY.sdf']

>  <name>  (1045) 
P576801

>  <ref_pdb>  (1045) 
A3066a

>  <subsites>  (1045) 
None

>  <HIPPO Pose ID>  (1045) 
576801

>  <ref_mols>  (1045) 
A3066a

>  <HIPPO Compound ID>  (1045) 
349746

>  <tags>  (1045) 
openbind_a71ev2a_c2_elabs,syndirella_product,openbind_a71ev2a_c2_elabs_fragonly_scored_top80percent,openbind_a71ev2a_c2_elabs_scored,BulkDock Fragalysis export,openbind_a71ev2a_c2_elabs_scored_top80percent,openbind_a71ev2a_c2_elabs_activefrags_only_scored_5.2plus,syndirella_placed

>  <smina_score_min>  (1045) 
-7.513

$$$$
P576802
     RDKit          3D

 18 19  0  0  0  0  0  0  0  0999 V2000
    9.2281    8.4861   23.4011 C   0  0  0  0  0  0  0  0  0  0  0  0
    9.1206    9.8772   23.7644 N   0  0  0  0  0  0  0  0  0  0  0  0
    9.9471   10.8294   23.2688 C   0  0  0  0  0  0  0  0  0  0  0  0
    9.7613   11.9975   23.9848 C   0  0  0  0  0  0  0  0  0  0  0  0
   10.6928   13.1263   23.9180 C   0  0  0  0  0  0  0  0  0  0  0  0
   10.8955   13.7858   24.8555 O   0  0  0  0  0  0  0  0  0  0  0  0
   11.3068   13.1786   22.5145 N   0  0  0  0  0  0  0  0  0  0  0  0
   12.2141   14.0940   21.9455 C   0  0  0  0  0  0  0  0  0  0  0  0
   11.4786   15.3367   21.6181 C   0  0  0  0  0  0  0  0  0  0  0  0
   10.2122   15.5754   21.2544 C   0  0  0  0  0  0  0  0  0  0  0  0
    8.9394   14.4562   21.1189 Cl  0  0  0  0  0  0  0  0  0  0  0  0
    8.5922   11.7969   24.7994 C   0  0  0  0  0  0  0  0  0  0  0  0
    7.7819   12.5816   25.6604 C   0  0  0  0  0  0  0  0  0  0  0  0
    7.9776   14.4467   25.8773 Br  0  0  0  0  0  0  0  0  0  0  0  0
    6.7458   11.9910   26.3980 C   0  0  0  0  0  0  0  0  0  0  0  0
    6.4886   10.6358   26.2922 C   0  0  0  0  0  0  0  0  0  0  0  0
    7.2303    9.8514   25.4185 C   0  0  0  0  0  0  0  0  0  0  0  0
    8.2617   10.4364   24.6772 C   0  0  0  0  0  0  0  0  0  0  0  0
  1  2  1  0
  2  3  1  0
  3  4  2  0
  4  5  1  0
  5  6  2  0
  5  7  1  0
  7  8  1  0
  8  9  1  0
  9 10  2  0
 10 11  1  0
  4 12  1  0
 12 13  2  0
 13 14  1  0
 13 15  1  0
 15 16  2  0
 16 17  1  0
 17 18  2  0
 18  2  1  0
 18 12  1  0
M  END
>  <alias>  (1046) 
None

>  <rmsd(smina/fragmenstein)>  (1046) 
0.465

>  <smiles>  (1046) 
Cn1cc(C(=O)NC/C=C\Cl)c2c(Br)cccc21

>  <gnina_score>  (1046) 
5.698

>  <inspiration_score>  (1046) 
None

>  <energy_score>  (1046) 
-4.407385

>  <distance_score>  (1046) 
0.442735

>  <gnina_score_min>  (1046) 
5.681

>  <inchikey>  (1046) 
XFQPZAJKHLBYGH-UTCJRWHESA-N

>  <exports>  (1046) 
['/opt/xchem-fragalysis-2/maxwin/BulkDock/OUTPUTS/openbind_a71ev2a_c2_elabs_1LOUU54.sdf', '/opt/xchem-fragalysis-2/maxwin/BulkDock/OUTPUTS/openbind_a71ev2a_c2_elabs_1LSYIDY.sdf']

>  <name>  (1046) 
P576802

>  <ref_pdb>  (1046) 
A3066a

>  <subsites>  (1046) 
None

>  <HIPPO Pose ID>  (1046) 
576802

>  <ref_mols>  (1046) 
A3066a

>  <HIPPO Compound ID>  (1046) 
349747

>  <tags>  (1046) 
openbind_a71ev2a_c2_elabs,syndirella_product,openbind_a71ev2a_c2_elabs_fragonly_scored_top80percent,BulkDock Fragalysis export,openbind_a71ev2a_c2_elabs_scored,openbind_a71ev2a_c2_elabs_scored_top80percent,openbind_a71ev2a_c2_elabs_activefrags_only_scored_5.2plus,openbind_a71ev2a_c2_elabs_activefrags_only_scored_5.5plus,syndirella_placed

>  <smina_score_min>  (1046) 
-7.321

$$$$
P576803
     RDKit          3D

 18 19  0  0  0  0  0  0  0  0999 V2000
    9.0701   15.0828   21.2796 C   0  0  0  0  0  0  0  0  0  0  0  0
   10.5476   15.3757   21.0190 C   0  0  2  0  0  0  0  0  0  0  0  0
   10.9582   14.8188   19.3392 S   0  0  0  0  0  0  0  0  0  0  0  0
   11.5454   14.7315   21.9910 C   0  0  0  0  0  0  0  0  0  0  0  0
   10.9403   13.5853   22.5824 N   0  0  0  0  0  0  0  0  0  0  0  0
   10.5666   13.2984   24.0348 C   0  0  0  0  0  0  0  0  0  0  0  0
   10.7604   13.9171   24.9992 O   0  0  0  0  0  0  0  0  0  0  0  0
    9.7687   12.0780   24.0749 C   0  0  0  0  0  0  0  0  0  0  0  0
   10.0200   10.9522   23.3151 C   0  0  0  0  0  0  0  0  0  0  0  0
    9.2087    9.9493   23.7425 N   0  0  0  0  0  0  0  0  0  0  0  0
    9.3104    8.5867   23.2725 C   0  0  0  0  0  0  0  0  0  0  0  0
    8.3212   10.4378   24.6721 C   0  0  0  0  0  0  0  0  0  0  0  0
    7.2984    9.7911   25.3701 C   0  0  0  0  0  0  0  0  0  0  0  0
    6.5042   10.5183   26.2489 C   0  0  0  0  0  0  0  0  0  0  0  0
    6.6997   11.8803   26.4000 C   0  0  0  0  0  0  0  0  0  0  0  0
    7.7272   12.5339   25.7071 C   0  0  0  0  0  0  0  0  0  0  0  0
    7.8303   14.4067   25.9580 Br  0  0  0  0  0  0  0  0  0  0  0  0
    8.5944   11.8013   24.8543 C   0  0  0  0  0  0  0  0  0  0  0  0
  2  1  1  1
  2  3  1  0
  2  4  1  0
  4  5  1  0
  5  6  1  0
  6  7  2  0
  6  8  1  0
  8  9  2  0
  9 10  1  0
 10 11  1  0
 10 12  1  0
 12 13  2  0
 13 14  1  0
 14 15  2  0
 15 16  1  0
 16 17  1  0
 16 18  2  0
 18  8  1  0
 18 12  1  0
M  END
>  <alias>  (1047) 
None

>  <rmsd(smina/fragmenstein)>  (1047) 
0.217

>  <smiles>  (1047) 
C[C@H](S)CNC(=O)c1cn(C)c2cccc(Br)c12

>  <gnina_score>  (1047) 
5.733

>  <inspiration_score>  (1047) 
None

>  <energy_score>  (1047) 
-14.473107

>  <distance_score>  (1047) 
0.520471

>  <gnina_score_min>  (1047) 
5.756

>  <inchikey>  (1047) 
RPQWXNKAVLIYJJ-QMMMGPOBSA-N

>  <exports>  (1047) 
['/opt/xchem-fragalysis-2/maxwin/BulkDock/OUTPUTS/openbind_a71ev2a_c2_elabs_1LOUU54.sdf', '/opt/xchem-fragalysis-2/maxwin/BulkDock/OUTPUTS/openbind_a71ev2a_c2_elabs_1LSYIDY.sdf']

>  <name>  (1047) 
P576803

>  <ref_pdb>  (1047) 
A3066a

>  <subsites>  (1047) 
None

>  <HIPPO Pose ID>  (1047) 
576803

>  <ref_mols>  (1047) 
A3066a

>  <HIPPO Compound ID>  (1047) 
349749

>  <tags>  (1047) 
openbind_a71ev2a_c2_elabs,syndirella_product,openbind_a71ev2a_c2_elabs_fragonly_scored_top80percent,BulkDock Fragalysis export,openbind_a71ev2a_c2_elabs_scored,openbind_a71ev2a_c2_elabs_scored_top80percent,openbind_a71ev2a_c2_elabs_activefrags_only_scored_5.2plus,openbind_a71ev2a_c2_elabs_activefrags_only_scored_5.5plus,syndirella_placed

>  <smina_score_min>  (1047) 
-6.427

$$$$
P576805
     RDKit          3D

 18 19  0  0  0  0  0  0  0  0999 V2000
    9.9293   15.7856   20.7793 C   0  0  0  0  0  0  0  0  0  0  0  0
   10.8524   14.7572   20.1512 C   0  0  0  0  0  0  0  0  0  0  0  0
   12.1934   14.4934   20.8521 C   0  0  0  0  0  0  0  0  0  0  0  0
   12.1554   14.4754   22.3593 C   0  0  0  0  0  0  0  0  0  0  0  0
   11.2356   13.4971   22.8189 N   0  0  0  0  0  0  0  0  0  0  0  0
   10.5855   13.3114   24.1876 C   0  0  0  0  0  0  0  0  0  0  0  0
   10.7540   13.8826   25.1857 O   0  0  0  0  0  0  0  0  0  0  0  0
    9.6976   12.1455   24.1340 C   0  0  0  0  0  0  0  0  0  0  0  0
    9.9446   11.0199   23.3649 C   0  0  0  0  0  0  0  0  0  0  0  0
    9.1229   10.0187   23.7772 N   0  0  0  0  0  0  0  0  0  0  0  0
    9.2414    8.6521   23.3204 C   0  0  0  0  0  0  0  0  0  0  0  0
    8.2375   10.5051   24.7088 C   0  0  0  0  0  0  0  0  0  0  0  0
    7.2239    9.8522   25.4154 C   0  0  0  0  0  0  0  0  0  0  0  0
    6.4458   10.5756   26.3118 C   0  0  0  0  0  0  0  0  0  0  0  0
    6.6445   11.9371   26.4700 C   0  0  0  0  0  0  0  0  0  0  0  0
    7.6632   12.5951   25.7690 C   0  0  0  0  0  0  0  0  0  0  0  0
    7.7863   14.4646   26.0360 Br  0  0  0  0  0  0  0  0  0  0  0  0
    8.5142   11.8690   24.8971 C   0  0  0  0  0  0  0  0  0  0  0  0
  1  2  1  0
  2  3  1  0
  3  4  1  0
  4  5  1  0
  5  6  1  0
  6  7  2  0
  6  8  1  0
  8  9  2  0
  9 10  1  0
 10 11  1  0
 10 12  1  0
 12 13  2  0
 13 14  1  0
 14 15  2  0
 15 16  1  0
 16 17  1  0
 16 18  2  0
 18  8  1  0
 18 12  1  0
M  END
>  <alias>  (1048) 
None

>  <rmsd(smina/fragmenstein)>  (1048) 
0.642

>  <smiles>  (1048) 
CCCCNC(=O)c1cn(C)c2cccc(Br)c12

>  <gnina_score>  (1048) 
5.488

>  <inspiration_score>  (1048) 
None

>  <energy_score>  (1048) 
-17.195525

>  <distance_score>  (1048) 
0.541822

>  <gnina_score_min>  (1048) 
5.527

>  <inchikey>  (1048) 
URWYKNFWEGSYNB-UHFFFAOYSA-N

>  <exports>  (1048) 
['/opt/xchem-fragalysis-2/maxwin/BulkDock/OUTPUTS/openbind_a71ev2a_c2_elabs_1LOUU54.sdf', '/opt/xchem-fragalysis-2/maxwin/BulkDock/OUTPUTS/openbind_a71ev2a_c2_elabs_1LSYIDY.sdf']

>  <name>  (1048) 
P576805

>  <ref_pdb>  (1048) 
A3066a

>  <subsites>  (1048) 
None

>  <HIPPO Pose ID>  (1048) 
576805

>  <ref_mols>  (1048) 
A3066a

>  <HIPPO Compound ID>  (1048) 
349750

>  <tags>  (1048) 
openbind_a71ev2a_c2_elabs,syndirella_product,openbind_a71ev2a_c2_elabs_fragonly_scored_top80percent,BulkDock Fragalysis export,openbind_a71ev2a_c2_elabs_scored,openbind_a71ev2a_c2_elabs_scored_top80percent,openbind_a71ev2a_c2_elabs_activefrags_only_scored_5.2plus,openbind_a71ev2a_c2_elabs_activefrags_only_scored_5.5plus,syndirella_placed

>  <smina_score_min>  (1048) 
-7.129

$$$$
P576808
     RDKit          3D

 18 20  0  0  0  0  0  0  0  0999 V2000
    9.2767    8.4027   23.5135 C   0  0  0  0  0  0  0  0  0  0  0  0
    9.1305    9.7958   23.8466 N   0  0  0  0  0  0  0  0  0  0  0  0
    9.9184   10.7497   23.3043 C   0  0  0  0  0  0  0  0  0  0  0  0
    9.5848   11.9696   23.8543 C   0  0  0  0  0  0  0  0  0  0  0  0
   10.2535   13.2013   23.4773 C   0  0  0  0  0  0  0  0  0  0  0  0
   10.3991   14.0714   24.2378 O   0  0  0  0  0  0  0  0  0  0  0  0
   10.5808   13.1238   21.9733 N   0  0  0  0  0  0  0  0  0  0  0  0
   11.0678   14.1319   21.0694 C   0  0  0  0  0  0  0  0  0  0  0  0
   12.5075   14.5347   21.3517 C   0  0  0  0  0  0  0  0  0  0  0  0
   11.9383   15.7171   22.1177 C   0  0  0  0  0  0  0  0  0  0  0  0
   10.5895   15.5227   21.4005 C   0  0  0  0  0  0  0  0  0  0  0  0
    8.4967   11.7484   24.7643 C   0  0  0  0  0  0  0  0  0  0  0  0
    7.6579   12.5390   25.5961 C   0  0  0  0  0  0  0  0  0  0  0  0
    7.7483   14.4222   25.7264 Br  0  0  0  0  0  0  0  0  0  0  0  0
    6.6633   11.9370   26.3796 C   0  0  0  0  0  0  0  0  0  0  0  0
    6.4567   10.5717   26.3277 C   0  0  0  0  0  0  0  0  0  0  0  0
    7.2271    9.7833   25.4840 C   0  0  0  0  0  0  0  0  0  0  0  0
    8.2443   10.3671   24.7260 C   0  0  0  0  0  0  0  0  0  0  0  0
  1  2  1  0
  2  3  1  0
  3  4  2  0
  4  5  1  0
  5  6  2  0
  5  7  1  0
  7  8  1  0
  8  9  1  0
  9 10  1  0
 10 11  1  0
  4 12  1  0
 12 13  2  0
 13 14  1  0
 13 15  1  0
 15 16  2  0
 16 17  1  0
 17 18  2  0
 18  2  1  0
 11  8  1  0
 18 12  1  0
M  END
>  <alias>  (1049) 
None

>  <rmsd(smina/fragmenstein)>  (1049) 
1.127

>  <smiles>  (1049) 
Cn1cc(C(=O)NC2CCC2)c2c(Br)cccc21

>  <gnina_score>  (1049) 
5.522

>  <inspiration_score>  (1049) 
None

>  <energy_score>  (1049) 
-0.879089

>  <distance_score>  (1049) 
0.741517

>  <gnina_score_min>  (1049) 
5.549

>  <inchikey>  (1049) 
MRMNJWBRUPXXFI-UHFFFAOYSA-N

>  <exports>  (1049) 
['/opt/xchem-fragalysis-2/maxwin/BulkDock/OUTPUTS/openbind_a71ev2a_c2_elabs_1LOUU54.sdf', '/opt/xchem-fragalysis-2/maxwin/BulkDock/OUTPUTS/openbind_a71ev2a_c2_elabs_1LSYIDY.sdf']

>  <name>  (1049) 
P576808

>  <ref_pdb>  (1049) 
A3066a

>  <subsites>  (1049) 
None

>  <HIPPO Pose ID>  (1049) 
576808

>  <ref_mols>  (1049) 
A3066a

>  <HIPPO Compound ID>  (1049) 
349756

>  <tags>  (1049) 
openbind_a71ev2a_c2_elabs,syndirella_product,openbind_a71ev2a_c2_elabs_fragonly_scored_top80percent,BulkDock Fragalysis export,openbind_a71ev2a_c2_elabs_scored,openbind_a71ev2a_c2_elabs_scored_top80percent,openbind_a71ev2a_c2_elabs_activefrags_only_scored_5.2plus,openbind_a71ev2a_c2_elabs_activefrags_only_scored_5.5plus,syndirella_placed

>  <smina_score_min>  (1049) 
-7.125

$$$$
P576810
     RDKit          3D

 18 19  0  0  0  0  0  0  0  0999 V2000
    9.9470   15.5285   20.6215 C   0  0  0  0  0  0  0  0  0  0  0  0
   10.9765   14.4782   21.0226 C   0  0  1  0  0  0  0  0  0  0  0  0
   12.2104   15.0102   21.7668 C   0  0  0  0  0  0  0  0  0  0  0  0
   12.8260   13.9229   23.1097 S   0  0  0  0  0  0  0  0  0  0  0  0
   10.3261   13.4490   21.7821 N   0  0  0  0  0  0  0  0  0  0  0  0
    9.6911   13.4911   23.1698 C   0  0  0  0  0  0  0  0  0  0  0  0
    9.5228   14.3806   23.8910 O   0  0  0  0  0  0  0  0  0  0  0  0
    9.2721   12.1612   23.6001 C   0  0  0  0  0  0  0  0  0  0  0  0
    9.8206   10.9823   23.1300 C   0  0  0  0  0  0  0  0  0  0  0  0
    9.1840    9.9356   23.7137 N   0  0  0  0  0  0  0  0  0  0  0  0
    9.4755    8.5539   23.4023 C   0  0  0  0  0  0  0  0  0  0  0  0
    8.2525   10.4060   24.6086 C   0  0  0  0  0  0  0  0  0  0  0  0
    7.3575    9.6996   25.4126 C   0  0  0  0  0  0  0  0  0  0  0  0
    6.5166   10.3801   26.2807 C   0  0  0  0  0  0  0  0  0  0  0  0
    6.5439   11.7600   26.3225 C   0  0  0  0  0  0  0  0  0  0  0  0
    7.3990   12.4885   25.4809 C   0  0  0  0  0  0  0  0  0  0  0  0
    7.1916   14.3692   25.6179 Br  0  0  0  0  0  0  0  0  0  0  0  0
    8.2930   11.8094   24.6003 C   0  0  0  0  0  0  0  0  0  0  0  0
  2  1  1  1
  2  3  1  0
  3  4  1  0
  2  5  1  0
  5  6  1  0
  6  7  2  0
  6  8  1  0
  8  9  2  0
  9 10  1  0
 10 11  1  0
 10 12  1  0
 12 13  2  0
 13 14  1  0
 14 15  2  0
 15 16  1  0
 16 17  1  0
 16 18  2  0
 18  8  1  0
 18 12  1  0
M  END
>  <alias>  (1050) 
None

>  <rmsd(smina/fragmenstein)>  (1050) 
0.889

>  <smiles>  (1050) 
C[C@@H](CS)NC(=O)c1cn(C)c2cccc(Br)c12

>  <gnina_score>  (1050) 
5.825

>  <inspiration_score>  (1050) 
None

>  <energy_score>  (1050) 
-6.396028

>  <distance_score>  (1050) 
0.955774

>  <gnina_score_min>  (1050) 
5.672

>  <inchikey>  (1050) 
JUTDVBKKIQPEPF-QMMMGPOBSA-N

>  <exports>  (1050) 
['/opt/xchem-fragalysis-2/maxwin/BulkDock/OUTPUTS/openbind_a71ev2a_c2_elabs_1LOUU54.sdf', '/opt/xchem-fragalysis-2/maxwin/BulkDock/OUTPUTS/openbind_a71ev2a_c2_elabs_1LSYIDY.sdf']

>  <name>  (1050) 
P576810

>  <ref_pdb>  (1050) 
A3066a

>  <subsites>  (1050) 
None

>  <HIPPO Pose ID>  (1050) 
576810

>  <ref_mols>  (1050) 
A3066a

>  <HIPPO Compound ID>  (1050) 
349757

>  <tags>  (1050) 
openbind_a71ev2a_c2_elabs,syndirella_product,openbind_a71ev2a_c2_elabs_fragonly_scored_top80percent,BulkDock Fragalysis export,openbind_a71ev2a_c2_elabs_scored,openbind_a71ev2a_c2_elabs_scored_top80percent,openbind_a71ev2a_c2_elabs_activefrags_only_scored_5.2plus,openbind_a71ev2a_c2_elabs_activefrags_only_scored_5.5plus,syndirella_placed

>  <smina_score_min>  (1050) 
-5.954

$$$$
P576811
     RDKit          3D

 18 19  0  0  0  0  0  0  0  0999 V2000
    9.4033    8.6062   23.1992 C   0  0  0  0  0  0  0  0  0  0  0  0
    9.3025    9.9732   23.6563 N   0  0  0  0  0  0  0  0  0  0  0  0
   10.0767   10.9853   23.1858 C   0  0  0  0  0  0  0  0  0  0  0  0
    9.8110   12.1293   23.9106 C   0  0  0  0  0  0  0  0  0  0  0  0
   10.5496   13.3832   23.7607 C   0  0  0  0  0  0  0  0  0  0  0  0
   10.7752   14.0522   24.6851 O   0  0  0  0  0  0  0  0  0  0  0  0
   10.8175   13.6236   22.2715 N   0  0  0  0  0  0  0  0  0  0  0  0
   11.3342   14.7796   21.5895 C   0  0  0  0  0  0  0  0  0  0  0  0
   10.2124   15.5132   20.8252 C   0  0  1  0  0  0  0  0  0  0  0  0
   10.2907   15.1750   19.5094 F   0  0  0  0  0  0  0  0  0  0  0  0
    8.5718   15.0850   21.3826 Cl  0  0  0  0  0  0  0  0  0  0  0  0
    8.6739   11.8330   24.7462 C   0  0  0  0  0  0  0  0  0  0  0  0
    7.8082   12.5533   25.6117 C   0  0  0  0  0  0  0  0  0  0  0  0
    7.8912   14.4235   25.8707 Br  0  0  0  0  0  0  0  0  0  0  0  0
    6.7954   11.8892   26.3203 C   0  0  0  0  0  0  0  0  0  0  0  0
    6.6138   10.5242   26.1809 C   0  0  0  0  0  0  0  0  0  0  0  0
    7.4176    9.8009   25.3085 C   0  0  0  0  0  0  0  0  0  0  0  0
    8.4217   10.4604   24.5920 C   0  0  0  0  0  0  0  0  0  0  0  0
  1  2  1  0
  2  3  1  0
  3  4  2  0
  4  5  1  0
  5  6  2  0
  5  7  1  0
  7  8  1  0
  8  9  1  0
  9 10  1  6
  9 11  1  0
  4 12  1  0
 12 13  2  0
 13 14  1  0
 13 15  1  0
 15 16  2  0
 16 17  1  0
 17 18  2  0
 18  2  1  0
 18 12  1  0
M  END
>  <alias>  (1051) 
None

>  <rmsd(smina/fragmenstein)>  (1051) 
0.176

>  <smiles>  (1051) 
Cn1cc(C(=O)NC[C@@H](F)Cl)c2c(Br)cccc21

>  <gnina_score>  (1051) 
5.619

>  <inspiration_score>  (1051) 
None

>  <energy_score>  (1051) 
-10.284023

>  <distance_score>  (1051) 
0.489303

>  <gnina_score_min>  (1051) 
5.633

>  <inchikey>  (1051) 
VYEXGTDPSLNESJ-SNVBAGLBSA-N

>  <exports>  (1051) 
['/opt/xchem-fragalysis-2/maxwin/BulkDock/OUTPUTS/openbind_a71ev2a_c2_elabs_1LOUU54.sdf', '/opt/xchem-fragalysis-2/maxwin/BulkDock/OUTPUTS/openbind_a71ev2a_c2_elabs_1LSYIDY.sdf']

>  <name>  (1051) 
P576811

>  <ref_pdb>  (1051) 
A3066a

>  <subsites>  (1051) 
None

>  <HIPPO Pose ID>  (1051) 
576811

>  <ref_mols>  (1051) 
A3066a

>  <HIPPO Compound ID>  (1051) 
349759

>  <tags>  (1051) 
openbind_a71ev2a_c2_elabs,syndirella_product,openbind_a71ev2a_c2_elabs_fragonly_scored_top80percent,BulkDock Fragalysis export,openbind_a71ev2a_c2_elabs_scored,openbind_a71ev2a_c2_elabs_scored_top80percent,openbind_a71ev2a_c2_elabs_activefrags_only_scored_5.2plus,openbind_a71ev2a_c2_elabs_activefrags_only_scored_5.5plus,syndirella_placed

>  <smina_score_min>  (1051) 
-7.165

$$$$
P576814
     RDKit          3D

 18 19  0  0  0  0  0  0  0  0999 V2000
    9.3210    8.7310   23.2149 C   0  0  0  0  0  0  0  0  0  0  0  0
    9.1959   10.0935   23.6862 N   0  0  0  0  0  0  0  0  0  0  0  0
    9.9931   11.1149   23.2690 C   0  0  0  0  0  0  0  0  0  0  0  0
    9.7370   12.2292   24.0506 C   0  0  0  0  0  0  0  0  0  0  0  0
   10.6206   13.3990   24.1121 C   0  0  0  0  0  0  0  0  0  0  0  0
   10.8265   13.9165   25.1329 O   0  0  0  0  0  0  0  0  0  0  0  0
   11.2123   13.6663   22.7280 N   0  0  0  0  0  0  0  0  0  0  0  0
   12.2529   14.5629   22.3166 C   0  0  0  0  0  0  0  0  0  0  0  0
   12.6178   14.4248   20.8585 C   0  0  0  0  0  0  0  0  0  0  0  0
   12.9132   13.1421   20.5615 F   0  0  0  0  0  0  0  0  0  0  0  0
   11.5736   14.7859   20.0779 F   0  0  0  0  0  0  0  0  0  0  0  0
    8.5711   11.9218   24.8326 C   0  0  0  0  0  0  0  0  0  0  0  0
    7.7205   12.6208   25.7268 C   0  0  0  0  0  0  0  0  0  0  0  0
    7.8321   14.4847   26.0310 Br  0  0  0  0  0  0  0  0  0  0  0  0
    6.7110   11.9408   26.4215 C   0  0  0  0  0  0  0  0  0  0  0  0
    6.5260   10.5796   26.2437 C   0  0  0  0  0  0  0  0  0  0  0  0
    7.3157    9.8767   25.3409 C   0  0  0  0  0  0  0  0  0  0  0  0
    8.3137   10.5556   24.6339 C   0  0  0  0  0  0  0  0  0  0  0  0
  1  2  1  0
  2  3  1  0
  3  4  2  0
  4  5  1  0
  5  6  2  0
  5  7  1  0
  7  8  1  0
  8  9  1  0
  9 10  1  0
  9 11  1  0
  4 12  1  0
 12 13  2  0
 13 14  1  0
 13 15  1  0
 15 16  2  0
 16 17  1  0
 17 18  2  0
 18  2  1  0
 18 12  1  0
M  END
>  <alias>  (1052) 
None

>  <rmsd(smina/fragmenstein)>  (1052) 
0.46

>  <smiles>  (1052) 
Cn1cc(C(=O)NCC(F)F)c2c(Br)cccc21

>  <gnina_score>  (1052) 
5.226

>  <inspiration_score>  (1052) 
None

>  <energy_score>  (1052) 
-4.600799

>  <distance_score>  (1052) 
0.469142

>  <gnina_score_min>  (1052) 
5.313

>  <inchikey>  (1052) 
GIKVSTQAJFFLDH-UHFFFAOYSA-N

>  <exports>  (1052) 
['/opt/xchem-fragalysis-2/maxwin/BulkDock/OUTPUTS/openbind_a71ev2a_c2_elabs_1LOUU54.sdf', '/opt/xchem-fragalysis-2/maxwin/BulkDock/OUTPUTS/openbind_a71ev2a_c2_elabs_1LSYIDY.sdf']

>  <name>  (1052) 
P576814

>  <ref_pdb>  (1052) 
A3066a

>  <subsites>  (1052) 
None

>  <HIPPO Pose ID>  (1052) 
576814

>  <ref_mols>  (1052) 
A3066a

>  <HIPPO Compound ID>  (1052) 
349770

>  <tags>  (1052) 
openbind_a71ev2a_c2_elabs,syndirella_product,openbind_a71ev2a_c2_elabs_fragonly_scored_top80percent,openbind_a71ev2a_c2_elabs_scored,BulkDock Fragalysis export,openbind_a71ev2a_c2_elabs_scored_top80percent,openbind_a71ev2a_c2_elabs_activefrags_only_scored_5.2plus,syndirella_placed

>  <smina_score_min>  (1052) 
-7.127

$$$$
P576815
     RDKit          3D

 18 20  0  0  0  0  0  0  0  0999 V2000
    8.8664    8.7417   23.8030 C   0  0  0  0  0  0  0  0  0  0  0  0
    8.9906   10.1692   23.9744 N   0  0  0  0  0  0  0  0  0  0  0  0
    9.9775   10.8545   23.3152 C   0  0  0  0  0  0  0  0  0  0  0  0
   10.0563   12.1131   23.8574 C   0  0  0  0  0  0  0  0  0  0  0  0
   11.0302   13.1496   23.5871 C   0  0  0  0  0  0  0  0  0  0  0  0
   11.3655   13.8756   24.4389 O   0  0  0  0  0  0  0  0  0  0  0  0
   11.3824   13.1391   22.0853 N   0  0  0  0  0  0  0  0  0  0  0  0
   12.1069   14.0279   21.3343 N   0  0  0  0  0  0  0  0  0  0  0  0
   12.0495   15.3897   21.9133 C   0  0  0  0  0  0  0  0  0  0  0  0
   10.6718   15.5838   21.2348 C   0  0  0  0  0  0  0  0  0  0  0  0
   11.2146   14.5491   20.2427 C   0  0  0  0  0  0  0  0  0  0  0  0
    8.9386   12.2625   24.7206 C   0  0  0  0  0  0  0  0  0  0  0  0
    8.4430   13.3725   25.4422 C   0  0  0  0  0  0  0  0  0  0  0  0
    7.3171   13.2538   26.2426 C   0  0  0  0  0  0  0  0  0  0  0  0
    6.6807   12.0349   26.3284 C   0  0  0  0  0  0  0  0  0  0  0  0
    7.1427   10.9236   25.6108 C   0  0  0  0  0  0  0  0  0  0  0  0
    6.1075    9.3985   25.8108 Br  0  0  0  0  0  0  0  0  0  0  0  0
    8.2803   11.0288   24.7932 C   0  0  0  0  0  0  0  0  0  0  0  0
  1  2  1  0
  2  3  1  0
  3  4  2  0
  4  5  1  0
  5  6  2  0
  5  7  1  0
  7  8  1  0
  8  9  1  0
  9 10  1  0
 10 11  1  0
  4 12  1  0
 12 13  2  0
 13 14  1  0
 14 15  2  0
 15 16  1  0
 16 17  1  0
 16 18  2  0
 18  2  1  0
 11  8  1  0
 18 12  1  0
M  END
>  <alias>  (1053) 
None

>  <rmsd(smina/fragmenstein)>  (1053) 
1.166

>  <smiles>  (1053) 
Cn1cc(C(=O)NN2CCC2)c2cccc(Br)c21

>  <gnina_score>  (1053) 
5.642

>  <inspiration_score>  (1053) 
None

>  <energy_score>  (1053) 
-8.049912

>  <distance_score>  (1053) 
0.758132

>  <gnina_score_min>  (1053) 
5.587

>  <inchikey>  (1053) 
BTEUOZCHVUZVMZ-UHFFFAOYSA-N

>  <exports>  (1053) 
['/opt/xchem-fragalysis-2/maxwin/BulkDock/OUTPUTS/openbind_a71ev2a_c2_elabs_1LOUU54.sdf', '/opt/xchem-fragalysis-2/maxwin/BulkDock/OUTPUTS/openbind_a71ev2a_c2_elabs_1LSYIDY.sdf']

>  <name>  (1053) 
P576815

>  <ref_pdb>  (1053) 
A3066a

>  <subsites>  (1053) 
None

>  <HIPPO Pose ID>  (1053) 
576815

>  <ref_mols>  (1053) 
A3066a

>  <HIPPO Compound ID>  (1053) 
349772

>  <tags>  (1053) 
openbind_a71ev2a_c2_elabs,syndirella_product,openbind_a71ev2a_c2_elabs_fragonly_scored_top80percent,BulkDock Fragalysis export,openbind_a71ev2a_c2_elabs_scored,openbind_a71ev2a_c2_elabs_scored_top80percent,openbind_a71ev2a_c2_elabs_activefrags_only_scored_5.2plus,openbind_a71ev2a_c2_elabs_activefrags_only_scored_5.5plus,syndirella_placed

>  <smina_score_min>  (1053) 
-6.958

$$$$
P576816
     RDKit          3D

 18 19  0  0  0  0  0  0  0  0999 V2000
   13.1395   14.6840   22.3403 C   0  0  0  0  0  0  0  0  0  0  0  0
   12.3883   14.4424   21.0570 C   0  0  0  0  0  0  0  0  0  0  0  0
   10.9315   14.8293   21.2390 C   0  0  1  0  0  0  0  0  0  0  0  0
   10.2131   14.9628   19.9184 C   0  0  0  0  0  0  0  0  0  0  0  0
   10.3434   13.8400   22.0832 N   0  0  0  0  0  0  0  0  0  0  0  0
   10.4627   13.6228   23.5896 C   0  0  0  0  0  0  0  0  0  0  0  0
   10.9975   14.2584   24.4036 O   0  0  0  0  0  0  0  0  0  0  0  0
    9.6962   12.4569   23.9363 C   0  0  0  0  0  0  0  0  0  0  0  0
    9.7908   11.2035   23.3789 C   0  0  0  0  0  0  0  0  0  0  0  0
    8.9093   10.3829   24.0367 N   0  0  0  0  0  0  0  0  0  0  0  0
    8.9212    8.9508   23.8194 C   0  0  0  0  0  0  0  0  0  0  0  0
    8.1457   11.1333   24.9198 C   0  0  0  0  0  0  0  0  0  0  0  0
    7.0406   10.8880   25.7465 C   0  0  0  0  0  0  0  0  0  0  0  0
    6.0681    9.3164   25.7582 Br  0  0  0  0  0  0  0  0  0  0  0  0
    6.5307   11.8963   26.5761 C   0  0  0  0  0  0  0  0  0  0  0  0
    7.0674   13.1652   26.5687 C   0  0  0  0  0  0  0  0  0  0  0  0
    8.1247   13.4436   25.7183 C   0  0  0  0  0  0  0  0  0  0  0  0
    8.6693   12.4304   24.8986 C   0  0  0  0  0  0  0  0  0  0  0  0
  1  2  1  0
  2  3  1  0
  3  4  1  6
  3  5  1  0
  5  6  1  0
  6  7  2  0
  6  8  1  0
  8  9  2  0
  9 10  1  0
 10 11  1  0
 10 12  1  0
 12 13  2  0
 13 14  1  0
 13 15  1  0
 15 16  2  0
 16 17  1  0
 17 18  2  0
 18  8  1  0
 18 12  1  0
M  END
>  <alias>  (1054) 
None

>  <rmsd(smina/fragmenstein)>  (1054) 
0.516

>  <smiles>  (1054) 
CC[C@@H](C)NC(=O)c1cn(C)c2c(Br)cccc12

>  <gnina_score>  (1054) 
5.37

>  <inspiration_score>  (1054) 
None

>  <energy_score>  (1054) 
-16.349127

>  <distance_score>  (1054) 
0.977955

>  <gnina_score_min>  (1054) 
5.312

>  <inchikey>  (1054) 
SRLNMZWALPWGNX-SECBINFHSA-N

>  <exports>  (1054) 
['/opt/xchem-fragalysis-2/maxwin/BulkDock/OUTPUTS/openbind_a71ev2a_c2_elabs_1LOUU54.sdf', '/opt/xchem-fragalysis-2/maxwin/BulkDock/OUTPUTS/openbind_a71ev2a_c2_elabs_1LSYIDY.sdf']

>  <name>  (1054) 
P576816

>  <ref_pdb>  (1054) 
A3066a

>  <subsites>  (1054) 
None

>  <HIPPO Pose ID>  (1054) 
576816

>  <ref_mols>  (1054) 
A3066a

>  <HIPPO Compound ID>  (1054) 
349774

>  <tags>  (1054) 
openbind_a71ev2a_c2_elabs,syndirella_product,openbind_a71ev2a_c2_elabs_fragonly_scored_top80percent,openbind_a71ev2a_c2_elabs_scored,BulkDock Fragalysis export,openbind_a71ev2a_c2_elabs_scored_top80percent,openbind_a71ev2a_c2_elabs_activefrags_only_scored_5.2plus,syndirella_placed

>  <smina_score_min>  (1054) 
-6.245

$$$$
P576818
     RDKit          3D

 18 20  0  0  0  0  0  0  0  0999 V2000
    8.8594    8.6818   23.7756 C   0  0  0  0  0  0  0  0  0  0  0  0
    9.0071   10.1056   23.9412 N   0  0  0  0  0  0  0  0  0  0  0  0
    9.9942   10.7688   23.2621 C   0  0  0  0  0  0  0  0  0  0  0  0
   10.1072   12.0205   23.8072 C   0  0  0  0  0  0  0  0  0  0  0  0
   11.0848   13.0387   23.5156 C   0  0  0  0  0  0  0  0  0  0  0  0
   11.5237   13.6934   24.3732 O   0  0  0  0  0  0  0  0  0  0  0  0
   11.2920   13.1173   22.0017 N   0  0  0  0  0  0  0  0  0  0  0  0
   12.0141   14.0846   21.1982 C   0  0  0  0  0  0  0  0  0  0  0  0
   11.2977   14.5340   19.8787 C   0  0  0  0  0  0  0  0  0  0  0  0
   10.2253   15.6398   20.8513 S   0  0  0  0  0  0  0  0  0  0  0  0
   11.7913   15.4794   21.8185 C   0  0  0  0  0  0  0  0  0  0  0  0
    8.9980   12.2006   24.6748 C   0  0  0  0  0  0  0  0  0  0  0  0
    8.5243   13.3296   25.3809 C   0  0  0  0  0  0  0  0  0  0  0  0
    7.3958   13.2426   26.1820 C   0  0  0  0  0  0  0  0  0  0  0  0
    6.7386   12.0359   26.2858 C   0  0  0  0  0  0  0  0  0  0  0  0
    7.1797   10.9060   25.5830 C   0  0  0  0  0  0  0  0  0  0  0  0
    6.1169    9.4030   25.8084 Br  0  0  0  0  0  0  0  0  0  0  0  0
    8.3165   10.9813   24.7605 C   0  0  0  0  0  0  0  0  0  0  0  0
  1  2  1  0
  2  3  1  0
  3  4  2  0
  4  5  1  0
  5  6  2  0
  5  7  1  0
  7  8  1  0
  8  9  1  0
  9 10  1  0
 10 11  1  0
  4 12  1  0
 12 13  2  0
 13 14  1  0
 14 15  2  0
 15 16  1  0
 16 17  1  0
 16 18  2  0
 18  2  1  0
 11  8  1  0
 18 12  1  0
M  END
>  <alias>  (1055) 
None

>  <rmsd(smina/fragmenstein)>  (1055) 
0.837

>  <smiles>  (1055) 
Cn1cc(C(=O)NC2CSC2)c2cccc(Br)c21

>  <gnina_score>  (1055) 
5.456

>  <inspiration_score>  (1055) 
None

>  <energy_score>  (1055) 
-5.77605

>  <distance_score>  (1055) 
0.768096

>  <gnina_score_min>  (1055) 
5.544

>  <inchikey>  (1055) 
SKSQCDFABGIXQR-UHFFFAOYSA-N

>  <exports>  (1055) 
['/opt/xchem-fragalysis-2/maxwin/BulkDock/OUTPUTS/openbind_a71ev2a_c2_elabs_1LOUU54.sdf', '/opt/xchem-fragalysis-2/maxwin/BulkDock/OUTPUTS/openbind_a71ev2a_c2_elabs_1LSYIDY.sdf']

>  <name>  (1055) 
P576818

>  <ref_pdb>  (1055) 
A3066a

>  <subsites>  (1055) 
None

>  <HIPPO Pose ID>  (1055) 
576818

>  <ref_mols>  (1055) 
A3066a

>  <HIPPO Compound ID>  (1055) 
349776

>  <tags>  (1055) 
openbind_a71ev2a_c2_elabs,syndirella_product,openbind_a71ev2a_c2_elabs_fragonly_scored_top80percent,BulkDock Fragalysis export,openbind_a71ev2a_c2_elabs_scored,openbind_a71ev2a_c2_elabs_scored_top80percent,openbind_a71ev2a_c2_elabs_activefrags_only_scored_5.2plus,openbind_a71ev2a_c2_elabs_activefrags_only_scored_5.5plus,syndirella_placed

>  <smina_score_min>  (1055) 
-5.813

$$$$
P576819
     RDKit          3D

 18 19  0  0  0  0  0  0  0  0999 V2000
    9.8703   15.3166   19.9685 C   0  0  0  0  0  0  0  0  0  0  0  0
   11.2323   14.7785   19.5563 C   0  0  2  0  0  0  0  0  0  0  0  0
   11.0810   13.7291   18.7111 F   0  0  0  0  0  0  0  0  0  0  0  0
   12.1055   14.3736   20.7585 C   0  0  0  0  0  0  0  0  0  0  0  0
   11.4296   13.4457   21.6318 N   0  0  0  0  0  0  0  0  0  0  0  0
   11.0518   13.5658   23.1131 C   0  0  0  0  0  0  0  0  0  0  0  0
   11.2925   14.4003   23.8878 O   0  0  0  0  0  0  0  0  0  0  0  0
   10.1650   12.4524   23.5125 C   0  0  0  0  0  0  0  0  0  0  0  0
   10.1375   11.1658   23.0185 C   0  0  0  0  0  0  0  0  0  0  0  0
    9.2324   10.4150   23.7275 N   0  0  0  0  0  0  0  0  0  0  0  0
    9.1355    8.9780   23.5662 C   0  0  0  0  0  0  0  0  0  0  0  0
    8.5225   11.2335   24.5855 C   0  0  0  0  0  0  0  0  0  0  0  0
    7.4257   11.0473   25.4480 C   0  0  0  0  0  0  0  0  0  0  0  0
    6.4809    9.4591   25.6434 Br  0  0  0  0  0  0  0  0  0  0  0  0
    6.9374   12.1137   26.2104 C   0  0  0  0  0  0  0  0  0  0  0  0
    7.5194   13.3595   26.1323 C   0  0  0  0  0  0  0  0  0  0  0  0
    8.6030   13.5527   25.2832 C   0  0  0  0  0  0  0  0  0  0  0  0
    9.1169   12.5029   24.4899 C   0  0  0  0  0  0  0  0  0  0  0  0
  2  1  1  1
  2  3  1  0
  2  4  1  0
  4  5  1  0
  5  6  1  0
  6  7  2  0
  6  8  1  0
  8  9  2  0
  9 10  1  0
 10 11  1  0
 10 12  1  0
 12 13  2  0
 13 14  1  0
 13 15  1  0
 15 16  2  0
 16 17  1  0
 17 18  2  0
 18  8  1  0
 18 12  1  0
M  END
>  <alias>  (1056) 
None

>  <rmsd(smina/fragmenstein)>  (1056) 
1.068

>  <smiles>  (1056) 
C[C@H](F)CNC(=O)c1cn(C)c2c(Br)cccc12

>  <gnina_score>  (1056) 
5.278

>  <inspiration_score>  (1056) 
None

>  <energy_score>  (1056) 
-5.963965

>  <distance_score>  (1056) 
0.880398

>  <gnina_score_min>  (1056) 
5.287

>  <inchikey>  (1056) 
XEUUCZFDGBQUNU-QMMMGPOBSA-N

>  <exports>  (1056) 
['/opt/xchem-fragalysis-2/maxwin/BulkDock/OUTPUTS/openbind_a71ev2a_c2_elabs_1LOUU54.sdf', '/opt/xchem-fragalysis-2/maxwin/BulkDock/OUTPUTS/openbind_a71ev2a_c2_elabs_1LSYIDY.sdf']

>  <name>  (1056) 
P576819

>  <ref_pdb>  (1056) 
A3066a

>  <subsites>  (1056) 
None

>  <HIPPO Pose ID>  (1056) 
576819

>  <ref_mols>  (1056) 
A3066a

>  <HIPPO Compound ID>  (1056) 
349779

>  <tags>  (1056) 
openbind_a71ev2a_c2_elabs,syndirella_product,openbind_a71ev2a_c2_elabs_fragonly_scored_top80percent,openbind_a71ev2a_c2_elabs_scored,BulkDock Fragalysis export,openbind_a71ev2a_c2_elabs_scored_top80percent,openbind_a71ev2a_c2_elabs_activefrags_only_scored_5.2plus,syndirella_placed

>  <smina_score_min>  (1056) 
-6.82

$$$$
P576821
     RDKit          3D

 18 19  0  0  0  0  0  0  0  0999 V2000
    8.8424    8.7080   23.8137 C   0  0  0  0  0  0  0  0  0  0  0  0
    8.9763   10.1299   24.0092 N   0  0  0  0  0  0  0  0  0  0  0  0
    9.9836   10.8121   23.3785 C   0  0  0  0  0  0  0  0  0  0  0  0
   10.0698   12.0545   23.9523 C   0  0  0  0  0  0  0  0  0  0  0  0
   11.0380   13.0999   23.7248 C   0  0  0  0  0  0  0  0  0  0  0  0
   11.3273   13.8179   24.5888 O   0  0  0  0  0  0  0  0  0  0  0  0
   11.4447   13.1055   22.2574 N   0  0  0  0  0  0  0  0  0  0  0  0
   12.2139   14.0419   21.5164 C   0  0  0  0  0  0  0  0  0  0  0  0
   11.3168   15.2720   21.4938 C   0  0  1  0  0  0  0  0  0  0  0  0
   12.0783   16.3579   21.7631 F   0  0  0  0  0  0  0  0  0  0  0  0
   10.3605   15.3852   19.9960 Cl  0  0  0  0  0  0  0  0  0  0  0  0
    8.9242   12.2122   24.7778 C   0  0  0  0  0  0  0  0  0  0  0  0
    8.4153   13.3261   25.4861 C   0  0  0  0  0  0  0  0  0  0  0  0
    7.2729   13.2118   26.2621 C   0  0  0  0  0  0  0  0  0  0  0  0
    6.6333   11.9945   26.3345 C   0  0  0  0  0  0  0  0  0  0  0  0
    7.1043   10.8833   25.6218 C   0  0  0  0  0  0  0  0  0  0  0  0
    6.0601    9.3641   25.8025 Br  0  0  0  0  0  0  0  0  0  0  0  0
    8.2567   10.9843   24.8253 C   0  0  0  0  0  0  0  0  0  0  0  0
  1  2  1  0
  2  3  1  0
  3  4  2  0
  4  5  1  0
  5  6  2  0
  5  7  1  0
  7  8  1  0
  8  9  1  0
  9 10  1  6
  9 11  1  0
  4 12  1  0
 12 13  2  0
 13 14  1  0
 14 15  2  0
 15 16  1  0
 16 17  1  0
 16 18  2  0
 18  2  1  0
 18 12  1  0
M  END
>  <alias>  (1057) 
None

>  <rmsd(smina/fragmenstein)>  (1057) 
1.113

>  <smiles>  (1057) 
Cn1cc(C(=O)NC[C@@H](F)Cl)c2cccc(Br)c21

>  <gnina_score>  (1057) 
5.357

>  <inspiration_score>  (1057) 
None

>  <energy_score>  (1057) 
-2.63264

>  <distance_score>  (1057) 
0.734965

>  <gnina_score_min>  (1057) 
5.406

>  <inchikey>  (1057) 
WMXBXQSHPQKQIQ-SNVBAGLBSA-N

>  <exports>  (1057) 
['/opt/xchem-fragalysis-2/maxwin/BulkDock/OUTPUTS/openbind_a71ev2a_c2_elabs_1LOUU54.sdf', '/opt/xchem-fragalysis-2/maxwin/BulkDock/OUTPUTS/openbind_a71ev2a_c2_elabs_1LSYIDY.sdf']

>  <name>  (1057) 
P576821

>  <ref_pdb>  (1057) 
A3066a

>  <subsites>  (1057) 
None

>  <HIPPO Pose ID>  (1057) 
576821

>  <ref_mols>  (1057) 
A3066a

>  <HIPPO Compound ID>  (1057) 
349781

>  <tags>  (1057) 
openbind_a71ev2a_c2_elabs,syndirella_product,openbind_a71ev2a_c2_elabs_fragonly_scored_top80percent,openbind_a71ev2a_c2_elabs_scored,BulkDock Fragalysis export,openbind_a71ev2a_c2_elabs_scored_top80percent,openbind_a71ev2a_c2_elabs_activefrags_only_scored_5.2plus,syndirella_placed

>  <smina_score_min>  (1057) 
-6.377

$$$$
P576823
     RDKit          3D

 18 19  0  0  0  0  0  0  0  0999 V2000
   12.7020   15.0246   21.7865 C   0  0  0  0  0  0  0  0  0  0  0  0
   11.5176   14.3972   21.0782 C   0  0  2  0  0  0  0  0  0  0  0  0
   10.4439   15.4209   20.6278 C   0  0  0  0  0  0  0  0  0  0  0  0
    8.6821   14.9600   20.8338 S   0  0  0  0  0  0  0  0  0  0  0  0
   10.9548   13.4205   21.9575 N   0  0  0  0  0  0  0  0  0  0  0  0
   10.7456   13.4495   23.4687 C   0  0  0  0  0  0  0  0  0  0  0  0
   11.0658   14.2395   24.2596 O   0  0  0  0  0  0  0  0  0  0  0  0
    9.9325   12.3121   23.8490 C   0  0  0  0  0  0  0  0  0  0  0  0
    9.9501   11.0397   23.3288 C   0  0  0  0  0  0  0  0  0  0  0  0
    9.0126   10.2878   23.9895 N   0  0  0  0  0  0  0  0  0  0  0  0
    8.9355    8.8581   23.7847 C   0  0  0  0  0  0  0  0  0  0  0  0
    8.2744   11.0973   24.8369 C   0  0  0  0  0  0  0  0  0  0  0  0
    7.1462   10.9232   25.6545 C   0  0  0  0  0  0  0  0  0  0  0  0
    6.1450    9.3693   25.7630 Br  0  0  0  0  0  0  0  0  0  0  0  0
    6.6499   11.9870   26.4195 C   0  0  0  0  0  0  0  0  0  0  0  0
    7.2318   13.2341   26.3656 C   0  0  0  0  0  0  0  0  0  0  0  0
    8.3283   13.4314   25.5409 C   0  0  0  0  0  0  0  0  0  0  0  0
    8.8636   12.3666   24.7799 C   0  0  0  0  0  0  0  0  0  0  0  0
  2  1  1  1
  2  3  1  0
  3  4  1  0
  2  5  1  0
  5  6  1  0
  6  7  2  0
  6  8  1  0
  8  9  2  0
  9 10  1  0
 10 11  1  0
 10 12  1  0
 12 13  2  0
 13 14  1  0
 13 15  1  0
 15 16  2  0
 16 17  1  0
 17 18  2  0
 18  8  1  0
 18 12  1  0
M  END
>  <alias>  (1058) 
None

>  <rmsd(smina/fragmenstein)>  (1058) 
0.505

>  <smiles>  (1058) 
C[C@H](CS)NC(=O)c1cn(C)c2c(Br)cccc12

>  <gnina_score>  (1058) 
5.689

>  <inspiration_score>  (1058) 
None

>  <energy_score>  (1058) 
-11.139555

>  <distance_score>  (1058) 
0.826918

>  <gnina_score_min>  (1058) 
5.691

>  <inchikey>  (1058) 
PPWMJUHVIVVUEX-MRVPVSSYSA-N

>  <exports>  (1058) 
['/opt/xchem-fragalysis-2/maxwin/BulkDock/OUTPUTS/openbind_a71ev2a_c2_elabs_1LOUU54.sdf', '/opt/xchem-fragalysis-2/maxwin/BulkDock/OUTPUTS/openbind_a71ev2a_c2_elabs_1LSYIDY.sdf']

>  <name>  (1058) 
P576823

>  <ref_pdb>  (1058) 
A3066a

>  <subsites>  (1058) 
None

>  <HIPPO Pose ID>  (1058) 
576823

>  <ref_mols>  (1058) 
A3066a

>  <HIPPO Compound ID>  (1058) 
349783

>  <tags>  (1058) 
openbind_a71ev2a_c2_elabs,syndirella_product,openbind_a71ev2a_c2_elabs_fragonly_scored_top80percent,BulkDock Fragalysis export,openbind_a71ev2a_c2_elabs_scored,openbind_a71ev2a_c2_elabs_scored_top80percent,openbind_a71ev2a_c2_elabs_activefrags_only_scored_5.2plus,openbind_a71ev2a_c2_elabs_activefrags_only_scored_5.5plus,syndirella_placed

>  <smina_score_min>  (1058) 
-6.147

$$$$
P576827
     RDKit          3D

 18 19  0  0  0  0  0  0  0  0999 V2000
   12.8159   15.0586   21.8359 C   0  0  0  0  0  0  0  0  0  0  0  0
   11.8627   14.2093   21.0344 C   0  0  2  0  0  0  0  0  0  0  0  0
   10.8187   15.0001   20.3459 C   0  0  0  0  0  0  0  0  0  0  0  0
    9.9584   15.5866   19.8281 N   0  0  0  0  0  0  0  0  0  0  0  0
   11.1969   13.2744   21.8902 N   0  0  0  0  0  0  0  0  0  0  0  0
   10.9157   13.3273   23.3889 C   0  0  0  0  0  0  0  0  0  0  0  0
   11.2447   14.1016   24.1906 O   0  0  0  0  0  0  0  0  0  0  0  0
   10.0125   12.2456   23.7475 C   0  0  0  0  0  0  0  0  0  0  0  0
    9.9794   10.9653   23.2466 C   0  0  0  0  0  0  0  0  0  0  0  0
    9.0316   10.2514   23.9348 N   0  0  0  0  0  0  0  0  0  0  0  0
    8.9300    8.8185   23.7728 C   0  0  0  0  0  0  0  0  0  0  0  0
    8.3180   11.0957   24.7667 C   0  0  0  0  0  0  0  0  0  0  0  0
    7.1968   10.9599   25.6031 C   0  0  0  0  0  0  0  0  0  0  0  0
    6.1834    9.4169   25.7853 Br  0  0  0  0  0  0  0  0  0  0  0  0
    6.7267   12.0536   26.3413 C   0  0  0  0  0  0  0  0  0  0  0  0
    7.3365   13.2858   26.2522 C   0  0  0  0  0  0  0  0  0  0  0  0
    8.4361   13.4388   25.4203 C   0  0  0  0  0  0  0  0  0  0  0  0
    8.9390   12.3490   24.6741 C   0  0  0  0  0  0  0  0  0  0  0  0
  2  1  1  1
  2  3  1  0
  3  4  3  0
  2  5  1  0
  5  6  1  0
  6  7  2  0
  6  8  1  0
  8  9  2  0
  9 10  1  0
 10 11  1  0
 10 12  1  0
 12 13  2  0
 13 14  1  0
 13 15  1  0
 15 16  2  0
 16 17  1  0
 17 18  2  0
 18  8  1  0
 18 12  1  0
M  END
>  <alias>  (1059) 
None

>  <rmsd(smina/fragmenstein)>  (1059) 
0.839

>  <smiles>  (1059) 
C[C@H](C#N)NC(=O)c1cn(C)c2c(Br)cccc12

>  <gnina_score>  (1059) 
5.703

>  <inspiration_score>  (1059) 
None

>  <energy_score>  (1059) 
-4.890547

>  <distance_score>  (1059) 
0.802012

>  <gnina_score_min>  (1059) 
5.587

>  <inchikey>  (1059) 
BOCVTELYQPKVJC-MRVPVSSYSA-N

>  <exports>  (1059) 
['/opt/xchem-fragalysis-2/maxwin/BulkDock/OUTPUTS/openbind_a71ev2a_c2_elabs_1LOUU54.sdf', '/opt/xchem-fragalysis-2/maxwin/BulkDock/OUTPUTS/openbind_a71ev2a_c2_elabs_1LSYIDY.sdf']

>  <name>  (1059) 
P576827

>  <ref_pdb>  (1059) 
A3066a

>  <subsites>  (1059) 
None

>  <HIPPO Pose ID>  (1059) 
576827

>  <ref_mols>  (1059) 
A3066a

>  <HIPPO Compound ID>  (1059) 
349792

>  <tags>  (1059) 
openbind_a71ev2a_c2_elabs,syndirella_product,openbind_a71ev2a_c2_elabs_fragonly_scored_top80percent,BulkDock Fragalysis export,openbind_a71ev2a_c2_elabs_scored,openbind_a71ev2a_c2_elabs_scored_top80percent,openbind_a71ev2a_c2_elabs_activefrags_only_scored_5.2plus,openbind_a71ev2a_c2_elabs_activefrags_only_scored_5.5plus,syndirella_placed

>  <smina_score_min>  (1059) 
-6.843

$$$$
P576829
     RDKit          3D

 18 19  0  0  0  0  0  0  0  0999 V2000
    9.8738   15.6213   20.5294 C   0  0  0  0  0  0  0  0  0  0  0  0
   11.0408   14.9694   20.4227 C   0  0  0  0  0  0  0  0  0  0  0  0
   11.6809   14.4070   18.7823 Br  0  0  0  0  0  0  0  0  0  0  0  0
   11.9488   14.6305   21.5624 C   0  0  0  0  0  0  0  0  0  0  0  0
   11.2677   13.6133   22.2789 N   0  0  0  0  0  0  0  0  0  0  0  0
   11.0007   13.4627   23.7647 C   0  0  0  0  0  0  0  0  0  0  0  0
   11.3582   14.1047   24.6629 O   0  0  0  0  0  0  0  0  0  0  0  0
   10.0674   12.3649   23.9655 C   0  0  0  0  0  0  0  0  0  0  0  0
   10.0390   11.1344   23.3487 C   0  0  0  0  0  0  0  0  0  0  0  0
    9.0722   10.3682   23.9533 N   0  0  0  0  0  0  0  0  0  0  0  0
    8.9879    8.9416   23.7181 C   0  0  0  0  0  0  0  0  0  0  0  0
    8.3214   11.1576   24.8089 C   0  0  0  0  0  0  0  0  0  0  0  0
    7.1803   10.9622   25.6033 C   0  0  0  0  0  0  0  0  0  0  0  0
    6.2202    9.3815   25.7084 Br  0  0  0  0  0  0  0  0  0  0  0  0
    6.6621   12.0126   26.3721 C   0  0  0  0  0  0  0  0  0  0  0  0
    7.2492   13.2591   26.3613 C   0  0  0  0  0  0  0  0  0  0  0  0
    8.3811   13.4670   25.5875 C   0  0  0  0  0  0  0  0  0  0  0  0
    8.9315   12.4188   24.8151 C   0  0  0  0  0  0  0  0  0  0  0  0
  1  2  2  0
  2  3  1  0
  2  4  1  0
  4  5  1  0
  5  6  1  0
  6  7  2  0
  6  8  1  0
  8  9  2  0
  9 10  1  0
 10 11  1  0
 10 12  1  0
 12 13  2  0
 13 14  1  0
 13 15  1  0
 15 16  2  0
 16 17  1  0
 17 18  2  0
 18  8  1  0
 18 12  1  0
M  END
>  <alias>  (1060) 
None

>  <rmsd(smina/fragmenstein)>  (1060) 
0.806

>  <smiles>  (1060) 
C=C(Br)CNC(=O)c1cn(C)c2c(Br)cccc12

>  <gnina_score>  (1060) 
5.475

>  <inspiration_score>  (1060) 
None

>  <energy_score>  (1060) 
-7.793773

>  <distance_score>  (1060) 
0.762257

>  <gnina_score_min>  (1060) 
5.44

>  <inchikey>  (1060) 
JFQJGUHSTKPIBZ-UHFFFAOYSA-N

>  <exports>  (1060) 
['/opt/xchem-fragalysis-2/maxwin/BulkDock/OUTPUTS/openbind_a71ev2a_c2_elabs_1LOUU54.sdf', '/opt/xchem-fragalysis-2/maxwin/BulkDock/OUTPUTS/openbind_a71ev2a_c2_elabs_1LSYIDY.sdf']

>  <name>  (1060) 
P576829

>  <ref_pdb>  (1060) 
A3066a

>  <subsites>  (1060) 
None

>  <HIPPO Pose ID>  (1060) 
576829

>  <ref_mols>  (1060) 
A3066a

>  <HIPPO Compound ID>  (1060) 
349794

>  <tags>  (1060) 
openbind_a71ev2a_c2_elabs,syndirella_product,openbind_a71ev2a_c2_elabs_fragonly_scored_top80percent,openbind_a71ev2a_c2_elabs_scored,BulkDock Fragalysis export,openbind_a71ev2a_c2_elabs_scored_top80percent,openbind_a71ev2a_c2_elabs_activefrags_only_scored_5.2plus,syndirella_placed

>  <smina_score_min>  (1060) 
-6.065

$$$$
P576830
     RDKit          3D

 18 19  0  0  0  0  0  0  0  0999 V2000
   12.8964   15.0604   21.8380 C   0  0  0  0  0  0  0  0  0  0  0  0
   12.0202   14.1345   21.0377 C   0  0  2  0  0  0  0  0  0  0  0  0
   10.9969   14.8202   20.1172 C   0  0  0  0  0  0  0  0  0  0  0  0
   10.2424   15.8584   20.7337 O   0  0  0  0  0  0  0  0  0  0  0  0
   11.3015   13.2382   21.9034 N   0  0  0  0  0  0  0  0  0  0  0  0
   10.9237   13.3709   23.3784 C   0  0  0  0  0  0  0  0  0  0  0  0
   11.1972   14.1910   24.1561 O   0  0  0  0  0  0  0  0  0  0  0  0
   10.0115   12.2907   23.7416 C   0  0  0  0  0  0  0  0  0  0  0  0
    9.9856   11.0048   23.2497 C   0  0  0  0  0  0  0  0  0  0  0  0
    9.0375   10.2872   23.9319 N   0  0  0  0  0  0  0  0  0  0  0  0
    8.9372    8.8543   23.7649 C   0  0  0  0  0  0  0  0  0  0  0  0
    8.3226   11.1281   24.7647 C   0  0  0  0  0  0  0  0  0  0  0  0
    7.2037   10.9832   25.6027 C   0  0  0  0  0  0  0  0  0  0  0  0
    6.2049    9.4299   25.7858 Br  0  0  0  0  0  0  0  0  0  0  0  0
    6.7286   12.0719   26.3439 C   0  0  0  0  0  0  0  0  0  0  0  0
    7.3327   13.3072   26.2572 C   0  0  0  0  0  0  0  0  0  0  0  0
    8.4301   13.4689   25.4233 C   0  0  0  0  0  0  0  0  0  0  0  0
    8.9377   12.3858   24.6710 C   0  0  0  0  0  0  0  0  0  0  0  0
  2  1  1  1
  2  3  1  0
  3  4  1  0
  2  5  1  0
  5  6  1  0
  6  7  2  0
  6  8  1  0
  8  9  2  0
  9 10  1  0
 10 11  1  0
 10 12  1  0
 12 13  2  0
 13 14  1  0
 13 15  1  0
 15 16  2  0
 16 17  1  0
 17 18  2  0
 18  8  1  0
 18 12  1  0
M  END
>  <alias>  (1061) 
None

>  <rmsd(smina/fragmenstein)>  (1061) 
0.549

>  <smiles>  (1061) 
C[C@H](CO)NC(=O)c1cn(C)c2c(Br)cccc12

>  <gnina_score>  (1061) 
5.339

>  <inspiration_score>  (1061) 
None

>  <energy_score>  (1061) 
-4.242557

>  <distance_score>  (1061) 
0.810059

>  <gnina_score_min>  (1061) 
5.35

>  <inchikey>  (1061) 
GLBHIBIBPSDTHY-MRVPVSSYSA-N

>  <exports>  (1061) 
['/opt/xchem-fragalysis-2/maxwin/BulkDock/OUTPUTS/openbind_a71ev2a_c2_elabs_1LOUU54.sdf', '/opt/xchem-fragalysis-2/maxwin/BulkDock/OUTPUTS/openbind_a71ev2a_c2_elabs_1LSYIDY.sdf']

>  <name>  (1061) 
P576830

>  <ref_pdb>  (1061) 
A3066a

>  <subsites>  (1061) 
None

>  <HIPPO Pose ID>  (1061) 
576830

>  <ref_mols>  (1061) 
A3066a

>  <HIPPO Compound ID>  (1061) 
349797

>  <tags>  (1061) 
openbind_a71ev2a_c2_elabs,syndirella_product,openbind_a71ev2a_c2_elabs_fragonly_scored_top80percent,openbind_a71ev2a_c2_elabs_scored,BulkDock Fragalysis export,openbind_a71ev2a_c2_elabs_scored_top80percent,openbind_a71ev2a_c2_elabs_activefrags_only_scored_5.2plus,syndirella_placed

>  <smina_score_min>  (1061) 
-6.561

$$$$
P576832
     RDKit          3D

 18 19  0  0  0  0  0  0  0  0999 V2000
   12.5064   14.1656   20.6498 C   0  0  0  0  0  0  0  0  0  0  0  0
   11.2468   14.7216   20.0420 C   0  0  0  0  0  0  0  0  0  0  0  0
   11.1796   14.9858   18.8381 O   0  0  0  0  0  0  0  0  0  0  0  0
   10.1482   15.1671   20.9794 C   0  0  0  0  0  0  0  0  0  0  0  0
    9.8561   14.1399   21.9266 N   0  0  0  0  0  0  0  0  0  0  0  0
   10.5337   13.7876   23.2516 C   0  0  0  0  0  0  0  0  0  0  0  0
   11.3916   14.3230   23.8259 O   0  0  0  0  0  0  0  0  0  0  0  0
    9.8691   12.6023   23.7512 C   0  0  0  0  0  0  0  0  0  0  0  0
    9.9794   11.3298   23.2373 C   0  0  0  0  0  0  0  0  0  0  0  0
    9.1139   10.5075   23.9167 N   0  0  0  0  0  0  0  0  0  0  0  0
    9.0905    9.0727   23.7015 C   0  0  0  0  0  0  0  0  0  0  0  0
    8.3523   11.2650   24.7945 C   0  0  0  0  0  0  0  0  0  0  0  0
    7.2521   11.0083   25.6282 C   0  0  0  0  0  0  0  0  0  0  0  0
    6.3309    9.4024   25.6920 Br  0  0  0  0  0  0  0  0  0  0  0  0
    6.7185   12.0236   26.4312 C   0  0  0  0  0  0  0  0  0  0  0  0
    7.2342   13.3014   26.3960 C   0  0  0  0  0  0  0  0  0  0  0  0
    8.2925   13.5843   25.5437 C   0  0  0  0  0  0  0  0  0  0  0  0
    8.8605   12.5713   24.7415 C   0  0  0  0  0  0  0  0  0  0  0  0
  1  2  1  0
  2  3  2  0
  2  4  1  0
  4  5  1  0
  5  6  1  0
  6  7  2  0
  6  8  1  0
  8  9  2  0
  9 10  1  0
 10 11  1  0
 10 12  1  0
 12 13  2  0
 13 14  1  0
 13 15  1  0
 15 16  2  0
 16 17  1  0
 17 18  2  0
 18  8  1  0
 18 12  1  0
M  END
>  <alias>  (1062) 
None

>  <rmsd(smina/fragmenstein)>  (1062) 
0.436

>  <smiles>  (1062) 
CC(=O)CNC(=O)c1cn(C)c2c(Br)cccc12

>  <gnina_score>  (1062) 
5.203

>  <inspiration_score>  (1062) 
None

>  <energy_score>  (1062) 
-5.524602

>  <distance_score>  (1062) 
1.181759

>  <gnina_score_min>  (1062) 
5.261

>  <inchikey>  (1062) 
ZGFZTUWRJZTIPO-UHFFFAOYSA-N

>  <exports>  (1062) 
['/opt/xchem-fragalysis-2/maxwin/BulkDock/OUTPUTS/openbind_a71ev2a_c2_elabs_1LOUU54.sdf', '/opt/xchem-fragalysis-2/maxwin/BulkDock/OUTPUTS/openbind_a71ev2a_c2_elabs_1LSYIDY.sdf']

>  <name>  (1062) 
P576832

>  <ref_pdb>  (1062) 
A3066a

>  <subsites>  (1062) 
None

>  <HIPPO Pose ID>  (1062) 
576832

>  <ref_mols>  (1062) 
A3066a

>  <HIPPO Compound ID>  (1062) 
349800

>  <tags>  (1062) 
openbind_a71ev2a_c2_elabs,syndirella_product,openbind_a71ev2a_c2_elabs_fragonly_scored_top80percent,openbind_a71ev2a_c2_elabs_scored,BulkDock Fragalysis export,openbind_a71ev2a_c2_elabs_scored_top80percent,openbind_a71ev2a_c2_elabs_activefrags_only_scored_5.2plus,syndirella_placed

>  <smina_score_min>  (1062) 
-5.763

$$$$
P576834
     RDKit          3D

 18 19  0  0  0  0  0  0  0  0999 V2000
   10.0364   15.5978   19.5458 C   0  0  0  0  0  0  0  0  0  0  0  0
   10.3811   15.4735   20.8292 C   0  0  0  0  0  0  0  0  0  0  0  0
   11.5651   14.7567   21.4095 C   0  0  2  0  0  0  0  0  0  0  0  0
   12.6138   14.1793   20.4821 C   0  0  0  0  0  0  0  0  0  0  0  0
   10.9859   13.7157   22.1805 N   0  0  0  0  0  0  0  0  0  0  0  0
   10.8562   13.5557   23.6864 C   0  0  0  0  0  0  0  0  0  0  0  0
   11.2690   14.2110   24.5526 O   0  0  0  0  0  0  0  0  0  0  0  0
    9.9852   12.4258   23.9512 C   0  0  0  0  0  0  0  0  0  0  0  0
    9.9982   11.1859   23.3531 C   0  0  0  0  0  0  0  0  0  0  0  0
    9.0559   10.3984   23.9675 N   0  0  0  0  0  0  0  0  0  0  0  0
    8.9931    8.9713   23.7264 C   0  0  0  0  0  0  0  0  0  0  0  0
    8.2988   11.1715   24.8338 C   0  0  0  0  0  0  0  0  0  0  0  0
    7.1661   10.9538   25.6336 C   0  0  0  0  0  0  0  0  0  0  0  0
    6.2135    9.3682   25.7070 Br  0  0  0  0  0  0  0  0  0  0  0  0
    6.6415   11.9876   26.4203 C   0  0  0  0  0  0  0  0  0  0  0  0
    7.2072   13.2439   26.4138 C   0  0  0  0  0  0  0  0  0  0  0  0
    8.3203   13.4799   25.6214 C   0  0  0  0  0  0  0  0  0  0  0  0
    8.8795   12.4464   24.8361 C   0  0  0  0  0  0  0  0  0  0  0  0
  1  2  2  0
  2  3  1  0
  3  4  1  6
  3  5  1  0
  5  6  1  0
  6  7  2  0
  6  8  1  0
  8  9  2  0
  9 10  1  0
 10 11  1  0
 10 12  1  0
 12 13  2  0
 13 14  1  0
 13 15  1  0
 15 16  2  0
 16 17  1  0
 17 18  2  0
 18  8  1  0
 18 12  1  0
M  END
>  <alias>  (1063) 
None

>  <rmsd(smina/fragmenstein)>  (1063) 
0.869

>  <smiles>  (1063) 
C=C[C@H](C)NC(=O)c1cn(C)c2c(Br)cccc12

>  <gnina_score>  (1063) 
5.493

>  <inspiration_score>  (1063) 
None

>  <energy_score>  (1063) 
-16.550113

>  <distance_score>  (1063) 
0.817187

>  <gnina_score_min>  (1063) 
5.391

>  <inchikey>  (1063) 
VWVVMVXHRFKXFZ-VIFPVBQESA-N

>  <exports>  (1063) 
['/opt/xchem-fragalysis-2/maxwin/BulkDock/OUTPUTS/openbind_a71ev2a_c2_elabs_1LOUU54.sdf', '/opt/xchem-fragalysis-2/maxwin/BulkDock/OUTPUTS/openbind_a71ev2a_c2_elabs_1LSYIDY.sdf']

>  <name>  (1063) 
P576834

>  <ref_pdb>  (1063) 
A3066a

>  <subsites>  (1063) 
None

>  <HIPPO Pose ID>  (1063) 
576834

>  <ref_mols>  (1063) 
A3066a

>  <HIPPO Compound ID>  (1063) 
349803

>  <tags>  (1063) 
openbind_a71ev2a_c2_elabs,syndirella_product,openbind_a71ev2a_c2_elabs_fragonly_scored_top80percent,openbind_a71ev2a_c2_elabs_scored,BulkDock Fragalysis export,openbind_a71ev2a_c2_elabs_scored_top80percent,openbind_a71ev2a_c2_elabs_activefrags_only_scored_5.2plus,syndirella_placed

>  <smina_score_min>  (1063) 
-6.722

$$$$
P576836
     RDKit          3D

 18 19  0  0  0  0  0  0  0  0999 V2000
   13.0469   14.8850   22.3841 C   0  0  0  0  0  0  0  0  0  0  0  0
   11.9639   14.4743   21.4288 C   0  0  1  0  0  0  0  0  0  0  0  0
   12.6092   13.9460   20.1729 C   0  0  0  0  0  0  0  0  0  0  0  0
   11.6147   14.3291   18.7762 Cl  0  0  0  0  0  0  0  0  0  0  0  0
   11.1443   13.5296   22.1227 N   0  0  0  0  0  0  0  0  0  0  0  0
   10.7321   13.4634   23.5930 C   0  0  0  0  0  0  0  0  0  0  0  0
   11.0529   14.1221   24.4973 O   0  0  0  0  0  0  0  0  0  0  0  0
    9.8231   12.3630   23.8222 C   0  0  0  0  0  0  0  0  0  0  0  0
    9.8583   11.1021   23.2761 C   0  0  0  0  0  0  0  0  0  0  0  0
    8.9400   10.3253   23.9401 N   0  0  0  0  0  0  0  0  0  0  0  0
    8.9218    8.8884   23.7655 C   0  0  0  0  0  0  0  0  0  0  0  0
    8.1907   11.1139   24.7995 C   0  0  0  0  0  0  0  0  0  0  0  0
    7.0873   10.9095   25.6423 C   0  0  0  0  0  0  0  0  0  0  0  0
    6.1160    9.3390   25.7508 Br  0  0  0  0  0  0  0  0  0  0  0  0
    6.5902   11.9529   26.4352 C   0  0  0  0  0  0  0  0  0  0  0  0
    7.1473   13.2110   26.3864 C   0  0  0  0  0  0  0  0  0  0  0  0
    8.2181   13.4390   25.5374 C   0  0  0  0  0  0  0  0  0  0  0  0
    8.7477   12.3957   24.7433 C   0  0  0  0  0  0  0  0  0  0  0  0
  2  1  1  1
  2  3  1  0
  3  4  1  0
  2  5  1  0
  5  6  1  0
  6  7  2  0
  6  8  1  0
  8  9  2  0
  9 10  1  0
 10 11  1  0
 10 12  1  0
 12 13  2  0
 13 14  1  0
 13 15  1  0
 15 16  2  0
 16 17  1  0
 17 18  2  0
 18  8  1  0
 18 12  1  0
M  END
>  <alias>  (1064) 
None

>  <rmsd(smina/fragmenstein)>  (1064) 
1.427

>  <smiles>  (1064) 
C[C@@H](CCl)NC(=O)c1cn(C)c2c(Br)cccc12

>  <gnina_score>  (1064) 
5.097

>  <inspiration_score>  (1064) 
None

>  <energy_score>  (1064) 
-12.510203

>  <distance_score>  (1064) 
0.764708

>  <gnina_score_min>  (1064) 
5.479

>  <inchikey>  (1064) 
GOQNNJSPCFPMEA-QMMMGPOBSA-N

>  <exports>  (1064) 
['/opt/xchem-fragalysis-2/maxwin/BulkDock/OUTPUTS/openbind_a71ev2a_c2_elabs_1LOUU54.sdf', '/opt/xchem-fragalysis-2/maxwin/BulkDock/OUTPUTS/openbind_a71ev2a_c2_elabs_1LSYIDY.sdf']

>  <name>  (1064) 
P576836

>  <ref_pdb>  (1064) 
A3066a

>  <subsites>  (1064) 
None

>  <HIPPO Pose ID>  (1064) 
576836

>  <ref_mols>  (1064) 
A3066a

>  <HIPPO Compound ID>  (1064) 
349806

>  <tags>  (1064) 
openbind_a71ev2a_c2_elabs,syndirella_product,openbind_a71ev2a_c2_elabs_fragonly_scored_top80percent,openbind_a71ev2a_c2_elabs_scored,BulkDock Fragalysis export,openbind_a71ev2a_c2_elabs_scored_top80percent,openbind_a71ev2a_c2_elabs_activefrags_only_scored_5.2plus,syndirella_placed

>  <smina_score_min>  (1064) 
-6.807

$$$$
P576838
     RDKit          3D

 18 19  0  0  0  0  0  0  0  0999 V2000
    9.0691    8.9630   23.6386 C   0  0  0  0  0  0  0  0  0  0  0  0
    9.1724   10.3948   23.8340 N   0  0  0  0  0  0  0  0  0  0  0  0
   10.1027   11.1472   23.1615 C   0  0  0  0  0  0  0  0  0  0  0  0
   10.1225   12.4243   23.6802 C   0  0  0  0  0  0  0  0  0  0  0  0
   11.0038   13.5418   23.3091 C   0  0  0  0  0  0  0  0  0  0  0  0
   11.2509   14.3680   24.0913 O   0  0  0  0  0  0  0  0  0  0  0  0
   11.3726   13.4358   21.8276 N   0  0  0  0  0  0  0  0  0  0  0  0
   12.0397   14.3613   20.9683 C   0  0  0  0  0  0  0  0  0  0  0  0
   11.0996   14.7644   19.8342 C   0  0  0  0  0  0  0  0  0  0  0  0
    9.8385   15.4599   20.3218 C   0  0  0  0  0  0  0  0  0  0  0  0
    8.9723   14.5341   20.8181 F   0  0  0  0  0  0  0  0  0  0  0  0
    9.0482   12.4754   24.6214 C   0  0  0  0  0  0  0  0  0  0  0  0
    8.5140   13.5286   25.3978 C   0  0  0  0  0  0  0  0  0  0  0  0
    7.4143   13.3308   26.2231 C   0  0  0  0  0  0  0  0  0  0  0  0
    6.8334   12.0833   26.2842 C   0  0  0  0  0  0  0  0  0  0  0  0
    7.3340   11.0203   25.5241 C   0  0  0  0  0  0  0  0  0  0  0  0
    6.3771    9.4375   25.6827 Br  0  0  0  0  0  0  0  0  0  0  0  0
    8.4502   11.2067   24.6892 C   0  0  0  0  0  0  0  0  0  0  0  0
  1  2  1  0
  2  3  1  0
  3  4  2  0
  4  5  1  0
  5  6  2  0
  5  7  1  0
  7  8  1  0
  8  9  1  0
  9 10  1  0
 10 11  1  0
  4 12  1  0
 12 13  2  0
 13 14  1  0
 14 15  2  0
 15 16  1  0
 16 17  1  0
 16 18  2  0
 18  2  1  0
 18 12  1  0
M  END
>  <alias>  (1065) 
None

>  <rmsd(smina/fragmenstein)>  (1065) 
0.941

>  <smiles>  (1065) 
Cn1cc(C(=O)NCCCF)c2cccc(Br)c21

>  <gnina_score>  (1065) 
5.571

>  <inspiration_score>  (1065) 
None

>  <energy_score>  (1065) 
-3.136613

>  <distance_score>  (1065) 
0.824328

>  <gnina_score_min>  (1065) 
5.286

>  <inchikey>  (1065) 
CMLPHVKHBPZRMJ-UHFFFAOYSA-N

>  <exports>  (1065) 
['/opt/xchem-fragalysis-2/maxwin/BulkDock/OUTPUTS/openbind_a71ev2a_c2_elabs_1LOUU54.sdf', '/opt/xchem-fragalysis-2/maxwin/BulkDock/OUTPUTS/openbind_a71ev2a_c2_elabs_1LSYIDY.sdf']

>  <name>  (1065) 
P576838

>  <ref_pdb>  (1065) 
A3066a

>  <subsites>  (1065) 
None

>  <HIPPO Pose ID>  (1065) 
576838

>  <ref_mols>  (1065) 
A3066a

>  <HIPPO Compound ID>  (1065) 
349820

>  <tags>  (1065) 
openbind_a71ev2a_c2_elabs,syndirella_product,openbind_a71ev2a_c2_elabs_fragonly_scored_top80percent,openbind_a71ev2a_c2_elabs_scored,BulkDock Fragalysis export,openbind_a71ev2a_c2_elabs_scored_top80percent,openbind_a71ev2a_c2_elabs_activefrags_only_scored_5.2plus,syndirella_placed

>  <smina_score_min>  (1065) 
-6.903

$$$$
P576839
     RDKit          3D

 18 19  0  0  0  0  0  0  0  0999 V2000
   10.4614    8.2636   23.3667 C   0  0  0  0  0  0  0  0  0  0  0  0
    9.0700    8.7634   23.6535 C   0  0  0  0  0  0  0  0  0  0  0  0
    8.9835   10.1886   23.9022 N   0  0  0  0  0  0  0  0  0  0  0  0
    9.7136   11.1527   23.2656 C   0  0  0  0  0  0  0  0  0  0  0  0
    9.3860   12.3756   23.8160 C   0  0  0  0  0  0  0  0  0  0  0  0
    9.9512   13.6368   23.3820 C   0  0  0  0  0  0  0  0  0  0  0  0
   10.8565   14.1218   23.9299 O   0  0  0  0  0  0  0  0  0  0  0  0
    9.2166   14.0635   22.1048 N   0  0  0  0  0  0  0  0  0  0  0  0
    9.4985   15.1287   21.1714 C   0  0  0  0  0  0  0  0  0  0  0  0
   10.7535   14.8406   20.3453 C   0  0  0  0  0  0  0  0  0  0  0  0
   11.9714   14.8385   21.1669 N   0  0  0  0  0  0  0  0  0  0  0  0
   12.9688   14.1558   20.3614 O   0  0  0  0  0  0  0  0  0  0  0  0
    8.3930   12.1482   24.8013 C   0  0  0  0  0  0  0  0  0  0  0  0
    7.6651   12.9930   25.6604 C   0  0  0  0  0  0  0  0  0  0  0  0
    6.7079   12.4429   26.5158 C   0  0  0  0  0  0  0  0  0  0  0  0
    6.4592   11.0757   26.5120 C   0  0  0  0  0  0  0  0  0  0  0  0
    7.1564   10.2217   25.6570 C   0  0  0  0  0  0  0  0  0  0  0  0
    8.1345   10.7748   24.8192 C   0  0  0  0  0  0  0  0  0  0  0  0
  1  2  1  0
  2  3  1  0
  3  4  1  0
  4  5  2  0
  5  6  1  0
  6  7  2  0
  6  8  1  0
  8  9  1  0
  9 10  1  0
 10 11  1  0
 11 12  1  0
  5 13  1  0
 13 14  2  0
 14 15  1  0
 15 16  2  0
 16 17  1  0
 17 18  2  0
 18  3  1  0
 18 13  1  0
M  END
>  <alias>  (1066) 
None

>  <rmsd(smina/fragmenstein)>  (1066) 
0.196

>  <smiles>  (1066) 
CCn1cc(C(=O)NCCNO)c2ccccc21

>  <gnina_score>  (1066) 
5.487

>  <inspiration_score>  (1066) 
None

>  <energy_score>  (1066) 
-6.296076

>  <distance_score>  (1066) 
1.227031

>  <gnina_score_min>  (1066) 
5.46

>  <inchikey>  (1066) 
YHKLFVTYKVNJLJ-UHFFFAOYSA-N

>  <exports>  (1066) 
['/opt/xchem-fragalysis-2/maxwin/BulkDock/OUTPUTS/openbind_a71ev2a_c2_elabs_1LOUU54.sdf', '/opt/xchem-fragalysis-2/maxwin/BulkDock/OUTPUTS/openbind_a71ev2a_c2_elabs_1LSYIDY.sdf']

>  <name>  (1066) 
P576839

>  <ref_pdb>  (1066) 
A3066a

>  <subsites>  (1066) 
None

>  <HIPPO Pose ID>  (1066) 
576839

>  <ref_mols>  (1066) 
A3066a

>  <HIPPO Compound ID>  (1066) 
349822

>  <tags>  (1066) 
openbind_a71ev2a_c2_elabs,syndirella_product,openbind_a71ev2a_c2_elabs_fragonly_scored_top80percent,openbind_a71ev2a_c2_elabs_scored,BulkDock Fragalysis export,openbind_a71ev2a_c2_elabs_scored_top80percent,openbind_a71ev2a_c2_elabs_activefrags_only_scored_5.2plus,syndirella_placed

>  <smina_score_min>  (1066) 
-6.583

$$$$
P576840
     RDKit          3D

 18 19  0  0  0  0  0  0  0  0999 V2000
   10.6912   15.0216   19.2647 C   0  0  0  0  0  0  0  0  0  0  0  0
   11.2414   14.7901   20.4550 C   0  0  0  0  0  0  0  0  0  0  0  0
   12.7595   14.0124   20.5543 Cl  0  0  0  0  0  0  0  0  0  0  0  0
   10.6837   15.2307   21.7507 C   0  0  0  0  0  0  0  0  0  0  0  0
   10.1668   14.0828   22.4124 N   0  0  0  0  0  0  0  0  0  0  0  0
   10.2967   13.6322   23.8645 C   0  0  0  0  0  0  0  0  0  0  0  0
   10.7824   14.1622   24.7781 O   0  0  0  0  0  0  0  0  0  0  0  0
    9.6701   12.3354   23.9698 C   0  0  0  0  0  0  0  0  0  0  0  0
   10.0033   11.2531   23.1863 C   0  0  0  0  0  0  0  0  0  0  0  0
    9.2215   10.2012   23.5559 N   0  0  0  0  0  0  0  0  0  0  0  0
    9.3049    8.9027   22.9148 C   0  0  0  0  0  0  0  0  0  0  0  0
   10.1271    7.9552   23.7216 C   0  0  0  0  0  0  0  0  0  0  0  0
    8.3616   10.5874   24.5626 C   0  0  0  0  0  0  0  0  0  0  0  0
    7.3855    9.8819   25.2734 C   0  0  0  0  0  0  0  0  0  0  0  0
    6.6145   10.5670   26.2153 C   0  0  0  0  0  0  0  0  0  0  0  0
    6.8076   11.9240   26.4434 C   0  0  0  0  0  0  0  0  0  0  0  0
    7.7989   12.6211   25.7503 C   0  0  0  0  0  0  0  0  0  0  0  0
    8.6003   11.9412   24.8113 C   0  0  0  0  0  0  0  0  0  0  0  0
  1  2  2  0
  2  3  1  0
  2  4  1  0
  4  5  1  0
  5  6  1  0
  6  7  2  0
  6  8  1  0
  8  9  2  0
  9 10  1  0
 10 11  1  0
 11 12  1  0
 10 13  1  0
 13 14  2  0
 14 15  1  0
 15 16  2  0
 16 17  1  0
 17 18  2  0
 18  8  1  0
 18 13  1  0
M  END
>  <alias>  (1067) 
None

>  <rmsd(smina/fragmenstein)>  (1067) 
1.364

>  <smiles>  (1067) 
C=C(Cl)CNC(=O)c1cn(CC)c2ccccc12

>  <gnina_score>  (1067) 
5.326

>  <inspiration_score>  (1067) 
None

>  <energy_score>  (1067) 
-6.792067

>  <distance_score>  (1067) 
0.766741

>  <gnina_score_min>  (1067) 
5.311

>  <inchikey>  (1067) 
RIQQYPFOPIITIU-UHFFFAOYSA-N

>  <exports>  (1067) 
['/opt/xchem-fragalysis-2/maxwin/BulkDock/OUTPUTS/openbind_a71ev2a_c2_elabs_1LOUU54.sdf', '/opt/xchem-fragalysis-2/maxwin/BulkDock/OUTPUTS/openbind_a71ev2a_c2_elabs_1LSYIDY.sdf']

>  <name>  (1067) 
P576840

>  <ref_pdb>  (1067) 
A3066a

>  <subsites>  (1067) 
None

>  <HIPPO Pose ID>  (1067) 
576840

>  <ref_mols>  (1067) 
A3066a

>  <HIPPO Compound ID>  (1067) 
349823

>  <tags>  (1067) 
openbind_a71ev2a_c2_elabs,syndirella_product,openbind_a71ev2a_c2_elabs_fragonly_scored_top80percent,openbind_a71ev2a_c2_elabs_scored,BulkDock Fragalysis export,openbind_a71ev2a_c2_elabs_scored_top80percent,openbind_a71ev2a_c2_elabs_activefrags_only_scored_5.2plus,syndirella_placed

>  <smina_score_min>  (1067) 
-6.533

$$$$
P576844
     RDKit          3D

 18 19  0  0  0  0  0  0  0  0999 V2000
   10.9393    7.8608   23.4317 C   0  0  0  0  0  0  0  0  0  0  0  0
    9.8257    8.2098   23.6605 C   0  0  0  0  0  0  0  0  0  0  0  0
    8.5260    8.7990   23.8251 C   0  0  0  0  0  0  0  0  0  0  0  0
    8.6245   10.2207   24.0771 N   0  0  0  0  0  0  0  0  0  0  0  0
    9.5464   11.0286   23.4776 C   0  0  0  0  0  0  0  0  0  0  0  0
    9.5745   12.2316   24.1523 C   0  0  0  0  0  0  0  0  0  0  0  0
   10.6153   13.2557   24.0264 C   0  0  0  0  0  0  0  0  0  0  0  0
   10.7947   14.0219   24.8838 O   0  0  0  0  0  0  0  0  0  0  0  0
   11.3806   13.0309   22.7199 N   0  0  0  0  0  0  0  0  0  0  0  0
   12.4579   13.7503   22.1489 C   0  0  0  0  0  0  0  0  0  0  0  0
   12.0165   15.0641   21.5629 C   0  0  0  0  0  0  0  0  0  0  0  0
   10.5077   14.9368   20.5393 S   0  0  0  0  0  0  0  0  0  0  0  0
    8.4500   12.2124   25.0355 C   0  0  0  0  0  0  0  0  0  0  0  0
    7.8771   13.1600   25.9053 C   0  0  0  0  0  0  0  0  0  0  0  0
    6.8131   12.7865   26.7300 C   0  0  0  0  0  0  0  0  0  0  0  0
    6.3192   11.4876   26.7066 C   0  0  0  0  0  0  0  0  0  0  0  0
    6.8495   10.5335   25.8400 C   0  0  0  0  0  0  0  0  0  0  0  0
    7.9059   10.9246   25.0067 C   0  0  0  0  0  0  0  0  0  0  0  0
  1  2  3  0
  2  3  1  0
  3  4  1  0
  4  5  1  0
  5  6  2  0
  6  7  1  0
  7  8  2  0
  7  9  1  0
  9 10  1  0
 10 11  1  0
 11 12  1  0
  6 13  1  0
 13 14  2  0
 14 15  1  0
 15 16  2  0
 16 17  1  0
 17 18  2  0
 18  4  1  0
 18 13  1  0
M  END
>  <alias>  (1068) 
None

>  <rmsd(smina/fragmenstein)>  (1068) 
1.173

>  <smiles>  (1068) 
C#CCn1cc(C(=O)NCCS)c2ccccc21

>  <gnina_score>  (1068) 
5.458

>  <inspiration_score>  (1068) 
None

>  <energy_score>  (1068) 
-13.188664

>  <distance_score>  (1068) 
0.859282

>  <gnina_score_min>  (1068) 
5.275

>  <inchikey>  (1068) 
LWZKJASDJIOREN-UHFFFAOYSA-N

>  <exports>  (1068) 
['/opt/xchem-fragalysis-2/maxwin/BulkDock/OUTPUTS/openbind_a71ev2a_c2_elabs_1LOUU54.sdf', '/opt/xchem-fragalysis-2/maxwin/BulkDock/OUTPUTS/openbind_a71ev2a_c2_elabs_1LSYIDY.sdf']

>  <name>  (1068) 
P576844

>  <ref_pdb>  (1068) 
A3066a

>  <subsites>  (1068) 
None

>  <HIPPO Pose ID>  (1068) 
576844

>  <ref_mols>  (1068) 
A3066a

>  <HIPPO Compound ID>  (1068) 
349836

>  <tags>  (1068) 
openbind_a71ev2a_c2_elabs,syndirella_product,openbind_a71ev2a_c2_elabs_fragonly_scored_top80percent,openbind_a71ev2a_c2_elabs_scored,BulkDock Fragalysis export,openbind_a71ev2a_c2_elabs_scored_top80percent,openbind_a71ev2a_c2_elabs_activefrags_only_scored_5.2plus,syndirella_placed

>  <smina_score_min>  (1068) 
-5.965

$$$$
P576846
     RDKit          3D

 18 20  0  0  0  0  0  0  0  0999 V2000
   12.8631   14.6123   21.0558 C   0  0  0  0  0  0  0  0  0  0  0  0
   11.4148   15.0741   21.0700 C   0  0  0  0  0  0  0  0  0  0  0  0
   10.7449   15.0162   19.7033 C   0  0  0  0  0  0  0  0  0  0  0  0
   10.7370   14.2153   21.9665 N   0  0  0  0  0  0  0  0  0  0  0  0
   10.8423   14.0816   23.4838 C   0  0  0  0  0  0  0  0  0  0  0  0
   11.4459   14.7066   24.2561 O   0  0  0  0  0  0  0  0  0  0  0  0
   10.0959   12.9137   23.8232 C   0  0  0  0  0  0  0  0  0  0  0  0
   10.4018   11.7123   23.2133 C   0  0  0  0  0  0  0  0  0  0  0  0
    9.5788   10.7895   23.7220 N   0  0  0  0  0  0  0  0  0  0  0  0
    8.6762   11.3822   24.5530 C   0  0  0  0  0  0  0  0  0  0  0  0
    7.6347   10.7638   25.2066 C   0  0  0  0  0  0  0  0  0  0  0  0
    6.8386   11.5508   26.0384 C   0  0  0  0  0  0  0  0  0  0  0  0
    7.0945   12.9142   26.1715 C   0  0  0  0  0  0  0  0  0  0  0  0
    8.1626   13.5180   25.4892 C   0  0  0  0  0  0  0  0  0  0  0  0
    8.9792   12.7238   24.6662 C   0  0  0  0  0  0  0  0  0  0  0  0
    7.4839    9.3107   25.0252 C   0  0  0  0  0  0  0  0  0  0  0  0
    8.4388    8.6613   23.9972 C   0  0  0  0  0  0  0  0  0  0  0  0
    9.6770    9.3754   23.5217 C   0  0  0  0  0  0  0  0  0  0  0  0
  1  2  1  0
  2  3  1  0
  2  4  1  0
  4  5  1  0
  5  6  2  0
  5  7  1  0
  7  8  2  0
  8  9  1  0
  9 10  1  0
 10 11  2  0
 11 12  1  0
 12 13  2  0
 13 14  1  0
 14 15  2  0
 11 16  1  0
 16 17  1  0
 17 18  1  0
 15  7  1  0
 18  9  1  0
 15 10  1  0
M  END
>  <alias>  (1069) 
None

>  <rmsd(smina/fragmenstein)>  (1069) 
0.693

>  <smiles>  (1069) 
CC(C)NC(=O)c1cn2c3c(cccc13)CCC2

>  <gnina_score>  (1069) 
5.394

>  <inspiration_score>  (1069) 
None

>  <energy_score>  (1069) 
-3.722976

>  <distance_score>  (1069) 
0.93229

>  <gnina_score_min>  (1069) 
5.301

>  <inchikey>  (1069) 
VQCNERUNDKGMIR-UHFFFAOYSA-N

>  <exports>  (1069) 
['/opt/xchem-fragalysis-2/maxwin/BulkDock/OUTPUTS/openbind_a71ev2a_c2_elabs_1LOUU54.sdf', '/opt/xchem-fragalysis-2/maxwin/BulkDock/OUTPUTS/openbind_a71ev2a_c2_elabs_1LSYIDY.sdf']

>  <name>  (1069) 
P576846

>  <ref_pdb>  (1069) 
A3066a

>  <subsites>  (1069) 
None

>  <HIPPO Pose ID>  (1069) 
576846

>  <ref_mols>  (1069) 
A3066a

>  <HIPPO Compound ID>  (1069) 
349847

>  <tags>  (1069) 
openbind_a71ev2a_c2_elabs,syndirella_product,openbind_a71ev2a_c2_elabs_fragonly_scored_top80percent,openbind_a71ev2a_c2_elabs_scored,BulkDock Fragalysis export,openbind_a71ev2a_c2_elabs_scored_top80percent,openbind_a71ev2a_c2_elabs_activefrags_only_scored_5.2plus,syndirella_placed

>  <smina_score_min>  (1069) 
-6.677

$$$$
P576849
     RDKit          3D

 18 19  0  0  0  0  0  0  0  0999 V2000
    9.1259    8.4223   23.4723 C   0  0  0  0  0  0  0  0  0  0  0  0
    9.0780    9.8366   23.7319 N   0  0  0  0  0  0  0  0  0  0  0  0
    9.9622   10.7046   23.1720 C   0  0  0  0  0  0  0  0  0  0  0  0
    9.8812   11.8993   23.8528 C   0  0  0  0  0  0  0  0  0  0  0  0
   10.8180   13.0089   23.7654 C   0  0  0  0  0  0  0  0  0  0  0  0
   10.9260   13.7379   24.6668 O   0  0  0  0  0  0  0  0  0  0  0  0
   11.4981   13.0189   22.3924 N   0  0  0  0  0  0  0  0  0  0  0  0
   12.3768   13.9703   21.8026 C   0  0  0  0  0  0  0  0  0  0  0  0
   11.6634   15.2980   21.8205 C   0  0  0  0  0  0  0  0  0  0  0  0
   10.1983   15.3402   20.7238 S   0  0  0  0  0  0  0  0  0  0  0  0
    8.7327   11.8099   24.6982 C   0  0  0  0  0  0  0  0  0  0  0  0
    8.0674   12.7143   25.5532 C   0  0  0  0  0  0  0  0  0  0  0  0
    6.9887   12.2650   26.3133 C   0  0  0  0  0  0  0  0  0  0  0  0
    6.3862   13.1125   27.1576 F   0  0  0  0  0  0  0  0  0  0  0  0
    6.5424   10.9589   26.2349 C   0  0  0  0  0  0  0  0  0  0  0  0
    7.1651   10.0756   25.3650 C   0  0  0  0  0  0  0  0  0  0  0  0
    6.6811    8.8401   25.2267 F   0  0  0  0  0  0  0  0  0  0  0  0
    8.2624   10.4977   24.6142 C   0  0  0  0  0  0  0  0  0  0  0  0
  1  2  1  0
  2  3  1  0
  3  4  2  0
  4  5  1  0
  5  6  2  0
  5  7  1  0
  7  8  1  0
  8  9  1  0
  9 10  1  0
  4 11  1  0
 11 12  2  0
 12 13  1  0
 13 14  1  0
 13 15  2  0
 15 16  1  0
 16 17  1  0
 16 18  2  0
 18  2  1  0
 18 11  1  0
M  END
>  <alias>  (1070) 
None

>  <rmsd(smina/fragmenstein)>  (1070) 
0.678

>  <smiles>  (1070) 
Cn1cc(C(=O)NCCS)c2cc(F)cc(F)c21

>  <gnina_score>  (1070) 
5.669

>  <inspiration_score>  (1070) 
None

>  <energy_score>  (1070) 
-7.865767

>  <distance_score>  (1070) 
0.395152

>  <gnina_score_min>  (1070) 
5.775

>  <inchikey>  (1070) 
VYFFWSRHWCMDSD-UHFFFAOYSA-N

>  <exports>  (1070) 
['/opt/xchem-fragalysis-2/maxwin/BulkDock/OUTPUTS/openbind_a71ev2a_c2_elabs_1LOUU54.sdf', '/opt/xchem-fragalysis-2/maxwin/BulkDock/OUTPUTS/openbind_a71ev2a_c2_elabs_1LSYIDY.sdf']

>  <name>  (1070) 
P576849

>  <ref_pdb>  (1070) 
A3066a

>  <subsites>  (1070) 
None

>  <HIPPO Pose ID>  (1070) 
576849

>  <ref_mols>  (1070) 
A3066a

>  <HIPPO Compound ID>  (1070) 
349859

>  <tags>  (1070) 
openbind_a71ev2a_c2_elabs,syndirella_product,openbind_a71ev2a_c2_elabs_fragonly_scored_top80percent,BulkDock Fragalysis export,openbind_a71ev2a_c2_elabs_scored,openbind_a71ev2a_c2_elabs_scored_top80percent,openbind_a71ev2a_c2_elabs_activefrags_only_scored_5.2plus,openbind_a71ev2a_c2_elabs_activefrags_only_scored_5.5plus,syndirella_placed

>  <smina_score_min>  (1070) 
-6.798

$$$$
P576850
     RDKit          3D

 18 19  0  0  0  0  0  0  0  0999 V2000
    9.3013    8.5454   23.3899 C   0  0  0  0  0  0  0  0  0  0  0  0
    9.1359    9.9559   23.6561 N   0  0  0  0  0  0  0  0  0  0  0  0
    9.8759   10.9278   23.0465 C   0  0  0  0  0  0  0  0  0  0  0  0
    9.5415   12.1486   23.5949 C   0  0  0  0  0  0  0  0  0  0  0  0
   10.1457   13.4412   23.3061 C   0  0  0  0  0  0  0  0  0  0  0  0
   10.1654   14.2379   24.1523 O   0  0  0  0  0  0  0  0  0  0  0  0
   10.7558   13.4696   21.8999 N   0  0  0  0  0  0  0  0  0  0  0  0
   11.5984   14.4422   21.2703 C   0  0  0  0  0  0  0  0  0  0  0  0
   12.7086   14.8242   22.2385 C   0  0  0  0  0  0  0  0  0  0  0  0
   13.1089   13.7165   23.0535 O   0  0  0  0  0  0  0  0  0  0  0  0
    8.5338   11.8994   24.5752 C   0  0  0  0  0  0  0  0  0  0  0  0
    7.8039   12.7200   25.4635 C   0  0  0  0  0  0  0  0  0  0  0  0
    6.8409   12.1441   26.2897 C   0  0  0  0  0  0  0  0  0  0  0  0
    6.1647   12.9189   27.1477 F   0  0  0  0  0  0  0  0  0  0  0  0
    6.5624   10.7920   26.2382 C   0  0  0  0  0  0  0  0  0  0  0  0
    7.2647    9.9883   25.3524 C   0  0  0  0  0  0  0  0  0  0  0  0
    6.9345    8.7053   25.2305 F   0  0  0  0  0  0  0  0  0  0  0  0
    8.2702   10.5302   24.5555 C   0  0  0  0  0  0  0  0  0  0  0  0
  1  2  1  0
  2  3  1  0
  3  4  2  0
  4  5  1  0
  5  6  2  0
  5  7  1  0
  7  8  1  0
  8  9  1  0
  9 10  1  0
  4 11  1  0
 11 12  2  0
 12 13  1  0
 13 14  1  0
 13 15  2  0
 15 16  1  0
 16 17  1  0
 16 18  2  0
 18  2  1  0
 18 11  1  0
M  END
>  <alias>  (1071) 
None

>  <rmsd(smina/fragmenstein)>  (1071) 
0.783

>  <smiles>  (1071) 
Cn1cc(C(=O)NCCO)c2cc(F)cc(F)c21

>  <gnina_score>  (1071) 
5.321

>  <inspiration_score>  (1071) 
None

>  <energy_score>  (1071) 
-0.096576

>  <distance_score>  (1071) 
0.604702

>  <gnina_score_min>  (1071) 
5.548

>  <inchikey>  (1071) 
LQRQIBQHRZLTIU-UHFFFAOYSA-N

>  <exports>  (1071) 
['/opt/xchem-fragalysis-2/maxwin/BulkDock/OUTPUTS/openbind_a71ev2a_c2_elabs_1LOUU54.sdf', '/opt/xchem-fragalysis-2/maxwin/BulkDock/OUTPUTS/openbind_a71ev2a_c2_elabs_1LSYIDY.sdf']

>  <name>  (1071) 
P576850

>  <ref_pdb>  (1071) 
A3066a

>  <subsites>  (1071) 
None

>  <HIPPO Pose ID>  (1071) 
576850

>  <ref_mols>  (1071) 
A3066a

>  <HIPPO Compound ID>  (1071) 
349861

>  <tags>  (1071) 
openbind_a71ev2a_c2_elabs,syndirella_product,openbind_a71ev2a_c2_elabs_fragonly_scored_top80percent,BulkDock Fragalysis export,openbind_a71ev2a_c2_elabs_scored,openbind_a71ev2a_c2_elabs_scored_top80percent,openbind_a71ev2a_c2_elabs_activefrags_only_scored_5.2plus,openbind_a71ev2a_c2_elabs_activefrags_only_scored_5.5plus,syndirella_placed

>  <smina_score_min>  (1071) 
-6.651

$$$$
P576851
     RDKit          3D

 18 19  0  0  0  0  0  0  0  0999 V2000
    9.1348    8.4135   23.4195 C   0  0  0  0  0  0  0  0  0  0  0  0
    9.0993    9.8252   23.6937 N   0  0  0  0  0  0  0  0  0  0  0  0
    9.9865   10.6927   23.1375 C   0  0  0  0  0  0  0  0  0  0  0  0
    9.9239   11.8743   23.8394 C   0  0  0  0  0  0  0  0  0  0  0  0
   10.8771   12.9682   23.7687 C   0  0  0  0  0  0  0  0  0  0  0  0
   11.0045   13.6707   24.6875 O   0  0  0  0  0  0  0  0  0  0  0  0
   11.4979   13.0397   22.3704 N   0  0  0  0  0  0  0  0  0  0  0  0
   12.3281   14.0346   21.7748 C   0  0  0  0  0  0  0  0  0  0  0  0
   11.5422   15.3156   21.8265 C   0  0  0  0  0  0  0  0  0  0  0  0
   10.0546   15.2991   20.5656 Br  0  0  0  0  0  0  0  0  0  0  0  0
    8.7712   11.7915   24.6793 C   0  0  0  0  0  0  0  0  0  0  0  0
    8.1115   12.6976   25.5371 C   0  0  0  0  0  0  0  0  0  0  0  0
    7.0268   12.2539   26.2915 C   0  0  0  0  0  0  0  0  0  0  0  0
    6.4268   13.1016   27.1375 F   0  0  0  0  0  0  0  0  0  0  0  0
    6.5730   10.9505   26.2083 C   0  0  0  0  0  0  0  0  0  0  0  0
    7.1925   10.0649   25.3376 C   0  0  0  0  0  0  0  0  0  0  0  0
    6.7027    8.8314   25.2016 F   0  0  0  0  0  0  0  0  0  0  0  0
    8.2906   10.4837   24.5858 C   0  0  0  0  0  0  0  0  0  0  0  0
  1  2  1  0
  2  3  1  0
  3  4  2  0
  4  5  1  0
  5  6  2  0
  5  7  1  0
  7  8  1  0
  8  9  1  0
  9 10  1  0
  4 11  1  0
 11 12  2  0
 12 13  1  0
 13 14  1  0
 13 15  2  0
 15 16  1  0
 16 17  1  0
 16 18  2  0
 18  2  1  0
 18 11  1  0
M  END
>  <alias>  (1072) 
None

>  <rmsd(smina/fragmenstein)>  (1072) 
0.601

>  <smiles>  (1072) 
Cn1cc(C(=O)NCCBr)c2cc(F)cc(F)c21

>  <gnina_score>  (1072) 
5.626

>  <inspiration_score>  (1072) 
None

>  <energy_score>  (1072) 
-7.059203

>  <distance_score>  (1072) 
0.373884

>  <gnina_score_min>  (1072) 
5.686

>  <inchikey>  (1072) 
NQFIQTYMMMUHQX-UHFFFAOYSA-N

>  <exports>  (1072) 
['/opt/xchem-fragalysis-2/maxwin/BulkDock/OUTPUTS/openbind_a71ev2a_c2_elabs_1LOUU54.sdf', '/opt/xchem-fragalysis-2/maxwin/BulkDock/OUTPUTS/openbind_a71ev2a_c2_elabs_1LSYIDY.sdf']

>  <name>  (1072) 
P576851

>  <ref_pdb>  (1072) 
A3066a

>  <subsites>  (1072) 
None

>  <HIPPO Pose ID>  (1072) 
576851

>  <ref_mols>  (1072) 
A3066a

>  <HIPPO Compound ID>  (1072) 
349862

>  <tags>  (1072) 
openbind_a71ev2a_c2_elabs,syndirella_product,openbind_a71ev2a_c2_elabs_fragonly_scored_top80percent,BulkDock Fragalysis export,openbind_a71ev2a_c2_elabs_scored,openbind_a71ev2a_c2_elabs_scored_top80percent,openbind_a71ev2a_c2_elabs_activefrags_only_scored_5.2plus,openbind_a71ev2a_c2_elabs_activefrags_only_scored_5.5plus,syndirella_placed

>  <smina_score_min>  (1072) 
-6.684

$$$$
P576852
     RDKit          3D

 18 19  0  0  0  0  0  0  0  0999 V2000
    9.2830    8.6226   23.3243 C   0  0  0  0  0  0  0  0  0  0  0  0
    9.1629   10.0226   23.6646 N   0  0  0  0  0  0  0  0  0  0  0  0
    9.9364   11.0072   23.1200 C   0  0  0  0  0  0  0  0  0  0  0  0
    9.6651   12.1902   23.7755 C   0  0  0  0  0  0  0  0  0  0  0  0
   10.3539   13.4565   23.5921 C   0  0  0  0  0  0  0  0  0  0  0  0
   10.5540   14.1377   24.5123 O   0  0  0  0  0  0  0  0  0  0  0  0
   10.6521   13.6807   22.1081 N   0  0  0  0  0  0  0  0  0  0  0  0
   11.3439   14.7462   21.4492 C   0  0  0  0  0  0  0  0  0  0  0  0
   12.8324   14.5123   21.5395 C   0  0  0  0  0  0  0  0  0  0  0  0
   13.1864   14.3328   22.8416 F   0  0  0  0  0  0  0  0  0  0  0  0
    8.6084   11.9270   24.6925 C   0  0  0  0  0  0  0  0  0  0  0  0
    7.8748   12.7261   25.5952 C   0  0  0  0  0  0  0  0  0  0  0  0
    6.8714   12.1379   26.3623 C   0  0  0  0  0  0  0  0  0  0  0  0
    6.1901   12.8889   27.2375 F   0  0  0  0  0  0  0  0  0  0  0  0
    6.5665   10.7946   26.2456 C   0  0  0  0  0  0  0  0  0  0  0  0
    7.2715   10.0117   25.3425 C   0  0  0  0  0  0  0  0  0  0  0  0
    6.9273    8.7361   25.1752 F   0  0  0  0  0  0  0  0  0  0  0  0
    8.3003   10.5700   24.5861 C   0  0  0  0  0  0  0  0  0  0  0  0
  1  2  1  0
  2  3  1  0
  3  4  2  0
  4  5  1  0
  5  6  2  0
  5  7  1  0
  7  8  1  0
  8  9  1  0
  9 10  1  0
  4 11  1  0
 11 12  2  0
 12 13  1  0
 13 14  1  0
 13 15  2  0
 15 16  1  0
 16 17  1  0
 16 18  2  0
 18  2  1  0
 18 11  1  0
M  END
>  <alias>  (1073) 
None

>  <rmsd(smina/fragmenstein)>  (1073) 
0.624

>  <smiles>  (1073) 
Cn1cc(C(=O)NCCF)c2cc(F)cc(F)c21

>  <gnina_score>  (1073) 
5.458

>  <inspiration_score>  (1073) 
None

>  <energy_score>  (1073) 
-3.590965

>  <distance_score>  (1073) 
0.547249

>  <gnina_score_min>  (1073) 
5.49

>  <inchikey>  (1073) 
VFHWPYRNBNAZJX-UHFFFAOYSA-N

>  <exports>  (1073) 
['/opt/xchem-fragalysis-2/maxwin/BulkDock/OUTPUTS/openbind_a71ev2a_c2_elabs_1LOUU54.sdf', '/opt/xchem-fragalysis-2/maxwin/BulkDock/OUTPUTS/openbind_a71ev2a_c2_elabs_1LSYIDY.sdf']

>  <name>  (1073) 
P576852

>  <ref_pdb>  (1073) 
A3066a

>  <subsites>  (1073) 
None

>  <HIPPO Pose ID>  (1073) 
576852

>  <ref_mols>  (1073) 
A3066a

>  <HIPPO Compound ID>  (1073) 
349865

>  <tags>  (1073) 
openbind_a71ev2a_c2_elabs,syndirella_product,openbind_a71ev2a_c2_elabs_fragonly_scored_top80percent,openbind_a71ev2a_c2_elabs_scored,BulkDock Fragalysis export,openbind_a71ev2a_c2_elabs_scored_top80percent,openbind_a71ev2a_c2_elabs_activefrags_only_scored_5.2plus,syndirella_placed

>  <smina_score_min>  (1073) 
-6.884

$$$$
P576853
     RDKit          3D

 18 19  0  0  0  0  0  0  0  0999 V2000
   12.7517   14.9280   21.9223 C   0  0  0  0  0  0  0  0  0  0  0  0
   11.4047   14.7004   21.2754 C   0  0  0  0  0  0  0  0  0  0  0  0
   11.5363   14.4162   19.7896 C   0  0  0  0  0  0  0  0  0  0  0  0
   10.7861   13.6039   21.9724 N   0  0  0  0  0  0  0  0  0  0  0  0
   10.4001   13.4521   23.4494 C   0  0  0  0  0  0  0  0  0  0  0  0
   10.5894   14.1582   24.3554 O   0  0  0  0  0  0  0  0  0  0  0  0
    9.7067   12.1898   23.6745 C   0  0  0  0  0  0  0  0  0  0  0  0
    9.9670   10.9841   23.0577 C   0  0  0  0  0  0  0  0  0  0  0  0
    9.1922   10.0187   23.6331 N   0  0  0  0  0  0  0  0  0  0  0  0
    9.2983    8.6110   23.3224 C   0  0  0  0  0  0  0  0  0  0  0  0
    8.3407   10.5935   24.5467 C   0  0  0  0  0  0  0  0  0  0  0  0
    7.3157   10.0564   25.3249 C   0  0  0  0  0  0  0  0  0  0  0  0
    6.9713    8.7752   25.1977 F   0  0  0  0  0  0  0  0  0  0  0  0
    6.6188   10.8658   26.2106 C   0  0  0  0  0  0  0  0  0  0  0  0
    6.9305   12.2105   26.2896 C   0  0  0  0  0  0  0  0  0  0  0  0
    6.2601   12.9866   27.1512 F   0  0  0  0  0  0  0  0  0  0  0  0
    7.9309   12.7758   25.4998 C   0  0  0  0  0  0  0  0  0  0  0  0
    8.6558   11.9526   24.6113 C   0  0  0  0  0  0  0  0  0  0  0  0
  1  2  1  0
  2  3  1  0
  2  4  1  0
  4  5  1  0
  5  6  2  0
  5  7  1  0
  7  8  2  0
  8  9  1  0
  9 10  1  0
  9 11  1  0
 11 12  2  0
 12 13  1  0
 12 14  1  0
 14 15  2  0
 15 16  1  0
 15 17  1  0
 17 18  2  0
 18  7  1  0
 18 11  1  0
M  END
>  <alias>  (1074) 
None

>  <rmsd(smina/fragmenstein)>  (1074) 
0.684

>  <smiles>  (1074) 
CC(C)NC(=O)c1cn(C)c2c(F)cc(F)cc12

>  <gnina_score>  (1074) 
5.484

>  <inspiration_score>  (1074) 
None

>  <energy_score>  (1074) 
-2.471575

>  <distance_score>  (1074) 
0.520649

>  <gnina_score_min>  (1074) 
5.497

>  <inchikey>  (1074) 
XFIONUQHJLULKH-UHFFFAOYSA-N

>  <exports>  (1074) 
['/opt/xchem-fragalysis-2/maxwin/BulkDock/OUTPUTS/openbind_a71ev2a_c2_elabs_1LOUU54.sdf', '/opt/xchem-fragalysis-2/maxwin/BulkDock/OUTPUTS/openbind_a71ev2a_c2_elabs_1LSYIDY.sdf']

>  <name>  (1074) 
P576853

>  <ref_pdb>  (1074) 
A3066a

>  <subsites>  (1074) 
None

>  <HIPPO Pose ID>  (1074) 
576853

>  <ref_mols>  (1074) 
A3066a

>  <HIPPO Compound ID>  (1074) 
349866

>  <tags>  (1074) 
openbind_a71ev2a_c2_elabs,syndirella_product,openbind_a71ev2a_c2_elabs_fragonly_scored_top80percent,openbind_a71ev2a_c2_elabs_scored,BulkDock Fragalysis export,openbind_a71ev2a_c2_elabs_scored_top80percent,openbind_a71ev2a_c2_elabs_activefrags_only_scored_5.2plus,syndirella_placed

>  <smina_score_min>  (1074) 
-7.319

$$$$
P576854
     RDKit          3D

 18 19  0  0  0  0  0  0  0  0999 V2000
    9.9401   15.5262   19.5636 C   0  0  0  0  0  0  0  0  0  0  0  0
   10.2502   15.4393   20.8597 C   0  0  0  0  0  0  0  0  0  0  0  0
   11.4518   14.7384   21.4057 C   0  0  0  0  0  0  0  0  0  0  0  0
   10.9186   13.6164   22.0971 N   0  0  0  0  0  0  0  0  0  0  0  0
   10.6001   13.4219   23.5815 C   0  0  0  0  0  0  0  0  0  0  0  0
   10.7934   14.1197   24.4925 O   0  0  0  0  0  0  0  0  0  0  0  0
    9.8559   12.1782   23.7704 C   0  0  0  0  0  0  0  0  0  0  0  0
   10.0501   10.9857   23.1049 C   0  0  0  0  0  0  0  0  0  0  0  0
    9.2354   10.0360   23.6512 N   0  0  0  0  0  0  0  0  0  0  0  0
    9.2832    8.6338   23.3034 C   0  0  0  0  0  0  0  0  0  0  0  0
    8.3942   10.6211   24.5666 C   0  0  0  0  0  0  0  0  0  0  0  0
    7.3409   10.1011   25.3199 C   0  0  0  0  0  0  0  0  0  0  0  0
    6.9782    8.8245   25.1881 F   0  0  0  0  0  0  0  0  0  0  0  0
    6.6451   10.9224   26.1953 C   0  0  0  0  0  0  0  0  0  0  0  0
    6.9909   12.2578   26.2928 C   0  0  0  0  0  0  0  0  0  0  0  0
    6.3225   13.0457   27.1455 F   0  0  0  0  0  0  0  0  0  0  0  0
    8.0319   12.8012   25.5394 C   0  0  0  0  0  0  0  0  0  0  0  0
    8.7598   11.9663   24.6645 C   0  0  0  0  0  0  0  0  0  0  0  0
  1  2  2  0
  2  3  1  0
  3  4  1  0
  4  5  1  0
  5  6  2  0
  5  7  1  0
  7  8  2  0
  8  9  1  0
  9 10  1  0
  9 11  1  0
 11 12  2  0
 12 13  1  0
 12 14  1  0
 14 15  2  0
 15 16  1  0
 15 17  1  0
 17 18  2  0
 18  7  1  0
 18 11  1  0
M  END
>  <alias>  (1075) 
None

>  <rmsd(smina/fragmenstein)>  (1075) 
0.522

>  <smiles>  (1075) 
C=CCNC(=O)c1cn(C)c2c(F)cc(F)cc12

>  <gnina_score>  (1075) 
5.577

>  <inspiration_score>  (1075) 
None

>  <energy_score>  (1075) 
-1.868827

>  <distance_score>  (1075) 
0.437859

>  <gnina_score_min>  (1075) 
5.579

>  <inchikey>  (1075) 
PXIWLIZPBNAPQD-UHFFFAOYSA-N

>  <exports>  (1075) 
['/opt/xchem-fragalysis-2/maxwin/BulkDock/OUTPUTS/openbind_a71ev2a_c2_elabs_1LOUU54.sdf', '/opt/xchem-fragalysis-2/maxwin/BulkDock/OUTPUTS/openbind_a71ev2a_c2_elabs_1LSYIDY.sdf']

>  <name>  (1075) 
P576854

>  <ref_pdb>  (1075) 
A3066a

>  <subsites>  (1075) 
None

>  <HIPPO Pose ID>  (1075) 
576854

>  <ref_mols>  (1075) 
A3066a

>  <HIPPO Compound ID>  (1075) 
349868

>  <tags>  (1075) 
openbind_a71ev2a_c2_elabs,syndirella_product,openbind_a71ev2a_c2_elabs_fragonly_scored_top80percent,BulkDock Fragalysis export,openbind_a71ev2a_c2_elabs_scored,openbind_a71ev2a_c2_elabs_scored_top80percent,openbind_a71ev2a_c2_elabs_activefrags_only_scored_5.2plus,openbind_a71ev2a_c2_elabs_activefrags_only_scored_5.5plus,syndirella_placed

>  <smina_score_min>  (1075) 
-7.145

$$$$
P576855
     RDKit          3D

 18 19  0  0  0  0  0  0  0  0999 V2000
    9.8793   15.2696   19.8615 C   0  0  0  0  0  0  0  0  0  0  0  0
   10.4142   15.6752   21.2073 C   0  0  0  0  0  0  0  0  0  0  0  0
   11.5659   14.7910   21.6711 C   0  0  0  0  0  0  0  0  0  0  0  0
   10.9954   13.6412   22.3003 N   0  0  0  0  0  0  0  0  0  0  0  0
   10.5691   13.4107   23.7520 C   0  0  0  0  0  0  0  0  0  0  0  0
   10.6832   14.0910   24.6891 O   0  0  0  0  0  0  0  0  0  0  0  0
    9.8307   12.1582   23.8663 C   0  0  0  0  0  0  0  0  0  0  0  0
   10.0381   10.9945   23.1563 C   0  0  0  0  0  0  0  0  0  0  0  0
    9.2240   10.0223   23.6635 N   0  0  0  0  0  0  0  0  0  0  0  0
    9.2963    8.6303   23.2822 C   0  0  0  0  0  0  0  0  0  0  0  0
    8.3652   10.5725   24.5852 C   0  0  0  0  0  0  0  0  0  0  0  0
    7.3079   10.0266   25.3128 C   0  0  0  0  0  0  0  0  0  0  0  0
    6.9466    8.7570   25.1313 F   0  0  0  0  0  0  0  0  0  0  0  0
    6.5981   10.8148   26.2071 C   0  0  0  0  0  0  0  0  0  0  0  0
    6.9271   12.1503   26.3428 C   0  0  0  0  0  0  0  0  0  0  0  0
    6.2412   12.9081   27.2085 F   0  0  0  0  0  0  0  0  0  0  0  0
    7.9684   12.7221   25.6133 C   0  0  0  0  0  0  0  0  0  0  0  0
    8.7168   11.9157   24.7282 C   0  0  0  0  0  0  0  0  0  0  0  0
  1  2  1  0
  2  3  1  0
  3  4  1  0
  4  5  1  0
  5  6  2  0
  5  7  1  0
  7  8  2  0
  8  9  1  0
  9 10  1  0
  9 11  1  0
 11 12  2  0
 12 13  1  0
 12 14  1  0
 14 15  2  0
 15 16  1  0
 15 17  1  0
 17 18  2  0
 18  7  1  0
 18 11  1  0
M  END
>  <alias>  (1076) 
None

>  <rmsd(smina/fragmenstein)>  (1076) 
0.602

>  <smiles>  (1076) 
CCCNC(=O)c1cn(C)c2c(F)cc(F)cc12

>  <gnina_score>  (1076) 
5.542

>  <inspiration_score>  (1076) 
None

>  <energy_score>  (1076) 
-2.462427

>  <distance_score>  (1076) 
0.410762

>  <gnina_score_min>  (1076) 
5.61

>  <inchikey>  (1076) 
RCFBSRDPTUOFDW-UHFFFAOYSA-N

>  <exports>  (1076) 
['/opt/xchem-fragalysis-2/maxwin/BulkDock/OUTPUTS/openbind_a71ev2a_c2_elabs_1LOUU54.sdf', '/opt/xchem-fragalysis-2/maxwin/BulkDock/OUTPUTS/openbind_a71ev2a_c2_elabs_1LSYIDY.sdf']

>  <name>  (1076) 
P576855

>  <ref_pdb>  (1076) 
A3066a

>  <subsites>  (1076) 
None

>  <HIPPO Pose ID>  (1076) 
576855

>  <ref_mols>  (1076) 
A3066a

>  <HIPPO Compound ID>  (1076) 
349874

>  <tags>  (1076) 
openbind_a71ev2a_c2_elabs,syndirella_product,openbind_a71ev2a_c2_elabs_fragonly_scored_top80percent,BulkDock Fragalysis export,openbind_a71ev2a_c2_elabs_scored,openbind_a71ev2a_c2_elabs_scored_top80percent,openbind_a71ev2a_c2_elabs_activefrags_only_scored_5.2plus,openbind_a71ev2a_c2_elabs_activefrags_only_scored_5.5plus,syndirella_placed

>  <smina_score_min>  (1076) 
-6.934

$$$$
P576856
     RDKit          3D

 18 19  0  0  0  0  0  0  0  0999 V2000
   11.1231    7.9881   23.4895 C   0  0  0  0  0  0  0  0  0  0  0  0
    9.7661    8.2743   24.0157 C   0  0  0  0  0  0  0  0  0  0  0  0
    8.9482    9.0538   23.0610 C   0  0  0  0  0  0  0  0  0  0  0  0
    8.9860   10.4332   23.5085 N   0  0  0  0  0  0  0  0  0  0  0  0
    9.9287   11.3193   23.0899 C   0  0  0  0  0  0  0  0  0  0  0  0
    9.7939   12.4672   23.8354 C   0  0  0  0  0  0  0  0  0  0  0  0
   10.6052   13.6602   23.6854 C   0  0  0  0  0  0  0  0  0  0  0  0
   10.9270   14.2824   24.6145 O   0  0  0  0  0  0  0  0  0  0  0  0
   10.8108   13.9271   22.1919 N   0  0  0  0  0  0  0  0  0  0  0  0
   11.3691   15.0558   21.5194 C   0  0  0  0  0  0  0  0  0  0  0  0
   10.2151   15.9530   21.0699 C   0  0  0  0  0  0  0  0  0  0  0  0
    9.6707   15.6077   19.3994 S   0  0  0  0  0  0  0  0  0  0  0  0
    8.6989   12.2622   24.7316 C   0  0  0  0  0  0  0  0  0  0  0  0
    8.0443   13.0679   25.6849 C   0  0  0  0  0  0  0  0  0  0  0  0
    7.0138   12.5256   26.4604 C   0  0  0  0  0  0  0  0  0  0  0  0
    6.6345   11.1972   26.3050 C   0  0  0  0  0  0  0  0  0  0  0  0
    7.2451   10.3875   25.3475 C   0  0  0  0  0  0  0  0  0  0  0  0
    8.2503   10.9548   24.5493 C   0  0  0  0  0  0  0  0  0  0  0  0
  1  2  1  0
  2  3  1  0
  3  4  1  0
  4  5  1  0
  5  6  2  0
  6  7  1  0
  7  8  2  0
  7  9  1  0
  9 10  1  0
 10 11  1  0
 11 12  1  0
  6 13  1  0
 13 14  2  0
 14 15  1  0
 15 16  2  0
 16 17  1  0
 17 18  2  0
 18  4  1  0
 18 13  1  0
M  END
>  <alias>  (1077) 
None

>  <rmsd(smina/fragmenstein)>  (1077) 
0.875

>  <smiles>  (1077) 
CCCn1cc(C(=O)NCCS)c2ccccc21

>  <gnina_score>  (1077) 
5.423

>  <inspiration_score>  (1077) 
None

>  <energy_score>  (1077) 
-11.461946

>  <distance_score>  (1077) 
0.638931

>  <gnina_score_min>  (1077) 
5.564

>  <inchikey>  (1077) 
RFALNHFRHDSHKT-UHFFFAOYSA-N

>  <exports>  (1077) 
['/opt/xchem-fragalysis-2/maxwin/BulkDock/OUTPUTS/openbind_a71ev2a_c2_elabs_1LOUU54.sdf', '/opt/xchem-fragalysis-2/maxwin/BulkDock/OUTPUTS/openbind_a71ev2a_c2_elabs_1LSYIDY.sdf']

>  <name>  (1077) 
P576856

>  <ref_pdb>  (1077) 
A3066a

>  <subsites>  (1077) 
None

>  <HIPPO Pose ID>  (1077) 
576856

>  <ref_mols>  (1077) 
A3066a

>  <HIPPO Compound ID>  (1077) 
349879

>  <tags>  (1077) 
openbind_a71ev2a_c2_elabs,syndirella_product,openbind_a71ev2a_c2_elabs_fragonly_scored_top80percent,BulkDock Fragalysis export,openbind_a71ev2a_c2_elabs_scored,openbind_a71ev2a_c2_elabs_scored_top80percent,openbind_a71ev2a_c2_elabs_activefrags_only_scored_5.2plus,openbind_a71ev2a_c2_elabs_activefrags_only_scored_5.5plus,syndirella_placed

>  <smina_score_min>  (1077) 
-5.774

$$$$
P576857
     RDKit          3D

 18 19  0  0  0  0  0  0  0  0999 V2000
   11.1860    8.0684   23.5758 C   0  0  0  0  0  0  0  0  0  0  0  0
    9.7246    7.8608   23.5614 C   0  0  0  0  0  0  0  0  0  0  0  0
    9.0031    9.0104   22.9710 C   0  0  0  0  0  0  0  0  0  0  0  0
    9.1172   10.2565   23.6800 N   0  0  0  0  0  0  0  0  0  0  0  0
    9.9877   11.2237   23.2856 C   0  0  0  0  0  0  0  0  0  0  0  0
    9.7464   12.3568   24.0267 C   0  0  0  0  0  0  0  0  0  0  0  0
   10.4702   13.5961   23.8335 C   0  0  0  0  0  0  0  0  0  0  0  0
   10.8582   14.2394   24.7226 O   0  0  0  0  0  0  0  0  0  0  0  0
   10.5032   13.8629   22.3246 N   0  0  0  0  0  0  0  0  0  0  0  0
   11.1014   14.9281   21.5822 C   0  0  0  0  0  0  0  0  0  0  0  0
   12.2669   14.3790   20.7735 C   0  0  0  0  0  0  0  0  0  0  0  0
    9.9983   15.5513   20.7303 C   0  0  0  0  0  0  0  0  0  0  0  0
    8.6538   12.0656   24.8896 C   0  0  0  0  0  0  0  0  0  0  0  0
    7.8993   12.8287   25.8027 C   0  0  0  0  0  0  0  0  0  0  0  0
    6.8636   12.2219   26.5185 C   0  0  0  0  0  0  0  0  0  0  0  0
    6.5712   10.8751   26.3331 C   0  0  0  0  0  0  0  0  0  0  0  0
    7.2814   10.1070   25.4093 C   0  0  0  0  0  0  0  0  0  0  0  0
    8.3083   10.7248   24.6861 C   0  0  0  0  0  0  0  0  0  0  0  0
  1  2  1  0
  2  3  1  0
  3  4  1  0
  4  5  1  0
  5  6  2  0
  6  7  1  0
  7  8  2  0
  7  9  1  0
  9 10  1  0
 10 11  1  0
 10 12  1  0
  6 13  1  0
 13 14  2  0
 14 15  1  0
 15 16  2  0
 16 17  1  0
 17 18  2  0
 18  4  1  0
 18 13  1  0
M  END
>  <alias>  (1078) 
None

>  <rmsd(smina/fragmenstein)>  (1078) 
0.869

>  <smiles>  (1078) 
CCCn1cc(C(=O)NC(C)C)c2ccccc21

>  <gnina_score>  (1078) 
5.36

>  <inspiration_score>  (1078) 
None

>  <energy_score>  (1078) 
-6.807796

>  <distance_score>  (1078) 
0.659225

>  <gnina_score_min>  (1078) 
5.344

>  <inchikey>  (1078) 
RUFCNMOLRQPFQP-UHFFFAOYSA-N

>  <exports>  (1078) 
['/opt/xchem-fragalysis-2/maxwin/BulkDock/OUTPUTS/openbind_a71ev2a_c2_elabs_1LOUU54.sdf', '/opt/xchem-fragalysis-2/maxwin/BulkDock/OUTPUTS/openbind_a71ev2a_c2_elabs_1LSYIDY.sdf']

>  <name>  (1078) 
P576857

>  <ref_pdb>  (1078) 
A3066a

>  <subsites>  (1078) 
None

>  <HIPPO Pose ID>  (1078) 
576857

>  <ref_mols>  (1078) 
A3066a

>  <HIPPO Compound ID>  (1078) 
349884

>  <tags>  (1078) 
openbind_a71ev2a_c2_elabs,syndirella_product,openbind_a71ev2a_c2_elabs_fragonly_scored_top80percent,openbind_a71ev2a_c2_elabs_scored,BulkDock Fragalysis export,openbind_a71ev2a_c2_elabs_scored_top80percent,openbind_a71ev2a_c2_elabs_activefrags_only_scored_5.2plus,syndirella_placed

>  <smina_score_min>  (1078) 
-5.466

$$$$
P576859
     RDKit          3D

 18 19  0  0  0  0  0  0  0  0999 V2000
    9.6336   15.8064   20.4672 C   0  0  0  0  0  0  0  0  0  0  0  0
   10.8305   14.9397   20.1116 C   0  0  0  0  0  0  0  0  0  0  0  0
   11.7370   14.6548   21.3080 C   0  0  0  0  0  0  0  0  0  0  0  0
   11.1245   13.6223   22.0848 N   0  0  0  0  0  0  0  0  0  0  0  0
   10.7523   13.5812   23.5752 C   0  0  0  0  0  0  0  0  0  0  0  0
   10.9543   14.3511   24.4254 O   0  0  0  0  0  0  0  0  0  0  0  0
    9.9442   12.3860   23.8202 C   0  0  0  0  0  0  0  0  0  0  0  0
   10.1003   11.1973   23.1477 C   0  0  0  0  0  0  0  0  0  0  0  0
    9.1918   10.2952   23.6062 N   0  0  0  0  0  0  0  0  0  0  0  0
    9.0119    9.0215   22.9634 C   0  0  0  0  0  0  0  0  0  0  0  0
    9.7226    7.8733   23.5690 C   0  0  0  0  0  0  0  0  0  0  0  0
   11.1869    8.0605   23.5791 C   0  0  0  0  0  0  0  0  0  0  0  0
    8.4233   10.8553   24.5927 C   0  0  0  0  0  0  0  0  0  0  0  0
    7.3793   10.3204   25.3597 C   0  0  0  0  0  0  0  0  0  0  0  0
    6.7148   11.1705   26.2439 C   0  0  0  0  0  0  0  0  0  0  0  0
    7.0762   12.5092   26.3543 C   0  0  0  0  0  0  0  0  0  0  0  0
    8.1346   13.0283   25.5993 C   0  0  0  0  0  0  0  0  0  0  0  0
    8.8413   12.1883   24.7144 C   0  0  0  0  0  0  0  0  0  0  0  0
  1  2  1  0
  2  3  1  0
  3  4  1  0
  4  5  1  0
  5  6  2  0
  5  7  1  0
  7  8  2  0
  8  9  1  0
  9 10  1  0
 10 11  1  0
 11 12  1  0
  9 13  1  0
 13 14  2  0
 14 15  1  0
 15 16  2  0
 16 17  1  0
 17 18  2  0
 18  7  1  0
 18 13  1  0
M  END
>  <alias>  (1079) 
None

>  <rmsd(smina/fragmenstein)>  (1079) 
0.827

>  <smiles>  (1079) 
CCCNC(=O)c1cn(CCC)c2ccccc12

>  <gnina_score>  (1079) 
5.413

>  <inspiration_score>  (1079) 
None

>  <energy_score>  (1079) 
-9.36144

>  <distance_score>  (1079) 
0.492777

>  <gnina_score_min>  (1079) 
5.254

>  <inchikey>  (1079) 
JVRHRWOCSDBYIU-UHFFFAOYSA-N

>  <exports>  (1079) 
['/opt/xchem-fragalysis-2/maxwin/BulkDock/OUTPUTS/openbind_a71ev2a_c2_elabs_1LOUU54.sdf', '/opt/xchem-fragalysis-2/maxwin/BulkDock/OUTPUTS/openbind_a71ev2a_c2_elabs_1LSYIDY.sdf']

>  <name>  (1079) 
P576859

>  <ref_pdb>  (1079) 
A3066a

>  <subsites>  (1079) 
None

>  <HIPPO Pose ID>  (1079) 
576859

>  <ref_mols>  (1079) 
A3066a

>  <HIPPO Compound ID>  (1079) 
349893

>  <tags>  (1079) 
openbind_a71ev2a_c2_elabs,syndirella_product,openbind_a71ev2a_c2_elabs_fragonly_scored_top80percent,openbind_a71ev2a_c2_elabs_scored,BulkDock Fragalysis export,openbind_a71ev2a_c2_elabs_scored_top80percent,openbind_a71ev2a_c2_elabs_activefrags_only_scored_5.2plus,syndirella_placed

>  <smina_score_min>  (1079) 
-5.564

$$$$
P576862
     RDKit          3D

 18 20  0  0  0  0  0  0  0  0999 V2000
    5.3463   12.4843   28.1939 C   0  0  0  0  0  0  0  0  0  0  0  0
    6.3192   13.0098   27.3008 O   0  0  0  0  0  0  0  0  0  0  0  0
    6.9084   12.1314   26.4327 C   0  0  0  0  0  0  0  0  0  0  0  0
    6.6097   10.7789   26.3101 C   0  0  0  0  0  0  0  0  0  0  0  0
    7.3089    9.9643   25.4115 C   0  0  0  0  0  0  0  0  0  0  0  0
    8.3254   10.5330   24.6382 C   0  0  0  0  0  0  0  0  0  0  0  0
    8.6396   11.8901   24.7326 C   0  0  0  0  0  0  0  0  0  0  0  0
    7.9090   12.6937   25.6329 C   0  0  0  0  0  0  0  0  0  0  0  0
    9.7045   12.1485   23.8201 C   0  0  0  0  0  0  0  0  0  0  0  0
   10.4094   13.4093   23.6150 C   0  0  0  0  0  0  0  0  0  0  0  0
   10.5952   14.1352   24.5077 O   0  0  0  0  0  0  0  0  0  0  0  0
   10.7299   13.5661   22.1192 N   0  0  0  0  0  0  0  0  0  0  0  0
   11.4121   14.5781   21.4377 C   0  0  0  0  0  0  0  0  0  0  0  0
   12.8580   14.8480   21.6712 C   0  0  0  0  0  0  0  0  0  0  0  0
   12.4309   14.1556   20.4191 C   0  0  0  0  0  0  0  0  0  0  0  0
    9.9579   10.9616   23.1624 C   0  0  0  0  0  0  0  0  0  0  0  0
    9.1776    9.9841   23.7075 N   0  0  0  0  0  0  0  0  0  0  0  0
    9.2826    8.5878   23.3532 C   0  0  0  0  0  0  0  0  0  0  0  0
  1  2  1  0
  2  3  1  0
  3  4  2  0
  4  5  1  0
  5  6  2  0
  6  7  1  0
  7  8  2  0
  7  9  1  0
  9 10  1  0
 10 11  2  0
 10 12  1  0
 12 13  1  0
 13 14  1  0
 14 15  1  0
  9 16  2  0
 16 17  1  0
 17 18  1  0
  8  3  1  0
 15 13  1  0
 17  6  1  0
M  END
>  <alias>  (1080) 
None

>  <rmsd(smina/fragmenstein)>  (1080) 
0.283

>  <smiles>  (1080) 
COc1ccc2c(c1)c(C(=O)NC1CC1)cn2C

>  <gnina_score>  (1080) 
5.246

>  <inspiration_score>  (1080) 
None

>  <energy_score>  (1080) 
-89.714227

>  <distance_score>  (1080) 
0.517315

>  <gnina_score_min>  (1080) 
5.273

>  <inchikey>  (1080) 
MHSMBOGDYWLONK-UHFFFAOYSA-N

>  <exports>  (1080) 
['/opt/xchem-fragalysis-2/maxwin/BulkDock/OUTPUTS/openbind_a71ev2a_c2_elabs_1LOUU54.sdf', '/opt/xchem-fragalysis-2/maxwin/BulkDock/OUTPUTS/openbind_a71ev2a_c2_elabs_1LSYIDY.sdf']

>  <name>  (1080) 
P576862

>  <ref_pdb>  (1080) 
A3066a

>  <subsites>  (1080) 
None

>  <HIPPO Pose ID>  (1080) 
576862

>  <ref_mols>  (1080) 
A3066a

>  <HIPPO Compound ID>  (1080) 
349926

>  <tags>  (1080) 
openbind_a71ev2a_c2_elabs,syndirella_product,openbind_a71ev2a_c2_elabs_fragonly_scored_top80percent,openbind_a71ev2a_c2_elabs_scored,BulkDock Fragalysis export,openbind_a71ev2a_c2_elabs_scored_top80percent,openbind_a71ev2a_c2_elabs_activefrags_only_scored_5.2plus,syndirella_placed

>  <smina_score_min>  (1080) 
-6.92

$$$$
P576863
     RDKit          3D

 18 19  0  0  0  0  0  0  0  0999 V2000
    5.9801   14.4664   26.5498 C   0  0  0  0  0  0  0  0  0  0  0  0
    6.2043   13.1382   27.0225 O   0  0  0  0  0  0  0  0  0  0  0  0
    6.9712   12.3603   26.1957 C   0  0  0  0  0  0  0  0  0  0  0  0
    6.6745   11.0013   26.2034 C   0  0  0  0  0  0  0  0  0  0  0  0
    7.3683   10.1039   25.3886 C   0  0  0  0  0  0  0  0  0  0  0  0
    8.3942   10.6047   24.5788 C   0  0  0  0  0  0  0  0  0  0  0  0
    8.7484   11.9578   24.5845 C   0  0  0  0  0  0  0  0  0  0  0  0
    8.0201   12.8448   25.4089 C   0  0  0  0  0  0  0  0  0  0  0  0
    9.8518   12.1263   23.6837 C   0  0  0  0  0  0  0  0  0  0  0  0
   10.6385   13.3465   23.4601 C   0  0  0  0  0  0  0  0  0  0  0  0
   10.7223   14.1339   24.3115 O   0  0  0  0  0  0  0  0  0  0  0  0
   11.2081   13.3564   22.0406 N   0  0  0  0  0  0  0  0  0  0  0  0
   11.9214   14.3743   21.3317 C   0  0  0  0  0  0  0  0  0  0  0  0
   11.1618   14.8001   20.1484 C   0  0  0  0  0  0  0  0  0  0  0  0
   10.5885   15.1541   19.2017 N   0  0  0  0  0  0  0  0  0  0  0  0
   10.0352   10.8994   23.0790 C   0  0  0  0  0  0  0  0  0  0  0  0
    9.2278    9.9791   23.6833 N   0  0  0  0  0  0  0  0  0  0  0  0
    9.2974    8.5616   23.4170 C   0  0  0  0  0  0  0  0  0  0  0  0
  1  2  1  0
  2  3  1  0
  3  4  2  0
  4  5  1  0
  5  6  2  0
  6  7  1  0
  7  8  2  0
  7  9  1  0
  9 10  1  0
 10 11  2  0
 10 12  1  0
 12 13  1  0
 13 14  1  0
 14 15  3  0
  9 16  2  0
 16 17  1  0
 17 18  1  0
  8  3  1  0
 17  6  1  0
M  END
>  <alias>  (1081) 
None

>  <rmsd(smina/fragmenstein)>  (1081) 
0.446

>  <smiles>  (1081) 
COc1ccc2c(c1)c(C(=O)NCC#N)cn2C

>  <gnina_score>  (1081) 
5.548

>  <inspiration_score>  (1081) 
None

>  <energy_score>  (1081) 
-3.848432

>  <distance_score>  (1081) 
0.381359

>  <gnina_score_min>  (1081) 
5.47

>  <inchikey>  (1081) 
DIIFVDAYCXQOHL-UHFFFAOYSA-N

>  <exports>  (1081) 
['/opt/xchem-fragalysis-2/maxwin/BulkDock/OUTPUTS/openbind_a71ev2a_c2_elabs_1LOUU54.sdf', '/opt/xchem-fragalysis-2/maxwin/BulkDock/OUTPUTS/openbind_a71ev2a_c2_elabs_1LSYIDY.sdf']

>  <name>  (1081) 
P576863

>  <ref_pdb>  (1081) 
A3066a

>  <subsites>  (1081) 
None

>  <HIPPO Pose ID>  (1081) 
576863

>  <ref_mols>  (1081) 
A3066a

>  <HIPPO Compound ID>  (1081) 
349930

>  <tags>  (1081) 
openbind_a71ev2a_c2_elabs,syndirella_product,openbind_a71ev2a_c2_elabs_fragonly_scored_top80percent,openbind_a71ev2a_c2_elabs_scored,BulkDock Fragalysis export,openbind_a71ev2a_c2_elabs_scored_top80percent,openbind_a71ev2a_c2_elabs_activefrags_only_scored_5.2plus,syndirella_placed

>  <smina_score_min>  (1081) 
-6.812

$$$$
P576864
     RDKit          3D

 18 19  0  0  0  0  0  0  0  0999 V2000
    5.3369   12.3706   28.2433 C   0  0  0  0  0  0  0  0  0  0  0  0
    6.2895   12.9239   27.3449 O   0  0  0  0  0  0  0  0  0  0  0  0
    6.8872   12.0641   26.4640 C   0  0  0  0  0  0  0  0  0  0  0  0
    6.5932   10.7136   26.3139 C   0  0  0  0  0  0  0  0  0  0  0  0
    7.3001    9.9178   25.4044 C   0  0  0  0  0  0  0  0  0  0  0  0
    8.3209   10.5008   24.6489 C   0  0  0  0  0  0  0  0  0  0  0  0
    8.6330   11.8548   24.7753 C   0  0  0  0  0  0  0  0  0  0  0  0
    7.8919   12.6423   25.6817 C   0  0  0  0  0  0  0  0  0  0  0  0
    9.7086   12.1301   23.8822 C   0  0  0  0  0  0  0  0  0  0  0  0
   10.4053   13.3977   23.7179 C   0  0  0  0  0  0  0  0  0  0  0  0
   10.6406   14.0667   24.6402 O   0  0  0  0  0  0  0  0  0  0  0  0
   10.6563   13.6379   22.2281 N   0  0  0  0  0  0  0  0  0  0  0  0
   11.1630   14.7890   21.5432 C   0  0  0  0  0  0  0  0  0  0  0  0
   12.3342   14.3780   20.6674 C   0  0  0  0  0  0  0  0  0  0  0  0
   10.0098   15.4273   20.7759 C   0  0  0  0  0  0  0  0  0  0  0  0
    9.9629   10.9628   23.1923 C   0  0  0  0  0  0  0  0  0  0  0  0
    9.1773    9.9744   23.7089 N   0  0  0  0  0  0  0  0  0  0  0  0
    9.2759    8.5894   23.3144 C   0  0  0  0  0  0  0  0  0  0  0  0
  1  2  1  0
  2  3  1  0
  3  4  2  0
  4  5  1  0
  5  6  2  0
  6  7  1  0
  7  8  2  0
  7  9  1  0
  9 10  1  0
 10 11  2  0
 10 12  1  0
 12 13  1  0
 13 14  1  0
 13 15  1  0
  9 16  2  0
 16 17  1  0
 17 18  1  0
  8  3  1  0
 17  6  1  0
M  END
>  <alias>  (1082) 
None

>  <rmsd(smina/fragmenstein)>  (1082) 
0.591

>  <smiles>  (1082) 
COc1ccc2c(c1)c(C(=O)NC(C)C)cn2C

>  <gnina_score>  (1082) 
5.339

>  <inspiration_score>  (1082) 
None

>  <energy_score>  (1082) 
-2.079113

>  <distance_score>  (1082) 
0.56342

>  <gnina_score_min>  (1082) 
5.371

>  <inchikey>  (1082) 
KJSVEYWEXKIJNZ-UHFFFAOYSA-N

>  <exports>  (1082) 
['/opt/xchem-fragalysis-2/maxwin/BulkDock/OUTPUTS/openbind_a71ev2a_c2_elabs_1LOUU54.sdf', '/opt/xchem-fragalysis-2/maxwin/BulkDock/OUTPUTS/openbind_a71ev2a_c2_elabs_1LSYIDY.sdf']

>  <name>  (1082) 
P576864

>  <ref_pdb>  (1082) 
A3066a

>  <subsites>  (1082) 
None

>  <HIPPO Pose ID>  (1082) 
576864

>  <ref_mols>  (1082) 
A3066a

>  <HIPPO Compound ID>  (1082) 
349934

>  <tags>  (1082) 
openbind_a71ev2a_c2_elabs,syndirella_product,openbind_a71ev2a_c2_elabs_fragonly_scored_top80percent,openbind_a71ev2a_c2_elabs_scored,BulkDock Fragalysis export,openbind_a71ev2a_c2_elabs_scored_top80percent,openbind_a71ev2a_c2_elabs_activefrags_only_scored_5.2plus,syndirella_placed

>  <smina_score_min>  (1082) 
-7.21

$$$$
P576865
     RDKit          3D

 18 19  0  0  0  0  0  0  0  0999 V2000
   12.9923   14.7231   21.1538 C   0  0  0  0  0  0  0  0  0  0  0  0
   11.9033   15.1179   21.8079 C   0  0  0  0  0  0  0  0  0  0  0  0
   10.5289   14.8670   21.3266 C   0  0  0  0  0  0  0  0  0  0  0  0
   10.1080   13.7112   22.0307 N   0  0  0  0  0  0  0  0  0  0  0  0
    9.8602   13.4929   23.5193 C   0  0  0  0  0  0  0  0  0  0  0  0
    9.8857   14.2432   24.4050 O   0  0  0  0  0  0  0  0  0  0  0  0
    9.4448   12.1295   23.7655 C   0  0  0  0  0  0  0  0  0  0  0  0
    9.8902   10.9810   23.1493 C   0  0  0  0  0  0  0  0  0  0  0  0
    9.2166    9.9217   23.6879 N   0  0  0  0  0  0  0  0  0  0  0  0
    9.4389    8.5484   23.2990 C   0  0  0  0  0  0  0  0  0  0  0  0
    8.3045   10.3728   24.6163 C   0  0  0  0  0  0  0  0  0  0  0  0
    7.3562    9.7060   25.3870 C   0  0  0  0  0  0  0  0  0  0  0  0
    6.5480   10.4425   26.2573 C   0  0  0  0  0  0  0  0  0  0  0  0
    6.6551   11.8250   26.3473 C   0  0  0  0  0  0  0  0  0  0  0  0
    5.7865   12.4171   27.2233 O   0  0  0  0  0  0  0  0  0  0  0  0
    5.6368   13.8285   27.0990 C   0  0  0  0  0  0  0  0  0  0  0  0
    7.6057   12.4879   25.5735 C   0  0  0  0  0  0  0  0  0  0  0  0
    8.4408   11.7535   24.6987 C   0  0  0  0  0  0  0  0  0  0  0  0
  1  2  2  0
  2  3  1  0
  3  4  1  0
  4  5  1  0
  5  6  2  0
  5  7  1  0
  7  8  2  0
  8  9  1  0
  9 10  1  0
  9 11  1  0
 11 12  2  0
 12 13  1  0
 13 14  2  0
 14 15  1  0
 15 16  1  0
 14 17  1  0
 17 18  2  0
 18  7  1  0
 18 11  1  0
M  END
>  <alias>  (1083) 
None

>  <rmsd(smina/fragmenstein)>  (1083) 
0.536

>  <smiles>  (1083) 
C=CCNC(=O)c1cn(C)c2ccc(OC)cc12

>  <gnina_score>  (1083) 
5.221

>  <inspiration_score>  (1083) 
None

>  <energy_score>  (1083) 
-9.296082

>  <distance_score>  (1083) 
0.893216

>  <gnina_score_min>  (1083) 
5.263

>  <inchikey>  (1083) 
QIYQJZHRNUCOMC-UHFFFAOYSA-N

>  <exports>  (1083) 
['/opt/xchem-fragalysis-2/maxwin/BulkDock/OUTPUTS/openbind_a71ev2a_c2_elabs_1LOUU54.sdf', '/opt/xchem-fragalysis-2/maxwin/BulkDock/OUTPUTS/openbind_a71ev2a_c2_elabs_1LSYIDY.sdf']

>  <name>  (1083) 
P576865

>  <ref_pdb>  (1083) 
A3066a

>  <subsites>  (1083) 
None

>  <HIPPO Pose ID>  (1083) 
576865

>  <ref_mols>  (1083) 
A3066a

>  <HIPPO Compound ID>  (1083) 
349935

>  <tags>  (1083) 
openbind_a71ev2a_c2_elabs,syndirella_product,openbind_a71ev2a_c2_elabs_fragonly_scored_top80percent,openbind_a71ev2a_c2_elabs_scored,BulkDock Fragalysis export,openbind_a71ev2a_c2_elabs_scored_top80percent,openbind_a71ev2a_c2_elabs_activefrags_only_scored_5.2plus,syndirella_placed

>  <smina_score_min>  (1083) 
-6.446

$$$$
P576867
     RDKit          3D

 18 19  0  0  0  0  0  0  0  0999 V2000
    5.4065   12.9243   27.8801 C   0  0  0  0  0  0  0  0  0  0  0  0
    6.5210   13.3188   27.0919 O   0  0  0  0  0  0  0  0  0  0  0  0
    7.0745   12.3717   26.2736 C   0  0  0  0  0  0  0  0  0  0  0  0
    6.7256   11.0256   26.2289 C   0  0  0  0  0  0  0  0  0  0  0  0
    7.3919   10.1366   25.3772 C   0  0  0  0  0  0  0  0  0  0  0  0
    8.4229   10.6318   24.5686 C   0  0  0  0  0  0  0  0  0  0  0  0
    8.7970   11.9796   24.5873 C   0  0  0  0  0  0  0  0  0  0  0  0
    8.1002   12.8522   25.4502 C   0  0  0  0  0  0  0  0  0  0  0  0
    9.8781   12.1539   23.6579 C   0  0  0  0  0  0  0  0  0  0  0  0
   10.6508   13.3833   23.4029 C   0  0  0  0  0  0  0  0  0  0  0  0
   10.7229   14.1947   24.2344 O   0  0  0  0  0  0  0  0  0  0  0  0
   11.1854   13.3827   21.9644 N   0  0  0  0  0  0  0  0  0  0  0  0
   11.8420   14.4196   21.2086 C   0  0  0  0  0  0  0  0  0  0  0  0
   11.0051   14.7835   19.9917 C   0  0  0  0  0  0  0  0  0  0  0  0
    9.4728   15.8670   20.5021 Br  0  0  0  0  0  0  0  0  0  0  0  0
   10.0500   10.9239   23.0540 C   0  0  0  0  0  0  0  0  0  0  0  0
    9.2488   10.0042   23.6674 N   0  0  0  0  0  0  0  0  0  0  0  0
    9.3204    8.5851   23.4084 C   0  0  0  0  0  0  0  0  0  0  0  0
  1  2  1  0
  2  3  1  0
  3  4  2  0
  4  5  1  0
  5  6  2  0
  6  7  1  0
  7  8  2  0
  7  9  1  0
  9 10  1  0
 10 11  2  0
 10 12  1  0
 12 13  1  0
 13 14  1  0
 14 15  1  0
  9 16  2  0
 16 17  1  0
 17 18  1  0
  8  3  1  0
 17  6  1  0
M  END
>  <alias>  (1084) 
None

>  <rmsd(smina/fragmenstein)>  (1084) 
0.537

>  <smiles>  (1084) 
COc1ccc2c(c1)c(C(=O)NCCBr)cn2C

>  <gnina_score>  (1084) 
5.526

>  <inspiration_score>  (1084) 
None

>  <energy_score>  (1084) 
-17.986074

>  <distance_score>  (1084) 
0.409371

>  <gnina_score_min>  (1084) 
5.434

>  <inchikey>  (1084) 
DOZIUPVTJUVCRY-UHFFFAOYSA-N

>  <exports>  (1084) 
['/opt/xchem-fragalysis-2/maxwin/BulkDock/OUTPUTS/openbind_a71ev2a_c2_elabs_1LOUU54.sdf', '/opt/xchem-fragalysis-2/maxwin/BulkDock/OUTPUTS/openbind_a71ev2a_c2_elabs_1LSYIDY.sdf']

>  <name>  (1084) 
P576867

>  <ref_pdb>  (1084) 
A3066a

>  <subsites>  (1084) 
None

>  <HIPPO Pose ID>  (1084) 
576867

>  <ref_mols>  (1084) 
A3066a

>  <HIPPO Compound ID>  (1084) 
349937

>  <tags>  (1084) 
openbind_a71ev2a_c2_elabs,syndirella_product,openbind_a71ev2a_c2_elabs_fragonly_scored_top80percent,openbind_a71ev2a_c2_elabs_scored,BulkDock Fragalysis export,openbind_a71ev2a_c2_elabs_scored_top80percent,openbind_a71ev2a_c2_elabs_activefrags_only_scored_5.2plus,syndirella_placed

>  <smina_score_min>  (1084) 
-6.739

$$$$
P576868
     RDKit          3D

 18 20  0  0  0  0  0  0  0  0999 V2000
    5.4566   12.4493   28.1837 C   0  0  0  0  0  0  0  0  0  0  0  0
    6.3926   13.0087   27.2728 O   0  0  0  0  0  0  0  0  0  0  0  0
    6.9916   12.1529   26.3881 C   0  0  0  0  0  0  0  0  0  0  0  0
    6.7036   10.7992   26.2416 C   0  0  0  0  0  0  0  0  0  0  0  0
    7.4093   10.0070   25.3282 C   0  0  0  0  0  0  0  0  0  0  0  0
    8.4109   10.6049   24.5553 C   0  0  0  0  0  0  0  0  0  0  0  0
    8.7221   11.9622   24.6797 C   0  0  0  0  0  0  0  0  0  0  0  0
    7.9899   12.7400   25.6012 C   0  0  0  0  0  0  0  0  0  0  0  0
    9.7909   12.2435   23.7760 C   0  0  0  0  0  0  0  0  0  0  0  0
   10.5422   13.4857   23.6183 C   0  0  0  0  0  0  0  0  0  0  0  0
   10.8204   14.1342   24.5610 O   0  0  0  0  0  0  0  0  0  0  0  0
   10.8374   13.7105   22.1614 N   0  0  0  0  0  0  0  0  0  0  0  0
    9.7087   14.5265   21.4716 C   0  0  0  0  0  0  0  0  0  0  0  0
   10.6546   14.8451   20.3630 C   0  0  0  0  0  0  0  0  0  0  0  0
   11.6612   14.7755   21.4753 C   0  0  0  0  0  0  0  0  0  0  0  0
   10.0176   11.0825   23.0676 C   0  0  0  0  0  0  0  0  0  0  0  0
    9.2544   10.0853   23.5985 N   0  0  0  0  0  0  0  0  0  0  0  0
    9.3482    8.7007   23.1942 C   0  0  0  0  0  0  0  0  0  0  0  0
  1  2  1  0
  2  3  1  0
  3  4  2  0
  4  5  1  0
  5  6  2  0
  6  7  1  0
  7  8  2  0
  7  9  1  0
  9 10  1  0
 10 11  2  0
 10 12  1  0
 12 13  1  0
 13 14  1  0
 14 15  1  0
  9 16  2  0
 16 17  1  0
 17 18  1  0
  8  3  1  0
 15 12  1  0
 17  6  1  0
M  END
>  <alias>  (1085) 
None

>  <rmsd(smina/fragmenstein)>  (1085) 
0.33

>  <smiles>  (1085) 
COc1ccc2c(c1)c(C(=O)N1CCC1)cn2C

>  <gnina_score>  (1085) 
5.276

>  <inspiration_score>  (1085) 
None

>  <energy_score>  (1085) 
-5.30842

>  <distance_score>  (1085) 
0.420845

>  <gnina_score_min>  (1085) 
5.213

>  <inchikey>  (1085) 
WXQDBMBOGVNKRW-UHFFFAOYSA-N

>  <exports>  (1085) 
['/opt/xchem-fragalysis-2/maxwin/BulkDock/OUTPUTS/openbind_a71ev2a_c2_elabs_1LOUU54.sdf', '/opt/xchem-fragalysis-2/maxwin/BulkDock/OUTPUTS/openbind_a71ev2a_c2_elabs_1LSYIDY.sdf']

>  <name>  (1085) 
P576868

>  <ref_pdb>  (1085) 
A3066a

>  <subsites>  (1085) 
None

>  <HIPPO Pose ID>  (1085) 
576868

>  <ref_mols>  (1085) 
A3066a

>  <HIPPO Compound ID>  (1085) 
349938

>  <tags>  (1085) 
openbind_a71ev2a_c2_elabs,syndirella_product,openbind_a71ev2a_c2_elabs_fragonly_scored_top80percent,openbind_a71ev2a_c2_elabs_scored,BulkDock Fragalysis export,openbind_a71ev2a_c2_elabs_scored_top80percent,openbind_a71ev2a_c2_elabs_activefrags_only_scored_5.2plus,syndirella_placed

>  <smina_score_min>  (1085) 
-7.235

$$$$
P576869
     RDKit          3D

 18 19  0  0  0  0  0  0  0  0999 V2000
    5.3045   12.3433   28.2982 C   0  0  0  0  0  0  0  0  0  0  0  0
    6.2369   12.9197   27.3930 O   0  0  0  0  0  0  0  0  0  0  0  0
    6.8416   12.0784   26.4992 C   0  0  0  0  0  0  0  0  0  0  0  0
    6.5538   10.7293   26.3249 C   0  0  0  0  0  0  0  0  0  0  0  0
    7.2637    9.9540   25.4007 C   0  0  0  0  0  0  0  0  0  0  0  0
    8.2812   10.5575   24.6561 C   0  0  0  0  0  0  0  0  0  0  0  0
    8.5971   11.9082   24.8156 C   0  0  0  0  0  0  0  0  0  0  0  0
    7.8505   12.6740   25.7356 C   0  0  0  0  0  0  0  0  0  0  0  0
    9.7180   12.1906   23.9786 C   0  0  0  0  0  0  0  0  0  0  0  0
   10.5327   13.4082   23.9734 C   0  0  0  0  0  0  0  0  0  0  0  0
   10.6722   14.0144   24.9564 O   0  0  0  0  0  0  0  0  0  0  0  0
   11.1593   13.6010   22.5926 N   0  0  0  0  0  0  0  0  0  0  0  0
   12.1608   14.5187   22.1464 C   0  0  0  0  0  0  0  0  0  0  0  0
   12.5749   14.2529   20.7168 C   0  0  0  0  0  0  0  0  0  0  0  0
   11.2604   14.6606   19.5233 S   0  0  0  0  0  0  0  0  0  0  0  0
    9.9524   11.0436   23.2421 C   0  0  0  0  0  0  0  0  0  0  0  0
    9.1481   10.0474   23.7177 N   0  0  0  0  0  0  0  0  0  0  0  0
    9.2647    8.6632   23.3181 C   0  0  0  0  0  0  0  0  0  0  0  0
  1  2  1  0
  2  3  1  0
  3  4  2  0
  4  5  1  0
  5  6  2  0
  6  7  1  0
  7  8  2  0
  7  9  1  0
  9 10  1  0
 10 11  2  0
 10 12  1  0
 12 13  1  0
 13 14  1  0
 14 15  1  0
  9 16  2  0
 16 17  1  0
 17 18  1  0
  8  3  1  0
 17  6  1  0
M  END
>  <alias>  (1086) 
None

>  <rmsd(smina/fragmenstein)>  (1086) 
0.856

>  <smiles>  (1086) 
COc1ccc2c(c1)c(C(=O)NCCS)cn2C

>  <gnina_score>  (1086) 
5.331

>  <inspiration_score>  (1086) 
None

>  <energy_score>  (1086) 
-22.478979

>  <distance_score>  (1086) 
0.428656

>  <gnina_score_min>  (1086) 
5.606

>  <inchikey>  (1086) 
XJXZXNCOIFXEAO-UHFFFAOYSA-N

>  <exports>  (1086) 
['/opt/xchem-fragalysis-2/maxwin/BulkDock/OUTPUTS/openbind_a71ev2a_c2_elabs_1LOUU54.sdf', '/opt/xchem-fragalysis-2/maxwin/BulkDock/OUTPUTS/openbind_a71ev2a_c2_elabs_1LSYIDY.sdf']

>  <name>  (1086) 
P576869

>  <ref_pdb>  (1086) 
A3066a

>  <subsites>  (1086) 
None

>  <HIPPO Pose ID>  (1086) 
576869

>  <ref_mols>  (1086) 
A3066a

>  <HIPPO Compound ID>  (1086) 
349939

>  <tags>  (1086) 
openbind_a71ev2a_c2_elabs,syndirella_product,openbind_a71ev2a_c2_elabs_fragonly_scored_top80percent,BulkDock Fragalysis export,openbind_a71ev2a_c2_elabs_scored,openbind_a71ev2a_c2_elabs_scored_top80percent,openbind_a71ev2a_c2_elabs_activefrags_only_scored_5.2plus,openbind_a71ev2a_c2_elabs_activefrags_only_scored_5.5plus,syndirella_placed

>  <smina_score_min>  (1086) 
-6.445

$$$$
P576871
     RDKit          3D

 18 19  0  0  0  0  0  0  0  0999 V2000
   10.0535    7.8949   23.7242 C   0  0  0  0  0  0  0  0  0  0  0  0
    9.1488    8.8251   22.9882 C   0  0  0  0  0  0  0  0  0  0  0  0
    9.0401   10.0916   23.6835 N   0  0  0  0  0  0  0  0  0  0  0  0
    9.8971   11.1154   23.4164 C   0  0  0  0  0  0  0  0  0  0  0  0
    9.6248   12.1504   24.2871 C   0  0  0  0  0  0  0  0  0  0  0  0
   10.3966   13.3680   24.4705 C   0  0  0  0  0  0  0  0  0  0  0  0
   10.2048   14.0608   25.3812 O   0  0  0  0  0  0  0  0  0  0  0  0
   11.3222   13.5413   23.2777 N   0  0  0  0  0  0  0  0  0  0  0  0
   12.1320   14.6269   22.8987 C   0  0  0  0  0  0  0  0  0  0  0  0
   11.7183   15.1438   21.5387 C   0  0  2  0  0  0  0  0  0  0  0  0
   10.2260   15.1439   21.2069 C   0  0  0  0  0  0  0  0  0  0  0  0
   12.5359   14.1729   20.2511 S   0  0  0  0  0  0  0  0  0  0  0  0
    8.4513   11.7887   25.0011 C   0  0  0  0  0  0  0  0  0  0  0  0
    7.6406   12.4598   25.9416 C   0  0  0  0  0  0  0  0  0  0  0  0
    6.6167   11.7727   26.5890 C   0  0  0  0  0  0  0  0  0  0  0  0
    6.4026   10.4308   26.3143 C   0  0  0  0  0  0  0  0  0  0  0  0
    7.1661    9.7667   25.3527 C   0  0  0  0  0  0  0  0  0  0  0  0
    8.1713   10.4610   24.6814 C   0  0  0  0  0  0  0  0  0  0  0  0
  1  2  1  0
  2  3  1  0
  3  4  1  0
  4  5  2  0
  5  6  1  0
  6  7  2  0
  6  8  1  0
  8  9  1  0
  9 10  1  0
 10 11  1  6
 10 12  1  0
  5 13  1  0
 13 14  2  0
 14 15  1  0
 15 16  2  0
 16 17  1  0
 17 18  2  0
 18  3  1  0
 18 13  1  0
M  END
>  <alias>  (1087) 
None

>  <rmsd(smina/fragmenstein)>  (1087) 
0.827

>  <smiles>  (1087) 
CCn1cc(C(=O)NC[C@H](C)S)c2ccccc21

>  <gnina_score>  (1087) 
5.489

>  <inspiration_score>  (1087) 
None

>  <energy_score>  (1087) 
-12.415979

>  <distance_score>  (1087) 
0.752233

>  <gnina_score_min>  (1087) 
5.507

>  <inchikey>  (1087) 
ALHSPRBDNSTLEG-JTQLQIEISA-N

>  <exports>  (1087) 
['/opt/xchem-fragalysis-2/maxwin/BulkDock/OUTPUTS/openbind_a71ev2a_c2_elabs_1LOUU54.sdf', '/opt/xchem-fragalysis-2/maxwin/BulkDock/OUTPUTS/openbind_a71ev2a_c2_elabs_1LSYIDY.sdf']

>  <name>  (1087) 
P576871

>  <ref_pdb>  (1087) 
A3066a

>  <subsites>  (1087) 
None

>  <HIPPO Pose ID>  (1087) 
576871

>  <ref_mols>  (1087) 
A3066a

>  <HIPPO Compound ID>  (1087) 
349952

>  <tags>  (1087) 
openbind_a71ev2a_c2_elabs,syndirella_product,openbind_a71ev2a_c2_elabs_fragonly_scored_top80percent,BulkDock Fragalysis export,openbind_a71ev2a_c2_elabs_scored,openbind_a71ev2a_c2_elabs_scored_top80percent,openbind_a71ev2a_c2_elabs_activefrags_only_scored_5.2plus,openbind_a71ev2a_c2_elabs_activefrags_only_scored_5.5plus,syndirella_placed

>  <smina_score_min>  (1087) 
-5.971

$$$$
P576873
     RDKit          3D

 18 19  0  0  0  0  0  0  0  0999 V2000
   10.5146    8.1673   23.4113 C   0  0  0  0  0  0  0  0  0  0  0  0
    9.0790    8.5729   23.6242 C   0  0  0  0  0  0  0  0  0  0  0  0
    8.8990    9.9911   23.8339 N   0  0  0  0  0  0  0  0  0  0  0  0
    9.5770   10.9574   23.1492 C   0  0  0  0  0  0  0  0  0  0  0  0
    9.1729   12.1894   23.6176 C   0  0  0  0  0  0  0  0  0  0  0  0
    9.6824   13.5015   23.2345 C   0  0  0  0  0  0  0  0  0  0  0  0
    9.4371   14.3944   23.9315 O   0  0  0  0  0  0  0  0  0  0  0  0
   10.5593   13.4316   21.9882 N   0  0  0  0  0  0  0  0  0  0  0  0
   11.3965   14.4187   21.3863 C   0  0  0  0  0  0  0  0  0  0  0  0
   12.5002   14.8171   22.3586 C   0  0  0  0  0  0  0  0  0  0  0  0
   13.1708   13.7079   22.9577 O   0  0  0  0  0  0  0  0  0  0  0  0
   12.6546   13.2366   24.1852 C   0  0  0  0  0  0  0  0  0  0  0  0
    8.2289   11.9412   24.6647 C   0  0  0  0  0  0  0  0  0  0  0  0
    7.4999   12.7742   25.5421 C   0  0  0  0  0  0  0  0  0  0  0  0
    6.6102   12.2152   26.4599 C   0  0  0  0  0  0  0  0  0  0  0  0
    6.4204   10.8426   26.4988 C   0  0  0  0  0  0  0  0  0  0  0  0
    7.1223   10.0011   25.6360 C   0  0  0  0  0  0  0  0  0  0  0  0
    8.0477   10.5630   24.7492 C   0  0  0  0  0  0  0  0  0  0  0  0
  1  2  1  0
  2  3  1  0
  3  4  1  0
  4  5  2  0
  5  6  1  0
  6  7  2  0
  6  8  1  0
  8  9  1  0
  9 10  1  0
 10 11  1  0
 11 12  1  0
  5 13  1  0
 13 14  2  0
 14 15  1  0
 15 16  2  0
 16 17  1  0
 17 18  2  0
 18  3  1  0
 18 13  1  0
M  END
>  <alias>  (1088) 
None

>  <rmsd(smina/fragmenstein)>  (1088) 
0.397

>  <smiles>  (1088) 
CCn1cc(C(=O)NCCOC)c2ccccc21

>  <gnina_score>  (1088) 
5.368

>  <inspiration_score>  (1088) 
None

>  <energy_score>  (1088) 
-15.65074

>  <distance_score>  (1088) 
0.917991

>  <gnina_score_min>  (1088) 
5.278

>  <inchikey>  (1088) 
RHZKLXKQYFTOEV-UHFFFAOYSA-N

>  <exports>  (1088) 
['/opt/xchem-fragalysis-2/maxwin/BulkDock/OUTPUTS/openbind_a71ev2a_c2_elabs_1LOUU54.sdf', '/opt/xchem-fragalysis-2/maxwin/BulkDock/OUTPUTS/openbind_a71ev2a_c2_elabs_1LSYIDY.sdf']

>  <name>  (1088) 
P576873

>  <ref_pdb>  (1088) 
A3066a

>  <subsites>  (1088) 
None

>  <HIPPO Pose ID>  (1088) 
576873

>  <ref_mols>  (1088) 
A3066a

>  <HIPPO Compound ID>  (1088) 
286704

>  <tags>  (1088) 
openbind_a71ev2a_c2_elabs,syndirella_product,openbind_a71ev2a_c2_elabs_fragonly_scored_top80percent,openbind_a71ev2a_c2_elabs_scored,BulkDock Fragalysis export,openbind_a71ev2a_c2_elabs_scored_top80percent,openbind_a71ev2a_c2_elabs_activefrags_only_scored_5.2plus,syndirella_placed

>  <smina_score_min>  (1088) 
-5.399

$$$$
P576882
     RDKit          3D

 18 19  0  0  0  0  0  0  0  0999 V2000
   13.0201   14.5179   21.7440 C   0  0  0  0  0  0  0  0  0  0  0  0
   11.8011   15.3650   22.0046 C   0  0  0  0  0  0  0  0  0  0  0  0
   10.7084   14.8136   21.2190 N   0  0  0  0  0  0  0  0  0  0  0  0
    9.6474   15.7442   20.8702 C   0  0  0  0  0  0  0  0  0  0  0  0
   10.2171   13.7189   21.8748 N   0  0  0  0  0  0  0  0  0  0  0  0
    9.7775   13.5440   23.3479 C   0  0  0  0  0  0  0  0  0  0  0  0
    9.6938   14.3253   24.2094 O   0  0  0  0  0  0  0  0  0  0  0  0
    9.3934   12.1854   23.6180 C   0  0  0  0  0  0  0  0  0  0  0  0
    9.8884   11.0584   23.0130 C   0  0  0  0  0  0  0  0  0  0  0  0
    9.1704    9.9962   23.4665 N   0  0  0  0  0  0  0  0  0  0  0  0
    9.3003    8.6816   22.8730 C   0  0  0  0  0  0  0  0  0  0  0  0
   10.1582    7.8170   23.7284 C   0  0  0  0  0  0  0  0  0  0  0  0
    8.3180   10.3939   24.4720 C   0  0  0  0  0  0  0  0  0  0  0  0
    7.4207    9.6871   25.2727 C   0  0  0  0  0  0  0  0  0  0  0  0
    6.6329   10.3811   26.1946 C   0  0  0  0  0  0  0  0  0  0  0  0
    6.7351   11.7586   26.3184 C   0  0  0  0  0  0  0  0  0  0  0  0
    7.6307   12.4653   25.5172 C   0  0  0  0  0  0  0  0  0  0  0  0
    8.4377   11.7750   24.5864 C   0  0  0  0  0  0  0  0  0  0  0  0
  1  2  1  0
  2  3  1  0
  3  4  1  0
  3  5  1  0
  5  6  1  0
  6  7  2  0
  6  8  1  0
  8  9  2  0
  9 10  1  0
 10 11  1  0
 11 12  1  0
 10 13  1  0
 13 14  2  0
 14 15  1  0
 15 16  2  0
 16 17  1  0
 17 18  2  0
 18  8  1  0
 18 13  1  0
M  END
>  <alias>  (1089) 
None

>  <rmsd(smina/fragmenstein)>  (1089) 
0.72

>  <smiles>  (1089) 
CCN(C)NC(=O)c1cn(CC)c2ccccc12

>  <gnina_score>  (1089) 
5.545

>  <inspiration_score>  (1089) 
None

>  <energy_score>  (1089) 
-9.608566

>  <distance_score>  (1089) 
0.897279

>  <gnina_score_min>  (1089) 
5.553

>  <inchikey>  (1089) 
HGYWZKYYPQJXNO-UHFFFAOYSA-N

>  <exports>  (1089) 
['/opt/xchem-fragalysis-2/maxwin/BulkDock/OUTPUTS/openbind_a71ev2a_c2_elabs_1LOUU54.sdf', '/opt/xchem-fragalysis-2/maxwin/BulkDock/OUTPUTS/openbind_a71ev2a_c2_elabs_1LSYIDY.sdf']

>  <name>  (1089) 
P576882

>  <ref_pdb>  (1089) 
A3066a

>  <subsites>  (1089) 
None

>  <HIPPO Pose ID>  (1089) 
576882

>  <ref_mols>  (1089) 
A3066a

>  <HIPPO Compound ID>  (1089) 
349976

>  <tags>  (1089) 
openbind_a71ev2a_c2_elabs,syndirella_product,openbind_a71ev2a_c2_elabs_fragonly_scored_top80percent,BulkDock Fragalysis export,openbind_a71ev2a_c2_elabs_scored,openbind_a71ev2a_c2_elabs_scored_top80percent,openbind_a71ev2a_c2_elabs_activefrags_only_scored_5.2plus,openbind_a71ev2a_c2_elabs_activefrags_only_scored_5.5plus,syndirella_placed

>  <smina_score_min>  (1089) 
-6.103

$$$$
P576883
     RDKit          3D

 18 20  0  0  0  0  0  0  0  0999 V2000
   10.4507    8.2370   23.3623 C   0  0  0  0  0  0  0  0  0  0  0  0
    9.0438    8.7034   23.6325 C   0  0  0  0  0  0  0  0  0  0  0  0
    8.9328   10.1154   23.9347 N   0  0  0  0  0  0  0  0  0  0  0  0
    9.6998   11.1025   23.3833 C   0  0  0  0  0  0  0  0  0  0  0  0
    9.4452   12.2699   24.0748 C   0  0  0  0  0  0  0  0  0  0  0  0
   10.1447   13.5216   23.8844 C   0  0  0  0  0  0  0  0  0  0  0  0
   10.6295   14.0915   24.7765 O   0  0  0  0  0  0  0  0  0  0  0  0
   10.0894   13.8719   22.3938 N   0  0  0  0  0  0  0  0  0  0  0  0
   10.7023   14.9549   21.6607 C   0  0  0  0  0  0  0  0  0  0  0  0
   11.0737   14.5847   20.2179 C   0  0  0  0  0  0  0  0  0  0  0  0
   12.4432   14.1285   20.7570 C   0  0  0  0  0  0  0  0  0  0  0  0
   12.2126   15.0757   21.9410 C   0  0  0  0  0  0  0  0  0  0  0  0
    8.3897   12.0091   24.9826 C   0  0  0  0  0  0  0  0  0  0  0  0
    7.6671   12.8122   25.8860 C   0  0  0  0  0  0  0  0  0  0  0  0
    6.6657   12.2360   26.6679 C   0  0  0  0  0  0  0  0  0  0  0  0
    6.3748   10.8829   26.5512 C   0  0  0  0  0  0  0  0  0  0  0  0
    7.0616   10.0754   25.6435 C   0  0  0  0  0  0  0  0  0  0  0  0
    8.0755   10.6549   24.8715 C   0  0  0  0  0  0  0  0  0  0  0  0
  1  2  1  0
  2  3  1  0
  3  4  1  0
  4  5  2  0
  5  6  1  0
  6  7  2  0
  6  8  1  0
  8  9  1  0
  9 10  1  0
 10 11  1  0
 11 12  1  0
  5 13  1  0
 13 14  2  0
 14 15  1  0
 15 16  2  0
 16 17  1  0
 17 18  2  0
 18  3  1  0
 12  9  1  0
 18 13  1  0
M  END
>  <alias>  (1090) 
None

>  <rmsd(smina/fragmenstein)>  (1090) 
0.267

>  <smiles>  (1090) 
CCn1cc(C(=O)NC2CCC2)c2ccccc21

>  <gnina_score>  (1090) 
5.258

>  <inspiration_score>  (1090) 
None

>  <energy_score>  (1090) 
-5.29041

>  <distance_score>  (1090) 
0.894973

>  <gnina_score_min>  (1090) 
5.255

>  <inchikey>  (1090) 
CIJYMWJMGJWMBU-UHFFFAOYSA-N

>  <exports>  (1090) 
['/opt/xchem-fragalysis-2/maxwin/BulkDock/OUTPUTS/openbind_a71ev2a_c2_elabs_1LOUU54.sdf', '/opt/xchem-fragalysis-2/maxwin/BulkDock/OUTPUTS/openbind_a71ev2a_c2_elabs_1LSYIDY.sdf']

>  <name>  (1090) 
P576883

>  <ref_pdb>  (1090) 
A3066a

>  <subsites>  (1090) 
None

>  <HIPPO Pose ID>  (1090) 
576883

>  <ref_mols>  (1090) 
A3066a

>  <HIPPO Compound ID>  (1090) 
349979

>  <tags>  (1090) 
openbind_a71ev2a_c2_elabs,syndirella_product,openbind_a71ev2a_c2_elabs_fragonly_scored_top80percent,openbind_a71ev2a_c2_elabs_scored,BulkDock Fragalysis export,openbind_a71ev2a_c2_elabs_scored_top80percent,openbind_a71ev2a_c2_elabs_activefrags_only_scored_5.2plus,syndirella_placed

>  <smina_score_min>  (1090) 
-6.39

$$$$
P576885
     RDKit          3D

 18 19  0  0  0  0  0  0  0  0999 V2000
   10.4971    8.1775   23.3828 C   0  0  0  0  0  0  0  0  0  0  0  0
    9.0874    8.6586   23.6042 C   0  0  0  0  0  0  0  0  0  0  0  0
    8.9881   10.0774   23.8752 N   0  0  0  0  0  0  0  0  0  0  0  0
    9.7833   11.0407   23.3173 C   0  0  0  0  0  0  0  0  0  0  0  0
    9.5709   12.2155   24.0071 C   0  0  0  0  0  0  0  0  0  0  0  0
   10.3279   13.4479   23.8795 C   0  0  0  0  0  0  0  0  0  0  0  0
   10.5725   14.0761   24.8272 O   0  0  0  0  0  0  0  0  0  0  0  0
   10.5896   13.7397   22.4023 N   0  0  0  0  0  0  0  0  0  0  0  0
   11.2925   14.8222   21.7759 C   0  0  1  0  0  0  0  0  0  0  0  0
   12.3958   14.2993   20.8792 C   0  0  0  0  0  0  0  0  0  0  0  0
   10.2712   15.8016   21.1865 C   0  0  0  0  0  0  0  0  0  0  0  0
    9.6529   15.5279   19.5334 S   0  0  0  0  0  0  0  0  0  0  0  0
    8.4796   11.9899   24.8942 C   0  0  0  0  0  0  0  0  0  0  0  0
    7.7609   12.8167   25.7822 C   0  0  0  0  0  0  0  0  0  0  0  0
    6.7411   12.2713   26.5635 C   0  0  0  0  0  0  0  0  0  0  0  0
    6.4293   10.9216   26.4670 C   0  0  0  0  0  0  0  0  0  0  0  0
    7.1098   10.0902   25.5766 C   0  0  0  0  0  0  0  0  0  0  0  0
    8.1355   10.6430   24.7989 C   0  0  0  0  0  0  0  0  0  0  0  0
  1  2  1  0
  2  3  1  0
  3  4  1  0
  4  5  2  0
  5  6  1  0
  6  7  2  0
  6  8  1  0
  8  9  1  0
  9 10  1  6
  9 11  1  0
 11 12  1  0
  5 13  1  0
 13 14  2  0
 14 15  1  0
 15 16  2  0
 16 17  1  0
 17 18  2  0
 18  3  1  0
 18 13  1  0
M  END
>  <alias>  (1091) 
None

>  <rmsd(smina/fragmenstein)>  (1091) 
0.256

>  <smiles>  (1091) 
CCn1cc(C(=O)N[C@@H](C)CS)c2ccccc21

>  <gnina_score>  (1091) 
5.611

>  <inspiration_score>  (1091) 
None

>  <energy_score>  (1091) 
-2.858089

>  <distance_score>  (1091) 
0.685135

>  <gnina_score_min>  (1091) 
5.457

>  <inchikey>  (1091) 
VILXNGHQVQXBRD-JTQLQIEISA-N

>  <exports>  (1091) 
['/opt/xchem-fragalysis-2/maxwin/BulkDock/OUTPUTS/openbind_a71ev2a_c2_elabs_1LOUU54.sdf', '/opt/xchem-fragalysis-2/maxwin/BulkDock/OUTPUTS/openbind_a71ev2a_c2_elabs_1LSYIDY.sdf']

>  <name>  (1091) 
P576885

>  <ref_pdb>  (1091) 
A3066a

>  <subsites>  (1091) 
None

>  <HIPPO Pose ID>  (1091) 
576885

>  <ref_mols>  (1091) 
A3066a

>  <HIPPO Compound ID>  (1091) 
349980

>  <tags>  (1091) 
openbind_a71ev2a_c2_elabs,syndirella_product,openbind_a71ev2a_c2_elabs_fragonly_scored_top80percent,openbind_a71ev2a_c2_elabs_scored,BulkDock Fragalysis export,openbind_a71ev2a_c2_elabs_scored_top80percent,openbind_a71ev2a_c2_elabs_activefrags_only_scored_5.2plus,syndirella_placed

>  <smina_score_min>  (1091) 
-5.635

$$$$
P576887
     RDKit          3D

 18 19  0  0  0  0  0  0  0  0999 V2000
   10.4578    8.0759   23.4285 C   0  0  0  0  0  0  0  0  0  0  0  0
    9.0563    8.5866   23.6524 C   0  0  0  0  0  0  0  0  0  0  0  0
    8.9961   10.0145   23.8667 N   0  0  0  0  0  0  0  0  0  0  0  0
    9.8049   10.9059   23.2307 C   0  0  0  0  0  0  0  0  0  0  0  0
    9.6203   12.1485   23.7932 C   0  0  0  0  0  0  0  0  0  0  0  0
   10.3914   13.3433   23.4774 C   0  0  0  0  0  0  0  0  0  0  0  0
   10.4844   14.1982   24.2603 O   0  0  0  0  0  0  0  0  0  0  0  0
   10.9404   13.2389   22.0510 N   0  0  0  0  0  0  0  0  0  0  0  0
   11.6385   14.1985   21.2500 C   0  0  1  0  0  0  0  0  0  0  0  0
   10.6097   15.0729   20.5440 C   0  0  0  0  0  0  0  0  0  0  0  0
   12.6420   14.9495   22.0919 C   0  0  0  0  0  0  0  0  0  0  0  0
   13.5257   15.5759   21.2863 F   0  0  0  0  0  0  0  0  0  0  0  0
    8.5569   12.0130   24.7382 C   0  0  0  0  0  0  0  0  0  0  0  0
    7.8736   12.9178   25.5766 C   0  0  0  0  0  0  0  0  0  0  0  0
    6.8576   12.4540   26.4163 C   0  0  0  0  0  0  0  0  0  0  0  0
    6.5121   11.1084   26.4280 C   0  0  0  0  0  0  0  0  0  0  0  0
    7.1597   10.1948   25.5960 C   0  0  0  0  0  0  0  0  0  0  0  0
    8.1823   10.6667   24.7619 C   0  0  0  0  0  0  0  0  0  0  0  0
  1  2  1  0
  2  3  1  0
  3  4  1  0
  4  5  2  0
  5  6  1  0
  6  7  2  0
  6  8  1  0
  8  9  1  0
  9 10  1  1
  9 11  1  0
 11 12  1  0
  5 13  1  0
 13 14  2  0
 14 15  1  0
 15 16  2  0
 16 17  1  0
 17 18  2  0
 18  3  1  0
 18 13  1  0
M  END
>  <alias>  (1092) 
None

>  <rmsd(smina/fragmenstein)>  (1092) 
0.392

>  <smiles>  (1092) 
CCn1cc(C(=O)N[C@@H](C)CF)c2ccccc21

>  <gnina_score>  (1092) 
5.303

>  <inspiration_score>  (1092) 
None

>  <energy_score>  (1092) 
-8.804552

>  <distance_score>  (1092) 
0.620155

>  <gnina_score_min>  (1092) 
5.349

>  <inchikey>  (1092) 
OGGDNEJKQMVMLR-JTQLQIEISA-N

>  <exports>  (1092) 
['/opt/xchem-fragalysis-2/maxwin/BulkDock/OUTPUTS/openbind_a71ev2a_c2_elabs_1LOUU54.sdf', '/opt/xchem-fragalysis-2/maxwin/BulkDock/OUTPUTS/openbind_a71ev2a_c2_elabs_1LSYIDY.sdf']

>  <name>  (1092) 
P576887

>  <ref_pdb>  (1092) 
A3066a

>  <subsites>  (1092) 
None

>  <HIPPO Pose ID>  (1092) 
576887

>  <ref_mols>  (1092) 
A3066a

>  <HIPPO Compound ID>  (1092) 
349983

>  <tags>  (1092) 
openbind_a71ev2a_c2_elabs,syndirella_product,openbind_a71ev2a_c2_elabs_fragonly_scored_top80percent,openbind_a71ev2a_c2_elabs_scored,BulkDock Fragalysis export,openbind_a71ev2a_c2_elabs_scored_top80percent,openbind_a71ev2a_c2_elabs_activefrags_only_scored_5.2plus,syndirella_placed

>  <smina_score_min>  (1092) 
-6.504

$$$$
P576888
     RDKit          3D

 18 19  0  0  0  0  0  0  0  0999 V2000
    9.2582    8.1847   22.6106 C   0  0  0  0  0  0  0  0  0  0  0  0
    9.5397    8.7794   23.9451 C   0  0  0  0  0  0  0  0  0  0  0  0
    9.1545   10.1663   24.0583 N   0  0  0  0  0  0  0  0  0  0  0  0
    9.8606   11.1689   23.4695 C   0  0  0  0  0  0  0  0  0  0  0  0
    9.4797   12.3574   24.0569 C   0  0  0  0  0  0  0  0  0  0  0  0
   10.0959   13.6040   23.6855 C   0  0  0  0  0  0  0  0  0  0  0  0
   10.7956   14.2107   24.3871 O   0  0  0  0  0  0  0  0  0  0  0  0
    9.7112   13.8377   22.2282 N   0  0  0  0  0  0  0  0  0  0  0  0
   10.1741   14.8099   21.2902 C   0  0  0  0  0  0  0  0  0  0  0  0
   11.5716   14.3798   20.8413 C   0  0  2  0  0  0  0  0  0  0  0  0
   12.6626   15.0732   21.6310 C   0  0  0  0  0  0  0  0  0  0  0  0
   11.7066   14.5762   19.0748 Cl  0  0  0  0  0  0  0  0  0  0  0  0
    8.4183   12.0790   24.9450 C   0  0  0  0  0  0  0  0  0  0  0  0
    7.6053   12.8754   25.7718 C   0  0  0  0  0  0  0  0  0  0  0  0
    6.6095   12.2684   26.5392 C   0  0  0  0  0  0  0  0  0  0  0  0
    6.4059   10.8947   26.4737 C   0  0  0  0  0  0  0  0  0  0  0  0
    7.1835   10.0905   25.6399 C   0  0  0  0  0  0  0  0  0  0  0  0
    8.2003   10.6971   24.8963 C   0  0  0  0  0  0  0  0  0  0  0  0
  1  2  1  0
  2  3  1  0
  3  4  1  0
  4  5  2  0
  5  6  1  0
  6  7  2  0
  6  8  1  0
  8  9  1  0
  9 10  1  0
 10 11  1  1
 10 12  1  0
  5 13  1  0
 13 14  2  0
 14 15  1  0
 15 16  2  0
 16 17  1  0
 17 18  2  0
 18  3  1  0
 18 13  1  0
M  END
>  <alias>  (1093) 
None

>  <rmsd(smina/fragmenstein)>  (1093) 
0.421

>  <smiles>  (1093) 
CCn1cc(C(=O)NC[C@H](C)Cl)c2ccccc21

>  <gnina_score>  (1093) 
5.221

>  <inspiration_score>  (1093) 
None

>  <energy_score>  (1093) 
-1.370748

>  <distance_score>  (1093) 
1.024784

>  <gnina_score_min>  (1093) 
5.246

>  <inchikey>  (1093) 
FIWMVLAPEZEUCW-JTQLQIEISA-N

>  <exports>  (1093) 
['/opt/xchem-fragalysis-2/maxwin/BulkDock/OUTPUTS/openbind_a71ev2a_c2_elabs_1LOUU54.sdf', '/opt/xchem-fragalysis-2/maxwin/BulkDock/OUTPUTS/openbind_a71ev2a_c2_elabs_1LSYIDY.sdf']

>  <name>  (1093) 
P576888

>  <ref_pdb>  (1093) 
A3066a

>  <subsites>  (1093) 
None

>  <HIPPO Pose ID>  (1093) 
576888

>  <ref_mols>  (1093) 
A3066a

>  <HIPPO Compound ID>  (1093) 
349984

>  <tags>  (1093) 
openbind_a71ev2a_c2_elabs,syndirella_product,openbind_a71ev2a_c2_elabs_fragonly_scored_top80percent,openbind_a71ev2a_c2_elabs_scored,BulkDock Fragalysis export,openbind_a71ev2a_c2_elabs_scored_top80percent,openbind_a71ev2a_c2_elabs_activefrags_only_scored_5.2plus,syndirella_placed

>  <smina_score_min>  (1093) 
-6.059

$$$$
P576889
     RDKit          3D

 18 19  0  0  0  0  0  0  0  0999 V2000
   11.6316   14.5196   19.3213 C   0  0  0  0  0  0  0  0  0  0  0  0
   11.1072   14.8995   20.4908 C   0  0  0  0  0  0  0  0  0  0  0  0
    9.4642   15.7877   20.5733 Br  0  0  0  0  0  0  0  0  0  0  0  0
   11.7946   14.6576   21.7970 C   0  0  0  0  0  0  0  0  0  0  0  0
   11.0619   13.6167   22.4341 N   0  0  0  0  0  0  0  0  0  0  0  0
   10.6051   13.4682   23.8824 C   0  0  0  0  0  0  0  0  0  0  0  0
   10.8167   14.1331   24.8113 O   0  0  0  0  0  0  0  0  0  0  0  0
    9.7786   12.2752   24.0042 C   0  0  0  0  0  0  0  0  0  0  0  0
   10.0026   11.0830   23.3510 C   0  0  0  0  0  0  0  0  0  0  0  0
    9.2305   10.1305   23.9476 N   0  0  0  0  0  0  0  0  0  0  0  0
    9.5589    8.7275   23.8800 C   0  0  0  0  0  0  0  0  0  0  0  0
    9.2311    8.1186   22.5650 C   0  0  0  0  0  0  0  0  0  0  0  0
    8.3064   10.7169   24.7762 C   0  0  0  0  0  0  0  0  0  0  0  0
    7.2499   10.1748   25.5183 C   0  0  0  0  0  0  0  0  0  0  0  0
    6.5188   11.0312   26.3422 C   0  0  0  0  0  0  0  0  0  0  0  0
    6.8184   12.3871   26.4110 C   0  0  0  0  0  0  0  0  0  0  0  0
    7.8731   12.9199   25.6654 C   0  0  0  0  0  0  0  0  0  0  0  0
    8.6373   12.0739   24.8373 C   0  0  0  0  0  0  0  0  0  0  0  0
  1  2  2  0
  2  3  1  0
  2  4  1  0
  4  5  1  0
  5  6  1  0
  6  7  2  0
  6  8  1  0
  8  9  2  0
  9 10  1  0
 10 11  1  0
 11 12  1  0
 10 13  1  0
 13 14  2  0
 14 15  1  0
 15 16  2  0
 16 17  1  0
 17 18  2  0
 18  8  1  0
 18 13  1  0
M  END
>  <alias>  (1094) 
None

>  <rmsd(smina/fragmenstein)>  (1094) 
0.788

>  <smiles>  (1094) 
C=C(Br)CNC(=O)c1cn(CC)c2ccccc12

>  <gnina_score>  (1094) 
5.395

>  <inspiration_score>  (1094) 
None

>  <energy_score>  (1094) 
-0.45914

>  <distance_score>  (1094) 
0.523865

>  <gnina_score_min>  (1094) 
5.308

>  <inchikey>  (1094) 
FZAJSJAVVIGRGX-UHFFFAOYSA-N

>  <exports>  (1094) 
['/opt/xchem-fragalysis-2/maxwin/BulkDock/OUTPUTS/openbind_a71ev2a_c2_elabs_1LOUU54.sdf', '/opt/xchem-fragalysis-2/maxwin/BulkDock/OUTPUTS/openbind_a71ev2a_c2_elabs_1LSYIDY.sdf']

>  <name>  (1094) 
P576889

>  <ref_pdb>  (1094) 
A3066a

>  <subsites>  (1094) 
None

>  <HIPPO Pose ID>  (1094) 
576889

>  <ref_mols>  (1094) 
A3066a

>  <HIPPO Compound ID>  (1094) 
349988

>  <tags>  (1094) 
openbind_a71ev2a_c2_elabs,syndirella_product,openbind_a71ev2a_c2_elabs_fragonly_scored_top80percent,openbind_a71ev2a_c2_elabs_scored,BulkDock Fragalysis export,openbind_a71ev2a_c2_elabs_scored_top80percent,openbind_a71ev2a_c2_elabs_activefrags_only_scored_5.2plus,syndirella_placed

>  <smina_score_min>  (1094) 
-6.449

$$$$
P576890
     RDKit          3D

 18 19  0  0  0  0  0  0  0  0999 V2000
   10.3691    8.1378   23.4045 C   0  0  0  0  0  0  0  0  0  0  0  0
    8.9620    8.6234   23.6644 C   0  0  0  0  0  0  0  0  0  0  0  0
    8.8666   10.0449   23.9133 N   0  0  0  0  0  0  0  0  0  0  0  0
    9.6921   10.9667   23.3423 C   0  0  0  0  0  0  0  0  0  0  0  0
    9.5791   12.1427   24.0574 C   0  0  0  0  0  0  0  0  0  0  0  0
   10.5402   13.2406   24.0375 C   0  0  0  0  0  0  0  0  0  0  0  0
   10.6598   13.9274   24.9672 O   0  0  0  0  0  0  0  0  0  0  0  0
   11.3226   13.2035   22.7260 N   0  0  0  0  0  0  0  0  0  0  0  0
   12.4663   13.9292   22.3165 C   0  0  0  0  0  0  0  0  0  0  0  0
   12.1436   15.0249   21.3522 C   0  0  0  0  0  0  0  0  0  0  0  0
   11.9401   14.5131   19.9952 C   0  0  0  0  0  0  0  0  0  0  0  0
   11.8399   14.1717   18.8923 N   0  0  0  0  0  0  0  0  0  0  0  0
    8.4520   11.9882   24.9149 C   0  0  0  0  0  0  0  0  0  0  0  0
    7.7845   12.8482   25.8098 C   0  0  0  0  0  0  0  0  0  0  0  0
    6.7479   12.3516   26.6014 C   0  0  0  0  0  0  0  0  0  0  0  0
    6.3766   11.0156   26.5168 C   0  0  0  0  0  0  0  0  0  0  0  0
    7.0078   10.1484   25.6244 C   0  0  0  0  0  0  0  0  0  0  0  0
    8.0447   10.6543   24.8313 C   0  0  0  0  0  0  0  0  0  0  0  0
  1  2  1  0
  2  3  1  0
  3  4  1  0
  4  5  2  0
  5  6  1  0
  6  7  2  0
  6  8  1  0
  8  9  1  0
  9 10  1  0
 10 11  1  0
 11 12  3  0
  5 13  1  0
 13 14  2  0
 14 15  1  0
 15 16  2  0
 16 17  1  0
 17 18  2  0
 18  3  1  0
 18 13  1  0
M  END
>  <alias>  (1095) 
None

>  <rmsd(smina/fragmenstein)>  (1095) 
0.259

>  <smiles>  (1095) 
CCn1cc(C(=O)NCCC#N)c2ccccc21

>  <gnina_score>  (1095) 
5.48

>  <inspiration_score>  (1095) 
None

>  <energy_score>  (1095) 
-0.682629

>  <distance_score>  (1095) 
0.64146

>  <gnina_score_min>  (1095) 
5.486

>  <inchikey>  (1095) 
PCVOGLYABCQHOZ-UHFFFAOYSA-N

>  <exports>  (1095) 
['/opt/xchem-fragalysis-2/maxwin/BulkDock/OUTPUTS/openbind_a71ev2a_c2_elabs_1LOUU54.sdf', '/opt/xchem-fragalysis-2/maxwin/BulkDock/OUTPUTS/openbind_a71ev2a_c2_elabs_1LSYIDY.sdf']

>  <name>  (1095) 
P576890

>  <ref_pdb>  (1095) 
A3066a

>  <subsites>  (1095) 
None

>  <HIPPO Pose ID>  (1095) 
576890

>  <ref_mols>  (1095) 
A3066a

>  <HIPPO Compound ID>  (1095) 
349989

>  <tags>  (1095) 
openbind_a71ev2a_c2_elabs,syndirella_product,openbind_a71ev2a_c2_elabs_fragonly_scored_top80percent,openbind_a71ev2a_c2_elabs_scored,BulkDock Fragalysis export,openbind_a71ev2a_c2_elabs_scored_top80percent,openbind_a71ev2a_c2_elabs_activefrags_only_scored_5.2plus,syndirella_placed

>  <smina_score_min>  (1095) 
-5.539

$$$$
P576891
     RDKit          3D

 18 19  0  0  0  0  0  0  0  0999 V2000
   11.7724   14.3173   18.9856 C   0  0  0  0  0  0  0  0  0  0  0  0
   12.2342   14.3795   20.0876 C   0  0  0  0  0  0  0  0  0  0  0  0
   12.7546   14.5446   21.4393 C   0  0  0  0  0  0  0  0  0  0  0  0
   11.6530   15.0358   22.3470 C   0  0  0  0  0  0  0  0  0  0  0  0
   10.8724   13.9356   22.8249 N   0  0  0  0  0  0  0  0  0  0  0  0
   10.3811   13.6050   24.2303 C   0  0  0  0  0  0  0  0  0  0  0  0
   10.5927   14.1295   25.2459 O   0  0  0  0  0  0  0  0  0  0  0  0
    9.6052   12.3776   24.1873 C   0  0  0  0  0  0  0  0  0  0  0  0
    9.9282   11.2521   23.4537 C   0  0  0  0  0  0  0  0  0  0  0  0
    9.2017   10.2127   23.9662 N   0  0  0  0  0  0  0  0  0  0  0  0
    9.6250    8.8338   23.8676 C   0  0  0  0  0  0  0  0  0  0  0  0
    9.2715    8.1944   22.5746 C   0  0  0  0  0  0  0  0  0  0  0  0
    8.2242   10.6902   24.8090 C   0  0  0  0  0  0  0  0  0  0  0  0
    7.2003   10.0370   25.5029 C   0  0  0  0  0  0  0  0  0  0  0  0
    6.4146   10.7841   26.3806 C   0  0  0  0  0  0  0  0  0  0  0  0
    6.6243   12.1478   26.5446 C   0  0  0  0  0  0  0  0  0  0  0  0
    7.6439   12.7948   25.8448 C   0  0  0  0  0  0  0  0  0  0  0  0
    8.4619   12.0555   24.9679 C   0  0  0  0  0  0  0  0  0  0  0  0
  1  2  3  0
  2  3  1  0
  3  4  1  0
  4  5  1  0
  5  6  1  0
  6  7  2  0
  6  8  1  0
  8  9  2  0
  9 10  1  0
 10 11  1  0
 11 12  1  0
 10 13  1  0
 13 14  2  0
 14 15  1  0
 15 16  2  0
 16 17  1  0
 17 18  2  0
 18  8  1  0
 18 13  1  0
M  END
>  <alias>  (1096) 
None

>  <rmsd(smina/fragmenstein)>  (1096) 
1.605

>  <smiles>  (1096) 
C#CCCNC(=O)c1cn(CC)c2ccccc12

>  <gnina_score>  (1096) 
4.947

>  <inspiration_score>  (1096) 
None

>  <energy_score>  (1096) 
-2.440587

>  <distance_score>  (1096) 
0.731324

>  <gnina_score_min>  (1096) 
5.228

>  <inchikey>  (1096) 
PHVUMXXTAVNGKC-UHFFFAOYSA-N

>  <exports>  (1096) 
['/opt/xchem-fragalysis-2/maxwin/BulkDock/OUTPUTS/openbind_a71ev2a_c2_elabs_1LOUU54.sdf', '/opt/xchem-fragalysis-2/maxwin/BulkDock/OUTPUTS/openbind_a71ev2a_c2_elabs_1LSYIDY.sdf']

>  <name>  (1096) 
P576891

>  <ref_pdb>  (1096) 
A3066a

>  <subsites>  (1096) 
None

>  <HIPPO Pose ID>  (1096) 
576891

>  <ref_mols>  (1096) 
A3066a

>  <HIPPO Compound ID>  (1096) 
349990

>  <tags>  (1096) 
openbind_a71ev2a_c2_elabs,syndirella_product,openbind_a71ev2a_c2_elabs_fragonly_scored_top80percent,openbind_a71ev2a_c2_elabs_scored,BulkDock Fragalysis export,openbind_a71ev2a_c2_elabs_scored_top80percent,openbind_a71ev2a_c2_elabs_activefrags_only_scored_5.2plus,syndirella_placed

>  <smina_score_min>  (1096) 
-6.655

$$$$
P576892
     RDKit          3D

 18 19  0  0  0  0  0  0  0  0999 V2000
    9.1897    8.0574   22.5527 C   0  0  0  0  0  0  0  0  0  0  0  0
    9.5203    8.6228   23.8877 C   0  0  0  0  0  0  0  0  0  0  0  0
    9.2365   10.0326   23.9656 N   0  0  0  0  0  0  0  0  0  0  0  0
   10.0077   10.9449   23.3172 C   0  0  0  0  0  0  0  0  0  0  0  0
    9.7613   12.1818   23.8609 C   0  0  0  0  0  0  0  0  0  0  0  0
   10.5112   13.3867   23.5525 C   0  0  0  0  0  0  0  0  0  0  0  0
   10.6273   14.2273   24.3486 O   0  0  0  0  0  0  0  0  0  0  0  0
   10.9551   13.3386   22.0852 N   0  0  0  0  0  0  0  0  0  0  0  0
   11.5496   14.3457   21.2596 C   0  0  2  0  0  0  0  0  0  0  0  0
   12.6887   14.9943   22.0105 C   0  0  0  0  0  0  0  0  0  0  0  0
   10.4962   15.3495   20.7538 C   0  0  0  0  0  0  0  0  0  0  0  0
    8.8073   14.8259   20.9930 Cl  0  0  0  0  0  0  0  0  0  0  0  0
    8.6540   12.0230   24.7490 C   0  0  0  0  0  0  0  0  0  0  0  0
    7.8924   12.9153   25.5302 C   0  0  0  0  0  0  0  0  0  0  0  0
    6.8479   12.4254   26.3188 C   0  0  0  0  0  0  0  0  0  0  0  0
    6.5489   11.0679   26.3311 C   0  0  0  0  0  0  0  0  0  0  0  0
    7.2746   10.1655   25.5525 C   0  0  0  0  0  0  0  0  0  0  0  0
    8.3285   10.6627   24.7765 C   0  0  0  0  0  0  0  0  0  0  0  0
  1  2  1  0
  2  3  1  0
  3  4  1  0
  4  5  2  0
  5  6  1  0
  6  7  2  0
  6  8  1  0
  8  9  1  0
  9 10  1  1
  9 11  1  0
 11 12  1  0
  5 13  1  0
 13 14  2  0
 14 15  1  0
 15 16  2  0
 16 17  1  0
 17 18  2  0
 18  3  1  0
 18 13  1  0
M  END
>  <alias>  (1097) 
None

>  <rmsd(smina/fragmenstein)>  (1097) 
0.652

>  <smiles>  (1097) 
CCn1cc(C(=O)N[C@H](C)CCl)c2ccccc21

>  <gnina_score>  (1097) 
5.5

>  <inspiration_score>  (1097) 
None

>  <energy_score>  (1097) 
-0.140974

>  <distance_score>  (1097) 
0.576898

>  <gnina_score_min>  (1097) 
5.505

>  <inchikey>  (1097) 
XTIBKGOOCSAVLK-SNVBAGLBSA-N

>  <exports>  (1097) 
['/opt/xchem-fragalysis-2/maxwin/BulkDock/OUTPUTS/openbind_a71ev2a_c2_elabs_1LOUU54.sdf', '/opt/xchem-fragalysis-2/maxwin/BulkDock/OUTPUTS/openbind_a71ev2a_c2_elabs_1LSYIDY.sdf']

>  <name>  (1097) 
P576892

>  <ref_pdb>  (1097) 
A3066a

>  <subsites>  (1097) 
None

>  <HIPPO Pose ID>  (1097) 
576892

>  <ref_mols>  (1097) 
A3066a

>  <HIPPO Compound ID>  (1097) 
349994

>  <tags>  (1097) 
openbind_a71ev2a_c2_elabs,syndirella_product,openbind_a71ev2a_c2_elabs_fragonly_scored_top80percent,BulkDock Fragalysis export,openbind_a71ev2a_c2_elabs_scored,openbind_a71ev2a_c2_elabs_scored_top80percent,openbind_a71ev2a_c2_elabs_activefrags_only_scored_5.2plus,openbind_a71ev2a_c2_elabs_activefrags_only_scored_5.5plus,syndirella_placed

>  <smina_score_min>  (1097) 
-6.779

$$$$
P576896
     RDKit          3D

 18 20  0  0  0  0  0  0  0  0999 V2000
    9.2611    8.1277   22.5562 C   0  0  0  0  0  0  0  0  0  0  0  0
    9.6352    8.7810   23.8364 C   0  0  0  0  0  0  0  0  0  0  0  0
    9.2300   10.1651   23.8946 N   0  0  0  0  0  0  0  0  0  0  0  0
    9.9044   11.1637   23.2549 C   0  0  0  0  0  0  0  0  0  0  0  0
    9.5641   12.3491   23.8655 C   0  0  0  0  0  0  0  0  0  0  0  0
   10.2452   13.6105   23.6718 C   0  0  0  0  0  0  0  0  0  0  0  0
   10.4835   14.2868   24.6044 O   0  0  0  0  0  0  0  0  0  0  0  0
   10.5717   13.8071   22.2225 N   0  0  0  0  0  0  0  0  0  0  0  0
    9.4393   14.5819   21.4819 C   0  0  0  0  0  0  0  0  0  0  0  0
   10.4172   14.8856   20.3864 C   0  0  0  0  0  0  0  0  0  0  0  0
   11.3849   14.8709   21.5343 C   0  0  2  0  0  0  0  0  0  0  0  0
   12.7773   14.3421   21.3235 C   0  0  0  0  0  0  0  0  0  0  0  0
    8.4985   12.0704   24.7682 C   0  0  0  0  0  0  0  0  0  0  0  0
    7.7078   12.8657   25.6218 C   0  0  0  0  0  0  0  0  0  0  0  0
    6.7212   12.2646   26.4071 C   0  0  0  0  0  0  0  0  0  0  0  0
    6.5137   10.8916   26.3489 C   0  0  0  0  0  0  0  0  0  0  0  0
    7.2831   10.0853   25.5094 C   0  0  0  0  0  0  0  0  0  0  0  0
    8.2798   10.6931   24.7371 C   0  0  0  0  0  0  0  0  0  0  0  0
  1  2  1  0
  2  3  1  0
  3  4  1  0
  4  5  2  0
  5  6  1  0
  6  7  2  0
  6  8  1  0
  8  9  1  0
  9 10  1  0
 10 11  1  0
 11 12  1  6
  5 13  1  0
 13 14  2  0
 14 15  1  0
 15 16  2  0
 16 17  1  0
 17 18  2  0
 18  3  1  0
 11  8  1  0
 18 13  1  0
M  END
>  <alias>  (1098) 
None

>  <rmsd(smina/fragmenstein)>  (1098) 
0.368

>  <smiles>  (1098) 
CCn1cc(C(=O)N2CC[C@@H]2C)c2ccccc21

>  <gnina_score>  (1098) 
5.243

>  <inspiration_score>  (1098) 
None

>  <energy_score>  (1098) 
-1.300921

>  <distance_score>  (1098) 
0.675075

>  <gnina_score_min>  (1098) 
5.289

>  <inchikey>  (1098) 
ZZHXXFJVNNVFIG-NSHDSACASA-N

>  <exports>  (1098) 
['/opt/xchem-fragalysis-2/maxwin/BulkDock/OUTPUTS/openbind_a71ev2a_c2_elabs_1LOUU54.sdf', '/opt/xchem-fragalysis-2/maxwin/BulkDock/OUTPUTS/openbind_a71ev2a_c2_elabs_1LSYIDY.sdf']

>  <name>  (1098) 
P576896

>  <ref_pdb>  (1098) 
A3066a

>  <subsites>  (1098) 
None

>  <HIPPO Pose ID>  (1098) 
576896

>  <ref_mols>  (1098) 
A3066a

>  <HIPPO Compound ID>  (1098) 
349997

>  <tags>  (1098) 
openbind_a71ev2a_c2_elabs,syndirella_product,openbind_a71ev2a_c2_elabs_fragonly_scored_top80percent,openbind_a71ev2a_c2_elabs_scored,BulkDock Fragalysis export,openbind_a71ev2a_c2_elabs_scored_top80percent,openbind_a71ev2a_c2_elabs_activefrags_only_scored_5.2plus,syndirella_placed

>  <smina_score_min>  (1098) 
-6.701

$$$$
P576897
     RDKit          3D

 18 19  0  0  0  0  0  0  0  0999 V2000
   10.0783    7.9514   23.7290 C   0  0  0  0  0  0  0  0  0  0  0  0
    9.2223    8.8839   22.9392 C   0  0  0  0  0  0  0  0  0  0  0  0
    9.1653   10.1941   23.5594 N   0  0  0  0  0  0  0  0  0  0  0  0
   10.0130   11.1962   23.1978 C   0  0  0  0  0  0  0  0  0  0  0  0
    9.7720   12.2992   23.9911 C   0  0  0  0  0  0  0  0  0  0  0  0
   10.6004   13.5015   24.0183 C   0  0  0  0  0  0  0  0  0  0  0  0
   10.7697   14.0863   25.0092 O   0  0  0  0  0  0  0  0  0  0  0  0
   11.2024   13.7097   22.6297 N   0  0  0  0  0  0  0  0  0  0  0  0
   12.2104   14.6180   22.1805 C   0  0  0  0  0  0  0  0  0  0  0  0
   12.5749   14.3602   20.7325 C   0  0  1  0  0  0  0  0  0  0  0  0
   12.9324   13.0646   20.5788 F   0  0  0  0  0  0  0  0  0  0  0  0
   11.2159   14.7116   19.6379 Cl  0  0  0  0  0  0  0  0  0  0  0  0
    8.6429   11.9745   24.7977 C   0  0  0  0  0  0  0  0  0  0  0  0
    7.8779   12.6949   25.7380 C   0  0  0  0  0  0  0  0  0  0  0  0
    6.8554   12.0513   26.4391 C   0  0  0  0  0  0  0  0  0  0  0  0
    6.5981   10.7027   26.2257 C   0  0  0  0  0  0  0  0  0  0  0  0
    7.3272    9.9747   25.2837 C   0  0  0  0  0  0  0  0  0  0  0  0
    8.3286   10.6310   24.5593 C   0  0  0  0  0  0  0  0  0  0  0  0
  1  2  1  0
  2  3  1  0
  3  4  1  0
  4  5  2  0
  5  6  1  0
  6  7  2  0
  6  8  1  0
  8  9  1  0
  9 10  1  0
 10 11  1  1
 10 12  1  0
  5 13  1  0
 13 14  2  0
 14 15  1  0
 15 16  2  0
 16 17  1  0
 17 18  2  0
 18  3  1  0
 18 13  1  0
M  END
>  <alias>  (1099) 
None

>  <rmsd(smina/fragmenstein)>  (1099) 
1.108

>  <smiles>  (1099) 
CCn1cc(C(=O)NC[C@@H](F)Cl)c2ccccc21

>  <gnina_score>  (1099) 
5.055

>  <inspiration_score>  (1099) 
None

>  <energy_score>  (1099) 
-4.329896

>  <distance_score>  (1099) 
0.420756

>  <gnina_score_min>  (1099) 
5.394

>  <inchikey>  (1099) 
ISDXPEZHRHHSCO-GFCCVEGCSA-N

>  <exports>  (1099) 
['/opt/xchem-fragalysis-2/maxwin/BulkDock/OUTPUTS/openbind_a71ev2a_c2_elabs_1LOUU54.sdf', '/opt/xchem-fragalysis-2/maxwin/BulkDock/OUTPUTS/openbind_a71ev2a_c2_elabs_1LSYIDY.sdf']

>  <name>  (1099) 
P576897

>  <ref_pdb>  (1099) 
A3066a

>  <subsites>  (1099) 
None

>  <HIPPO Pose ID>  (1099) 
576897

>  <ref_mols>  (1099) 
A3066a

>  <HIPPO Compound ID>  (1099) 
350001

>  <tags>  (1099) 
openbind_a71ev2a_c2_elabs,syndirella_product,openbind_a71ev2a_c2_elabs_fragonly_scored_top80percent,openbind_a71ev2a_c2_elabs_scored,BulkDock Fragalysis export,openbind_a71ev2a_c2_elabs_scored_top80percent,openbind_a71ev2a_c2_elabs_activefrags_only_scored_5.2plus,syndirella_placed

>  <smina_score_min>  (1099) 
-6.704

$$$$
P576899
     RDKit          3D

 18 19  0  0  0  0  0  0  0  0999 V2000
   12.7296   14.1380   22.7186 C   0  0  0  0  0  0  0  0  0  0  0  0
   12.1168   15.0391   21.6604 C   0  0  0  0  0  0  0  0  0  0  0  0
   10.8534   14.4989   20.9885 C   0  0  2  0  0  0  0  0  0  0  0  0
    9.8168   15.5538   20.6230 C   0  0  0  0  0  0  0  0  0  0  0  0
   10.2605   13.4644   21.7842 N   0  0  0  0  0  0  0  0  0  0  0  0
    9.6115   13.5232   23.1665 C   0  0  0  0  0  0  0  0  0  0  0  0
    9.3830   14.4305   23.8518 O   0  0  0  0  0  0  0  0  0  0  0  0
    9.2182   12.2006   23.6340 C   0  0  0  0  0  0  0  0  0  0  0  0
    9.6504   10.9736   23.1793 C   0  0  0  0  0  0  0  0  0  0  0  0
    8.9695   10.0003   23.8550 N   0  0  0  0  0  0  0  0  0  0  0  0
    9.1319    8.5816   23.6265 C   0  0  0  0  0  0  0  0  0  0  0  0
   10.5604    8.1616   23.4095 C   0  0  0  0  0  0  0  0  0  0  0  0
    8.1059   10.5663   24.7642 C   0  0  0  0  0  0  0  0  0  0  0  0
    7.1677    9.9979   25.6339 C   0  0  0  0  0  0  0  0  0  0  0  0
    6.4466   10.8337   26.4866 C   0  0  0  0  0  0  0  0  0  0  0  0
    6.6291   12.2076   26.4523 C   0  0  0  0  0  0  0  0  0  0  0  0
    7.5309   12.7729   25.5499 C   0  0  0  0  0  0  0  0  0  0  0  0
    8.2843   11.9449   24.6882 C   0  0  0  0  0  0  0  0  0  0  0  0
  1  2  1  0
  2  3  1  0
  3  4  1  1
  3  5  1  0
  5  6  1  0
  6  7  2  0
  6  8  1  0
  8  9  2  0
  9 10  1  0
 10 11  1  0
 11 12  1  0
 10 13  1  0
 13 14  2  0
 14 15  1  0
 15 16  2  0
 16 17  1  0
 17 18  2  0
 18  8  1  0
 18 13  1  0
M  END
>  <alias>  (1100) 
None

>  <rmsd(smina/fragmenstein)>  (1100) 
0.216

>  <smiles>  (1100) 
CC[C@H](C)NC(=O)c1cn(CC)c2ccccc12

>  <gnina_score>  (1100) 
5.489

>  <inspiration_score>  (1100) 
None

>  <energy_score>  (1100) 
-4.988586

>  <distance_score>  (1100) 
1.028417

>  <gnina_score_min>  (1100) 
5.448

>  <inchikey>  (1100) 
GHXZUWCKHVCSEA-NSHDSACASA-N

>  <exports>  (1100) 
['/opt/xchem-fragalysis-2/maxwin/BulkDock/OUTPUTS/openbind_a71ev2a_c2_elabs_1LOUU54.sdf', '/opt/xchem-fragalysis-2/maxwin/BulkDock/OUTPUTS/openbind_a71ev2a_c2_elabs_1LSYIDY.sdf']

>  <name>  (1100) 
P576899

>  <ref_pdb>  (1100) 
A3066a

>  <subsites>  (1100) 
None

>  <HIPPO Pose ID>  (1100) 
576899

>  <ref_mols>  (1100) 
A3066a

>  <HIPPO Compound ID>  (1100) 
350008

>  <tags>  (1100) 
openbind_a71ev2a_c2_elabs,syndirella_product,openbind_a71ev2a_c2_elabs_fragonly_scored_top80percent,openbind_a71ev2a_c2_elabs_scored,BulkDock Fragalysis export,openbind_a71ev2a_c2_elabs_scored_top80percent,openbind_a71ev2a_c2_elabs_activefrags_only_scored_5.2plus,syndirella_placed

>  <smina_score_min>  (1100) 
-6.067

$$$$
P576900
     RDKit          3D

 18 20  0  0  0  0  0  0  0  0999 V2000
   10.1200    7.7585   23.7339 C   0  0  0  0  0  0  0  0  0  0  0  0
    9.2340    8.6489   22.9382 C   0  0  0  0  0  0  0  0  0  0  0  0
    9.1789    9.9600   23.5463 N   0  0  0  0  0  0  0  0  0  0  0  0
    9.9603   10.9693   23.0842 C   0  0  0  0  0  0  0  0  0  0  0  0
    9.4541   12.1448   23.5775 C   0  0  0  0  0  0  0  0  0  0  0  0
    9.7585   13.4664   23.0855 C   0  0  0  0  0  0  0  0  0  0  0  0
    9.5756   14.3961   23.7665 O   0  0  0  0  0  0  0  0  0  0  0  0
   10.2123   13.3788   21.6051 N   0  0  0  0  0  0  0  0  0  0  0  0
   10.6034   14.3592   20.7372 N   0  0  0  0  0  0  0  0  0  0  0  0
   12.0695   14.5083   20.8683 C   0  0  0  0  0  0  0  0  0  0  0  0
   11.8000   15.5920   21.9179 C   0  0  0  0  0  0  0  0  0  0  0  0
   10.4054   15.7096   21.2459 C   0  0  0  0  0  0  0  0  0  0  0  0
    8.5087   11.8075   24.5862 C   0  0  0  0  0  0  0  0  0  0  0  0
    7.7079   12.5623   25.4697 C   0  0  0  0  0  0  0  0  0  0  0  0
    6.7847   11.9160   26.2928 C   0  0  0  0  0  0  0  0  0  0  0  0
    6.6349   10.5378   26.2244 C   0  0  0  0  0  0  0  0  0  0  0  0
    7.4027    9.7782   25.3388 C   0  0  0  0  0  0  0  0  0  0  0  0
    8.3409   10.4233   24.5315 C   0  0  0  0  0  0  0  0  0  0  0  0
  1  2  1  0
  2  3  1  0
  3  4  1  0
  4  5  2  0
  5  6  1  0
  6  7  2  0
  6  8  1  0
  8  9  1  0
  9 10  1  0
 10 11  1  0
 11 12  1  0
  5 13  1  0
 13 14  2  0
 14 15  1  0
 15 16  2  0
 16 17  1  0
 17 18  2  0
 18  3  1  0
 12  9  1  0
 18 13  1  0
M  END
>  <alias>  (1101) 
None

>  <rmsd(smina/fragmenstein)>  (1101) 
1.022

>  <smiles>  (1101) 
CCn1cc(C(=O)NN2CCC2)c2ccccc21

>  <gnina_score>  (1101) 
5.51

>  <inspiration_score>  (1101) 
None

>  <energy_score>  (1101) 
-3.889244

>  <distance_score>  (1101) 
0.977099

>  <gnina_score_min>  (1101) 
5.539

>  <inchikey>  (1101) 
GSMZTLQNLKWNPD-UHFFFAOYSA-N

>  <exports>  (1101) 
['/opt/xchem-fragalysis-2/maxwin/BulkDock/OUTPUTS/openbind_a71ev2a_c2_elabs_1LOUU54.sdf', '/opt/xchem-fragalysis-2/maxwin/BulkDock/OUTPUTS/openbind_a71ev2a_c2_elabs_1LSYIDY.sdf']

>  <name>  (1101) 
P576900

>  <ref_pdb>  (1101) 
A3066a

>  <subsites>  (1101) 
None

>  <HIPPO Pose ID>  (1101) 
576900

>  <ref_mols>  (1101) 
A3066a

>  <HIPPO Compound ID>  (1101) 
350010

>  <tags>  (1101) 
openbind_a71ev2a_c2_elabs,syndirella_product,openbind_a71ev2a_c2_elabs_fragonly_scored_top80percent,BulkDock Fragalysis export,openbind_a71ev2a_c2_elabs_scored,openbind_a71ev2a_c2_elabs_scored_top80percent,openbind_a71ev2a_c2_elabs_activefrags_only_scored_5.2plus,openbind_a71ev2a_c2_elabs_activefrags_only_scored_5.5plus,syndirella_placed

>  <smina_score_min>  (1101) 
-5.539

$$$$
P576901
     RDKit          3D

 18 19  0  0  0  0  0  0  0  0999 V2000
   10.5508    8.0985   23.4185 C   0  0  0  0  0  0  0  0  0  0  0  0
    9.1345    8.5865   23.5690 C   0  0  0  0  0  0  0  0  0  0  0  0
    9.0484   10.0161   23.7615 N   0  0  0  0  0  0  0  0  0  0  0  0
    9.8232   10.9310   23.1053 C   0  0  0  0  0  0  0  0  0  0  0  0
    9.6114   12.1622   23.6797 C   0  0  0  0  0  0  0  0  0  0  0  0
   10.3190   13.4015   23.3964 C   0  0  0  0  0  0  0  0  0  0  0  0
   10.4508   14.1644   24.2668 O   0  0  0  0  0  0  0  0  0  0  0  0
   10.6904   13.5135   21.9067 N   0  0  0  0  0  0  0  0  0  0  0  0
   11.2181   14.6288   21.1509 C   0  0  0  0  0  0  0  0  0  0  0  0
   10.0491   15.6067   20.9717 C   0  0  0  0  0  0  0  0  0  0  0  0
   12.3926   15.1547   21.9698 C   0  0  0  0  0  0  0  0  0  0  0  0
   11.7308   14.2535   19.7612 C   0  0  0  0  0  0  0  0  0  0  0  0
    8.5694   11.9939   24.6482 C   0  0  0  0  0  0  0  0  0  0  0  0
    7.8789   12.8788   25.5038 C   0  0  0  0  0  0  0  0  0  0  0  0
    6.8837   12.3914   26.3545 C   0  0  0  0  0  0  0  0  0  0  0  0
    6.5661   11.0398   26.3617 C   0  0  0  0  0  0  0  0  0  0  0  0
    7.2264   10.1457   25.5181 C   0  0  0  0  0  0  0  0  0  0  0  0
    8.2286   10.6425   24.6719 C   0  0  0  0  0  0  0  0  0  0  0  0
  1  2  1  0
  2  3  1  0
  3  4  1  0
  4  5  2  0
  5  6  1  0
  6  7  2  0
  6  8  1  0
  8  9  1  0
  9 10  1  0
  9 11  1  0
  9 12  1  0
  5 13  1  0
 13 14  2  0
 14 15  1  0
 15 16  2  0
 16 17  1  0
 17 18  2  0
 18  3  1  0
 18 13  1  0
M  END
>  <alias>  (1102) 
None

>  <rmsd(smina/fragmenstein)>  (1102) 
0.316

>  <smiles>  (1102) 
CCn1cc(C(=O)NC(C)(C)C)c2ccccc21

>  <gnina_score>  (1102) 
5.422

>  <inspiration_score>  (1102) 
None

>  <energy_score>  (1102) 
-12.075222

>  <distance_score>  (1102) 
0.656527

>  <gnina_score_min>  (1102) 
5.365

>  <inchikey>  (1102) 
XSDGIPQFZBWTBQ-UHFFFAOYSA-N

>  <exports>  (1102) 
['/opt/xchem-fragalysis-2/maxwin/BulkDock/OUTPUTS/openbind_a71ev2a_c2_elabs_1LOUU54.sdf', '/opt/xchem-fragalysis-2/maxwin/BulkDock/OUTPUTS/openbind_a71ev2a_c2_elabs_1LSYIDY.sdf']

>  <name>  (1102) 
P576901

>  <ref_pdb>  (1102) 
A3066a

>  <subsites>  (1102) 
None

>  <HIPPO Pose ID>  (1102) 
576901

>  <ref_mols>  (1102) 
A3066a

>  <HIPPO Compound ID>  (1102) 
350014

>  <tags>  (1102) 
openbind_a71ev2a_c2_elabs,syndirella_product,openbind_a71ev2a_c2_elabs_fragonly_scored_top80percent,openbind_a71ev2a_c2_elabs_scored,BulkDock Fragalysis export,openbind_a71ev2a_c2_elabs_scored_top80percent,openbind_a71ev2a_c2_elabs_activefrags_only_scored_5.2plus,syndirella_placed

>  <smina_score_min>  (1102) 
-6.376

$$$$
P576902
     RDKit          3D

 18 19  0  0  0  0  0  0  0  0999 V2000
    9.8881   15.6567   19.6443 C   0  0  0  0  0  0  0  0  0  0  0  0
   10.3653   15.4315   20.8725 C   0  0  0  0  0  0  0  0  0  0  0  0
   11.4888   14.4942   21.1932 C   0  0  1  0  0  0  0  0  0  0  0  0
   12.6315   15.0682   21.9941 C   0  0  0  0  0  0  0  0  0  0  0  0
   10.8732   13.4530   21.9354 N   0  0  0  0  0  0  0  0  0  0  0  0
   10.4358   13.4000   23.4071 C   0  0  0  0  0  0  0  0  0  0  0  0
   10.5796   14.1730   24.2654 O   0  0  0  0  0  0  0  0  0  0  0  0
    9.7379   12.1538   23.6560 C   0  0  0  0  0  0  0  0  0  0  0  0
   10.0107   10.9721   23.0153 C   0  0  0  0  0  0  0  0  0  0  0  0
    9.1737   10.0128   23.4812 N   0  0  0  0  0  0  0  0  0  0  0  0
    9.2039    8.6783   22.9243 C   0  0  0  0  0  0  0  0  0  0  0  0
   10.0928    7.8039   23.7376 C   0  0  0  0  0  0  0  0  0  0  0  0
    8.3705   10.5256   24.4709 C   0  0  0  0  0  0  0  0  0  0  0  0
    7.3908    9.9336   25.2757 C   0  0  0  0  0  0  0  0  0  0  0  0
    6.6898   10.7382   26.1766 C   0  0  0  0  0  0  0  0  0  0  0  0
    6.9566   12.0986   26.2739 C   0  0  0  0  0  0  0  0  0  0  0  0
    7.9505   12.6823   25.4834 C   0  0  0  0  0  0  0  0  0  0  0  0
    8.6818   11.8864   24.5769 C   0  0  0  0  0  0  0  0  0  0  0  0
  1  2  2  0
  2  3  1  0
  3  4  1  1
  3  5  1  0
  5  6  1  0
  6  7  2  0
  6  8  1  0
  8  9  2  0
  9 10  1  0
 10 11  1  0
 11 12  1  0
 10 13  1  0
 13 14  2  0
 14 15  1  0
 15 16  2  0
 16 17  1  0
 17 18  2  0
 18  8  1  0
 18 13  1  0
M  END
>  <alias>  (1103) 
None

>  <rmsd(smina/fragmenstein)>  (1103) 
0.435

>  <smiles>  (1103) 
C=C[C@@H](C)NC(=O)c1cn(CC)c2ccccc12

>  <gnina_score>  (1103) 
5.53

>  <inspiration_score>  (1103) 
None

>  <energy_score>  (1103) 
-7.583158

>  <distance_score>  (1103) 
0.498279

>  <gnina_score_min>  (1103) 
5.501

>  <inchikey>  (1103) 
CZBMUHGENRIQOP-LLVKDONJSA-N

>  <exports>  (1103) 
['/opt/xchem-fragalysis-2/maxwin/BulkDock/OUTPUTS/openbind_a71ev2a_c2_elabs_1LOUU54.sdf', '/opt/xchem-fragalysis-2/maxwin/BulkDock/OUTPUTS/openbind_a71ev2a_c2_elabs_1LSYIDY.sdf']

>  <name>  (1103) 
P576902

>  <ref_pdb>  (1103) 
A3066a

>  <subsites>  (1103) 
None

>  <HIPPO Pose ID>  (1103) 
576902

>  <ref_mols>  (1103) 
A3066a

>  <HIPPO Compound ID>  (1103) 
350018

>  <tags>  (1103) 
openbind_a71ev2a_c2_elabs,syndirella_product,openbind_a71ev2a_c2_elabs_fragonly_scored_top80percent,BulkDock Fragalysis export,openbind_a71ev2a_c2_elabs_scored,openbind_a71ev2a_c2_elabs_scored_top80percent,openbind_a71ev2a_c2_elabs_activefrags_only_scored_5.2plus,openbind_a71ev2a_c2_elabs_activefrags_only_scored_5.5plus,syndirella_placed

>  <smina_score_min>  (1103) 
-6.974

$$$$
P576910
     RDKit          3D

 18 20  0  0  0  0  0  0  0  0999 V2000
   10.3814   10.4480   22.6116 C   0  0  0  0  0  0  0  0  0  0  0  0
    9.4577   10.9418   23.6289 C   0  0  0  0  0  0  0  0  0  0  0  0
    9.3148   12.1661   24.2470 C   0  0  0  0  0  0  0  0  0  0  0  0
   10.1150   13.3651   24.0285 C   0  0  0  0  0  0  0  0  0  0  0  0
   10.4160   14.0515   24.9352 O   0  0  0  0  0  0  0  0  0  0  0  0
   10.3369   13.5487   22.5572 N   0  0  0  0  0  0  0  0  0  0  0  0
    9.1581   14.3071   21.8963 C   0  0  0  0  0  0  0  0  0  0  0  0
   10.0399   14.6509   20.7478 C   0  0  0  0  0  0  0  0  0  0  0  0
    9.6336   16.2716   20.0699 S   0  0  0  0  0  0  0  0  0  0  0  0
   11.1021   14.6189   21.7952 C   0  0  0  0  0  0  0  0  0  0  0  0
    8.2362   12.0288   25.1670 C   0  0  0  0  0  0  0  0  0  0  0  0
    7.5864   12.9288   26.0335 C   0  0  0  0  0  0  0  0  0  0  0  0
    6.5651   12.4670   26.8631 C   0  0  0  0  0  0  0  0  0  0  0  0
    6.1793   11.1328   26.8296 C   0  0  0  0  0  0  0  0  0  0  0  0
    6.7830   10.2290   25.9552 C   0  0  0  0  0  0  0  0  0  0  0  0
    7.8189   10.6964   25.1399 C   0  0  0  0  0  0  0  0  0  0  0  0
    8.6228   10.0539   24.2365 N   0  0  0  0  0  0  0  0  0  0  0  0
    8.6844    8.6361   23.9828 C   0  0  0  0  0  0  0  0  0  0  0  0
  1  2  1  0
  2  3  2  0
  3  4  1  0
  4  5  2  0
  4  6  1  0
  6  7  1  0
  7  8  1  0
  8  9  1  0
  8 10  1  0
  3 11  1  0
 11 12  2  0
 12 13  1  0
 13 14  2  0
 14 15  1  0
 15 16  2  0
 16 17  1  0
 17 18  1  0
 17  2  1  0
 10  6  1  0
 16 11  1  0
M  END
>  <alias>  (1104) 
None

>  <rmsd(smina/fragmenstein)>  (1104) 
0.2

>  <smiles>  (1104) 
Cc1c(C(=O)N2CC(S)C2)c2ccccc2n1C

>  <gnina_score>  (1104) 
5.289

>  <inspiration_score>  (1104) 
None

>  <energy_score>  (1104) 
-14.651797

>  <distance_score>  (1104) 
1.036249

>  <gnina_score_min>  (1104) 
5.297

>  <inchikey>  (1104) 
SJQITUGJEXIXGO-UHFFFAOYSA-N

>  <exports>  (1104) 
['/opt/xchem-fragalysis-2/maxwin/BulkDock/OUTPUTS/openbind_a71ev2a_c2_elabs_1LOUU54.sdf', '/opt/xchem-fragalysis-2/maxwin/BulkDock/OUTPUTS/openbind_a71ev2a_c2_elabs_1LSYIDY.sdf']

>  <name>  (1104) 
P576910

>  <ref_pdb>  (1104) 
A3066a

>  <subsites>  (1104) 
None

>  <HIPPO Pose ID>  (1104) 
576910

>  <ref_mols>  (1104) 
A3066a

>  <HIPPO Compound ID>  (1104) 
350028

>  <tags>  (1104) 
openbind_a71ev2a_c2_elabs,syndirella_product,openbind_a71ev2a_c2_elabs_fragonly_scored_top80percent,openbind_a71ev2a_c2_elabs_scored,BulkDock Fragalysis export,openbind_a71ev2a_c2_elabs_scored_top80percent,openbind_a71ev2a_c2_elabs_activefrags_only_scored_5.2plus,syndirella_placed

>  <smina_score_min>  (1104) 
-5.985

$$$$
P576913
     RDKit          3D

 18 19  0  0  0  0  0  0  0  0999 V2000
    9.7477   15.8033   20.7555 C   0  0  0  0  0  0  0  0  0  0  0  0
   10.7778   14.7580   20.3677 C   0  0  0  0  0  0  0  0  0  0  0  0
   11.5116   14.1305   21.4502 N   0  0  0  0  0  0  0  0  0  0  0  0
   12.4876   14.9115   22.1605 C   0  0  0  0  0  0  0  0  0  0  0  0
   10.7490   13.2727   22.1937 N   0  0  0  0  0  0  0  0  0  0  0  0
   10.3909   13.2928   23.6987 C   0  0  0  0  0  0  0  0  0  0  0  0
   10.7539   14.0020   24.5548 O   0  0  0  0  0  0  0  0  0  0  0  0
    9.4860   12.1674   24.0103 C   0  0  0  0  0  0  0  0  0  0  0  0
    9.5212   10.8635   23.5295 C   0  0  0  0  0  0  0  0  0  0  0  0
   10.3527   10.1236   22.5698 C   0  0  0  0  0  0  0  0  0  0  0  0
    8.6232   10.1227   24.2407 N   0  0  0  0  0  0  0  0  0  0  0  0
    8.5352    8.6897   24.1137 C   0  0  0  0  0  0  0  0  0  0  0  0
    7.8960   10.9103   25.0856 C   0  0  0  0  0  0  0  0  0  0  0  0
    6.8496   10.5949   25.9620 C   0  0  0  0  0  0  0  0  0  0  0  0
    6.3163   11.6244   26.7343 C   0  0  0  0  0  0  0  0  0  0  0  0
    6.7986   12.9230   26.6245 C   0  0  0  0  0  0  0  0  0  0  0  0
    7.8417   13.2250   25.7452 C   0  0  0  0  0  0  0  0  0  0  0  0
    8.4114   12.2022   24.9613 C   0  0  0  0  0  0  0  0  0  0  0  0
  1  2  1  0
  2  3  1  0
  3  4  1  0
  3  5  1  0
  5  6  1  0
  6  7  2  0
  6  8  1  0
  8  9  2  0
  9 10  1  0
  9 11  1  0
 11 12  1  0
 11 13  1  0
 13 14  2  0
 14 15  1  0
 15 16  2  0
 16 17  1  0
 17 18  2  0
 18  8  1  0
 18 13  1  0
M  END
>  <alias>  (1105) 
None

>  <rmsd(smina/fragmenstein)>  (1105) 
1.184

>  <smiles>  (1105) 
CCN(C)NC(=O)c1c(C)n(C)c2ccccc12

>  <gnina_score>  (1105) 
5.615

>  <inspiration_score>  (1105) 
None

>  <energy_score>  (1105) 
-8.691146

>  <distance_score>  (1105) 
0.945129

>  <gnina_score_min>  (1105) 
5.482

>  <inchikey>  (1105) 
CGILJWAEBVMWHQ-UHFFFAOYSA-N

>  <exports>  (1105) 
['/opt/xchem-fragalysis-2/maxwin/BulkDock/OUTPUTS/openbind_a71ev2a_c2_elabs_1LOUU54.sdf', '/opt/xchem-fragalysis-2/maxwin/BulkDock/OUTPUTS/openbind_a71ev2a_c2_elabs_1LSYIDY.sdf']

>  <name>  (1105) 
P576913

>  <ref_pdb>  (1105) 
A3066a

>  <subsites>  (1105) 
None

>  <HIPPO Pose ID>  (1105) 
576913

>  <ref_mols>  (1105) 
A3066a

>  <HIPPO Compound ID>  (1105) 
350039

>  <tags>  (1105) 
openbind_a71ev2a_c2_elabs,syndirella_product,openbind_a71ev2a_c2_elabs_fragonly_scored_top80percent,openbind_a71ev2a_c2_elabs_scored,BulkDock Fragalysis export,openbind_a71ev2a_c2_elabs_scored_top80percent,openbind_a71ev2a_c2_elabs_activefrags_only_scored_5.2plus,syndirella_placed

>  <smina_score_min>  (1105) 
-6.589

$$$$
P576914
     RDKit          3D

 18 19  0  0  0  0  0  0  0  0999 V2000
   13.3369   15.0984   21.4822 C   0  0  0  0  0  0  0  0  0  0  0  0
   12.3466   14.3586   22.2928 C   0  0  0  0  0  0  0  0  0  0  0  0
   10.9753   14.5041   21.6718 C   0  0  0  0  0  0  0  0  0  0  0  0
   10.2297   13.5123   22.3365 N   0  0  0  0  0  0  0  0  0  0  0  0
    9.8423   13.3821   23.8018 C   0  0  0  0  0  0  0  0  0  0  0  0
   10.0069   14.1083   24.6912 O   0  0  0  0  0  0  0  0  0  0  0  0
    9.2740   12.0817   24.0072 C   0  0  0  0  0  0  0  0  0  0  0  0
    9.7195   10.9247   23.4036 C   0  0  0  0  0  0  0  0  0  0  0  0
    9.0751    9.8764   23.9851 N   0  0  0  0  0  0  0  0  0  0  0  0
    9.4239    8.4858   23.7406 C   0  0  0  0  0  0  0  0  0  0  0  0
    8.8676    8.0177   22.4406 C   0  0  0  0  0  0  0  0  0  0  0  0
   10.9026    8.1956   23.6346 C   0  0  0  0  0  0  0  0  0  0  0  0
    8.1082   10.3610   24.8456 C   0  0  0  0  0  0  0  0  0  0  0  0
    7.1159    9.7309   25.5918 C   0  0  0  0  0  0  0  0  0  0  0  0
    6.3310   10.4841   26.4675 C   0  0  0  0  0  0  0  0  0  0  0  0
    6.4978   11.8565   26.5727 C   0  0  0  0  0  0  0  0  0  0  0  0
    7.4526   12.5000   25.7917 C   0  0  0  0  0  0  0  0  0  0  0  0
    8.2591   11.7432   24.9183 C   0  0  0  0  0  0  0  0  0  0  0  0
  1  2  1  0
  2  3  1  0
  3  4  1  0
  4  5  1  0
  5  6  2  0
  5  7  1  0
  7  8  2  0
  8  9  1  0
  9 10  1  0
 10 11  1  0
 10 12  1  0
  9 13  1  0
 13 14  2  0
 14 15  1  0
 15 16  2  0
 16 17  1  0
 17 18  2  0
 18  7  1  0
 18 13  1  0
M  END
>  <alias>  (1106) 
None

>  <rmsd(smina/fragmenstein)>  (1106) 
0.494

>  <smiles>  (1106) 
CCCNC(=O)c1cn(C(C)C)c2ccccc12

>  <gnina_score>  (1106) 
5.199

>  <inspiration_score>  (1106) 
None

>  <energy_score>  (1106) 
-7.651444

>  <distance_score>  (1106) 
0.905498

>  <gnina_score_min>  (1106) 
5.218

>  <inchikey>  (1106) 
BMMVHGFTQJPBJC-UHFFFAOYSA-N

>  <exports>  (1106) 
['/opt/xchem-fragalysis-2/maxwin/BulkDock/OUTPUTS/openbind_a71ev2a_c2_elabs_1LOUU54.sdf', '/opt/xchem-fragalysis-2/maxwin/BulkDock/OUTPUTS/openbind_a71ev2a_c2_elabs_1LSYIDY.sdf']

>  <name>  (1106) 
P576914

>  <ref_pdb>  (1106) 
A3066a

>  <subsites>  (1106) 
None

>  <HIPPO Pose ID>  (1106) 
576914

>  <ref_mols>  (1106) 
A3066a

>  <HIPPO Compound ID>  (1106) 
350045

>  <tags>  (1106) 
openbind_a71ev2a_c2_elabs,syndirella_product,openbind_a71ev2a_c2_elabs_fragonly_scored_top80percent,openbind_a71ev2a_c2_elabs_scored,BulkDock Fragalysis export,openbind_a71ev2a_c2_elabs_scored_top80percent,openbind_a71ev2a_c2_elabs_activefrags_only_scored_5.2plus,syndirella_placed

>  <smina_score_min>  (1106) 
-4.388

$$$$
P576921
     RDKit          3D

 18 19  0  0  0  0  0  0  0  0999 V2000
   10.5259   11.1798   22.6450 C   0  0  0  0  0  0  0  0  0  0  0  0
    9.3523   11.2733   23.5101 C   0  0  0  0  0  0  0  0  0  0  0  0
    8.8098   12.4353   24.0053 C   0  0  0  0  0  0  0  0  0  0  0  0
    9.3142   13.7231   23.5974 C   0  0  0  0  0  0  0  0  0  0  0  0
   10.0602   14.3053   24.2711 O   0  0  0  0  0  0  0  0  0  0  0  0
    8.7844   14.0421   22.1907 N   0  0  0  0  0  0  0  0  0  0  0  0
    9.1356   15.1014   21.2737 C   0  0  0  0  0  0  0  0  0  0  0  0
   10.4458   14.8473   20.5410 C   0  0  0  0  0  0  0  0  0  0  0  0
   11.6059   14.7922   21.4376 C   0  0  0  0  0  0  0  0  0  0  0  0
   12.5401   14.7378   22.1240 N   0  0  0  0  0  0  0  0  0  0  0  0
    7.8964   12.0746   25.0082 C   0  0  0  0  0  0  0  0  0  0  0  0
    7.1334   12.8152   25.9267 C   0  0  0  0  0  0  0  0  0  0  0  0
    6.2919   12.1415   26.8095 C   0  0  0  0  0  0  0  0  0  0  0  0
    6.1829   10.7572   26.7589 C   0  0  0  0  0  0  0  0  0  0  0  0
    6.9173   10.0091   25.8382 C   0  0  0  0  0  0  0  0  0  0  0  0
    7.8080   10.6761   24.9968 C   0  0  0  0  0  0  0  0  0  0  0  0
    8.7239   10.2059   24.0785 N   0  0  0  0  0  0  0  0  0  0  0  0
    9.0645    8.8238   23.8091 C   0  0  0  0  0  0  0  0  0  0  0  0
  1  2  1  0
  2  3  2  0
  3  4  1  0
  4  5  2  0
  4  6  1  0
  6  7  1  0
  7  8  1  0
  8  9  1  0
  9 10  3  0
  3 11  1  0
 11 12  2  0
 12 13  1  0
 13 14  2  0
 14 15  1  0
 15 16  2  0
 16 17  1  0
 17 18  1  0
 17  2  1  0
 16 11  1  0
M  END
>  <alias>  (1107) 
None

>  <rmsd(smina/fragmenstein)>  (1107) 
0.182

>  <smiles>  (1107) 
Cc1c(C(=O)NCCC#N)c2ccccc2n1C

>  <gnina_score>  (1107) 
5.256

>  <inspiration_score>  (1107) 
None

>  <energy_score>  (1107) 
-8.829349

>  <distance_score>  (1107) 
1.565964

>  <gnina_score_min>  (1107) 
5.284

>  <inchikey>  (1107) 
FHFWAZNKEPDYMA-UHFFFAOYSA-N

>  <exports>  (1107) 
['/opt/xchem-fragalysis-2/maxwin/BulkDock/OUTPUTS/openbind_a71ev2a_c2_elabs_1LOUU54.sdf', '/opt/xchem-fragalysis-2/maxwin/BulkDock/OUTPUTS/openbind_a71ev2a_c2_elabs_1LSYIDY.sdf']

>  <name>  (1107) 
P576921

>  <ref_pdb>  (1107) 
A3066a

>  <subsites>  (1107) 
None

>  <HIPPO Pose ID>  (1107) 
576921

>  <ref_mols>  (1107) 
A3066a

>  <HIPPO Compound ID>  (1107) 
350075

>  <tags>  (1107) 
openbind_a71ev2a_c2_elabs,syndirella_product,openbind_a71ev2a_c2_elabs_fragonly_scored_top80percent,openbind_a71ev2a_c2_elabs_scored,BulkDock Fragalysis export,openbind_a71ev2a_c2_elabs_scored_top80percent,openbind_a71ev2a_c2_elabs_activefrags_only_scored_5.2plus,syndirella_placed

>  <smina_score_min>  (1107) 
-5.451

$$$$
P576923
     RDKit          3D

 18 19  0  0  0  0  0  0  0  0999 V2000
   10.3455   10.1211   22.5696 C   0  0  0  0  0  0  0  0  0  0  0  0
    9.5218   10.8615   23.5352 C   0  0  0  0  0  0  0  0  0  0  0  0
    9.5038   12.1643   24.0197 C   0  0  0  0  0  0  0  0  0  0  0  0
   10.4345   13.2641   23.7025 C   0  0  0  0  0  0  0  0  0  0  0  0
   10.8061   13.9818   24.5415 O   0  0  0  0  0  0  0  0  0  0  0  0
   10.7749   13.2210   22.2085 N   0  0  0  0  0  0  0  0  0  0  0  0
   11.7216   13.9937   21.4382 C   0  0  2  0  0  0  0  0  0  0  0  0
   12.5855   14.9183   22.2549 C   0  0  0  0  0  0  0  0  0  0  0  0
   11.0341   14.6483   20.2331 C   0  0  0  0  0  0  0  0  0  0  0  0
    9.7048   15.8256   20.6165 S   0  0  0  0  0  0  0  0  0  0  0  0
    8.4280   12.2131   24.9666 C   0  0  0  0  0  0  0  0  0  0  0  0
    7.8668   13.2425   25.7472 C   0  0  0  0  0  0  0  0  0  0  0  0
    6.8175   12.9518   26.6232 C   0  0  0  0  0  0  0  0  0  0  0  0
    6.3222   11.6580   26.7339 C   0  0  0  0  0  0  0  0  0  0  0  0
    6.8481   10.6216   25.9658 C   0  0  0  0  0  0  0  0  0  0  0  0
    7.8991   10.9259   25.0912 C   0  0  0  0  0  0  0  0  0  0  0  0
    8.6196   10.1298   24.2485 N   0  0  0  0  0  0  0  0  0  0  0  0
    8.5222    8.6978   24.1257 C   0  0  0  0  0  0  0  0  0  0  0  0
  1  2  1  0
  2  3  2  0
  3  4  1  0
  4  5  2  0
  4  6  1  0
  6  7  1  0
  7  8  1  1
  7  9  1  0
  9 10  1  0
  3 11  1  0
 11 12  2  0
 12 13  1  0
 13 14  2  0
 14 15  1  0
 15 16  2  0
 16 17  1  0
 17 18  1  0
 17  2  1  0
 16 11  1  0
M  END
>  <alias>  (1108) 
None

>  <rmsd(smina/fragmenstein)>  (1108) 
1.148

>  <smiles>  (1108) 
Cc1c(C(=O)N[C@H](C)CS)c2ccccc2n1C

>  <gnina_score>  (1108) 
5.503

>  <inspiration_score>  (1108) 
None

>  <energy_score>  (1108) 
-8.326792

>  <distance_score>  (1108) 
0.942492

>  <gnina_score_min>  (1108) 
5.379

>  <inchikey>  (1108) 
DLYLQBMUVFADOC-SECBINFHSA-N

>  <exports>  (1108) 
['/opt/xchem-fragalysis-2/maxwin/BulkDock/OUTPUTS/openbind_a71ev2a_c2_elabs_1LOUU54.sdf', '/opt/xchem-fragalysis-2/maxwin/BulkDock/OUTPUTS/openbind_a71ev2a_c2_elabs_1LSYIDY.sdf']

>  <name>  (1108) 
P576923

>  <ref_pdb>  (1108) 
A3066a

>  <subsites>  (1108) 
None

>  <HIPPO Pose ID>  (1108) 
576923

>  <ref_mols>  (1108) 
A3066a

>  <HIPPO Compound ID>  (1108) 
350079

>  <tags>  (1108) 
openbind_a71ev2a_c2_elabs,syndirella_product,openbind_a71ev2a_c2_elabs_fragonly_scored_top80percent,openbind_a71ev2a_c2_elabs_scored,BulkDock Fragalysis export,openbind_a71ev2a_c2_elabs_scored_top80percent,openbind_a71ev2a_c2_elabs_activefrags_only_scored_5.2plus,syndirella_placed

>  <smina_score_min>  (1108) 
-6.334

$$$$
P576924
     RDKit          3D

 18 19  0  0  0  0  0  0  0  0999 V2000
   10.4023   10.5452   22.6518 C   0  0  0  0  0  0  0  0  0  0  0  0
    9.3519   11.0091   23.5564 C   0  0  0  0  0  0  0  0  0  0  0  0
    9.0457   12.2525   24.0714 C   0  0  0  0  0  0  0  0  0  0  0  0
    9.7385   13.5085   23.8163 C   0  0  0  0  0  0  0  0  0  0  0  0
   10.0300   14.1766   24.7224 O   0  0  0  0  0  0  0  0  0  0  0  0
   10.0469   13.6692   22.3221 N   0  0  0  0  0  0  0  0  0  0  0  0
   10.8641   14.6401   21.6314 C   0  0  0  0  0  0  0  0  0  0  0  0
   12.3700   14.3586   21.7139 C   0  0  2  0  0  0  0  0  0  0  0  0
   12.7174   13.4815   20.7357 F   0  0  0  0  0  0  0  0  0  0  0  0
   12.8536   13.6701   23.2851 Cl  0  0  0  0  0  0  0  0  0  0  0  0
    8.0359   12.0468   25.0528 C   0  0  0  0  0  0  0  0  0  0  0  0
    7.3658   12.9126   25.9387 C   0  0  0  0  0  0  0  0  0  0  0  0
    6.4314   12.3931   26.8329 C   0  0  0  0  0  0  0  0  0  0  0  0
    6.1464   11.0342   26.8398 C   0  0  0  0  0  0  0  0  0  0  0  0
    6.7767   10.1616   25.9527 C   0  0  0  0  0  0  0  0  0  0  0  0
    7.7408   10.6831   25.0849 C   0  0  0  0  0  0  0  0  0  0  0  0
    8.5715   10.0773   24.1782 N   0  0  0  0  0  0  0  0  0  0  0  0
    8.7239    8.6584   23.9571 C   0  0  0  0  0  0  0  0  0  0  0  0
  1  2  1  0
  2  3  2  0
  3  4  1  0
  4  5  2  0
  4  6  1  0
  6  7  1  0
  7  8  1  0
  8  9  1  6
  8 10  1  0
  3 11  1  0
 11 12  2  0
 12 13  1  0
 13 14  2  0
 14 15  1  0
 15 16  2  0
 16 17  1  0
 17 18  1  0
 17  2  1  0
 16 11  1  0
M  END
>  <alias>  (1109) 
None

>  <rmsd(smina/fragmenstein)>  (1109) 
0.283

>  <smiles>  (1109) 
Cc1c(C(=O)NC[C@H](F)Cl)c2ccccc2n1C

>  <gnina_score>  (1109) 
5.142

>  <inspiration_score>  (1109) 
None

>  <energy_score>  (1109) 
-0.390899

>  <distance_score>  (1109) 
1.153137

>  <gnina_score_min>  (1109) 
5.255

>  <inchikey>  (1109) 
LOLZCSUUUXGVTB-NSHDSACASA-N

>  <exports>  (1109) 
['/opt/xchem-fragalysis-2/maxwin/BulkDock/OUTPUTS/openbind_a71ev2a_c2_elabs_1LOUU54.sdf', '/opt/xchem-fragalysis-2/maxwin/BulkDock/OUTPUTS/openbind_a71ev2a_c2_elabs_1LSYIDY.sdf']

>  <name>  (1109) 
P576924

>  <ref_pdb>  (1109) 
A3066a

>  <subsites>  (1109) 
None

>  <HIPPO Pose ID>  (1109) 
576924

>  <ref_mols>  (1109) 
A3066a

>  <HIPPO Compound ID>  (1109) 
350081

>  <tags>  (1109) 
openbind_a71ev2a_c2_elabs,syndirella_product,openbind_a71ev2a_c2_elabs_fragonly_scored_top80percent,openbind_a71ev2a_c2_elabs_scored,BulkDock Fragalysis export,openbind_a71ev2a_c2_elabs_scored_top80percent,openbind_a71ev2a_c2_elabs_activefrags_only_scored_5.2plus,syndirella_placed

>  <smina_score_min>  (1109) 
-5.495

$$$$
P576929
     RDKit          3D

 18 20  0  0  0  0  0  0  0  0999 V2000
   10.4091   10.6378   22.7880 C   0  0  0  0  0  0  0  0  0  0  0  0
    9.3440   11.0254   23.7160 C   0  0  0  0  0  0  0  0  0  0  0  0
    9.0442   12.2165   24.3479 C   0  0  0  0  0  0  0  0  0  0  0  0
    9.7862   13.4549   24.2433 C   0  0  0  0  0  0  0  0  0  0  0  0
   10.1309   14.0117   25.2101 O   0  0  0  0  0  0  0  0  0  0  0  0
   10.0722   13.7594   22.7578 N   0  0  0  0  0  0  0  0  0  0  0  0
   10.8724   14.7005   22.1866 N   0  0  0  0  0  0  0  0  0  0  0  0
   12.0868   14.8408   23.0442 C   0  0  0  0  0  0  0  0  0  0  0  0
   12.8730   15.0292   21.7644 C   0  0  0  0  0  0  0  0  0  0  0  0
   11.7915   14.1450   21.1491 C   0  0  0  0  0  0  0  0  0  0  0  0
    7.9888   11.9602   25.2531 C   0  0  0  0  0  0  0  0  0  0  0  0
    7.2979   12.7697   26.1740 C   0  0  0  0  0  0  0  0  0  0  0  0
    6.3347   12.1958   26.9987 C   0  0  0  0  0  0  0  0  0  0  0  0
    6.0422   10.8429   26.8953 C   0  0  0  0  0  0  0  0  0  0  0  0
    6.6837   10.0348   25.9562 C   0  0  0  0  0  0  0  0  0  0  0  0
    7.6810   10.6038   25.1623 C   0  0  0  0  0  0  0  0  0  0  0  0
    8.5397   10.0561   24.2420 N   0  0  0  0  0  0  0  0  0  0  0  0
    8.7101    8.6529   23.9465 C   0  0  0  0  0  0  0  0  0  0  0  0
  1  2  1  0
  2  3  2  0
  3  4  1  0
  4  5  2  0
  4  6  1  0
  6  7  1  0
  7  8  1  0
  8  9  1  0
  9 10  1  0
  3 11  1  0
 11 12  2  0
 12 13  1  0
 13 14  2  0
 14 15  1  0
 15 16  2  0
 16 17  1  0
 17 18  1  0
 17  2  1  0
 10  7  1  0
 16 11  1  0
M  END
>  <alias>  (1110) 
None

>  <rmsd(smina/fragmenstein)>  (1110) 
0.382

>  <smiles>  (1110) 
Cc1c(C(=O)NN2CCC2)c2ccccc2n1C

>  <gnina_score>  (1110) 
5.289

>  <inspiration_score>  (1110) 
None

>  <energy_score>  (1110) 
-15.266729

>  <distance_score>  (1110) 
1.230059

>  <gnina_score_min>  (1110) 
5.395

>  <inchikey>  (1110) 
IGSSKWSWCMUWER-UHFFFAOYSA-N

>  <exports>  (1110) 
['/opt/xchem-fragalysis-2/maxwin/BulkDock/OUTPUTS/openbind_a71ev2a_c2_elabs_1LOUU54.sdf', '/opt/xchem-fragalysis-2/maxwin/BulkDock/OUTPUTS/openbind_a71ev2a_c2_elabs_1LSYIDY.sdf']

>  <name>  (1110) 
P576929

>  <ref_pdb>  (1110) 
A3066a

>  <subsites>  (1110) 
None

>  <HIPPO Pose ID>  (1110) 
576929

>  <ref_mols>  (1110) 
A3066a

>  <HIPPO Compound ID>  (1110) 
350090

>  <tags>  (1110) 
openbind_a71ev2a_c2_elabs,syndirella_product,openbind_a71ev2a_c2_elabs_fragonly_scored_top80percent,openbind_a71ev2a_c2_elabs_scored,BulkDock Fragalysis export,openbind_a71ev2a_c2_elabs_scored_top80percent,openbind_a71ev2a_c2_elabs_activefrags_only_scored_5.2plus,syndirella_placed

>  <smina_score_min>  (1110) 
-6.155

$$$$
P576932
     RDKit          3D

 18 20  0  0  0  0  0  0  0  0999 V2000
    8.9470    8.3775   23.6903 C   0  0  0  0  0  0  0  0  0  0  0  0
    8.7459    9.7677   23.9769 N   0  0  0  0  0  0  0  0  0  0  0  0
    9.5726   10.6865   23.4300 C   0  0  0  0  0  0  0  0  0  0  0  0
    9.3562   11.8815   24.0789 C   0  0  0  0  0  0  0  0  0  0  0  0
   10.2448   13.0108   24.0199 C   0  0  0  0  0  0  0  0  0  0  0  0
   10.2911   13.7871   24.8828 O   0  0  0  0  0  0  0  0  0  0  0  0
   11.0848   12.8880   22.7546 N   0  0  0  0  0  0  0  0  0  0  0  0
   12.2020   13.6192   22.3284 C   0  0  0  0  0  0  0  0  0  0  0  0
   11.9864   15.1283   22.5176 C   0  0  0  0  0  0  0  0  0  0  0  0
   13.3318   15.2777   21.3539 S   0  0  0  0  0  0  0  0  0  0  0  0
   12.4033   13.8346   20.8111 C   0  0  0  0  0  0  0  0  0  0  0  0
    8.2487   11.7106   24.9410 C   0  0  0  0  0  0  0  0  0  0  0  0
    7.5676   12.5710   25.8255 C   0  0  0  0  0  0  0  0  0  0  0  0
    6.5659   12.0498   26.6370 C   0  0  0  0  0  0  0  0  0  0  0  0
    5.7579   13.0753   27.7575 Cl  0  0  0  0  0  0  0  0  0  0  0  0
    6.2282   10.7066   26.5684 C   0  0  0  0  0  0  0  0  0  0  0  0
    6.8672    9.8530   25.6672 C   0  0  0  0  0  0  0  0  0  0  0  0
    7.8960   10.3620   24.8755 C   0  0  0  0  0  0  0  0  0  0  0  0
  1  2  1  0
  2  3  1  0
  3  4  2  0
  4  5  1  0
  5  6  2  0
  5  7  1  0
  7  8  1  0
  8  9  1  0
  9 10  1  0
 10 11  1  0
  4 12  1  0
 12 13  2  0
 13 14  1  0
 14 15  1  0
 14 16  2  0
 16 17  1  0
 17 18  2  0
 18  2  1  0
 11  8  1  0
 18 12  1  0
M  END
>  <alias>  (1111) 
None

>  <rmsd(smina/fragmenstein)>  (1111) 
0.523

>  <smiles>  (1111) 
Cn1cc(C(=O)NC2CSC2)c2cc(Cl)ccc21

>  <gnina_score>  (1111) 
5.049

>  <inspiration_score>  (1111) 
None

>  <energy_score>  (1111) 
-2.364118

>  <distance_score>  (1111) 
0.827758

>  <gnina_score_min>  (1111) 
5.221

>  <inchikey>  (1111) 
DLGAYMIDRFPHOR-UHFFFAOYSA-N

>  <exports>  (1111) 
['/opt/xchem-fragalysis-2/maxwin/BulkDock/OUTPUTS/openbind_a71ev2a_c2_elabs_1LOUU54.sdf', '/opt/xchem-fragalysis-2/maxwin/BulkDock/OUTPUTS/openbind_a71ev2a_c2_elabs_1LSYIDY.sdf']

>  <name>  (1111) 
P576932

>  <ref_pdb>  (1111) 
A3066a

>  <subsites>  (1111) 
None

>  <HIPPO Pose ID>  (1111) 
576932

>  <ref_mols>  (1111) 
A3066a

>  <HIPPO Compound ID>  (1111) 
350102

>  <tags>  (1111) 
openbind_a71ev2a_c2_elabs,syndirella_product,openbind_a71ev2a_c2_elabs_fragonly_scored_top80percent,openbind_a71ev2a_c2_elabs_scored,BulkDock Fragalysis export,openbind_a71ev2a_c2_elabs_scored_top80percent,openbind_a71ev2a_c2_elabs_activefrags_only_scored_5.2plus,syndirella_placed

>  <smina_score_min>  (1111) 
-4.951

$$$$
P576934
     RDKit          3D

 18 19  0  0  0  0  0  0  0  0999 V2000
   10.3870   15.0195   19.7321 C   0  0  0  0  0  0  0  0  0  0  0  0
   10.4026   15.5711   21.1377 C   0  0  0  0  0  0  0  0  0  0  0  0
   11.4273   14.8936   22.0521 C   0  0  2  0  0  0  0  0  0  0  0  0
   12.7759   14.5574   21.4654 C   0  0  0  0  0  0  0  0  0  0  0  0
   10.8433   13.7098   22.6025 N   0  0  0  0  0  0  0  0  0  0  0  0
   10.3682   13.4050   24.0198 C   0  0  0  0  0  0  0  0  0  0  0  0
   10.4427   14.0374   24.9924 O   0  0  0  0  0  0  0  0  0  0  0  0
    9.6632   12.1349   24.0302 C   0  0  0  0  0  0  0  0  0  0  0  0
    9.9565   11.0176   23.2759 C   0  0  0  0  0  0  0  0  0  0  0  0
    9.1770    9.9868   23.7158 N   0  0  0  0  0  0  0  0  0  0  0  0
    9.3172    8.6243   23.2540 C   0  0  0  0  0  0  0  0  0  0  0  0
    8.2829   10.4494   24.6560 C   0  0  0  0  0  0  0  0  0  0  0  0
    7.2742    9.8024   25.3717 C   0  0  0  0  0  0  0  0  0  0  0  0
    6.5069   10.5415   26.2740 C   0  0  0  0  0  0  0  0  0  0  0  0
    6.7333   11.8999   26.4453 C   0  0  0  0  0  0  0  0  0  0  0  0
    5.7769   12.7854   27.5682 Cl  0  0  0  0  0  0  0  0  0  0  0  0
    7.7454   12.5470   25.7407 C   0  0  0  0  0  0  0  0  0  0  0  0
    8.5441   11.8062   24.8435 C   0  0  0  0  0  0  0  0  0  0  0  0
  1  2  1  0
  2  3  1  0
  3  4  1  6
  3  5  1  0
  5  6  1  0
  6  7  2  0
  6  8  1  0
  8  9  2  0
  9 10  1  0
 10 11  1  0
 10 12  1  0
 12 13  2  0
 13 14  1  0
 14 15  2  0
 15 16  1  0
 15 17  1  0
 17 18  2  0
 18  8  1  0
 18 12  1  0
M  END
>  <alias>  (1112) 
None

>  <rmsd(smina/fragmenstein)>  (1112) 
0.389

>  <smiles>  (1112) 
CC[C@H](C)NC(=O)c1cn(C)c2ccc(Cl)cc12

>  <gnina_score>  (1112) 
5.54

>  <inspiration_score>  (1112) 
None

>  <energy_score>  (1112) 
-6.435385

>  <distance_score>  (1112) 
0.582402

>  <gnina_score_min>  (1112) 
5.528

>  <inchikey>  (1112) 
BDQJKYADRUHNQT-VIFPVBQESA-N

>  <exports>  (1112) 
['/opt/xchem-fragalysis-2/maxwin/BulkDock/OUTPUTS/openbind_a71ev2a_c2_elabs_1LOUU54.sdf', '/opt/xchem-fragalysis-2/maxwin/BulkDock/OUTPUTS/openbind_a71ev2a_c2_elabs_1LSYIDY.sdf']

>  <name>  (1112) 
P576934

>  <ref_pdb>  (1112) 
A3066a

>  <subsites>  (1112) 
None

>  <HIPPO Pose ID>  (1112) 
576934

>  <ref_mols>  (1112) 
A3066a

>  <HIPPO Compound ID>  (1112) 
350104

>  <tags>  (1112) 
openbind_a71ev2a_c2_elabs,syndirella_product,openbind_a71ev2a_c2_elabs_fragonly_scored_top80percent,BulkDock Fragalysis export,openbind_a71ev2a_c2_elabs_scored,openbind_a71ev2a_c2_elabs_scored_top80percent,openbind_a71ev2a_c2_elabs_activefrags_only_scored_5.2plus,openbind_a71ev2a_c2_elabs_activefrags_only_scored_5.5plus,syndirella_placed

>  <smina_score_min>  (1112) 
-7.11

$$$$
P576935
     RDKit          3D

 18 20  0  0  0  0  0  0  0  0999 V2000
    9.3181    8.6813   23.2777 C   0  0  0  0  0  0  0  0  0  0  0  0
    9.2262   10.0719   23.6604 N   0  0  0  0  0  0  0  0  0  0  0  0
   10.0063   11.0573   23.1338 C   0  0  0  0  0  0  0  0  0  0  0  0
    9.7961   12.2215   23.8458 C   0  0  0  0  0  0  0  0  0  0  0  0
   10.5889   13.4412   23.7086 C   0  0  0  0  0  0  0  0  0  0  0  0
   10.8288   14.1168   24.6401 O   0  0  0  0  0  0  0  0  0  0  0  0
   11.0127   13.5757   22.2805 N   0  0  0  0  0  0  0  0  0  0  0  0
    9.9643   14.4471   21.4379 C   0  0  0  0  0  0  0  0  0  0  0  0
   11.0361   14.7022   20.4387 C   0  0  0  0  0  0  0  0  0  0  0  0
   11.0877   14.9330   19.2570 O   0  0  0  0  0  0  0  0  0  0  0  0
   11.9749   14.5770   21.6045 C   0  0  0  0  0  0  0  0  0  0  0  0
    8.6975   11.9649   24.7190 C   0  0  0  0  0  0  0  0  0  0  0  0
    7.9532   12.7655   25.6099 C   0  0  0  0  0  0  0  0  0  0  0  0
    6.9277   12.1822   26.3561 C   0  0  0  0  0  0  0  0  0  0  0  0
    6.0312   13.1470   27.4642 Cl  0  0  0  0  0  0  0  0  0  0  0  0
    6.6368   10.8279   26.2403 C   0  0  0  0  0  0  0  0  0  0  0  0
    7.3556   10.0192   25.3585 C   0  0  0  0  0  0  0  0  0  0  0  0
    8.3732   10.6080   24.5988 C   0  0  0  0  0  0  0  0  0  0  0  0
  1  2  1  0
  2  3  1  0
  3  4  2  0
  4  5  1  0
  5  6  2  0
  5  7  1  0
  7  8  1  0
  8  9  1  0
  9 10  2  0
  9 11  1  0
  4 12  1  0
 12 13  2  0
 13 14  1  0
 14 15  1  0
 14 16  2  0
 16 17  1  0
 17 18  2  0
 18  2  1  0
 11  7  1  0
 18 12  1  0
M  END
>  <alias>  (1113) 
None

>  <rmsd(smina/fragmenstein)>  (1113) 
0.551

>  <smiles>  (1113) 
Cn1cc(C(=O)N2CC(=O)C2)c2cc(Cl)ccc21

>  <gnina_score>  (1113) 
5.333

>  <inspiration_score>  (1113) 
None

>  <energy_score>  (1113) 
-1.81591

>  <distance_score>  (1113) 
0.359745

>  <gnina_score_min>  (1113) 
5.3

>  <inchikey>  (1113) 
FOYZIAARFHGVTA-UHFFFAOYSA-N

>  <exports>  (1113) 
['/opt/xchem-fragalysis-2/maxwin/BulkDock/OUTPUTS/openbind_a71ev2a_c2_elabs_1LOUU54.sdf', '/opt/xchem-fragalysis-2/maxwin/BulkDock/OUTPUTS/openbind_a71ev2a_c2_elabs_1LSYIDY.sdf']

>  <name>  (1113) 
P576935

>  <ref_pdb>  (1113) 
A3066a

>  <subsites>  (1113) 
None

>  <HIPPO Pose ID>  (1113) 
576935

>  <ref_mols>  (1113) 
A3066a

>  <HIPPO Compound ID>  (1113) 
350105

>  <tags>  (1113) 
openbind_a71ev2a_c2_elabs,syndirella_product,openbind_a71ev2a_c2_elabs_fragonly_scored_top80percent,openbind_a71ev2a_c2_elabs_scored,BulkDock Fragalysis export,openbind_a71ev2a_c2_elabs_scored_top80percent,openbind_a71ev2a_c2_elabs_activefrags_only_scored_5.2plus,syndirella_placed

>  <smina_score_min>  (1113) 
-7.945

$$$$
P576936
     RDKit          3D

 18 20  0  0  0  0  0  0  0  0999 V2000
    9.3317    8.4748   23.3981 C   0  0  0  0  0  0  0  0  0  0  0  0
    9.1693    9.8736   23.7120 N   0  0  0  0  0  0  0  0  0  0  0  0
    9.9169   10.8580   23.1346 C   0  0  0  0  0  0  0  0  0  0  0  0
    9.6060   12.0530   23.7442 C   0  0  0  0  0  0  0  0  0  0  0  0
   10.2278   13.3436   23.5115 C   0  0  0  0  0  0  0  0  0  0  0  0
   10.3084   14.1057   24.3935 O   0  0  0  0  0  0  0  0  0  0  0  0
   10.6572   13.4744   22.0302 N   0  0  0  0  0  0  0  0  0  0  0  0
   11.1615   14.5475   21.3401 N   0  0  0  0  0  0  0  0  0  0  0  0
   11.9411   15.4620   22.1847 C   0  0  0  0  0  0  0  0  0  0  0  0
   13.2132   14.7698   21.7801 C   0  0  0  0  0  0  0  0  0  0  0  0
   12.4097   14.1600   20.6430 C   0  0  0  0  0  0  0  0  0  0  0  0
    8.5551   11.7895   24.6709 C   0  0  0  0  0  0  0  0  0  0  0  0
    7.7935   12.6049   25.5362 C   0  0  0  0  0  0  0  0  0  0  0  0
    6.8063   12.0242   26.3306 C   0  0  0  0  0  0  0  0  0  0  0  0
    5.8960   13.0078   27.4098 Cl  0  0  0  0  0  0  0  0  0  0  0  0
    6.5605   10.6601   26.2724 C   0  0  0  0  0  0  0  0  0  0  0  0
    7.2966    9.8431   25.4122 C   0  0  0  0  0  0  0  0  0  0  0  0
    8.2953   10.4201   24.6237 C   0  0  0  0  0  0  0  0  0  0  0  0
  1  2  1  0
  2  3  1  0
  3  4  2  0
  4  5  1  0
  5  6  2  0
  5  7  1  0
  7  8  1  0
  8  9  1  0
  9 10  1  0
 10 11  1  0
  4 12  1  0
 12 13  2  0
 13 14  1  0
 14 15  1  0
 14 16  2  0
 16 17  1  0
 17 18  2  0
 18  2  1  0
 11  8  1  0
 18 12  1  0
M  END
>  <alias>  (1114) 
None

>  <rmsd(smina/fragmenstein)>  (1114) 
1.384

>  <smiles>  (1114) 
Cn1cc(C(=O)NN2CCC2)c2cc(Cl)ccc21

>  <gnina_score>  (1114) 
5.56

>  <inspiration_score>  (1114) 
None

>  <energy_score>  (1114) 
-4.154701

>  <distance_score>  (1114) 
0.624938

>  <gnina_score_min>  (1114) 
5.688

>  <inchikey>  (1114) 
FBEQPQQUCQWING-UHFFFAOYSA-N

>  <exports>  (1114) 
['/opt/xchem-fragalysis-2/maxwin/BulkDock/OUTPUTS/openbind_a71ev2a_c2_elabs_1LOUU54.sdf', '/opt/xchem-fragalysis-2/maxwin/BulkDock/OUTPUTS/openbind_a71ev2a_c2_elabs_1LSYIDY.sdf']

>  <name>  (1114) 
P576936

>  <ref_pdb>  (1114) 
A3066a

>  <subsites>  (1114) 
None

>  <HIPPO Pose ID>  (1114) 
576936

>  <ref_mols>  (1114) 
A3066a

>  <HIPPO Compound ID>  (1114) 
350106

>  <tags>  (1114) 
openbind_a71ev2a_c2_elabs,syndirella_product,openbind_a71ev2a_c2_elabs_fragonly_scored_top80percent,BulkDock Fragalysis export,openbind_a71ev2a_c2_elabs_scored,openbind_a71ev2a_c2_elabs_scored_top80percent,openbind_a71ev2a_c2_elabs_activefrags_only_scored_5.2plus,openbind_a71ev2a_c2_elabs_activefrags_only_scored_5.5plus,syndirella_placed

>  <smina_score_min>  (1114) 
-7.444

$$$$
P576939
     RDKit          3D

 18 19  0  0  0  0  0  0  0  0999 V2000
    9.3894    8.4660   23.3409 C   0  0  0  0  0  0  0  0  0  0  0  0
    9.2355    9.8703   23.6315 N   0  0  0  0  0  0  0  0  0  0  0  0
    9.9729   10.8445   23.0244 C   0  0  0  0  0  0  0  0  0  0  0  0
    9.6832   12.0502   23.6200 C   0  0  0  0  0  0  0  0  0  0  0  0
   10.3109   13.3379   23.3625 C   0  0  0  0  0  0  0  0  0  0  0  0
   10.3314   14.1196   24.2259 O   0  0  0  0  0  0  0  0  0  0  0  0
   10.7630   13.4587   21.8976 N   0  0  0  0  0  0  0  0  0  0  0  0
   11.2499   14.5995   21.1567 C   0  0  0  0  0  0  0  0  0  0  0  0
   10.0577   15.5496   20.9841 C   0  0  0  0  0  0  0  0  0  0  0  0
   12.4013   15.1539   21.9865 C   0  0  0  0  0  0  0  0  0  0  0  0
   11.7735   14.2456   19.7656 C   0  0  0  0  0  0  0  0  0  0  0  0
    8.6375   11.8012   24.5651 C   0  0  0  0  0  0  0  0  0  0  0  0
    7.8831   12.6289   25.4265 C   0  0  0  0  0  0  0  0  0  0  0  0
    6.8980   12.0621   26.2351 C   0  0  0  0  0  0  0  0  0  0  0  0
    5.9960   13.0636   27.3050 Cl  0  0  0  0  0  0  0  0  0  0  0  0
    6.6474   10.6977   26.1994 C   0  0  0  0  0  0  0  0  0  0  0  0
    7.3792    9.8655   25.3504 C   0  0  0  0  0  0  0  0  0  0  0  0
    8.3723   10.4314   24.5442 C   0  0  0  0  0  0  0  0  0  0  0  0
  1  2  1  0
  2  3  1  0
  3  4  2  0
  4  5  1  0
  5  6  2  0
  5  7  1  0
  7  8  1  0
  8  9  1  0
  8 10  1  0
  8 11  1  0
  4 12  1  0
 12 13  2  0
 13 14  1  0
 14 15  1  0
 14 16  2  0
 16 17  1  0
 17 18  2  0
 18  2  1  0
 18 12  1  0
M  END
>  <alias>  (1115) 
None

>  <rmsd(smina/fragmenstein)>  (1115) 
0.251

>  <smiles>  (1115) 
Cn1cc(C(=O)NC(C)(C)C)c2cc(Cl)ccc21

>  <gnina_score>  (1115) 
5.526

>  <inspiration_score>  (1115) 
None

>  <energy_score>  (1115) 
-6.455152

>  <distance_score>  (1115) 
0.588188

>  <gnina_score_min>  (1115) 
5.496

>  <inchikey>  (1115) 
NYNLGRBYRLQJAV-UHFFFAOYSA-N

>  <exports>  (1115) 
['/opt/xchem-fragalysis-2/maxwin/BulkDock/OUTPUTS/openbind_a71ev2a_c2_elabs_1LOUU54.sdf', '/opt/xchem-fragalysis-2/maxwin/BulkDock/OUTPUTS/openbind_a71ev2a_c2_elabs_1LSYIDY.sdf']

>  <name>  (1115) 
P576939

>  <ref_pdb>  (1115) 
A3066a

>  <subsites>  (1115) 
None

>  <HIPPO Pose ID>  (1115) 
576939

>  <ref_mols>  (1115) 
A3066a

>  <HIPPO Compound ID>  (1115) 
350110

>  <tags>  (1115) 
openbind_a71ev2a_c2_elabs,syndirella_product,openbind_a71ev2a_c2_elabs_fragonly_scored_top80percent,openbind_a71ev2a_c2_elabs_scored,BulkDock Fragalysis export,openbind_a71ev2a_c2_elabs_scored_top80percent,openbind_a71ev2a_c2_elabs_activefrags_only_scored_5.2plus,syndirella_placed

>  <smina_score_min>  (1115) 
-6.968

$$$$
P576940
     RDKit          3D

 18 19  0  0  0  0  0  0  0  0999 V2000
    9.4367    8.5416   23.4918 C   0  0  0  0  0  0  0  0  0  0  0  0
    9.1140    9.9271   23.7430 N   0  0  0  0  0  0  0  0  0  0  0  0
    9.7131   10.9583   23.0787 C   0  0  0  0  0  0  0  0  0  0  0  0
    9.1579   12.1477   23.5121 C   0  0  0  0  0  0  0  0  0  0  0  0
    9.4378   13.5052   23.0429 C   0  0  0  0  0  0  0  0  0  0  0  0
    9.1110   14.3972   23.7075 O   0  0  0  0  0  0  0  0  0  0  0  0
   10.2319   13.4809   21.7400 N   0  0  0  0  0  0  0  0  0  0  0  0
   10.8723   14.5328   21.0275 C   0  0  0  0  0  0  0  0  0  0  0  0
   12.3676   14.3429   21.2178 C   0  0  0  0  0  0  0  0  0  0  0  0
   12.8049   14.6279   22.6353 C   0  0  0  0  0  0  0  0  0  0  0  0
   12.6797   13.1077   23.8495 Br  0  0  0  0  0  0  0  0  0  0  0  0
    8.2627   11.8144   24.5739 C   0  0  0  0  0  0  0  0  0  0  0  0
    7.4610   12.5818   25.4495 C   0  0  0  0  0  0  0  0  0  0  0  0
    6.6077   11.9381   26.3415 C   0  0  0  0  0  0  0  0  0  0  0  0
    5.6425   12.8647   27.4235 Cl  0  0  0  0  0  0  0  0  0  0  0  0
    6.5148   10.5551   26.3557 C   0  0  0  0  0  0  0  0  0  0  0  0
    7.3003    9.7854   25.4966 C   0  0  0  0  0  0  0  0  0  0  0  0
    8.1985   10.4232   24.6408 C   0  0  0  0  0  0  0  0  0  0  0  0
  1  2  1  0
  2  3  1  0
  3  4  2  0
  4  5  1  0
  5  6  2  0
  5  7  1  0
  7  8  1  0
  8  9  1  0
  9 10  1  0
 10 11  1  0
  4 12  1  0
 12 13  2  0
 13 14  1  0
 14 15  1  0
 14 16  2  0
 16 17  1  0
 17 18  2  0
 18  2  1  0
 18 12  1  0
M  END
>  <alias>  (1116) 
None

>  <rmsd(smina/fragmenstein)>  (1116) 
0.262

>  <smiles>  (1116) 
Cn1cc(C(=O)NCCCBr)c2cc(Cl)ccc21

>  <gnina_score>  (1116) 
5.596

>  <inspiration_score>  (1116) 
None

>  <energy_score>  (1116) 
-6.110162

>  <distance_score>  (1116) 
1.067144

>  <gnina_score_min>  (1116) 
5.521

>  <inchikey>  (1116) 
XFJRGUAUICHGAG-UHFFFAOYSA-N

>  <exports>  (1116) 
['/opt/xchem-fragalysis-2/maxwin/BulkDock/OUTPUTS/openbind_a71ev2a_c2_elabs_1LOUU54.sdf', '/opt/xchem-fragalysis-2/maxwin/BulkDock/OUTPUTS/openbind_a71ev2a_c2_elabs_1LSYIDY.sdf']

>  <name>  (1116) 
P576940

>  <ref_pdb>  (1116) 
A3066a

>  <subsites>  (1116) 
None

>  <HIPPO Pose ID>  (1116) 
576940

>  <ref_mols>  (1116) 
A3066a

>  <HIPPO Compound ID>  (1116) 
350112

>  <tags>  (1116) 
openbind_a71ev2a_c2_elabs,syndirella_product,openbind_a71ev2a_c2_elabs_fragonly_scored_top80percent,BulkDock Fragalysis export,openbind_a71ev2a_c2_elabs_scored,openbind_a71ev2a_c2_elabs_scored_top80percent,openbind_a71ev2a_c2_elabs_activefrags_only_scored_5.2plus,openbind_a71ev2a_c2_elabs_activefrags_only_scored_5.5plus,syndirella_placed

>  <smina_score_min>  (1116) 
-5.9

$$$$
P576941
     RDKit          3D

 18 19  0  0  0  0  0  0  0  0999 V2000
   12.7961   14.2194   22.7988 C   0  0  0  0  0  0  0  0  0  0  0  0
   12.4511   14.5882   21.3713 C   0  0  1  0  0  0  0  0  0  0  0  0
   12.9599   13.6496   20.5257 F   0  0  0  0  0  0  0  0  0  0  0  0
   10.9507   14.6701   21.1308 C   0  0  0  0  0  0  0  0  0  0  0  0
   10.3151   13.5762   21.8013 N   0  0  0  0  0  0  0  0  0  0  0  0
    9.6876   13.4937   23.1908 C   0  0  0  0  0  0  0  0  0  0  0  0
    9.5150   14.3180   23.9878 O   0  0  0  0  0  0  0  0  0  0  0  0
    9.3213   12.1301   23.5427 C   0  0  0  0  0  0  0  0  0  0  0  0
    9.8275   10.9507   23.0384 C   0  0  0  0  0  0  0  0  0  0  0  0
    9.1992    9.9074   23.6586 N   0  0  0  0  0  0  0  0  0  0  0  0
    9.4880    8.5208   23.3716 C   0  0  0  0  0  0  0  0  0  0  0  0
    8.2852   10.3886   24.5685 C   0  0  0  0  0  0  0  0  0  0  0  0
    7.3718    9.7363   25.3971 C   0  0  0  0  0  0  0  0  0  0  0  0
    6.5780   10.4901   26.2634 C   0  0  0  0  0  0  0  0  0  0  0  0
    6.6852   11.8721   26.2894 C   0  0  0  0  0  0  0  0  0  0  0  0
    5.7137   12.7788   27.3819 Cl  0  0  0  0  0  0  0  0  0  0  0  0
    7.5676   12.5303   25.4369 C   0  0  0  0  0  0  0  0  0  0  0  0
    8.3774   11.7781   24.5550 C   0  0  0  0  0  0  0  0  0  0  0  0
  2  1  1  1
  2  3  1  0
  2  4  1  0
  4  5  1  0
  5  6  1  0
  6  7  2  0
  6  8  1  0
  8  9  2  0
  9 10  1  0
 10 11  1  0
 10 12  1  0
 12 13  2  0
 13 14  1  0
 14 15  2  0
 15 16  1  0
 15 17  1  0
 17 18  2  0
 18  8  1  0
 18 12  1  0
M  END
>  <alias>  (1117) 
None

>  <rmsd(smina/fragmenstein)>  (1117) 
0.305

>  <smiles>  (1117) 
C[C@@H](F)CNC(=O)c1cn(C)c2ccc(Cl)cc12

>  <gnina_score>  (1117) 
5.412

>  <inspiration_score>  (1117) 
None

>  <energy_score>  (1117) 
-3.464546

>  <distance_score>  (1117) 
0.910119

>  <gnina_score_min>  (1117) 
5.435

>  <inchikey>  (1117) 
IEMLRBHUQVVHSB-MRVPVSSYSA-N

>  <exports>  (1117) 
['/opt/xchem-fragalysis-2/maxwin/BulkDock/OUTPUTS/openbind_a71ev2a_c2_elabs_1LOUU54.sdf', '/opt/xchem-fragalysis-2/maxwin/BulkDock/OUTPUTS/openbind_a71ev2a_c2_elabs_1LSYIDY.sdf']

>  <name>  (1117) 
P576941

>  <ref_pdb>  (1117) 
A3066a

>  <subsites>  (1117) 
None

>  <HIPPO Pose ID>  (1117) 
576941

>  <ref_mols>  (1117) 
A3066a

>  <HIPPO Compound ID>  (1117) 
350115

>  <tags>  (1117) 
openbind_a71ev2a_c2_elabs,syndirella_product,openbind_a71ev2a_c2_elabs_fragonly_scored_top80percent,openbind_a71ev2a_c2_elabs_scored,BulkDock Fragalysis export,openbind_a71ev2a_c2_elabs_scored_top80percent,openbind_a71ev2a_c2_elabs_activefrags_only_scored_5.2plus,syndirella_placed

>  <smina_score_min>  (1117) 
-6.865

$$$$
P576942
     RDKit          3D

 18 20  0  0  0  0  0  0  0  0999 V2000
    9.4053    8.7482   23.1611 C   0  0  0  0  0  0  0  0  0  0  0  0
    9.2665   10.1195   23.5994 N   0  0  0  0  0  0  0  0  0  0  0  0
   10.0193   11.1559   23.1207 C   0  0  0  0  0  0  0  0  0  0  0  0
    9.7687   12.2736   23.8884 C   0  0  0  0  0  0  0  0  0  0  0  0
   10.5197   13.5281   23.9045 C   0  0  0  0  0  0  0  0  0  0  0  0
   10.7008   14.0578   24.9406 O   0  0  0  0  0  0  0  0  0  0  0  0
   10.8842   13.9637   22.5128 N   0  0  0  0  0  0  0  0  0  0  0  0
   12.2901   13.4545   22.1089 C   0  0  0  0  0  0  0  0  0  0  0  0
   12.4013   14.5313   21.0711 C   0  0  0  0  0  0  0  0  0  0  0  0
   11.8341   14.3308   19.3866 Cl  0  0  0  0  0  0  0  0  0  0  0  0
   11.4955   15.2430   22.0144 C   0  0  0  0  0  0  0  0  0  0  0  0
    8.6601   11.9414   24.7293 C   0  0  0  0  0  0  0  0  0  0  0  0
    7.8799   12.6783   25.6463 C   0  0  0  0  0  0  0  0  0  0  0  0
    6.8742   12.0300   26.3639 C   0  0  0  0  0  0  0  0  0  0  0  0
    5.9352   12.9162   27.5019 Cl  0  0  0  0  0  0  0  0  0  0  0  0
    6.6408   10.6707   26.1981 C   0  0  0  0  0  0  0  0  0  0  0  0
    7.3984    9.9263   25.2923 C   0  0  0  0  0  0  0  0  0  0  0  0
    8.3911   10.5818   24.5555 C   0  0  0  0  0  0  0  0  0  0  0  0
  1  2  1  0
  2  3  1  0
  3  4  2  0
  4  5  1  0
  5  6  2  0
  5  7  1  0
  7  8  1  0
  8  9  1  0
  9 10  1  0
  9 11  1  0
  4 12  1  0
 12 13  2  0
 13 14  1  0
 14 15  1  0
 14 16  2  0
 16 17  1  0
 17 18  2  0
 18  2  1  0
 11  7  1  0
 18 12  1  0
M  END
>  <alias>  (1118) 
None

>  <rmsd(smina/fragmenstein)>  (1118) 
0.153

>  <smiles>  (1118) 
Cn1cc(C(=O)N2CC(Cl)C2)c2cc(Cl)ccc21

>  <gnina_score>  (1118) 
5.387

>  <inspiration_score>  (1118) 
None

>  <energy_score>  (1118) 
-2.135903

>  <distance_score>  (1118) 
0.507103

>  <gnina_score_min>  (1118) 
5.418

>  <inchikey>  (1118) 
FQFXNYVRQJZMFG-UHFFFAOYSA-N

>  <exports>  (1118) 
['/opt/xchem-fragalysis-2/maxwin/BulkDock/OUTPUTS/openbind_a71ev2a_c2_elabs_1LOUU54.sdf', '/opt/xchem-fragalysis-2/maxwin/BulkDock/OUTPUTS/openbind_a71ev2a_c2_elabs_1LSYIDY.sdf']

>  <name>  (1118) 
P576942

>  <ref_pdb>  (1118) 
A3066a

>  <subsites>  (1118) 
None

>  <HIPPO Pose ID>  (1118) 
576942

>  <ref_mols>  (1118) 
A3066a

>  <HIPPO Compound ID>  (1118) 
350119

>  <tags>  (1118) 
openbind_a71ev2a_c2_elabs,syndirella_product,openbind_a71ev2a_c2_elabs_fragonly_scored_top80percent,openbind_a71ev2a_c2_elabs_scored,BulkDock Fragalysis export,openbind_a71ev2a_c2_elabs_scored_top80percent,openbind_a71ev2a_c2_elabs_activefrags_only_scored_5.2plus,syndirella_placed

>  <smina_score_min>  (1118) 
-6.535

$$$$
P576943
     RDKit          3D

 18 20  0  0  0  0  0  0  0  0999 V2000
    9.2075    8.5629   23.5689 C   0  0  0  0  0  0  0  0  0  0  0  0
    8.8859    9.9193   23.9432 N   0  0  0  0  0  0  0  0  0  0  0  0
    9.4839   10.9963   23.3676 C   0  0  0  0  0  0  0  0  0  0  0  0
    8.9824   12.1347   23.9683 C   0  0  0  0  0  0  0  0  0  0  0  0
    9.3070   13.5003   23.6440 C   0  0  0  0  0  0  0  0  0  0  0  0
    9.0974   14.3720   24.3986 O   0  0  0  0  0  0  0  0  0  0  0  0
    9.9750   13.5163   22.3185 N   0  0  0  0  0  0  0  0  0  0  0  0
   10.4975   14.6660   21.4921 C   0  0  0  0  0  0  0  0  0  0  0  0
   11.7189   14.7351   22.3511 C   0  0  0  0  0  0  0  0  0  0  0  0
   13.1953   15.0450   21.4250 S   0  0  0  0  0  0  0  0  0  0  0  0
   11.5026   13.2739   22.4496 C   0  0  0  0  0  0  0  0  0  0  0  0
    8.0767   11.7348   24.9712 C   0  0  0  0  0  0  0  0  0  0  0  0
    7.2896   12.4441   25.9033 C   0  0  0  0  0  0  0  0  0  0  0  0
    6.4101   11.7445   26.7186 C   0  0  0  0  0  0  0  0  0  0  0  0
    5.4654   12.5876   27.8822 Cl  0  0  0  0  0  0  0  0  0  0  0  0
    6.2781   10.3723   26.5894 C   0  0  0  0  0  0  0  0  0  0  0  0
    7.0425    9.6724   25.6542 C   0  0  0  0  0  0  0  0  0  0  0  0
    7.9751   10.3509   24.8806 C   0  0  0  0  0  0  0  0  0  0  0  0
  1  2  1  0
  2  3  1  0
  3  4  2  0
  4  5  1  0
  5  6  2  0
  5  7  1  0
  7  8  1  0
  8  9  1  0
  9 10  1  0
  9 11  1  0
  4 12  1  0
 12 13  2  0
 13 14  1  0
 14 15  1  0
 14 16  2  0
 16 17  1  0
 17 18  2  0
 18  2  1  0
 11  7  1  0
 18 12  1  0
M  END
>  <alias>  (1119) 
None

>  <rmsd(smina/fragmenstein)>  (1119) 
0.187

>  <smiles>  (1119) 
Cn1cc(C(=O)N2CC(S)C2)c2cc(Cl)ccc21

>  <gnina_score>  (1119) 
5.308

>  <inspiration_score>  (1119) 
None

>  <energy_score>  (1119) 
-1.625659

>  <distance_score>  (1119) 
1.211381

>  <gnina_score_min>  (1119) 
5.308

>  <inchikey>  (1119) 
CTYCWLQLLQWVLN-UHFFFAOYSA-N

>  <exports>  (1119) 
['/opt/xchem-fragalysis-2/maxwin/BulkDock/OUTPUTS/openbind_a71ev2a_c2_elabs_1LOUU54.sdf', '/opt/xchem-fragalysis-2/maxwin/BulkDock/OUTPUTS/openbind_a71ev2a_c2_elabs_1LSYIDY.sdf']

>  <name>  (1119) 
P576943

>  <ref_pdb>  (1119) 
A3066a

>  <subsites>  (1119) 
None

>  <HIPPO Pose ID>  (1119) 
576943

>  <ref_mols>  (1119) 
A3066a

>  <HIPPO Compound ID>  (1119) 
350121

>  <tags>  (1119) 
openbind_a71ev2a_c2_elabs,syndirella_product,openbind_a71ev2a_c2_elabs_fragonly_scored_top80percent,openbind_a71ev2a_c2_elabs_scored,BulkDock Fragalysis export,openbind_a71ev2a_c2_elabs_scored_top80percent,openbind_a71ev2a_c2_elabs_activefrags_only_scored_5.2plus,syndirella_placed

>  <smina_score_min>  (1119) 
-4.951

$$$$
P576944
     RDKit          3D

 18 19  0  0  0  0  0  0  0  0999 V2000
    9.6065   15.6126   20.4567 C   0  0  0  0  0  0  0  0  0  0  0  0
   10.7578   14.9609   20.2498 C   0  0  0  0  0  0  0  0  0  0  0  0
   11.1029   14.7094   18.9661 F   0  0  0  0  0  0  0  0  0  0  0  0
   11.7022   14.5209   21.3307 C   0  0  0  0  0  0  0  0  0  0  0  0
   11.0841   13.4391   22.0297 N   0  0  0  0  0  0  0  0  0  0  0  0
   10.5447   13.3579   23.4593 C   0  0  0  0  0  0  0  0  0  0  0  0
   10.5846   14.1323   24.3247 O   0  0  0  0  0  0  0  0  0  0  0  0
    9.8073   12.1071   23.6694 C   0  0  0  0  0  0  0  0  0  0  0  0
   10.0266   10.8958   23.0486 C   0  0  0  0  0  0  0  0  0  0  0  0
    9.2538    9.9434   23.6481 N   0  0  0  0  0  0  0  0  0  0  0  0
    9.3773    8.5304   23.3769 C   0  0  0  0  0  0  0  0  0  0  0  0
    8.3990   10.5330   24.5496 C   0  0  0  0  0  0  0  0  0  0  0  0
    7.3832    9.9915   25.3471 C   0  0  0  0  0  0  0  0  0  0  0  0
    6.6727   10.8475   26.1899 C   0  0  0  0  0  0  0  0  0  0  0  0
    6.9677   12.2043   26.2293 C   0  0  0  0  0  0  0  0  0  0  0  0
    6.0845   13.2296   27.2924 Cl  0  0  0  0  0  0  0  0  0  0  0  0
    7.9835   12.7423   25.4371 C   0  0  0  0  0  0  0  0  0  0  0  0
    8.7203   11.8938   24.5815 C   0  0  0  0  0  0  0  0  0  0  0  0
  1  2  2  0
  2  3  1  0
  2  4  1  0
  4  5  1  0
  5  6  1  0
  6  7  2  0
  6  8  1  0
  8  9  2  0
  9 10  1  0
 10 11  1  0
 10 12  1  0
 12 13  2  0
 13 14  1  0
 14 15  2  0
 15 16  1  0
 15 17  1  0
 17 18  2  0
 18  8  1  0
 18 12  1  0
M  END
>  <alias>  (1120) 
None

>  <rmsd(smina/fragmenstein)>  (1120) 
0.229

>  <smiles>  (1120) 
C=C(F)CNC(=O)c1cn(C)c2ccc(Cl)cc12

>  <gnina_score>  (1120) 
5.415

>  <inspiration_score>  (1120) 
None

>  <energy_score>  (1120) 
-0.15258

>  <distance_score>  (1120) 
0.409221

>  <gnina_score_min>  (1120) 
5.36

>  <inchikey>  (1120) 
HUYXIPWHWDCXCT-UHFFFAOYSA-N

>  <exports>  (1120) 
['/opt/xchem-fragalysis-2/maxwin/BulkDock/OUTPUTS/openbind_a71ev2a_c2_elabs_1LOUU54.sdf', '/opt/xchem-fragalysis-2/maxwin/BulkDock/OUTPUTS/openbind_a71ev2a_c2_elabs_1LSYIDY.sdf']

>  <name>  (1120) 
P576944

>  <ref_pdb>  (1120) 
A3066a

>  <subsites>  (1120) 
None

>  <HIPPO Pose ID>  (1120) 
576944

>  <ref_mols>  (1120) 
A3066a

>  <HIPPO Compound ID>  (1120) 
350122

>  <tags>  (1120) 
openbind_a71ev2a_c2_elabs,syndirella_product,openbind_a71ev2a_c2_elabs_fragonly_scored_top80percent,openbind_a71ev2a_c2_elabs_scored,BulkDock Fragalysis export,openbind_a71ev2a_c2_elabs_scored_top80percent,openbind_a71ev2a_c2_elabs_activefrags_only_scored_5.2plus,syndirella_placed

>  <smina_score_min>  (1120) 
-7.483

$$$$
P576945
     RDKit          3D

 18 19  0  0  0  0  0  0  0  0999 V2000
   12.7059   14.2101   20.4244 C   0  0  0  0  0  0  0  0  0  0  0  0
   11.9836   14.8568   21.5811 C   0  0  2  0  0  0  0  0  0  0  0  0
   12.5461   13.9189   23.2258 Br  0  0  0  0  0  0  0  0  0  0  0  0
   10.4770   14.8271   21.3602 C   0  0  0  0  0  0  0  0  0  0  0  0
    9.9314   13.6949   22.0146 N   0  0  0  0  0  0  0  0  0  0  0  0
    9.1238   13.5891   23.2991 C   0  0  0  0  0  0  0  0  0  0  0  0
    8.7053   14.4165   23.9939 O   0  0  0  0  0  0  0  0  0  0  0  0
    8.9771   12.1985   23.6957 C   0  0  0  0  0  0  0  0  0  0  0  0
    9.6221   11.0777   23.2033 C   0  0  0  0  0  0  0  0  0  0  0  0
    9.0665    9.9762   23.7923 N   0  0  0  0  0  0  0  0  0  0  0  0
    9.4293    8.6187   23.4509 C   0  0  0  0  0  0  0  0  0  0  0  0
    8.1295   10.3750   24.7171 C   0  0  0  0  0  0  0  0  0  0  0  0
    7.2532    9.6528   25.5193 C   0  0  0  0  0  0  0  0  0  0  0  0
    6.4370   10.3251   26.4309 C   0  0  0  0  0  0  0  0  0  0  0  0
    6.4789   11.7058   26.5216 C   0  0  0  0  0  0  0  0  0  0  0  0
    5.4975   12.5169   27.6787 Cl  0  0  0  0  0  0  0  0  0  0  0  0
    7.2981   12.4392   25.6726 C   0  0  0  0  0  0  0  0  0  0  0  0
    8.1248   11.7638   24.7459 C   0  0  0  0  0  0  0  0  0  0  0  0
  2  1  1  6
  2  3  1  0
  2  4  1  0
  4  5  1  0
  5  6  1  0
  6  7  2  0
  6  8  1  0
  8  9  2  0
  9 10  1  0
 10 11  1  0
 10 12  1  0
 12 13  2  0
 13 14  1  0
 14 15  2  0
 15 16  1  0
 15 17  1  0
 17 18  2  0
 18  8  1  0
 18 12  1  0
M  END
>  <alias>  (1121) 
None

>  <rmsd(smina/fragmenstein)>  (1121) 
0.217

>  <smiles>  (1121) 
C[C@H](Br)CNC(=O)c1cn(C)c2ccc(Cl)cc12

>  <gnina_score>  (1121) 
5.418

>  <inspiration_score>  (1121) 
None

>  <energy_score>  (1121) 
-4.648005

>  <distance_score>  (1121) 
1.24466

>  <gnina_score_min>  (1121) 
5.407

>  <inchikey>  (1121) 
FEIOIMPZNRMFOF-QMMMGPOBSA-N

>  <exports>  (1121) 
['/opt/xchem-fragalysis-2/maxwin/BulkDock/OUTPUTS/openbind_a71ev2a_c2_elabs_1LOUU54.sdf', '/opt/xchem-fragalysis-2/maxwin/BulkDock/OUTPUTS/openbind_a71ev2a_c2_elabs_1LSYIDY.sdf']

>  <name>  (1121) 
P576945

>  <ref_pdb>  (1121) 
A3066a

>  <subsites>  (1121) 
None

>  <HIPPO Pose ID>  (1121) 
576945

>  <ref_mols>  (1121) 
A3066a

>  <HIPPO Compound ID>  (1121) 
350123

>  <tags>  (1121) 
openbind_a71ev2a_c2_elabs,syndirella_product,openbind_a71ev2a_c2_elabs_fragonly_scored_top80percent,openbind_a71ev2a_c2_elabs_scored,BulkDock Fragalysis export,openbind_a71ev2a_c2_elabs_scored_top80percent,openbind_a71ev2a_c2_elabs_activefrags_only_scored_5.2plus,syndirella_placed

>  <smina_score_min>  (1121) 
-6.044

$$$$
P576946
     RDKit          3D

 18 19  0  0  0  0  0  0  0  0999 V2000
   11.5075   14.6425   18.9605 C   0  0  0  0  0  0  0  0  0  0  0  0
   10.7255   14.7028   20.2610 C   0  0  2  0  0  0  0  0  0  0  0  0
    9.6411   16.1608   20.3887 S   0  0  0  0  0  0  0  0  0  0  0  0
   11.6112   14.4859   21.5006 C   0  0  0  0  0  0  0  0  0  0  0  0
   11.0200   13.4005   22.2348 N   0  0  0  0  0  0  0  0  0  0  0  0
   10.4592   13.3513   23.6538 C   0  0  0  0  0  0  0  0  0  0  0  0
   10.4523   14.1581   24.4896 O   0  0  0  0  0  0  0  0  0  0  0  0
    9.7630   12.0801   23.8591 C   0  0  0  0  0  0  0  0  0  0  0  0
   10.0027   10.8842   23.2138 C   0  0  0  0  0  0  0  0  0  0  0  0
    9.2023    9.9214   23.7536 N   0  0  0  0  0  0  0  0  0  0  0  0
    9.3069    8.5232   23.4114 C   0  0  0  0  0  0  0  0  0  0  0  0
    8.3343   10.4878   24.6567 C   0  0  0  0  0  0  0  0  0  0  0  0
    7.2994    9.9313   25.4155 C   0  0  0  0  0  0  0  0  0  0  0  0
    6.5727   10.7656   26.2661 C   0  0  0  0  0  0  0  0  0  0  0  0
    6.8601   12.1218   26.3395 C   0  0  0  0  0  0  0  0  0  0  0  0
    5.9498   13.1249   27.4008 Cl  0  0  0  0  0  0  0  0  0  0  0  0
    7.8909   12.6777   25.5816 C   0  0  0  0  0  0  0  0  0  0  0  0
    8.6554   11.8460   24.7346 C   0  0  0  0  0  0  0  0  0  0  0  0
  2  1  1  6
  2  3  1  0
  2  4  1  0
  4  5  1  0
  5  6  1  0
  6  7  2  0
  6  8  1  0
  8  9  2  0
  9 10  1  0
 10 11  1  0
 10 12  1  0
 12 13  2  0
 13 14  1  0
 14 15  2  0
 15 16  1  0
 15 17  1  0
 17 18  2  0
 18  8  1  0
 18 12  1  0
M  END
>  <alias>  (1122) 
None

>  <rmsd(smina/fragmenstein)>  (1122) 
0.324

>  <smiles>  (1122) 
C[C@H](S)CNC(=O)c1cn(C)c2ccc(Cl)cc12

>  <gnina_score>  (1122) 
5.634

>  <inspiration_score>  (1122) 
None

>  <energy_score>  (1122) 
-6.111877

>  <distance_score>  (1122) 
0.461233

>  <gnina_score_min>  (1122) 
5.656

>  <inchikey>  (1122) 
ORASQIZDCDPSQJ-QMMMGPOBSA-N

>  <exports>  (1122) 
['/opt/xchem-fragalysis-2/maxwin/BulkDock/OUTPUTS/openbind_a71ev2a_c2_elabs_1LOUU54.sdf', '/opt/xchem-fragalysis-2/maxwin/BulkDock/OUTPUTS/openbind_a71ev2a_c2_elabs_1LSYIDY.sdf']

>  <name>  (1122) 
P576946

>  <ref_pdb>  (1122) 
A3066a

>  <subsites>  (1122) 
None

>  <HIPPO Pose ID>  (1122) 
576946

>  <ref_mols>  (1122) 
A3066a

>  <HIPPO Compound ID>  (1122) 
350125

>  <tags>  (1122) 
openbind_a71ev2a_c2_elabs,syndirella_product,openbind_a71ev2a_c2_elabs_fragonly_scored_top80percent,BulkDock Fragalysis export,openbind_a71ev2a_c2_elabs_scored,openbind_a71ev2a_c2_elabs_scored_top80percent,openbind_a71ev2a_c2_elabs_activefrags_only_scored_5.2plus,openbind_a71ev2a_c2_elabs_activefrags_only_scored_5.5plus,syndirella_placed

>  <smina_score_min>  (1122) 
-6.636

$$$$
P576948
     RDKit          3D

 18 19  0  0  0  0  0  0  0  0999 V2000
   11.3810   14.4736   19.4781 C   0  0  0  0  0  0  0  0  0  0  0  0
   12.3387   14.2813   20.6318 C   0  0  0  0  0  0  0  0  0  0  0  0
   11.9099   15.1259   21.8141 C   0  0  0  0  0  0  0  0  0  0  0  0
   12.2612   14.4661   23.1200 C   0  0  0  0  0  0  0  0  0  0  0  0
   11.3616   13.4043   23.3847 N   0  0  0  0  0  0  0  0  0  0  0  0
    9.9017   13.4285   23.8096 C   0  0  0  0  0  0  0  0  0  0  0  0
    9.2147   14.3189   24.0876 O   0  0  0  0  0  0  0  0  0  0  0  0
    9.3927   12.0835   23.9307 C   0  0  0  0  0  0  0  0  0  0  0  0
    9.7936   10.9552   23.2476 C   0  0  0  0  0  0  0  0  0  0  0  0
    9.0990    9.8928   23.7494 N   0  0  0  0  0  0  0  0  0  0  0  0
    9.3243    8.5286   23.3321 C   0  0  0  0  0  0  0  0  0  0  0  0
    8.1877   10.3330   24.6838 C   0  0  0  0  0  0  0  0  0  0  0  0
    7.2283    9.6607   25.4353 C   0  0  0  0  0  0  0  0  0  0  0  0
    6.4385   10.3721   26.3407 C   0  0  0  0  0  0  0  0  0  0  0  0
    6.5905   11.7418   26.4782 C   0  0  0  0  0  0  0  0  0  0  0  0
    5.6254   12.5984   27.6152 Cl  0  0  0  0  0  0  0  0  0  0  0  0
    7.5320   12.4246   25.7171 C   0  0  0  0  0  0  0  0  0  0  0  0
    8.3437   11.7079   24.8090 C   0  0  0  0  0  0  0  0  0  0  0  0
  1  2  1  0
  2  3  1  0
  3  4  1  0
  4  5  1  0
  5  6  1  0
  6  7  2  0
  6  8  1  0
  8  9  2  0
  9 10  1  0
 10 11  1  0
 10 12  1  0
 12 13  2  0
 13 14  1  0
 14 15  2  0
 15 16  1  0
 15 17  1  0
 17 18  2  0
 18  8  1  0
 18 12  1  0
M  END
>  <alias>  (1123) 
None

>  <rmsd(smina/fragmenstein)>  (1123) 
1.062

>  <smiles>  (1123) 
CCCCNC(=O)c1cn(C)c2ccc(Cl)cc12

>  <gnina_score>  (1123) 
5.247

>  <inspiration_score>  (1123) 
None

>  <energy_score>  (1123) 
-3.102004

>  <distance_score>  (1123) 
0.855134

>  <gnina_score_min>  (1123) 
5.551

>  <inchikey>  (1123) 
DYGNSPVQCPIIRG-UHFFFAOYSA-N

>  <exports>  (1123) 
['/opt/xchem-fragalysis-2/maxwin/BulkDock/OUTPUTS/openbind_a71ev2a_c2_elabs_1LOUU54.sdf', '/opt/xchem-fragalysis-2/maxwin/BulkDock/OUTPUTS/openbind_a71ev2a_c2_elabs_1LSYIDY.sdf']

>  <name>  (1123) 
P576948

>  <ref_pdb>  (1123) 
A3066a

>  <subsites>  (1123) 
None

>  <HIPPO Pose ID>  (1123) 
576948

>  <ref_mols>  (1123) 
A3066a

>  <HIPPO Compound ID>  (1123) 
350127

>  <tags>  (1123) 
openbind_a71ev2a_c2_elabs,syndirella_product,openbind_a71ev2a_c2_elabs_fragonly_scored_top80percent,BulkDock Fragalysis export,openbind_a71ev2a_c2_elabs_scored,openbind_a71ev2a_c2_elabs_scored_top80percent,openbind_a71ev2a_c2_elabs_activefrags_only_scored_5.2plus,openbind_a71ev2a_c2_elabs_activefrags_only_scored_5.5plus,syndirella_placed

>  <smina_score_min>  (1123) 
-6.753

$$$$
P576950
     RDKit          3D

 18 19  0  0  0  0  0  0  0  0999 V2000
    9.1392    8.4031   23.5018 C   0  0  0  0  0  0  0  0  0  0  0  0
    9.0521    9.8108   23.7762 N   0  0  0  0  0  0  0  0  0  0  0  0
    9.9028   10.6958   23.2015 C   0  0  0  0  0  0  0  0  0  0  0  0
    9.7755   11.9040   23.8504 C   0  0  0  0  0  0  0  0  0  0  0  0
   10.6998   13.0214   23.7192 C   0  0  0  0  0  0  0  0  0  0  0  0
   10.8664   13.7512   24.6108 O   0  0  0  0  0  0  0  0  0  0  0  0
   11.3801   12.9548   22.3511 N   0  0  0  0  0  0  0  0  0  0  0  0
   12.3397   13.8228   21.7490 C   0  0  0  0  0  0  0  0  0  0  0  0
   11.6965   15.1336   21.3437 C   0  0  0  0  0  0  0  0  0  0  0  0
   10.8026   15.0904   20.4459 O   0  0  0  0  0  0  0  0  0  0  0  0
   12.1542   16.1173   21.9843 O   0  0  0  0  0  0  0  0  0  0  0  0
    8.6453   11.7873   24.7119 C   0  0  0  0  0  0  0  0  0  0  0  0
    7.9651   12.6909   25.5550 C   0  0  0  0  0  0  0  0  0  0  0  0
    6.9149   12.2250   26.3449 C   0  0  0  0  0  0  0  0  0  0  0  0
    6.1038   13.3067   27.4111 Cl  0  0  0  0  0  0  0  0  0  0  0  0
    6.5336   10.8890   26.3113 C   0  0  0  0  0  0  0  0  0  0  0  0
    7.1787    9.9838   25.4668 C   0  0  0  0  0  0  0  0  0  0  0  0
    8.2303   10.4515   24.6717 C   0  0  0  0  0  0  0  0  0  0  0  0
  1  2  1  0
  2  3  1  0
  3  4  2  0
  4  5  1  0
  5  6  2  0
  5  7  1  0
  7  8  1  0
  8  9  1  0
  9 10  2  0
  9 11  1  0
  4 12  1  0
 12 13  2  0
 13 14  1  0
 14 15  1  0
 14 16  2  0
 16 17  1  0
 17 18  2  0
 18  2  1  0
 18 12  1  0
M  CHG  1  11  -1
M  END
>  <alias>  (1124) 
None

>  <rmsd(smina/fragmenstein)>  (1124) 
0.211

>  <smiles>  (1124) 
Cn1cc(C(=O)NCC(=O)[O-])c2cc(Cl)ccc21

>  <gnina_score>  (1124) 
5.222

>  <inspiration_score>  (1124) 
None

>  <energy_score>  (1124) 
-14.398687

>  <distance_score>  (1124) 
0.454882

>  <gnina_score_min>  (1124) 
5.226

>  <inchikey>  (1124) 
RZTNSRFQZYHBEC-UHFFFAOYSA-M

>  <exports>  (1124) 
['/opt/xchem-fragalysis-2/maxwin/BulkDock/OUTPUTS/openbind_a71ev2a_c2_elabs_1LOUU54.sdf', '/opt/xchem-fragalysis-2/maxwin/BulkDock/OUTPUTS/openbind_a71ev2a_c2_elabs_1LSYIDY.sdf']

>  <name>  (1124) 
P576950

>  <ref_pdb>  (1124) 
A3066a

>  <subsites>  (1124) 
None

>  <HIPPO Pose ID>  (1124) 
576950

>  <ref_mols>  (1124) 
A3066a

>  <HIPPO Compound ID>  (1124) 
350131

>  <tags>  (1124) 
openbind_a71ev2a_c2_elabs,syndirella_product,openbind_a71ev2a_c2_elabs_fragonly_scored_top80percent,openbind_a71ev2a_c2_elabs_scored,BulkDock Fragalysis export,openbind_a71ev2a_c2_elabs_scored_top80percent,openbind_a71ev2a_c2_elabs_activefrags_only_scored_5.2plus,syndirella_placed

>  <smina_score_min>  (1124) 
-6.33

$$$$
P576952
     RDKit          3D

 18 19  0  0  0  0  0  0  0  0999 V2000
   12.5178   14.9761   21.9634 C   0  0  0  0  0  0  0  0  0  0  0  0
   11.2564   14.5410   21.2348 C   0  0  2  0  0  0  0  0  0  0  0  0
   10.1995   15.6545   21.1711 C   0  0  0  0  0  0  0  0  0  0  0  0
    9.0757   15.6027   19.7541 S   0  0  0  0  0  0  0  0  0  0  0  0
   10.7315   13.4233   21.9713 N   0  0  0  0  0  0  0  0  0  0  0  0
   10.2787   13.3174   23.4312 C   0  0  0  0  0  0  0  0  0  0  0  0
   10.3285   14.0949   24.2941 O   0  0  0  0  0  0  0  0  0  0  0  0
    9.6376   12.0368   23.6781 C   0  0  0  0  0  0  0  0  0  0  0  0
    9.9365   10.8322   23.0825 C   0  0  0  0  0  0  0  0  0  0  0  0
    9.1998    9.8571   23.6870 N   0  0  0  0  0  0  0  0  0  0  0  0
    9.3837    8.4525   23.4156 C   0  0  0  0  0  0  0  0  0  0  0  0
    8.3237   10.4189   24.5875 C   0  0  0  0  0  0  0  0  0  0  0  0
    7.3285    9.8538   25.3904 C   0  0  0  0  0  0  0  0  0  0  0  0
    6.5963   10.6856   26.2396 C   0  0  0  0  0  0  0  0  0  0  0  0
    6.8450   12.0504   26.2762 C   0  0  0  0  0  0  0  0  0  0  0  0
    5.9368   13.0487   27.3431 Cl  0  0  0  0  0  0  0  0  0  0  0  0
    7.8307   12.6180   25.4701 C   0  0  0  0  0  0  0  0  0  0  0  0
    8.5862   11.7893   24.6115 C   0  0  0  0  0  0  0  0  0  0  0  0
  2  1  1  1
  2  3  1  0
  3  4  1  0
  2  5  1  0
  5  6  1  0
  6  7  2  0
  6  8  1  0
  8  9  2  0
  9 10  1  0
 10 11  1  0
 10 12  1  0
 12 13  2  0
 13 14  1  0
 14 15  2  0
 15 16  1  0
 15 17  1  0
 17 18  2  0
 18  8  1  0
 18 12  1  0
M  END
>  <alias>  (1125) 
None

>  <rmsd(smina/fragmenstein)>  (1125) 
0.32

>  <smiles>  (1125) 
C[C@H](CS)NC(=O)c1cn(C)c2ccc(Cl)cc12

>  <gnina_score>  (1125) 
5.759

>  <inspiration_score>  (1125) 
None

>  <energy_score>  (1125) 
-8.740295

>  <distance_score>  (1125) 
0.598663

>  <gnina_score_min>  (1125) 
5.744

>  <inchikey>  (1125) 
MMGSRCSFAJETCO-MRVPVSSYSA-N

>  <exports>  (1125) 
['/opt/xchem-fragalysis-2/maxwin/BulkDock/OUTPUTS/openbind_a71ev2a_c2_elabs_1LOUU54.sdf', '/opt/xchem-fragalysis-2/maxwin/BulkDock/OUTPUTS/openbind_a71ev2a_c2_elabs_1LSYIDY.sdf']

>  <name>  (1125) 
P576952

>  <ref_pdb>  (1125) 
A3066a

>  <subsites>  (1125) 
None

>  <HIPPO Pose ID>  (1125) 
576952

>  <ref_mols>  (1125) 
A3066a

>  <HIPPO Compound ID>  (1125) 
350134

>  <tags>  (1125) 
openbind_a71ev2a_c2_elabs,syndirella_product,openbind_a71ev2a_c2_elabs_fragonly_scored_top80percent,BulkDock Fragalysis export,openbind_a71ev2a_c2_elabs_scored,openbind_a71ev2a_c2_elabs_scored_top80percent,openbind_a71ev2a_c2_elabs_activefrags_only_scored_5.2plus,openbind_a71ev2a_c2_elabs_activefrags_only_scored_5.5plus,syndirella_placed

>  <smina_score_min>  (1125) 
-6.553

$$$$
P576953
     RDKit          3D

 18 19  0  0  0  0  0  0  0  0999 V2000
    9.3324    8.6277   23.3456 C   0  0  0  0  0  0  0  0  0  0  0  0
    9.1116   10.0019   23.7362 N   0  0  0  0  0  0  0  0  0  0  0  0
    9.8037   11.0601   23.2196 C   0  0  0  0  0  0  0  0  0  0  0  0
    9.4033   12.1966   23.8917 C   0  0  0  0  0  0  0  0  0  0  0  0
    9.9638   13.5159   23.7326 C   0  0  0  0  0  0  0  0  0  0  0  0
   10.3705   14.0963   24.6531 O   0  0  0  0  0  0  0  0  0  0  0  0
    9.9829   13.8746   22.2464 N   0  0  0  0  0  0  0  0  0  0  0  0
   10.5912   14.9821   21.5604 C   0  0  0  0  0  0  0  0  0  0  0  0
   12.0617   15.0357   21.9757 C   0  0  0  0  0  0  0  0  0  0  0  0
   12.7207   13.7627   21.6806 N   0  0  0  0  0  0  0  0  0  0  0  0
   12.6882   13.6482   20.2275 O   0  0  0  0  0  0  0  0  0  0  0  0
    8.3862   11.8287   24.8022 C   0  0  0  0  0  0  0  0  0  0  0  0
    7.5985   12.5564   25.7172 C   0  0  0  0  0  0  0  0  0  0  0  0
    6.6527   11.8791   26.4821 C   0  0  0  0  0  0  0  0  0  0  0  0
    5.6963   12.7471   27.6186 Cl  0  0  0  0  0  0  0  0  0  0  0  0
    6.4808   10.5083   26.3468 C   0  0  0  0  0  0  0  0  0  0  0  0
    7.2528    9.7809   25.4382 C   0  0  0  0  0  0  0  0  0  0  0  0
    8.2087   10.4522   24.6763 C   0  0  0  0  0  0  0  0  0  0  0  0
  1  2  1  0
  2  3  1  0
  3  4  2  0
  4  5  1  0
  5  6  2  0
  5  7  1  0
  7  8  1  0
  8  9  1  0
  9 10  1  0
 10 11  1  0
  4 12  1  0
 12 13  2  0
 13 14  1  0
 14 15  1  0
 14 16  2  0
 16 17  1  0
 17 18  2  0
 18  2  1  0
 18 12  1  0
M  END
>  <alias>  (1126) 
None

>  <rmsd(smina/fragmenstein)>  (1126) 
0.308

>  <smiles>  (1126) 
Cn1cc(C(=O)NCCNO)c2cc(Cl)ccc21

>  <gnina_score>  (1126) 
5.498

>  <inspiration_score>  (1126) 
None

>  <energy_score>  (1126) 
-6.707271

>  <distance_score>  (1126) 
0.872287

>  <gnina_score_min>  (1126) 
5.528

>  <inchikey>  (1126) 
ULPSAWPOJUSBFY-UHFFFAOYSA-N

>  <exports>  (1126) 
['/opt/xchem-fragalysis-2/maxwin/BulkDock/OUTPUTS/openbind_a71ev2a_c2_elabs_1LOUU54.sdf', '/opt/xchem-fragalysis-2/maxwin/BulkDock/OUTPUTS/openbind_a71ev2a_c2_elabs_1LSYIDY.sdf']

>  <name>  (1126) 
P576953

>  <ref_pdb>  (1126) 
A3066a

>  <subsites>  (1126) 
None

>  <HIPPO Pose ID>  (1126) 
576953

>  <ref_mols>  (1126) 
A3066a

>  <HIPPO Compound ID>  (1126) 
350136

>  <tags>  (1126) 
openbind_a71ev2a_c2_elabs,syndirella_product,openbind_a71ev2a_c2_elabs_fragonly_scored_top80percent,BulkDock Fragalysis export,openbind_a71ev2a_c2_elabs_scored,openbind_a71ev2a_c2_elabs_scored_top80percent,openbind_a71ev2a_c2_elabs_activefrags_only_scored_5.2plus,openbind_a71ev2a_c2_elabs_activefrags_only_scored_5.5plus,syndirella_placed

>  <smina_score_min>  (1126) 
-6.988

$$$$
P576954
     RDKit          3D

 18 19  0  0  0  0  0  0  0  0999 V2000
   12.6238   14.8339   21.6288 C   0  0  0  0  0  0  0  0  0  0  0  0
   11.5460   14.7541   20.8388 C   0  0  0  0  0  0  0  0  0  0  0  0
   11.6916   14.4308   19.0135 Br  0  0  0  0  0  0  0  0  0  0  0  0
   10.1573   14.9911   21.3248 C   0  0  0  0  0  0  0  0  0  0  0  0
    9.7816   13.8711   22.1211 N   0  0  0  0  0  0  0  0  0  0  0  0
   10.1047   13.5336   23.5751 C   0  0  0  0  0  0  0  0  0  0  0  0
   10.6658   14.1494   24.3852 O   0  0  0  0  0  0  0  0  0  0  0  0
    9.5637   12.2200   23.8471 C   0  0  0  0  0  0  0  0  0  0  0  0
    9.9275   11.0664   23.1852 C   0  0  0  0  0  0  0  0  0  0  0  0
    9.2140   10.0286   23.7083 N   0  0  0  0  0  0  0  0  0  0  0  0
    9.3749    8.6521   23.2962 C   0  0  0  0  0  0  0  0  0  0  0  0
    8.3226   10.5060   24.6466 C   0  0  0  0  0  0  0  0  0  0  0  0
    7.3419    9.8574   25.4006 C   0  0  0  0  0  0  0  0  0  0  0  0
    6.5700   10.6133   26.2854 C   0  0  0  0  0  0  0  0  0  0  0  0
    6.7672   11.9837   26.4040 C   0  0  0  0  0  0  0  0  0  0  0  0
    5.8044   12.8844   27.5100 Cl  0  0  0  0  0  0  0  0  0  0  0  0
    7.7410   12.6354   25.6490 C   0  0  0  0  0  0  0  0  0  0  0  0
    8.5353   11.8821   24.7611 C   0  0  0  0  0  0  0  0  0  0  0  0
  1  2  2  0
  2  3  1  0
  2  4  1  0
  4  5  1  0
  5  6  1  0
  6  7  2  0
  6  8  1  0
  8  9  2  0
  9 10  1  0
 10 11  1  0
 10 12  1  0
 12 13  2  0
 13 14  1  0
 14 15  2  0
 15 16  1  0
 15 17  1  0
 17 18  2  0
 18  8  1  0
 18 12  1  0
M  END
>  <alias>  (1127) 
None

>  <rmsd(smina/fragmenstein)>  (1127) 
0.179

>  <smiles>  (1127) 
C=C(Br)CNC(=O)c1cn(C)c2ccc(Cl)cc12

>  <gnina_score>  (1127) 
5.376

>  <inspiration_score>  (1127) 
None

>  <energy_score>  (1127) 
-1.699866

>  <distance_score>  (1127) 
0.910325

>  <gnina_score_min>  (1127) 
5.378

>  <inchikey>  (1127) 
JLYRPFHDJKYANU-UHFFFAOYSA-N

>  <exports>  (1127) 
['/opt/xchem-fragalysis-2/maxwin/BulkDock/OUTPUTS/openbind_a71ev2a_c2_elabs_1LOUU54.sdf', '/opt/xchem-fragalysis-2/maxwin/BulkDock/OUTPUTS/openbind_a71ev2a_c2_elabs_1LSYIDY.sdf']

>  <name>  (1127) 
P576954

>  <ref_pdb>  (1127) 
A3066a

>  <subsites>  (1127) 
None

>  <HIPPO Pose ID>  (1127) 
576954

>  <ref_mols>  (1127) 
A3066a

>  <HIPPO Compound ID>  (1127) 
350137

>  <tags>  (1127) 
openbind_a71ev2a_c2_elabs,syndirella_product,openbind_a71ev2a_c2_elabs_fragonly_scored_top80percent,openbind_a71ev2a_c2_elabs_scored,BulkDock Fragalysis export,openbind_a71ev2a_c2_elabs_scored_top80percent,openbind_a71ev2a_c2_elabs_activefrags_only_scored_5.2plus,syndirella_placed

>  <smina_score_min>  (1127) 
-6.267

$$$$
P576955
     RDKit          3D

 18 20  0  0  0  0  0  0  0  0999 V2000
    9.3685    8.6857   23.1925 C   0  0  0  0  0  0  0  0  0  0  0  0
    9.2700   10.0701   23.5975 N   0  0  0  0  0  0  0  0  0  0  0  0
   10.0285   11.0710   23.0667 C   0  0  0  0  0  0  0  0  0  0  0  0
    9.7876   12.2324   23.7681 C   0  0  0  0  0  0  0  0  0  0  0  0
   10.5213   13.4825   23.6042 C   0  0  0  0  0  0  0  0  0  0  0  0
   10.7960   14.1367   24.5432 O   0  0  0  0  0  0  0  0  0  0  0  0
   10.7713   13.7260   22.1431 N   0  0  0  0  0  0  0  0  0  0  0  0
   11.5356   14.8283   21.4425 C   0  0  0  0  0  0  0  0  0  0  0  0
   10.4952   14.8880   20.3574 C   0  0  0  0  0  0  0  0  0  0  0  0
   10.2107   16.0828   19.7925 F   0  0  0  0  0  0  0  0  0  0  0  0
    9.5982   14.4965   21.4880 C   0  0  0  0  0  0  0  0  0  0  0  0
    8.7110   11.9506   24.6617 C   0  0  0  0  0  0  0  0  0  0  0  0
    7.9569   12.7367   25.5580 C   0  0  0  0  0  0  0  0  0  0  0  0
    6.9474   12.1337   26.3108 C   0  0  0  0  0  0  0  0  0  0  0  0
    6.0353   13.0819   27.4208 Cl  0  0  0  0  0  0  0  0  0  0  0  0
    6.6825   10.7739   26.1974 C   0  0  0  0  0  0  0  0  0  0  0  0
    7.4151    9.9797   25.3135 C   0  0  0  0  0  0  0  0  0  0  0  0
    8.4154   10.5877   24.5459 C   0  0  0  0  0  0  0  0  0  0  0  0
  1  2  1  0
  2  3  1  0
  3  4  2  0
  4  5  1  0
  5  6  2  0
  5  7  1  0
  7  8  1  0
  8  9  1  0
  9 10  1  0
  9 11  1  0
  4 12  1  0
 12 13  2  0
 13 14  1  0
 14 15  1  0
 14 16  2  0
 16 17  1  0
 17 18  2  0
 18  2  1  0
 11  7  1  0
 18 12  1  0
M  END
>  <alias>  (1128) 
None

>  <rmsd(smina/fragmenstein)>  (1128) 
0.275

>  <smiles>  (1128) 
Cn1cc(C(=O)N2CC(F)C2)c2cc(Cl)ccc21

>  <gnina_score>  (1128) 
5.288

>  <inspiration_score>  (1128) 
None

>  <energy_score>  (1128) 
-0.572356

>  <distance_score>  (1128) 
0.449484

>  <gnina_score_min>  (1128) 
5.252

>  <inchikey>  (1128) 
LOHCFKVSRXQBGU-UHFFFAOYSA-N

>  <exports>  (1128) 
['/opt/xchem-fragalysis-2/maxwin/BulkDock/OUTPUTS/openbind_a71ev2a_c2_elabs_1LOUU54.sdf', '/opt/xchem-fragalysis-2/maxwin/BulkDock/OUTPUTS/openbind_a71ev2a_c2_elabs_1LSYIDY.sdf']

>  <name>  (1128) 
P576955

>  <ref_pdb>  (1128) 
A3066a

>  <subsites>  (1128) 
None

>  <HIPPO Pose ID>  (1128) 
576955

>  <ref_mols>  (1128) 
A3066a

>  <HIPPO Compound ID>  (1128) 
350138

>  <tags>  (1128) 
openbind_a71ev2a_c2_elabs,syndirella_product,openbind_a71ev2a_c2_elabs_fragonly_scored_top80percent,openbind_a71ev2a_c2_elabs_scored,BulkDock Fragalysis export,openbind_a71ev2a_c2_elabs_scored_top80percent,openbind_a71ev2a_c2_elabs_activefrags_only_scored_5.2plus,syndirella_placed

>  <smina_score_min>  (1128) 
-8.001

$$$$
P576956
     RDKit          3D

 18 19  0  0  0  0  0  0  0  0999 V2000
   12.4098   14.1817   20.7257 C   0  0  0  0  0  0  0  0  0  0  0  0
   11.1157   14.7167   20.1692 C   0  0  0  0  0  0  0  0  0  0  0  0
   10.9750   14.9526   18.9658 O   0  0  0  0  0  0  0  0  0  0  0  0
   10.0528   15.1326   21.1635 C   0  0  0  0  0  0  0  0  0  0  0  0
    9.7057   14.0367   22.0181 N   0  0  0  0  0  0  0  0  0  0  0  0
   10.2091   13.6664   23.4156 C   0  0  0  0  0  0  0  0  0  0  0  0
   10.9300   14.2320   24.1321 O   0  0  0  0  0  0  0  0  0  0  0  0
    9.6587   12.3605   23.7396 C   0  0  0  0  0  0  0  0  0  0  0  0
   10.0203   11.1931   23.0999 C   0  0  0  0  0  0  0  0  0  0  0  0
    9.3068   10.1587   23.6332 N   0  0  0  0  0  0  0  0  0  0  0  0
    9.4487    8.7773   23.2218 C   0  0  0  0  0  0  0  0  0  0  0  0
    8.4223   10.6452   24.5726 C   0  0  0  0  0  0  0  0  0  0  0  0
    7.4523    9.9922   25.3422 C   0  0  0  0  0  0  0  0  0  0  0  0
    6.6745   10.7553   26.2148 C   0  0  0  0  0  0  0  0  0  0  0  0
    6.8608   12.1295   26.3097 C   0  0  0  0  0  0  0  0  0  0  0  0
    5.8921   13.0405   27.4021 Cl  0  0  0  0  0  0  0  0  0  0  0  0
    7.8286   12.7821   25.5428 C   0  0  0  0  0  0  0  0  0  0  0  0
    8.6294   12.0274   24.6622 C   0  0  0  0  0  0  0  0  0  0  0  0
  1  2  1  0
  2  3  2  0
  2  4  1  0
  4  5  1  0
  5  6  1  0
  6  7  2  0
  6  8  1  0
  8  9  2  0
  9 10  1  0
 10 11  1  0
 10 12  1  0
 12 13  2  0
 13 14  1  0
 14 15  2  0
 15 16  1  0
 15 17  1  0
 17 18  2  0
 18  8  1  0
 18 12  1  0
M  END
>  <alias>  (1129) 
None

>  <rmsd(smina/fragmenstein)>  (1129) 
0.678

>  <smiles>  (1129) 
CC(=O)CNC(=O)c1cn(C)c2ccc(Cl)cc12

>  <gnina_score>  (1129) 
5.279

>  <inspiration_score>  (1129) 
None

>  <energy_score>  (1129) 
-0.294279

>  <distance_score>  (1129) 
0.940475

>  <gnina_score_min>  (1129) 
5.325

>  <inchikey>  (1129) 
CRULDQDPWOHZCH-UHFFFAOYSA-N

>  <exports>  (1129) 
['/opt/xchem-fragalysis-2/maxwin/BulkDock/OUTPUTS/openbind_a71ev2a_c2_elabs_1LOUU54.sdf', '/opt/xchem-fragalysis-2/maxwin/BulkDock/OUTPUTS/openbind_a71ev2a_c2_elabs_1LSYIDY.sdf']

>  <name>  (1129) 
P576956

>  <ref_pdb>  (1129) 
A3066a

>  <subsites>  (1129) 
None

>  <HIPPO Pose ID>  (1129) 
576956

>  <ref_mols>  (1129) 
A3066a

>  <HIPPO Compound ID>  (1129) 
350140

>  <tags>  (1129) 
openbind_a71ev2a_c2_elabs,syndirella_product,openbind_a71ev2a_c2_elabs_fragonly_scored_top80percent,openbind_a71ev2a_c2_elabs_scored,BulkDock Fragalysis export,openbind_a71ev2a_c2_elabs_scored_top80percent,openbind_a71ev2a_c2_elabs_activefrags_only_scored_5.2plus,syndirella_placed

>  <smina_score_min>  (1129) 
-6.868

$$$$
P576957
     RDKit          3D

 18 20  0  0  0  0  0  0  0  0999 V2000
    9.3353    8.4916   23.3935 C   0  0  0  0  0  0  0  0  0  0  0  0
    9.1737    9.8788   23.7576 N   0  0  0  0  0  0  0  0  0  0  0  0
    9.9245   10.8809   23.2201 C   0  0  0  0  0  0  0  0  0  0  0  0
    9.5999   12.0566   23.8603 C   0  0  0  0  0  0  0  0  0  0  0  0
   10.1814   13.3614   23.6210 C   0  0  0  0  0  0  0  0  0  0  0  0
   10.2957   14.1263   24.4909 O   0  0  0  0  0  0  0  0  0  0  0  0
   10.4655   13.5107   22.1225 N   0  0  0  0  0  0  0  0  0  0  0  0
   11.0247   14.5718   21.4053 C   0  0  0  0  0  0  0  0  0  0  0  0
   10.0009   15.5063   20.8050 C   0  0  0  0  0  0  0  0  0  0  0  0
   12.2631   14.3023   20.5898 C   0  0  0  0  0  0  0  0  0  0  0  0
   12.3576   15.0993   21.8497 C   0  0  0  0  0  0  0  0  0  0  0  0
    8.5409   11.7681   24.7632 C   0  0  0  0  0  0  0  0  0  0  0  0
    7.7586   12.5633   25.6279 C   0  0  0  0  0  0  0  0  0  0  0  0
    6.7607   11.9609   26.3904 C   0  0  0  0  0  0  0  0  0  0  0  0
    5.8217   12.9138   27.4718 Cl  0  0  0  0  0  0  0  0  0  0  0  0
    6.5240   10.5967   26.2978 C   0  0  0  0  0  0  0  0  0  0  0  0
    7.2762    9.8030   25.4296 C   0  0  0  0  0  0  0  0  0  0  0  0
    8.2855   10.4000   24.6722 C   0  0  0  0  0  0  0  0  0  0  0  0
  1  2  1  0
  2  3  1  0
  3  4  2  0
  4  5  1  0
  5  6  2  0
  5  7  1  0
  7  8  1  0
  8  9  1  0
  8 10  1  0
 10 11  1  0
  4 12  1  0
 12 13  2  0
 13 14  1  0
 14 15  1  0
 14 16  2  0
 16 17  1  0
 17 18  2  0
 18  2  1  0
 11  8  1  0
 18 12  1  0
M  END
>  <alias>  (1130) 
None

>  <rmsd(smina/fragmenstein)>  (1130) 
0.24

>  <smiles>  (1130) 
Cn1cc(C(=O)NC2(C)CC2)c2cc(Cl)ccc21

>  <gnina_score>  (1130) 
5.572

>  <inspiration_score>  (1130) 
None

>  <energy_score>  (1130) 
-1.572107

>  <distance_score>  (1130) 
0.680766

>  <gnina_score_min>  (1130) 
5.566

>  <inchikey>  (1130) 
VLINRHVPJXFKDU-UHFFFAOYSA-N

>  <exports>  (1130) 
['/opt/xchem-fragalysis-2/maxwin/BulkDock/OUTPUTS/openbind_a71ev2a_c2_elabs_1LOUU54.sdf', '/opt/xchem-fragalysis-2/maxwin/BulkDock/OUTPUTS/openbind_a71ev2a_c2_elabs_1LSYIDY.sdf']

>  <name>  (1130) 
P576957

>  <ref_pdb>  (1130) 
A3066a

>  <subsites>  (1130) 
None

>  <HIPPO Pose ID>  (1130) 
576957

>  <ref_mols>  (1130) 
A3066a

>  <HIPPO Compound ID>  (1130) 
350142

>  <tags>  (1130) 
openbind_a71ev2a_c2_elabs,syndirella_product,openbind_a71ev2a_c2_elabs_fragonly_scored_top80percent,BulkDock Fragalysis export,openbind_a71ev2a_c2_elabs_scored,openbind_a71ev2a_c2_elabs_scored_top80percent,openbind_a71ev2a_c2_elabs_activefrags_only_scored_5.2plus,openbind_a71ev2a_c2_elabs_activefrags_only_scored_5.5plus,syndirella_placed

>  <smina_score_min>  (1130) 
-7.542

$$$$
P576958
     RDKit          3D

 18 19  0  0  0  0  0  0  0  0999 V2000
    9.9311   15.4581   20.7499 C   0  0  0  0  0  0  0  0  0  0  0  0
   11.0791   14.5735   21.2240 C   0  0  1  0  0  0  0  0  0  0  0  0
   12.0517   15.2809   22.1629 C   0  0  0  0  0  0  0  0  0  0  0  0
   13.2307   14.5119   22.3630 O   0  0  0  0  0  0  0  0  0  0  0  0
   10.5197   13.4614   21.9381 N   0  0  0  0  0  0  0  0  0  0  0  0
    9.8668   13.3943   23.3188 C   0  0  0  0  0  0  0  0  0  0  0  0
    9.6067   14.2404   24.0705 O   0  0  0  0  0  0  0  0  0  0  0  0
    9.4436   12.0450   23.6469 C   0  0  0  0  0  0  0  0  0  0  0  0
    9.8791   10.8570   23.1044 C   0  0  0  0  0  0  0  0  0  0  0  0
    9.2024    9.8350   23.7039 N   0  0  0  0  0  0  0  0  0  0  0  0
    9.4469    8.4458   23.3999 C   0  0  0  0  0  0  0  0  0  0  0  0
    8.2946   10.3394   24.6065 C   0  0  0  0  0  0  0  0  0  0  0  0
    7.3379    9.7166   25.4082 C   0  0  0  0  0  0  0  0  0  0  0  0
    6.5548   10.4901   26.2666 C   0  0  0  0  0  0  0  0  0  0  0  0
    6.7114   11.8660   26.3082 C   0  0  0  0  0  0  0  0  0  0  0  0
    5.7481   12.8006   27.3842 Cl  0  0  0  0  0  0  0  0  0  0  0  0
    7.6427   12.4964   25.4875 C   0  0  0  0  0  0  0  0  0  0  0  0
    8.4500   11.7224   24.6212 C   0  0  0  0  0  0  0  0  0  0  0  0
  2  1  1  1
  2  3  1  0
  3  4  1  0
  2  5  1  0
  5  6  1  0
  6  7  2  0
  6  8  1  0
  8  9  2  0
  9 10  1  0
 10 11  1  0
 10 12  1  0
 12 13  2  0
 13 14  1  0
 14 15  2  0
 15 16  1  0
 15 17  1  0
 17 18  2  0
 18  8  1  0
 18 12  1  0
M  END
>  <alias>  (1131) 
None

>  <rmsd(smina/fragmenstein)>  (1131) 
0.489

>  <smiles>  (1131) 
C[C@@H](CO)NC(=O)c1cn(C)c2ccc(Cl)cc12

>  <gnina_score>  (1131) 
5.393

>  <inspiration_score>  (1131) 
None

>  <energy_score>  (1131) 
-7.675118

>  <distance_score>  (1131) 
0.814878

>  <gnina_score_min>  (1131) 
5.397

>  <inchikey>  (1131) 
AEKFJZPRDAYVFD-QMMMGPOBSA-N

>  <exports>  (1131) 
['/opt/xchem-fragalysis-2/maxwin/BulkDock/OUTPUTS/openbind_a71ev2a_c2_elabs_1LOUU54.sdf', '/opt/xchem-fragalysis-2/maxwin/BulkDock/OUTPUTS/openbind_a71ev2a_c2_elabs_1LSYIDY.sdf']

>  <name>  (1131) 
P576958

>  <ref_pdb>  (1131) 
A3066a

>  <subsites>  (1131) 
None

>  <HIPPO Pose ID>  (1131) 
576958

>  <ref_mols>  (1131) 
A3066a

>  <HIPPO Compound ID>  (1131) 
350143

>  <tags>  (1131) 
openbind_a71ev2a_c2_elabs,syndirella_product,openbind_a71ev2a_c2_elabs_fragonly_scored_top80percent,openbind_a71ev2a_c2_elabs_scored,BulkDock Fragalysis export,openbind_a71ev2a_c2_elabs_scored_top80percent,openbind_a71ev2a_c2_elabs_activefrags_only_scored_5.2plus,syndirella_placed

>  <smina_score_min>  (1131) 
-6.899

$$$$
P576959
     RDKit          3D

 18 20  0  0  0  0  0  0  0  0999 V2000
    9.3312    8.6829   23.1984 C   0  0  0  0  0  0  0  0  0  0  0  0
    9.1914   10.0417   23.6719 N   0  0  0  0  0  0  0  0  0  0  0  0
    9.9732   11.0778   23.2488 C   0  0  0  0  0  0  0  0  0  0  0  0
    9.7052   12.1755   24.0412 C   0  0  0  0  0  0  0  0  0  0  0  0
   10.4743   13.4108   24.1127 C   0  0  0  0  0  0  0  0  0  0  0  0
   10.3180   14.1403   25.0204 O   0  0  0  0  0  0  0  0  0  0  0  0
   11.4162   13.4947   22.9560 N   0  0  0  0  0  0  0  0  0  0  0  0
   10.7785   14.2562   21.7539 C   0  0  0  0  0  0  0  0  0  0  0  0
   12.1719   14.4006   21.1978 C   0  0  0  0  0  0  0  0  0  0  0  0
   12.7608   13.3479   20.4199 O   0  0  0  0  0  0  0  0  0  0  0  0
   12.5082   14.4729   22.6544 C   0  0  0  0  0  0  0  0  0  0  0  0
    8.5617   11.8452   24.8253 C   0  0  0  0  0  0  0  0  0  0  0  0
    7.7608   12.5699   25.7347 C   0  0  0  0  0  0  0  0  0  0  0  0
    6.7469   11.9122   26.4279 C   0  0  0  0  0  0  0  0  0  0  0  0
    5.7901   12.7813   27.5642 Cl  0  0  0  0  0  0  0  0  0  0  0  0
    6.5235   10.5558   26.2397 C   0  0  0  0  0  0  0  0  0  0  0  0
    7.2942    9.8300   25.3300 C   0  0  0  0  0  0  0  0  0  0  0  0
    8.2992   10.4906   24.6199 C   0  0  0  0  0  0  0  0  0  0  0  0
  1  2  1  0
  2  3  1  0
  3  4  2  0
  4  5  1  0
  5  6  2  0
  5  7  1  0
  7  8  1  0
  8  9  1  0
  9 10  1  0
  9 11  1  0
  4 12  1  0
 12 13  2  0
 13 14  1  0
 14 15  1  0
 14 16  2  0
 16 17  1  0
 17 18  2  0
 18  2  1  0
 11  7  1  0
 18 12  1  0
M  END
>  <alias>  (1132) 
None

>  <rmsd(smina/fragmenstein)>  (1132) 
0.341

>  <smiles>  (1132) 
Cn1cc(C(=O)N2CC(O)C2)c2cc(Cl)ccc21

>  <gnina_score>  (1132) 
5.538

>  <inspiration_score>  (1132) 
None

>  <energy_score>  (1132) 
-0.816154

>  <distance_score>  (1132) 
0.518804

>  <gnina_score_min>  (1132) 
5.486

>  <inchikey>  (1132) 
HTXWPZIENBGVSV-UHFFFAOYSA-N

>  <exports>  (1132) 
['/opt/xchem-fragalysis-2/maxwin/BulkDock/OUTPUTS/openbind_a71ev2a_c2_elabs_1LOUU54.sdf', '/opt/xchem-fragalysis-2/maxwin/BulkDock/OUTPUTS/openbind_a71ev2a_c2_elabs_1LSYIDY.sdf']

>  <name>  (1132) 
P576959

>  <ref_pdb>  (1132) 
A3066a

>  <subsites>  (1132) 
None

>  <HIPPO Pose ID>  (1132) 
576959

>  <ref_mols>  (1132) 
A3066a

>  <HIPPO Compound ID>  (1132) 
350145

>  <tags>  (1132) 
openbind_a71ev2a_c2_elabs,syndirella_product,openbind_a71ev2a_c2_elabs_fragonly_scored_top80percent,openbind_a71ev2a_c2_elabs_scored,BulkDock Fragalysis export,openbind_a71ev2a_c2_elabs_scored_top80percent,openbind_a71ev2a_c2_elabs_activefrags_only_scored_5.2plus,syndirella_placed

>  <smina_score_min>  (1132) 
-7.997

$$$$
P576962
     RDKit          3D

 18 20  0  0  0  0  0  0  0  0999 V2000
   11.0459   14.4881   19.5500 C   0  0  0  0  0  0  0  0  0  0  0  0
   12.1382   14.5802   20.5502 C   0  0  1  0  0  0  0  0  0  0  0  0
   11.7954   15.4396   21.7267 C   0  0  0  0  0  0  0  0  0  0  0  0
   12.1651   14.0250   21.9423 C   0  0  1  0  0  0  0  0  0  0  0  0
   11.1966   13.1723   22.4409 N   0  0  0  0  0  0  0  0  0  0  0  0
   10.4951   13.1498   23.8043 C   0  0  0  0  0  0  0  0  0  0  0  0
   10.5624   13.8900   24.7001 O   0  0  0  0  0  0  0  0  0  0  0  0
    9.6638   11.9639   23.9032 C   0  0  0  0  0  0  0  0  0  0  0  0
    9.8703   10.7754   23.2374 C   0  0  0  0  0  0  0  0  0  0  0  0
    9.0478    9.8377   23.7784 N   0  0  0  0  0  0  0  0  0  0  0  0
    9.1743    8.4385   23.4653 C   0  0  0  0  0  0  0  0  0  0  0  0
    8.1953   10.4216   24.6853 C   0  0  0  0  0  0  0  0  0  0  0  0
    7.1602    9.8935   25.4614 C   0  0  0  0  0  0  0  0  0  0  0  0
    6.4752   10.7432   26.3318 C   0  0  0  0  0  0  0  0  0  0  0  0
    6.7990   12.0906   26.4072 C   0  0  0  0  0  0  0  0  0  0  0  0
    5.9416   13.1090   27.4976 Cl  0  0  0  0  0  0  0  0  0  0  0  0
    7.8279   12.6210   25.6316 C   0  0  0  0  0  0  0  0  0  0  0  0
    8.5460   11.7711   24.7635 C   0  0  0  0  0  0  0  0  0  0  0  0
  2  1  1  6
  2  3  1  0
  3  4  1  0
  4  5  1  6
  5  6  1  0
  6  7  2  0
  6  8  1  0
  8  9  2  0
  9 10  1  0
 10 11  1  0
 10 12  1  0
 12 13  2  0
 13 14  1  0
 14 15  2  0
 15 16  1  0
 15 17  1  0
 17 18  2  0
  4  2  1  0
 18  8  1  0
 18 12  1  0
M  END
>  <alias>  (1133) 
None

>  <rmsd(smina/fragmenstein)>  (1133) 
0.3

>  <smiles>  (1133) 
C[C@H]1C[C@H]1NC(=O)c1cn(C)c2ccc(Cl)cc12

>  <gnina_score>  (1133) 
5.328

>  <inspiration_score>  (1133) 
None

>  <energy_score>  (1133) 
-4.033891

>  <distance_score>  (1133) 
0.477713

>  <gnina_score_min>  (1133) 
5.4

>  <inchikey>  (1133) 
NSVAGCFSMBHMIJ-QPUJVOFHSA-N

>  <exports>  (1133) 
['/opt/xchem-fragalysis-2/maxwin/BulkDock/OUTPUTS/openbind_a71ev2a_c2_elabs_1LOUU54.sdf', '/opt/xchem-fragalysis-2/maxwin/BulkDock/OUTPUTS/openbind_a71ev2a_c2_elabs_1LSYIDY.sdf']

>  <name>  (1133) 
P576962

>  <ref_pdb>  (1133) 
A3066a

>  <subsites>  (1133) 
None

>  <HIPPO Pose ID>  (1133) 
576962

>  <ref_mols>  (1133) 
A3066a

>  <HIPPO Compound ID>  (1133) 
350146

>  <tags>  (1133) 
openbind_a71ev2a_c2_elabs,syndirella_product,openbind_a71ev2a_c2_elabs_fragonly_scored_top80percent,openbind_a71ev2a_c2_elabs_scored,BulkDock Fragalysis export,openbind_a71ev2a_c2_elabs_scored_top80percent,openbind_a71ev2a_c2_elabs_activefrags_only_scored_5.2plus,syndirella_placed

>  <smina_score_min>  (1133) 
-6.915

$$$$
P576963
     RDKit          3D

 18 19  0  0  0  0  0  0  0  0999 V2000
    9.1371   15.0011   21.1838 C   0  0  0  0  0  0  0  0  0  0  0  0
   10.6155   15.3135   20.9640 C   0  0  2  0  0  0  0  0  0  0  0  0
   11.0542   14.7748   19.2819 S   0  0  0  0  0  0  0  0  0  0  0  0
   11.6158   14.6748   21.9413 C   0  0  0  0  0  0  0  0  0  0  0  0
   11.0162   13.5332   22.5470 N   0  0  0  0  0  0  0  0  0  0  0  0
   10.4715   13.3302   23.9567 C   0  0  0  0  0  0  0  0  0  0  0  0
   10.4909   14.0344   24.8807 O   0  0  0  0  0  0  0  0  0  0  0  0
    9.7549   12.0654   24.0245 C   0  0  0  0  0  0  0  0  0  0  0  0
    9.9914   10.9158   23.3005 C   0  0  0  0  0  0  0  0  0  0  0  0
    9.1758    9.9310   23.7793 N   0  0  0  0  0  0  0  0  0  0  0  0
    9.2827    8.5476   23.3822 C   0  0  0  0  0  0  0  0  0  0  0  0
    8.2938   10.4575   24.6945 C   0  0  0  0  0  0  0  0  0  0  0  0
    7.2503    9.8812   25.4232 C   0  0  0  0  0  0  0  0  0  0  0  0
    6.5224   10.6950   26.2883 C   0  0  0  0  0  0  0  0  0  0  0  0
    5.5439   10.1497   27.0213 F   0  0  0  0  0  0  0  0  0  0  0  0
    6.7867   12.0461   26.4202 C   0  0  0  0  0  0  0  0  0  0  0  0
    7.8317   12.6161   25.6962 C   0  0  0  0  0  0  0  0  0  0  0  0
    8.6134   11.8085   24.8393 C   0  0  0  0  0  0  0  0  0  0  0  0
  2  1  1  1
  2  3  1  0
  2  4  1  0
  4  5  1  0
  5  6  1  0
  6  7  2  0
  6  8  1  0
  8  9  2  0
  9 10  1  0
 10 11  1  0
 10 12  1  0
 12 13  2  0
 13 14  1  0
 14 15  1  0
 14 16  2  0
 16 17  1  0
 17 18  2  0
 18  8  1  0
 18 12  1  0
M  END
>  <alias>  (1134) 
None

>  <rmsd(smina/fragmenstein)>  (1134) 
0.232

>  <smiles>  (1134) 
C[C@H](S)CNC(=O)c1cn(C)c2cc(F)ccc12

>  <gnina_score>  (1134) 
5.621

>  <inspiration_score>  (1134) 
None

>  <energy_score>  (1134) 
-4.098569

>  <distance_score>  (1134) 
0.494337

>  <gnina_score_min>  (1134) 
5.619

>  <inchikey>  (1134) 
YAQOZIRHDNBXJB-QMMMGPOBSA-N

>  <exports>  (1134) 
['/opt/xchem-fragalysis-2/maxwin/BulkDock/OUTPUTS/openbind_a71ev2a_c2_elabs_1LOUU54.sdf', '/opt/xchem-fragalysis-2/maxwin/BulkDock/OUTPUTS/openbind_a71ev2a_c2_elabs_1LSYIDY.sdf']

>  <name>  (1134) 
P576963

>  <ref_pdb>  (1134) 
A3066a

>  <subsites>  (1134) 
None

>  <HIPPO Pose ID>  (1134) 
576963

>  <ref_mols>  (1134) 
A3066a

>  <HIPPO Compound ID>  (1134) 
350148

>  <tags>  (1134) 
openbind_a71ev2a_c2_elabs,syndirella_product,openbind_a71ev2a_c2_elabs_fragonly_scored_top80percent,BulkDock Fragalysis export,openbind_a71ev2a_c2_elabs_scored,openbind_a71ev2a_c2_elabs_scored_top80percent,openbind_a71ev2a_c2_elabs_activefrags_only_scored_5.2plus,openbind_a71ev2a_c2_elabs_activefrags_only_scored_5.5plus,syndirella_placed

>  <smina_score_min>  (1134) 
-6.523

$$$$
P576967
     RDKit          3D

 18 20  0  0  0  0  0  0  0  0999 V2000
   11.0136   14.4789   19.5940 C   0  0  0  0  0  0  0  0  0  0  0  0
   12.1136   14.6096   20.5805 C   0  0  1  0  0  0  0  0  0  0  0  0
   11.7475   15.4574   21.7585 C   0  0  0  0  0  0  0  0  0  0  0  0
   12.1906   14.0643   21.9740 C   0  0  1  0  0  0  0  0  0  0  0  0
   11.2828   13.1550   22.4872 N   0  0  0  0  0  0  0  0  0  0  0  0
   10.5540   13.1276   23.8372 C   0  0  0  0  0  0  0  0  0  0  0  0
   10.6574   13.8232   24.7654 O   0  0  0  0  0  0  0  0  0  0  0  0
    9.6874   11.9616   23.9055 C   0  0  0  0  0  0  0  0  0  0  0  0
    9.8725   10.7720   23.2340 C   0  0  0  0  0  0  0  0  0  0  0  0
    9.0459    9.8420   23.7840 N   0  0  0  0  0  0  0  0  0  0  0  0
    9.1783    8.4378   23.4947 C   0  0  0  0  0  0  0  0  0  0  0  0
    8.1942   10.4371   24.6844 C   0  0  0  0  0  0  0  0  0  0  0  0
    7.1563    9.9182   25.4660 C   0  0  0  0  0  0  0  0  0  0  0  0
    6.4809   10.7785   26.3319 C   0  0  0  0  0  0  0  0  0  0  0  0
    6.8191   12.1199   26.3950 C   0  0  0  0  0  0  0  0  0  0  0  0
    6.1595   12.9205   27.2425 F   0  0  0  0  0  0  0  0  0  0  0  0
    7.8487   12.6431   25.6215 C   0  0  0  0  0  0  0  0  0  0  0  0
    8.5585   11.7848   24.7567 C   0  0  0  0  0  0  0  0  0  0  0  0
  2  1  1  6
  2  3  1  0
  3  4  1  0
  4  5  1  6
  5  6  1  0
  6  7  2  0
  6  8  1  0
  8  9  2  0
  9 10  1  0
 10 11  1  0
 10 12  1  0
 12 13  2  0
 13 14  1  0
 14 15  2  0
 15 16  1  0
 15 17  1  0
 17 18  2  0
  4  2  1  0
 18  8  1  0
 18 12  1  0
M  END
>  <alias>  (1135) 
None

>  <rmsd(smina/fragmenstein)>  (1135) 
0.315

>  <smiles>  (1135) 
C[C@H]1C[C@H]1NC(=O)c1cn(C)c2ccc(F)cc12

>  <gnina_score>  (1135) 
5.263

>  <inspiration_score>  (1135) 
None

>  <energy_score>  (1135) 
-4.076631

>  <distance_score>  (1135) 
0.463274

>  <gnina_score_min>  (1135) 
5.343

>  <inchikey>  (1135) 
BAQMDIBOXBLKRL-QPUJVOFHSA-N

>  <exports>  (1135) 
['/opt/xchem-fragalysis-2/maxwin/BulkDock/OUTPUTS/openbind_a71ev2a_c2_elabs_1LOUU54.sdf', '/opt/xchem-fragalysis-2/maxwin/BulkDock/OUTPUTS/openbind_a71ev2a_c2_elabs_1LSYIDY.sdf']

>  <name>  (1135) 
P576967

>  <ref_pdb>  (1135) 
A3066a

>  <subsites>  (1135) 
None

>  <HIPPO Pose ID>  (1135) 
576967

>  <ref_mols>  (1135) 
A3066a

>  <HIPPO Compound ID>  (1135) 
350151

>  <tags>  (1135) 
openbind_a71ev2a_c2_elabs,syndirella_product,openbind_a71ev2a_c2_elabs_fragonly_scored_top80percent,openbind_a71ev2a_c2_elabs_scored,BulkDock Fragalysis export,openbind_a71ev2a_c2_elabs_scored_top80percent,openbind_a71ev2a_c2_elabs_activefrags_only_scored_5.2plus,syndirella_placed

>  <smina_score_min>  (1135) 
-6.942

$$$$
P576968
     RDKit          3D

 18 19  0  0  0  0  0  0  0  0999 V2000
   12.6371   13.8453   20.3722 C   0  0  0  0  0  0  0  0  0  0  0  0
   12.3398   14.0405   21.8365 C   0  0  1  0  0  0  0  0  0  0  0  0
   11.9110   15.4591   22.0702 C   0  0  0  0  0  0  0  0  0  0  0  0
   10.7413   15.7034   21.4216 F   0  0  0  0  0  0  0  0  0  0  0  0
   11.3250   13.1686   22.3350 N   0  0  0  0  0  0  0  0  0  0  0  0
   10.6158   13.1396   23.6937 C   0  0  0  0  0  0  0  0  0  0  0  0
   10.6886   13.8683   24.5991 O   0  0  0  0  0  0  0  0  0  0  0  0
    9.7590   11.9670   23.7954 C   0  0  0  0  0  0  0  0  0  0  0  0
    9.9343   10.7726   23.1327 C   0  0  0  0  0  0  0  0  0  0  0  0
    9.1205    9.8421   23.7026 N   0  0  0  0  0  0  0  0  0  0  0  0
    9.2353    8.4356   23.4116 C   0  0  0  0  0  0  0  0  0  0  0  0
    8.2789   10.4421   24.6095 C   0  0  0  0  0  0  0  0  0  0  0  0
    7.2492    9.9250   25.4025 C   0  0  0  0  0  0  0  0  0  0  0  0
    6.5671   10.7908   26.2591 C   0  0  0  0  0  0  0  0  0  0  0  0
    6.8967   12.1386   26.3108 C   0  0  0  0  0  0  0  0  0  0  0  0
    6.0471   13.1776   27.3876 Cl  0  0  0  0  0  0  0  0  0  0  0  0
    7.9271   12.6539   25.5251 C   0  0  0  0  0  0  0  0  0  0  0  0
    8.6392   11.7910   24.6645 C   0  0  0  0  0  0  0  0  0  0  0  0
  2  1  1  6
  2  3  1  0
  3  4  1  0
  2  5  1  0
  5  6  1  0
  6  7  2  0
  6  8  1  0
  8  9  2  0
  9 10  1  0
 10 11  1  0
 10 12  1  0
 12 13  2  0
 13 14  1  0
 14 15  2  0
 15 16  1  0
 15 17  1  0
 17 18  2  0
 18  8  1  0
 18 12  1  0
M  END
>  <alias>  (1136) 
None

>  <rmsd(smina/fragmenstein)>  (1136) 
1.044

>  <smiles>  (1136) 
C[C@@H](CF)NC(=O)c1cn(C)c2ccc(Cl)cc12

>  <gnina_score>  (1136) 
5.338

>  <inspiration_score>  (1136) 
None

>  <energy_score>  (1136) 
-0.680295

>  <distance_score>  (1136) 
0.374213

>  <gnina_score_min>  (1136) 
5.327

>  <inchikey>  (1136) 
QUJUQRAYVMHAJK-QMMMGPOBSA-N

>  <exports>  (1136) 
['/opt/xchem-fragalysis-2/maxwin/BulkDock/OUTPUTS/openbind_a71ev2a_c2_elabs_1LOUU54.sdf', '/opt/xchem-fragalysis-2/maxwin/BulkDock/OUTPUTS/openbind_a71ev2a_c2_elabs_1LSYIDY.sdf']

>  <name>  (1136) 
P576968

>  <ref_pdb>  (1136) 
A3066a

>  <subsites>  (1136) 
None

>  <HIPPO Pose ID>  (1136) 
576968

>  <ref_mols>  (1136) 
A3066a

>  <HIPPO Compound ID>  (1136) 
350158

>  <tags>  (1136) 
openbind_a71ev2a_c2_elabs,syndirella_product,openbind_a71ev2a_c2_elabs_fragonly_scored_top80percent,openbind_a71ev2a_c2_elabs_scored,BulkDock Fragalysis export,openbind_a71ev2a_c2_elabs_scored_top80percent,openbind_a71ev2a_c2_elabs_activefrags_only_scored_5.2plus,syndirella_placed

>  <smina_score_min>  (1136) 
-7.421

$$$$
P576970
     RDKit          3D

 18 19  0  0  0  0  0  0  0  0999 V2000
    9.2737    8.5085   23.4357 C   0  0  0  0  0  0  0  0  0  0  0  0
    9.1760    9.9042   23.7874 N   0  0  0  0  0  0  0  0  0  0  0  0
    9.9894   10.8635   23.2622 C   0  0  0  0  0  0  0  0  0  0  0  0
    9.7480   12.0565   23.9123 C   0  0  0  0  0  0  0  0  0  0  0  0
   10.4390   13.3278   23.7112 C   0  0  0  0  0  0  0  0  0  0  0  0
   10.4352   14.1350   24.5457 O   0  0  0  0  0  0  0  0  0  0  0  0
   10.9931   13.3756   22.2915 N   0  0  0  0  0  0  0  0  0  0  0  0
   11.5811   14.4610   21.5531 C   0  0  0  0  0  0  0  0  0  0  0  0
   10.6891   14.7045   20.3278 C   0  0  0  0  0  0  0  0  0  0  0  0
   11.6300   14.5848   18.8493 Cl  0  0  0  0  0  0  0  0  0  0  0  0
    9.7224   16.1845   20.4344 Cl  0  0  0  0  0  0  0  0  0  0  0  0
    8.6353   11.8251   24.7790 C   0  0  0  0  0  0  0  0  0  0  0  0
    7.8705   12.6578   25.6248 C   0  0  0  0  0  0  0  0  0  0  0  0
    6.8324   12.1047   26.3736 C   0  0  0  0  0  0  0  0  0  0  0  0
    5.9253   13.1065   27.4386 Cl  0  0  0  0  0  0  0  0  0  0  0  0
    6.5357   10.7517   26.2879 C   0  0  0  0  0  0  0  0  0  0  0  0
    7.2602    9.9184   25.4343 C   0  0  0  0  0  0  0  0  0  0  0  0
    8.3063   10.4703   24.6888 C   0  0  0  0  0  0  0  0  0  0  0  0
  1  2  1  0
  2  3  1  0
  3  4  2  0
  4  5  1  0
  5  6  2  0
  5  7  1  0
  7  8  1  0
  8  9  1  0
  9 10  1  0
  9 11  1  0
  4 12  1  0
 12 13  2  0
 13 14  1  0
 14 15  1  0
 14 16  2  0
 16 17  1  0
 17 18  2  0
 18  2  1  0
 18 12  1  0
M  END
>  <alias>  (1137) 
None

>  <rmsd(smina/fragmenstein)>  (1137) 
0.298

>  <smiles>  (1137) 
Cn1cc(C(=O)NCC(Cl)Cl)c2cc(Cl)ccc21

>  <gnina_score>  (1137) 
5.577

>  <inspiration_score>  (1137) 
None

>  <energy_score>  (1137) 
-7.333225

>  <distance_score>  (1137) 
0.487772

>  <gnina_score_min>  (1137) 
5.589

>  <inchikey>  (1137) 
HCYLYKPRAABDGC-UHFFFAOYSA-N

>  <exports>  (1137) 
['/opt/xchem-fragalysis-2/maxwin/BulkDock/OUTPUTS/openbind_a71ev2a_c2_elabs_1LOUU54.sdf', '/opt/xchem-fragalysis-2/maxwin/BulkDock/OUTPUTS/openbind_a71ev2a_c2_elabs_1LSYIDY.sdf']

>  <name>  (1137) 
P576970

>  <ref_pdb>  (1137) 
A3066a

>  <subsites>  (1137) 
None

>  <HIPPO Pose ID>  (1137) 
576970

>  <ref_mols>  (1137) 
A3066a

>  <HIPPO Compound ID>  (1137) 
350160

>  <tags>  (1137) 
openbind_a71ev2a_c2_elabs,syndirella_product,openbind_a71ev2a_c2_elabs_fragonly_scored_top80percent,BulkDock Fragalysis export,openbind_a71ev2a_c2_elabs_scored,openbind_a71ev2a_c2_elabs_scored_top80percent,openbind_a71ev2a_c2_elabs_activefrags_only_scored_5.2plus,openbind_a71ev2a_c2_elabs_activefrags_only_scored_5.5plus,syndirella_placed

>  <smina_score_min>  (1137) 
-7.08

$$$$
P576972
     RDKit          3D

 18 19  0  0  0  0  0  0  0  0999 V2000
    9.3305    8.5692   23.3332 C   0  0  0  0  0  0  0  0  0  0  0  0
    9.2523    9.9774   23.6458 N   0  0  0  0  0  0  0  0  0  0  0  0
   10.0414   10.9238   23.0604 C   0  0  0  0  0  0  0  0  0  0  0  0
    9.8278   12.1401   23.6751 C   0  0  0  0  0  0  0  0  0  0  0  0
   10.5608   13.3923   23.4365 C   0  0  0  0  0  0  0  0  0  0  0  0
   10.5809   14.2029   24.2709 O   0  0  0  0  0  0  0  0  0  0  0  0
   11.1193   13.4211   22.0088 N   0  0  0  0  0  0  0  0  0  0  0  0
   11.7381   14.4855   21.2702 C   0  0  0  0  0  0  0  0  0  0  0  0
   10.8264   14.8893   20.1217 C   0  0  0  0  0  0  0  0  0  0  0  0
    9.7096   15.8197   20.5485 C   0  0  0  0  0  0  0  0  0  0  0  0
    9.0130   16.1872   19.4396 F   0  0  0  0  0  0  0  0  0  0  0  0
    8.7415   11.9296   24.5901 C   0  0  0  0  0  0  0  0  0  0  0  0
    8.0050   12.7807   25.4428 C   0  0  0  0  0  0  0  0  0  0  0  0
    6.9859   12.2463   26.2340 C   0  0  0  0  0  0  0  0  0  0  0  0
    6.1071   13.2775   27.2953 Cl  0  0  0  0  0  0  0  0  0  0  0  0
    6.6847   10.8906   26.1952 C   0  0  0  0  0  0  0  0  0  0  0  0
    7.3911   10.0314   25.3524 C   0  0  0  0  0  0  0  0  0  0  0  0
    8.4102   10.5700   24.5568 C   0  0  0  0  0  0  0  0  0  0  0  0
  1  2  1  0
  2  3  1  0
  3  4  2  0
  4  5  1  0
  5  6  2  0
  5  7  1  0
  7  8  1  0
  8  9  1  0
  9 10  1  0
 10 11  1  0
  4 12  1  0
 12 13  2  0
 13 14  1  0
 14 15  1  0
 14 16  2  0
 16 17  1  0
 17 18  2  0
 18  2  1  0
 18 12  1  0
M  END
>  <alias>  (1138) 
None

>  <rmsd(smina/fragmenstein)>  (1138) 
0.424

>  <smiles>  (1138) 
Cn1cc(C(=O)NCCCF)c2cc(Cl)ccc21

>  <gnina_score>  (1138) 
5.44

>  <inspiration_score>  (1138) 
None

>  <energy_score>  (1138) 
-3.638965

>  <distance_score>  (1138) 
0.413402

>  <gnina_score_min>  (1138) 
5.318

>  <inchikey>  (1138) 
LZFYYGGVFAHPNF-UHFFFAOYSA-N

>  <exports>  (1138) 
['/opt/xchem-fragalysis-2/maxwin/BulkDock/OUTPUTS/openbind_a71ev2a_c2_elabs_1LOUU54.sdf', '/opt/xchem-fragalysis-2/maxwin/BulkDock/OUTPUTS/openbind_a71ev2a_c2_elabs_1LSYIDY.sdf']

>  <name>  (1138) 
P576972

>  <ref_pdb>  (1138) 
A3066a

>  <subsites>  (1138) 
None

>  <HIPPO Pose ID>  (1138) 
576972

>  <ref_mols>  (1138) 
A3066a

>  <HIPPO Compound ID>  (1138) 
350165

>  <tags>  (1138) 
openbind_a71ev2a_c2_elabs,syndirella_product,openbind_a71ev2a_c2_elabs_fragonly_scored_top80percent,openbind_a71ev2a_c2_elabs_scored,BulkDock Fragalysis export,openbind_a71ev2a_c2_elabs_scored_top80percent,openbind_a71ev2a_c2_elabs_activefrags_only_scored_5.2plus,syndirella_placed

>  <smina_score_min>  (1138) 
-7.106

$$$$
P576974
     RDKit          3D

 18 19  0  0  0  0  0  0  0  0999 V2000
    9.4427   16.1020   20.4009 C   0  0  0  0  0  0  0  0  0  0  0  0
   10.3229   15.4744   20.9242 C   0  0  0  0  0  0  0  0  0  0  0  0
   11.3875   14.7388   21.6192 C   0  0  2  0  0  0  0  0  0  0  0  0
   12.4747   14.2689   20.6767 C   0  0  0  0  0  0  0  0  0  0  0  0
   10.7942   13.6212   22.2710 N   0  0  0  0  0  0  0  0  0  0  0  0
   10.4246   13.4083   23.7368 C   0  0  0  0  0  0  0  0  0  0  0  0
   10.6134   14.0795   24.6673 O   0  0  0  0  0  0  0  0  0  0  0  0
    9.7053   12.1494   23.8743 C   0  0  0  0  0  0  0  0  0  0  0  0
    9.9697   10.9834   23.1857 C   0  0  0  0  0  0  0  0  0  0  0  0
    9.1889    9.9890   23.6979 N   0  0  0  0  0  0  0  0  0  0  0  0
    9.2991    8.6026   23.3068 C   0  0  0  0  0  0  0  0  0  0  0  0
    8.3211   10.5115   24.6302 C   0  0  0  0  0  0  0  0  0  0  0  0
    7.3068    9.9128   25.3834 C   0  0  0  0  0  0  0  0  0  0  0  0
    6.5716   10.7079   26.2642 C   0  0  0  0  0  0  0  0  0  0  0  0
    6.8361   12.0663   26.3789 C   0  0  0  0  0  0  0  0  0  0  0  0
    5.9214   13.0173   27.4841 Cl  0  0  0  0  0  0  0  0  0  0  0  0
    7.8494   12.6646   25.6302 C   0  0  0  0  0  0  0  0  0  0  0  0
    8.6139   11.8727   24.7476 C   0  0  0  0  0  0  0  0  0  0  0  0
  1  2  3  0
  2  3  1  0
  3  4  1  6
  3  5  1  0
  5  6  1  0
  6  7  2  0
  6  8  1  0
  8  9  2  0
  9 10  1  0
 10 11  1  0
 10 12  1  0
 12 13  2  0
 13 14  1  0
 14 15  2  0
 15 16  1  0
 15 17  1  0
 17 18  2  0
 18  8  1  0
 18 12  1  0
M  END
>  <alias>  (1139) 
None

>  <rmsd(smina/fragmenstein)>  (1139) 
0.371

>  <smiles>  (1139) 
C#C[C@H](C)NC(=O)c1cn(C)c2ccc(Cl)cc12

>  <gnina_score>  (1139) 
5.528

>  <inspiration_score>  (1139) 
None

>  <energy_score>  (1139) 
-0.255527

>  <distance_score>  (1139) 
0.505903

>  <gnina_score_min>  (1139) 
5.513

>  <inchikey>  (1139) 
GIEHQDGIKJEHBN-VIFPVBQESA-N

>  <exports>  (1139) 
['/opt/xchem-fragalysis-2/maxwin/BulkDock/OUTPUTS/openbind_a71ev2a_c2_elabs_1LOUU54.sdf', '/opt/xchem-fragalysis-2/maxwin/BulkDock/OUTPUTS/openbind_a71ev2a_c2_elabs_1LSYIDY.sdf']

>  <name>  (1139) 
P576974

>  <ref_pdb>  (1139) 
A3066a

>  <subsites>  (1139) 
None

>  <HIPPO Pose ID>  (1139) 
576974

>  <ref_mols>  (1139) 
A3066a

>  <HIPPO Compound ID>  (1139) 
350167

>  <tags>  (1139) 
openbind_a71ev2a_c2_elabs,syndirella_product,openbind_a71ev2a_c2_elabs_fragonly_scored_top80percent,BulkDock Fragalysis export,openbind_a71ev2a_c2_elabs_scored,openbind_a71ev2a_c2_elabs_scored_top80percent,openbind_a71ev2a_c2_elabs_activefrags_only_scored_5.2plus,openbind_a71ev2a_c2_elabs_activefrags_only_scored_5.5plus,syndirella_placed

>  <smina_score_min>  (1139) 
-7.437

$$$$
P576975
     RDKit          3D

 18 19  0  0  0  0  0  0  0  0999 V2000
   12.7510   14.0526   20.3740 C   0  0  0  0  0  0  0  0  0  0  0  0
   12.2962   14.8653   21.5611 C   0  0  2  0  0  0  0  0  0  0  0  0
   12.9392   14.4028   22.7485 O   0  0  0  0  0  0  0  0  0  0  0  0
   10.7807   14.8062   21.6409 C   0  0  0  0  0  0  0  0  0  0  0  0
   10.3644   13.6301   22.3172 N   0  0  0  0  0  0  0  0  0  0  0  0
   10.1122   13.3758   23.7987 C   0  0  0  0  0  0  0  0  0  0  0  0
   10.2765   14.0636   24.7197 O   0  0  0  0  0  0  0  0  0  0  0  0
    9.5115   12.0737   23.9542 C   0  0  0  0  0  0  0  0  0  0  0  0
    9.8538   10.9266   23.2722 C   0  0  0  0  0  0  0  0  0  0  0  0
    9.1090    9.9023   23.7749 N   0  0  0  0  0  0  0  0  0  0  0  0
    9.2892    8.5272   23.3780 C   0  0  0  0  0  0  0  0  0  0  0  0
    8.2140   10.3871   24.7041 C   0  0  0  0  0  0  0  0  0  0  0  0
    7.2126    9.7627   25.4468 C   0  0  0  0  0  0  0  0  0  0  0  0
    6.4569   10.5228   26.3422 C   0  0  0  0  0  0  0  0  0  0  0  0
    6.6821   11.8848   26.4778 C   0  0  0  0  0  0  0  0  0  0  0  0
    5.7423   12.7959   27.5944 Cl  0  0  0  0  0  0  0  0  0  0  0  0
    7.6717   12.5167   25.7311 C   0  0  0  0  0  0  0  0  0  0  0  0
    8.4529   11.7528   24.8382 C   0  0  0  0  0  0  0  0  0  0  0  0
  2  1  1  6
  2  3  1  0
  2  4  1  0
  4  5  1  0
  5  6  1  0
  6  7  2  0
  6  8  1  0
  8  9  2  0
  9 10  1  0
 10 11  1  0
 10 12  1  0
 12 13  2  0
 13 14  1  0
 14 15  2  0
 15 16  1  0
 15 17  1  0
 17 18  2  0
 18  8  1  0
 18 12  1  0
M  END
>  <alias>  (1140) 
None

>  <rmsd(smina/fragmenstein)>  (1140) 
0.262

>  <smiles>  (1140) 
C[C@H](O)CNC(=O)c1cn(C)c2ccc(Cl)cc12

>  <gnina_score>  (1140) 
5.236

>  <inspiration_score>  (1140) 
None

>  <energy_score>  (1140) 
-3.046616

>  <distance_score>  (1140) 
0.770814

>  <gnina_score_min>  (1140) 
5.283

>  <inchikey>  (1140) 
IAEBWTFYZIAQQL-QMMMGPOBSA-N

>  <exports>  (1140) 
['/opt/xchem-fragalysis-2/maxwin/BulkDock/OUTPUTS/openbind_a71ev2a_c2_elabs_1LOUU54.sdf', '/opt/xchem-fragalysis-2/maxwin/BulkDock/OUTPUTS/openbind_a71ev2a_c2_elabs_1LSYIDY.sdf']

>  <name>  (1140) 
P576975

>  <ref_pdb>  (1140) 
A3066a

>  <subsites>  (1140) 
None

>  <HIPPO Pose ID>  (1140) 
576975

>  <ref_mols>  (1140) 
A3066a

>  <HIPPO Compound ID>  (1140) 
350170

>  <tags>  (1140) 
openbind_a71ev2a_c2_elabs,syndirella_product,openbind_a71ev2a_c2_elabs_fragonly_scored_top80percent,openbind_a71ev2a_c2_elabs_scored,BulkDock Fragalysis export,openbind_a71ev2a_c2_elabs_scored_top80percent,openbind_a71ev2a_c2_elabs_activefrags_only_scored_5.2plus,syndirella_placed

>  <smina_score_min>  (1140) 
-6.488

$$$$
P576977
     RDKit          3D

 18 19  0  0  0  0  0  0  0  0999 V2000
   12.7350   14.5172   21.3709 C   0  0  0  0  0  0  0  0  0  0  0  0
   11.2398   14.7562   21.3665 C   0  0  1  0  0  0  0  0  0  0  0  0
   10.5962   14.9976   19.9860 C   0  0  0  0  0  0  0  0  0  0  0  0
   11.3494   14.4387   18.9150 O   0  0  0  0  0  0  0  0  0  0  0  0
   10.6179   13.6481   22.0448 N   0  0  0  0  0  0  0  0  0  0  0  0
   10.3086   13.4372   23.5290 C   0  0  0  0  0  0  0  0  0  0  0  0
   10.4355   14.1549   24.4351 O   0  0  0  0  0  0  0  0  0  0  0  0
    9.6742   12.1425   23.7333 C   0  0  0  0  0  0  0  0  0  0  0  0
    9.9762   10.9635   23.0879 C   0  0  0  0  0  0  0  0  0  0  0  0
    9.2375    9.9594   23.6443 N   0  0  0  0  0  0  0  0  0  0  0  0
    9.3844    8.5659   23.2921 C   0  0  0  0  0  0  0  0  0  0  0  0
    8.3632   10.4809   24.5721 C   0  0  0  0  0  0  0  0  0  0  0  0
    7.3728    9.8735   25.3522 C   0  0  0  0  0  0  0  0  0  0  0  0
    6.6268   10.6695   26.2219 C   0  0  0  0  0  0  0  0  0  0  0  0
    6.8641   12.0319   26.3001 C   0  0  0  0  0  0  0  0  0  0  0  0
    6.1416   12.7732   27.1505 F   0  0  0  0  0  0  0  0  0  0  0  0
    7.8477   12.6422   25.5281 C   0  0  0  0  0  0  0  0  0  0  0  0
    8.6178   11.8524   24.6487 C   0  0  0  0  0  0  0  0  0  0  0  0
  2  1  1  6
  2  3  1  0
  3  4  1  0
  2  5  1  0
  5  6  1  0
  6  7  2  0
  6  8  1  0
  8  9  2  0
  9 10  1  0
 10 11  1  0
 10 12  1  0
 12 13  2  0
 13 14  1  0
 14 15  2  0
 15 16  1  0
 15 17  1  0
 17 18  2  0
 18  8  1  0
 18 12  1  0
M  END
>  <alias>  (1141) 
None

>  <rmsd(smina/fragmenstein)>  (1141) 
0.244

>  <smiles>  (1141) 
C[C@@H](CO)NC(=O)c1cn(C)c2ccc(F)cc12

>  <gnina_score>  (1141) 
5.509

>  <inspiration_score>  (1141) 
None

>  <energy_score>  (1141) 
-16.139955

>  <distance_score>  (1141) 
0.572224

>  <gnina_score_min>  (1141) 
5.482

>  <inchikey>  (1141) 
CQRPSQUBFSONOK-QMMMGPOBSA-N

>  <exports>  (1141) 
['/opt/xchem-fragalysis-2/maxwin/BulkDock/OUTPUTS/openbind_a71ev2a_c2_elabs_1LOUU54.sdf', '/opt/xchem-fragalysis-2/maxwin/BulkDock/OUTPUTS/openbind_a71ev2a_c2_elabs_1LSYIDY.sdf']

>  <name>  (1141) 
P576977

>  <ref_pdb>  (1141) 
A3066a

>  <subsites>  (1141) 
None

>  <HIPPO Pose ID>  (1141) 
576977

>  <ref_mols>  (1141) 
A3066a

>  <HIPPO Compound ID>  (1141) 
350174

>  <tags>  (1141) 
openbind_a71ev2a_c2_elabs,syndirella_product,openbind_a71ev2a_c2_elabs_fragonly_scored_top80percent,openbind_a71ev2a_c2_elabs_scored,BulkDock Fragalysis export,openbind_a71ev2a_c2_elabs_scored_top80percent,openbind_a71ev2a_c2_elabs_activefrags_only_scored_5.2plus,syndirella_placed

>  <smina_score_min>  (1141) 
-7.885

$$$$
P576978
     RDKit          3D

 18 20  0  0  0  0  0  0  0  0999 V2000
    8.9038    8.6267   23.6985 C   0  0  0  0  0  0  0  0  0  0  0  0
    9.0081   10.0498   23.8976 N   0  0  0  0  0  0  0  0  0  0  0  0
    9.9760   10.7664   23.2525 C   0  0  0  0  0  0  0  0  0  0  0  0
   10.0281   12.0130   23.8225 C   0  0  0  0  0  0  0  0  0  0  0  0
   10.9846   13.0602   23.5551 C   0  0  0  0  0  0  0  0  0  0  0  0
   11.3430   13.7607   24.4145 O   0  0  0  0  0  0  0  0  0  0  0  0
   11.2857   13.0959   22.0523 N   0  0  0  0  0  0  0  0  0  0  0  0
   12.0205   14.0628   21.2619 C   0  0  0  0  0  0  0  0  0  0  0  0
   11.8058   15.4697   21.8514 C   0  0  0  0  0  0  0  0  0  0  0  0
   10.2571   15.6279   20.8570 S   0  0  0  0  0  0  0  0  0  0  0  0
   11.3346   14.4984   19.9257 C   0  0  0  0  0  0  0  0  0  0  0  0
    8.9125   12.1218   24.6960 C   0  0  0  0  0  0  0  0  0  0  0  0
    8.3870   13.2000   25.4437 C   0  0  0  0  0  0  0  0  0  0  0  0
    7.2620   13.0232   26.2405 C   0  0  0  0  0  0  0  0  0  0  0  0
    6.6508   11.7856   26.2872 C   0  0  0  0  0  0  0  0  0  0  0  0
    7.1370   10.7125   25.5324 C   0  0  0  0  0  0  0  0  0  0  0  0
    6.2310    9.2841   25.5983 Cl  0  0  0  0  0  0  0  0  0  0  0  0
    8.2805   10.8740   24.7346 C   0  0  0  0  0  0  0  0  0  0  0  0
  1  2  1  0
  2  3  1  0
  3  4  2  0
  4  5  1  0
  5  6  2  0
  5  7  1  0
  7  8  1  0
  8  9  1  0
  9 10  1  0
 10 11  1  0
  4 12  1  0
 12 13  2  0
 13 14  1  0
 14 15  2  0
 15 16  1  0
 16 17  1  0
 16 18  2  0
 18  2  1  0
 11  8  1  0
 18 12  1  0
M  END
>  <alias>  (1142) 
None

>  <rmsd(smina/fragmenstein)>  (1142) 
0.646

>  <smiles>  (1142) 
Cn1cc(C(=O)NC2CSC2)c2cccc(Cl)c21

>  <gnina_score>  (1142) 
5.417

>  <inspiration_score>  (1142) 
None

>  <energy_score>  (1142) 
-7.729022

>  <distance_score>  (1142) 
0.657573

>  <gnina_score_min>  (1142) 
5.593

>  <inchikey>  (1142) 
AYWQDHVLTYFDSD-UHFFFAOYSA-N

>  <exports>  (1142) 
['/opt/xchem-fragalysis-2/maxwin/BulkDock/OUTPUTS/openbind_a71ev2a_c2_elabs_1LOUU54.sdf', '/opt/xchem-fragalysis-2/maxwin/BulkDock/OUTPUTS/openbind_a71ev2a_c2_elabs_1LSYIDY.sdf']

>  <name>  (1142) 
P576978

>  <ref_pdb>  (1142) 
A3066a

>  <subsites>  (1142) 
None

>  <HIPPO Pose ID>  (1142) 
576978

>  <ref_mols>  (1142) 
A3066a

>  <HIPPO Compound ID>  (1142) 
350177

>  <tags>  (1142) 
openbind_a71ev2a_c2_elabs,syndirella_product,openbind_a71ev2a_c2_elabs_fragonly_scored_top80percent,BulkDock Fragalysis export,openbind_a71ev2a_c2_elabs_scored,openbind_a71ev2a_c2_elabs_scored_top80percent,openbind_a71ev2a_c2_elabs_activefrags_only_scored_5.2plus,openbind_a71ev2a_c2_elabs_activefrags_only_scored_5.5plus,syndirella_placed

>  <smina_score_min>  (1142) 
-5.949

$$$$
P576979
     RDKit          3D

 18 20  0  0  0  0  0  0  0  0999 V2000
    8.9775    8.7703   23.6912 C   0  0  0  0  0  0  0  0  0  0  0  0
    8.9832   10.1978   23.9244 N   0  0  0  0  0  0  0  0  0  0  0  0
    9.8852   11.0176   23.2974 C   0  0  0  0  0  0  0  0  0  0  0  0
    9.8218   12.2503   23.9004 C   0  0  0  0  0  0  0  0  0  0  0  0
   10.6463   13.3994   23.6295 C   0  0  0  0  0  0  0  0  0  0  0  0
   11.1500   13.9970   24.4991 O   0  0  0  0  0  0  0  0  0  0  0  0
   10.6117   13.6792   22.1096 N   0  0  0  0  0  0  0  0  0  0  0  0
   11.2342   14.6469   21.3696 N   0  0  0  0  0  0  0  0  0  0  0  0
   12.0334   15.5722   22.1673 C   0  0  0  0  0  0  0  0  0  0  0  0
   13.2890   14.8327   21.7984 C   0  0  0  0  0  0  0  0  0  0  0  0
   12.4602   14.1075   20.7524 C   0  0  0  0  0  0  0  0  0  0  0  0
    8.7459   12.2280   24.8171 C   0  0  0  0  0  0  0  0  0  0  0  0
    8.1747   13.2298   25.6334 C   0  0  0  0  0  0  0  0  0  0  0  0
    7.0890   12.9360   26.4475 C   0  0  0  0  0  0  0  0  0  0  0  0
    6.5517   11.6643   26.4262 C   0  0  0  0  0  0  0  0  0  0  0  0
    7.0814   10.6710   25.5944 C   0  0  0  0  0  0  0  0  0  0  0  0
    6.2247    9.2157   25.5360 Cl  0  0  0  0  0  0  0  0  0  0  0  0
    8.2065   10.9380   24.8010 C   0  0  0  0  0  0  0  0  0  0  0  0
  1  2  1  0
  2  3  1  0
  3  4  2  0
  4  5  1  0
  5  6  2  0
  5  7  1  0
  7  8  1  0
  8  9  1  0
  9 10  1  0
 10 11  1  0
  4 12  1  0
 12 13  2  0
 13 14  1  0
 14 15  2  0
 15 16  1  0
 16 17  1  0
 16 18  2  0
 18  2  1  0
 11  8  1  0
 18 12  1  0
M  END
>  <alias>  (1143) 
None

>  <rmsd(smina/fragmenstein)>  (1143) 
1.632

>  <smiles>  (1143) 
Cn1cc(C(=O)NN2CCC2)c2cccc(Cl)c21

>  <gnina_score>  (1143) 
5.366

>  <inspiration_score>  (1143) 
None

>  <energy_score>  (1143) 
-21.976418

>  <distance_score>  (1143) 
0.745607

>  <gnina_score_min>  (1143) 
5.671

>  <inchikey>  (1143) 
PRWDUAJPKJUJSZ-UHFFFAOYSA-N

>  <exports>  (1143) 
['/opt/xchem-fragalysis-2/maxwin/BulkDock/OUTPUTS/openbind_a71ev2a_c2_elabs_1LOUU54.sdf', '/opt/xchem-fragalysis-2/maxwin/BulkDock/OUTPUTS/openbind_a71ev2a_c2_elabs_1LSYIDY.sdf']

>  <name>  (1143) 
P576979

>  <ref_pdb>  (1143) 
A3066a

>  <subsites>  (1143) 
None

>  <HIPPO Pose ID>  (1143) 
576979

>  <ref_mols>  (1143) 
A3066a

>  <HIPPO Compound ID>  (1143) 
350181

>  <tags>  (1143) 
openbind_a71ev2a_c2_elabs,syndirella_product,openbind_a71ev2a_c2_elabs_fragonly_scored_top80percent,BulkDock Fragalysis export,openbind_a71ev2a_c2_elabs_scored,openbind_a71ev2a_c2_elabs_scored_top80percent,openbind_a71ev2a_c2_elabs_activefrags_only_scored_5.2plus,openbind_a71ev2a_c2_elabs_activefrags_only_scored_5.5plus,syndirella_placed

>  <smina_score_min>  (1143) 
-7.215

$$$$
P576981
     RDKit          3D

 18 20  0  0  0  0  0  0  0  0999 V2000
    9.5876   14.3101   21.2058 C   0  0  0  0  0  0  0  0  0  0  0  0
   10.9152   14.6590   21.8051 C   0  0  2  0  0  0  0  0  0  0  0  0
   12.1736   14.4051   20.9855 C   0  0  0  0  0  0  0  0  0  0  0  0
   12.7656   14.3890   22.3659 C   0  0  0  0  0  0  0  0  0  0  0  0
   11.5677   13.6351   22.7920 N   0  0  0  0  0  0  0  0  0  0  0  0
   10.8535   13.6018   24.0968 C   0  0  0  0  0  0  0  0  0  0  0  0
   11.0282   14.2288   25.0762 O   0  0  0  0  0  0  0  0  0  0  0  0
    9.8654   12.5306   24.0838 C   0  0  0  0  0  0  0  0  0  0  0  0
    9.9403   11.3505   23.3696 C   0  0  0  0  0  0  0  0  0  0  0  0
    9.0244   10.4725   23.8908 N   0  0  0  0  0  0  0  0  0  0  0  0
    9.0574    9.0528   23.5941 C   0  0  0  0  0  0  0  0  0  0  0  0
    8.2090   11.1404   24.7894 C   0  0  0  0  0  0  0  0  0  0  0  0
    7.0988   10.7752   25.5629 C   0  0  0  0  0  0  0  0  0  0  0  0
    6.3831    9.2465   25.4944 Cl  0  0  0  0  0  0  0  0  0  0  0  0
    6.5056   11.7024   26.4259 C   0  0  0  0  0  0  0  0  0  0  0  0
    6.9819   12.9955   26.5167 C   0  0  0  0  0  0  0  0  0  0  0  0
    8.0799   13.3737   25.7548 C   0  0  0  0  0  0  0  0  0  0  0  0
    8.7069   12.4457   24.8937 C   0  0  0  0  0  0  0  0  0  0  0  0
  2  1  1  6
  2  3  1  0
  3  4  1  0
  4  5  1  0
  5  6  1  0
  6  7  2  0
  6  8  1  0
  8  9  2  0
  9 10  1  0
 10 11  1  0
 10 12  1  0
 12 13  2  0
 13 14  1  0
 13 15  1  0
 15 16  2  0
 16 17  1  0
 17 18  2  0
  5  2  1  0
 18  8  1  0
 18 12  1  0
M  END
>  <alias>  (1144) 
None

>  <rmsd(smina/fragmenstein)>  (1144) 
0.64

>  <smiles>  (1144) 
C[C@@H]1CCN1C(=O)c1cn(C)c2c(Cl)cccc12

>  <gnina_score>  (1144) 
5.422

>  <inspiration_score>  (1144) 
None

>  <energy_score>  (1144) 
-9.523203

>  <distance_score>  (1144) 
0.748265

>  <gnina_score_min>  (1144) 
5.543

>  <inchikey>  (1144) 
PDHNCDQHMUSKBS-SECBINFHSA-N

>  <exports>  (1144) 
['/opt/xchem-fragalysis-2/maxwin/BulkDock/OUTPUTS/openbind_a71ev2a_c2_elabs_1LOUU54.sdf', '/opt/xchem-fragalysis-2/maxwin/BulkDock/OUTPUTS/openbind_a71ev2a_c2_elabs_1LSYIDY.sdf']

>  <name>  (1144) 
P576981

>  <ref_pdb>  (1144) 
A3066a

>  <subsites>  (1144) 
None

>  <HIPPO Pose ID>  (1144) 
576981

>  <ref_mols>  (1144) 
A3066a

>  <HIPPO Compound ID>  (1144) 
350190

>  <tags>  (1144) 
openbind_a71ev2a_c2_elabs,syndirella_product,openbind_a71ev2a_c2_elabs_fragonly_scored_top80percent,BulkDock Fragalysis export,openbind_a71ev2a_c2_elabs_scored,openbind_a71ev2a_c2_elabs_scored_top80percent,openbind_a71ev2a_c2_elabs_activefrags_only_scored_5.2plus,openbind_a71ev2a_c2_elabs_activefrags_only_scored_5.5plus,syndirella_placed

>  <smina_score_min>  (1144) 
-7.324

$$$$
P576982
     RDKit          3D

 18 19  0  0  0  0  0  0  0  0999 V2000
   11.1390   14.6954   20.0416 C   0  0  0  0  0  0  0  0  0  0  0  0
   12.4712   14.3958   20.7120 C   0  0  2  0  0  0  0  0  0  0  0  0
   12.9139   13.1780   20.3130 F   0  0  0  0  0  0  0  0  0  0  0  0
   12.4189   14.4550   22.2175 C   0  0  0  0  0  0  0  0  0  0  0  0
   11.4461   13.5640   22.7447 N   0  0  0  0  0  0  0  0  0  0  0  0
   10.8593   13.4570   24.1397 C   0  0  0  0  0  0  0  0  0  0  0  0
   11.0139   14.1264   25.0751 O   0  0  0  0  0  0  0  0  0  0  0  0
    9.8982   12.3617   24.1650 C   0  0  0  0  0  0  0  0  0  0  0  0
    9.9543   11.1679   23.4740 C   0  0  0  0  0  0  0  0  0  0  0  0
    8.9949   10.3300   23.9845 N   0  0  0  0  0  0  0  0  0  0  0  0
    8.9918    8.9102   23.6957 C   0  0  0  0  0  0  0  0  0  0  0  0
    8.1806   11.0343   24.8536 C   0  0  0  0  0  0  0  0  0  0  0  0
    7.0371   10.7212   25.6019 C   0  0  0  0  0  0  0  0  0  0  0  0
    6.2510    9.2273   25.5185 Cl  0  0  0  0  0  0  0  0  0  0  0  0
    6.4577   11.6804   26.4391 C   0  0  0  0  0  0  0  0  0  0  0  0
    6.9679   12.9607   26.5136 C   0  0  0  0  0  0  0  0  0  0  0  0
    8.0899   13.2913   25.7662 C   0  0  0  0  0  0  0  0  0  0  0  0
    8.7174   12.3237   24.9491 C   0  0  0  0  0  0  0  0  0  0  0  0
  2  1  1  6
  2  3  1  0
  2  4  1  0
  4  5  1  0
  5  6  1  0
  6  7  2  0
  6  8  1  0
  8  9  2  0
  9 10  1  0
 10 11  1  0
 10 12  1  0
 12 13  2  0
 13 14  1  0
 13 15  1  0
 15 16  2  0
 16 17  1  0
 17 18  2  0
 18  8  1  0
 18 12  1  0
M  END
>  <alias>  (1145) 
None

>  <rmsd(smina/fragmenstein)>  (1145) 
1.196

>  <smiles>  (1145) 
C[C@H](F)CNC(=O)c1cn(C)c2c(Cl)cccc12

>  <gnina_score>  (1145) 
5.0

>  <inspiration_score>  (1145) 
None

>  <energy_score>  (1145) 
-0.622703

>  <distance_score>  (1145) 
0.713079

>  <gnina_score_min>  (1145) 
5.312

>  <inchikey>  (1145) 
LQTQUWHQYNKEJG-QMMMGPOBSA-N

>  <exports>  (1145) 
['/opt/xchem-fragalysis-2/maxwin/BulkDock/OUTPUTS/openbind_a71ev2a_c2_elabs_1LOUU54.sdf', '/opt/xchem-fragalysis-2/maxwin/BulkDock/OUTPUTS/openbind_a71ev2a_c2_elabs_1LSYIDY.sdf']

>  <name>  (1145) 
P576982

>  <ref_pdb>  (1145) 
A3066a

>  <subsites>  (1145) 
None

>  <HIPPO Pose ID>  (1145) 
576982

>  <ref_mols>  (1145) 
A3066a

>  <HIPPO Compound ID>  (1145) 
350192

>  <tags>  (1145) 
openbind_a71ev2a_c2_elabs,syndirella_product,openbind_a71ev2a_c2_elabs_fragonly_scored_top80percent,openbind_a71ev2a_c2_elabs_scored,BulkDock Fragalysis export,openbind_a71ev2a_c2_elabs_scored_top80percent,openbind_a71ev2a_c2_elabs_activefrags_only_scored_5.2plus,syndirella_placed

>  <smina_score_min>  (1145) 
-7.082

$$$$
P576983
     RDKit          3D

 18 19  0  0  0  0  0  0  0  0999 V2000
    9.1045    8.8791   23.5824 C   0  0  0  0  0  0  0  0  0  0  0  0
    9.1705   10.3018   23.8386 N   0  0  0  0  0  0  0  0  0  0  0  0
   10.0778   11.1100   23.2081 C   0  0  0  0  0  0  0  0  0  0  0  0
   10.0416   12.3603   23.7850 C   0  0  0  0  0  0  0  0  0  0  0  0
   10.8487   13.5246   23.4292 C   0  0  0  0  0  0  0  0  0  0  0  0
   11.2994   14.2192   24.2457 O   0  0  0  0  0  0  0  0  0  0  0  0
   10.8566   13.6491   21.9115 N   0  0  0  0  0  0  0  0  0  0  0  0
   11.3394   14.7071   21.0601 C   0  0  0  0  0  0  0  0  0  0  0  0
   10.2550   15.1082   20.0151 C   0  0  0  0  0  0  0  0  0  0  0  0
   10.6923   15.4711   18.8830 O   0  0  0  0  0  0  0  0  0  0  0  0
    9.0483   14.9791   20.3863 O   0  0  0  0  0  0  0  0  0  0  0  0
    8.9588   12.3451   24.7079 C   0  0  0  0  0  0  0  0  0  0  0  0
    8.3690   13.3577   25.4967 C   0  0  0  0  0  0  0  0  0  0  0  0
    7.2637   13.0802   26.2945 C   0  0  0  0  0  0  0  0  0  0  0  0
    6.7295   11.8059   26.3003 C   0  0  0  0  0  0  0  0  0  0  0  0
    7.2798   10.7937   25.5068 C   0  0  0  0  0  0  0  0  0  0  0  0
    6.4686    9.3059   25.5179 Cl  0  0  0  0  0  0  0  0  0  0  0  0
    8.4075   11.0551   24.7130 C   0  0  0  0  0  0  0  0  0  0  0  0
  1  2  1  0
  2  3  1  0
  3  4  2  0
  4  5  1  0
  5  6  2  0
  5  7  1  0
  7  8  1  0
  8  9  1  0
  9 10  2  0
  9 11  1  0
  4 12  1  0
 12 13  2  0
 13 14  1  0
 14 15  2  0
 15 16  1  0
 16 17  1  0
 16 18  2  0
 18  2  1  0
 18 12  1  0
M  CHG  1  11  -1
M  END
>  <alias>  (1146) 
None

>  <rmsd(smina/fragmenstein)>  (1146) 
0.659

>  <smiles>  (1146) 
Cn1cc(C(=O)NCC(=O)[O-])c2cccc(Cl)c21

>  <gnina_score>  (1146) 
5.271

>  <inspiration_score>  (1146) 
None

>  <energy_score>  (1146) 
-4.91098

>  <distance_score>  (1146) 
0.755278

>  <gnina_score_min>  (1146) 
5.389

>  <inchikey>  (1146) 
NQRVKEOIQKWAAH-UHFFFAOYSA-M

>  <exports>  (1146) 
['/opt/xchem-fragalysis-2/maxwin/BulkDock/OUTPUTS/openbind_a71ev2a_c2_elabs_1LOUU54.sdf', '/opt/xchem-fragalysis-2/maxwin/BulkDock/OUTPUTS/openbind_a71ev2a_c2_elabs_1LSYIDY.sdf']

>  <name>  (1146) 
P576983

>  <ref_pdb>  (1146) 
A3066a

>  <subsites>  (1146) 
None

>  <HIPPO Pose ID>  (1146) 
576983

>  <ref_mols>  (1146) 
A3066a

>  <HIPPO Compound ID>  (1146) 
350206

>  <tags>  (1146) 
openbind_a71ev2a_c2_elabs,syndirella_product,openbind_a71ev2a_c2_elabs_fragonly_scored_top80percent,openbind_a71ev2a_c2_elabs_scored,BulkDock Fragalysis export,openbind_a71ev2a_c2_elabs_scored_top80percent,openbind_a71ev2a_c2_elabs_activefrags_only_scored_5.2plus,syndirella_placed

>  <smina_score_min>  (1146) 
-7.438

$$$$
P576984
     RDKit          3D

 18 20  0  0  0  0  0  0  0  0999 V2000
    9.1647    8.8951   23.5148 C   0  0  0  0  0  0  0  0  0  0  0  0
    9.2163   10.3210   23.7683 N   0  0  0  0  0  0  0  0  0  0  0  0
   10.0990   11.1527   23.1234 C   0  0  0  0  0  0  0  0  0  0  0  0
   10.0380   12.3990   23.7020 C   0  0  0  0  0  0  0  0  0  0  0  0
   10.7679   13.6131   23.3588 C   0  0  0  0  0  0  0  0  0  0  0  0
   11.1777   14.3045   24.2022 O   0  0  0  0  0  0  0  0  0  0  0  0
   10.7666   13.7955   21.8367 N   0  0  0  0  0  0  0  0  0  0  0  0
   11.1856   14.9171   21.0233 C   0  0  0  0  0  0  0  0  0  0  0  0
   10.0372   15.9736   21.0120 C   0  0  0  0  0  0  0  0  0  0  0  0
    9.5200   15.3231   19.7449 C   0  0  0  0  0  0  0  0  0  0  0  0
   10.9389   14.7841   19.5017 C   0  0  0  0  0  0  0  0  0  0  0  0
    8.9716   12.3539   24.6489 C   0  0  0  0  0  0  0  0  0  0  0  0
    8.3728   13.3490   25.4566 C   0  0  0  0  0  0  0  0  0  0  0  0
    7.2824   13.0470   26.2657 C   0  0  0  0  0  0  0  0  0  0  0  0
    6.7716   11.7645   26.2656 C   0  0  0  0  0  0  0  0  0  0  0  0
    7.3341   10.7697   25.4597 C   0  0  0  0  0  0  0  0  0  0  0  0
    6.5540    9.2700   25.4713 Cl  0  0  0  0  0  0  0  0  0  0  0  0
    8.4474   11.0560   24.6537 C   0  0  0  0  0  0  0  0  0  0  0  0
  1  2  1  0
  2  3  1  0
  3  4  2  0
  4  5  1  0
  5  6  2  0
  5  7  1  0
  7  8  1  0
  8  9  1  0
  9 10  1  0
 10 11  1  0
  4 12  1  0
 12 13  2  0
 13 14  1  0
 14 15  2  0
 15 16  1  0
 16 17  1  0
 16 18  2  0
 18  2  1  0
 11  8  1  0
 18 12  1  0
M  END
>  <alias>  (1147) 
None

>  <rmsd(smina/fragmenstein)>  (1147) 
0.693

>  <smiles>  (1147) 
Cn1cc(C(=O)NC2CCC2)c2cccc(Cl)c21

>  <gnina_score>  (1147) 
5.412

>  <inspiration_score>  (1147) 
None

>  <energy_score>  (1147) 
-7.811435

>  <distance_score>  (1147) 
0.776782

>  <gnina_score_min>  (1147) 
5.393

>  <inchikey>  (1147) 
IZEBNNCUAGOMOT-UHFFFAOYSA-N

>  <exports>  (1147) 
['/opt/xchem-fragalysis-2/maxwin/BulkDock/OUTPUTS/openbind_a71ev2a_c2_elabs_1LOUU54.sdf', '/opt/xchem-fragalysis-2/maxwin/BulkDock/OUTPUTS/openbind_a71ev2a_c2_elabs_1LSYIDY.sdf']

>  <name>  (1147) 
P576984

>  <ref_pdb>  (1147) 
A3066a

>  <subsites>  (1147) 
None

>  <HIPPO Pose ID>  (1147) 
576984

>  <ref_mols>  (1147) 
A3066a

>  <HIPPO Compound ID>  (1147) 
350208

>  <tags>  (1147) 
openbind_a71ev2a_c2_elabs,syndirella_product,openbind_a71ev2a_c2_elabs_fragonly_scored_top80percent,openbind_a71ev2a_c2_elabs_scored,BulkDock Fragalysis export,openbind_a71ev2a_c2_elabs_scored_top80percent,openbind_a71ev2a_c2_elabs_activefrags_only_scored_5.2plus,syndirella_placed

>  <smina_score_min>  (1147) 
-7.238

$$$$
P576985
     RDKit          3D

 18 19  0  0  0  0  0  0  0  0999 V2000
   12.6833   15.0191   21.8370 C   0  0  0  0  0  0  0  0  0  0  0  0
   11.5098   14.3894   21.1133 C   0  0  2  0  0  0  0  0  0  0  0  0
   10.4392   15.4102   20.6529 C   0  0  0  0  0  0  0  0  0  0  0  0
    8.6746   14.9536   20.8413 S   0  0  0  0  0  0  0  0  0  0  0  0
   10.9437   13.3943   21.9671 N   0  0  0  0  0  0  0  0  0  0  0  0
   10.7021   13.4007   23.4746 C   0  0  0  0  0  0  0  0  0  0  0  0
   10.9938   14.1850   24.2818 O   0  0  0  0  0  0  0  0  0  0  0  0
    9.8971   12.2460   23.8257 C   0  0  0  0  0  0  0  0  0  0  0  0
    9.9542   10.9836   23.2820 C   0  0  0  0  0  0  0  0  0  0  0  0
    9.0347   10.1948   23.9187 N   0  0  0  0  0  0  0  0  0  0  0  0
    8.9849    8.7687   23.6896 C   0  0  0  0  0  0  0  0  0  0  0  0
    8.2700   10.9643   24.7765 C   0  0  0  0  0  0  0  0  0  0  0  0
    7.1396   10.7248   25.5722 C   0  0  0  0  0  0  0  0  0  0  0  0
    6.2892    9.2630   25.5683 Cl  0  0  0  0  0  0  0  0  0  0  0  0
    6.6091   11.7449   26.3692 C   0  0  0  0  0  0  0  0  0  0  0  0
    7.1552   13.0128   26.3558 C   0  0  0  0  0  0  0  0  0  0  0  0
    8.2491   13.2760   25.5405 C   0  0  0  0  0  0  0  0  0  0  0  0
    8.8224   12.2506   24.7542 C   0  0  0  0  0  0  0  0  0  0  0  0
  2  1  1  1
  2  3  1  0
  3  4  1  0
  2  5  1  0
  5  6  1  0
  6  7  2  0
  6  8  1  0
  8  9  2  0
  9 10  1  0
 10 11  1  0
 10 12  1  0
 12 13  2  0
 13 14  1  0
 13 15  1  0
 15 16  2  0
 16 17  1  0
 17 18  2  0
 18  8  1  0
 18 12  1  0
M  END
>  <alias>  (1148) 
None

>  <rmsd(smina/fragmenstein)>  (1148) 
0.434

>  <smiles>  (1148) 
C[C@H](CS)NC(=O)c1cn(C)c2c(Cl)cccc12

>  <gnina_score>  (1148) 
5.655

>  <inspiration_score>  (1148) 
None

>  <energy_score>  (1148) 
-4.887414

>  <distance_score>  (1148) 
0.718419

>  <gnina_score_min>  (1148) 
5.717

>  <inchikey>  (1148) 
FNWWTHORHZYLRA-MRVPVSSYSA-N

>  <exports>  (1148) 
['/opt/xchem-fragalysis-2/maxwin/BulkDock/OUTPUTS/openbind_a71ev2a_c2_elabs_1LOUU54.sdf', '/opt/xchem-fragalysis-2/maxwin/BulkDock/OUTPUTS/openbind_a71ev2a_c2_elabs_1LSYIDY.sdf']

>  <name>  (1148) 
P576985

>  <ref_pdb>  (1148) 
A3066a

>  <subsites>  (1148) 
None

>  <HIPPO Pose ID>  (1148) 
576985

>  <ref_mols>  (1148) 
A3066a

>  <HIPPO Compound ID>  (1148) 
350209

>  <tags>  (1148) 
openbind_a71ev2a_c2_elabs,syndirella_product,openbind_a71ev2a_c2_elabs_fragonly_scored_top80percent,BulkDock Fragalysis export,openbind_a71ev2a_c2_elabs_scored,openbind_a71ev2a_c2_elabs_scored_top80percent,openbind_a71ev2a_c2_elabs_activefrags_only_scored_5.2plus,openbind_a71ev2a_c2_elabs_activefrags_only_scored_5.5plus,syndirella_placed

>  <smina_score_min>  (1148) 
-6.527

$$$$
P576986
     RDKit          3D

 18 19  0  0  0  0  0  0  0  0999 V2000
   12.7818   14.4797   21.1779 C   0  0  0  0  0  0  0  0  0  0  0  0
   11.3014   14.7892   21.2093 C   0  0  1  0  0  0  0  0  0  0  0  0
   10.6608   14.8741   19.8258 C   0  0  0  0  0  0  0  0  0  0  0  0
    9.3136   15.0431   19.9756 F   0  0  0  0  0  0  0  0  0  0  0  0
   10.6631   13.7822   22.0111 N   0  0  0  0  0  0  0  0  0  0  0  0
   10.7157   13.5312   23.5150 C   0  0  0  0  0  0  0  0  0  0  0  0
   11.2219   14.1423   24.3641 O   0  0  0  0  0  0  0  0  0  0  0  0
    9.8959   12.3731   23.8164 C   0  0  0  0  0  0  0  0  0  0  0  0
    9.9672   11.1291   23.2309 C   0  0  0  0  0  0  0  0  0  0  0  0
    9.0757   10.3014   23.8632 N   0  0  0  0  0  0  0  0  0  0  0  0
    9.0596    8.8723   23.6290 C   0  0  0  0  0  0  0  0  0  0  0  0
    8.3002   11.0385   24.7424 C   0  0  0  0  0  0  0  0  0  0  0  0
    7.1856   10.7552   25.5458 C   0  0  0  0  0  0  0  0  0  0  0  0
    6.3759    9.2698   25.5241 Cl  0  0  0  0  0  0  0  0  0  0  0  0
    6.6404   11.7468   26.3684 C   0  0  0  0  0  0  0  0  0  0  0  0
    7.1627   13.0258   26.3800 C   0  0  0  0  0  0  0  0  0  0  0  0
    8.2465   13.3306   25.5648 C   0  0  0  0  0  0  0  0  0  0  0  0
    8.8269   12.3365   24.7462 C   0  0  0  0  0  0  0  0  0  0  0  0
  2  1  1  6
  2  3  1  0
  3  4  1  0
  2  5  1  0
  5  6  1  0
  6  7  2  0
  6  8  1  0
  8  9  2  0
  9 10  1  0
 10 11  1  0
 10 12  1  0
 12 13  2  0
 13 14  1  0
 13 15  1  0
 15 16  2  0
 16 17  1  0
 17 18  2  0
 18  8  1  0
 18 12  1  0
M  END
>  <alias>  (1149) 
None

>  <rmsd(smina/fragmenstein)>  (1149) 
0.7

>  <smiles>  (1149) 
C[C@@H](CF)NC(=O)c1cn(C)c2c(Cl)cccc12

>  <gnina_score>  (1149) 
5.488

>  <inspiration_score>  (1149) 
None

>  <energy_score>  (1149) 
-4.015538

>  <distance_score>  (1149) 
0.763346

>  <gnina_score_min>  (1149) 
5.435

>  <inchikey>  (1149) 
BYRZXWQSTODYIJ-QMMMGPOBSA-N

>  <exports>  (1149) 
['/opt/xchem-fragalysis-2/maxwin/BulkDock/OUTPUTS/openbind_a71ev2a_c2_elabs_1LOUU54.sdf', '/opt/xchem-fragalysis-2/maxwin/BulkDock/OUTPUTS/openbind_a71ev2a_c2_elabs_1LSYIDY.sdf']

>  <name>  (1149) 
P576986

>  <ref_pdb>  (1149) 
A3066a

>  <subsites>  (1149) 
None

>  <HIPPO Pose ID>  (1149) 
576986

>  <ref_mols>  (1149) 
A3066a

>  <HIPPO Compound ID>  (1149) 
350214

>  <tags>  (1149) 
openbind_a71ev2a_c2_elabs,syndirella_product,openbind_a71ev2a_c2_elabs_fragonly_scored_top80percent,openbind_a71ev2a_c2_elabs_scored,BulkDock Fragalysis export,openbind_a71ev2a_c2_elabs_scored_top80percent,openbind_a71ev2a_c2_elabs_activefrags_only_scored_5.2plus,syndirella_placed

>  <smina_score_min>  (1149) 
-7.158

$$$$
P576987
     RDKit          3D

 18 19  0  0  0  0  0  0  0  0999 V2000
   12.6521   13.8473   20.3246 C   0  0  0  0  0  0  0  0  0  0  0  0
   12.4548   14.0856   21.7957 C   0  0  1  0  0  0  0  0  0  0  0  0
   11.9325   15.4742   22.0659 C   0  0  0  0  0  0  0  0  0  0  0  0
   10.6604   15.6914   21.4616 O   0  0  0  0  0  0  0  0  0  0  0  0
   11.5518   13.1685   22.4015 N   0  0  0  0  0  0  0  0  0  0  0  0
   11.0465   13.0777   23.8349 C   0  0  0  0  0  0  0  0  0  0  0  0
   11.3413   13.6887   24.7780 O   0  0  0  0  0  0  0  0  0  0  0  0
    9.9923   12.0903   23.9245 C   0  0  0  0  0  0  0  0  0  0  0  0
    9.9426   10.8722   23.2899 C   0  0  0  0  0  0  0  0  0  0  0  0
    8.9699   10.1273   23.8991 N   0  0  0  0  0  0  0  0  0  0  0  0
    8.9069    8.6992   23.7032 C   0  0  0  0  0  0  0  0  0  0  0  0
    8.2214   10.9246   24.7448 C   0  0  0  0  0  0  0  0  0  0  0  0
    7.0827   10.7254   25.5401 C   0  0  0  0  0  0  0  0  0  0  0  0
    6.2122    9.2744   25.5845 Cl  0  0  0  0  0  0  0  0  0  0  0  0
    6.5810   11.7718   26.3220 C   0  0  0  0  0  0  0  0  0  0  0  0
    7.1767   13.0179   26.3112 C   0  0  0  0  0  0  0  0  0  0  0  0
    8.3043   13.2291   25.5275 C   0  0  0  0  0  0  0  0  0  0  0  0
    8.8401   12.1799   24.7476 C   0  0  0  0  0  0  0  0  0  0  0  0
  2  1  1  6
  2  3  1  0
  3  4  1  0
  2  5  1  0
  5  6  1  0
  6  7  2  0
  6  8  1  0
  8  9  2  0
  9 10  1  0
 10 11  1  0
 10 12  1  0
 12 13  2  0
 13 14  1  0
 13 15  1  0
 15 16  2  0
 16 17  1  0
 17 18  2  0
 18  8  1  0
 18 12  1  0
M  END
>  <alias>  (1150) 
None

>  <rmsd(smina/fragmenstein)>  (1150) 
0.999

>  <smiles>  (1150) 
C[C@@H](CO)NC(=O)c1cn(C)c2c(Cl)cccc12

>  <gnina_score>  (1150) 
5.073

>  <inspiration_score>  (1150) 
None

>  <energy_score>  (1150) 
-6.09296

>  <distance_score>  (1150) 
0.636078

>  <gnina_score_min>  (1150) 
5.203

>  <inchikey>  (1150) 
ZRIKUBLEDPIBDP-QMMMGPOBSA-N

>  <exports>  (1150) 
['/opt/xchem-fragalysis-2/maxwin/BulkDock/OUTPUTS/openbind_a71ev2a_c2_elabs_1LOUU54.sdf', '/opt/xchem-fragalysis-2/maxwin/BulkDock/OUTPUTS/openbind_a71ev2a_c2_elabs_1LSYIDY.sdf']

>  <name>  (1150) 
P576987

>  <ref_pdb>  (1150) 
A3066a

>  <subsites>  (1150) 
None

>  <HIPPO Pose ID>  (1150) 
576987

>  <ref_mols>  (1150) 
A3066a

>  <HIPPO Compound ID>  (1150) 
350215

>  <tags>  (1150) 
openbind_a71ev2a_c2_elabs,syndirella_product,openbind_a71ev2a_c2_elabs_fragonly_scored_top80percent,openbind_a71ev2a_c2_elabs_scored,BulkDock Fragalysis export,openbind_a71ev2a_c2_elabs_scored_top80percent,openbind_a71ev2a_c2_elabs_activefrags_only_scored_5.2plus,syndirella_placed

>  <smina_score_min>  (1150) 
-6.414

$$$$
P576992
     RDKit          3D

 18 19  0  0  0  0  0  0  0  0999 V2000
    9.6795   15.8255   20.5230 C   0  0  0  0  0  0  0  0  0  0  0  0
   10.8832   15.0259   21.0141 C   0  0  2  0  0  0  0  0  0  0  0  0
   11.6309   14.4920   19.8658 C   0  0  0  0  0  0  0  0  0  0  0  0
   12.2002   14.0857   18.9404 N   0  0  0  0  0  0  0  0  0  0  0  0
   10.4133   13.9730   21.8679 N   0  0  0  0  0  0  0  0  0  0  0  0
   10.7161   13.6745   23.3315 C   0  0  0  0  0  0  0  0  0  0  0  0
   11.3353   14.2738   24.1103 O   0  0  0  0  0  0  0  0  0  0  0  0
    9.9830   12.4751   23.7051 C   0  0  0  0  0  0  0  0  0  0  0  0
   10.0699   11.2272   23.1309 C   0  0  0  0  0  0  0  0  0  0  0  0
    9.2016   10.3831   23.7765 N   0  0  0  0  0  0  0  0  0  0  0  0
    9.1715    8.9553   23.5263 C   0  0  0  0  0  0  0  0  0  0  0  0
    8.4275   11.1089   24.6662 C   0  0  0  0  0  0  0  0  0  0  0  0
    7.3243   10.8038   25.4783 C   0  0  0  0  0  0  0  0  0  0  0  0
    6.5646    9.2924   25.4854 Cl  0  0  0  0  0  0  0  0  0  0  0  0
    6.7585   11.7883   26.2944 C   0  0  0  0  0  0  0  0  0  0  0  0
    7.2583   13.0763   26.3001 C   0  0  0  0  0  0  0  0  0  0  0  0
    8.3378   13.3984   25.4834 C   0  0  0  0  0  0  0  0  0  0  0  0
    8.9337   12.4156   24.6618 C   0  0  0  0  0  0  0  0  0  0  0  0
  2  1  1  6
  2  3  1  0
  3  4  3  0
  2  5  1  0
  5  6  1  0
  6  7  2  0
  6  8  1  0
  8  9  2  0
  9 10  1  0
 10 11  1  0
 10 12  1  0
 12 13  2  0
 13 14  1  0
 13 15  1  0
 15 16  2  0
 16 17  1  0
 17 18  2  0
 18  8  1  0
 18 12  1  0
M  END
>  <alias>  (1151) 
None

>  <rmsd(smina/fragmenstein)>  (1151) 
0.473

>  <smiles>  (1151) 
C[C@H](C#N)NC(=O)c1cn(C)c2c(Cl)cccc12

>  <gnina_score>  (1151) 
5.652

>  <inspiration_score>  (1151) 
None

>  <energy_score>  (1151) 
-10.502144

>  <distance_score>  (1151) 
0.884069

>  <gnina_score_min>  (1151) 
5.711

>  <inchikey>  (1151) 
BLHIFJHVLPKANI-MRVPVSSYSA-N

>  <exports>  (1151) 
['/opt/xchem-fragalysis-2/maxwin/BulkDock/OUTPUTS/openbind_a71ev2a_c2_elabs_1LOUU54.sdf', '/opt/xchem-fragalysis-2/maxwin/BulkDock/OUTPUTS/openbind_a71ev2a_c2_elabs_1LSYIDY.sdf']

>  <name>  (1151) 
P576992

>  <ref_pdb>  (1151) 
A3066a

>  <subsites>  (1151) 
None

>  <HIPPO Pose ID>  (1151) 
576992

>  <ref_mols>  (1151) 
A3066a

>  <HIPPO Compound ID>  (1151) 
350219

>  <tags>  (1151) 
openbind_a71ev2a_c2_elabs,syndirella_product,openbind_a71ev2a_c2_elabs_fragonly_scored_top80percent,BulkDock Fragalysis export,openbind_a71ev2a_c2_elabs_scored,openbind_a71ev2a_c2_elabs_scored_top80percent,openbind_a71ev2a_c2_elabs_activefrags_only_scored_5.2plus,openbind_a71ev2a_c2_elabs_activefrags_only_scored_5.5plus,syndirella_placed

>  <smina_score_min>  (1151) 
-6.576

$$$$
P576993
     RDKit          3D

 18 19  0  0  0  0  0  0  0  0999 V2000
    9.9479   15.6408   20.5580 C   0  0  0  0  0  0  0  0  0  0  0  0
   11.0770   14.7169   20.1238 C   0  0  0  0  0  0  0  0  0  0  0  0
   11.8694   14.1209   21.1960 N   0  0  0  0  0  0  0  0  0  0  0  0
   12.6836   15.0084   21.9810 C   0  0  0  0  0  0  0  0  0  0  0  0
   11.1499   13.2091   21.9169 N   0  0  0  0  0  0  0  0  0  0  0  0
   10.5797   13.2875   23.3578 C   0  0  0  0  0  0  0  0  0  0  0  0
   10.7030   14.1124   24.1781 O   0  0  0  0  0  0  0  0  0  0  0  0
    9.8020   12.0762   23.6507 C   0  0  0  0  0  0  0  0  0  0  0  0
    9.9877   10.8298   23.0884 C   0  0  0  0  0  0  0  0  0  0  0  0
    9.1786    9.9299   23.7142 N   0  0  0  0  0  0  0  0  0  0  0  0
    9.2523    8.5105   23.4674 C   0  0  0  0  0  0  0  0  0  0  0  0
    8.3548   10.5784   24.6020 C   0  0  0  0  0  0  0  0  0  0  0  0
    7.3233   10.0984   25.4191 C   0  0  0  0  0  0  0  0  0  0  0  0
    6.6535   11.0073   26.2395 C   0  0  0  0  0  0  0  0  0  0  0  0
    6.9981   12.3533   26.2328 C   0  0  0  0  0  0  0  0  0  0  0  0
    6.1665   13.4441   27.2732 Cl  0  0  0  0  0  0  0  0  0  0  0  0
    8.0230   12.8312   25.4134 C   0  0  0  0  0  0  0  0  0  0  0  0
    8.7231   11.9297   24.5833 C   0  0  0  0  0  0  0  0  0  0  0  0
  1  2  1  0
  2  3  1  0
  3  4  1  0
  3  5  1  0
  5  6  1  0
  6  7  2  0
  6  8  1  0
  8  9  2  0
  9 10  1  0
 10 11  1  0
 10 12  1  0
 12 13  2  0
 13 14  1  0
 14 15  2  0
 15 16  1  0
 15 17  1  0
 17 18  2  0
 18  8  1  0
 18 12  1  0
M  END
>  <alias>  (1152) 
None

>  <rmsd(smina/fragmenstein)>  (1152) 
0.445

>  <smiles>  (1152) 
CCN(C)NC(=O)c1cn(C)c2ccc(Cl)cc12

>  <gnina_score>  (1152) 
5.85

>  <inspiration_score>  (1152) 
None

>  <energy_score>  (1152) 
-17.992474

>  <distance_score>  (1152) 
0.461756

>  <gnina_score_min>  (1152) 
5.855

>  <inchikey>  (1152) 
RBOWRMVSMPWFPL-UHFFFAOYSA-N

>  <exports>  (1152) 
['/opt/xchem-fragalysis-2/maxwin/BulkDock/OUTPUTS/openbind_a71ev2a_c2_elabs_1LOUU54.sdf', '/opt/xchem-fragalysis-2/maxwin/BulkDock/OUTPUTS/openbind_a71ev2a_c2_elabs_1LSYIDY.sdf']

>  <name>  (1152) 
P576993

>  <ref_pdb>  (1152) 
A3066a

>  <subsites>  (1152) 
None

>  <HIPPO Pose ID>  (1152) 
576993

>  <ref_mols>  (1152) 
A3066a

>  <HIPPO Compound ID>  (1152) 
350225

>  <tags>  (1152) 
openbind_a71ev2a_c2_elabs,syndirella_product,openbind_a71ev2a_c2_elabs_fragonly_scored_top80percent,BulkDock Fragalysis export,openbind_a71ev2a_c2_elabs_scored,openbind_a71ev2a_c2_elabs_scored_top80percent,openbind_a71ev2a_c2_elabs_activefrags_only_scored_5.2plus,openbind_a71ev2a_c2_elabs_activefrags_only_scored_5.5plus,syndirella_placed

>  <smina_score_min>  (1152) 
-7.149

$$$$
P576995
     RDKit          3D

 18 19  0  0  0  0  0  0  0  0999 V2000
   12.6499   15.1088   21.7457 C   0  0  0  0  0  0  0  0  0  0  0  0
   11.6037   14.3596   20.9443 C   0  0  0  0  0  0  0  0  0  0  0  0
   11.7300   14.5115   19.4389 C   0  0  0  0  0  0  0  0  0  0  0  0
   10.1956   14.7499   21.3883 C   0  0  0  0  0  0  0  0  0  0  0  0
    9.7440   13.7366   22.2765 N   0  0  0  0  0  0  0  0  0  0  0  0
   10.0790   13.4817   23.7431 C   0  0  0  0  0  0  0  0  0  0  0  0
   10.7191   14.1017   24.4894 O   0  0  0  0  0  0  0  0  0  0  0  0
    9.5047   12.1942   24.0513 C   0  0  0  0  0  0  0  0  0  0  0  0
    9.8585   11.0358   23.3854 C   0  0  0  0  0  0  0  0  0  0  0  0
    9.1034   10.0142   23.8738 N   0  0  0  0  0  0  0  0  0  0  0  0
    9.2488    8.6408   23.4474 C   0  0  0  0  0  0  0  0  0  0  0  0
    8.2073   10.5076   24.7987 C   0  0  0  0  0  0  0  0  0  0  0  0
    7.1912    9.8805   25.5215 C   0  0  0  0  0  0  0  0  0  0  0  0
    6.4321   10.6451   26.4093 C   0  0  0  0  0  0  0  0  0  0  0  0
    6.6605   12.0081   26.5460 C   0  0  0  0  0  0  0  0  0  0  0  0
    5.7064   12.9225   27.6482 Cl  0  0  0  0  0  0  0  0  0  0  0  0
    7.6589   12.6439   25.8111 C   0  0  0  0  0  0  0  0  0  0  0  0
    8.4531   11.8777   24.9365 C   0  0  0  0  0  0  0  0  0  0  0  0
  1  2  1  0
  2  3  1  0
  2  4  1  0
  4  5  1  0
  5  6  1  0
  6  7  2  0
  6  8  1  0
  8  9  2  0
  9 10  1  0
 10 11  1  0
 10 12  1  0
 12 13  2  0
 13 14  1  0
 14 15  2  0
 15 16  1  0
 15 17  1  0
 17 18  2  0
 18  8  1  0
 18 12  1  0
M  END
>  <alias>  (1153) 
None

>  <rmsd(smina/fragmenstein)>  (1153) 
0.195

>  <smiles>  (1153) 
CC(C)CNC(=O)c1cn(C)c2ccc(Cl)cc12

>  <gnina_score>  (1153) 
5.271

>  <inspiration_score>  (1153) 
None

>  <energy_score>  (1153) 
-4.094695

>  <distance_score>  (1153) 
0.952672

>  <gnina_score_min>  (1153) 
5.333

>  <inchikey>  (1153) 
YYTOPTUXAGOKBB-UHFFFAOYSA-N

>  <exports>  (1153) 
['/opt/xchem-fragalysis-2/maxwin/BulkDock/OUTPUTS/openbind_a71ev2a_c2_elabs_1LOUU54.sdf', '/opt/xchem-fragalysis-2/maxwin/BulkDock/OUTPUTS/openbind_a71ev2a_c2_elabs_1LSYIDY.sdf']

>  <name>  (1153) 
P576995

>  <ref_pdb>  (1153) 
A3066a

>  <subsites>  (1153) 
None

>  <HIPPO Pose ID>  (1153) 
576995

>  <ref_mols>  (1153) 
A3066a

>  <HIPPO Compound ID>  (1153) 
350227

>  <tags>  (1153) 
openbind_a71ev2a_c2_elabs,syndirella_product,openbind_a71ev2a_c2_elabs_fragonly_scored_top80percent,openbind_a71ev2a_c2_elabs_scored,BulkDock Fragalysis export,openbind_a71ev2a_c2_elabs_scored_top80percent,openbind_a71ev2a_c2_elabs_activefrags_only_scored_5.2plus,syndirella_placed

>  <smina_score_min>  (1153) 
-6.555

$$$$
P576996
     RDKit          3D

 18 19  0  0  0  0  0  0  0  0999 V2000
   12.6640   13.8997   19.5752 C   0  0  0  0  0  0  0  0  0  0  0  0
   11.8262   14.5417   20.4846 O   0  0  0  0  0  0  0  0  0  0  0  0
   12.5354   14.6984   21.7090 C   0  0  0  0  0  0  0  0  0  0  0  0
   11.4831   15.0469   22.6999 C   0  0  0  0  0  0  0  0  0  0  0  0
   10.7812   13.8759   23.0880 N   0  0  0  0  0  0  0  0  0  0  0  0
   10.2533   13.4469   24.4410 C   0  0  0  0  0  0  0  0  0  0  0  0
   10.3678   13.9398   25.4838 O   0  0  0  0  0  0  0  0  0  0  0  0
    9.5387   12.1955   24.2852 C   0  0  0  0  0  0  0  0  0  0  0  0
    9.8757   11.1438   23.4528 C   0  0  0  0  0  0  0  0  0  0  0  0
    9.1013   10.0721   23.7988 N   0  0  0  0  0  0  0  0  0  0  0  0
    9.2935    8.7377   23.2738 C   0  0  0  0  0  0  0  0  0  0  0  0
    8.1759   10.4583   24.7445 C   0  0  0  0  0  0  0  0  0  0  0  0
    7.1777    9.7500   25.4103 C   0  0  0  0  0  0  0  0  0  0  0  0
    6.3839   10.4140   26.3480 C   0  0  0  0  0  0  0  0  0  0  0  0
    6.5693   11.7653   26.6006 C   0  0  0  0  0  0  0  0  0  0  0  0
    5.5824   12.5581   27.7655 Cl  0  0  0  0  0  0  0  0  0  0  0  0
    7.5710   12.4757   25.9483 C   0  0  0  0  0  0  0  0  0  0  0  0
    8.3970   11.8047   25.0231 C   0  0  0  0  0  0  0  0  0  0  0  0
  1  2  1  0
  2  3  1  0
  3  4  1  0
  4  5  1  0
  5  6  1  0
  6  7  2  0
  6  8  1  0
  8  9  2  0
  9 10  1  0
 10 11  1  0
 10 12  1  0
 12 13  2  0
 13 14  1  0
 14 15  2  0
 15 16  1  0
 15 17  1  0
 17 18  2  0
 18  8  1  0
 18 12  1  0
M  END
>  <alias>  (1154) 
None

>  <rmsd(smina/fragmenstein)>  (1154) 
1.058

>  <smiles>  (1154) 
COCCNC(=O)c1cn(C)c2ccc(Cl)cc12

>  <gnina_score>  (1154) 
4.961

>  <inspiration_score>  (1154) 
None

>  <energy_score>  (1154) 
-11.06252

>  <distance_score>  (1154) 
0.823847

>  <gnina_score_min>  (1154) 
5.393

>  <inchikey>  (1154) 
LRILWDSCBQIBGI-UHFFFAOYSA-N

>  <exports>  (1154) 
['/opt/xchem-fragalysis-2/maxwin/BulkDock/OUTPUTS/openbind_a71ev2a_c2_elabs_1LOUU54.sdf', '/opt/xchem-fragalysis-2/maxwin/BulkDock/OUTPUTS/openbind_a71ev2a_c2_elabs_1LSYIDY.sdf']

>  <name>  (1154) 
P576996

>  <ref_pdb>  (1154) 
A3066a

>  <subsites>  (1154) 
None

>  <HIPPO Pose ID>  (1154) 
576996

>  <ref_mols>  (1154) 
A3066a

>  <HIPPO Compound ID>  (1154) 
350228

>  <tags>  (1154) 
openbind_a71ev2a_c2_elabs,syndirella_product,openbind_a71ev2a_c2_elabs_fragonly_scored_top80percent,openbind_a71ev2a_c2_elabs_scored,BulkDock Fragalysis export,openbind_a71ev2a_c2_elabs_scored_top80percent,openbind_a71ev2a_c2_elabs_activefrags_only_scored_5.2plus,syndirella_placed

>  <smina_score_min>  (1154) 
-6.903

$$$$
P576998
     RDKit          3D

 18 20  0  0  0  0  0  0  0  0999 V2000
    9.0154    8.7759   23.6651 C   0  0  0  0  0  0  0  0  0  0  0  0
    9.0496   10.2039   23.8919 N   0  0  0  0  0  0  0  0  0  0  0  0
    9.9530   11.0099   23.2486 C   0  0  0  0  0  0  0  0  0  0  0  0
    9.8886   12.2636   23.8091 C   0  0  0  0  0  0  0  0  0  0  0  0
   10.6692   13.4382   23.4770 C   0  0  0  0  0  0  0  0  0  0  0  0
   10.9889   14.1827   24.3149 O   0  0  0  0  0  0  0  0  0  0  0  0
   10.8498   13.5155   21.9549 N   0  0  0  0  0  0  0  0  0  0  0  0
   11.3636   14.5411   21.1497 C   0  0  0  0  0  0  0  0  0  0  0  0
   12.6129   15.1441   21.7031 C   0  0  0  0  0  0  0  0  0  0  0  0
   10.2637   15.4298   20.5671 C   0  0  0  0  0  0  0  0  0  0  0  0
   11.1498   14.6424   19.6628 C   0  0  0  0  0  0  0  0  0  0  0  0
    8.8200   12.2500   24.7453 C   0  0  0  0  0  0  0  0  0  0  0  0
    8.2421   13.2642   25.5440 C   0  0  0  0  0  0  0  0  0  0  0  0
    7.1550   12.9857   26.3628 C   0  0  0  0  0  0  0  0  0  0  0  0
    6.6196   11.7137   26.3666 C   0  0  0  0  0  0  0  0  0  0  0  0
    7.1547   10.7055   25.5574 C   0  0  0  0  0  0  0  0  0  0  0  0
    6.3101    9.2422   25.5391 Cl  0  0  0  0  0  0  0  0  0  0  0  0
    8.2799   10.9599   24.7588 C   0  0  0  0  0  0  0  0  0  0  0  0
  1  2  1  0
  2  3  1  0
  3  4  2  0
  4  5  1  0
  5  6  2  0
  5  7  1  0
  7  8  1  0
  8  9  1  0
  8 10  1  0
 10 11  1  0
  4 12  1  0
 12 13  2  0
 13 14  1  0
 14 15  2  0
 15 16  1  0
 16 17  1  0
 16 18  2  0
 18  2  1  0
 11  8  1  0
 18 12  1  0
M  END
>  <alias>  (1155) 
None

>  <rmsd(smina/fragmenstein)>  (1155) 
0.571

>  <smiles>  (1155) 
Cn1cc(C(=O)NC2(C)CC2)c2cccc(Cl)c21

>  <gnina_score>  (1155) 
5.489

>  <inspiration_score>  (1155) 
None

>  <energy_score>  (1155) 
-0.292718

>  <distance_score>  (1155) 
0.720086

>  <gnina_score_min>  (1155) 
5.463

>  <inchikey>  (1155) 
XKEAVVQOKSONTE-UHFFFAOYSA-N

>  <exports>  (1155) 
['/opt/xchem-fragalysis-2/maxwin/BulkDock/OUTPUTS/openbind_a71ev2a_c2_elabs_1LOUU54.sdf', '/opt/xchem-fragalysis-2/maxwin/BulkDock/OUTPUTS/openbind_a71ev2a_c2_elabs_1LSYIDY.sdf']

>  <name>  (1155) 
P576998

>  <ref_pdb>  (1155) 
A3066a

>  <subsites>  (1155) 
None

>  <HIPPO Pose ID>  (1155) 
576998

>  <ref_mols>  (1155) 
A3066a

>  <HIPPO Compound ID>  (1155) 
350230

>  <tags>  (1155) 
openbind_a71ev2a_c2_elabs,syndirella_product,openbind_a71ev2a_c2_elabs_fragonly_scored_top80percent,openbind_a71ev2a_c2_elabs_scored,BulkDock Fragalysis export,openbind_a71ev2a_c2_elabs_scored_top80percent,openbind_a71ev2a_c2_elabs_activefrags_only_scored_5.2plus,syndirella_placed

>  <smina_score_min>  (1155) 
-7.287

$$$$
P576999
     RDKit          3D

 18 19  0  0  0  0  0  0  0  0999 V2000
    8.9651    8.8802   23.7757 C   0  0  0  0  0  0  0  0  0  0  0  0
    8.9484   10.3051   24.0316 N   0  0  0  0  0  0  0  0  0  0  0  0
    9.8305   11.1477   23.4152 C   0  0  0  0  0  0  0  0  0  0  0  0
    9.7016   12.3956   23.9846 C   0  0  0  0  0  0  0  0  0  0  0  0
   10.4495   13.5472   23.5587 C   0  0  0  0  0  0  0  0  0  0  0  0
   11.3110   14.0159   24.1799 O   0  0  0  0  0  0  0  0  0  0  0  0
    9.9361   13.8885   22.1638 N   0  0  0  0  0  0  0  0  0  0  0  0
   10.4302   14.8163   21.1913 C   0  0  0  0  0  0  0  0  0  0  0  0
   11.7826   14.2947   20.7114 C   0  0  0  0  0  0  0  0  0  0  0  0
   11.9033   14.4284   18.9642 Cl  0  0  0  0  0  0  0  0  0  0  0  0
   13.0961   15.0419   21.5996 Cl  0  0  0  0  0  0  0  0  0  0  0  0
    8.6542   12.3404   24.9201 C   0  0  0  0  0  0  0  0  0  0  0  0
    8.0600   13.3240   25.7373 C   0  0  0  0  0  0  0  0  0  0  0  0
    6.9872   12.9916   26.5547 C   0  0  0  0  0  0  0  0  0  0  0  0
    6.4790   11.7063   26.5252 C   0  0  0  0  0  0  0  0  0  0  0  0
    7.0305   10.7311   25.6871 C   0  0  0  0  0  0  0  0  0  0  0  0
    6.2042    9.2580   25.5971 Cl  0  0  0  0  0  0  0  0  0  0  0  0
    8.1538   11.0301   24.9053 C   0  0  0  0  0  0  0  0  0  0  0  0
  1  2  1  0
  2  3  1  0
  3  4  2  0
  4  5  1  0
  5  6  2  0
  5  7  1  0
  7  8  1  0
  8  9  1  0
  9 10  1  0
  9 11  1  0
  4 12  1  0
 12 13  2  0
 13 14  1  0
 14 15  2  0
 15 16  1  0
 16 17  1  0
 16 18  2  0
 18  2  1  0
 18 12  1  0
M  END
>  <alias>  (1156) 
None

>  <rmsd(smina/fragmenstein)>  (1156) 
0.325

>  <smiles>  (1156) 
Cn1cc(C(=O)NCC(Cl)Cl)c2cccc(Cl)c21

>  <gnina_score>  (1156) 
5.193

>  <inspiration_score>  (1156) 
None

>  <energy_score>  (1156) 
-1.600777

>  <distance_score>  (1156) 
1.025236

>  <gnina_score_min>  (1156) 
5.279

>  <inchikey>  (1156) 
TZLRHDCJNLJRNJ-UHFFFAOYSA-N

>  <exports>  (1156) 
['/opt/xchem-fragalysis-2/maxwin/BulkDock/OUTPUTS/openbind_a71ev2a_c2_elabs_1LOUU54.sdf', '/opt/xchem-fragalysis-2/maxwin/BulkDock/OUTPUTS/openbind_a71ev2a_c2_elabs_1LSYIDY.sdf']

>  <name>  (1156) 
P576999

>  <ref_pdb>  (1156) 
A3066a

>  <subsites>  (1156) 
None

>  <HIPPO Pose ID>  (1156) 
576999

>  <ref_mols>  (1156) 
A3066a

>  <HIPPO Compound ID>  (1156) 
350235

>  <tags>  (1156) 
openbind_a71ev2a_c2_elabs,syndirella_product,openbind_a71ev2a_c2_elabs_fragonly_scored_top80percent,openbind_a71ev2a_c2_elabs_scored,BulkDock Fragalysis export,openbind_a71ev2a_c2_elabs_scored_top80percent,openbind_a71ev2a_c2_elabs_activefrags_only_scored_5.2plus,syndirella_placed

>  <smina_score_min>  (1156) 
-5.856

$$$$
P577000
     RDKit          3D

 18 19  0  0  0  0  0  0  0  0999 V2000
    9.1310   16.2977   20.6389 C   0  0  0  0  0  0  0  0  0  0  0  0
   10.0447   15.6003   20.2935 C   0  0  0  0  0  0  0  0  0  0  0  0
   11.1720   14.7504   19.8794 C   0  0  0  0  0  0  0  0  0  0  0  0
   12.0690   14.3447   21.0495 C   0  0  0  0  0  0  0  0  0  0  0  0
   11.3781   13.4012   21.8816 N   0  0  0  0  0  0  0  0  0  0  0  0
   10.9387   13.4996   23.3443 C   0  0  0  0  0  0  0  0  0  0  0  0
   11.1323   14.3302   24.1363 O   0  0  0  0  0  0  0  0  0  0  0  0
   10.0633   12.3643   23.6768 C   0  0  0  0  0  0  0  0  0  0  0  0
   10.0856   11.0951   23.1374 C   0  0  0  0  0  0  0  0  0  0  0  0
    9.1750   10.3053   23.7893 N   0  0  0  0  0  0  0  0  0  0  0  0
    9.1110    8.8730   23.5798 C   0  0  0  0  0  0  0  0  0  0  0  0
    8.4211   11.0813   24.6478 C   0  0  0  0  0  0  0  0  0  0  0  0
    7.3068   10.8292   25.4654 C   0  0  0  0  0  0  0  0  0  0  0  0
    6.5057    9.3359   25.5215 Cl  0  0  0  0  0  0  0  0  0  0  0  0
    6.7680   11.8525   26.2498 C   0  0  0  0  0  0  0  0  0  0  0  0
    7.3056   13.1245   26.2179 C   0  0  0  0  0  0  0  0  0  0  0  0
    8.4004   13.3892   25.3994 C   0  0  0  0  0  0  0  0  0  0  0  0
    8.9764   12.3702   24.6068 C   0  0  0  0  0  0  0  0  0  0  0  0
  1  2  3  0
  2  3  1  0
  3  4  1  0
  4  5  1  0
  5  6  1  0
  6  7  2  0
  6  8  1  0
  8  9  2  0
  9 10  1  0
 10 11  1  0
 10 12  1  0
 12 13  2  0
 13 14  1  0
 13 15  1  0
 15 16  2  0
 16 17  1  0
 17 18  2  0
 18  8  1  0
 18 12  1  0
M  END
>  <alias>  (1157) 
None

>  <rmsd(smina/fragmenstein)>  (1157) 
0.789

>  <smiles>  (1157) 
C#CCCNC(=O)c1cn(C)c2c(Cl)cccc12

>  <gnina_score>  (1157) 
5.509

>  <inspiration_score>  (1157) 
None

>  <energy_score>  (1157) 
-11.428051

>  <distance_score>  (1157) 
0.69853

>  <gnina_score_min>  (1157) 
5.34

>  <inchikey>  (1157) 
VRZOSKAUPLLYPR-UHFFFAOYSA-N

>  <exports>  (1157) 
['/opt/xchem-fragalysis-2/maxwin/BulkDock/OUTPUTS/openbind_a71ev2a_c2_elabs_1LOUU54.sdf', '/opt/xchem-fragalysis-2/maxwin/BulkDock/OUTPUTS/openbind_a71ev2a_c2_elabs_1LSYIDY.sdf']

>  <name>  (1157) 
P577000

>  <ref_pdb>  (1157) 
A3066a

>  <subsites>  (1157) 
None

>  <HIPPO Pose ID>  (1157) 
577000

>  <ref_mols>  (1157) 
A3066a

>  <HIPPO Compound ID>  (1157) 
350240

>  <tags>  (1157) 
openbind_a71ev2a_c2_elabs,syndirella_product,openbind_a71ev2a_c2_elabs_fragonly_scored_top80percent,openbind_a71ev2a_c2_elabs_scored,BulkDock Fragalysis export,openbind_a71ev2a_c2_elabs_scored_top80percent,openbind_a71ev2a_c2_elabs_activefrags_only_scored_5.2plus,syndirella_placed

>  <smina_score_min>  (1157) 
-7.293

$$$$
P577001
     RDKit          3D

 18 20  0  0  0  0  0  0  0  0999 V2000
    9.1546    8.9660   23.5146 C   0  0  0  0  0  0  0  0  0  0  0  0
    9.1826   10.3922   23.7745 N   0  0  0  0  0  0  0  0  0  0  0  0
   10.0650   11.2358   23.1507 C   0  0  0  0  0  0  0  0  0  0  0  0
   10.0135   12.4687   23.7625 C   0  0  0  0  0  0  0  0  0  0  0  0
   10.8536   13.6277   23.4793 C   0  0  0  0  0  0  0  0  0  0  0  0
   11.2349   14.3172   24.3546 O   0  0  0  0  0  0  0  0  0  0  0  0
   11.0015   13.7733   21.9959 N   0  0  0  0  0  0  0  0  0  0  0  0
   11.7647   14.7863   21.1762 C   0  0  0  0  0  0  0  0  0  0  0  0
   10.6497   14.8299   20.1643 C   0  0  0  0  0  0  0  0  0  0  0  0
   10.3711   15.9886   19.5291 F   0  0  0  0  0  0  0  0  0  0  0  0
    9.8233   14.5721   21.3840 C   0  0  0  0  0  0  0  0  0  0  0  0
    8.9334   12.4149   24.6872 C   0  0  0  0  0  0  0  0  0  0  0  0
    8.3379   13.3918   25.5167 C   0  0  0  0  0  0  0  0  0  0  0  0
    7.2486   13.0702   26.3204 C   0  0  0  0  0  0  0  0  0  0  0  0
    6.7413   11.7854   26.3001 C   0  0  0  0  0  0  0  0  0  0  0  0
    7.3045   10.8056   25.4767 C   0  0  0  0  0  0  0  0  0  0  0  0
    6.5426    9.2942   25.4776 Cl  0  0  0  0  0  0  0  0  0  0  0  0
    8.4105   11.1136   24.6691 C   0  0  0  0  0  0  0  0  0  0  0  0
  1  2  1  0
  2  3  1  0
  3  4  2  0
  4  5  1  0
  5  6  2  0
  5  7  1  0
  7  8  1  0
  8  9  1  0
  9 10  1  0
  9 11  1  0
  4 12  1  0
 12 13  2  0
 13 14  1  0
 14 15  2  0
 15 16  1  0
 16 17  1  0
 16 18  2  0
 18  2  1  0
 11  7  1  0
 18 12  1  0
M  END
>  <alias>  (1158) 
None

>  <rmsd(smina/fragmenstein)>  (1158) 
0.485

>  <smiles>  (1158) 
Cn1cc(C(=O)N2CC(F)C2)c2cccc(Cl)c21

>  <gnina_score>  (1158) 
5.33

>  <inspiration_score>  (1158) 
None

>  <energy_score>  (1158) 
-8.04858

>  <distance_score>  (1158) 
0.713643

>  <gnina_score_min>  (1158) 
5.285

>  <inchikey>  (1158) 
SFCCHYBUKAUIGP-UHFFFAOYSA-N

>  <exports>  (1158) 
['/opt/xchem-fragalysis-2/maxwin/BulkDock/OUTPUTS/openbind_a71ev2a_c2_elabs_1LOUU54.sdf', '/opt/xchem-fragalysis-2/maxwin/BulkDock/OUTPUTS/openbind_a71ev2a_c2_elabs_1LSYIDY.sdf']

>  <name>  (1158) 
P577001

>  <ref_pdb>  (1158) 
A3066a

>  <subsites>  (1158) 
None

>  <HIPPO Pose ID>  (1158) 
577001

>  <ref_mols>  (1158) 
A3066a

>  <HIPPO Compound ID>  (1158) 
350241

>  <tags>  (1158) 
openbind_a71ev2a_c2_elabs,syndirella_product,openbind_a71ev2a_c2_elabs_fragonly_scored_top80percent,openbind_a71ev2a_c2_elabs_scored,BulkDock Fragalysis export,openbind_a71ev2a_c2_elabs_scored_top80percent,openbind_a71ev2a_c2_elabs_activefrags_only_scored_5.2plus,syndirella_placed

>  <smina_score_min>  (1158) 
-7.478

$$$$
P577002
     RDKit          3D

 18 19  0  0  0  0  0  0  0  0999 V2000
   11.1257   14.9614   19.6221 C   0  0  0  0  0  0  0  0  0  0  0  0
   11.3053   14.9046   21.1273 C   0  0  2  0  0  0  0  0  0  0  0  0
   11.7531   16.1014   21.7335 O   0  0  0  0  0  0  0  0  0  0  0  0
   12.2939   13.8258   21.5488 C   0  0  0  0  0  0  0  0  0  0  0  0
   11.4893   12.9525   22.3219 N   0  0  0  0  0  0  0  0  0  0  0  0
   10.9573   13.0933   23.7423 C   0  0  0  0  0  0  0  0  0  0  0  0
   11.1530   13.9126   24.5430 O   0  0  0  0  0  0  0  0  0  0  0  0
    9.9980   12.0324   23.9884 C   0  0  0  0  0  0  0  0  0  0  0  0
    9.9624   10.7810   23.4199 C   0  0  0  0  0  0  0  0  0  0  0  0
    8.9600   10.0679   24.0108 N   0  0  0  0  0  0  0  0  0  0  0  0
    8.8525    8.6503   23.7775 C   0  0  0  0  0  0  0  0  0  0  0  0
    8.2135   10.8874   24.8324 C   0  0  0  0  0  0  0  0  0  0  0  0
    7.0513   10.7194   25.6003 C   0  0  0  0  0  0  0  0  0  0  0  0
    6.1492    9.2869   25.6385 Cl  0  0  0  0  0  0  0  0  0  0  0  0
    6.5459   11.7870   26.3497 C   0  0  0  0  0  0  0  0  0  0  0  0
    7.1501   13.0282   26.3181 C   0  0  0  0  0  0  0  0  0  0  0  0
    8.2913   13.2125   25.5478 C   0  0  0  0  0  0  0  0  0  0  0  0
    8.8459   12.1370   24.8167 C   0  0  0  0  0  0  0  0  0  0  0  0
  2  1  1  6
  2  3  1  0
  2  4  1  0
  4  5  1  0
  5  6  1  0
  6  7  2  0
  6  8  1  0
  8  9  2  0
  9 10  1  0
 10 11  1  0
 10 12  1  0
 12 13  2  0
 13 14  1  0
 13 15  1  0
 15 16  2  0
 16 17  1  0
 17 18  2  0
 18  8  1  0
 18 12  1  0
M  END
>  <alias>  (1159) 
None

>  <rmsd(smina/fragmenstein)>  (1159) 
1.027

>  <smiles>  (1159) 
C[C@H](O)CNC(=O)c1cn(C)c2c(Cl)cccc12

>  <gnina_score>  (1159) 
5.008

>  <inspiration_score>  (1159) 
None

>  <energy_score>  (1159) 
-4.053851

>  <distance_score>  (1159) 
0.684552

>  <gnina_score_min>  (1159) 
5.273

>  <inchikey>  (1159) 
XZVFGIKQOZESAM-QMMMGPOBSA-N

>  <exports>  (1159) 
['/opt/xchem-fragalysis-2/maxwin/BulkDock/OUTPUTS/openbind_a71ev2a_c2_elabs_1LOUU54.sdf', '/opt/xchem-fragalysis-2/maxwin/BulkDock/OUTPUTS/openbind_a71ev2a_c2_elabs_1LSYIDY.sdf']

>  <name>  (1159) 
P577002

>  <ref_pdb>  (1159) 
A3066a

>  <subsites>  (1159) 
None

>  <HIPPO Pose ID>  (1159) 
577002

>  <ref_mols>  (1159) 
A3066a

>  <HIPPO Compound ID>  (1159) 
350245

>  <tags>  (1159) 
openbind_a71ev2a_c2_elabs,syndirella_product,openbind_a71ev2a_c2_elabs_fragonly_scored_top80percent,openbind_a71ev2a_c2_elabs_scored,BulkDock Fragalysis export,openbind_a71ev2a_c2_elabs_scored_top80percent,openbind_a71ev2a_c2_elabs_activefrags_only_scored_5.2plus,syndirella_placed

>  <smina_score_min>  (1159) 
-6.842

$$$$
P577003
     RDKit          3D

 18 19  0  0  0  0  0  0  0  0999 V2000
   12.7599   14.7637   21.3306 C   0  0  0  0  0  0  0  0  0  0  0  0
   11.6310   14.7211   20.6173 C   0  0  0  0  0  0  0  0  0  0  0  0
   11.6978   14.4014   18.9316 Cl  0  0  0  0  0  0  0  0  0  0  0  0
   10.2872   15.0393   21.1636 C   0  0  0  0  0  0  0  0  0  0  0  0
    9.9210   13.9878   22.0476 N   0  0  0  0  0  0  0  0  0  0  0  0
   10.4257   13.6472   23.4486 C   0  0  0  0  0  0  0  0  0  0  0  0
   11.1677   14.2138   24.1413 O   0  0  0  0  0  0  0  0  0  0  0  0
    9.7489   12.4407   23.8575 C   0  0  0  0  0  0  0  0  0  0  0  0
    9.8929   11.1939   23.2924 C   0  0  0  0  0  0  0  0  0  0  0  0
    9.0389   10.3345   23.9329 N   0  0  0  0  0  0  0  0  0  0  0  0
    9.0645    8.9065   23.6919 C   0  0  0  0  0  0  0  0  0  0  0  0
    8.2428   11.0457   24.8169 C   0  0  0  0  0  0  0  0  0  0  0  0
    7.1330   10.7306   25.6132 C   0  0  0  0  0  0  0  0  0  0  0  0
    6.3291    9.2460   25.5337 Cl  0  0  0  0  0  0  0  0  0  0  0  0
    6.5733   11.6966   26.4564 C   0  0  0  0  0  0  0  0  0  0  0  0
    7.0654   12.9874   26.4831 C   0  0  0  0  0  0  0  0  0  0  0  0
    8.1257   13.3331   25.6543 C   0  0  0  0  0  0  0  0  0  0  0  0
    8.7235   12.3607   24.8239 C   0  0  0  0  0  0  0  0  0  0  0  0
  1  2  2  0
  2  3  1  0
  2  4  1  0
  4  5  1  0
  5  6  1  0
  6  7  2  0
  6  8  1  0
  8  9  2  0
  9 10  1  0
 10 11  1  0
 10 12  1  0
 12 13  2  0
 13 14  1  0
 13 15  1  0
 15 16  2  0
 16 17  1  0
 17 18  2  0
 18  8  1  0
 18 12  1  0
M  END
>  <alias>  (1160) 
None

>  <rmsd(smina/fragmenstein)>  (1160) 
0.257

>  <smiles>  (1160) 
C=C(Cl)CNC(=O)c1cn(C)c2c(Cl)cccc12

>  <gnina_score>  (1160) 
5.238

>  <inspiration_score>  (1160) 
None

>  <energy_score>  (1160) 
-7.536626

>  <distance_score>  (1160) 
1.024688

>  <gnina_score_min>  (1160) 
5.279

>  <inchikey>  (1160) 
MWVCZEZAIREQAA-UHFFFAOYSA-N

>  <exports>  (1160) 
['/opt/xchem-fragalysis-2/maxwin/BulkDock/OUTPUTS/openbind_a71ev2a_c2_elabs_1LOUU54.sdf', '/opt/xchem-fragalysis-2/maxwin/BulkDock/OUTPUTS/openbind_a71ev2a_c2_elabs_1LSYIDY.sdf']

>  <name>  (1160) 
P577003

>  <ref_pdb>  (1160) 
A3066a

>  <subsites>  (1160) 
None

>  <HIPPO Pose ID>  (1160) 
577003

>  <ref_mols>  (1160) 
A3066a

>  <HIPPO Compound ID>  (1160) 
350246

>  <tags>  (1160) 
openbind_a71ev2a_c2_elabs,syndirella_product,openbind_a71ev2a_c2_elabs_fragonly_scored_top80percent,openbind_a71ev2a_c2_elabs_scored,BulkDock Fragalysis export,openbind_a71ev2a_c2_elabs_scored_top80percent,openbind_a71ev2a_c2_elabs_activefrags_only_scored_5.2plus,syndirella_placed

>  <smina_score_min>  (1160) 
-6.073

$$$$
P577005
     RDKit          3D

 18 19  0  0  0  0  0  0  0  0999 V2000
    9.8643   15.7066   20.0882 C   0  0  0  0  0  0  0  0  0  0  0  0
   10.7795   15.0529   20.5117 C   0  0  0  0  0  0  0  0  0  0  0  0
   11.8473   14.2276   21.1002 C   0  0  1  0  0  0  0  0  0  0  0  0
   12.8330   15.0309   21.9065 C   0  0  0  0  0  0  0  0  0  0  0  0
   11.1886   13.2810   21.9346 N   0  0  0  0  0  0  0  0  0  0  0  0
   10.8007   13.3581   23.4114 C   0  0  0  0  0  0  0  0  0  0  0  0
   11.0238   14.1760   24.2088 O   0  0  0  0  0  0  0  0  0  0  0  0
    9.9432   12.2301   23.7506 C   0  0  0  0  0  0  0  0  0  0  0  0
    9.9771   10.9596   23.2228 C   0  0  0  0  0  0  0  0  0  0  0  0
    9.0563   10.1861   23.8767 N   0  0  0  0  0  0  0  0  0  0  0  0
    9.0028    8.7555   23.6744 C   0  0  0  0  0  0  0  0  0  0  0  0
    8.3010   10.9731   24.7255 C   0  0  0  0  0  0  0  0  0  0  0  0
    7.1764   10.7479   25.5350 C   0  0  0  0  0  0  0  0  0  0  0  0
    6.3220    9.2862   25.5640 Cl  0  0  0  0  0  0  0  0  0  0  0  0
    6.6548   11.7822   26.3188 C   0  0  0  0  0  0  0  0  0  0  0  0
    7.2064   13.0473   26.2806 C   0  0  0  0  0  0  0  0  0  0  0  0
    8.2981   13.2931   25.4557 C   0  0  0  0  0  0  0  0  0  0  0  0
    8.8628   12.2561   24.6782 C   0  0  0  0  0  0  0  0  0  0  0  0
  1  2  3  0
  2  3  1  0
  3  4  1  1
  3  5  1  0
  5  6  1  0
  6  7  2  0
  6  8  1  0
  8  9  2  0
  9 10  1  0
 10 11  1  0
 10 12  1  0
 12 13  2  0
 13 14  1  0
 13 15  1  0
 15 16  2  0
 16 17  1  0
 17 18  2  0
 18  8  1  0
 18 12  1  0
M  END
>  <alias>  (1161) 
None

>  <rmsd(smina/fragmenstein)>  (1161) 
0.452

>  <smiles>  (1161) 
C#C[C@@H](C)NC(=O)c1cn(C)c2c(Cl)cccc12

>  <gnina_score>  (1161) 
5.553

>  <inspiration_score>  (1161) 
None

>  <energy_score>  (1161) 
-2.996718

>  <distance_score>  (1161) 
0.682601

>  <gnina_score_min>  (1161) 
5.516

>  <inchikey>  (1161) 
WRVJMCABQBOFJJ-SECBINFHSA-N

>  <exports>  (1161) 
['/opt/xchem-fragalysis-2/maxwin/BulkDock/OUTPUTS/openbind_a71ev2a_c2_elabs_1LOUU54.sdf', '/opt/xchem-fragalysis-2/maxwin/BulkDock/OUTPUTS/openbind_a71ev2a_c2_elabs_1LSYIDY.sdf']

>  <name>  (1161) 
P577005

>  <ref_pdb>  (1161) 
A3066a

>  <subsites>  (1161) 
None

>  <HIPPO Pose ID>  (1161) 
577005

>  <ref_mols>  (1161) 
A3066a

>  <HIPPO Compound ID>  (1161) 
350249

>  <tags>  (1161) 
openbind_a71ev2a_c2_elabs,syndirella_product,openbind_a71ev2a_c2_elabs_fragonly_scored_top80percent,BulkDock Fragalysis export,openbind_a71ev2a_c2_elabs_scored,openbind_a71ev2a_c2_elabs_scored_top80percent,openbind_a71ev2a_c2_elabs_activefrags_only_scored_5.2plus,openbind_a71ev2a_c2_elabs_activefrags_only_scored_5.5plus,syndirella_placed

>  <smina_score_min>  (1161) 
-7.191

$$$$
P577006
     RDKit          3D

 18 20  0  0  0  0  0  0  0  0999 V2000
    9.3749    8.4799   23.4106 C   0  0  0  0  0  0  0  0  0  0  0  0
    9.2085    9.8830   23.7043 N   0  0  0  0  0  0  0  0  0  0  0  0
    9.9582   10.8616   23.1201 C   0  0  0  0  0  0  0  0  0  0  0  0
    9.6715   12.0594   23.7369 C   0  0  0  0  0  0  0  0  0  0  0  0
   10.3155   13.3436   23.5043 C   0  0  0  0  0  0  0  0  0  0  0  0
   10.3759   14.1159   24.3747 O   0  0  0  0  0  0  0  0  0  0  0  0
   10.7321   13.4692   22.0291 N   0  0  0  0  0  0  0  0  0  0  0  0
   11.2118   14.5755   21.3067 C   0  0  0  0  0  0  0  0  0  0  0  0
   12.4759   15.1516   21.8543 C   0  0  0  0  0  0  0  0  0  0  0  0
   11.0116   14.6928   19.8192 C   0  0  0  0  0  0  0  0  0  0  0  0
   10.1384   15.4890   20.7305 C   0  0  0  0  0  0  0  0  0  0  0  0
    8.6064   11.8076   24.6537 C   0  0  0  0  0  0  0  0  0  0  0  0
    7.8451   12.6302   25.5109 C   0  0  0  0  0  0  0  0  0  0  0  0
    6.8511   12.0548   26.2954 C   0  0  0  0  0  0  0  0  0  0  0  0
    6.1405   12.8272   27.1275 F   0  0  0  0  0  0  0  0  0  0  0  0
    6.5915   10.6959   26.2463 C   0  0  0  0  0  0  0  0  0  0  0  0
    7.3246    9.8689   25.3948 C   0  0  0  0  0  0  0  0  0  0  0  0
    8.3313   10.4390   24.6076 C   0  0  0  0  0  0  0  0  0  0  0  0
  1  2  1  0
  2  3  1  0
  3  4  2  0
  4  5  1  0
  5  6  2  0
  5  7  1  0
  7  8  1  0
  8  9  1  0
  8 10  1  0
 10 11  1  0
  4 12  1  0
 12 13  2  0
 13 14  1  0
 14 15  1  0
 14 16  2  0
 16 17  1  0
 17 18  2  0
 18  2  1  0
 11  8  1  0
 18 12  1  0
M  END
>  <alias>  (1162) 
None

>  <rmsd(smina/fragmenstein)>  (1162) 
0.242

>  <smiles>  (1162) 
Cn1cc(C(=O)NC2(C)CC2)c2cc(F)ccc21

>  <gnina_score>  (1162) 
5.488

>  <inspiration_score>  (1162) 
None

>  <energy_score>  (1162) 
-13.406395

>  <distance_score>  (1162) 
0.58252

>  <gnina_score_min>  (1162) 
5.487

>  <inchikey>  (1162) 
QQNWAJZYMLGMOU-UHFFFAOYSA-N

>  <exports>  (1162) 
['/opt/xchem-fragalysis-2/maxwin/BulkDock/OUTPUTS/openbind_a71ev2a_c2_elabs_1LOUU54.sdf', '/opt/xchem-fragalysis-2/maxwin/BulkDock/OUTPUTS/openbind_a71ev2a_c2_elabs_1LSYIDY.sdf']

>  <name>  (1162) 
P577006

>  <ref_pdb>  (1162) 
A3066a

>  <subsites>  (1162) 
None

>  <HIPPO Pose ID>  (1162) 
577006

>  <ref_mols>  (1162) 
A3066a

>  <HIPPO Compound ID>  (1162) 
350250

>  <tags>  (1162) 
openbind_a71ev2a_c2_elabs,syndirella_product,openbind_a71ev2a_c2_elabs_fragonly_scored_top80percent,openbind_a71ev2a_c2_elabs_scored,BulkDock Fragalysis export,openbind_a71ev2a_c2_elabs_scored_top80percent,openbind_a71ev2a_c2_elabs_activefrags_only_scored_5.2plus,syndirella_placed

>  <smina_score_min>  (1162) 
-7.607

$$$$
P577008
     RDKit          3D

 18 19  0  0  0  0  0  0  0  0999 V2000
   12.6801   15.1122   21.7784 C   0  0  0  0  0  0  0  0  0  0  0  0
   11.6537   14.3262   20.9952 C   0  0  2  0  0  0  0  0  0  0  0  0
   11.8298   14.4780   19.2000 S   0  0  0  0  0  0  0  0  0  0  0  0
   10.2264   14.7180   21.3893 C   0  0  0  0  0  0  0  0  0  0  0  0
    9.7514   13.7117   22.2786 N   0  0  0  0  0  0  0  0  0  0  0  0
   10.1059   13.4274   23.7332 C   0  0  0  0  0  0  0  0  0  0  0  0
   10.7856   14.0119   24.4710 O   0  0  0  0  0  0  0  0  0  0  0  0
    9.4879   12.1635   24.0408 C   0  0  0  0  0  0  0  0  0  0  0  0
    9.8226   10.9994   23.3765 C   0  0  0  0  0  0  0  0  0  0  0  0
    9.0704    9.9874   23.8861 N   0  0  0  0  0  0  0  0  0  0  0  0
    9.2346    8.6066   23.4935 C   0  0  0  0  0  0  0  0  0  0  0  0
    8.1771   10.4970   24.8054 C   0  0  0  0  0  0  0  0  0  0  0  0
    7.1619    9.8839   25.5436 C   0  0  0  0  0  0  0  0  0  0  0  0
    6.4178   10.6641   26.4292 C   0  0  0  0  0  0  0  0  0  0  0  0
    6.6613   12.0232   26.5455 C   0  0  0  0  0  0  0  0  0  0  0  0
    5.9276   12.7476   27.4007 F   0  0  0  0  0  0  0  0  0  0  0  0
    7.6555   12.6481   25.8026 C   0  0  0  0  0  0  0  0  0  0  0  0
    8.4346   11.8678   24.9289 C   0  0  0  0  0  0  0  0  0  0  0  0
  2  1  1  1
  2  3  1  0
  2  4  1  0
  4  5  1  0
  5  6  1  0
  6  7  2  0
  6  8  1  0
  8  9  2  0
  9 10  1  0
 10 11  1  0
 10 12  1  0
 12 13  2  0
 13 14  1  0
 14 15  2  0
 15 16  1  0
 15 17  1  0
 17 18  2  0
 18  8  1  0
 18 12  1  0
M  END
>  <alias>  (1163) 
None

>  <rmsd(smina/fragmenstein)>  (1163) 
0.14

>  <smiles>  (1163) 
C[C@H](S)CNC(=O)c1cn(C)c2ccc(F)cc12

>  <gnina_score>  (1163) 
5.354

>  <inspiration_score>  (1163) 
None

>  <energy_score>  (1163) 
-2.050126

>  <distance_score>  (1163) 
0.948088

>  <gnina_score_min>  (1163) 
5.343

>  <inchikey>  (1163) 
PNCONQLQBQFOKX-QMMMGPOBSA-N

>  <exports>  (1163) 
['/opt/xchem-fragalysis-2/maxwin/BulkDock/OUTPUTS/openbind_a71ev2a_c2_elabs_1LOUU54.sdf', '/opt/xchem-fragalysis-2/maxwin/BulkDock/OUTPUTS/openbind_a71ev2a_c2_elabs_1LSYIDY.sdf']

>  <name>  (1163) 
P577008

>  <ref_pdb>  (1163) 
A3066a

>  <subsites>  (1163) 
None

>  <HIPPO Pose ID>  (1163) 
577008

>  <ref_mols>  (1163) 
A3066a

>  <HIPPO Compound ID>  (1163) 
350257

>  <tags>  (1163) 
openbind_a71ev2a_c2_elabs,syndirella_product,openbind_a71ev2a_c2_elabs_fragonly_scored_top80percent,openbind_a71ev2a_c2_elabs_scored,BulkDock Fragalysis export,openbind_a71ev2a_c2_elabs_scored_top80percent,openbind_a71ev2a_c2_elabs_activefrags_only_scored_5.2plus,syndirella_placed

>  <smina_score_min>  (1163) 
-5.914

$$$$
P577010
     RDKit          3D

 18 19  0  0  0  0  0  0  0  0999 V2000
   11.0526   14.4958   19.8399 C   0  0  0  0  0  0  0  0  0  0  0  0
   12.2344   14.4411   20.7849 C   0  0  1  0  0  0  0  0  0  0  0  0
   11.9803   15.6729   22.1942 Br  0  0  0  0  0  0  0  0  0  0  0  0
   12.4902   13.1776   21.5423 C   0  0  0  0  0  0  0  0  0  0  0  0
   11.3574   12.6139   22.1826 N   0  0  0  0  0  0  0  0  0  0  0  0
   10.8175   12.8063   23.6062 C   0  0  0  0  0  0  0  0  0  0  0  0
   11.1709   13.5173   24.4584 O   0  0  0  0  0  0  0  0  0  0  0  0
    9.7685   11.8289   23.8164 C   0  0  0  0  0  0  0  0  0  0  0  0
    9.8270   10.5696   23.2619 C   0  0  0  0  0  0  0  0  0  0  0  0
    8.9217    9.7903   23.8890 N   0  0  0  0  0  0  0  0  0  0  0  0
    8.9579    8.3703   23.7095 C   0  0  0  0  0  0  0  0  0  0  0  0
    8.1466   10.5351   24.7400 C   0  0  0  0  0  0  0  0  0  0  0  0
    7.0791   10.1767   25.5737 C   0  0  0  0  0  0  0  0  0  0  0  0
    6.5130   11.1710   26.3720 C   0  0  0  0  0  0  0  0  0  0  0  0
    6.9867   12.4735   26.3210 C   0  0  0  0  0  0  0  0  0  0  0  0
    6.4324   13.3997   27.1147 F   0  0  0  0  0  0  0  0  0  0  0  0
    8.0470   12.8334   25.4940 C   0  0  0  0  0  0  0  0  0  0  0  0
    8.6476   11.8448   24.6921 C   0  0  0  0  0  0  0  0  0  0  0  0
  2  1  1  6
  2  3  1  0
  2  4  1  0
  4  5  1  0
  5  6  1  0
  6  7  2  0
  6  8  1  0
  8  9  2  0
  9 10  1  0
 10 11  1  0
 10 12  1  0
 12 13  2  0
 13 14  1  0
 14 15  2  0
 15 16  1  0
 15 17  1  0
 17 18  2  0
 18  8  1  0
 18 12  1  0
M  END
>  <alias>  (1164) 
None

>  <rmsd(smina/fragmenstein)>  (1164) 
0.521

>  <smiles>  (1164) 
C[C@@H](Br)CNC(=O)c1cn(C)c2ccc(F)cc12

>  <gnina_score>  (1164) 
5.075

>  <inspiration_score>  (1164) 
None

>  <energy_score>  (1164) 
-1.918771

>  <distance_score>  (1164) 
0.677998

>  <gnina_score_min>  (1164) 
5.276

>  <inchikey>  (1164) 
VIDCLMFZIRRJID-MRVPVSSYSA-N

>  <exports>  (1164) 
['/opt/xchem-fragalysis-2/maxwin/BulkDock/OUTPUTS/openbind_a71ev2a_c2_elabs_1LOUU54.sdf', '/opt/xchem-fragalysis-2/maxwin/BulkDock/OUTPUTS/openbind_a71ev2a_c2_elabs_1LSYIDY.sdf']

>  <name>  (1164) 
P577010

>  <ref_pdb>  (1164) 
A3066a

>  <subsites>  (1164) 
None

>  <HIPPO Pose ID>  (1164) 
577010

>  <ref_mols>  (1164) 
A3066a

>  <HIPPO Compound ID>  (1164) 
350259

>  <tags>  (1164) 
openbind_a71ev2a_c2_elabs,syndirella_product,openbind_a71ev2a_c2_elabs_fragonly_scored_top80percent,openbind_a71ev2a_c2_elabs_scored,BulkDock Fragalysis export,openbind_a71ev2a_c2_elabs_scored_top80percent,openbind_a71ev2a_c2_elabs_activefrags_only_scored_5.2plus,syndirella_placed

>  <smina_score_min>  (1164) 
-4.887

$$$$
P577011
     RDKit          3D

 18 20  0  0  0  0  0  0  0  0999 V2000
    9.2934    8.7370   23.2684 C   0  0  0  0  0  0  0  0  0  0  0  0
    9.2276   10.1334   23.6383 N   0  0  0  0  0  0  0  0  0  0  0  0
   10.0058   11.1051   23.0769 C   0  0  0  0  0  0  0  0  0  0  0  0
    9.7970   12.2885   23.7525 C   0  0  0  0  0  0  0  0  0  0  0  0
   10.5528   13.5235   23.5632 C   0  0  0  0  0  0  0  0  0  0  0  0
   10.8477   14.1872   24.4905 O   0  0  0  0  0  0  0  0  0  0  0  0
   10.7880   13.7437   22.0968 N   0  0  0  0  0  0  0  0  0  0  0  0
   11.5573   14.8252   21.3724 C   0  0  0  0  0  0  0  0  0  0  0  0
   10.5070   14.8789   20.2968 C   0  0  0  0  0  0  0  0  0  0  0  0
   10.2358   16.0658   19.7100 F   0  0  0  0  0  0  0  0  0  0  0  0
    9.6161   14.5215   21.4446 C   0  0  0  0  0  0  0  0  0  0  0  0
    8.7289   12.0485   24.6677 C   0  0  0  0  0  0  0  0  0  0  0  0
    8.0120   12.8743   25.5584 C   0  0  0  0  0  0  0  0  0  0  0  0
    7.0473   12.3142   26.3989 C   0  0  0  0  0  0  0  0  0  0  0  0
    6.7904   10.9495   26.3516 C   0  0  0  0  0  0  0  0  0  0  0  0
    5.6413   10.1934   27.6555 Br  0  0  0  0  0  0  0  0  0  0  0  0
    7.4344   10.1153   25.4319 C   0  0  0  0  0  0  0  0  0  0  0  0
    8.4089   10.6874   24.5992 C   0  0  0  0  0  0  0  0  0  0  0  0
  1  2  1  0
  2  3  1  0
  3  4  2  0
  4  5  1  0
  5  6  2  0
  5  7  1  0
  7  8  1  0
  8  9  1  0
  9 10  1  0
  9 11  1  0
  4 12  1  0
 12 13  2  0
 13 14  1  0
 14 15  2  0
 15 16  1  0
 15 17  1  0
 17 18  2  0
 18  2  1  0
 11  7  1  0
 18 12  1  0
M  END
>  <alias>  (1165) 
None

>  <rmsd(smina/fragmenstein)>  (1165) 
0.288

>  <smiles>  (1165) 
Cn1cc(C(=O)N2CC(F)C2)c2ccc(Br)cc21

>  <gnina_score>  (1165) 
5.455

>  <inspiration_score>  (1165) 
None

>  <energy_score>  (1165) 
-5.596391

>  <distance_score>  (1165) 
0.478983

>  <gnina_score_min>  (1165) 
5.422

>  <inchikey>  (1165) 
TUCYXOBIAMONPA-UHFFFAOYSA-N

>  <exports>  (1165) 
['/opt/xchem-fragalysis-2/maxwin/BulkDock/OUTPUTS/openbind_a71ev2a_c2_elabs_1LOUU54.sdf', '/opt/xchem-fragalysis-2/maxwin/BulkDock/OUTPUTS/openbind_a71ev2a_c2_elabs_1LSYIDY.sdf']

>  <name>  (1165) 
P577011

>  <ref_pdb>  (1165) 
A3066a

>  <subsites>  (1165) 
None

>  <HIPPO Pose ID>  (1165) 
577011

>  <ref_mols>  (1165) 
A3066a

>  <HIPPO Compound ID>  (1165) 
350261

>  <tags>  (1165) 
openbind_a71ev2a_c2_elabs,syndirella_product,openbind_a71ev2a_c2_elabs_fragonly_scored_top80percent,openbind_a71ev2a_c2_elabs_scored,BulkDock Fragalysis export,openbind_a71ev2a_c2_elabs_scored_top80percent,openbind_a71ev2a_c2_elabs_activefrags_only_scored_5.2plus,syndirella_placed

>  <smina_score_min>  (1165) 
-8.077

$$$$
P577012
     RDKit          3D

 18 19  0  0  0  0  0  0  0  0999 V2000
   12.7171   14.5338   21.3323 C   0  0  0  0  0  0  0  0  0  0  0  0
   11.2169   14.7033   21.4267 C   0  0  1  0  0  0  0  0  0  0  0  0
   10.5165   14.8596   20.0790 C   0  0  0  0  0  0  0  0  0  0  0  0
    9.1678   14.7481   20.2739 F   0  0  0  0  0  0  0  0  0  0  0  0
   10.6867   13.5767   22.1435 N   0  0  0  0  0  0  0  0  0  0  0  0
   10.3849   13.3984   23.6294 C   0  0  0  0  0  0  0  0  0  0  0  0
   10.5867   14.1055   24.5300 O   0  0  0  0  0  0  0  0  0  0  0  0
    9.6745   12.1431   23.8262 C   0  0  0  0  0  0  0  0  0  0  0  0
    9.9225   10.9521   23.1775 C   0  0  0  0  0  0  0  0  0  0  0  0
    9.1411    9.9824   23.7365 N   0  0  0  0  0  0  0  0  0  0  0  0
    9.2535    8.5838   23.3940 C   0  0  0  0  0  0  0  0  0  0  0  0
    8.3008   10.5401   24.6764 C   0  0  0  0  0  0  0  0  0  0  0  0
    7.3198    9.9770   25.5044 C   0  0  0  0  0  0  0  0  0  0  0  0
    6.6707   10.8130   26.4198 C   0  0  0  0  0  0  0  0  0  0  0  0
    5.5274   10.0564   27.7291 Br  0  0  0  0  0  0  0  0  0  0  0  0
    6.9159   12.1788   26.4563 C   0  0  0  0  0  0  0  0  0  0  0  0
    7.8746   12.7351   25.6094 C   0  0  0  0  0  0  0  0  0  0  0  0
    8.6042   11.9032   24.7341 C   0  0  0  0  0  0  0  0  0  0  0  0
  2  1  1  6
  2  3  1  0
  3  4  1  0
  2  5  1  0
  5  6  1  0
  6  7  2  0
  6  8  1  0
  8  9  2  0
  9 10  1  0
 10 11  1  0
 10 12  1  0
 12 13  2  0
 13 14  1  0
 14 15  1  0
 14 16  2  0
 16 17  1  0
 17 18  2  0
 18  8  1  0
 18 12  1  0
M  END
>  <alias>  (1166) 
None

>  <rmsd(smina/fragmenstein)>  (1166) 
0.253

>  <smiles>  (1166) 
C[C@@H](CF)NC(=O)c1cn(C)c2cc(Br)ccc12

>  <gnina_score>  (1166) 
5.653

>  <inspiration_score>  (1166) 
None

>  <energy_score>  (1166) 
-4.847443

>  <distance_score>  (1166) 
0.571513

>  <gnina_score_min>  (1166) 
5.614

>  <inchikey>  (1166) 
IAJMPKNUQSPZJW-QMMMGPOBSA-N

>  <exports>  (1166) 
['/opt/xchem-fragalysis-2/maxwin/BulkDock/OUTPUTS/openbind_a71ev2a_c2_elabs_1LOUU54.sdf', '/opt/xchem-fragalysis-2/maxwin/BulkDock/OUTPUTS/openbind_a71ev2a_c2_elabs_1LSYIDY.sdf']

>  <name>  (1166) 
P577012

>  <ref_pdb>  (1166) 
A3066a

>  <subsites>  (1166) 
None

>  <HIPPO Pose ID>  (1166) 
577012

>  <ref_mols>  (1166) 
A3066a

>  <HIPPO Compound ID>  (1166) 
350262

>  <tags>  (1166) 
openbind_a71ev2a_c2_elabs,syndirella_product,openbind_a71ev2a_c2_elabs_fragonly_scored_top80percent,BulkDock Fragalysis export,openbind_a71ev2a_c2_elabs_scored,openbind_a71ev2a_c2_elabs_scored_top80percent,openbind_a71ev2a_c2_elabs_activefrags_only_scored_5.2plus,openbind_a71ev2a_c2_elabs_activefrags_only_scored_5.5plus,syndirella_placed

>  <smina_score_min>  (1166) 
-7.457

$$$$
P577013
     RDKit          3D

 18 19  0  0  0  0  0  0  0  0999 V2000
   12.8525   14.2202   22.3319 C   0  0  0  0  0  0  0  0  0  0  0  0
   11.9731   15.0717   21.8016 C   0  0  0  0  0  0  0  0  0  0  0  0
   12.2217   16.3797   21.9686 F   0  0  0  0  0  0  0  0  0  0  0  0
   10.6899   14.6973   21.1510 C   0  0  0  0  0  0  0  0  0  0  0  0
   10.1914   13.5860   21.8806 N   0  0  0  0  0  0  0  0  0  0  0  0
    9.5271   13.5179   23.2493 C   0  0  0  0  0  0  0  0  0  0  0  0
    9.2083   14.3652   23.9731 O   0  0  0  0  0  0  0  0  0  0  0  0
    9.2502   12.1435   23.6336 C   0  0  0  0  0  0  0  0  0  0  0  0
    9.7976   10.9806   23.1301 C   0  0  0  0  0  0  0  0  0  0  0  0
    9.1761    9.9196   23.7274 N   0  0  0  0  0  0  0  0  0  0  0  0
    9.4676    8.5409   23.4079 C   0  0  0  0  0  0  0  0  0  0  0  0
    8.2500   10.3754   24.6372 C   0  0  0  0  0  0  0  0  0  0  0  0
    7.3311    9.7006   25.4406 C   0  0  0  0  0  0  0  0  0  0  0  0
    6.5168   10.4279   26.3086 C   0  0  0  0  0  0  0  0  0  0  0  0
    6.6080   11.8056   26.3536 C   0  0  0  0  0  0  0  0  0  0  0  0
    5.8236   12.4896   27.1968 F   0  0  0  0  0  0  0  0  0  0  0  0
    7.4880   12.4918   25.5275 C   0  0  0  0  0  0  0  0  0  0  0  0
    8.3203   11.7655   24.6465 C   0  0  0  0  0  0  0  0  0  0  0  0
  1  2  2  0
  2  3  1  0
  2  4  1  0
  4  5  1  0
  5  6  1  0
  6  7  2  0
  6  8  1  0
  8  9  2  0
  9 10  1  0
 10 11  1  0
 10 12  1  0
 12 13  2  0
 13 14  1  0
 14 15  2  0
 15 16  1  0
 15 17  1  0
 17 18  2  0
 18  8  1  0
 18 12  1  0
M  END
>  <alias>  (1167) 
None

>  <rmsd(smina/fragmenstein)>  (1167) 
0.8

>  <smiles>  (1167) 
C=C(F)CNC(=O)c1cn(C)c2ccc(F)cc12

>  <gnina_score>  (1167) 
5.312

>  <inspiration_score>  (1167) 
None

>  <energy_score>  (1167) 
-5.107444

>  <distance_score>  (1167) 
1.028381

>  <gnina_score_min>  (1167) 
5.267

>  <inchikey>  (1167) 
FGGNBYZWXQJDEH-UHFFFAOYSA-N

>  <exports>  (1167) 
['/opt/xchem-fragalysis-2/maxwin/BulkDock/OUTPUTS/openbind_a71ev2a_c2_elabs_1LOUU54.sdf', '/opt/xchem-fragalysis-2/maxwin/BulkDock/OUTPUTS/openbind_a71ev2a_c2_elabs_1LSYIDY.sdf']

>  <name>  (1167) 
P577013

>  <ref_pdb>  (1167) 
A3066a

>  <subsites>  (1167) 
None

>  <HIPPO Pose ID>  (1167) 
577013

>  <ref_mols>  (1167) 
A3066a

>  <HIPPO Compound ID>  (1167) 
350263

>  <tags>  (1167) 
openbind_a71ev2a_c2_elabs,syndirella_product,openbind_a71ev2a_c2_elabs_fragonly_scored_top80percent,openbind_a71ev2a_c2_elabs_scored,BulkDock Fragalysis export,openbind_a71ev2a_c2_elabs_scored_top80percent,openbind_a71ev2a_c2_elabs_activefrags_only_scored_5.2plus,syndirella_placed

>  <smina_score_min>  (1167) 
-6.776

$$$$
P577015
     RDKit          3D

 18 19  0  0  0  0  0  0  0  0999 V2000
    9.3218    8.4897   23.4124 C   0  0  0  0  0  0  0  0  0  0  0  0
    9.1802    9.9026   23.6667 N   0  0  0  0  0  0  0  0  0  0  0  0
    9.9304   10.8501   23.0282 C   0  0  0  0  0  0  0  0  0  0  0  0
    9.6688   12.0724   23.6019 C   0  0  0  0  0  0  0  0  0  0  0  0
   10.3269   13.3434   23.3374 C   0  0  0  0  0  0  0  0  0  0  0  0
   10.4159   14.1045   24.2147 O   0  0  0  0  0  0  0  0  0  0  0  0
   10.7237   13.4770   21.8582 N   0  0  0  0  0  0  0  0  0  0  0  0
   11.2289   14.6126   21.1204 C   0  0  0  0  0  0  0  0  0  0  0  0
   11.7403   14.2600   19.7241 C   0  0  0  0  0  0  0  0  0  0  0  0
   12.3951   15.1435   21.9491 C   0  0  0  0  0  0  0  0  0  0  0  0
   10.0484   15.5794   20.9616 C   0  0  0  0  0  0  0  0  0  0  0  0
    8.6306   11.8626   24.5636 C   0  0  0  0  0  0  0  0  0  0  0  0
    7.9125   12.7275   25.4193 C   0  0  0  0  0  0  0  0  0  0  0  0
    6.9759   12.2064   26.3125 C   0  0  0  0  0  0  0  0  0  0  0  0
    6.7385   10.8399   26.3436 C   0  0  0  0  0  0  0  0  0  0  0  0
    5.6086   10.1401   27.6950 Br  0  0  0  0  0  0  0  0  0  0  0  0
    7.3839    9.9670   25.4609 C   0  0  0  0  0  0  0  0  0  0  0  0
    8.3468   10.4964   24.5888 C   0  0  0  0  0  0  0  0  0  0  0  0
  1  2  1  0
  2  3  1  0
  3  4  2  0
  4  5  1  0
  5  6  2  0
  5  7  1  0
  7  8  1  0
  8  9  1  0
  8 10  1  0
  8 11  1  0
  4 12  1  0
 12 13  2  0
 13 14  1  0
 14 15  2  0
 15 16  1  0
 15 17  1  0
 17 18  2  0
 18  2  1  0
 18 12  1  0
M  END
>  <alias>  (1168) 
None

>  <rmsd(smina/fragmenstein)>  (1168) 
0.216

>  <smiles>  (1168) 
Cn1cc(C(=O)NC(C)(C)C)c2ccc(Br)cc21

>  <gnina_score>  (1168) 
5.637

>  <inspiration_score>  (1168) 
None

>  <energy_score>  (1168) 
-14.564611

>  <distance_score>  (1168) 
0.602367

>  <gnina_score_min>  (1168) 
5.641

>  <inchikey>  (1168) 
HRYTUEQDPYXKMZ-UHFFFAOYSA-N

>  <exports>  (1168) 
['/opt/xchem-fragalysis-2/maxwin/BulkDock/OUTPUTS/openbind_a71ev2a_c2_elabs_1LOUU54.sdf', '/opt/xchem-fragalysis-2/maxwin/BulkDock/OUTPUTS/openbind_a71ev2a_c2_elabs_1LSYIDY.sdf']

>  <name>  (1168) 
P577015

>  <ref_pdb>  (1168) 
A3066a

>  <subsites>  (1168) 
None

>  <HIPPO Pose ID>  (1168) 
577015

>  <ref_mols>  (1168) 
A3066a

>  <HIPPO Compound ID>  (1168) 
350273

>  <tags>  (1168) 
openbind_a71ev2a_c2_elabs,syndirella_product,openbind_a71ev2a_c2_elabs_fragonly_scored_top80percent,BulkDock Fragalysis export,openbind_a71ev2a_c2_elabs_scored,openbind_a71ev2a_c2_elabs_scored_top80percent,openbind_a71ev2a_c2_elabs_activefrags_only_scored_5.2plus,openbind_a71ev2a_c2_elabs_activefrags_only_scored_5.5plus,syndirella_placed

>  <smina_score_min>  (1168) 
-7.043

$$$$
P577016
     RDKit          3D

 18 20  0  0  0  0  0  0  0  0999 V2000
    8.3768   14.3974   21.6741 C   0  0  0  0  0  0  0  0  0  0  0  0
    9.8302   14.7837   21.6526 C   0  0  2  0  0  0  0  0  0  0  0  0
   10.5994   14.8741   20.3647 C   0  0  0  0  0  0  0  0  0  0  0  0
   11.7593   14.6085   21.3054 C   0  0  0  0  0  0  0  0  0  0  0  0
   10.8452   13.6860   22.0789 N   0  0  0  0  0  0  0  0  0  0  0  0
   10.7594   13.3986   23.5521 C   0  0  0  0  0  0  0  0  0  0  0  0
   11.3339   13.8852   24.4587 O   0  0  0  0  0  0  0  0  0  0  0  0
    9.8620   12.2614   23.7572 C   0  0  0  0  0  0  0  0  0  0  0  0
    9.9947   11.0646   23.0811 C   0  0  0  0  0  0  0  0  0  0  0  0
    9.1925   10.1341   23.6691 N   0  0  0  0  0  0  0  0  0  0  0  0
    9.2335    8.7255   23.3492 C   0  0  0  0  0  0  0  0  0  0  0  0
    8.4003   10.7378   24.6206 C   0  0  0  0  0  0  0  0  0  0  0  0
    7.4106   10.2133   25.4660 C   0  0  0  0  0  0  0  0  0  0  0  0
    6.8129   11.0829   26.3827 C   0  0  0  0  0  0  0  0  0  0  0  0
    5.6502   10.3817   27.7053 Br  0  0  0  0  0  0  0  0  0  0  0  0
    7.1307   12.4359   26.4162 C   0  0  0  0  0  0  0  0  0  0  0  0
    8.1164   12.9480   25.5671 C   0  0  0  0  0  0  0  0  0  0  0  0
    8.7865   12.0856   24.6758 C   0  0  0  0  0  0  0  0  0  0  0  0
  2  1  1  6
  2  3  1  0
  3  4  1  0
  4  5  1  0
  5  6  1  0
  6  7  2  0
  6  8  1  0
  8  9  2  0
  9 10  1  0
 10 11  1  0
 10 12  1  0
 12 13  2  0
 13 14  1  0
 14 15  1  0
 14 16  2  0
 16 17  1  0
 17 18  2  0
  5  2  1  0
 18  8  1  0
 18 12  1  0
M  END
>  <alias>  (1169) 
None

>  <rmsd(smina/fragmenstein)>  (1169) 
0.208

>  <smiles>  (1169) 
C[C@@H]1CCN1C(=O)c1cn(C)c2cc(Br)ccc12

>  <gnina_score>  (1169) 
5.555

>  <inspiration_score>  (1169) 
None

>  <energy_score>  (1169) 
-0.691679

>  <distance_score>  (1169) 
0.463584

>  <gnina_score_min>  (1169) 
5.539

>  <inchikey>  (1169) 
HPIMEYRXPGZMNQ-SECBINFHSA-N

>  <exports>  (1169) 
['/opt/xchem-fragalysis-2/maxwin/BulkDock/OUTPUTS/openbind_a71ev2a_c2_elabs_1LOUU54.sdf', '/opt/xchem-fragalysis-2/maxwin/BulkDock/OUTPUTS/openbind_a71ev2a_c2_elabs_1LSYIDY.sdf']

>  <name>  (1169) 
P577016

>  <ref_pdb>  (1169) 
A3066a

>  <subsites>  (1169) 
None

>  <HIPPO Pose ID>  (1169) 
577016

>  <ref_mols>  (1169) 
A3066a

>  <HIPPO Compound ID>  (1169) 
350278

>  <tags>  (1169) 
openbind_a71ev2a_c2_elabs,syndirella_product,openbind_a71ev2a_c2_elabs_fragonly_scored_top80percent,BulkDock Fragalysis export,openbind_a71ev2a_c2_elabs_scored,openbind_a71ev2a_c2_elabs_scored_top80percent,openbind_a71ev2a_c2_elabs_activefrags_only_scored_5.2plus,openbind_a71ev2a_c2_elabs_activefrags_only_scored_5.5plus,syndirella_placed

>  <smina_score_min>  (1169) 
-7.918

$$$$
P577018
     RDKit          3D

 18 19  0  0  0  0  0  0  0  0999 V2000
    9.2371    8.6842   23.2886 C   0  0  0  0  0  0  0  0  0  0  0  0
    9.1129   10.0334   23.7957 N   0  0  0  0  0  0  0  0  0  0  0  0
    9.9437   11.0545   23.4291 C   0  0  0  0  0  0  0  0  0  0  0  0
    9.6874   12.1453   24.2421 C   0  0  0  0  0  0  0  0  0  0  0  0
   10.4843   13.3671   24.3834 C   0  0  0  0  0  0  0  0  0  0  0  0
   10.3410   14.0546   25.3081 O   0  0  0  0  0  0  0  0  0  0  0  0
   11.3918   13.5191   23.1722 N   0  0  0  0  0  0  0  0  0  0  0  0
   12.2436   14.5821   22.7879 C   0  0  0  0  0  0  0  0  0  0  0  0
   11.7550   14.9342   21.4456 C   0  0  0  0  0  0  0  0  0  0  0  0
   12.2303   14.3348   20.3577 C   0  0  0  0  0  0  0  0  0  0  0  0
   11.5279   14.5712   18.8402 Cl  0  0  0  0  0  0  0  0  0  0  0  0
    8.5035   11.8303   24.9714 C   0  0  0  0  0  0  0  0  0  0  0  0
    7.6925   12.5592   25.8665 C   0  0  0  0  0  0  0  0  0  0  0  0
    6.6598   11.9065   26.5273 C   0  0  0  0  0  0  0  0  0  0  0  0
    5.9098   12.5822   27.4079 F   0  0  0  0  0  0  0  0  0  0  0  0
    6.4154   10.5598   26.3240 C   0  0  0  0  0  0  0  0  0  0  0  0
    7.1794    9.8347   25.4106 C   0  0  0  0  0  0  0  0  0  0  0  0
    8.2122   10.4855   24.7317 C   0  0  0  0  0  0  0  0  0  0  0  0
  1  2  1  0
  2  3  1  0
  3  4  2  0
  4  5  1  0
  5  6  2  0
  5  7  1  0
  7  8  1  0
  8  9  1  0
  9 10  2  0
 10 11  1  0
  4 12  1  0
 12 13  2  0
 13 14  1  0
 14 15  1  0
 14 16  2  0
 16 17  1  0
 17 18  2  0
 18  2  1  0
 18 12  1  0
M  END
>  <alias>  (1170) 
None

>  <rmsd(smina/fragmenstein)>  (1170) 
0.181

>  <smiles>  (1170) 
Cn1cc(C(=O)NC/C=C/Cl)c2cc(F)ccc21

>  <gnina_score>  (1170) 
5.227

>  <inspiration_score>  (1170) 
None

>  <energy_score>  (1170) 
-6.054225

>  <distance_score>  (1170) 
0.664644

>  <gnina_score_min>  (1170) 
5.266

>  <inchikey>  (1170) 
CZEIPQLNDWBJJM-GORDUTHDSA-N

>  <exports>  (1170) 
['/opt/xchem-fragalysis-2/maxwin/BulkDock/OUTPUTS/openbind_a71ev2a_c2_elabs_1LOUU54.sdf', '/opt/xchem-fragalysis-2/maxwin/BulkDock/OUTPUTS/openbind_a71ev2a_c2_elabs_1LSYIDY.sdf']

>  <name>  (1170) 
P577018

>  <ref_pdb>  (1170) 
A3066a

>  <subsites>  (1170) 
None

>  <HIPPO Pose ID>  (1170) 
577018

>  <ref_mols>  (1170) 
A3066a

>  <HIPPO Compound ID>  (1170) 
350282

>  <tags>  (1170) 
openbind_a71ev2a_c2_elabs,syndirella_product,openbind_a71ev2a_c2_elabs_fragonly_scored_top80percent,openbind_a71ev2a_c2_elabs_scored,BulkDock Fragalysis export,openbind_a71ev2a_c2_elabs_scored_top80percent,openbind_a71ev2a_c2_elabs_activefrags_only_scored_5.2plus,syndirella_placed

>  <smina_score_min>  (1170) 
-6.464

$$$$
P577020
     RDKit          3D

 18 19  0  0  0  0  0  0  0  0999 V2000
   12.6767   13.8994   20.4464 C   0  0  0  0  0  0  0  0  0  0  0  0
   12.7770   14.7077   21.7049 C   0  0  2  0  0  0  0  0  0  0  0  0
   13.3750   13.9774   22.6871 F   0  0  0  0  0  0  0  0  0  0  0  0
   11.4228   15.0987   22.2246 C   0  0  0  0  0  0  0  0  0  0  0  0
   10.6582   13.9794   22.6814 N   0  0  0  0  0  0  0  0  0  0  0  0
   10.3239   13.5178   24.0974 C   0  0  0  0  0  0  0  0  0  0  0  0
   10.5494   14.0129   25.1250 O   0  0  0  0  0  0  0  0  0  0  0  0
    9.6255   12.2465   24.0444 C   0  0  0  0  0  0  0  0  0  0  0  0
    9.9572   11.1590   23.2612 C   0  0  0  0  0  0  0  0  0  0  0  0
    9.2074   10.0928   23.6742 N   0  0  0  0  0  0  0  0  0  0  0  0
    9.3879    8.7415   23.1886 C   0  0  0  0  0  0  0  0  0  0  0  0
    8.2995   10.5047   24.6262 C   0  0  0  0  0  0  0  0  0  0  0  0
    7.3178    9.8051   25.3328 C   0  0  0  0  0  0  0  0  0  0  0  0
    6.5279   10.4992   26.2501 C   0  0  0  0  0  0  0  0  0  0  0  0
    6.7157   11.8566   26.4488 C   0  0  0  0  0  0  0  0  0  0  0  0
    5.9501   12.5003   27.3398 F   0  0  0  0  0  0  0  0  0  0  0  0
    7.7029   12.5568   25.7658 C   0  0  0  0  0  0  0  0  0  0  0  0
    8.5169   11.8655   24.8458 C   0  0  0  0  0  0  0  0  0  0  0  0
  2  1  1  6
  2  3  1  0
  2  4  1  0
  4  5  1  0
  5  6  1  0
  6  7  2  0
  6  8  1  0
  8  9  2  0
  9 10  1  0
 10 11  1  0
 10 12  1  0
 12 13  2  0
 13 14  1  0
 14 15  2  0
 15 16  1  0
 15 17  1  0
 17 18  2  0
 18  8  1  0
 18 12  1  0
M  END
>  <alias>  (1171) 
None

>  <rmsd(smina/fragmenstein)>  (1171) 
0.446

>  <smiles>  (1171) 
C[C@H](F)CNC(=O)c1cn(C)c2ccc(F)cc12

>  <gnina_score>  (1171) 
5.109

>  <inspiration_score>  (1171) 
None

>  <energy_score>  (1171) 
-15.58693

>  <distance_score>  (1171) 
0.646438

>  <gnina_score_min>  (1171) 
5.251

>  <inchikey>  (1171) 
CQXXGXBIGXVNOW-QMMMGPOBSA-N

>  <exports>  (1171) 
['/opt/xchem-fragalysis-2/maxwin/BulkDock/OUTPUTS/openbind_a71ev2a_c2_elabs_1LOUU54.sdf', '/opt/xchem-fragalysis-2/maxwin/BulkDock/OUTPUTS/openbind_a71ev2a_c2_elabs_1LSYIDY.sdf']

>  <name>  (1171) 
P577020

>  <ref_pdb>  (1171) 
A3066a

>  <subsites>  (1171) 
None

>  <HIPPO Pose ID>  (1171) 
577020

>  <ref_mols>  (1171) 
A3066a

>  <HIPPO Compound ID>  (1171) 
350283

>  <tags>  (1171) 
openbind_a71ev2a_c2_elabs,syndirella_product,openbind_a71ev2a_c2_elabs_fragonly_scored_top80percent,openbind_a71ev2a_c2_elabs_scored,BulkDock Fragalysis export,openbind_a71ev2a_c2_elabs_scored_top80percent,openbind_a71ev2a_c2_elabs_activefrags_only_scored_5.2plus,syndirella_placed

>  <smina_score_min>  (1171) 
-6.239

$$$$
P577023
     RDKit          3D

 18 19  0  0  0  0  0  0  0  0999 V2000
   12.7376   14.9971   22.0294 C   0  0  0  0  0  0  0  0  0  0  0  0
   11.9157   14.0700   21.1740 C   0  0  2  0  0  0  0  0  0  0  0  0
   11.0208   14.7297   20.1166 C   0  0  0  0  0  0  0  0  0  0  0  0
    9.6364   15.7315   20.7376 S   0  0  0  0  0  0  0  0  0  0  0  0
   11.1562   13.1316   21.9523 N   0  0  0  0  0  0  0  0  0  0  0  0
   10.5740   13.2493   23.3677 C   0  0  0  0  0  0  0  0  0  0  0  0
   10.6815   14.0955   24.1600 O   0  0  0  0  0  0  0  0  0  0  0  0
    9.7912   12.0473   23.6768 C   0  0  0  0  0  0  0  0  0  0  0  0
    9.9679   10.7934   23.1279 C   0  0  0  0  0  0  0  0  0  0  0  0
    9.1456    9.9097   23.7574 N   0  0  0  0  0  0  0  0  0  0  0  0
    9.2124    8.4893   23.5209 C   0  0  0  0  0  0  0  0  0  0  0  0
    8.3258   10.5731   24.6371 C   0  0  0  0  0  0  0  0  0  0  0  0
    7.2857   10.1115   25.4561 C   0  0  0  0  0  0  0  0  0  0  0  0
    6.6289   11.0354   26.2689 C   0  0  0  0  0  0  0  0  0  0  0  0
    6.9933   12.3725   26.2486 C   0  0  0  0  0  0  0  0  0  0  0  0
    6.3553   13.2350   27.0516 F   0  0  0  0  0  0  0  0  0  0  0  0
    8.0205   12.8362   25.4305 C   0  0  0  0  0  0  0  0  0  0  0  0
    8.7101   11.9207   24.6088 C   0  0  0  0  0  0  0  0  0  0  0  0
  2  1  1  1
  2  3  1  0
  3  4  1  0
  2  5  1  0
  5  6  1  0
  6  7  2  0
  6  8  1  0
  8  9  2  0
  9 10  1  0
 10 11  1  0
 10 12  1  0
 12 13  2  0
 13 14  1  0
 14 15  2  0
 15 16  1  0
 15 17  1  0
 17 18  2  0
 18  8  1  0
 18 12  1  0
M  END
>  <alias>  (1172) 
None

>  <rmsd(smina/fragmenstein)>  (1172) 
0.445

>  <smiles>  (1172) 
C[C@H](CS)NC(=O)c1cn(C)c2ccc(F)cc12

>  <gnina_score>  (1172) 
5.694

>  <inspiration_score>  (1172) 
None

>  <energy_score>  (1172) 
-4.8415

>  <distance_score>  (1172) 
0.485464

>  <gnina_score_min>  (1172) 
5.662

>  <inchikey>  (1172) 
MOGGMOXAWZZYIA-MRVPVSSYSA-N

>  <exports>  (1172) 
['/opt/xchem-fragalysis-2/maxwin/BulkDock/OUTPUTS/openbind_a71ev2a_c2_elabs_1LOUU54.sdf', '/opt/xchem-fragalysis-2/maxwin/BulkDock/OUTPUTS/openbind_a71ev2a_c2_elabs_1LSYIDY.sdf']

>  <name>  (1172) 
P577023

>  <ref_pdb>  (1172) 
A3066a

>  <subsites>  (1172) 
None

>  <HIPPO Pose ID>  (1172) 
577023

>  <ref_mols>  (1172) 
A3066a

>  <HIPPO Compound ID>  (1172) 
350287

>  <tags>  (1172) 
openbind_a71ev2a_c2_elabs,syndirella_product,openbind_a71ev2a_c2_elabs_fragonly_scored_top80percent,BulkDock Fragalysis export,openbind_a71ev2a_c2_elabs_scored,openbind_a71ev2a_c2_elabs_scored_top80percent,openbind_a71ev2a_c2_elabs_activefrags_only_scored_5.2plus,openbind_a71ev2a_c2_elabs_activefrags_only_scored_5.5plus,syndirella_placed

>  <smina_score_min>  (1172) 
-6.986

$$$$
P577024
     RDKit          3D

 18 20  0  0  0  0  0  0  0  0999 V2000
    9.2736    8.5695   23.3403 C   0  0  0  0  0  0  0  0  0  0  0  0
    9.1483    9.9462   23.7596 N   0  0  0  0  0  0  0  0  0  0  0  0
    9.9417   10.9494   23.2859 C   0  0  0  0  0  0  0  0  0  0  0  0
    9.6680   12.0966   24.0020 C   0  0  0  0  0  0  0  0  0  0  0  0
   10.3789   13.3604   23.9122 C   0  0  0  0  0  0  0  0  0  0  0  0
   10.4913   14.0463   24.8444 O   0  0  0  0  0  0  0  0  0  0  0  0
   10.7950   13.5865   22.4595 N   0  0  0  0  0  0  0  0  0  0  0  0
   11.3583   14.7514   21.8134 C   0  0  0  0  0  0  0  0  0  0  0  0
   12.3688   14.3902   20.7149 C   0  0  0  0  0  0  0  0  0  0  0  0
   11.1530   14.7074   19.4155 S   0  0  0  0  0  0  0  0  0  0  0  0
   10.3373   15.4237   20.8600 C   0  0  0  0  0  0  0  0  0  0  0  0
    8.5557   11.8085   24.8395 C   0  0  0  0  0  0  0  0  0  0  0  0
    7.7765   12.5860   25.7205 C   0  0  0  0  0  0  0  0  0  0  0  0
    6.7584   11.9720   26.4403 C   0  0  0  0  0  0  0  0  0  0  0  0
    6.0321   12.6972   27.3010 F   0  0  0  0  0  0  0  0  0  0  0  0
    6.4965   10.6194   26.3054 C   0  0  0  0  0  0  0  0  0  0  0  0
    7.2403    9.8418   25.4176 C   0  0  0  0  0  0  0  0  0  0  0  0
    8.2647   10.4509   24.6874 C   0  0  0  0  0  0  0  0  0  0  0  0
  1  2  1  0
  2  3  1  0
  3  4  2  0
  4  5  1  0
  5  6  2  0
  5  7  1  0
  7  8  1  0
  8  9  1  0
  9 10  1  0
 10 11  1  0
  4 12  1  0
 12 13  2  0
 13 14  1  0
 14 15  1  0
 14 16  2  0
 16 17  1  0
 17 18  2  0
 18  2  1  0
 11  8  1  0
 18 12  1  0
M  END
>  <alias>  (1173) 
None

>  <rmsd(smina/fragmenstein)>  (1173) 
0.331

>  <smiles>  (1173) 
Cn1cc(C(=O)NC2CSC2)c2cc(F)ccc21

>  <gnina_score>  (1173) 
5.472

>  <inspiration_score>  (1173) 
None

>  <energy_score>  (1173) 
-11.356054

>  <distance_score>  (1173) 
0.570066

>  <gnina_score_min>  (1173) 
5.466

>  <inchikey>  (1173) 
NLZCTSQRRZHJQF-UHFFFAOYSA-N

>  <exports>  (1173) 
['/opt/xchem-fragalysis-2/maxwin/BulkDock/OUTPUTS/openbind_a71ev2a_c2_elabs_1LOUU54.sdf', '/opt/xchem-fragalysis-2/maxwin/BulkDock/OUTPUTS/openbind_a71ev2a_c2_elabs_1LSYIDY.sdf']

>  <name>  (1173) 
P577024

>  <ref_pdb>  (1173) 
A3066a

>  <subsites>  (1173) 
None

>  <HIPPO Pose ID>  (1173) 
577024

>  <ref_mols>  (1173) 
A3066a

>  <HIPPO Compound ID>  (1173) 
350288

>  <tags>  (1173) 
openbind_a71ev2a_c2_elabs,syndirella_product,openbind_a71ev2a_c2_elabs_fragonly_scored_top80percent,openbind_a71ev2a_c2_elabs_scored,BulkDock Fragalysis export,openbind_a71ev2a_c2_elabs_scored_top80percent,openbind_a71ev2a_c2_elabs_activefrags_only_scored_5.2plus,syndirella_placed

>  <smina_score_min>  (1173) 
-6.489

$$$$
P577026
     RDKit          3D

 18 19  0  0  0  0  0  0  0  0999 V2000
    9.2770    8.5630   23.4264 C   0  0  0  0  0  0  0  0  0  0  0  0
    9.2296    9.9805   23.6946 N   0  0  0  0  0  0  0  0  0  0  0  0
   10.0488   10.8836   23.0811 C   0  0  0  0  0  0  0  0  0  0  0  0
    9.9119   12.1094   23.6985 C   0  0  0  0  0  0  0  0  0  0  0  0
   10.7105   13.3220   23.4601 C   0  0  0  0  0  0  0  0  0  0  0  0
   10.8122   14.1158   24.3051 O   0  0  0  0  0  0  0  0  0  0  0  0
   11.2083   13.3445   22.0094 N   0  0  0  0  0  0  0  0  0  0  0  0
   11.8521   14.3827   21.2625 C   0  0  0  0  0  0  0  0  0  0  0  0
   10.9518   14.7904   20.0946 C   0  0  0  0  0  0  0  0  0  0  0  0
    9.7525   15.6431   20.4895 C   0  0  0  0  0  0  0  0  0  0  0  0
    8.5270   14.7156   21.3901 Cl  0  0  0  0  0  0  0  0  0  0  0  0
    8.8127   11.9655   24.6096 C   0  0  0  0  0  0  0  0  0  0  0  0
    8.1200   12.8672   25.4463 C   0  0  0  0  0  0  0  0  0  0  0  0
    7.1298   12.3947   26.3122 C   0  0  0  0  0  0  0  0  0  0  0  0
    6.8181   11.0415   26.3388 C   0  0  0  0  0  0  0  0  0  0  0  0
    5.6540   10.3927   27.6863 Br  0  0  0  0  0  0  0  0  0  0  0  0
    7.4232   10.1354   25.4631 C   0  0  0  0  0  0  0  0  0  0  0  0
    8.4275   10.6196   24.6108 C   0  0  0  0  0  0  0  0  0  0  0  0
  1  2  1  0
  2  3  1  0
  3  4  2  0
  4  5  1  0
  5  6  2  0
  5  7  1  0
  7  8  1  0
  8  9  1  0
  9 10  1  0
 10 11  1  0
  4 12  1  0
 12 13  2  0
 13 14  1  0
 14 15  2  0
 15 16  1  0
 15 17  1  0
 17 18  2  0
 18  2  1  0
 18 12  1  0
M  END
>  <alias>  (1174) 
None

>  <rmsd(smina/fragmenstein)>  (1174) 
0.274

>  <smiles>  (1174) 
Cn1cc(C(=O)NCCCCl)c2ccc(Br)cc21

>  <gnina_score>  (1174) 
5.808

>  <inspiration_score>  (1174) 
None

>  <energy_score>  (1174) 
-10.725047

>  <distance_score>  (1174) 
0.394884

>  <gnina_score_min>  (1174) 
5.719

>  <inchikey>  (1174) 
RKDJHMHCZNQBTA-UHFFFAOYSA-N

>  <exports>  (1174) 
['/opt/xchem-fragalysis-2/maxwin/BulkDock/OUTPUTS/openbind_a71ev2a_c2_elabs_1LOUU54.sdf', '/opt/xchem-fragalysis-2/maxwin/BulkDock/OUTPUTS/openbind_a71ev2a_c2_elabs_1LSYIDY.sdf']

>  <name>  (1174) 
P577026

>  <ref_pdb>  (1174) 
A3066a

>  <subsites>  (1174) 
None

>  <HIPPO Pose ID>  (1174) 
577026

>  <ref_mols>  (1174) 
A3066a

>  <HIPPO Compound ID>  (1174) 
350294

>  <tags>  (1174) 
openbind_a71ev2a_c2_elabs,syndirella_product,openbind_a71ev2a_c2_elabs_fragonly_scored_top80percent,BulkDock Fragalysis export,openbind_a71ev2a_c2_elabs_scored,openbind_a71ev2a_c2_elabs_scored_top80percent,openbind_a71ev2a_c2_elabs_activefrags_only_scored_5.2plus,openbind_a71ev2a_c2_elabs_activefrags_only_scored_5.5plus,syndirella_placed

>  <smina_score_min>  (1174) 
-6.978

$$$$
P577027
     RDKit          3D

 18 19  0  0  0  0  0  0  0  0999 V2000
   12.8215   14.2919   22.7043 C   0  0  0  0  0  0  0  0  0  0  0  0
   12.3787   14.5437   21.2762 C   0  0  1  0  0  0  0  0  0  0  0  0
   12.8190   13.4890   20.4287 O   0  0  0  0  0  0  0  0  0  0  0  0
   10.8647   14.7026   21.1640 C   0  0  0  0  0  0  0  0  0  0  0  0
   10.2436   13.6189   21.8742 N   0  0  0  0  0  0  0  0  0  0  0  0
    9.8396   13.4965   23.3414 C   0  0  0  0  0  0  0  0  0  0  0  0
    9.8722   14.2780   24.1986 O   0  0  0  0  0  0  0  0  0  0  0  0
    9.3555   12.1630   23.6455 C   0  0  0  0  0  0  0  0  0  0  0  0
    9.7765   10.9647   23.1121 C   0  0  0  0  0  0  0  0  0  0  0  0
    9.0992    9.9543   23.7396 N   0  0  0  0  0  0  0  0  0  0  0  0
    9.3461    8.5569   23.4661 C   0  0  0  0  0  0  0  0  0  0  0  0
    8.2191   10.4789   24.6637 C   0  0  0  0  0  0  0  0  0  0  0  0
    7.2991    9.8815   25.5354 C   0  0  0  0  0  0  0  0  0  0  0  0
    6.5987   10.6984   26.4320 C   0  0  0  0  0  0  0  0  0  0  0  0
    5.5003    9.9168   27.7646 Br  0  0  0  0  0  0  0  0  0  0  0  0
    6.7414   12.0768   26.4177 C   0  0  0  0  0  0  0  0  0  0  0  0
    7.6192   12.6684   25.5136 C   0  0  0  0  0  0  0  0  0  0  0  0
    8.3818   11.8631   24.6394 C   0  0  0  0  0  0  0  0  0  0  0  0
  2  1  1  1
  2  3  1  0
  2  4  1  0
  4  5  1  0
  5  6  1  0
  6  7  2  0
  6  8  1  0
  8  9  2  0
  9 10  1  0
 10 11  1  0
 10 12  1  0
 12 13  2  0
 13 14  1  0
 14 15  1  0
 14 16  2  0
 16 17  1  0
 17 18  2  0
 18  8  1  0
 18 12  1  0
M  END
>  <alias>  (1175) 
None

>  <rmsd(smina/fragmenstein)>  (1175) 
0.211

>  <smiles>  (1175) 
C[C@@H](O)CNC(=O)c1cn(C)c2cc(Br)ccc12

>  <gnina_score>  (1175) 
5.583

>  <inspiration_score>  (1175) 
None

>  <energy_score>  (1175) 
-0.540092

>  <distance_score>  (1175) 
0.862151

>  <gnina_score_min>  (1175) 
5.629

>  <inchikey>  (1175) 
QMGBZUKYFHJOTD-MRVPVSSYSA-N

>  <exports>  (1175) 
['/opt/xchem-fragalysis-2/maxwin/BulkDock/OUTPUTS/openbind_a71ev2a_c2_elabs_1LOUU54.sdf', '/opt/xchem-fragalysis-2/maxwin/BulkDock/OUTPUTS/openbind_a71ev2a_c2_elabs_1LSYIDY.sdf']

>  <name>  (1175) 
P577027

>  <ref_pdb>  (1175) 
A3066a

>  <subsites>  (1175) 
None

>  <HIPPO Pose ID>  (1175) 
577027

>  <ref_mols>  (1175) 
A3066a

>  <HIPPO Compound ID>  (1175) 
350296

>  <tags>  (1175) 
openbind_a71ev2a_c2_elabs,syndirella_product,openbind_a71ev2a_c2_elabs_fragonly_scored_top80percent,BulkDock Fragalysis export,openbind_a71ev2a_c2_elabs_scored,openbind_a71ev2a_c2_elabs_scored_top80percent,openbind_a71ev2a_c2_elabs_activefrags_only_scored_5.2plus,openbind_a71ev2a_c2_elabs_activefrags_only_scored_5.5plus,syndirella_placed

>  <smina_score_min>  (1175) 
-7.236

$$$$
P577028
     RDKit          3D

 18 19  0  0  0  0  0  0  0  0999 V2000
   12.1220   14.3010   19.4863 C   0  0  0  0  0  0  0  0  0  0  0  0
   11.3787   14.7422   20.5014 C   0  0  0  0  0  0  0  0  0  0  0  0
    9.8422   15.4792   20.2239 Cl  0  0  0  0  0  0  0  0  0  0  0  0
   11.8308   14.6188   21.9144 C   0  0  0  0  0  0  0  0  0  0  0  0
   11.0817   13.5578   22.4913 N   0  0  0  0  0  0  0  0  0  0  0  0
   10.5376   13.3828   23.9038 C   0  0  0  0  0  0  0  0  0  0  0  0
   10.6761   14.0406   24.8519 O   0  0  0  0  0  0  0  0  0  0  0  0
    9.7314   12.1648   23.9676 C   0  0  0  0  0  0  0  0  0  0  0  0
    9.9372   10.9951   23.2628 C   0  0  0  0  0  0  0  0  0  0  0  0
    9.1118   10.0307   23.7692 N   0  0  0  0  0  0  0  0  0  0  0  0
    9.1949    8.6384   23.3918 C   0  0  0  0  0  0  0  0  0  0  0  0
    8.2736   10.5796   24.7143 C   0  0  0  0  0  0  0  0  0  0  0  0
    7.2765   10.0112   25.5198 C   0  0  0  0  0  0  0  0  0  0  0  0
    6.6369   10.8352   26.4520 C   0  0  0  0  0  0  0  0  0  0  0  0
    5.4931   10.0657   27.7536 Br  0  0  0  0  0  0  0  0  0  0  0  0
    6.8985   12.1971   26.5174 C   0  0  0  0  0  0  0  0  0  0  0  0
    7.8769   12.7574   25.6962 C   0  0  0  0  0  0  0  0  0  0  0  0
    8.6086   11.9330   24.8157 C   0  0  0  0  0  0  0  0  0  0  0  0
  1  2  2  0
  2  3  1  0
  2  4  1  0
  4  5  1  0
  5  6  1  0
  6  7  2  0
  6  8  1  0
  8  9  2  0
  9 10  1  0
 10 11  1  0
 10 12  1  0
 12 13  2  0
 13 14  1  0
 14 15  1  0
 14 16  2  0
 16 17  1  0
 17 18  2  0
 18  8  1  0
 18 12  1  0
M  END
>  <alias>  (1176) 
None

>  <rmsd(smina/fragmenstein)>  (1176) 
0.567

>  <smiles>  (1176) 
C=C(Cl)CNC(=O)c1cn(C)c2cc(Br)ccc12

>  <gnina_score>  (1176) 
5.551

>  <inspiration_score>  (1176) 
None

>  <energy_score>  (1176) 
-3.064365

>  <distance_score>  (1176) 
0.454619

>  <gnina_score_min>  (1176) 
5.667

>  <inchikey>  (1176) 
VQALMOQJGYBIPH-UHFFFAOYSA-N

>  <exports>  (1176) 
['/opt/xchem-fragalysis-2/maxwin/BulkDock/OUTPUTS/openbind_a71ev2a_c2_elabs_1LOUU54.sdf', '/opt/xchem-fragalysis-2/maxwin/BulkDock/OUTPUTS/openbind_a71ev2a_c2_elabs_1LSYIDY.sdf']

>  <name>  (1176) 
P577028

>  <ref_pdb>  (1176) 
A3066a

>  <subsites>  (1176) 
None

>  <HIPPO Pose ID>  (1176) 
577028

>  <ref_mols>  (1176) 
A3066a

>  <HIPPO Compound ID>  (1176) 
350297

>  <tags>  (1176) 
openbind_a71ev2a_c2_elabs,syndirella_product,openbind_a71ev2a_c2_elabs_fragonly_scored_top80percent,BulkDock Fragalysis export,openbind_a71ev2a_c2_elabs_scored,openbind_a71ev2a_c2_elabs_scored_top80percent,openbind_a71ev2a_c2_elabs_activefrags_only_scored_5.2plus,openbind_a71ev2a_c2_elabs_activefrags_only_scored_5.5plus,syndirella_placed

>  <smina_score_min>  (1176) 
-7.079

$$$$
P577030
     RDKit          3D

 18 19  0  0  0  0  0  0  0  0999 V2000
   11.6423   14.5469   19.0914 C   0  0  0  0  0  0  0  0  0  0  0  0
   11.7778   14.4866   20.4203 C   0  0  0  0  0  0  0  0  0  0  0  0
   10.7964   15.0092   21.4192 C   0  0  1  0  0  0  0  0  0  0  0  0
    9.6066   15.7737   20.8344 C   0  0  0  0  0  0  0  0  0  0  0  0
   10.2998   13.8701   22.1231 N   0  0  0  0  0  0  0  0  0  0  0  0
   10.3632   13.5150   23.6061 C   0  0  0  0  0  0  0  0  0  0  0  0
   10.7620   14.1254   24.5112 O   0  0  0  0  0  0  0  0  0  0  0  0
    9.7133   12.2303   23.8093 C   0  0  0  0  0  0  0  0  0  0  0  0
    9.9726   11.0556   23.1381 C   0  0  0  0  0  0  0  0  0  0  0  0
    9.2067   10.0654   23.6890 N   0  0  0  0  0  0  0  0  0  0  0  0
    9.3018    8.6733   23.3114 C   0  0  0  0  0  0  0  0  0  0  0  0
    8.3648   10.5979   24.6438 C   0  0  0  0  0  0  0  0  0  0  0  0
    7.3883   10.0109   25.4621 C   0  0  0  0  0  0  0  0  0  0  0  0
    6.7241   10.8300   26.3828 C   0  0  0  0  0  0  0  0  0  0  0  0
    5.5741   10.0519   27.6738 Br  0  0  0  0  0  0  0  0  0  0  0  0
    6.9578   12.1978   26.4401 C   0  0  0  0  0  0  0  0  0  0  0  0
    7.9165   12.7753   25.6075 C   0  0  0  0  0  0  0  0  0  0  0  0
    8.6549   11.9622   24.7227 C   0  0  0  0  0  0  0  0  0  0  0  0
  1  2  2  0
  2  3  1  0
  3  4  1  6
  3  5  1  0
  5  6  1  0
  6  7  2  0
  6  8  1  0
  8  9  2  0
  9 10  1  0
 10 11  1  0
 10 12  1  0
 12 13  2  0
 13 14  1  0
 14 15  1  0
 14 16  2  0
 16 17  1  0
 17 18  2  0
 18  8  1  0
 18 12  1  0
M  END
>  <alias>  (1177) 
None

>  <rmsd(smina/fragmenstein)>  (1177) 
0.23

>  <smiles>  (1177) 
C=C[C@@H](C)NC(=O)c1cn(C)c2cc(Br)ccc12

>  <gnina_score>  (1177) 
5.502

>  <inspiration_score>  (1177) 
None

>  <energy_score>  (1177) 
-2.471565

>  <distance_score>  (1177) 
0.68126

>  <gnina_score_min>  (1177) 
5.534

>  <inchikey>  (1177) 
WEEKVQCUXJLVBY-SECBINFHSA-N

>  <exports>  (1177) 
['/opt/xchem-fragalysis-2/maxwin/BulkDock/OUTPUTS/openbind_a71ev2a_c2_elabs_1LOUU54.sdf', '/opt/xchem-fragalysis-2/maxwin/BulkDock/OUTPUTS/openbind_a71ev2a_c2_elabs_1LSYIDY.sdf']

>  <name>  (1177) 
P577030

>  <ref_pdb>  (1177) 
A3066a

>  <subsites>  (1177) 
None

>  <HIPPO Pose ID>  (1177) 
577030

>  <ref_mols>  (1177) 
A3066a

>  <HIPPO Compound ID>  (1177) 
350298

>  <tags>  (1177) 
openbind_a71ev2a_c2_elabs,syndirella_product,openbind_a71ev2a_c2_elabs_fragonly_scored_top80percent,BulkDock Fragalysis export,openbind_a71ev2a_c2_elabs_scored,openbind_a71ev2a_c2_elabs_scored_top80percent,openbind_a71ev2a_c2_elabs_activefrags_only_scored_5.2plus,openbind_a71ev2a_c2_elabs_activefrags_only_scored_5.5plus,syndirella_placed

>  <smina_score_min>  (1177) 
-6.679

$$$$
P577031
     RDKit          3D

 18 19  0  0  0  0  0  0  0  0999 V2000
    9.1714   15.3272   20.8313 C   0  0  0  0  0  0  0  0  0  0  0  0
   10.4963   15.0496   20.1772 C   0  0  0  0  0  0  0  0  0  0  0  0
   10.6594   15.3516   18.9915 O   0  0  0  0  0  0  0  0  0  0  0  0
   11.6145   14.4699   21.0446 C   0  0  0  0  0  0  0  0  0  0  0  0
   11.0475   13.4140   21.8364 N   0  0  0  0  0  0  0  0  0  0  0  0
   10.5513   13.4128   23.2856 C   0  0  0  0  0  0  0  0  0  0  0  0
   10.5917   14.2449   24.0970 O   0  0  0  0  0  0  0  0  0  0  0  0
    9.8423   12.1606   23.5894 C   0  0  0  0  0  0  0  0  0  0  0  0
   10.0398   10.9235   23.0138 C   0  0  0  0  0  0  0  0  0  0  0  0
    9.2570    9.9996   23.6465 N   0  0  0  0  0  0  0  0  0  0  0  0
    9.3284    8.5808   23.3800 C   0  0  0  0  0  0  0  0  0  0  0  0
    8.4459   10.6240   24.5657 C   0  0  0  0  0  0  0  0  0  0  0  0
    7.4654   10.1153   25.4314 C   0  0  0  0  0  0  0  0  0  0  0  0
    6.8366   11.0072   26.3043 C   0  0  0  0  0  0  0  0  0  0  0  0
    5.6846   10.3338   27.6497 Br  0  0  0  0  0  0  0  0  0  0  0  0
    7.1099   12.3682   26.2693 C   0  0  0  0  0  0  0  0  0  0  0  0
    8.0735   12.8658   25.3870 C   0  0  0  0  0  0  0  0  0  0  0  0
    8.7811   11.9828   24.5415 C   0  0  0  0  0  0  0  0  0  0  0  0
  1  2  1  0
  2  3  2  0
  2  4  1  0
  4  5  1  0
  5  6  1  0
  6  7  2  0
  6  8  1  0
  8  9  2  0
  9 10  1  0
 10 11  1  0
 10 12  1  0
 12 13  2  0
 13 14  1  0
 14 15  1  0
 14 16  2  0
 16 17  1  0
 17 18  2  0
 18  8  1  0
 18 12  1  0
M  END
>  <alias>  (1178) 
None

>  <rmsd(smina/fragmenstein)>  (1178) 
0.507

>  <smiles>  (1178) 
CC(=O)CNC(=O)c1cn(C)c2cc(Br)ccc12

>  <gnina_score>  (1178) 
5.694

>  <inspiration_score>  (1178) 
None

>  <energy_score>  (1178) 
-4.300503

>  <distance_score>  (1178) 
0.502004

>  <gnina_score_min>  (1178) 
5.629

>  <inchikey>  (1178) 
BFMLXZAFTUWRKQ-UHFFFAOYSA-N

>  <exports>  (1178) 
['/opt/xchem-fragalysis-2/maxwin/BulkDock/OUTPUTS/openbind_a71ev2a_c2_elabs_1LOUU54.sdf', '/opt/xchem-fragalysis-2/maxwin/BulkDock/OUTPUTS/openbind_a71ev2a_c2_elabs_1LSYIDY.sdf']

>  <name>  (1178) 
P577031

>  <ref_pdb>  (1178) 
A3066a

>  <subsites>  (1178) 
None

>  <HIPPO Pose ID>  (1178) 
577031

>  <ref_mols>  (1178) 
A3066a

>  <HIPPO Compound ID>  (1178) 
350301

>  <tags>  (1178) 
openbind_a71ev2a_c2_elabs,syndirella_product,openbind_a71ev2a_c2_elabs_fragonly_scored_top80percent,BulkDock Fragalysis export,openbind_a71ev2a_c2_elabs_scored,openbind_a71ev2a_c2_elabs_scored_top80percent,openbind_a71ev2a_c2_elabs_activefrags_only_scored_5.2plus,openbind_a71ev2a_c2_elabs_activefrags_only_scored_5.5plus,syndirella_placed

>  <smina_score_min>  (1178) 
-7.358

$$$$
P577032
     RDKit          3D

 18 20  0  0  0  0  0  0  0  0999 V2000
    9.2678    8.5164   23.4726 C   0  0  0  0  0  0  0  0  0  0  0  0
    9.1231    9.9183   23.7847 N   0  0  0  0  0  0  0  0  0  0  0  0
    9.8896   10.8852   23.2021 C   0  0  0  0  0  0  0  0  0  0  0  0
    9.6033   12.0903   23.8052 C   0  0  0  0  0  0  0  0  0  0  0  0
   10.2305   13.3716   23.5321 C   0  0  0  0  0  0  0  0  0  0  0  0
   10.3470   14.1614   24.3792 O   0  0  0  0  0  0  0  0  0  0  0  0
   10.5535   13.4630   22.0368 N   0  0  0  0  0  0  0  0  0  0  0  0
   11.1610   14.4851   21.2980 C   0  0  0  0  0  0  0  0  0  0  0  0
   10.1837   15.4211   20.6274 C   0  0  0  0  0  0  0  0  0  0  0  0
   12.4992   14.9876   21.7629 C   0  0  0  0  0  0  0  0  0  0  0  0
   12.4147   14.1516   20.5309 C   0  0  0  0  0  0  0  0  0  0  0  0
    8.5541   11.8524   24.7366 C   0  0  0  0  0  0  0  0  0  0  0  0
    7.8162   12.6936   25.5968 C   0  0  0  0  0  0  0  0  0  0  0  0
    6.8679   12.1441   26.4586 C   0  0  0  0  0  0  0  0  0  0  0  0
    6.6348   10.7765   26.4449 C   0  0  0  0  0  0  0  0  0  0  0  0
    5.4953   10.0316   27.7641 Br  0  0  0  0  0  0  0  0  0  0  0  0
    7.2908    9.9321   25.5423 C   0  0  0  0  0  0  0  0  0  0  0  0
    8.2711   10.4853   24.7080 C   0  0  0  0  0  0  0  0  0  0  0  0
  1  2  1  0
  2  3  1  0
  3  4  2  0
  4  5  1  0
  5  6  2  0
  5  7  1  0
  7  8  1  0
  8  9  1  0
  8 10  1  0
 10 11  1  0
  4 12  1  0
 12 13  2  0
 13 14  1  0
 14 15  2  0
 15 16  1  0
 15 17  1  0
 17 18  2  0
 18  2  1  0
 11  8  1  0
 18 12  1  0
M  END
>  <alias>  (1179) 
None

>  <rmsd(smina/fragmenstein)>  (1179) 
0.231

>  <smiles>  (1179) 
Cn1cc(C(=O)NC2(C)CC2)c2ccc(Br)cc21

>  <gnina_score>  (1179) 
5.659

>  <inspiration_score>  (1179) 
None

>  <energy_score>  (1179) 
-3.936012

>  <distance_score>  (1179) 
0.654456

>  <gnina_score_min>  (1179) 
5.677

>  <inchikey>  (1179) 
NUQTYIJVNIHOTE-UHFFFAOYSA-N

>  <exports>  (1179) 
['/opt/xchem-fragalysis-2/maxwin/BulkDock/OUTPUTS/openbind_a71ev2a_c2_elabs_1LOUU54.sdf', '/opt/xchem-fragalysis-2/maxwin/BulkDock/OUTPUTS/openbind_a71ev2a_c2_elabs_1LSYIDY.sdf']

>  <name>  (1179) 
P577032

>  <ref_pdb>  (1179) 
A3066a

>  <subsites>  (1179) 
None

>  <HIPPO Pose ID>  (1179) 
577032

>  <ref_mols>  (1179) 
A3066a

>  <HIPPO Compound ID>  (1179) 
350303

>  <tags>  (1179) 
openbind_a71ev2a_c2_elabs,syndirella_product,openbind_a71ev2a_c2_elabs_fragonly_scored_top80percent,BulkDock Fragalysis export,openbind_a71ev2a_c2_elabs_scored,openbind_a71ev2a_c2_elabs_scored_top80percent,openbind_a71ev2a_c2_elabs_activefrags_only_scored_5.2plus,openbind_a71ev2a_c2_elabs_activefrags_only_scored_5.5plus,syndirella_placed

>  <smina_score_min>  (1179) 
-7.683

$$$$
P577033
     RDKit          3D

 18 19  0  0  0  0  0  0  0  0999 V2000
   10.1399   15.4198   20.5849 C   0  0  0  0  0  0  0  0  0  0  0  0
   11.1976   14.4376   21.0693 C   0  0  1  0  0  0  0  0  0  0  0  0
   12.3346   15.0304   21.9100 C   0  0  0  0  0  0  0  0  0  0  0  0
   12.9548   14.0330   22.7332 O   0  0  0  0  0  0  0  0  0  0  0  0
   10.5528   13.3996   21.8279 N   0  0  0  0  0  0  0  0  0  0  0  0
   10.0204   13.4008   23.2618 C   0  0  0  0  0  0  0  0  0  0  0  0
    9.9471   14.2625   24.0370 O   0  0  0  0  0  0  0  0  0  0  0  0
    9.4885   12.0927   23.6185 C   0  0  0  0  0  0  0  0  0  0  0  0
    9.8460   10.8659   23.1038 C   0  0  0  0  0  0  0  0  0  0  0  0
    9.1279    9.8976   23.7460 N   0  0  0  0  0  0  0  0  0  0  0  0
    9.3213    8.4908   23.4880 C   0  0  0  0  0  0  0  0  0  0  0  0
    8.2689   10.4715   24.6569 C   0  0  0  0  0  0  0  0  0  0  0  0
    7.3232    9.9195   25.5315 C   0  0  0  0  0  0  0  0  0  0  0  0
    6.6501   10.7739   26.4114 C   0  0  0  0  0  0  0  0  0  0  0  0
    5.5375   10.0429   27.7606 Br  0  0  0  0  0  0  0  0  0  0  0  0
    6.8389   12.1466   26.3713 C   0  0  0  0  0  0  0  0  0  0  0  0
    7.7443   12.6933   25.4629 C   0  0  0  0  0  0  0  0  0  0  0  0
    8.4902   11.8487   24.6105 C   0  0  0  0  0  0  0  0  0  0  0  0
  2  1  1  1
  2  3  1  0
  3  4  1  0
  2  5  1  0
  5  6  1  0
  6  7  2  0
  6  8  1  0
  8  9  2  0
  9 10  1  0
 10 11  1  0
 10 12  1  0
 12 13  2  0
 13 14  1  0
 14 15  1  0
 14 16  2  0
 16 17  1  0
 17 18  2  0
 18  8  1  0
 18 12  1  0
M  END
>  <alias>  (1180) 
None

>  <rmsd(smina/fragmenstein)>  (1180) 
0.472

>  <smiles>  (1180) 
C[C@@H](CO)NC(=O)c1cn(C)c2cc(Br)ccc12

>  <gnina_score>  (1180) 
5.57

>  <inspiration_score>  (1180) 
None

>  <energy_score>  (1180) 
-12.986628

>  <distance_score>  (1180) 
0.753124

>  <gnina_score_min>  (1180) 
5.545

>  <inchikey>  (1180) 
DQXHRACNUUUMTE-QMMMGPOBSA-N

>  <exports>  (1180) 
['/opt/xchem-fragalysis-2/maxwin/BulkDock/OUTPUTS/openbind_a71ev2a_c2_elabs_1LOUU54.sdf', '/opt/xchem-fragalysis-2/maxwin/BulkDock/OUTPUTS/openbind_a71ev2a_c2_elabs_1LSYIDY.sdf']

>  <name>  (1180) 
P577033

>  <ref_pdb>  (1180) 
A3066a

>  <subsites>  (1180) 
None

>  <HIPPO Pose ID>  (1180) 
577033

>  <ref_mols>  (1180) 
A3066a

>  <HIPPO Compound ID>  (1180) 
350304

>  <tags>  (1180) 
openbind_a71ev2a_c2_elabs,syndirella_product,openbind_a71ev2a_c2_elabs_fragonly_scored_top80percent,BulkDock Fragalysis export,openbind_a71ev2a_c2_elabs_scored,openbind_a71ev2a_c2_elabs_scored_top80percent,openbind_a71ev2a_c2_elabs_activefrags_only_scored_5.2plus,openbind_a71ev2a_c2_elabs_activefrags_only_scored_5.5plus,syndirella_placed

>  <smina_score_min>  (1180) 
-7.124

$$$$
P577036
     RDKit          3D

 18 19  0  0  0  0  0  0  0  0999 V2000
   11.0626   14.8264   19.0488 C   0  0  0  0  0  0  0  0  0  0  0  0
   11.1714   14.8994   20.4555 O   0  0  0  0  0  0  0  0  0  0  0  0
   12.4340   14.4512   20.9433 C   0  0  0  0  0  0  0  0  0  0  0  0
   12.3505   14.4138   22.4535 C   0  0  0  0  0  0  0  0  0  0  0  0
   11.3912   13.4348   22.8561 N   0  0  0  0  0  0  0  0  0  0  0  0
   10.6175   13.2831   24.1605 C   0  0  0  0  0  0  0  0  0  0  0  0
   10.6876   13.8839   25.1527 O   0  0  0  0  0  0  0  0  0  0  0  0
    9.7406   12.1122   24.0784 C   0  0  0  0  0  0  0  0  0  0  0  0
    9.9414   10.9828   23.3062 C   0  0  0  0  0  0  0  0  0  0  0  0
    9.1067    9.9998   23.7520 N   0  0  0  0  0  0  0  0  0  0  0  0
    9.2107    8.6220   23.3307 C   0  0  0  0  0  0  0  0  0  0  0  0
    8.2357   10.5153   24.6836 C   0  0  0  0  0  0  0  0  0  0  0  0
    7.2006    9.9191   25.4114 C   0  0  0  0  0  0  0  0  0  0  0  0
    6.4815   10.7064   26.3106 C   0  0  0  0  0  0  0  0  0  0  0  0
    6.7774   12.0515   26.4592 C   0  0  0  0  0  0  0  0  0  0  0  0
    6.0717   12.7821   27.3330 F   0  0  0  0  0  0  0  0  0  0  0  0
    7.8151   12.6469   25.7511 C   0  0  0  0  0  0  0  0  0  0  0  0
    8.5736   11.8612   24.8591 C   0  0  0  0  0  0  0  0  0  0  0  0
  1  2  1  0
  2  3  1  0
  3  4  1  0
  4  5  1  0
  5  6  1  0
  6  7  2  0
  6  8  1  0
  8  9  2  0
  9 10  1  0
 10 11  1  0
 10 12  1  0
 12 13  2  0
 13 14  1  0
 14 15  2  0
 15 16  1  0
 15 17  1  0
 17 18  2  0
 18  8  1  0
 18 12  1  0
M  END
>  <alias>  (1181) 
None

>  <rmsd(smina/fragmenstein)>  (1181) 
0.467

>  <smiles>  (1181) 
COCCNC(=O)c1cn(C)c2ccc(F)cc12

>  <gnina_score>  (1181) 
5.225

>  <inspiration_score>  (1181) 
None

>  <energy_score>  (1181) 
-3.408481

>  <distance_score>  (1181) 
0.494111

>  <gnina_score_min>  (1181) 
5.261

>  <inchikey>  (1181) 
AKAYEPPJXSONJP-UHFFFAOYSA-N

>  <exports>  (1181) 
['/opt/xchem-fragalysis-2/maxwin/BulkDock/OUTPUTS/openbind_a71ev2a_c2_elabs_1LOUU54.sdf', '/opt/xchem-fragalysis-2/maxwin/BulkDock/OUTPUTS/openbind_a71ev2a_c2_elabs_1LSYIDY.sdf']

>  <name>  (1181) 
P577036

>  <ref_pdb>  (1181) 
A3066a

>  <subsites>  (1181) 
None

>  <HIPPO Pose ID>  (1181) 
577036

>  <ref_mols>  (1181) 
A3066a

>  <HIPPO Compound ID>  (1181) 
350310

>  <tags>  (1181) 
openbind_a71ev2a_c2_elabs,syndirella_product,openbind_a71ev2a_c2_elabs_fragonly_scored_top80percent,openbind_a71ev2a_c2_elabs_scored,BulkDock Fragalysis export,openbind_a71ev2a_c2_elabs_scored_top80percent,openbind_a71ev2a_c2_elabs_activefrags_only_scored_5.2plus,syndirella_placed

>  <smina_score_min>  (1181) 
-6.915

$$$$
P577037
     RDKit          3D

 18 19  0  0  0  0  0  0  0  0999 V2000
    9.3963    8.5610   23.5158 C   0  0  0  0  0  0  0  0  0  0  0  0
    9.0690    9.9466   23.7620 N   0  0  0  0  0  0  0  0  0  0  0  0
    9.6550   10.9763   23.0832 C   0  0  0  0  0  0  0  0  0  0  0  0
    9.0926   12.1669   23.5082 C   0  0  0  0  0  0  0  0  0  0  0  0
    9.3637   13.5241   23.0267 C   0  0  0  0  0  0  0  0  0  0  0  0
    9.0204   14.4226   23.6753 O   0  0  0  0  0  0  0  0  0  0  0  0
   10.1772   13.4892   21.7344 N   0  0  0  0  0  0  0  0  0  0  0  0
   10.8188   14.5356   21.0181 C   0  0  0  0  0  0  0  0  0  0  0  0
   12.3176   14.3325   21.1789 C   0  0  0  0  0  0  0  0  0  0  0  0
   12.8026   14.6622   22.5786 C   0  0  0  0  0  0  0  0  0  0  0  0
   12.6509   13.0878   24.0128 I   0  0  0  0  0  0  0  0  0  0  0  0
    8.2137   11.8370   24.5841 C   0  0  0  0  0  0  0  0  0  0  0  0
    7.4158   12.6052   25.4600 C   0  0  0  0  0  0  0  0  0  0  0  0
    6.5772   11.9589   26.3589 C   0  0  0  0  0  0  0  0  0  0  0  0
    5.8235   12.6831   27.1969 F   0  0  0  0  0  0  0  0  0  0  0  0
    6.4884   10.5797   26.3894 C   0  0  0  0  0  0  0  0  0  0  0  0
    7.2703    9.8076   25.5312 C   0  0  0  0  0  0  0  0  0  0  0  0
    8.1604   10.4450   24.6649 C   0  0  0  0  0  0  0  0  0  0  0  0
  1  2  1  0
  2  3  1  0
  3  4  2  0
  4  5  1  0
  5  6  2  0
  5  7  1  0
  7  8  1  0
  8  9  1  0
  9 10  1  0
 10 11  1  0
  4 12  1  0
 12 13  2  0
 13 14  1  0
 14 15  1  0
 14 16  2  0
 16 17  1  0
 17 18  2  0
 18  2  1  0
 18 12  1  0
M  END
>  <alias>  (1182) 
None

>  <rmsd(smina/fragmenstein)>  (1182) 
0.343

>  <smiles>  (1182) 
Cn1cc(C(=O)NCCCI)c2cc(F)ccc21

>  <gnina_score>  (1182) 
5.603

>  <inspiration_score>  (1182) 
None

>  <energy_score>  (1182) 
-7.575138

>  <distance_score>  (1182) 
1.116804

>  <gnina_score_min>  (1182) 
5.468

>  <inchikey>  (1182) 
CSYXLOWGVPPADR-UHFFFAOYSA-N

>  <exports>  (1182) 
['/opt/xchem-fragalysis-2/maxwin/BulkDock/OUTPUTS/openbind_a71ev2a_c2_elabs_1LOUU54.sdf', '/opt/xchem-fragalysis-2/maxwin/BulkDock/OUTPUTS/openbind_a71ev2a_c2_elabs_1LSYIDY.sdf']

>  <name>  (1182) 
P577037

>  <ref_pdb>  (1182) 
A3066a

>  <subsites>  (1182) 
None

>  <HIPPO Pose ID>  (1182) 
577037

>  <ref_mols>  (1182) 
A3066a

>  <HIPPO Compound ID>  (1182) 
350312

>  <tags>  (1182) 
openbind_a71ev2a_c2_elabs,syndirella_product,openbind_a71ev2a_c2_elabs_fragonly_scored_top80percent,openbind_a71ev2a_c2_elabs_scored,BulkDock Fragalysis export,openbind_a71ev2a_c2_elabs_scored_top80percent,openbind_a71ev2a_c2_elabs_activefrags_only_scored_5.2plus,syndirella_placed

>  <smina_score_min>  (1182) 
-5.573

$$$$
P577038
     RDKit          3D

 18 19  0  0  0  0  0  0  0  0999 V2000
   10.4342   14.9744   19.8015 C   0  0  0  0  0  0  0  0  0  0  0  0
   10.4516   15.5483   21.2017 C   0  0  0  0  0  0  0  0  0  0  0  0
   11.3820   14.9004   22.1337 N   0  0  0  0  0  0  0  0  0  0  0  0
   12.7234   14.6527   21.6370 C   0  0  0  0  0  0  0  0  0  0  0  0
   10.8334   13.7581   22.6418 N   0  0  0  0  0  0  0  0  0  0  0  0
   10.4037   13.4086   24.0766 C   0  0  0  0  0  0  0  0  0  0  0  0
   10.5199   14.0104   25.0685 O   0  0  0  0  0  0  0  0  0  0  0  0
    9.6804   12.1472   24.0636 C   0  0  0  0  0  0  0  0  0  0  0  0
    9.9639   11.0351   23.2961 C   0  0  0  0  0  0  0  0  0  0  0  0
    9.1786   10.0059   23.7324 N   0  0  0  0  0  0  0  0  0  0  0  0
    9.3201    8.6396   23.2828 C   0  0  0  0  0  0  0  0  0  0  0  0
    8.2806   10.4695   24.6681 C   0  0  0  0  0  0  0  0  0  0  0  0
    7.2644    9.8234   25.3769 C   0  0  0  0  0  0  0  0  0  0  0  0
    6.4994   10.5644   26.2780 C   0  0  0  0  0  0  0  0  0  0  0  0
    6.7366   11.9173   26.4509 C   0  0  0  0  0  0  0  0  0  0  0  0
    5.9910   12.6061   27.3247 F   0  0  0  0  0  0  0  0  0  0  0  0
    7.7528   12.5656   25.7596 C   0  0  0  0  0  0  0  0  0  0  0  0
    8.5508   11.8244   24.8642 C   0  0  0  0  0  0  0  0  0  0  0  0
  1  2  1  0
  2  3  1  0
  3  4  1  0
  3  5  1  0
  5  6  1  0
  6  7  2  0
  6  8  1  0
  8  9  2  0
  9 10  1  0
 10 11  1  0
 10 12  1  0
 12 13  2  0
 13 14  1  0
 14 15  2  0
 15 16  1  0
 15 17  1  0
 17 18  2  0
 18  8  1  0
 18 12  1  0
M  END
>  <alias>  (1183) 
None

>  <rmsd(smina/fragmenstein)>  (1183) 
0.37

>  <smiles>  (1183) 
CCN(C)NC(=O)c1cn(C)c2ccc(F)cc12

>  <gnina_score>  (1183) 
5.732

>  <inspiration_score>  (1183) 
None

>  <energy_score>  (1183) 
-4.367513

>  <distance_score>  (1183) 
0.595093

>  <gnina_score_min>  (1183) 
5.743

>  <inchikey>  (1183) 
ODOQVXQKOJSMAV-UHFFFAOYSA-N

>  <exports>  (1183) 
['/opt/xchem-fragalysis-2/maxwin/BulkDock/OUTPUTS/openbind_a71ev2a_c2_elabs_1LOUU54.sdf', '/opt/xchem-fragalysis-2/maxwin/BulkDock/OUTPUTS/openbind_a71ev2a_c2_elabs_1LSYIDY.sdf']

>  <name>  (1183) 
P577038

>  <ref_pdb>  (1183) 
A3066a

>  <subsites>  (1183) 
None

>  <HIPPO Pose ID>  (1183) 
577038

>  <ref_mols>  (1183) 
A3066a

>  <HIPPO Compound ID>  (1183) 
350313

>  <tags>  (1183) 
openbind_a71ev2a_c2_elabs,syndirella_product,openbind_a71ev2a_c2_elabs_fragonly_scored_top80percent,BulkDock Fragalysis export,openbind_a71ev2a_c2_elabs_scored,openbind_a71ev2a_c2_elabs_scored_top80percent,openbind_a71ev2a_c2_elabs_activefrags_only_scored_5.2plus,openbind_a71ev2a_c2_elabs_activefrags_only_scored_5.5plus,syndirella_placed

>  <smina_score_min>  (1183) 
-7.246

$$$$
P577039
     RDKit          3D

 18 20  0  0  0  0  0  0  0  0999 V2000
    8.8641   15.3471   21.0220 C   0  0  0  0  0  0  0  0  0  0  0  0
   10.3211   15.5830   20.8507 C   0  0  2  0  0  0  0  0  0  0  0  0
   11.1137   14.7311   19.9003 C   0  0  0  0  0  0  0  0  0  0  0  0
   11.3454   14.6001   21.3758 C   0  0  2  0  0  0  0  0  0  0  0  0
   10.8447   13.5055   22.0915 N   0  0  0  0  0  0  0  0  0  0  0  0
   10.4806   13.3667   23.5768 C   0  0  0  0  0  0  0  0  0  0  0  0
   10.6109   14.1157   24.4599 O   0  0  0  0  0  0  0  0  0  0  0  0
    9.7860   12.1025   23.7970 C   0  0  0  0  0  0  0  0  0  0  0  0
    9.9943   10.9037   23.1512 C   0  0  0  0  0  0  0  0  0  0  0  0
    9.1958    9.9550   23.7245 N   0  0  0  0  0  0  0  0  0  0  0  0
    9.2743    8.5518   23.3957 C   0  0  0  0  0  0  0  0  0  0  0  0
    8.3655   10.5369   24.6567 C   0  0  0  0  0  0  0  0  0  0  0  0
    7.3673   10.0005   25.4832 C   0  0  0  0  0  0  0  0  0  0  0  0
    6.7266   10.8590   26.3830 C   0  0  0  0  0  0  0  0  0  0  0  0
    5.5714   10.1388   27.7020 Br  0  0  0  0  0  0  0  0  0  0  0  0
    6.9935   12.2211   26.4005 C   0  0  0  0  0  0  0  0  0  0  0  0
    7.9702   12.7491   25.5550 C   0  0  0  0  0  0  0  0  0  0  0  0
    8.6993   11.8926   24.7015 C   0  0  0  0  0  0  0  0  0  0  0  0
  2  1  1  1
  2  3  1  0
  3  4  1  0
  4  5  1  1
  5  6  1  0
  6  7  2  0
  6  8  1  0
  8  9  2  0
  9 10  1  0
 10 11  1  0
 10 12  1  0
 12 13  2  0
 13 14  1  0
 14 15  1  0
 14 16  2  0
 16 17  1  0
 17 18  2  0
  4  2  1  0
 18  8  1  0
 18 12  1  0
M  END
>  <alias>  (1184) 
None

>  <rmsd(smina/fragmenstein)>  (1184) 
0.36

>  <smiles>  (1184) 
C[C@@H]1C[C@@H]1NC(=O)c1cn(C)c2cc(Br)ccc12

>  <gnina_score>  (1184) 
5.648

>  <inspiration_score>  (1184) 
None

>  <energy_score>  (1184) 
-12.44316

>  <distance_score>  (1184) 
0.50141

>  <gnina_score_min>  (1184) 
5.645

>  <inchikey>  (1184) 
QZGVCROQZVINHQ-PELKAZGASA-N

>  <exports>  (1184) 
['/opt/xchem-fragalysis-2/maxwin/BulkDock/OUTPUTS/openbind_a71ev2a_c2_elabs_1LOUU54.sdf', '/opt/xchem-fragalysis-2/maxwin/BulkDock/OUTPUTS/openbind_a71ev2a_c2_elabs_1LSYIDY.sdf']

>  <name>  (1184) 
P577039

>  <ref_pdb>  (1184) 
A3066a

>  <subsites>  (1184) 
None

>  <HIPPO Pose ID>  (1184) 
577039

>  <ref_mols>  (1184) 
A3066a

>  <HIPPO Compound ID>  (1184) 
350320

>  <tags>  (1184) 
openbind_a71ev2a_c2_elabs,syndirella_product,openbind_a71ev2a_c2_elabs_fragonly_scored_top80percent,BulkDock Fragalysis export,openbind_a71ev2a_c2_elabs_scored,openbind_a71ev2a_c2_elabs_scored_top80percent,openbind_a71ev2a_c2_elabs_activefrags_only_scored_5.2plus,openbind_a71ev2a_c2_elabs_activefrags_only_scored_5.5plus,syndirella_placed

>  <smina_score_min>  (1184) 
-7.44

$$$$
P577042
     RDKit          3D

 18 20  0  0  0  0  0  0  0  0999 V2000
    9.5242    8.7262   23.4923 C   0  0  0  0  0  0  0  0  0  0  0  0
    9.1955   10.1123   23.7476 N   0  0  0  0  0  0  0  0  0  0  0  0
    9.7745   11.1560   23.0705 C   0  0  0  0  0  0  0  0  0  0  0  0
    9.1769   12.3305   23.4824 C   0  0  0  0  0  0  0  0  0  0  0  0
    9.3142   13.6756   22.9217 C   0  0  0  0  0  0  0  0  0  0  0  0
    8.5810   14.5092   23.2991 O   0  0  0  0  0  0  0  0  0  0  0  0
   10.4197   13.7427   21.9213 N   0  0  0  0  0  0  0  0  0  0  0  0
   10.8666   14.8700   21.0194 C   0  0  0  0  0  0  0  0  0  0  0  0
   12.3006   14.4777   21.2354 C   0  0  0  0  0  0  0  0  0  0  0  0
   12.8062   13.4426   20.3738 O   0  0  0  0  0  0  0  0  0  0  0  0
   11.7753   14.1101   22.5932 C   0  0  0  0  0  0  0  0  0  0  0  0
    8.3155   11.9871   24.5702 C   0  0  0  0  0  0  0  0  0  0  0  0
    7.5059   12.7534   25.4387 C   0  0  0  0  0  0  0  0  0  0  0  0
    6.6910   12.1252   26.3759 C   0  0  0  0  0  0  0  0  0  0  0  0
    6.6430   10.7423   26.4235 C   0  0  0  0  0  0  0  0  0  0  0  0
    5.5732    9.9259   27.7579 Br  0  0  0  0  0  0  0  0  0  0  0  0
    7.4057    9.9550   25.5514 C   0  0  0  0  0  0  0  0  0  0  0  0
    8.2823   10.5951   24.6618 C   0  0  0  0  0  0  0  0  0  0  0  0
  1  2  1  0
  2  3  1  0
  3  4  2  0
  4  5  1  0
  5  6  2  0
  5  7  1  0
  7  8  1  0
  8  9  1  0
  9 10  1  0
  9 11  1  0
  4 12  1  0
 12 13  2  0
 13 14  1  0
 14 15  2  0
 15 16  1  0
 15 17  1  0
 17 18  2  0
 18  2  1  0
 11  7  1  0
 18 12  1  0
M  END
>  <alias>  (1185) 
None

>  <rmsd(smina/fragmenstein)>  (1185) 
0.168

>  <smiles>  (1185) 
Cn1cc(C(=O)N2CC(O)C2)c2ccc(Br)cc21

>  <gnina_score>  (1185) 
5.518

>  <inspiration_score>  (1185) 
None

>  <energy_score>  (1185) 
-0.274117

>  <distance_score>  (1185) 
1.164647

>  <gnina_score_min>  (1185) 
5.445

>  <inchikey>  (1185) 
KZODGZHNERYNHI-UHFFFAOYSA-N

>  <exports>  (1185) 
['/opt/xchem-fragalysis-2/maxwin/BulkDock/OUTPUTS/openbind_a71ev2a_c2_elabs_1LOUU54.sdf', '/opt/xchem-fragalysis-2/maxwin/BulkDock/OUTPUTS/openbind_a71ev2a_c2_elabs_1LSYIDY.sdf']

>  <name>  (1185) 
P577042

>  <ref_pdb>  (1185) 
A3066a

>  <subsites>  (1185) 
None

>  <HIPPO Pose ID>  (1185) 
577042

>  <ref_mols>  (1185) 
A3066a

>  <HIPPO Compound ID>  (1185) 
350321

>  <tags>  (1185) 
openbind_a71ev2a_c2_elabs,syndirella_product,openbind_a71ev2a_c2_elabs_fragonly_scored_top80percent,openbind_a71ev2a_c2_elabs_scored,BulkDock Fragalysis export,openbind_a71ev2a_c2_elabs_scored_top80percent,openbind_a71ev2a_c2_elabs_activefrags_only_scored_5.2plus,syndirella_placed

>  <smina_score_min>  (1185) 
-7.441

$$$$
P577043
     RDKit          3D

 18 20  0  0  0  0  0  0  0  0999 V2000
    9.0955    8.3447   23.6851 C   0  0  0  0  0  0  0  0  0  0  0  0
    8.9253    9.7586   23.8552 N   0  0  0  0  0  0  0  0  0  0  0  0
    9.6550   10.6217   23.1081 C   0  0  0  0  0  0  0  0  0  0  0  0
    9.4433   11.8937   23.5865 C   0  0  0  0  0  0  0  0  0  0  0  0
   10.1506   13.0922   23.1743 C   0  0  0  0  0  0  0  0  0  0  0  0
    9.8106   14.1392   23.5639 O   0  0  0  0  0  0  0  0  0  0  0  0
   11.3672   12.6919   22.3059 N   0  0  0  0  0  0  0  0  0  0  0  0
   12.3939   13.4285   21.8498 N   0  0  0  0  0  0  0  0  0  0  0  0
   12.7909   14.4523   22.8019 C   0  0  0  0  0  0  0  0  0  0  0  0
   12.7785   15.4423   21.6603 C   0  0  0  0  0  0  0  0  0  0  0  0
   11.9366   14.4380   20.8872 C   0  0  0  0  0  0  0  0  0  0  0  0
    8.4408   11.7935   24.5984 C   0  0  0  0  0  0  0  0  0  0  0  0
    7.7879   12.7349   25.4239 C   0  0  0  0  0  0  0  0  0  0  0  0
    6.8787   12.3018   26.3907 C   0  0  0  0  0  0  0  0  0  0  0  0
    6.5981   10.9492   26.5181 C   0  0  0  0  0  0  0  0  0  0  0  0
    5.4974   10.3627   27.9455 Br  0  0  0  0  0  0  0  0  0  0  0  0
    7.1775   10.0023   25.6698 C   0  0  0  0  0  0  0  0  0  0  0  0
    8.1298   10.4388   24.7411 C   0  0  0  0  0  0  0  0  0  0  0  0
  1  2  1  0
  2  3  1  0
  3  4  2  0
  4  5  1  0
  5  6  2  0
  5  7  1  0
  7  8  1  0
  8  9  1  0
  9 10  1  0
 10 11  1  0
  4 12  1  0
 12 13  2  0
 13 14  1  0
 14 15  2  0
 15 16  1  0
 15 17  1  0
 17 18  2  0
 18  2  1  0
 11  8  1  0
 18 12  1  0
M  END
>  <alias>  (1186) 
None

>  <rmsd(smina/fragmenstein)>  (1186) 
0.304

>  <smiles>  (1186) 
Cn1cc(C(=O)NN2CCC2)c2ccc(Br)cc21

>  <gnina_score>  (1186) 
5.574

>  <inspiration_score>  (1186) 
None

>  <energy_score>  (1186) 
-2.196202

>  <distance_score>  (1186) 
0.770851

>  <gnina_score_min>  (1186) 
5.585

>  <inchikey>  (1186) 
WPOPHEWBCAZJRB-UHFFFAOYSA-N

>  <exports>  (1186) 
['/opt/xchem-fragalysis-2/maxwin/BulkDock/OUTPUTS/openbind_a71ev2a_c2_elabs_1LOUU54.sdf', '/opt/xchem-fragalysis-2/maxwin/BulkDock/OUTPUTS/openbind_a71ev2a_c2_elabs_1LSYIDY.sdf']

>  <name>  (1186) 
P577043

>  <ref_pdb>  (1186) 
A3066a

>  <subsites>  (1186) 
None

>  <HIPPO Pose ID>  (1186) 
577043

>  <ref_mols>  (1186) 
A3066a

>  <HIPPO Compound ID>  (1186) 
350327

>  <tags>  (1186) 
openbind_a71ev2a_c2_elabs,syndirella_product,openbind_a71ev2a_c2_elabs_fragonly_scored_top80percent,BulkDock Fragalysis export,openbind_a71ev2a_c2_elabs_scored,openbind_a71ev2a_c2_elabs_scored_top80percent,openbind_a71ev2a_c2_elabs_activefrags_only_scored_5.2plus,openbind_a71ev2a_c2_elabs_activefrags_only_scored_5.5plus,syndirella_placed

>  <smina_score_min>  (1186) 
-5.924

$$$$
P577044
     RDKit          3D

 18 19  0  0  0  0  0  0  0  0999 V2000
   12.7792   15.0746   21.8491 C   0  0  0  0  0  0  0  0  0  0  0  0
   11.9279   14.4551   20.7709 C   0  0  0  0  0  0  0  0  0  0  0  0
   10.5146   14.5760   21.0495 N   0  0  0  0  0  0  0  0  0  0  0  0
    9.7834   15.7766   20.7506 C   0  0  0  0  0  0  0  0  0  0  0  0
    9.9991   13.6948   21.9348 N   0  0  0  0  0  0  0  0  0  0  0  0
   10.2267   13.5506   23.4542 C   0  0  0  0  0  0  0  0  0  0  0  0
   10.8349   14.2171   24.1954 O   0  0  0  0  0  0  0  0  0  0  0  0
    9.5928   12.2974   23.8374 C   0  0  0  0  0  0  0  0  0  0  0  0
    9.8833   11.0842   23.2405 C   0  0  0  0  0  0  0  0  0  0  0  0
    9.1249   10.1136   23.8257 N   0  0  0  0  0  0  0  0  0  0  0  0
    9.2371    8.7085   23.5017 C   0  0  0  0  0  0  0  0  0  0  0  0
    8.2857   10.6844   24.7594 C   0  0  0  0  0  0  0  0  0  0  0  0
    7.3126   10.1188   25.5955 C   0  0  0  0  0  0  0  0  0  0  0  0
    6.6612   10.9607   26.5017 C   0  0  0  0  0  0  0  0  0  0  0  0
    5.5301   10.2079   27.8234 Br  0  0  0  0  0  0  0  0  0  0  0  0
    6.8951   12.3306   26.5191 C   0  0  0  0  0  0  0  0  0  0  0  0
    7.8370   12.8924   25.6547 C   0  0  0  0  0  0  0  0  0  0  0  0
    8.5688   12.0572   24.7879 C   0  0  0  0  0  0  0  0  0  0  0  0
  1  2  1  0
  2  3  1  0
  3  4  1  0
  3  5  1  0
  5  6  1  0
  6  7  2  0
  6  8  1  0
  8  9  2  0
  9 10  1  0
 10 11  1  0
 10 12  1  0
 12 13  2  0
 13 14  1  0
 14 15  1  0
 14 16  2  0
 16 17  1  0
 17 18  2  0
 18  8  1  0
 18 12  1  0
M  END
>  <alias>  (1187) 
None

>  <rmsd(smina/fragmenstein)>  (1187) 
0.181

>  <smiles>  (1187) 
CCN(C)NC(=O)c1cn(C)c2cc(Br)ccc12

>  <gnina_score>  (1187) 
5.846

>  <inspiration_score>  (1187) 
None

>  <energy_score>  (1187) 
-3.424526

>  <distance_score>  (1187) 
0.855613

>  <gnina_score_min>  (1187) 
5.853

>  <inchikey>  (1187) 
KEUDCWXGHHLBOA-UHFFFAOYSA-N

>  <exports>  (1187) 
['/opt/xchem-fragalysis-2/maxwin/BulkDock/OUTPUTS/openbind_a71ev2a_c2_elabs_1LOUU54.sdf', '/opt/xchem-fragalysis-2/maxwin/BulkDock/OUTPUTS/openbind_a71ev2a_c2_elabs_1LSYIDY.sdf']

>  <name>  (1187) 
P577044

>  <ref_pdb>  (1187) 
A3066a

>  <subsites>  (1187) 
None

>  <HIPPO Pose ID>  (1187) 
577044

>  <ref_mols>  (1187) 
A3066a

>  <HIPPO Compound ID>  (1187) 
350330

>  <tags>  (1187) 
openbind_a71ev2a_c2_elabs,syndirella_product,openbind_a71ev2a_c2_elabs_fragonly_scored_top80percent,BulkDock Fragalysis export,openbind_a71ev2a_c2_elabs_scored,openbind_a71ev2a_c2_elabs_scored_top80percent,openbind_a71ev2a_c2_elabs_activefrags_only_scored_5.2plus,openbind_a71ev2a_c2_elabs_activefrags_only_scored_5.5plus,syndirella_placed

>  <smina_score_min>  (1187) 
-7.013

$$$$
P577045
     RDKit          3D

 18 19  0  0  0  0  0  0  0  0999 V2000
    9.3578    8.6172   23.5883 C   0  0  0  0  0  0  0  0  0  0  0  0
    8.9891    9.9955   23.8214 N   0  0  0  0  0  0  0  0  0  0  0  0
    9.5445   11.0349   23.1224 C   0  0  0  0  0  0  0  0  0  0  0  0
    8.9590   12.2118   23.5503 C   0  0  0  0  0  0  0  0  0  0  0  0
    9.1706   13.5834   23.0894 C   0  0  0  0  0  0  0  0  0  0  0  0
    8.7241   14.4403   23.7302 O   0  0  0  0  0  0  0  0  0  0  0  0
   10.0588   13.6347   21.8510 N   0  0  0  0  0  0  0  0  0  0  0  0
   10.6641   14.7414   21.1922 C   0  0  0  0  0  0  0  0  0  0  0  0
   11.7900   15.2112   22.0993 C   0  0  0  0  0  0  0  0  0  0  0  0
   12.8866   14.1827   22.2568 C   0  0  0  0  0  0  0  0  0  0  0  0
   12.6415   13.0341   24.0602 I   0  0  0  0  0  0  0  0  0  0  0  0
    8.1123   11.8689   24.6480 C   0  0  0  0  0  0  0  0  0  0  0  0
    7.3292   12.6357   25.5416 C   0  0  0  0  0  0  0  0  0  0  0  0
    6.5408   12.0110   26.5008 C   0  0  0  0  0  0  0  0  0  0  0  0
    6.4908   10.6299   26.5441 C   0  0  0  0  0  0  0  0  0  0  0  0
    5.4434    9.8096   27.8932 Br  0  0  0  0  0  0  0  0  0  0  0  0
    7.2287    9.8467   25.6485 C   0  0  0  0  0  0  0  0  0  0  0  0
    8.0855   10.4797   24.7407 C   0  0  0  0  0  0  0  0  0  0  0  0
  1  2  1  0
  2  3  1  0
  3  4  2  0
  4  5  1  0
  5  6  2  0
  5  7  1  0
  7  8  1  0
  8  9  1  0
  9 10  1  0
 10 11  1  0
  4 12  1  0
 12 13  2  0
 13 14  1  0
 14 15  2  0
 15 16  1  0
 15 17  1  0
 17 18  2  0
 18  2  1  0
 18 12  1  0
M  END
>  <alias>  (1188) 
None

>  <rmsd(smina/fragmenstein)>  (1188) 
0.346

>  <smiles>  (1188) 
Cn1cc(C(=O)NCCCI)c2ccc(Br)cc21

>  <gnina_score>  (1188) 
5.67

>  <inspiration_score>  (1188) 
None

>  <energy_score>  (1188) 
-5.989912

>  <distance_score>  (1188) 
1.224956

>  <gnina_score_min>  (1188) 
5.587

>  <inchikey>  (1188) 
HUBCIIANYPMFGG-UHFFFAOYSA-N

>  <exports>  (1188) 
['/opt/xchem-fragalysis-2/maxwin/BulkDock/OUTPUTS/openbind_a71ev2a_c2_elabs_1LOUU54.sdf', '/opt/xchem-fragalysis-2/maxwin/BulkDock/OUTPUTS/openbind_a71ev2a_c2_elabs_1LSYIDY.sdf']

>  <name>  (1188) 
P577045

>  <ref_pdb>  (1188) 
A3066a

>  <subsites>  (1188) 
None

>  <HIPPO Pose ID>  (1188) 
577045

>  <ref_mols>  (1188) 
A3066a

>  <HIPPO Compound ID>  (1188) 
350331

>  <tags>  (1188) 
openbind_a71ev2a_c2_elabs,syndirella_product,openbind_a71ev2a_c2_elabs_fragonly_scored_top80percent,BulkDock Fragalysis export,openbind_a71ev2a_c2_elabs_scored,openbind_a71ev2a_c2_elabs_scored_top80percent,openbind_a71ev2a_c2_elabs_activefrags_only_scored_5.2plus,openbind_a71ev2a_c2_elabs_activefrags_only_scored_5.5plus,syndirella_placed

>  <smina_score_min>  (1188) 
-5.429

$$$$
P577046
     RDKit          3D

 18 19  0  0  0  0  0  0  0  0999 V2000
    9.5703   16.0814   20.4036 C   0  0  0  0  0  0  0  0  0  0  0  0
   10.6898   15.2086   20.4252 O   0  0  0  0  0  0  0  0  0  0  0  0
   11.3938   15.3041   21.6611 C   0  0  0  0  0  0  0  0  0  0  0  0
   12.2881   14.0950   21.8355 C   0  0  0  0  0  0  0  0  0  0  0  0
   11.4532   13.0991   22.4256 N   0  0  0  0  0  0  0  0  0  0  0  0
   10.7671   13.0591   23.7936 C   0  0  0  0  0  0  0  0  0  0  0  0
   10.8328   13.7955   24.6927 O   0  0  0  0  0  0  0  0  0  0  0  0
    9.8465   11.9318   23.8640 C   0  0  0  0  0  0  0  0  0  0  0  0
    9.9467   10.7436   23.1766 C   0  0  0  0  0  0  0  0  0  0  0  0
    9.0878    9.8520   23.7446 N   0  0  0  0  0  0  0  0  0  0  0  0
    9.1520    8.4430   23.4580 C   0  0  0  0  0  0  0  0  0  0  0  0
    8.2856   10.4818   24.6674 C   0  0  0  0  0  0  0  0  0  0  0  0
    7.2677   10.0035   25.5048 C   0  0  0  0  0  0  0  0  0  0  0  0
    6.6867   10.8979   26.4092 C   0  0  0  0  0  0  0  0  0  0  0  0
    5.5334   10.2375   27.7614 Br  0  0  0  0  0  0  0  0  0  0  0  0
    7.0218   12.2451   26.4136 C   0  0  0  0  0  0  0  0  0  0  0  0
    8.0237   12.7146   25.5625 C   0  0  0  0  0  0  0  0  0  0  0  0
    8.7013   11.8148   24.7116 C   0  0  0  0  0  0  0  0  0  0  0  0
  1  2  1  0
  2  3  1  0
  3  4  1  0
  4  5  1  0
  5  6  1  0
  6  7  2  0
  6  8  1  0
  8  9  2  0
  9 10  1  0
 10 11  1  0
 10 12  1  0
 12 13  2  0
 13 14  1  0
 14 15  1  0
 14 16  2  0
 16 17  1  0
 17 18  2  0
 18  8  1  0
 18 12  1  0
M  END
>  <alias>  (1189) 
None

>  <rmsd(smina/fragmenstein)>  (1189) 
0.294

>  <smiles>  (1189) 
COCCNC(=O)c1cn(C)c2cc(Br)ccc12

>  <gnina_score>  (1189) 
5.397

>  <inspiration_score>  (1189) 
None

>  <energy_score>  (1189) 
-1.033471

>  <distance_score>  (1189) 
0.382629

>  <gnina_score_min>  (1189) 
5.459

>  <inchikey>  (1189) 
XWYCBGSKAJPOQR-UHFFFAOYSA-N

>  <exports>  (1189) 
['/opt/xchem-fragalysis-2/maxwin/BulkDock/OUTPUTS/openbind_a71ev2a_c2_elabs_1LOUU54.sdf', '/opt/xchem-fragalysis-2/maxwin/BulkDock/OUTPUTS/openbind_a71ev2a_c2_elabs_1LSYIDY.sdf']

>  <name>  (1189) 
P577046

>  <ref_pdb>  (1189) 
A3066a

>  <subsites>  (1189) 
None

>  <HIPPO Pose ID>  (1189) 
577046

>  <ref_mols>  (1189) 
A3066a

>  <HIPPO Compound ID>  (1189) 
350333

>  <tags>  (1189) 
openbind_a71ev2a_c2_elabs,syndirella_product,openbind_a71ev2a_c2_elabs_fragonly_scored_top80percent,openbind_a71ev2a_c2_elabs_scored,BulkDock Fragalysis export,openbind_a71ev2a_c2_elabs_scored_top80percent,openbind_a71ev2a_c2_elabs_activefrags_only_scored_5.2plus,syndirella_placed

>  <smina_score_min>  (1189) 
-6.692

$$$$
P577047
     RDKit          3D

 18 19  0  0  0  0  0  0  0  0999 V2000
    9.3859    8.5431   23.5242 C   0  0  0  0  0  0  0  0  0  0  0  0
    9.0835    9.9341   23.7721 N   0  0  0  0  0  0  0  0  0  0  0  0
    9.6988   10.9522   23.0940 C   0  0  0  0  0  0  0  0  0  0  0  0
    9.1655   12.1492   23.5245 C   0  0  0  0  0  0  0  0  0  0  0  0
    9.4364   13.5070   23.0616 C   0  0  0  0  0  0  0  0  0  0  0  0
    9.0060   14.3776   23.6946 O   0  0  0  0  0  0  0  0  0  0  0  0
   10.3462   13.5298   21.8403 N   0  0  0  0  0  0  0  0  0  0  0  0
   10.9978   14.6173   21.1919 C   0  0  0  0  0  0  0  0  0  0  0  0
   11.9419   15.2577   22.2075 C   0  0  0  0  0  0  0  0  0  0  0  0
   13.1583   14.5145   22.5002 N   0  0  0  0  0  0  0  0  0  0  0  0
   12.7784   13.3124   23.2166 O   0  0  0  0  0  0  0  0  0  0  0  0
    8.2692   11.8362   24.5948 C   0  0  0  0  0  0  0  0  0  0  0  0
    7.4856   12.6284   25.4665 C   0  0  0  0  0  0  0  0  0  0  0  0
    6.6559   12.0301   26.4092 C   0  0  0  0  0  0  0  0  0  0  0  0
    6.5681   10.6507   26.4598 C   0  0  0  0  0  0  0  0  0  0  0  0
    5.4908    9.8646   27.8063 Br  0  0  0  0  0  0  0  0  0  0  0  0
    7.2974    9.8424   25.5793 C   0  0  0  0  0  0  0  0  0  0  0  0
    8.1873   10.4485   24.6834 C   0  0  0  0  0  0  0  0  0  0  0  0
  1  2  1  0
  2  3  1  0
  3  4  2  0
  4  5  1  0
  5  6  2  0
  5  7  1  0
  7  8  1  0
  8  9  1  0
  9 10  1  0
 10 11  1  0
  4 12  1  0
 12 13  2  0
 13 14  1  0
 14 15  2  0
 15 16  1  0
 15 17  1  0
 17 18  2  0
 18  2  1  0
 18 12  1  0
M  END
>  <alias>  (1190) 
None

>  <rmsd(smina/fragmenstein)>  (1190) 
0.588

>  <smiles>  (1190) 
Cn1cc(C(=O)NCCNO)c2ccc(Br)cc21

>  <gnina_score>  (1190) 
5.296

>  <inspiration_score>  (1190) 
None

>  <energy_score>  (1190) 
-1.925071

>  <distance_score>  (1190) 
1.04417

>  <gnina_score_min>  (1190) 
5.552

>  <inchikey>  (1190) 
BPKGUIVZLKEGDJ-UHFFFAOYSA-N

>  <exports>  (1190) 
['/opt/xchem-fragalysis-2/maxwin/BulkDock/OUTPUTS/openbind_a71ev2a_c2_elabs_1LOUU54.sdf', '/opt/xchem-fragalysis-2/maxwin/BulkDock/OUTPUTS/openbind_a71ev2a_c2_elabs_1LSYIDY.sdf']

>  <name>  (1190) 
P577047

>  <ref_pdb>  (1190) 
A3066a

>  <subsites>  (1190) 
None

>  <HIPPO Pose ID>  (1190) 
577047

>  <ref_mols>  (1190) 
A3066a

>  <HIPPO Compound ID>  (1190) 
350337

>  <tags>  (1190) 
openbind_a71ev2a_c2_elabs,syndirella_product,openbind_a71ev2a_c2_elabs_fragonly_scored_top80percent,BulkDock Fragalysis export,openbind_a71ev2a_c2_elabs_scored,openbind_a71ev2a_c2_elabs_scored_top80percent,openbind_a71ev2a_c2_elabs_activefrags_only_scored_5.2plus,openbind_a71ev2a_c2_elabs_activefrags_only_scored_5.5plus,syndirella_placed

>  <smina_score_min>  (1190) 
-6.673

$$$$
P577048
     RDKit          3D

 18 20  0  0  0  0  0  0  0  0999 V2000
    9.1681    8.5706   23.6328 C   0  0  0  0  0  0  0  0  0  0  0  0
    8.8743    9.9464   23.9536 N   0  0  0  0  0  0  0  0  0  0  0  0
    9.5002   10.9842   23.3296 C   0  0  0  0  0  0  0  0  0  0  0  0
    9.0308   12.1579   23.8819 C   0  0  0  0  0  0  0  0  0  0  0  0
    9.3904   13.5056   23.5126 C   0  0  0  0  0  0  0  0  0  0  0  0
    9.1607   14.4005   24.2325 O   0  0  0  0  0  0  0  0  0  0  0  0
   10.0884   13.4810   22.2017 N   0  0  0  0  0  0  0  0  0  0  0  0
   10.6241   14.6036   21.3509 C   0  0  0  0  0  0  0  0  0  0  0  0
   11.8344   14.7069   22.2243 C   0  0  0  0  0  0  0  0  0  0  0  0
   13.3319   15.1155   21.4760 Cl  0  0  0  0  0  0  0  0  0  0  0  0
   11.6132   13.2503   22.3747 C   0  0  0  0  0  0  0  0  0  0  0  0
    8.1214   11.8180   24.9093 C   0  0  0  0  0  0  0  0  0  0  0  0
    7.3641   12.5879   25.8181 C   0  0  0  0  0  0  0  0  0  0  0  0
    6.5115   11.9591   26.7167 C   0  0  0  0  0  0  0  0  0  0  0  0
    6.3759   10.5822   26.6762 C   0  0  0  0  0  0  0  0  0  0  0  0
    5.2758    9.7453   27.9730 Br  0  0  0  0  0  0  0  0  0  0  0  0
    7.0712    9.8076   25.7398 C   0  0  0  0  0  0  0  0  0  0  0  0
    7.9907   10.4319   24.8937 C   0  0  0  0  0  0  0  0  0  0  0  0
  1  2  1  0
  2  3  1  0
  3  4  2  0
  4  5  1  0
  5  6  2  0
  5  7  1  0
  7  8  1  0
  8  9  1  0
  9 10  1  0
  9 11  1  0
  4 12  1  0
 12 13  2  0
 13 14  1  0
 14 15  2  0
 15 16  1  0
 15 17  1  0
 17 18  2  0
 18  2  1  0
 11  7  1  0
 18 12  1  0
M  END
>  <alias>  (1191) 
None

>  <rmsd(smina/fragmenstein)>  (1191) 
0.218

>  <smiles>  (1191) 
Cn1cc(C(=O)N2CC(Cl)C2)c2ccc(Br)cc21

>  <gnina_score>  (1191) 
5.373

>  <inspiration_score>  (1191) 
None

>  <energy_score>  (1191) 
-2.553611

>  <distance_score>  (1191) 
1.152526

>  <gnina_score_min>  (1191) 
5.297

>  <inchikey>  (1191) 
VQHVOPZUQNSMPX-UHFFFAOYSA-N

>  <exports>  (1191) 
['/opt/xchem-fragalysis-2/maxwin/BulkDock/OUTPUTS/openbind_a71ev2a_c2_elabs_1LOUU54.sdf', '/opt/xchem-fragalysis-2/maxwin/BulkDock/OUTPUTS/openbind_a71ev2a_c2_elabs_1LSYIDY.sdf']

>  <name>  (1191) 
P577048

>  <ref_pdb>  (1191) 
A3066a

>  <subsites>  (1191) 
None

>  <HIPPO Pose ID>  (1191) 
577048

>  <ref_mols>  (1191) 
A3066a

>  <HIPPO Compound ID>  (1191) 
350338

>  <tags>  (1191) 
openbind_a71ev2a_c2_elabs,syndirella_product,openbind_a71ev2a_c2_elabs_fragonly_scored_top80percent,openbind_a71ev2a_c2_elabs_scored,BulkDock Fragalysis export,openbind_a71ev2a_c2_elabs_scored_top80percent,openbind_a71ev2a_c2_elabs_activefrags_only_scored_5.2plus,syndirella_placed

>  <smina_score_min>  (1191) 
-5.933

$$$$
P577049
     RDKit          3D

 18 20  0  0  0  0  0  0  0  0999 V2000
    9.4119    8.5277   23.5033 C   0  0  0  0  0  0  0  0  0  0  0  0
    9.1015    9.9075   23.7981 N   0  0  0  0  0  0  0  0  0  0  0  0
    9.7210   10.9535   23.1782 C   0  0  0  0  0  0  0  0  0  0  0  0
    9.1544   12.1272   23.6361 C   0  0  0  0  0  0  0  0  0  0  0  0
    9.4181   13.4841   23.1867 C   0  0  0  0  0  0  0  0  0  0  0  0
    9.1708   14.3710   23.8904 O   0  0  0  0  0  0  0  0  0  0  0  0
   10.0631   13.4676   21.8092 N   0  0  0  0  0  0  0  0  0  0  0  0
   10.6253   14.5171   21.0437 C   0  0  0  0  0  0  0  0  0  0  0  0
   12.0817   14.2820   21.2334 C   0  0  0  0  0  0  0  0  0  0  0  0
   12.9438   15.3505   21.7695 C   0  0  0  0  0  0  0  0  0  0  0  0
   12.6047   14.2066   22.6605 C   0  0  0  0  0  0  0  0  0  0  0  0
    8.2479   11.7762   24.6739 C   0  0  0  0  0  0  0  0  0  0  0  0
    7.4333   12.5286   25.5493 C   0  0  0  0  0  0  0  0  0  0  0  0
    6.5651   11.8684   26.4125 C   0  0  0  0  0  0  0  0  0  0  0  0
    5.5911   12.7730   27.5041 Cl  0  0  0  0  0  0  0  0  0  0  0  0
    6.4668   10.4863   26.3899 C   0  0  0  0  0  0  0  0  0  0  0  0
    7.2595    9.7352   25.5204 C   0  0  0  0  0  0  0  0  0  0  0  0
    8.1767   10.3856   24.6978 C   0  0  0  0  0  0  0  0  0  0  0  0
  1  2  1  0
  2  3  1  0
  3  4  2  0
  4  5  1  0
  5  6  2  0
  5  7  1  0
  7  8  1  0
  8  9  1  0
  9 10  1  0
 10 11  1  0
  4 12  1  0
 12 13  2  0
 13 14  1  0
 14 15  1  0
 14 16  2  0
 16 17  1  0
 17 18  2  0
 18  2  1  0
 11  9  1  0
 18 12  1  0
M  END
>  <alias>  (1192) 
None

>  <rmsd(smina/fragmenstein)>  (1192) 
0.365

>  <smiles>  (1192) 
Cn1cc(C(=O)NCC2CC2)c2cc(Cl)ccc21

>  <gnina_score>  (1192) 
5.345

>  <inspiration_score>  (1192) 
None

>  <energy_score>  (1192) 
-2.226375

>  <distance_score>  (1192) 
1.101661

>  <gnina_score_min>  (1192) 
5.369

>  <inchikey>  (1192) 
RRSJFSZHAKDJFR-UHFFFAOYSA-N

>  <exports>  (1192) 
['/opt/xchem-fragalysis-2/maxwin/BulkDock/OUTPUTS/openbind_a71ev2a_c2_elabs_1LOUU54.sdf', '/opt/xchem-fragalysis-2/maxwin/BulkDock/OUTPUTS/openbind_a71ev2a_c2_elabs_1LSYIDY.sdf']

>  <name>  (1192) 
P577049

>  <ref_pdb>  (1192) 
A3066a

>  <subsites>  (1192) 
None

>  <HIPPO Pose ID>  (1192) 
577049

>  <ref_mols>  (1192) 
A3066a

>  <HIPPO Compound ID>  (1192) 
350346

>  <tags>  (1192) 
openbind_a71ev2a_c2_elabs,syndirella_product,openbind_a71ev2a_c2_elabs_fragonly_scored_top80percent,openbind_a71ev2a_c2_elabs_scored,BulkDock Fragalysis export,openbind_a71ev2a_c2_elabs_scored_top80percent,openbind_a71ev2a_c2_elabs_activefrags_only_scored_5.2plus,syndirella_placed

>  <smina_score_min>  (1192) 
-6.509

$$$$
P577050
     RDKit          3D

 18 19  0  0  0  0  0  0  0  0999 V2000
    8.6457   17.2191   20.6622 C   0  0  0  0  0  0  0  0  0  0  0  0
    9.6874   16.1940   20.7039 C   0  0  0  0  0  0  0  0  0  0  0  0
   10.5689   15.4002   20.8926 C   0  0  0  0  0  0  0  0  0  0  0  0
   11.6558   14.5063   21.2991 C   0  0  0  0  0  0  0  0  0  0  0  0
   11.0601   13.4321   22.0178 N   0  0  0  0  0  0  0  0  0  0  0  0
   10.6033   13.3429   23.4779 C   0  0  0  0  0  0  0  0  0  0  0  0
   10.7099   14.1063   24.3501 O   0  0  0  0  0  0  0  0  0  0  0  0
    9.8408   12.1092   23.6962 C   0  0  0  0  0  0  0  0  0  0  0  0
   10.0349   10.8983   23.0664 C   0  0  0  0  0  0  0  0  0  0  0  0
    9.2417    9.9574   23.6553 N   0  0  0  0  0  0  0  0  0  0  0  0
    9.3229    8.5474   23.3546 C   0  0  0  0  0  0  0  0  0  0  0  0
    8.4018   10.5560   24.5653 C   0  0  0  0  0  0  0  0  0  0  0  0
    7.3766   10.0263   25.3612 C   0  0  0  0  0  0  0  0  0  0  0  0
    6.6798   10.8929   26.2034 C   0  0  0  0  0  0  0  0  0  0  0  0
    6.9975   12.2415   26.2388 C   0  0  0  0  0  0  0  0  0  0  0  0
    6.3205   13.0498   27.0655 F   0  0  0  0  0  0  0  0  0  0  0  0
    8.0196   12.7704   25.4540 C   0  0  0  0  0  0  0  0  0  0  0  0
    8.7477   11.9124   24.6031 C   0  0  0  0  0  0  0  0  0  0  0  0
  1  2  1  0
  2  3  3  0
  3  4  1  0
  4  5  1  0
  5  6  1  0
  6  7  2  0
  6  8  1  0
  8  9  2  0
  9 10  1  0
 10 11  1  0
 10 12  1  0
 12 13  2  0
 13 14  1  0
 14 15  2  0
 15 16  1  0
 15 17  1  0
 17 18  2  0
 18  8  1  0
 18 12  1  0
M  END
>  <alias>  (1193) 
None

>  <rmsd(smina/fragmenstein)>  (1193) 
0.294

>  <smiles>  (1193) 
CC#CCNC(=O)c1cn(C)c2ccc(F)cc12

>  <gnina_score>  (1193) 
5.43

>  <inspiration_score>  (1193) 
None

>  <energy_score>  (1193) 
-1.276367

>  <distance_score>  (1193) 
0.406944

>  <gnina_score_min>  (1193) 
5.467

>  <inchikey>  (1193) 
MQWCVWDMCSYINP-UHFFFAOYSA-N

>  <exports>  (1193) 
['/opt/xchem-fragalysis-2/maxwin/BulkDock/OUTPUTS/openbind_a71ev2a_c2_elabs_1LOUU54.sdf', '/opt/xchem-fragalysis-2/maxwin/BulkDock/OUTPUTS/openbind_a71ev2a_c2_elabs_1LSYIDY.sdf']

>  <name>  (1193) 
P577050

>  <ref_pdb>  (1193) 
A3066a

>  <subsites>  (1193) 
None

>  <HIPPO Pose ID>  (1193) 
577050

>  <ref_mols>  (1193) 
A3066a

>  <HIPPO Compound ID>  (1193) 
350348

>  <tags>  (1193) 
openbind_a71ev2a_c2_elabs,syndirella_product,openbind_a71ev2a_c2_elabs_fragonly_scored_top80percent,openbind_a71ev2a_c2_elabs_scored,BulkDock Fragalysis export,openbind_a71ev2a_c2_elabs_scored_top80percent,openbind_a71ev2a_c2_elabs_activefrags_only_scored_5.2plus,syndirella_placed

>  <smina_score_min>  (1193) 
-7.29

$$$$
P577052
     RDKit          3D

 18 19  0  0  0  0  0  0  0  0999 V2000
   10.1497   15.4896   19.6303 C   0  0  0  0  0  0  0  0  0  0  0  0
   10.5171   15.2469   20.8919 C   0  0  0  0  0  0  0  0  0  0  0  0
   11.6157   14.3128   21.2906 C   0  0  1  0  0  0  0  0  0  0  0  0
   12.6999   14.9591   22.1151 C   0  0  0  0  0  0  0  0  0  0  0  0
   10.9746   13.2812   22.0328 N   0  0  0  0  0  0  0  0  0  0  0  0
   10.4342   13.2744   23.4671 C   0  0  0  0  0  0  0  0  0  0  0  0
   10.4941   14.0854   24.3001 O   0  0  0  0  0  0  0  0  0  0  0  0
    9.7117   12.0329   23.7215 C   0  0  0  0  0  0  0  0  0  0  0  0
    9.9495   10.8124   23.1277 C   0  0  0  0  0  0  0  0  0  0  0  0
    9.1646    9.8733   23.7249 N   0  0  0  0  0  0  0  0  0  0  0  0
    9.2874    8.4645   23.4441 C   0  0  0  0  0  0  0  0  0  0  0  0
    8.3128   10.4732   24.6228 C   0  0  0  0  0  0  0  0  0  0  0  0
    7.2934    9.9472   25.4260 C   0  0  0  0  0  0  0  0  0  0  0  0
    6.5942   10.8144   26.2659 C   0  0  0  0  0  0  0  0  0  0  0  0
    6.8974   12.1656   26.2864 C   0  0  0  0  0  0  0  0  0  0  0  0
    6.2184   12.9760   27.1093 F   0  0  0  0  0  0  0  0  0  0  0  0
    7.9049   12.6956   25.4861 C   0  0  0  0  0  0  0  0  0  0  0  0
    8.6354   11.8345   24.6407 C   0  0  0  0  0  0  0  0  0  0  0  0
  1  2  2  0
  2  3  1  0
  3  4  1  1
  3  5  1  0
  5  6  1  0
  6  7  2  0
  6  8  1  0
  8  9  2  0
  9 10  1  0
 10 11  1  0
 10 12  1  0
 12 13  2  0
 13 14  1  0
 14 15  2  0
 15 16  1  0
 15 17  1  0
 17 18  2  0
 18  8  1  0
 18 12  1  0
M  END
>  <alias>  (1194) 
None

>  <rmsd(smina/fragmenstein)>  (1194) 
0.193

>  <smiles>  (1194) 
C=C[C@@H](C)NC(=O)c1cn(C)c2ccc(F)cc12

>  <gnina_score>  (1194) 
5.518

>  <inspiration_score>  (1194) 
None

>  <energy_score>  (1194) 
-5.452264

>  <distance_score>  (1194) 
0.497738

>  <gnina_score_min>  (1194) 
5.498

>  <inchikey>  (1194) 
CEHXOZQIGYSPFY-SECBINFHSA-N

>  <exports>  (1194) 
['/opt/xchem-fragalysis-2/maxwin/BulkDock/OUTPUTS/openbind_a71ev2a_c2_elabs_1LOUU54.sdf', '/opt/xchem-fragalysis-2/maxwin/BulkDock/OUTPUTS/openbind_a71ev2a_c2_elabs_1LSYIDY.sdf']

>  <name>  (1194) 
P577052

>  <ref_pdb>  (1194) 
A3066a

>  <subsites>  (1194) 
None

>  <HIPPO Pose ID>  (1194) 
577052

>  <ref_mols>  (1194) 
A3066a

>  <HIPPO Compound ID>  (1194) 
350349

>  <tags>  (1194) 
openbind_a71ev2a_c2_elabs,syndirella_product,openbind_a71ev2a_c2_elabs_fragonly_scored_top80percent,openbind_a71ev2a_c2_elabs_scored,BulkDock Fragalysis export,openbind_a71ev2a_c2_elabs_scored_top80percent,openbind_a71ev2a_c2_elabs_activefrags_only_scored_5.2plus,syndirella_placed

>  <smina_score_min>  (1194) 
-7.478

$$$$
P577053
     RDKit          3D

 18 19  0  0  0  0  0  0  0  0999 V2000
   11.4783   14.6019   19.2985 C   0  0  0  0  0  0  0  0  0  0  0  0
   11.0643   14.8914   20.5341 C   0  0  0  0  0  0  0  0  0  0  0  0
    9.5580   15.7086   20.7593 Cl  0  0  0  0  0  0  0  0  0  0  0  0
   11.8345   14.5509   21.7652 C   0  0  0  0  0  0  0  0  0  0  0  0
   11.1286   13.4776   22.3788 N   0  0  0  0  0  0  0  0  0  0  0  0
   10.5938   13.3256   23.8012 C   0  0  0  0  0  0  0  0  0  0  0  0
   10.7081   14.0185   24.7280 O   0  0  0  0  0  0  0  0  0  0  0  0
    9.7984   12.1010   23.8994 C   0  0  0  0  0  0  0  0  0  0  0  0
    9.9997   10.9276   23.2012 C   0  0  0  0  0  0  0  0  0  0  0  0
    9.1823    9.9640   23.7151 N   0  0  0  0  0  0  0  0  0  0  0  0
    9.2637    8.5714   23.3410 C   0  0  0  0  0  0  0  0  0  0  0  0
    8.3266   10.5206   24.6372 C   0  0  0  0  0  0  0  0  0  0  0  0
    7.2900    9.9583   25.3918 C   0  0  0  0  0  0  0  0  0  0  0  0
    6.5793   10.7855   26.2615 C   0  0  0  0  0  0  0  0  0  0  0  0
    6.8894   12.1324   26.3582 C   0  0  0  0  0  0  0  0  0  0  0  0
    6.1965   12.9024   27.2078 F   0  0  0  0  0  0  0  0  0  0  0  0
    7.9241   12.6948   25.6167 C   0  0  0  0  0  0  0  0  0  0  0  0
    8.6713   11.8722   24.7484 C   0  0  0  0  0  0  0  0  0  0  0  0
  1  2  2  0
  2  3  1  0
  2  4  1  0
  4  5  1  0
  5  6  1  0
  6  7  2  0
  6  8  1  0
  8  9  2  0
  9 10  1  0
 10 11  1  0
 10 12  1  0
 12 13  2  0
 13 14  1  0
 14 15  2  0
 15 16  1  0
 15 17  1  0
 17 18  2  0
 18  8  1  0
 18 12  1  0
M  END
>  <alias>  (1195) 
None

>  <rmsd(smina/fragmenstein)>  (1195) 
0.341

>  <smiles>  (1195) 
C=C(Cl)CNC(=O)c1cn(C)c2ccc(F)cc12

>  <gnina_score>  (1195) 
5.476

>  <inspiration_score>  (1195) 
None

>  <energy_score>  (1195) 
-2.650873

>  <distance_score>  (1195) 
0.375578

>  <gnina_score_min>  (1195) 
5.512

>  <inchikey>  (1195) 
VOFYJOFGDPTNNR-UHFFFAOYSA-N

>  <exports>  (1195) 
['/opt/xchem-fragalysis-2/maxwin/BulkDock/OUTPUTS/openbind_a71ev2a_c2_elabs_1LOUU54.sdf', '/opt/xchem-fragalysis-2/maxwin/BulkDock/OUTPUTS/openbind_a71ev2a_c2_elabs_1LSYIDY.sdf']

>  <name>  (1195) 
P577053

>  <ref_pdb>  (1195) 
A3066a

>  <subsites>  (1195) 
None

>  <HIPPO Pose ID>  (1195) 
577053

>  <ref_mols>  (1195) 
A3066a

>  <HIPPO Compound ID>  (1195) 
350350

>  <tags>  (1195) 
openbind_a71ev2a_c2_elabs,syndirella_product,openbind_a71ev2a_c2_elabs_fragonly_scored_top80percent,BulkDock Fragalysis export,openbind_a71ev2a_c2_elabs_scored,openbind_a71ev2a_c2_elabs_scored_top80percent,openbind_a71ev2a_c2_elabs_activefrags_only_scored_5.2plus,openbind_a71ev2a_c2_elabs_activefrags_only_scored_5.5plus,syndirella_placed

>  <smina_score_min>  (1195) 
-7.008

$$$$
P577055
     RDKit          3D

 18 19  0  0  0  0  0  0  0  0999 V2000
   12.6042   14.9396   22.0633 C   0  0  0  0  0  0  0  0  0  0  0  0
   11.3862   14.4667   21.2952 C   0  0  2  0  0  0  0  0  0  0  0  0
   10.3400   15.5700   21.1168 C   0  0  0  0  0  0  0  0  0  0  0  0
    9.7564   15.6464   19.4482 Cl  0  0  0  0  0  0  0  0  0  0  0  0
   10.8032   13.3804   22.0263 N   0  0  0  0  0  0  0  0  0  0  0  0
   10.3277   13.3006   23.4807 C   0  0  0  0  0  0  0  0  0  0  0  0
   10.4022   14.0786   24.3424 O   0  0  0  0  0  0  0  0  0  0  0  0
    9.6577   12.0332   23.7238 C   0  0  0  0  0  0  0  0  0  0  0  0
    9.9320   10.8251   23.1226 C   0  0  0  0  0  0  0  0  0  0  0  0
    9.1681    9.8623   23.7121 N   0  0  0  0  0  0  0  0  0  0  0  0
    9.3161    8.4583   23.4156 C   0  0  0  0  0  0  0  0  0  0  0  0
    8.3045   10.4354   24.6171 C   0  0  0  0  0  0  0  0  0  0  0  0
    7.2965    9.8831   25.4153 C   0  0  0  0  0  0  0  0  0  0  0  0
    6.5797   10.7252   26.2657 C   0  0  0  0  0  0  0  0  0  0  0  0
    6.8554   12.0814   26.3016 C   0  0  0  0  0  0  0  0  0  0  0  0
    6.1608   12.8688   27.1335 F   0  0  0  0  0  0  0  0  0  0  0  0
    7.8494   12.6396   25.5048 C   0  0  0  0  0  0  0  0  0  0  0  0
    8.5948   11.8018   24.6486 C   0  0  0  0  0  0  0  0  0  0  0  0
  2  1  1  1
  2  3  1  0
  3  4  1  0
  2  5  1  0
  5  6  1  0
  6  7  2  0
  6  8  1  0
  8  9  2  0
  9 10  1  0
 10 11  1  0
 10 12  1  0
 12 13  2  0
 13 14  1  0
 14 15  2  0
 15 16  1  0
 15 17  1  0
 17 18  2  0
 18  8  1  0
 18 12  1  0
M  END
>  <alias>  (1196) 
None

>  <rmsd(smina/fragmenstein)>  (1196) 
0.196

>  <smiles>  (1196) 
C[C@H](CCl)NC(=O)c1cn(C)c2ccc(F)cc12

>  <gnina_score>  (1196) 
5.527

>  <inspiration_score>  (1196) 
None

>  <energy_score>  (1196) 
-6.538265

>  <distance_score>  (1196) 
0.558077

>  <gnina_score_min>  (1196) 
5.511

>  <inchikey>  (1196) 
JUOOMUBDONZDLL-MRVPVSSYSA-N

>  <exports>  (1196) 
['/opt/xchem-fragalysis-2/maxwin/BulkDock/OUTPUTS/openbind_a71ev2a_c2_elabs_1LOUU54.sdf', '/opt/xchem-fragalysis-2/maxwin/BulkDock/OUTPUTS/openbind_a71ev2a_c2_elabs_1LSYIDY.sdf']

>  <name>  (1196) 
P577055

>  <ref_pdb>  (1196) 
A3066a

>  <subsites>  (1196) 
None

>  <HIPPO Pose ID>  (1196) 
577055

>  <ref_mols>  (1196) 
A3066a

>  <HIPPO Compound ID>  (1196) 
350352

>  <tags>  (1196) 
openbind_a71ev2a_c2_elabs,syndirella_product,openbind_a71ev2a_c2_elabs_fragonly_scored_top80percent,BulkDock Fragalysis export,openbind_a71ev2a_c2_elabs_scored,openbind_a71ev2a_c2_elabs_scored_top80percent,openbind_a71ev2a_c2_elabs_activefrags_only_scored_5.2plus,openbind_a71ev2a_c2_elabs_activefrags_only_scored_5.5plus,syndirella_placed

>  <smina_score_min>  (1196) 
-7.055

$$$$
P577056
     RDKit          3D

 18 19  0  0  0  0  0  0  0  0999 V2000
    9.3071    8.5761   23.3560 C   0  0  0  0  0  0  0  0  0  0  0  0
    9.1345    9.9415   23.7962 N   0  0  0  0  0  0  0  0  0  0  0  0
    9.8699   10.9850   23.3159 C   0  0  0  0  0  0  0  0  0  0  0  0
    9.5058   12.1158   24.0147 C   0  0  0  0  0  0  0  0  0  0  0  0
   10.0479   13.4348   23.8257 C   0  0  0  0  0  0  0  0  0  0  0  0
   10.4251   14.0801   24.7154 O   0  0  0  0  0  0  0  0  0  0  0  0
    9.9279   13.7683   22.3423 N   0  0  0  0  0  0  0  0  0  0  0  0
   10.3285   14.9206   21.6221 C   0  0  0  0  0  0  0  0  0  0  0  0
   11.8332   15.0503   21.7030 C   0  0  0  0  0  0  0  0  0  0  0  0
   12.5496   14.2305   20.6472 C   0  0  0  0  0  0  0  0  0  0  0  0
   11.8496   14.4214   19.0187 Cl  0  0  0  0  0  0  0  0  0  0  0  0
    8.4530   11.7701   24.8903 C   0  0  0  0  0  0  0  0  0  0  0  0
    7.6503   12.5127   25.7787 C   0  0  0  0  0  0  0  0  0  0  0  0
    6.6638   11.8528   26.4989 C   0  0  0  0  0  0  0  0  0  0  0  0
    5.9079   12.5414   27.3639 F   0  0  0  0  0  0  0  0  0  0  0  0
    6.4549   10.4928   26.3493 C   0  0  0  0  0  0  0  0  0  0  0  0
    7.2290    9.7542   25.4532 C   0  0  0  0  0  0  0  0  0  0  0  0
    8.2307   10.4029   24.7308 C   0  0  0  0  0  0  0  0  0  0  0  0
  1  2  1  0
  2  3  1  0
  3  4  2  0
  4  5  1  0
  5  6  2  0
  5  7  1  0
  7  8  1  0
  8  9  1  0
  9 10  1  0
 10 11  1  0
  4 12  1  0
 12 13  2  0
 13 14  1  0
 14 15  1  0
 14 16  2  0
 16 17  1  0
 17 18  2  0
 18  2  1  0
 18 12  1  0
M  END
>  <alias>  (1197) 
None

>  <rmsd(smina/fragmenstein)>  (1197) 
0.236

>  <smiles>  (1197) 
Cn1cc(C(=O)NCCCCl)c2cc(F)ccc21

>  <gnina_score>  (1197) 
5.243

>  <inspiration_score>  (1197) 
None

>  <energy_score>  (1197) 
-4.108619

>  <distance_score>  (1197) 
0.904247

>  <gnina_score_min>  (1197) 
5.256

>  <inchikey>  (1197) 
NIYNROOCAULGHY-UHFFFAOYSA-N

>  <exports>  (1197) 
['/opt/xchem-fragalysis-2/maxwin/BulkDock/OUTPUTS/openbind_a71ev2a_c2_elabs_1LOUU54.sdf', '/opt/xchem-fragalysis-2/maxwin/BulkDock/OUTPUTS/openbind_a71ev2a_c2_elabs_1LSYIDY.sdf']

>  <name>  (1197) 
P577056

>  <ref_pdb>  (1197) 
A3066a

>  <subsites>  (1197) 
None

>  <HIPPO Pose ID>  (1197) 
577056

>  <ref_mols>  (1197) 
A3066a

>  <HIPPO Compound ID>  (1197) 
350353

>  <tags>  (1197) 
openbind_a71ev2a_c2_elabs,syndirella_product,openbind_a71ev2a_c2_elabs_fragonly_scored_top80percent,openbind_a71ev2a_c2_elabs_scored,BulkDock Fragalysis export,openbind_a71ev2a_c2_elabs_scored_top80percent,openbind_a71ev2a_c2_elabs_activefrags_only_scored_5.2plus,syndirella_placed

>  <smina_score_min>  (1197) 
-6.011

$$$$
P577058
     RDKit          3D

 18 19  0  0  0  0  0  0  0  0999 V2000
   12.4257   14.3203   20.8603 C   0  0  0  0  0  0  0  0  0  0  0  0
   11.1837   14.8315   21.5660 C   0  0  1  0  0  0  0  0  0  0  0  0
   10.2369   15.4954   20.6508 C   0  0  0  0  0  0  0  0  0  0  0  0
    9.4707   15.9971   19.9357 N   0  0  0  0  0  0  0  0  0  0  0  0
   10.5324   13.7390   22.2281 N   0  0  0  0  0  0  0  0  0  0  0  0
   10.4077   13.4119   23.7117 C   0  0  0  0  0  0  0  0  0  0  0  0
   10.7454   14.0125   24.6463 O   0  0  0  0  0  0  0  0  0  0  0  0
    9.7005   12.1517   23.8608 C   0  0  0  0  0  0  0  0  0  0  0  0
    9.9670   10.9878   23.1705 C   0  0  0  0  0  0  0  0  0  0  0  0
    9.1977    9.9911   23.6972 N   0  0  0  0  0  0  0  0  0  0  0  0
    9.3209    8.6002   23.3287 C   0  0  0  0  0  0  0  0  0  0  0  0
    8.3271   10.5142   24.6272 C   0  0  0  0  0  0  0  0  0  0  0  0
    7.3136    9.9161   25.3821 C   0  0  0  0  0  0  0  0  0  0  0  0
    6.5801   10.7125   26.2633 C   0  0  0  0  0  0  0  0  0  0  0  0
    6.8477   12.0705   26.3798 C   0  0  0  0  0  0  0  0  0  0  0  0
    5.9371   13.0204   27.4887 Cl  0  0  0  0  0  0  0  0  0  0  0  0
    7.8601   12.6682   25.6295 C   0  0  0  0  0  0  0  0  0  0  0  0
    8.6185   11.8753   24.7430 C   0  0  0  0  0  0  0  0  0  0  0  0
  2  1  1  6
  2  3  1  0
  3  4  3  0
  2  5  1  0
  5  6  1  0
  6  7  2  0
  6  8  1  0
  8  9  2  0
  9 10  1  0
 10 11  1  0
 10 12  1  0
 12 13  2  0
 13 14  1  0
 14 15  2  0
 15 16  1  0
 15 17  1  0
 17 18  2  0
 18  8  1  0
 18 12  1  0
M  END
>  <alias>  (1198) 
None

>  <rmsd(smina/fragmenstein)>  (1198) 
0.271

>  <smiles>  (1198) 
C[C@@H](C#N)NC(=O)c1cn(C)c2ccc(Cl)cc12

>  <gnina_score>  (1198) 
5.657

>  <inspiration_score>  (1198) 
None

>  <energy_score>  (1198) 
-29.581627

>  <distance_score>  (1198) 
0.567304

>  <gnina_score_min>  (1198) 
5.719

>  <inchikey>  (1198) 
GQADWRAERNIXQM-QMMMGPOBSA-N

>  <exports>  (1198) 
['/opt/xchem-fragalysis-2/maxwin/BulkDock/OUTPUTS/openbind_a71ev2a_c2_elabs_1LOUU54.sdf', '/opt/xchem-fragalysis-2/maxwin/BulkDock/OUTPUTS/openbind_a71ev2a_c2_elabs_1LSYIDY.sdf']

>  <name>  (1198) 
P577058

>  <ref_pdb>  (1198) 
A3066a

>  <subsites>  (1198) 
None

>  <HIPPO Pose ID>  (1198) 
577058

>  <ref_mols>  (1198) 
A3066a

>  <HIPPO Compound ID>  (1198) 
350360

>  <tags>  (1198) 
openbind_a71ev2a_c2_elabs,syndirella_product,openbind_a71ev2a_c2_elabs_fragonly_scored_top80percent,BulkDock Fragalysis export,openbind_a71ev2a_c2_elabs_scored,openbind_a71ev2a_c2_elabs_scored_top80percent,openbind_a71ev2a_c2_elabs_activefrags_only_scored_5.2plus,openbind_a71ev2a_c2_elabs_activefrags_only_scored_5.5plus,syndirella_placed

>  <smina_score_min>  (1198) 
-7.39

$$$$
P577059
     RDKit          3D

 18 19  0  0  0  0  0  0  0  0999 V2000
    9.5903   16.0215   20.5102 C   0  0  0  0  0  0  0  0  0  0  0  0
   10.4884   15.2833   20.8141 C   0  0  0  0  0  0  0  0  0  0  0  0
   11.5467   14.3503   21.2253 C   0  0  1  0  0  0  0  0  0  0  0  0
   12.6403   14.9941   22.0405 C   0  0  0  0  0  0  0  0  0  0  0  0
   10.9304   13.3105   21.9793 N   0  0  0  0  0  0  0  0  0  0  0  0
   10.4239   13.2948   23.4252 C   0  0  0  0  0  0  0  0  0  0  0  0
   10.4970   14.1031   24.2592 O   0  0  0  0  0  0  0  0  0  0  0  0
    9.7145   12.0476   23.6928 C   0  0  0  0  0  0  0  0  0  0  0  0
    9.9588   10.8254   23.1051 C   0  0  0  0  0  0  0  0  0  0  0  0
    9.1822    9.8832   23.7094 N   0  0  0  0  0  0  0  0  0  0  0  0
    9.3079    8.4734   23.4322 C   0  0  0  0  0  0  0  0  0  0  0  0
    8.3301   10.4817   24.6082 C   0  0  0  0  0  0  0  0  0  0  0  0
    7.3156    9.9522   25.4156 C   0  0  0  0  0  0  0  0  0  0  0  0
    6.6131   10.8183   26.2537 C   0  0  0  0  0  0  0  0  0  0  0  0
    6.9089   12.1714   26.2690 C   0  0  0  0  0  0  0  0  0  0  0  0
    6.2272   12.9797   27.0917 F   0  0  0  0  0  0  0  0  0  0  0  0
    7.9109   12.7050   25.4637 C   0  0  0  0  0  0  0  0  0  0  0  0
    8.6445   11.8451   24.6195 C   0  0  0  0  0  0  0  0  0  0  0  0
  1  2  3  0
  2  3  1  0
  3  4  1  1
  3  5  1  0
  5  6  1  0
  6  7  2  0
  6  8  1  0
  8  9  2  0
  9 10  1  0
 10 11  1  0
 10 12  1  0
 12 13  2  0
 13 14  1  0
 14 15  2  0
 15 16  1  0
 15 17  1  0
 17 18  2  0
 18  8  1  0
 18 12  1  0
M  END
>  <alias>  (1199) 
None

>  <rmsd(smina/fragmenstein)>  (1199) 
0.171

>  <smiles>  (1199) 
C#C[C@@H](C)NC(=O)c1cn(C)c2ccc(F)cc12

>  <gnina_score>  (1199) 
5.531

>  <inspiration_score>  (1199) 
None

>  <energy_score>  (1199) 
-13.788311

>  <distance_score>  (1199) 
0.512518

>  <gnina_score_min>  (1199) 
5.483

>  <inchikey>  (1199) 
XKAIJYMERJFEOD-SECBINFHSA-N

>  <exports>  (1199) 
['/opt/xchem-fragalysis-2/maxwin/BulkDock/OUTPUTS/openbind_a71ev2a_c2_elabs_1LOUU54.sdf', '/opt/xchem-fragalysis-2/maxwin/BulkDock/OUTPUTS/openbind_a71ev2a_c2_elabs_1LSYIDY.sdf']

>  <name>  (1199) 
P577059

>  <ref_pdb>  (1199) 
A3066a

>  <subsites>  (1199) 
None

>  <HIPPO Pose ID>  (1199) 
577059

>  <ref_mols>  (1199) 
A3066a

>  <HIPPO Compound ID>  (1199) 
350362

>  <tags>  (1199) 
openbind_a71ev2a_c2_elabs,syndirella_product,openbind_a71ev2a_c2_elabs_fragonly_scored_top80percent,openbind_a71ev2a_c2_elabs_scored,BulkDock Fragalysis export,openbind_a71ev2a_c2_elabs_scored_top80percent,openbind_a71ev2a_c2_elabs_activefrags_only_scored_5.2plus,syndirella_placed

>  <smina_score_min>  (1199) 
-7.469

$$$$
P577060
     RDKit          3D

 18 19  0  0  0  0  0  0  0  0999 V2000
   10.3275   15.0939   21.1487 C   0  0  0  0  0  0  0  0  0  0  0  0
   11.8186   15.0143   21.4576 C   0  0  2  0  0  0  0  0  0  0  0  0
   12.5947   14.1034   20.1531 Cl  0  0  0  0  0  0  0  0  0  0  0  0
   12.2004   14.4272   22.7962 C   0  0  0  0  0  0  0  0  0  0  0  0
   11.3403   13.3715   23.1702 N   0  0  0  0  0  0  0  0  0  0  0  0
   10.3610   13.2576   24.3261 C   0  0  0  0  0  0  0  0  0  0  0  0
   10.1519   13.9801   25.2087 O   0  0  0  0  0  0  0  0  0  0  0  0
    9.5861   12.0325   24.2043 C   0  0  0  0  0  0  0  0  0  0  0  0
    9.8514   10.9286   23.4176 C   0  0  0  0  0  0  0  0  0  0  0  0
    9.0358    9.9139   23.8261 N   0  0  0  0  0  0  0  0  0  0  0  0
    9.1972    8.5509   23.3796 C   0  0  0  0  0  0  0  0  0  0  0  0
    8.1327   10.3850   24.7506 C   0  0  0  0  0  0  0  0  0  0  0  0
    7.1065    9.7551   25.4548 C   0  0  0  0  0  0  0  0  0  0  0  0
    6.3527   10.4959   26.3645 C   0  0  0  0  0  0  0  0  0  0  0  0
    6.5957   11.8454   26.5372 C   0  0  0  0  0  0  0  0  0  0  0  0
    5.8559   12.5394   27.4120 F   0  0  0  0  0  0  0  0  0  0  0  0
    7.6156   12.4827   25.8457 C   0  0  0  0  0  0  0  0  0  0  0  0
    8.4148   11.7343   24.9546 C   0  0  0  0  0  0  0  0  0  0  0  0
  2  1  1  6
  2  3  1  0
  2  4  1  0
  4  5  1  0
  5  6  1  0
  6  7  2  0
  6  8  1  0
  8  9  2  0
  9 10  1  0
 10 11  1  0
 10 12  1  0
 12 13  2  0
 13 14  1  0
 14 15  2  0
 15 16  1  0
 15 17  1  0
 17 18  2  0
 18  8  1  0
 18 12  1  0
M  END
>  <alias>  (1200) 
None

>  <rmsd(smina/fragmenstein)>  (1200) 
0.801

>  <smiles>  (1200) 
C[C@H](Cl)CNC(=O)c1cn(C)c2ccc(F)cc12

>  <gnina_score>  (1200) 
5.387

>  <inspiration_score>  (1200) 
None

>  <energy_score>  (1200) 
-14.765839

>  <distance_score>  (1200) 
0.716624

>  <gnina_score_min>  (1200) 
5.48

>  <inchikey>  (1200) 
HLIXEILLATWWMC-QMMMGPOBSA-N

>  <exports>  (1200) 
['/opt/xchem-fragalysis-2/maxwin/BulkDock/OUTPUTS/openbind_a71ev2a_c2_elabs_1LOUU54.sdf', '/opt/xchem-fragalysis-2/maxwin/BulkDock/OUTPUTS/openbind_a71ev2a_c2_elabs_1LSYIDY.sdf']

>  <name>  (1200) 
P577060

>  <ref_pdb>  (1200) 
A3066a

>  <subsites>  (1200) 
None

>  <HIPPO Pose ID>  (1200) 
577060

>  <ref_mols>  (1200) 
A3066a

>  <HIPPO Compound ID>  (1200) 
350365

>  <tags>  (1200) 
openbind_a71ev2a_c2_elabs,syndirella_product,openbind_a71ev2a_c2_elabs_fragonly_scored_top80percent,openbind_a71ev2a_c2_elabs_scored,BulkDock Fragalysis export,openbind_a71ev2a_c2_elabs_scored_top80percent,openbind_a71ev2a_c2_elabs_activefrags_only_scored_5.2plus,syndirella_placed

>  <smina_score_min>  (1200) 
-7.012

$$$$
P577061
     RDKit          3D

 18 19  0  0  0  0  0  0  0  0999 V2000
    9.3075    8.5396   23.4858 C   0  0  0  0  0  0  0  0  0  0  0  0
    9.0708    9.9314   23.7840 N   0  0  0  0  0  0  0  0  0  0  0  0
    9.7717   10.9384   23.1847 C   0  0  0  0  0  0  0  0  0  0  0  0
    9.3810   12.1316   23.7503 C   0  0  0  0  0  0  0  0  0  0  0  0
    9.9021   13.4586   23.4806 C   0  0  0  0  0  0  0  0  0  0  0  0
    9.8953   14.2424   24.3364 O   0  0  0  0  0  0  0  0  0  0  0  0
   10.3352   13.5872   22.0271 N   0  0  0  0  0  0  0  0  0  0  0  0
   10.9462   14.6852   21.3270 C   0  0  0  0  0  0  0  0  0  0  0  0
   12.4703   14.5473   21.3885 C   0  0  0  0  0  0  0  0  0  0  0  0
   12.9861   14.7348   22.5314 O   0  0  0  0  0  0  0  0  0  0  0  0
   13.0083   14.1920   20.3043 O   0  0  0  0  0  0  0  0  0  0  0  0
    8.3805   11.8337   24.7157 C   0  0  0  0  0  0  0  0  0  0  0  0
    7.6203   12.6389   25.5917 C   0  0  0  0  0  0  0  0  0  0  0  0
    6.7232   12.0496   26.4768 C   0  0  0  0  0  0  0  0  0  0  0  0
    6.5597   10.6736   26.4689 C   0  0  0  0  0  0  0  0  0  0  0  0
    5.4484    9.8894   27.7902 Br  0  0  0  0  0  0  0  0  0  0  0  0
    7.2508    9.8589   25.5624 C   0  0  0  0  0  0  0  0  0  0  0  0
    8.1896   10.4528   24.7091 C   0  0  0  0  0  0  0  0  0  0  0  0
  1  2  1  0
  2  3  1  0
  3  4  2  0
  4  5  1  0
  5  6  2  0
  5  7  1  0
  7  8  1  0
  8  9  1  0
  9 10  2  0
  9 11  1  0
  4 12  1  0
 12 13  2  0
 13 14  1  0
 14 15  2  0
 15 16  1  0
 15 17  1  0
 17 18  2  0
 18  2  1  0
 18 12  1  0
M  CHG  1  11  -1
M  END
>  <alias>  (1201) 
None

>  <rmsd(smina/fragmenstein)>  (1201) 
0.42

>  <smiles>  (1201) 
Cn1cc(C(=O)NCC(=O)[O-])c2ccc(Br)cc21

>  <gnina_score>  (1201) 
5.321

>  <inspiration_score>  (1201) 
None

>  <energy_score>  (1201) 
-25.092831

>  <distance_score>  (1201) 
0.823221

>  <gnina_score_min>  (1201) 
5.359

>  <inchikey>  (1201) 
XKVQHKKBMFTQLO-UHFFFAOYSA-M

>  <exports>  (1201) 
['/opt/xchem-fragalysis-2/maxwin/BulkDock/OUTPUTS/openbind_a71ev2a_c2_elabs_1LOUU54.sdf', '/opt/xchem-fragalysis-2/maxwin/BulkDock/OUTPUTS/openbind_a71ev2a_c2_elabs_1LSYIDY.sdf']

>  <name>  (1201) 
P577061

>  <ref_pdb>  (1201) 
A3066a

>  <subsites>  (1201) 
None

>  <HIPPO Pose ID>  (1201) 
577061

>  <ref_mols>  (1201) 
A3066a

>  <HIPPO Compound ID>  (1201) 
350367

>  <tags>  (1201) 
openbind_a71ev2a_c2_elabs,syndirella_product,openbind_a71ev2a_c2_elabs_fragonly_scored_top80percent,openbind_a71ev2a_c2_elabs_scored,BulkDock Fragalysis export,openbind_a71ev2a_c2_elabs_scored_top80percent,openbind_a71ev2a_c2_elabs_activefrags_only_scored_5.2plus,syndirella_placed

>  <smina_score_min>  (1201) 
-7.046

$$$$
P577063
     RDKit          3D

 18 19  0  0  0  0  0  0  0  0999 V2000
   10.3996   15.0349   19.6838 C   0  0  0  0  0  0  0  0  0  0  0  0
   10.3834   15.5779   21.0928 C   0  0  0  0  0  0  0  0  0  0  0  0
   11.3951   14.9012   22.0210 C   0  0  2  0  0  0  0  0  0  0  0  0
   12.7510   14.5516   21.4553 C   0  0  0  0  0  0  0  0  0  0  0  0
   10.7961   13.7268   22.5740 N   0  0  0  0  0  0  0  0  0  0  0  0
   10.3928   13.4007   24.0093 C   0  0  0  0  0  0  0  0  0  0  0  0
   10.5505   14.0017   24.9921 O   0  0  0  0  0  0  0  0  0  0  0  0
    9.6741   12.1387   24.0316 C   0  0  0  0  0  0  0  0  0  0  0  0
    9.9522   11.0148   23.2811 C   0  0  0  0  0  0  0  0  0  0  0  0
    9.1606    9.9957   23.7269 N   0  0  0  0  0  0  0  0  0  0  0  0
    9.2814    8.6309   23.2689 C   0  0  0  0  0  0  0  0  0  0  0  0
    8.2757   10.4705   24.6694 C   0  0  0  0  0  0  0  0  0  0  0  0
    7.2566    9.8376   25.3867 C   0  0  0  0  0  0  0  0  0  0  0  0
    6.5035   10.5904   26.2883 C   0  0  0  0  0  0  0  0  0  0  0  0
    6.7544   11.9416   26.4530 C   0  0  0  0  0  0  0  0  0  0  0  0
    6.0227   12.6432   27.3288 F   0  0  0  0  0  0  0  0  0  0  0  0
    7.7706   12.5777   25.7500 C   0  0  0  0  0  0  0  0  0  0  0  0
    8.5563   11.8255   24.8528 C   0  0  0  0  0  0  0  0  0  0  0  0
  1  2  1  0
  2  3  1  0
  3  4  1  6
  3  5  1  0
  5  6  1  0
  6  7  2  0
  6  8  1  0
  8  9  2  0
  9 10  1  0
 10 11  1  0
 10 12  1  0
 12 13  2  0
 13 14  1  0
 14 15  2  0
 15 16  1  0
 15 17  1  0
 17 18  2  0
 18  8  1  0
 18 12  1  0
M  END
>  <alias>  (1202) 
None

>  <rmsd(smina/fragmenstein)>  (1202) 
0.349

>  <smiles>  (1202) 
CC[C@H](C)NC(=O)c1cn(C)c2ccc(F)cc12

>  <gnina_score>  (1202) 
5.46

>  <inspiration_score>  (1202) 
None

>  <energy_score>  (1202) 
-1.948851

>  <distance_score>  (1202) 
0.578568

>  <gnina_score_min>  (1202) 
5.448

>  <inchikey>  (1202) 
VVQKNPCUNCBYQZ-VIFPVBQESA-N

>  <exports>  (1202) 
['/opt/xchem-fragalysis-2/maxwin/BulkDock/OUTPUTS/openbind_a71ev2a_c2_elabs_1LOUU54.sdf', '/opt/xchem-fragalysis-2/maxwin/BulkDock/OUTPUTS/openbind_a71ev2a_c2_elabs_1LSYIDY.sdf']

>  <name>  (1202) 
P577063

>  <ref_pdb>  (1202) 
A3066a

>  <subsites>  (1202) 
None

>  <HIPPO Pose ID>  (1202) 
577063

>  <ref_mols>  (1202) 
A3066a

>  <HIPPO Compound ID>  (1202) 
350370

>  <tags>  (1202) 
openbind_a71ev2a_c2_elabs,syndirella_product,openbind_a71ev2a_c2_elabs_fragonly_scored_top80percent,openbind_a71ev2a_c2_elabs_scored,BulkDock Fragalysis export,openbind_a71ev2a_c2_elabs_scored_top80percent,openbind_a71ev2a_c2_elabs_activefrags_only_scored_5.2plus,syndirella_placed

>  <smina_score_min>  (1202) 
-7.129

$$$$
P577064
     RDKit          3D

 18 19  0  0  0  0  0  0  0  0999 V2000
   12.6887   14.3613   21.2767 C   0  0  0  0  0  0  0  0  0  0  0  0
   11.2275   14.7244   21.4393 C   0  0  1  0  0  0  0  0  0  0  0  0
   10.5195   14.9758   20.1056 C   0  0  0  0  0  0  0  0  0  0  0  0
    8.8563   15.6962   20.3518 S   0  0  0  0  0  0  0  0  0  0  0  0
   10.5751   13.6527   22.1428 N   0  0  0  0  0  0  0  0  0  0  0  0
   10.3967   13.4119   23.6393 C   0  0  0  0  0  0  0  0  0  0  0  0
   10.6800   14.0774   24.5487 O   0  0  0  0  0  0  0  0  0  0  0  0
    9.6807   12.1595   23.8333 C   0  0  0  0  0  0  0  0  0  0  0  0
    9.9241   10.9680   23.1829 C   0  0  0  0  0  0  0  0  0  0  0  0
    9.1444    9.9998   23.7493 N   0  0  0  0  0  0  0  0  0  0  0  0
    9.2655    8.5970   23.4270 C   0  0  0  0  0  0  0  0  0  0  0  0
    8.3017   10.5620   24.6844 C   0  0  0  0  0  0  0  0  0  0  0  0
    7.3197   10.0022   25.5141 C   0  0  0  0  0  0  0  0  0  0  0  0
    6.6740   10.8424   26.4282 C   0  0  0  0  0  0  0  0  0  0  0  0
    5.5315   10.0919   27.7416 Br  0  0  0  0  0  0  0  0  0  0  0  0
    6.9242   12.2077   26.4626 C   0  0  0  0  0  0  0  0  0  0  0  0
    7.8848   12.7602   25.6152 C   0  0  0  0  0  0  0  0  0  0  0  0
    8.6094   11.9244   24.7402 C   0  0  0  0  0  0  0  0  0  0  0  0
  2  1  1  6
  2  3  1  0
  3  4  1  0
  2  5  1  0
  5  6  1  0
  6  7  2  0
  6  8  1  0
  8  9  2  0
  9 10  1  0
 10 11  1  0
 10 12  1  0
 12 13  2  0
 13 14  1  0
 14 15  1  0
 14 16  2  0
 16 17  1  0
 17 18  2  0
 18  8  1  0
 18 12  1  0
M  END
>  <alias>  (1203) 
None

>  <rmsd(smina/fragmenstein)>  (1203) 
0.339

>  <smiles>  (1203) 
C[C@@H](CS)NC(=O)c1cn(C)c2cc(Br)ccc12

>  <gnina_score>  (1203) 
5.866

>  <inspiration_score>  (1203) 
None

>  <energy_score>  (1203) 
-11.078368

>  <distance_score>  (1203) 
0.580361

>  <gnina_score_min>  (1203) 
5.931

>  <inchikey>  (1203) 
YZRNFTFYHBIBRX-QMMMGPOBSA-N

>  <exports>  (1203) 
['/opt/xchem-fragalysis-2/maxwin/BulkDock/OUTPUTS/openbind_a71ev2a_c2_elabs_1LOUU54.sdf', '/opt/xchem-fragalysis-2/maxwin/BulkDock/OUTPUTS/openbind_a71ev2a_c2_elabs_1LSYIDY.sdf']

>  <name>  (1203) 
P577064

>  <ref_pdb>  (1203) 
A3066a

>  <subsites>  (1203) 
None

>  <HIPPO Pose ID>  (1203) 
577064

>  <ref_mols>  (1203) 
A3066a

>  <HIPPO Compound ID>  (1203) 
350372

>  <tags>  (1203) 
openbind_a71ev2a_c2_elabs,syndirella_product,openbind_a71ev2a_c2_elabs_fragonly_scored_top80percent,BulkDock Fragalysis export,openbind_a71ev2a_c2_elabs_scored,openbind_a71ev2a_c2_elabs_scored_top80percent,openbind_a71ev2a_c2_elabs_activefrags_only_scored_5.2plus,openbind_a71ev2a_c2_elabs_activefrags_only_scored_5.5plus,syndirella_placed

>  <smina_score_min>  (1203) 
-7.272

$$$$
P577066
     RDKit          3D

 18 19  0  0  0  0  0  0  0  0999 V2000
    9.2336    8.5580   23.4458 C   0  0  0  0  0  0  0  0  0  0  0  0
    9.1864    9.9790   23.6955 N   0  0  0  0  0  0  0  0  0  0  0  0
   10.0054   10.8707   23.0660 C   0  0  0  0  0  0  0  0  0  0  0  0
    9.8645   12.1098   23.6564 C   0  0  0  0  0  0  0  0  0  0  0  0
   10.6864   13.3025   23.4060 C   0  0  0  0  0  0  0  0  0  0  0  0
   10.8330   14.0848   24.2563 O   0  0  0  0  0  0  0  0  0  0  0  0
   11.2157   13.2873   21.9672 N   0  0  0  0  0  0  0  0  0  0  0  0
   11.9522   14.2650   21.2426 C   0  0  0  0  0  0  0  0  0  0  0  0
   10.9844   14.9820   20.3639 C   0  0  0  0  0  0  0  0  0  0  0  0
    9.9411   15.6585   20.8495 C   0  0  0  0  0  0  0  0  0  0  0  0
    8.9922   16.7274   19.9312 Cl  0  0  0  0  0  0  0  0  0  0  0  0
    8.7798   11.9790   24.5858 C   0  0  0  0  0  0  0  0  0  0  0  0
    8.1028   12.8893   25.4258 C   0  0  0  0  0  0  0  0  0  0  0  0
    7.1234   12.4266   26.3099 C   0  0  0  0  0  0  0  0  0  0  0  0
    6.8067   11.0748   26.3522 C   0  0  0  0  0  0  0  0  0  0  0  0
    5.6534   10.4417   27.7167 Br  0  0  0  0  0  0  0  0  0  0  0  0
    7.3990   10.1595   25.4784 C   0  0  0  0  0  0  0  0  0  0  0  0
    8.3950   10.6327   24.6104 C   0  0  0  0  0  0  0  0  0  0  0  0
  1  2  1  0
  2  3  1  0
  3  4  2  0
  4  5  1  0
  5  6  2  0
  5  7  1  0
  7  8  1  0
  8  9  1  0
  9 10  2  0
 10 11  1  0
  4 12  1  0
 12 13  2  0
 13 14  1  0
 14 15  2  0
 15 16  1  0
 15 17  1  0
 17 18  2  0
 18  2  1  0
 18 12  1  0
M  END
>  <alias>  (1204) 
None

>  <rmsd(smina/fragmenstein)>  (1204) 
0.591

>  <smiles>  (1204) 
Cn1cc(C(=O)NC/C=C/Cl)c2ccc(Br)cc21

>  <gnina_score>  (1204) 
5.718

>  <inspiration_score>  (1204) 
None

>  <energy_score>  (1204) 
-0.809312

>  <distance_score>  (1204) 
0.41615

>  <gnina_score_min>  (1204) 
5.631

>  <inchikey>  (1204) 
OHEMZKNFEVMBRD-GORDUTHDSA-N

>  <exports>  (1204) 
['/opt/xchem-fragalysis-2/maxwin/BulkDock/OUTPUTS/openbind_a71ev2a_c2_elabs_1LOUU54.sdf', '/opt/xchem-fragalysis-2/maxwin/BulkDock/OUTPUTS/openbind_a71ev2a_c2_elabs_1LSYIDY.sdf']

>  <name>  (1204) 
P577066

>  <ref_pdb>  (1204) 
A3066a

>  <subsites>  (1204) 
None

>  <HIPPO Pose ID>  (1204) 
577066

>  <ref_mols>  (1204) 
A3066a

>  <HIPPO Compound ID>  (1204) 
350377

>  <tags>  (1204) 
openbind_a71ev2a_c2_elabs,syndirella_product,openbind_a71ev2a_c2_elabs_fragonly_scored_top80percent,BulkDock Fragalysis export,openbind_a71ev2a_c2_elabs_scored,openbind_a71ev2a_c2_elabs_scored_top80percent,openbind_a71ev2a_c2_elabs_activefrags_only_scored_5.2plus,openbind_a71ev2a_c2_elabs_activefrags_only_scored_5.5plus,syndirella_placed

>  <smina_score_min>  (1204) 
-7.278

$$$$
P577068
     RDKit          3D

 18 20  0  0  0  0  0  0  0  0999 V2000
    8.9114    8.3786   23.8054 C   0  0  0  0  0  0  0  0  0  0  0  0
    8.7138    9.7762   24.0459 N   0  0  0  0  0  0  0  0  0  0  0  0
    9.5413   10.6585   23.4526 C   0  0  0  0  0  0  0  0  0  0  0  0
    9.2877   11.9023   23.9840 C   0  0  0  0  0  0  0  0  0  0  0  0
   10.1544   13.0251   23.7664 C   0  0  0  0  0  0  0  0  0  0  0  0
   10.2692   13.8790   24.5466 O   0  0  0  0  0  0  0  0  0  0  0  0
   10.8882   12.7816   22.4477 N   0  0  0  0  0  0  0  0  0  0  0  0
   11.9670   13.4697   21.8599 C   0  0  0  0  0  0  0  0  0  0  0  0
   12.7215   14.3596   22.8565 C   0  0  0  0  0  0  0  0  0  0  0  0
   13.2660   15.2582   21.4219 S   0  0  0  0  0  0  0  0  0  0  0  0
   11.6276   14.6474   20.9428 C   0  0  0  0  0  0  0  0  0  0  0  0
    8.2236   11.7722   24.9019 C   0  0  0  0  0  0  0  0  0  0  0  0
    7.5719   12.6774   25.7625 C   0  0  0  0  0  0  0  0  0  0  0  0
    6.6432   12.1982   26.6841 C   0  0  0  0  0  0  0  0  0  0  0  0
    6.3428   10.8440   26.7200 C   0  0  0  0  0  0  0  0  0  0  0  0
    5.2326   10.1811   28.1070 Br  0  0  0  0  0  0  0  0  0  0  0  0
    6.9057    9.9440   25.8107 C   0  0  0  0  0  0  0  0  0  0  0  0
    7.8860   10.4162   24.9343 C   0  0  0  0  0  0  0  0  0  0  0  0
  1  2  1  0
  2  3  1  0
  3  4  2  0
  4  5  1  0
  5  6  2  0
  5  7  1  0
  7  8  1  0
  8  9  1  0
  9 10  1  0
 10 11  1  0
  4 12  1  0
 12 13  2  0
 13 14  1  0
 14 15  2  0
 15 16  1  0
 15 17  1  0
 17 18  2  0
 18  2  1  0
 11  8  1  0
 18 12  1  0
M  END
>  <alias>  (1205) 
None

>  <rmsd(smina/fragmenstein)>  (1205) 
0.278

>  <smiles>  (1205) 
Cn1cc(C(=O)NC2CSC2)c2ccc(Br)cc21

>  <gnina_score>  (1205) 
5.193

>  <inspiration_score>  (1205) 
None

>  <energy_score>  (1205) 
-9.408943

>  <distance_score>  (1205) 
0.866692

>  <gnina_score_min>  (1205) 
5.276

>  <inchikey>  (1205) 
JORARHITZNVRAY-UHFFFAOYSA-N

>  <exports>  (1205) 
['/opt/xchem-fragalysis-2/maxwin/BulkDock/OUTPUTS/openbind_a71ev2a_c2_elabs_1LOUU54.sdf', '/opt/xchem-fragalysis-2/maxwin/BulkDock/OUTPUTS/openbind_a71ev2a_c2_elabs_1LSYIDY.sdf']

>  <name>  (1205) 
P577068

>  <ref_pdb>  (1205) 
A3066a

>  <subsites>  (1205) 
None

>  <HIPPO Pose ID>  (1205) 
577068

>  <ref_mols>  (1205) 
A3066a

>  <HIPPO Compound ID>  (1205) 
350379

>  <tags>  (1205) 
openbind_a71ev2a_c2_elabs,syndirella_product,openbind_a71ev2a_c2_elabs_fragonly_scored_top80percent,openbind_a71ev2a_c2_elabs_scored,BulkDock Fragalysis export,openbind_a71ev2a_c2_elabs_scored_top80percent,openbind_a71ev2a_c2_elabs_activefrags_only_scored_5.2plus,syndirella_placed

>  <smina_score_min>  (1205) 
-5.243

$$$$
P577069
     RDKit          3D

 18 19  0  0  0  0  0  0  0  0999 V2000
   12.6990   14.6652   22.5556 C   0  0  0  0  0  0  0  0  0  0  0  0
   12.3614   14.4475   21.0980 C   0  0  0  0  0  0  0  0  0  0  0  0
   10.8781   14.3272   20.7960 C   0  0  2  0  0  0  0  0  0  0  0  0
   10.0215   15.5738   20.7603 C   0  0  0  0  0  0  0  0  0  0  0  0
   10.3575   13.3256   21.6725 N   0  0  0  0  0  0  0  0  0  0  0  0
    9.7283   13.4489   23.0583 C   0  0  0  0  0  0  0  0  0  0  0  0
    9.4603   14.3898   23.6816 O   0  0  0  0  0  0  0  0  0  0  0  0
    9.3524   12.1323   23.5659 C   0  0  0  0  0  0  0  0  0  0  0  0
    9.8034   10.8998   23.1408 C   0  0  0  0  0  0  0  0  0  0  0  0
    9.1143    9.9279   23.8086 N   0  0  0  0  0  0  0  0  0  0  0  0
    9.3328    8.5219   23.5668 C   0  0  0  0  0  0  0  0  0  0  0  0
    8.2417   10.5009   24.7055 C   0  0  0  0  0  0  0  0  0  0  0  0
    7.3117    9.9450   25.5939 C   0  0  0  0  0  0  0  0  0  0  0  0
    6.6197   10.7999   26.4576 C   0  0  0  0  0  0  0  0  0  0  0  0
    5.5280   10.0699   27.8241 Br  0  0  0  0  0  0  0  0  0  0  0  0
    6.7702   12.1755   26.3840 C   0  0  0  0  0  0  0  0  0  0  0  0
    7.6438   12.7261   25.4473 C   0  0  0  0  0  0  0  0  0  0  0  0
    8.4089   11.8838   24.6097 C   0  0  0  0  0  0  0  0  0  0  0  0
  1  2  1  0
  2  3  1  0
  3  4  1  1
  3  5  1  0
  5  6  1  0
  6  7  2  0
  6  8  1  0
  8  9  2  0
  9 10  1  0
 10 11  1  0
 10 12  1  0
 12 13  2  0
 13 14  1  0
 14 15  1  0
 14 16  2  0
 16 17  1  0
 17 18  2  0
 18  8  1  0
 18 12  1  0
M  END
>  <alias>  (1206) 
None

>  <rmsd(smina/fragmenstein)>  (1206) 
0.477

>  <smiles>  (1206) 
CC[C@H](C)NC(=O)c1cn(C)c2cc(Br)ccc12

>  <gnina_score>  (1206) 
5.61

>  <inspiration_score>  (1206) 
None

>  <energy_score>  (1206) 
-9.399293

>  <distance_score>  (1206) 
0.97851

>  <gnina_score_min>  (1206) 
5.658

>  <inchikey>  (1206) 
AVCFPRFJLFWXMA-VIFPVBQESA-N

>  <exports>  (1206) 
['/opt/xchem-fragalysis-2/maxwin/BulkDock/OUTPUTS/openbind_a71ev2a_c2_elabs_1LOUU54.sdf', '/opt/xchem-fragalysis-2/maxwin/BulkDock/OUTPUTS/openbind_a71ev2a_c2_elabs_1LSYIDY.sdf']

>  <name>  (1206) 
P577069

>  <ref_pdb>  (1206) 
A3066a

>  <subsites>  (1206) 
None

>  <HIPPO Pose ID>  (1206) 
577069

>  <ref_mols>  (1206) 
A3066a

>  <HIPPO Compound ID>  (1206) 
350381

>  <tags>  (1206) 
openbind_a71ev2a_c2_elabs,syndirella_product,openbind_a71ev2a_c2_elabs_fragonly_scored_top80percent,BulkDock Fragalysis export,openbind_a71ev2a_c2_elabs_scored,openbind_a71ev2a_c2_elabs_scored_top80percent,openbind_a71ev2a_c2_elabs_activefrags_only_scored_5.2plus,openbind_a71ev2a_c2_elabs_activefrags_only_scored_5.5plus,syndirella_placed

>  <smina_score_min>  (1206) 
-6.76

$$$$
P577070
     RDKit          3D

 18 20  0  0  0  0  0  0  0  0999 V2000
    9.1119    8.8777   23.5941 C   0  0  0  0  0  0  0  0  0  0  0  0
    9.1681   10.3115   23.7868 N   0  0  0  0  0  0  0  0  0  0  0  0
   10.0250   11.1047   23.0763 C   0  0  0  0  0  0  0  0  0  0  0  0
    9.9639   12.3895   23.5676 C   0  0  0  0  0  0  0  0  0  0  0  0
   10.7053   13.5246   23.0344 C   0  0  0  0  0  0  0  0  0  0  0  0
   11.3935   14.2040   23.7069 O   0  0  0  0  0  0  0  0  0  0  0  0
   10.3537   13.6365   21.5752 N   0  0  0  0  0  0  0  0  0  0  0  0
    9.0798   14.4979   21.3622 C   0  0  0  0  0  0  0  0  0  0  0  0
    9.9401   15.6609   21.0074 C   0  0  0  0  0  0  0  0  0  0  0  0
    9.2363   16.8979   19.9693 Cl  0  0  0  0  0  0  0  0  0  0  0  0
   10.8560   14.5963   20.5011 C   0  0  0  0  0  0  0  0  0  0  0  0
    8.9637   12.3916   24.5775 C   0  0  0  0  0  0  0  0  0  0  0  0
    8.4120   13.4161   25.3765 C   0  0  0  0  0  0  0  0  0  0  0  0
    7.3437   13.1495   26.2294 C   0  0  0  0  0  0  0  0  0  0  0  0
    6.8078   11.8760   26.2813 C   0  0  0  0  0  0  0  0  0  0  0  0
    7.3314   10.8464   25.4944 C   0  0  0  0  0  0  0  0  0  0  0  0
    6.5229    9.3576   25.5581 Cl  0  0  0  0  0  0  0  0  0  0  0  0
    8.4294   11.0945   24.6554 C   0  0  0  0  0  0  0  0  0  0  0  0
  1  2  1  0
  2  3  1  0
  3  4  2  0
  4  5  1  0
  5  6  2  0
  5  7  1  0
  7  8  1  0
  8  9  1  0
  9 10  1  0
  9 11  1  0
  4 12  1  0
 12 13  2  0
 13 14  1  0
 14 15  2  0
 15 16  1  0
 16 17  1  0
 16 18  2  0
 18  2  1  0
 11  7  1  0
 18 12  1  0
M  END
>  <alias>  (1207) 
None

>  <rmsd(smina/fragmenstein)>  (1207) 
0.59

>  <smiles>  (1207) 
Cn1cc(C(=O)N2CC(Cl)C2)c2cccc(Cl)c21

>  <gnina_score>  (1207) 
5.374

>  <inspiration_score>  (1207) 
None

>  <energy_score>  (1207) 
-1.030088

>  <distance_score>  (1207) 
0.978105

>  <gnina_score_min>  (1207) 
5.378

>  <inchikey>  (1207) 
QNWGBEDXXBCEQY-UHFFFAOYSA-N

>  <exports>  (1207) 
['/opt/xchem-fragalysis-2/maxwin/BulkDock/OUTPUTS/openbind_a71ev2a_c2_elabs_1LOUU54.sdf', '/opt/xchem-fragalysis-2/maxwin/BulkDock/OUTPUTS/openbind_a71ev2a_c2_elabs_1LSYIDY.sdf']

>  <name>  (1207) 
P577070

>  <ref_pdb>  (1207) 
A3066a

>  <subsites>  (1207) 
None

>  <HIPPO Pose ID>  (1207) 
577070

>  <ref_mols>  (1207) 
A3066a

>  <HIPPO Compound ID>  (1207) 
350383

>  <tags>  (1207) 
openbind_a71ev2a_c2_elabs,syndirella_product,openbind_a71ev2a_c2_elabs_fragonly_scored_top80percent,openbind_a71ev2a_c2_elabs_scored,BulkDock Fragalysis export,openbind_a71ev2a_c2_elabs_scored_top80percent,openbind_a71ev2a_c2_elabs_activefrags_only_scored_5.2plus,syndirella_placed

>  <smina_score_min>  (1207) 
-7.212

$$$$
P577071
     RDKit          3D

 18 19  0  0  0  0  0  0  0  0999 V2000
   10.0432   15.4112   20.7417 C   0  0  0  0  0  0  0  0  0  0  0  0
   11.1730   14.7699   21.5379 C   0  0  2  0  0  0  0  0  0  0  0  0
   12.4077   14.3855   20.7307 C   0  0  0  0  0  0  0  0  0  0  0  0
   12.1103   14.2359   19.4157 F   0  0  0  0  0  0  0  0  0  0  0  0
   10.6465   13.6138   22.2092 N   0  0  0  0  0  0  0  0  0  0  0  0
   10.3755   13.3641   23.6914 C   0  0  0  0  0  0  0  0  0  0  0  0
   10.6046   14.0229   24.6209 O   0  0  0  0  0  0  0  0  0  0  0  0
    9.6802   12.0984   23.8488 C   0  0  0  0  0  0  0  0  0  0  0  0
    9.9491   10.9275   23.1733 C   0  0  0  0  0  0  0  0  0  0  0  0
    9.1795    9.9359   23.7072 N   0  0  0  0  0  0  0  0  0  0  0  0
    9.3124    8.5447   23.3448 C   0  0  0  0  0  0  0  0  0  0  0  0
    8.3082   10.4661   24.6326 C   0  0  0  0  0  0  0  0  0  0  0  0
    7.2969    9.8757   25.3978 C   0  0  0  0  0  0  0  0  0  0  0  0
    6.5660   10.6802   26.2727 C   0  0  0  0  0  0  0  0  0  0  0  0
    6.8336   12.0360   26.3673 C   0  0  0  0  0  0  0  0  0  0  0  0
    6.1227   12.7846   27.2212 F   0  0  0  0  0  0  0  0  0  0  0  0
    7.8390   12.6301   25.6121 C   0  0  0  0  0  0  0  0  0  0  0  0
    8.5978   11.8293   24.7339 C   0  0  0  0  0  0  0  0  0  0  0  0
  2  1  1  6
  2  3  1  0
  3  4  1  0
  2  5  1  0
  5  6  1  0
  6  7  2  0
  6  8  1  0
  8  9  2  0
  9 10  1  0
 10 11  1  0
 10 12  1  0
 12 13  2  0
 13 14  1  0
 14 15  2  0
 15 16  1  0
 15 17  1  0
 17 18  2  0
 18  8  1  0
 18 12  1  0
M  END
>  <alias>  (1208) 
None

>  <rmsd(smina/fragmenstein)>  (1208) 
0.388

>  <smiles>  (1208) 
C[C@H](CF)NC(=O)c1cn(C)c2ccc(F)cc12

>  <gnina_score>  (1208) 
5.314

>  <inspiration_score>  (1208) 
None

>  <energy_score>  (1208) 
-7.815505

>  <distance_score>  (1208) 
0.567137

>  <gnina_score_min>  (1208) 
5.374

>  <inchikey>  (1208) 
JKJRQZYCKLMDEW-MRVPVSSYSA-N

>  <exports>  (1208) 
['/opt/xchem-fragalysis-2/maxwin/BulkDock/OUTPUTS/openbind_a71ev2a_c2_elabs_1LOUU54.sdf', '/opt/xchem-fragalysis-2/maxwin/BulkDock/OUTPUTS/openbind_a71ev2a_c2_elabs_1LSYIDY.sdf']

>  <name>  (1208) 
P577071

>  <ref_pdb>  (1208) 
A3066a

>  <subsites>  (1208) 
None

>  <HIPPO Pose ID>  (1208) 
577071

>  <ref_mols>  (1208) 
A3066a

>  <HIPPO Compound ID>  (1208) 
350386

>  <tags>  (1208) 
openbind_a71ev2a_c2_elabs,syndirella_product,openbind_a71ev2a_c2_elabs_fragonly_scored_top80percent,openbind_a71ev2a_c2_elabs_scored,BulkDock Fragalysis export,openbind_a71ev2a_c2_elabs_scored_top80percent,openbind_a71ev2a_c2_elabs_activefrags_only_scored_5.2plus,syndirella_placed

>  <smina_score_min>  (1208) 
-7.416

$$$$
P577072
     RDKit          3D

 18 19  0  0  0  0  0  0  0  0999 V2000
   10.3469   15.2316   19.4105 C   0  0  0  0  0  0  0  0  0  0  0  0
   10.9997   14.8678   20.5140 C   0  0  0  0  0  0  0  0  0  0  0  0
   12.6740   14.0878   20.4612 Br  0  0  0  0  0  0  0  0  0  0  0  0
   10.5170   15.1282   21.8805 C   0  0  0  0  0  0  0  0  0  0  0  0
   10.1823   13.8946   22.4942 N   0  0  0  0  0  0  0  0  0  0  0  0
   10.2065   13.4791   23.9575 C   0  0  0  0  0  0  0  0  0  0  0  0
   10.5770   14.0518   24.8974 O   0  0  0  0  0  0  0  0  0  0  0  0
    9.5945   12.1746   24.0558 C   0  0  0  0  0  0  0  0  0  0  0  0
    9.9273   11.0626   23.3106 C   0  0  0  0  0  0  0  0  0  0  0  0
    9.1733   10.0151   23.7555 N   0  0  0  0  0  0  0  0  0  0  0  0
    9.3239    8.6575   23.2827 C   0  0  0  0  0  0  0  0  0  0  0  0
    8.2720   10.4602   24.6995 C   0  0  0  0  0  0  0  0  0  0  0  0
    7.2655    9.7974   25.4049 C   0  0  0  0  0  0  0  0  0  0  0  0
    6.4882   10.5226   26.3091 C   0  0  0  0  0  0  0  0  0  0  0  0
    6.7040   11.8781   26.4883 C   0  0  0  0  0  0  0  0  0  0  0  0
    5.9478   12.5536   27.3637 F   0  0  0  0  0  0  0  0  0  0  0  0
    7.7045   12.5471   25.7941 C   0  0  0  0  0  0  0  0  0  0  0  0
    8.5103   11.8209   24.8948 C   0  0  0  0  0  0  0  0  0  0  0  0
  1  2  2  0
  2  3  1  0
  2  4  1  0
  4  5  1  0
  5  6  1  0
  6  7  2  0
  6  8  1  0
  8  9  2  0
  9 10  1  0
 10 11  1  0
 10 12  1  0
 12 13  2  0
 13 14  1  0
 14 15  2  0
 15 16  1  0
 15 17  1  0
 17 18  2  0
 18  8  1  0
 18 12  1  0
M  END
>  <alias>  (1209) 
None

>  <rmsd(smina/fragmenstein)>  (1209) 
0.545

>  <smiles>  (1209) 
C=C(Br)CNC(=O)c1cn(C)c2ccc(F)cc12

>  <gnina_score>  (1209) 
5.246

>  <inspiration_score>  (1209) 
None

>  <energy_score>  (1209) 
-2.676749

>  <distance_score>  (1209) 
0.819233

>  <gnina_score_min>  (1209) 
5.271

>  <inchikey>  (1209) 
VOGDUHXFFAPGEY-UHFFFAOYSA-N

>  <exports>  (1209) 
['/opt/xchem-fragalysis-2/maxwin/BulkDock/OUTPUTS/openbind_a71ev2a_c2_elabs_1LOUU54.sdf', '/opt/xchem-fragalysis-2/maxwin/BulkDock/OUTPUTS/openbind_a71ev2a_c2_elabs_1LSYIDY.sdf']

>  <name>  (1209) 
P577072

>  <ref_pdb>  (1209) 
A3066a

>  <subsites>  (1209) 
None

>  <HIPPO Pose ID>  (1209) 
577072

>  <ref_mols>  (1209) 
A3066a

>  <HIPPO Compound ID>  (1209) 
350389

>  <tags>  (1209) 
openbind_a71ev2a_c2_elabs,syndirella_product,openbind_a71ev2a_c2_elabs_fragonly_scored_top80percent,openbind_a71ev2a_c2_elabs_scored,BulkDock Fragalysis export,openbind_a71ev2a_c2_elabs_scored_top80percent,openbind_a71ev2a_c2_elabs_activefrags_only_scored_5.2plus,syndirella_placed

>  <smina_score_min>  (1209) 
-6.576

$$$$
P577074
     RDKit          3D

 18 20  0  0  0  0  0  0  0  0999 V2000
    9.2663    8.3827   23.5220 C   0  0  0  0  0  0  0  0  0  0  0  0
    9.1298    9.7865   23.8055 N   0  0  0  0  0  0  0  0  0  0  0  0
    9.9086   10.7196   23.1977 C   0  0  0  0  0  0  0  0  0  0  0  0
    9.6043   11.9524   23.7264 C   0  0  0  0  0  0  0  0  0  0  0  0
   10.1921   13.2209   23.3457 C   0  0  0  0  0  0  0  0  0  0  0  0
   10.1678   14.1232   24.0874 O   0  0  0  0  0  0  0  0  0  0  0  0
   10.6876   13.1390   21.8805 N   0  0  0  0  0  0  0  0  0  0  0  0
   11.1416   14.1164   21.0417 N   0  0  0  0  0  0  0  0  0  0  0  0
   10.6241   15.4321   21.3845 C   0  0  0  0  0  0  0  0  0  0  0  0
   11.9376   15.6862   22.1429 C   0  0  0  0  0  0  0  0  0  0  0  0
   12.5104   14.4971   21.3940 C   0  0  0  0  0  0  0  0  0  0  0  0
    8.5627   11.7550   24.6793 C   0  0  0  0  0  0  0  0  0  0  0  0
    7.8187   12.6249   25.5042 C   0  0  0  0  0  0  0  0  0  0  0  0
    6.8216   12.0986   26.3177 C   0  0  0  0  0  0  0  0  0  0  0  0
    6.1323   12.9160   27.1248 F   0  0  0  0  0  0  0  0  0  0  0  0
    6.5326   10.7454   26.3160 C   0  0  0  0  0  0  0  0  0  0  0  0
    7.2414    9.8739   25.4886 C   0  0  0  0  0  0  0  0  0  0  0  0
    8.2661   10.3899   24.6885 C   0  0  0  0  0  0  0  0  0  0  0  0
  1  2  1  0
  2  3  1  0
  3  4  2  0
  4  5  1  0
  5  6  2  0
  5  7  1  0
  7  8  1  0
  8  9  1  0
  9 10  1  0
 10 11  1  0
  4 12  1  0
 12 13  2  0
 13 14  1  0
 14 15  1  0
 14 16  2  0
 16 17  1  0
 17 18  2  0
 18  2  1  0
 11  8  1  0
 18 12  1  0
M  END
>  <alias>  (1210) 
None

>  <rmsd(smina/fragmenstein)>  (1210) 
1.339

>  <smiles>  (1210) 
Cn1cc(C(=O)NN2CCC2)c2cc(F)ccc21

>  <gnina_score>  (1210) 
5.508

>  <inspiration_score>  (1210) 
None

>  <energy_score>  (1210) 
-13.549382

>  <distance_score>  (1210) 
0.720563

>  <gnina_score_min>  (1210) 
5.646

>  <inchikey>  (1210) 
QJZGYJFDDUJBLL-UHFFFAOYSA-N

>  <exports>  (1210) 
['/opt/xchem-fragalysis-2/maxwin/BulkDock/OUTPUTS/openbind_a71ev2a_c2_elabs_1LOUU54.sdf', '/opt/xchem-fragalysis-2/maxwin/BulkDock/OUTPUTS/openbind_a71ev2a_c2_elabs_1LSYIDY.sdf']

>  <name>  (1210) 
P577074

>  <ref_pdb>  (1210) 
A3066a

>  <subsites>  (1210) 
None

>  <HIPPO Pose ID>  (1210) 
577074

>  <ref_mols>  (1210) 
A3066a

>  <HIPPO Compound ID>  (1210) 
350399

>  <tags>  (1210) 
openbind_a71ev2a_c2_elabs,syndirella_product,openbind_a71ev2a_c2_elabs_fragonly_scored_top80percent,BulkDock Fragalysis export,openbind_a71ev2a_c2_elabs_scored,openbind_a71ev2a_c2_elabs_scored_top80percent,openbind_a71ev2a_c2_elabs_activefrags_only_scored_5.2plus,openbind_a71ev2a_c2_elabs_activefrags_only_scored_5.5plus,syndirella_placed

>  <smina_score_min>  (1210) 
-7.151

$$$$
P577075
     RDKit          3D

 18 19  0  0  0  0  0  0  0  0999 V2000
   13.2010   15.0603   21.5365 C   0  0  0  0  0  0  0  0  0  0  0  0
   12.3201   13.9246   21.9223 C   0  0  1  0  0  0  0  0  0  0  0  0
   12.6154   13.4815   23.6953 S   0  0  0  0  0  0  0  0  0  0  0  0
   10.8769   14.3111   21.5688 C   0  0  0  0  0  0  0  0  0  0  0  0
   10.0886   13.3568   22.2331 N   0  0  0  0  0  0  0  0  0  0  0  0
    9.4085   13.4097   23.5889 C   0  0  0  0  0  0  0  0  0  0  0  0
    9.3197   14.2771   24.3523 O   0  0  0  0  0  0  0  0  0  0  0  0
    8.9115   12.0986   23.9077 C   0  0  0  0  0  0  0  0  0  0  0  0
    9.4134   10.9072   23.4244 C   0  0  0  0  0  0  0  0  0  0  0  0
    8.7417    9.8933   24.0294 N   0  0  0  0  0  0  0  0  0  0  0  0
    9.0677    8.5193   23.7445 C   0  0  0  0  0  0  0  0  0  0  0  0
    7.8478   10.4074   24.9417 C   0  0  0  0  0  0  0  0  0  0  0  0
    6.9393    9.8101   25.8145 C   0  0  0  0  0  0  0  0  0  0  0  0
    6.2674   10.6097   26.7452 C   0  0  0  0  0  0  0  0  0  0  0  0
    5.1990    9.7981   28.0837 Br  0  0  0  0  0  0  0  0  0  0  0  0
    6.4006   11.9879   26.7436 C   0  0  0  0  0  0  0  0  0  0  0  0
    7.2327   12.5926   25.8097 C   0  0  0  0  0  0  0  0  0  0  0  0
    7.9743   11.7944   24.9144 C   0  0  0  0  0  0  0  0  0  0  0  0
  2  1  1  1
  2  3  1  0
  2  4  1  0
  4  5  1  0
  5  6  1  0
  6  7  2  0
  6  8  1  0
  8  9  2  0
  9 10  1  0
 10 11  1  0
 10 12  1  0
 12 13  2  0
 13 14  1  0
 14 15  1  0
 14 16  2  0
 16 17  1  0
 17 18  2  0
 18  8  1  0
 18 12  1  0
M  END
>  <alias>  (1211) 
None

>  <rmsd(smina/fragmenstein)>  (1211) 
0.242

>  <smiles>  (1211) 
C[C@@H](S)CNC(=O)c1cn(C)c2cc(Br)ccc12

>  <gnina_score>  (1211) 
5.432

>  <inspiration_score>  (1211) 
None

>  <energy_score>  (1211) 
-2.765425

>  <distance_score>  (1211) 
1.164219

>  <gnina_score_min>  (1211) 
5.409

>  <inchikey>  (1211) 
QRHDOHGUJBNNJS-MRVPVSSYSA-N

>  <exports>  (1211) 
['/opt/xchem-fragalysis-2/maxwin/BulkDock/OUTPUTS/openbind_a71ev2a_c2_elabs_1LOUU54.sdf', '/opt/xchem-fragalysis-2/maxwin/BulkDock/OUTPUTS/openbind_a71ev2a_c2_elabs_1LSYIDY.sdf']

>  <name>  (1211) 
P577075

>  <ref_pdb>  (1211) 
A3066a

>  <subsites>  (1211) 
None

>  <HIPPO Pose ID>  (1211) 
577075

>  <ref_mols>  (1211) 
A3066a

>  <HIPPO Compound ID>  (1211) 
350400

>  <tags>  (1211) 
openbind_a71ev2a_c2_elabs,syndirella_product,openbind_a71ev2a_c2_elabs_fragonly_scored_top80percent,openbind_a71ev2a_c2_elabs_scored,BulkDock Fragalysis export,openbind_a71ev2a_c2_elabs_scored_top80percent,openbind_a71ev2a_c2_elabs_activefrags_only_scored_5.2plus,syndirella_placed

>  <smina_score_min>  (1211) 
-5.604

$$$$
P577076
     RDKit          3D

 18 19  0  0  0  0  0  0  0  0999 V2000
   11.3690   14.4247   19.4821 C   0  0  0  0  0  0  0  0  0  0  0  0
   12.5888   14.0398   20.3072 C   0  0  0  0  0  0  0  0  0  0  0  0
   12.8141   14.8081   21.5899 C   0  0  0  0  0  0  0  0  0  0  0  0
   11.5686   15.0822   22.3764 C   0  0  0  0  0  0  0  0  0  0  0  0
   10.9102   13.8957   22.8105 N   0  0  0  0  0  0  0  0  0  0  0  0
   10.4634   13.4637   24.2007 C   0  0  0  0  0  0  0  0  0  0  0  0
   10.6255   13.9674   25.2347 O   0  0  0  0  0  0  0  0  0  0  0  0
    9.6795   12.2413   24.1090 C   0  0  0  0  0  0  0  0  0  0  0  0
    9.9278   11.1392   23.3167 C   0  0  0  0  0  0  0  0  0  0  0  0
    9.1210   10.1185   23.7485 N   0  0  0  0  0  0  0  0  0  0  0  0
    9.2468    8.7513   23.2913 C   0  0  0  0  0  0  0  0  0  0  0  0
    8.2497   10.5838   24.7134 C   0  0  0  0  0  0  0  0  0  0  0  0
    7.2626    9.9467   25.4800 C   0  0  0  0  0  0  0  0  0  0  0  0
    6.5835   10.7049   26.4434 C   0  0  0  0  0  0  0  0  0  0  0  0
    5.4356    9.8522   27.6890 Br  0  0  0  0  0  0  0  0  0  0  0  0
    6.8015   12.0682   26.5832 C   0  0  0  0  0  0  0  0  0  0  0  0
    7.7755   12.6943   25.8111 C   0  0  0  0  0  0  0  0  0  0  0  0
    8.5392   11.9360   24.8999 C   0  0  0  0  0  0  0  0  0  0  0  0
  1  2  1  0
  2  3  1  0
  3  4  1  0
  4  5  1  0
  5  6  1  0
  6  7  2  0
  6  8  1  0
  8  9  2  0
  9 10  1  0
 10 11  1  0
 10 12  1  0
 12 13  2  0
 13 14  1  0
 14 15  1  0
 14 16  2  0
 16 17  1  0
 17 18  2  0
 18  8  1  0
 18 12  1  0
M  END
>  <alias>  (1212) 
None

>  <rmsd(smina/fragmenstein)>  (1212) 
1.33

>  <smiles>  (1212) 
CCCCNC(=O)c1cn(C)c2cc(Br)ccc12

>  <gnina_score>  (1212) 
5.206

>  <inspiration_score>  (1212) 
None

>  <energy_score>  (1212) 
-5.618587

>  <distance_score>  (1212) 
0.628921

>  <gnina_score_min>  (1212) 
5.605

>  <inchikey>  (1212) 
OSPPLLXLUKMAFZ-UHFFFAOYSA-N

>  <exports>  (1212) 
['/opt/xchem-fragalysis-2/maxwin/BulkDock/OUTPUTS/openbind_a71ev2a_c2_elabs_1LOUU54.sdf', '/opt/xchem-fragalysis-2/maxwin/BulkDock/OUTPUTS/openbind_a71ev2a_c2_elabs_1LSYIDY.sdf']

>  <name>  (1212) 
P577076

>  <ref_pdb>  (1212) 
A3066a

>  <subsites>  (1212) 
None

>  <HIPPO Pose ID>  (1212) 
577076

>  <ref_mols>  (1212) 
A3066a

>  <HIPPO Compound ID>  (1212) 
350401

>  <tags>  (1212) 
openbind_a71ev2a_c2_elabs,syndirella_product,openbind_a71ev2a_c2_elabs_fragonly_scored_top80percent,BulkDock Fragalysis export,openbind_a71ev2a_c2_elabs_scored,openbind_a71ev2a_c2_elabs_scored_top80percent,openbind_a71ev2a_c2_elabs_activefrags_only_scored_5.2plus,openbind_a71ev2a_c2_elabs_activefrags_only_scored_5.5plus,syndirella_placed

>  <smina_score_min>  (1212) 
-7.241

$$$$
P577077
     RDKit          3D

 18 19  0  0  0  0  0  0  0  0999 V2000
    8.9884    8.8413   23.7123 C   0  0  0  0  0  0  0  0  0  0  0  0
    8.8967   10.2727   23.9116 N   0  0  0  0  0  0  0  0  0  0  0  0
    9.7153   11.1450   23.2385 C   0  0  0  0  0  0  0  0  0  0  0  0
    9.5283   12.3999   23.7724 C   0  0  0  0  0  0  0  0  0  0  0  0
   10.2324   13.6185   23.4489 C   0  0  0  0  0  0  0  0  0  0  0  0
   10.5589   14.3243   24.3117 O   0  0  0  0  0  0  0  0  0  0  0  0
   10.4533   13.7288   21.9418 N   0  0  0  0  0  0  0  0  0  0  0  0
   11.2028   14.6789   21.1793 C   0  0  0  0  0  0  0  0  0  0  0  0
   12.7016   14.4522   21.3896 C   0  0  0  0  0  0  0  0  0  0  0  0
   13.0862   14.2466   22.7968 N   0  0  0  0  0  0  0  0  0  0  0  0
   12.9074   12.8514   23.1814 O   0  0  0  0  0  0  0  0  0  0  0  0
    8.5445   12.2954   24.7844 C   0  0  0  0  0  0  0  0  0  0  0  0
    7.9704   13.2517   25.6532 C   0  0  0  0  0  0  0  0  0  0  0  0
    6.9645   12.8859   26.5367 C   0  0  0  0  0  0  0  0  0  0  0  0
    6.4906   11.5904   26.5187 C   0  0  0  0  0  0  0  0  0  0  0  0
    7.0242   10.6427   25.6384 C   0  0  0  0  0  0  0  0  0  0  0  0
    6.1958    9.1760   25.5358 Cl  0  0  0  0  0  0  0  0  0  0  0  0
    8.1023   10.9709   24.8058 C   0  0  0  0  0  0  0  0  0  0  0  0
  1  2  1  0
  2  3  1  0
  3  4  2  0
  4  5  1  0
  5  6  2  0
  5  7  1  0
  7  8  1  0
  8  9  1  0
  9 10  1  0
 10 11  1  0
  4 12  1  0
 12 13  2  0
 13 14  1  0
 14 15  2  0
 15 16  1  0
 16 17  1  0
 16 18  2  0
 18  2  1  0
 18 12  1  0
M  END
>  <alias>  (1213) 
None

>  <rmsd(smina/fragmenstein)>  (1213) 
0.694

>  <smiles>  (1213) 
Cn1cc(C(=O)NCCNO)c2cccc(Cl)c21

>  <gnina_score>  (1213) 
5.269

>  <inspiration_score>  (1213) 
None

>  <energy_score>  (1213) 
-0.134303

>  <distance_score>  (1213) 
0.864385

>  <gnina_score_min>  (1213) 
5.223

>  <inchikey>  (1213) 
SWLKSDMOEVXARI-UHFFFAOYSA-N

>  <exports>  (1213) 
['/opt/xchem-fragalysis-2/maxwin/BulkDock/OUTPUTS/openbind_a71ev2a_c2_elabs_1LOUU54.sdf', '/opt/xchem-fragalysis-2/maxwin/BulkDock/OUTPUTS/openbind_a71ev2a_c2_elabs_1LSYIDY.sdf']

>  <name>  (1213) 
P577077

>  <ref_pdb>  (1213) 
A3066a

>  <subsites>  (1213) 
None

>  <HIPPO Pose ID>  (1213) 
577077

>  <ref_mols>  (1213) 
A3066a

>  <HIPPO Compound ID>  (1213) 
350403

>  <tags>  (1213) 
openbind_a71ev2a_c2_elabs,syndirella_product,openbind_a71ev2a_c2_elabs_fragonly_scored_top80percent,openbind_a71ev2a_c2_elabs_scored,BulkDock Fragalysis export,openbind_a71ev2a_c2_elabs_scored_top80percent,openbind_a71ev2a_c2_elabs_activefrags_only_scored_5.2plus,syndirella_placed

>  <smina_score_min>  (1213) 
-5.8

$$$$
P577078
     RDKit          3D

 18 20  0  0  0  0  0  0  0  0999 V2000
    9.5218    8.6434   23.3692 C   0  0  0  0  0  0  0  0  0  0  0  0
    9.2363   10.0252   23.6887 N   0  0  0  0  0  0  0  0  0  0  0  0
    9.8235   11.0891   23.0635 C   0  0  0  0  0  0  0  0  0  0  0  0
    9.2272   12.2506   23.5170 C   0  0  0  0  0  0  0  0  0  0  0  0
    9.3916   13.5997   22.9809 C   0  0  0  0  0  0  0  0  0  0  0  0
    8.6488   14.4450   23.3121 O   0  0  0  0  0  0  0  0  0  0  0  0
   10.5245   13.6356   22.0109 N   0  0  0  0  0  0  0  0  0  0  0  0
   11.8537   14.0206   22.7056 C   0  0  0  0  0  0  0  0  0  0  0  0
   12.4231   14.3479   21.3591 C   0  0  0  0  0  0  0  0  0  0  0  0
   13.3436   15.3321   21.3401 F   0  0  0  0  0  0  0  0  0  0  0  0
   10.9974   14.7324   21.0894 C   0  0  0  0  0  0  0  0  0  0  0  0
    8.3447   11.8733   24.5720 C   0  0  0  0  0  0  0  0  0  0  0  0
    7.5134   12.6000   25.4528 C   0  0  0  0  0  0  0  0  0  0  0  0
    6.6669   11.9120   26.3194 C   0  0  0  0  0  0  0  0  0  0  0  0
    5.5778   12.8795   27.5242 Br  0  0  0  0  0  0  0  0  0  0  0  0
    6.6036   10.5262   26.2974 C   0  0  0  0  0  0  0  0  0  0  0  0
    7.4193    9.7959   25.4306 C   0  0  0  0  0  0  0  0  0  0  0  0
    8.3125   10.4795   24.6036 C   0  0  0  0  0  0  0  0  0  0  0  0
  1  2  1  0
  2  3  1  0
  3  4  2  0
  4  5  1  0
  5  6  2  0
  5  7  1  0
  7  8  1  0
  8  9  1  0
  9 10  1  0
  9 11  1  0
  4 12  1  0
 12 13  2  0
 13 14  1  0
 14 15  1  0
 14 16  2  0
 16 17  1  0
 17 18  2  0
 18  2  1  0
 11  7  1  0
 18 12  1  0
M  END
>  <alias>  (1214) 
None

>  <rmsd(smina/fragmenstein)>  (1214) 
0.217

>  <smiles>  (1214) 
Cn1cc(C(=O)N2CC(F)C2)c2cc(Br)ccc21

>  <gnina_score>  (1214) 
5.344

>  <inspiration_score>  (1214) 
None

>  <energy_score>  (1214) 
-2.173771

>  <distance_score>  (1214) 
1.096697

>  <gnina_score_min>  (1214) 
5.32

>  <inchikey>  (1214) 
VSXQEDPRHPWGPP-UHFFFAOYSA-N

>  <exports>  (1214) 
['/opt/xchem-fragalysis-2/maxwin/BulkDock/OUTPUTS/openbind_a71ev2a_c2_elabs_1LOUU54.sdf', '/opt/xchem-fragalysis-2/maxwin/BulkDock/OUTPUTS/openbind_a71ev2a_c2_elabs_1LSYIDY.sdf']

>  <name>  (1214) 
P577078

>  <ref_pdb>  (1214) 
A3066a

>  <subsites>  (1214) 
None

>  <HIPPO Pose ID>  (1214) 
577078

>  <ref_mols>  (1214) 
A3066a

>  <HIPPO Compound ID>  (1214) 
350407

>  <tags>  (1214) 
openbind_a71ev2a_c2_elabs,syndirella_product,openbind_a71ev2a_c2_elabs_fragonly_scored_top80percent,openbind_a71ev2a_c2_elabs_scored,BulkDock Fragalysis export,openbind_a71ev2a_c2_elabs_scored_top80percent,openbind_a71ev2a_c2_elabs_activefrags_only_scored_5.2plus,syndirella_placed

>  <smina_score_min>  (1214) 
-7.439

$$$$
P577079
     RDKit          3D

 18 19  0  0  0  0  0  0  0  0999 V2000
   12.7312   15.0849   21.7121 C   0  0  0  0  0  0  0  0  0  0  0  0
   11.6919   14.3118   20.9333 C   0  0  2  0  0  0  0  0  0  0  0  0
   11.8598   14.4774   19.1714 Cl  0  0  0  0  0  0  0  0  0  0  0  0
   10.2737   14.7100   21.3441 C   0  0  0  0  0  0  0  0  0  0  0  0
    9.7916   13.7094   22.2389 N   0  0  0  0  0  0  0  0  0  0  0  0
   10.1531   13.4217   23.6916 C   0  0  0  0  0  0  0  0  0  0  0  0
   10.8457   13.9980   24.4239 O   0  0  0  0  0  0  0  0  0  0  0  0
    9.5213   12.1648   24.0070 C   0  0  0  0  0  0  0  0  0  0  0  0
    9.8435   10.9952   23.3464 C   0  0  0  0  0  0  0  0  0  0  0  0
    9.0883    9.9900   23.8647 N   0  0  0  0  0  0  0  0  0  0  0  0
    9.2411    8.6064   23.4783 C   0  0  0  0  0  0  0  0  0  0  0  0
    8.2019   10.5092   24.7849 C   0  0  0  0  0  0  0  0  0  0  0  0
    7.1865    9.9049   25.5289 C   0  0  0  0  0  0  0  0  0  0  0  0
    6.4457   10.6929   26.4117 C   0  0  0  0  0  0  0  0  0  0  0  0
    6.6937   12.0554   26.5246 C   0  0  0  0  0  0  0  0  0  0  0  0
    5.6650   13.0924   27.7247 Br  0  0  0  0  0  0  0  0  0  0  0  0
    7.6944   12.6681   25.7723 C   0  0  0  0  0  0  0  0  0  0  0  0
    8.4677   11.8786   24.8998 C   0  0  0  0  0  0  0  0  0  0  0  0
  2  1  1  1
  2  3  1  0
  2  4  1  0
  4  5  1  0
  5  6  1  0
  6  7  2  0
  6  8  1  0
  8  9  2  0
  9 10  1  0
 10 11  1  0
 10 12  1  0
 12 13  2  0
 13 14  1  0
 14 15  2  0
 15 16  1  0
 15 17  1  0
 17 18  2  0
 18  8  1  0
 18 12  1  0
M  END
>  <alias>  (1215) 
None

>  <rmsd(smina/fragmenstein)>  (1215) 
0.137

>  <smiles>  (1215) 
C[C@H](Cl)CNC(=O)c1cn(C)c2ccc(Br)cc12

>  <gnina_score>  (1215) 
5.356

>  <inspiration_score>  (1215) 
None

>  <energy_score>  (1215) 
-2.990022

>  <distance_score>  (1215) 
0.917579

>  <gnina_score_min>  (1215) 
5.411

>  <inchikey>  (1215) 
DCNQSHGCEFXRRQ-QMMMGPOBSA-N

>  <exports>  (1215) 
['/opt/xchem-fragalysis-2/maxwin/BulkDock/OUTPUTS/openbind_a71ev2a_c2_elabs_1LOUU54.sdf', '/opt/xchem-fragalysis-2/maxwin/BulkDock/OUTPUTS/openbind_a71ev2a_c2_elabs_1LSYIDY.sdf']

>  <name>  (1215) 
P577079

>  <ref_pdb>  (1215) 
A3066a

>  <subsites>  (1215) 
None

>  <HIPPO Pose ID>  (1215) 
577079

>  <ref_mols>  (1215) 
A3066a

>  <HIPPO Compound ID>  (1215) 
350409

>  <tags>  (1215) 
openbind_a71ev2a_c2_elabs,syndirella_product,openbind_a71ev2a_c2_elabs_fragonly_scored_top80percent,openbind_a71ev2a_c2_elabs_scored,BulkDock Fragalysis export,openbind_a71ev2a_c2_elabs_scored_top80percent,openbind_a71ev2a_c2_elabs_activefrags_only_scored_5.2plus,syndirella_placed

>  <smina_score_min>  (1215) 
-6.624

$$$$
P577081
     RDKit          3D

 18 19  0  0  0  0  0  0  0  0999 V2000
    9.3311   15.9410   20.1074 C   0  0  0  0  0  0  0  0  0  0  0  0
   10.2208   15.4320   20.7344 C   0  0  0  0  0  0  0  0  0  0  0  0
   11.2445   14.7857   21.5689 C   0  0  2  0  0  0  0  0  0  0  0  0
   12.4306   14.2865   20.7696 C   0  0  0  0  0  0  0  0  0  0  0  0
   10.6143   13.6945   22.2321 N   0  0  0  0  0  0  0  0  0  0  0  0
   10.3982   13.4284   23.7193 C   0  0  0  0  0  0  0  0  0  0  0  0
   10.6305   14.0915   24.6456 O   0  0  0  0  0  0  0  0  0  0  0  0
    9.7061   12.1577   23.8732 C   0  0  0  0  0  0  0  0  0  0  0  0
    9.9819   10.9974   23.1804 C   0  0  0  0  0  0  0  0  0  0  0  0
    9.2123    9.9934   23.6913 N   0  0  0  0  0  0  0  0  0  0  0  0
    9.3286    8.6101   23.2905 C   0  0  0  0  0  0  0  0  0  0  0  0
    8.3397   10.5053   24.6257 C   0  0  0  0  0  0  0  0  0  0  0  0
    7.3313    9.8958   25.3781 C   0  0  0  0  0  0  0  0  0  0  0  0
    6.5863   10.6817   26.2593 C   0  0  0  0  0  0  0  0  0  0  0  0
    6.8376   12.0428   26.3750 C   0  0  0  0  0  0  0  0  0  0  0  0
    5.8139   13.0802   27.5791 Br  0  0  0  0  0  0  0  0  0  0  0  0
    7.8470   12.6525   25.6295 C   0  0  0  0  0  0  0  0  0  0  0  0
    8.6204   11.8684   24.7478 C   0  0  0  0  0  0  0  0  0  0  0  0
  1  2  3  0
  2  3  1  0
  3  4  1  6
  3  5  1  0
  5  6  1  0
  6  7  2  0
  6  8  1  0
  8  9  2  0
  9 10  1  0
 10 11  1  0
 10 12  1  0
 12 13  2  0
 13 14  1  0
 14 15  2  0
 15 16  1  0
 15 17  1  0
 17 18  2  0
 18  8  1  0
 18 12  1  0
M  END
>  <alias>  (1216) 
None

>  <rmsd(smina/fragmenstein)>  (1216) 
0.292

>  <smiles>  (1216) 
C#C[C@H](C)NC(=O)c1cn(C)c2ccc(Br)cc12

>  <gnina_score>  (1216) 
5.541

>  <inspiration_score>  (1216) 
None

>  <energy_score>  (1216) 
-1.570947

>  <distance_score>  (1216) 
0.550549

>  <gnina_score_min>  (1216) 
5.555

>  <inchikey>  (1216) 
TTXVBDUFHTWEKQ-VIFPVBQESA-N

>  <exports>  (1216) 
['/opt/xchem-fragalysis-2/maxwin/BulkDock/OUTPUTS/openbind_a71ev2a_c2_elabs_1LOUU54.sdf', '/opt/xchem-fragalysis-2/maxwin/BulkDock/OUTPUTS/openbind_a71ev2a_c2_elabs_1LSYIDY.sdf']

>  <name>  (1216) 
P577081

>  <ref_pdb>  (1216) 
A3066a

>  <subsites>  (1216) 
None

>  <HIPPO Pose ID>  (1216) 
577081

>  <ref_mols>  (1216) 
A3066a

>  <HIPPO Compound ID>  (1216) 
350417

>  <tags>  (1216) 
openbind_a71ev2a_c2_elabs,syndirella_product,openbind_a71ev2a_c2_elabs_fragonly_scored_top80percent,BulkDock Fragalysis export,openbind_a71ev2a_c2_elabs_scored,openbind_a71ev2a_c2_elabs_scored_top80percent,openbind_a71ev2a_c2_elabs_activefrags_only_scored_5.2plus,openbind_a71ev2a_c2_elabs_activefrags_only_scored_5.5plus,syndirella_placed

>  <smina_score_min>  (1216) 
-7.456

$$$$
P577082
     RDKit          3D

 18 19  0  0  0  0  0  0  0  0999 V2000
   10.0080   15.4656   20.5916 C   0  0  0  0  0  0  0  0  0  0  0  0
   11.0635   14.4623   21.0415 C   0  0  1  0  0  0  0  0  0  0  0  0
   12.2263   15.0516   21.8448 C   0  0  0  0  0  0  0  0  0  0  0  0
   12.8822   13.9155   23.0724 Cl  0  0  0  0  0  0  0  0  0  0  0  0
   10.4342   13.4130   21.7886 N   0  0  0  0  0  0  0  0  0  0  0  0
    9.7063   13.4490   23.1318 C   0  0  0  0  0  0  0  0  0  0  0  0
    9.4311   14.3460   23.8146 O   0  0  0  0  0  0  0  0  0  0  0  0
    9.3341   12.1064   23.5615 C   0  0  0  0  0  0  0  0  0  0  0  0
    9.8196   10.9019   23.0958 C   0  0  0  0  0  0  0  0  0  0  0  0
    9.1608    9.8906   23.7325 N   0  0  0  0  0  0  0  0  0  0  0  0
    9.4175    8.4960   23.4637 C   0  0  0  0  0  0  0  0  0  0  0  0
    8.2574   10.4123   24.6285 C   0  0  0  0  0  0  0  0  0  0  0  0
    7.3188    9.8010   25.4620 C   0  0  0  0  0  0  0  0  0  0  0  0
    6.5453   10.5927   26.3124 C   0  0  0  0  0  0  0  0  0  0  0  0
    6.6910   11.9712   26.3111 C   0  0  0  0  0  0  0  0  0  0  0  0
    5.6471   13.0244   27.4833 Br  0  0  0  0  0  0  0  0  0  0  0  0
    7.5917   12.5899   25.4469 C   0  0  0  0  0  0  0  0  0  0  0  0
    8.3866   11.7997   24.5855 C   0  0  0  0  0  0  0  0  0  0  0  0
  2  1  1  1
  2  3  1  0
  3  4  1  0
  2  5  1  0
  5  6  1  0
  6  7  2  0
  6  8  1  0
  8  9  2  0
  9 10  1  0
 10 11  1  0
 10 12  1  0
 12 13  2  0
 13 14  1  0
 14 15  2  0
 15 16  1  0
 15 17  1  0
 17 18  2  0
 18  8  1  0
 18 12  1  0
M  END
>  <alias>  (1217) 
None

>  <rmsd(smina/fragmenstein)>  (1217) 
0.265

>  <smiles>  (1217) 
C[C@@H](CCl)NC(=O)c1cn(C)c2ccc(Br)cc12

>  <gnina_score>  (1217) 
5.759

>  <inspiration_score>  (1217) 
None

>  <energy_score>  (1217) 
-18.771069

>  <distance_score>  (1217) 
0.913252

>  <gnina_score_min>  (1217) 
5.731

>  <inchikey>  (1217) 
BQIUKVHTDCAPIE-QMMMGPOBSA-N

>  <exports>  (1217) 
['/opt/xchem-fragalysis-2/maxwin/BulkDock/OUTPUTS/openbind_a71ev2a_c2_elabs_1LOUU54.sdf', '/opt/xchem-fragalysis-2/maxwin/BulkDock/OUTPUTS/openbind_a71ev2a_c2_elabs_1LSYIDY.sdf']

>  <name>  (1217) 
P577082

>  <ref_pdb>  (1217) 
A3066a

>  <subsites>  (1217) 
None

>  <HIPPO Pose ID>  (1217) 
577082

>  <ref_mols>  (1217) 
A3066a

>  <HIPPO Compound ID>  (1217) 
350419

>  <tags>  (1217) 
openbind_a71ev2a_c2_elabs,syndirella_product,openbind_a71ev2a_c2_elabs_fragonly_scored_top80percent,BulkDock Fragalysis export,openbind_a71ev2a_c2_elabs_scored,openbind_a71ev2a_c2_elabs_scored_top80percent,openbind_a71ev2a_c2_elabs_activefrags_only_scored_5.2plus,openbind_a71ev2a_c2_elabs_activefrags_only_scored_5.5plus,syndirella_placed

>  <smina_score_min>  (1217) 
-6.522

$$$$
P577084
     RDKit          3D

 18 20  0  0  0  0  0  0  0  0999 V2000
    8.3681   14.3673   21.6904 C   0  0  0  0  0  0  0  0  0  0  0  0
    9.8174   14.7676   21.6827 C   0  0  2  0  0  0  0  0  0  0  0  0
   10.5947   14.8756   20.4015 C   0  0  0  0  0  0  0  0  0  0  0  0
   11.7515   14.6246   21.3507 C   0  0  0  0  0  0  0  0  0  0  0  0
   10.8471   13.6854   22.1140 N   0  0  0  0  0  0  0  0  0  0  0  0
   10.7544   13.3921   23.5870 C   0  0  0  0  0  0  0  0  0  0  0  0
   11.3140   13.8856   24.4997 O   0  0  0  0  0  0  0  0  0  0  0  0
    9.8741   12.2400   23.7790 C   0  0  0  0  0  0  0  0  0  0  0  0
   10.0270   11.0603   23.0784 C   0  0  0  0  0  0  0  0  0  0  0  0
    9.2284   10.1077   23.6316 N   0  0  0  0  0  0  0  0  0  0  0  0
    9.2731    8.7118   23.2595 C   0  0  0  0  0  0  0  0  0  0  0  0
    8.4097   10.6841   24.5770 C   0  0  0  0  0  0  0  0  0  0  0  0
    7.3814   10.1375   25.3557 C   0  0  0  0  0  0  0  0  0  0  0  0
    6.6998   10.9824   26.2331 C   0  0  0  0  0  0  0  0  0  0  0  0
    7.0438   12.3265   26.3308 C   0  0  0  0  0  0  0  0  0  0  0  0
    6.1044   13.4389   27.5380 Br  0  0  0  0  0  0  0  0  0  0  0  0
    8.0851   12.8664   25.5712 C   0  0  0  0  0  0  0  0  0  0  0  0
    8.7875   12.0318   24.6785 C   0  0  0  0  0  0  0  0  0  0  0  0
  2  1  1  6
  2  3  1  0
  3  4  1  0
  4  5  1  0
  5  6  1  0
  6  7  2  0
  6  8  1  0
  8  9  2  0
  9 10  1  0
 10 11  1  0
 10 12  1  0
 12 13  2  0
 13 14  1  0
 14 15  2  0
 15 16  1  0
 15 17  1  0
 17 18  2  0
  5  2  1  0
 18  8  1  0
 18 12  1  0
M  END
>  <alias>  (1218) 
None

>  <rmsd(smina/fragmenstein)>  (1218) 
0.297

>  <smiles>  (1218) 
C[C@@H]1CCN1C(=O)c1cn(C)c2ccc(Br)cc12

>  <gnina_score>  (1218) 
5.411

>  <inspiration_score>  (1218) 
None

>  <energy_score>  (1218) 
-1.027904

>  <distance_score>  (1218) 
0.420516

>  <gnina_score_min>  (1218) 
5.413

>  <inchikey>  (1218) 
BRBPZUAUSQPGJK-SECBINFHSA-N

>  <exports>  (1218) 
['/opt/xchem-fragalysis-2/maxwin/BulkDock/OUTPUTS/openbind_a71ev2a_c2_elabs_1LOUU54.sdf', '/opt/xchem-fragalysis-2/maxwin/BulkDock/OUTPUTS/openbind_a71ev2a_c2_elabs_1LSYIDY.sdf']

>  <name>  (1218) 
P577084

>  <ref_pdb>  (1218) 
A3066a

>  <subsites>  (1218) 
None

>  <HIPPO Pose ID>  (1218) 
577084

>  <ref_mols>  (1218) 
A3066a

>  <HIPPO Compound ID>  (1218) 
350423

>  <tags>  (1218) 
openbind_a71ev2a_c2_elabs,syndirella_product,openbind_a71ev2a_c2_elabs_fragonly_scored_top80percent,openbind_a71ev2a_c2_elabs_scored,BulkDock Fragalysis export,openbind_a71ev2a_c2_elabs_scored_top80percent,openbind_a71ev2a_c2_elabs_activefrags_only_scored_5.2plus,syndirella_placed

>  <smina_score_min>  (1218) 
-7.88

$$$$
P577085
     RDKit          3D

 18 19  0  0  0  0  0  0  0  0999 V2000
   12.3004   14.0608   20.3936 C   0  0  0  0  0  0  0  0  0  0  0  0
   11.5836   14.4304   21.6701 C   0  0  2  0  0  0  0  0  0  0  0  0
   12.5995   14.6694   22.8006 C   0  0  0  0  0  0  0  0  0  0  0  0
   12.9622   13.2285   23.9217 S   0  0  0  0  0  0  0  0  0  0  0  0
   10.6982   13.4198   22.1416 N   0  0  0  0  0  0  0  0  0  0  0  0
    9.7323   13.4205   23.3206 C   0  0  0  0  0  0  0  0  0  0  0  0
    9.4425   14.2700   24.0548 O   0  0  0  0  0  0  0  0  0  0  0  0
    9.1953   12.0929   23.5659 C   0  0  0  0  0  0  0  0  0  0  0  0
    9.6766   10.8962   23.0742 C   0  0  0  0  0  0  0  0  0  0  0  0
    9.0262    9.8757   23.7037 N   0  0  0  0  0  0  0  0  0  0  0  0
    9.3292    8.4876   23.4504 C   0  0  0  0  0  0  0  0  0  0  0  0
    8.1281   10.3847   24.6123 C   0  0  0  0  0  0  0  0  0  0  0  0
    7.2265    9.7618   25.4749 C   0  0  0  0  0  0  0  0  0  0  0  0
    6.4697   10.5392   26.3528 C   0  0  0  0  0  0  0  0  0  0  0  0
    6.5953   11.9188   26.3514 C   0  0  0  0  0  0  0  0  0  0  0  0
    5.5840   12.9538   27.5672 Br  0  0  0  0  0  0  0  0  0  0  0  0
    7.4582   12.5505   25.4602 C   0  0  0  0  0  0  0  0  0  0  0  0
    8.2305   11.7731   24.5667 C   0  0  0  0  0  0  0  0  0  0  0  0
  2  1  1  6
  2  3  1  0
  3  4  1  0
  2  5  1  0
  5  6  1  0
  6  7  2  0
  6  8  1  0
  8  9  2  0
  9 10  1  0
 10 11  1  0
 10 12  1  0
 12 13  2  0
 13 14  1  0
 14 15  2  0
 15 16  1  0
 15 17  1  0
 17 18  2  0
 18  8  1  0
 18 12  1  0
M  END
>  <alias>  (1219) 
None

>  <rmsd(smina/fragmenstein)>  (1219) 
0.257

>  <smiles>  (1219) 
C[C@H](CS)NC(=O)c1cn(C)c2ccc(Br)cc12

>  <gnina_score>  (1219) 
5.677

>  <inspiration_score>  (1219) 
None

>  <energy_score>  (1219) 
-24.093265

>  <distance_score>  (1219) 
0.82398

>  <gnina_score_min>  (1219) 
5.701

>  <inchikey>  (1219) 
BKUVDSWEZGSOMB-MRVPVSSYSA-N

>  <exports>  (1219) 
['/opt/xchem-fragalysis-2/maxwin/BulkDock/OUTPUTS/openbind_a71ev2a_c2_elabs_1LOUU54.sdf', '/opt/xchem-fragalysis-2/maxwin/BulkDock/OUTPUTS/openbind_a71ev2a_c2_elabs_1LSYIDY.sdf']

>  <name>  (1219) 
P577085

>  <ref_pdb>  (1219) 
A3066a

>  <subsites>  (1219) 
None

>  <HIPPO Pose ID>  (1219) 
577085

>  <ref_mols>  (1219) 
A3066a

>  <HIPPO Compound ID>  (1219) 
350426

>  <tags>  (1219) 
openbind_a71ev2a_c2_elabs,syndirella_product,openbind_a71ev2a_c2_elabs_fragonly_scored_top80percent,BulkDock Fragalysis export,openbind_a71ev2a_c2_elabs_scored,openbind_a71ev2a_c2_elabs_scored_top80percent,openbind_a71ev2a_c2_elabs_activefrags_only_scored_5.2plus,openbind_a71ev2a_c2_elabs_activefrags_only_scored_5.5plus,syndirella_placed

>  <smina_score_min>  (1219) 
-5.66

$$$$
P577086
     RDKit          3D

 18 19  0  0  0  0  0  0  0  0999 V2000
    9.3874    8.5826   23.2960 C   0  0  0  0  0  0  0  0  0  0  0  0
    9.2909    9.9847   23.6321 N   0  0  0  0  0  0  0  0  0  0  0  0
   10.0478   10.9618   23.0498 C   0  0  0  0  0  0  0  0  0  0  0  0
    9.7804   12.1651   23.6659 C   0  0  0  0  0  0  0  0  0  0  0  0
   10.3948   13.4651   23.3909 C   0  0  0  0  0  0  0  0  0  0  0  0
   10.4997   14.2360   24.2546 O   0  0  0  0  0  0  0  0  0  0  0  0
   10.7133   13.5964   21.8990 N   0  0  0  0  0  0  0  0  0  0  0  0
   11.1424   14.7399   21.1276 C   0  0  0  0  0  0  0  0  0  0  0  0
   10.0133   15.1962   20.1914 C   0  0  2  0  0  0  0  0  0  0  0  0
   10.4913   15.3451   18.9251 F   0  0  0  0  0  0  0  0  0  0  0  0
    9.2169   16.7031   20.6595 Cl  0  0  0  0  0  0  0  0  0  0  0  0
    8.7225   11.9094   24.5999 C   0  0  0  0  0  0  0  0  0  0  0  0
    7.9610   12.7319   25.4592 C   0  0  0  0  0  0  0  0  0  0  0  0
    6.9557   12.1605   26.2425 C   0  0  0  0  0  0  0  0  0  0  0  0
    5.9480   13.2580   27.4064 Br  0  0  0  0  0  0  0  0  0  0  0  0
    6.6915   10.7982   26.1868 C   0  0  0  0  0  0  0  0  0  0  0  0
    7.4272    9.9698   25.3379 C   0  0  0  0  0  0  0  0  0  0  0  0
    8.4345   10.5429   24.5525 C   0  0  0  0  0  0  0  0  0  0  0  0
  1  2  1  0
  2  3  1  0
  3  4  2  0
  4  5  1  0
  5  6  2  0
  5  7  1  0
  7  8  1  0
  8  9  1  0
  9 10  1  6
  9 11  1  0
  4 12  1  0
 12 13  2  0
 13 14  1  0
 14 15  1  0
 14 16  2  0
 16 17  1  0
 17 18  2  0
 18  2  1  0
 18 12  1  0
M  END
>  <alias>  (1220) 
None

>  <rmsd(smina/fragmenstein)>  (1220) 
0.257

>  <smiles>  (1220) 
Cn1cc(C(=O)NC[C@H](F)Cl)c2cc(Br)ccc21

>  <gnina_score>  (1220) 
5.467

>  <inspiration_score>  (1220) 
None

>  <energy_score>  (1220) 
-3.779418

>  <distance_score>  (1220) 
0.577296

>  <gnina_score_min>  (1220) 
5.43

>  <inchikey>  (1220) 
VDDCBUASLYVCBF-NSHDSACASA-N

>  <exports>  (1220) 
['/opt/xchem-fragalysis-2/maxwin/BulkDock/OUTPUTS/openbind_a71ev2a_c2_elabs_1LOUU54.sdf', '/opt/xchem-fragalysis-2/maxwin/BulkDock/OUTPUTS/openbind_a71ev2a_c2_elabs_1LSYIDY.sdf']

>  <name>  (1220) 
P577086

>  <ref_pdb>  (1220) 
A3066a

>  <subsites>  (1220) 
None

>  <HIPPO Pose ID>  (1220) 
577086

>  <ref_mols>  (1220) 
A3066a

>  <HIPPO Compound ID>  (1220) 
350428

>  <tags>  (1220) 
openbind_a71ev2a_c2_elabs,syndirella_product,openbind_a71ev2a_c2_elabs_fragonly_scored_top80percent,openbind_a71ev2a_c2_elabs_scored,BulkDock Fragalysis export,openbind_a71ev2a_c2_elabs_scored_top80percent,openbind_a71ev2a_c2_elabs_activefrags_only_scored_5.2plus,syndirella_placed

>  <smina_score_min>  (1220) 
-7.45

$$$$
P577088
     RDKit          3D

 18 19  0  0  0  0  0  0  0  0999 V2000
   12.8328   14.2714   22.7537 C   0  0  0  0  0  0  0  0  0  0  0  0
   12.4512   14.5458   21.3156 C   0  0  1  0  0  0  0  0  0  0  0  0
   12.8819   13.5263   20.5256 F   0  0  0  0  0  0  0  0  0  0  0  0
   10.9468   14.6676   21.1349 C   0  0  0  0  0  0  0  0  0  0  0  0
   10.3167   13.5811   21.8256 N   0  0  0  0  0  0  0  0  0  0  0  0
    9.7661   13.4949   23.2476 C   0  0  0  0  0  0  0  0  0  0  0  0
    9.6635   14.3117   24.0653 O   0  0  0  0  0  0  0  0  0  0  0  0
    9.3561   12.1398   23.5812 C   0  0  0  0  0  0  0  0  0  0  0  0
    9.8369   10.9543   23.0657 C   0  0  0  0  0  0  0  0  0  0  0  0
    9.1950    9.9196   23.6868 N   0  0  0  0  0  0  0  0  0  0  0  0
    9.4842    8.5294   23.4203 C   0  0  0  0  0  0  0  0  0  0  0  0
    8.2796   10.4124   24.5889 C   0  0  0  0  0  0  0  0  0  0  0  0
    7.3526    9.7725   25.4139 C   0  0  0  0  0  0  0  0  0  0  0  0
    6.5675   10.5377   26.2786 C   0  0  0  0  0  0  0  0  0  0  0  0
    6.6954   11.9179   26.3045 C   0  0  0  0  0  0  0  0  0  0  0  0
    5.6424   12.9351   27.4995 Br  0  0  0  0  0  0  0  0  0  0  0  0
    7.5911   12.5645   25.4558 C   0  0  0  0  0  0  0  0  0  0  0  0
    8.3944   11.8006   24.5793 C   0  0  0  0  0  0  0  0  0  0  0  0
  2  1  1  1
  2  3  1  0
  2  4  1  0
  4  5  1  0
  5  6  1  0
  6  7  2  0
  6  8  1  0
  8  9  2  0
  9 10  1  0
 10 11  1  0
 10 12  1  0
 12 13  2  0
 13 14  1  0
 14 15  2  0
 15 16  1  0
 15 17  1  0
 17 18  2  0
 18  8  1  0
 18 12  1  0
M  END
>  <alias>  (1221) 
None

>  <rmsd(smina/fragmenstein)>  (1221) 
0.308

>  <smiles>  (1221) 
C[C@@H](F)CNC(=O)c1cn(C)c2ccc(Br)cc12

>  <gnina_score>  (1221) 
5.464

>  <inspiration_score>  (1221) 
None

>  <energy_score>  (1221) 
-2.315924

>  <distance_score>  (1221) 
0.874828

>  <gnina_score_min>  (1221) 
5.489

>  <inchikey>  (1221) 
YHNWSSTZTIZIQO-MRVPVSSYSA-N

>  <exports>  (1221) 
['/opt/xchem-fragalysis-2/maxwin/BulkDock/OUTPUTS/openbind_a71ev2a_c2_elabs_1LOUU54.sdf', '/opt/xchem-fragalysis-2/maxwin/BulkDock/OUTPUTS/openbind_a71ev2a_c2_elabs_1LSYIDY.sdf']

>  <name>  (1221) 
P577088

>  <ref_pdb>  (1221) 
A3066a

>  <subsites>  (1221) 
None

>  <HIPPO Pose ID>  (1221) 
577088

>  <ref_mols>  (1221) 
A3066a

>  <HIPPO Compound ID>  (1221) 
350430

>  <tags>  (1221) 
openbind_a71ev2a_c2_elabs,syndirella_product,openbind_a71ev2a_c2_elabs_fragonly_scored_top80percent,openbind_a71ev2a_c2_elabs_scored,BulkDock Fragalysis export,openbind_a71ev2a_c2_elabs_scored_top80percent,openbind_a71ev2a_c2_elabs_activefrags_only_scored_5.2plus,syndirella_placed

>  <smina_score_min>  (1221) 
-6.85

$$$$
P577089
     RDKit          3D

 18 19  0  0  0  0  0  0  0  0999 V2000
    9.3095    8.5791   23.2741 C   0  0  0  0  0  0  0  0  0  0  0  0
    9.2052    9.9573   23.6937 N   0  0  0  0  0  0  0  0  0  0  0  0
   10.0051   10.9533   23.2137 C   0  0  0  0  0  0  0  0  0  0  0  0
    9.7686   12.0977   23.9458 C   0  0  0  0  0  0  0  0  0  0  0  0
   10.5159   13.3500   23.8921 C   0  0  0  0  0  0  0  0  0  0  0  0
   10.5510   14.0362   24.8289 O   0  0  0  0  0  0  0  0  0  0  0  0
   11.0640   13.5677   22.4846 N   0  0  0  0  0  0  0  0  0  0  0  0
   11.6850   14.7033   21.9016 C   0  0  0  0  0  0  0  0  0  0  0  0
   10.6164   15.2754   21.0291 C   0  0  0  0  0  0  0  0  0  0  0  0
   10.5550   15.1555   19.7029 C   0  0  0  0  0  0  0  0  0  0  0  0
   11.7421   14.3562   18.7773 Cl  0  0  0  0  0  0  0  0  0  0  0  0
    8.6400   11.8220   24.7760 C   0  0  0  0  0  0  0  0  0  0  0  0
    7.8657   12.6073   25.6578 C   0  0  0  0  0  0  0  0  0  0  0  0
    6.8344   12.0076   26.3797 C   0  0  0  0  0  0  0  0  0  0  0  0
    5.8132   13.0454   27.5853 Br  0  0  0  0  0  0  0  0  0  0  0  0
    6.5635   10.6528   26.2437 C   0  0  0  0  0  0  0  0  0  0  0  0
    7.3050    9.8678   25.3593 C   0  0  0  0  0  0  0  0  0  0  0  0
    8.3312   10.4691   24.6253 C   0  0  0  0  0  0  0  0  0  0  0  0
  1  2  1  0
  2  3  1  0
  3  4  2  0
  4  5  1  0
  5  6  2  0
  5  7  1  0
  7  8  1  0
  8  9  1  0
  9 10  2  0
 10 11  1  0
  4 12  1  0
 12 13  2  0
 13 14  1  0
 14 15  1  0
 14 16  2  0
 16 17  1  0
 17 18  2  0
 18  2  1  0
 18 12  1  0
M  END
>  <alias>  (1222) 
None

>  <rmsd(smina/fragmenstein)>  (1222) 
0.201

>  <smiles>  (1222) 
Cn1cc(C(=O)NC/C=C\Cl)c2cc(Br)ccc21

>  <gnina_score>  (1222) 
5.493

>  <inspiration_score>  (1222) 
None

>  <energy_score>  (1222) 
-5.286521

>  <distance_score>  (1222) 
0.433837

>  <gnina_score_min>  (1222) 
5.523

>  <inchikey>  (1222) 
AFWOCIJQLDCHQZ-DJWKRKHSSA-N

>  <exports>  (1222) 
['/opt/xchem-fragalysis-2/maxwin/BulkDock/OUTPUTS/openbind_a71ev2a_c2_elabs_1LOUU54.sdf', '/opt/xchem-fragalysis-2/maxwin/BulkDock/OUTPUTS/openbind_a71ev2a_c2_elabs_1LSYIDY.sdf']

>  <name>  (1222) 
P577089

>  <ref_pdb>  (1222) 
A3066a

>  <subsites>  (1222) 
None

>  <HIPPO Pose ID>  (1222) 
577089

>  <ref_mols>  (1222) 
A3066a

>  <HIPPO Compound ID>  (1222) 
350431

>  <tags>  (1222) 
openbind_a71ev2a_c2_elabs,syndirella_product,openbind_a71ev2a_c2_elabs_fragonly_scored_top80percent,BulkDock Fragalysis export,openbind_a71ev2a_c2_elabs_scored,openbind_a71ev2a_c2_elabs_scored_top80percent,openbind_a71ev2a_c2_elabs_activefrags_only_scored_5.2plus,openbind_a71ev2a_c2_elabs_activefrags_only_scored_5.5plus,syndirella_placed

>  <smina_score_min>  (1222) 
-6.798

$$$$
P577090
     RDKit          3D

 18 20  0  0  0  0  0  0  0  0999 V2000
    9.3519    8.3955   23.5357 C   0  0  0  0  0  0  0  0  0  0  0  0
    9.1567    9.7960   23.8108 N   0  0  0  0  0  0  0  0  0  0  0  0
    9.8853   10.7622   23.1884 C   0  0  0  0  0  0  0  0  0  0  0  0
    9.4929   11.9877   23.6771 C   0  0  0  0  0  0  0  0  0  0  0  0
    9.9500   13.2925   23.2376 C   0  0  0  0  0  0  0  0  0  0  0  0
    9.7891   14.2227   23.9238 O   0  0  0  0  0  0  0  0  0  0  0  0
   10.5147   13.1922   21.8014 N   0  0  0  0  0  0  0  0  0  0  0  0
   10.8902   14.1730   20.9226 N   0  0  0  0  0  0  0  0  0  0  0  0
   10.5136   15.5174   21.3382 C   0  0  0  0  0  0  0  0  0  0  0  0
   11.8767   15.6123   22.0556 C   0  0  0  0  0  0  0  0  0  0  0  0
   12.3155   14.4721   21.1418 C   0  0  0  0  0  0  0  0  0  0  0  0
    8.4892   11.7452   24.6600 C   0  0  0  0  0  0  0  0  0  0  0  0
    7.7107   12.5861   25.4862 C   0  0  0  0  0  0  0  0  0  0  0  0
    6.7453   12.0245   26.3192 C   0  0  0  0  0  0  0  0  0  0  0  0
    5.7222   13.1421   27.4486 Br  0  0  0  0  0  0  0  0  0  0  0  0
    6.5231   10.6559   26.3233 C   0  0  0  0  0  0  0  0  0  0  0  0
    7.2695    9.8162   25.4948 C   0  0  0  0  0  0  0  0  0  0  0  0
    8.2657   10.3686   24.6873 C   0  0  0  0  0  0  0  0  0  0  0  0
  1  2  1  0
  2  3  1  0
  3  4  2  0
  4  5  1  0
  5  6  2  0
  5  7  1  0
  7  8  1  0
  8  9  1  0
  9 10  1  0
 10 11  1  0
  4 12  1  0
 12 13  2  0
 13 14  1  0
 14 15  1  0
 14 16  2  0
 16 17  1  0
 17 18  2  0
 18  2  1  0
 11  8  1  0
 18 12  1  0
M  END
>  <alias>  (1223) 
None

>  <rmsd(smina/fragmenstein)>  (1223) 
1.15

>  <smiles>  (1223) 
Cn1cc(C(=O)NN2CCC2)c2cc(Br)ccc21

>  <gnina_score>  (1223) 
5.619

>  <inspiration_score>  (1223) 
None

>  <energy_score>  (1223) 
-17.431172

>  <distance_score>  (1223) 
0.859629

>  <gnina_score_min>  (1223) 
5.754

>  <inchikey>  (1223) 
FSTKGCVUZPENHH-UHFFFAOYSA-N

>  <exports>  (1223) 
['/opt/xchem-fragalysis-2/maxwin/BulkDock/OUTPUTS/openbind_a71ev2a_c2_elabs_1LOUU54.sdf', '/opt/xchem-fragalysis-2/maxwin/BulkDock/OUTPUTS/openbind_a71ev2a_c2_elabs_1LSYIDY.sdf']

>  <name>  (1223) 
P577090

>  <ref_pdb>  (1223) 
A3066a

>  <subsites>  (1223) 
None

>  <HIPPO Pose ID>  (1223) 
577090

>  <ref_mols>  (1223) 
A3066a

>  <HIPPO Compound ID>  (1223) 
350437

>  <tags>  (1223) 
openbind_a71ev2a_c2_elabs,syndirella_product,openbind_a71ev2a_c2_elabs_fragonly_scored_top80percent,BulkDock Fragalysis export,openbind_a71ev2a_c2_elabs_scored,openbind_a71ev2a_c2_elabs_scored_top80percent,openbind_a71ev2a_c2_elabs_activefrags_only_scored_5.2plus,openbind_a71ev2a_c2_elabs_activefrags_only_scored_5.5plus,syndirella_placed

>  <smina_score_min>  (1223) 
-7.019

$$$$
P577091
     RDKit          3D

 18 19  0  0  0  0  0  0  0  0999 V2000
    9.2865    8.5983   23.3959 C   0  0  0  0  0  0  0  0  0  0  0  0
    9.0855    9.9733   23.7894 N   0  0  0  0  0  0  0  0  0  0  0  0
    9.8009   11.0157   23.2783 C   0  0  0  0  0  0  0  0  0  0  0  0
    9.4295   12.1553   23.9598 C   0  0  0  0  0  0  0  0  0  0  0  0
   10.0056   13.4602   23.7736 C   0  0  0  0  0  0  0  0  0  0  0  0
   10.4707   14.0498   24.6614 O   0  0  0  0  0  0  0  0  0  0  0  0
    9.9320   13.8035   22.2842 N   0  0  0  0  0  0  0  0  0  0  0  0
   10.3278   14.9802   21.5843 C   0  0  0  0  0  0  0  0  0  0  0  0
   11.7674   15.2943   21.9377 C   0  0  0  0  0  0  0  0  0  0  0  0
   12.7204   14.4349   21.1409 C   0  0  0  0  0  0  0  0  0  0  0  0
   12.6249   13.0834   21.5531 O   0  0  0  0  0  0  0  0  0  0  0  0
    8.4013   11.8118   24.8632 C   0  0  0  0  0  0  0  0  0  0  0  0
    7.6241   12.5577   25.7719 C   0  0  0  0  0  0  0  0  0  0  0  0
    6.6556   11.9016   26.5269 C   0  0  0  0  0  0  0  0  0  0  0  0
    5.6229   12.8801   27.7714 Br  0  0  0  0  0  0  0  0  0  0  0  0
    6.4474   10.5369   26.3832 C   0  0  0  0  0  0  0  0  0  0  0  0
    7.2051    9.7942   25.4747 C   0  0  0  0  0  0  0  0  0  0  0  0
    8.1881   10.4412   24.7264 C   0  0  0  0  0  0  0  0  0  0  0  0
  1  2  1  0
  2  3  1  0
  3  4  2  0
  4  5  1  0
  5  6  2  0
  5  7  1  0
  7  8  1  0
  8  9  1  0
  9 10  1  0
 10 11  1  0
  4 12  1  0
 12 13  2  0
 13 14  1  0
 14 15  1  0
 14 16  2  0
 16 17  1  0
 17 18  2  0
 18  2  1  0
 18 12  1  0
M  END
>  <alias>  (1224) 
None

>  <rmsd(smina/fragmenstein)>  (1224) 
0.499

>  <smiles>  (1224) 
Cn1cc(C(=O)NCCCO)c2cc(Br)ccc21

>  <gnina_score>  (1224) 
5.386

>  <inspiration_score>  (1224) 
None

>  <energy_score>  (1224) 
-6.5664

>  <distance_score>  (1224) 
0.916762

>  <gnina_score_min>  (1224) 
5.421

>  <inchikey>  (1224) 
QNGXEJOPIAKKFM-UHFFFAOYSA-N

>  <exports>  (1224) 
['/opt/xchem-fragalysis-2/maxwin/BulkDock/OUTPUTS/openbind_a71ev2a_c2_elabs_1LOUU54.sdf', '/opt/xchem-fragalysis-2/maxwin/BulkDock/OUTPUTS/openbind_a71ev2a_c2_elabs_1LSYIDY.sdf']

>  <name>  (1224) 
P577091

>  <ref_pdb>  (1224) 
A3066a

>  <subsites>  (1224) 
None

>  <HIPPO Pose ID>  (1224) 
577091

>  <ref_mols>  (1224) 
A3066a

>  <HIPPO Compound ID>  (1224) 
350439

>  <tags>  (1224) 
openbind_a71ev2a_c2_elabs,syndirella_product,openbind_a71ev2a_c2_elabs_fragonly_scored_top80percent,openbind_a71ev2a_c2_elabs_scored,BulkDock Fragalysis export,openbind_a71ev2a_c2_elabs_scored_top80percent,openbind_a71ev2a_c2_elabs_activefrags_only_scored_5.2plus,syndirella_placed

>  <smina_score_min>  (1224) 
-6.229

$$$$
P577092
     RDKit          3D

 18 19  0  0  0  0  0  0  0  0999 V2000
    9.4203    8.4559   23.3635 C   0  0  0  0  0  0  0  0  0  0  0  0
    9.2419    9.8626   23.6312 N   0  0  0  0  0  0  0  0  0  0  0  0
    9.9659   10.8387   23.0095 C   0  0  0  0  0  0  0  0  0  0  0  0
    9.6656   12.0477   23.5936 C   0  0  0  0  0  0  0  0  0  0  0  0
   10.2846   13.3392   23.3324 C   0  0  0  0  0  0  0  0  0  0  0  0
   10.3353   14.1077   24.2065 O   0  0  0  0  0  0  0  0  0  0  0  0
   10.7168   13.4715   21.8621 N   0  0  0  0  0  0  0  0  0  0  0  0
   11.2173   14.6124   21.1298 C   0  0  0  0  0  0  0  0  0  0  0  0
   10.0363   15.5770   20.9663 C   0  0  0  0  0  0  0  0  0  0  0  0
   11.7367   14.2630   19.7351 C   0  0  0  0  0  0  0  0  0  0  0  0
   12.3781   15.1453   21.9644 C   0  0  0  0  0  0  0  0  0  0  0  0
    8.6251   11.7974   24.5440 C   0  0  0  0  0  0  0  0  0  0  0  0
    7.8681   12.6268   25.4015 C   0  0  0  0  0  0  0  0  0  0  0  0
    6.8914   12.0581   26.2196 C   0  0  0  0  0  0  0  0  0  0  0  0
    5.8887   13.1632   27.3798 Br  0  0  0  0  0  0  0  0  0  0  0  0
    6.6524   10.6912   26.1985 C   0  0  0  0  0  0  0  0  0  0  0  0
    7.3884    9.8586   25.3535 C   0  0  0  0  0  0  0  0  0  0  0  0
    8.3725   10.4253   24.5370 C   0  0  0  0  0  0  0  0  0  0  0  0
  1  2  1  0
  2  3  1  0
  3  4  2  0
  4  5  1  0
  5  6  2  0
  5  7  1  0
  7  8  1  0
  8  9  1  0
  8 10  1  0
  8 11  1  0
  4 12  1  0
 12 13  2  0
 13 14  1  0
 14 15  1  0
 14 16  2  0
 16 17  1  0
 17 18  2  0
 18  2  1  0
 18 12  1  0
M  END
>  <alias>  (1225) 
None

>  <rmsd(smina/fragmenstein)>  (1225) 
0.238

>  <smiles>  (1225) 
Cn1cc(C(=O)NC(C)(C)C)c2cc(Br)ccc21

>  <gnina_score>  (1225) 
5.572

>  <inspiration_score>  (1225) 
None

>  <energy_score>  (1225) 
-4.988369

>  <distance_score>  (1225) 
0.608517

>  <gnina_score_min>  (1225) 
5.54

>  <inchikey>  (1225) 
SBEAHHQWXQFTJT-UHFFFAOYSA-N

>  <exports>  (1225) 
['/opt/xchem-fragalysis-2/maxwin/BulkDock/OUTPUTS/openbind_a71ev2a_c2_elabs_1LOUU54.sdf', '/opt/xchem-fragalysis-2/maxwin/BulkDock/OUTPUTS/openbind_a71ev2a_c2_elabs_1LSYIDY.sdf']

>  <name>  (1225) 
P577092

>  <ref_pdb>  (1225) 
A3066a

>  <subsites>  (1225) 
None

>  <HIPPO Pose ID>  (1225) 
577092

>  <ref_mols>  (1225) 
A3066a

>  <HIPPO Compound ID>  (1225) 
350441

>  <tags>  (1225) 
openbind_a71ev2a_c2_elabs,syndirella_product,openbind_a71ev2a_c2_elabs_fragonly_scored_top80percent,BulkDock Fragalysis export,openbind_a71ev2a_c2_elabs_scored,openbind_a71ev2a_c2_elabs_scored_top80percent,openbind_a71ev2a_c2_elabs_activefrags_only_scored_5.2plus,openbind_a71ev2a_c2_elabs_activefrags_only_scored_5.5plus,syndirella_placed

>  <smina_score_min>  (1225) 
-6.964

$$$$
P577093
     RDKit          3D

 18 19  0  0  0  0  0  0  0  0999 V2000
    9.4222    8.5383   23.4777 C   0  0  0  0  0  0  0  0  0  0  0  0
    9.1149    9.9257   23.7392 N   0  0  0  0  0  0  0  0  0  0  0  0
    9.7296   10.9562   23.0879 C   0  0  0  0  0  0  0  0  0  0  0  0
    9.1960   12.1478   23.5402 C   0  0  0  0  0  0  0  0  0  0  0  0
    9.5168   13.5041   23.1010 C   0  0  0  0  0  0  0  0  0  0  0  0
    9.2621   14.3899   23.8054 O   0  0  0  0  0  0  0  0  0  0  0  0
   10.2462   13.4840   21.7600 N   0  0  0  0  0  0  0  0  0  0  0  0
   10.8976   14.5272   21.0464 C   0  0  0  0  0  0  0  0  0  0  0  0
   12.3913   14.3222   21.2285 C   0  0  0  0  0  0  0  0  0  0  0  0
   12.8377   14.6137   22.6411 C   0  0  0  0  0  0  0  0  0  0  0  0
   12.7144   13.1048   23.8692 Br  0  0  0  0  0  0  0  0  0  0  0  0
    8.2862   11.8156   24.5882 C   0  0  0  0  0  0  0  0  0  0  0  0
    7.4894   12.5851   25.4657 C   0  0  0  0  0  0  0  0  0  0  0  0
    6.6275   11.9429   26.3511 C   0  0  0  0  0  0  0  0  0  0  0  0
    5.5808   12.9673   27.5458 Br  0  0  0  0  0  0  0  0  0  0  0  0
    6.5192   10.5609   26.3553 C   0  0  0  0  0  0  0  0  0  0  0  0
    7.2978    9.7900   25.4907 C   0  0  0  0  0  0  0  0  0  0  0  0
    8.2043   10.4249   24.6409 C   0  0  0  0  0  0  0  0  0  0  0  0
  1  2  1  0
  2  3  1  0
  3  4  2  0
  4  5  1  0
  5  6  2  0
  5  7  1  0
  7  8  1  0
  8  9  1  0
  9 10  1  0
 10 11  1  0
  4 12  1  0
 12 13  2  0
 13 14  1  0
 14 15  1  0
 14 16  2  0
 16 17  1  0
 17 18  2  0
 18  2  1  0
 18 12  1  0
M  END
>  <alias>  (1226) 
None

>  <rmsd(smina/fragmenstein)>  (1226) 
0.28

>  <smiles>  (1226) 
Cn1cc(C(=O)NCCCBr)c2cc(Br)ccc21

>  <gnina_score>  (1226) 
5.642

>  <inspiration_score>  (1226) 
None

>  <energy_score>  (1226) 
-6.313606

>  <distance_score>  (1226) 
1.01999

>  <gnina_score_min>  (1226) 
5.571

>  <inchikey>  (1226) 
HIXJFDZTDGLOFU-UHFFFAOYSA-N

>  <exports>  (1226) 
['/opt/xchem-fragalysis-2/maxwin/BulkDock/OUTPUTS/openbind_a71ev2a_c2_elabs_1LOUU54.sdf', '/opt/xchem-fragalysis-2/maxwin/BulkDock/OUTPUTS/openbind_a71ev2a_c2_elabs_1LSYIDY.sdf']

>  <name>  (1226) 
P577093

>  <ref_pdb>  (1226) 
A3066a

>  <subsites>  (1226) 
None

>  <HIPPO Pose ID>  (1226) 
577093

>  <ref_mols>  (1226) 
A3066a

>  <HIPPO Compound ID>  (1226) 
350443

>  <tags>  (1226) 
openbind_a71ev2a_c2_elabs,syndirella_product,openbind_a71ev2a_c2_elabs_fragonly_scored_top80percent,BulkDock Fragalysis export,openbind_a71ev2a_c2_elabs_scored,openbind_a71ev2a_c2_elabs_scored_top80percent,openbind_a71ev2a_c2_elabs_activefrags_only_scored_5.2plus,openbind_a71ev2a_c2_elabs_activefrags_only_scored_5.5plus,syndirella_placed

>  <smina_score_min>  (1226) 
-5.869

$$$$
P577094
     RDKit          3D

 18 19  0  0  0  0  0  0  0  0999 V2000
   12.5850   14.1360   20.6547 C   0  0  0  0  0  0  0  0  0  0  0  0
   11.2468   14.6445   20.1590 C   0  0  0  0  0  0  0  0  0  0  0  0
   10.4039   15.1564   21.3191 C   0  0  1  0  0  0  0  0  0  0  0  0
    9.2166   15.9356   20.7843 C   0  0  0  0  0  0  0  0  0  0  0  0
    9.9581   14.0338   22.1025 N   0  0  0  0  0  0  0  0  0  0  0  0
   10.2708   13.6431   23.5508 C   0  0  0  0  0  0  0  0  0  0  0  0
   10.8776   14.2049   24.3702 O   0  0  0  0  0  0  0  0  0  0  0  0
    9.6758   12.3395   23.7967 C   0  0  0  0  0  0  0  0  0  0  0  0
   10.0177   11.1865   23.1206 C   0  0  0  0  0  0  0  0  0  0  0  0
    9.2942   10.1476   23.6310 N   0  0  0  0  0  0  0  0  0  0  0  0
    9.4352    8.7729   23.1990 C   0  0  0  0  0  0  0  0  0  0  0  0
    8.4119   10.6209   24.5790 C   0  0  0  0  0  0  0  0  0  0  0  0
    7.4351    9.9627   25.3348 C   0  0  0  0  0  0  0  0  0  0  0  0
    6.6611   10.7147   26.2206 C   0  0  0  0  0  0  0  0  0  0  0  0
    6.8597   12.0850   26.3428 C   0  0  0  0  0  0  0  0  0  0  0  0
    5.7995   13.0739   27.5567 Br  0  0  0  0  0  0  0  0  0  0  0  0
    7.8372   12.7429   25.5936 C   0  0  0  0  0  0  0  0  0  0  0  0
    8.6330   11.9975   24.7004 C   0  0  0  0  0  0  0  0  0  0  0  0
  1  2  1  0
  2  3  1  0
  3  4  1  6
  3  5  1  0
  5  6  1  0
  6  7  2  0
  6  8  1  0
  8  9  2  0
  9 10  1  0
 10 11  1  0
 10 12  1  0
 12 13  2  0
 13 14  1  0
 14 15  2  0
 15 16  1  0
 15 17  1  0
 17 18  2  0
 18  8  1  0
 18 12  1  0
M  END
>  <alias>  (1227) 
None

>  <rmsd(smina/fragmenstein)>  (1227) 
0.591

>  <smiles>  (1227) 
CC[C@@H](C)NC(=O)c1cn(C)c2ccc(Br)cc12

>  <gnina_score>  (1227) 
5.385

>  <inspiration_score>  (1227) 
None

>  <energy_score>  (1227) 
-16.659594

>  <distance_score>  (1227) 
0.823321

>  <gnina_score_min>  (1227) 
5.491

>  <inchikey>  (1227) 
KPPRITMFLRKCQY-SECBINFHSA-N

>  <exports>  (1227) 
['/opt/xchem-fragalysis-2/maxwin/BulkDock/OUTPUTS/openbind_a71ev2a_c2_elabs_1LOUU54.sdf', '/opt/xchem-fragalysis-2/maxwin/BulkDock/OUTPUTS/openbind_a71ev2a_c2_elabs_1LSYIDY.sdf']

>  <name>  (1227) 
P577094

>  <ref_pdb>  (1227) 
A3066a

>  <subsites>  (1227) 
None

>  <HIPPO Pose ID>  (1227) 
577094

>  <ref_mols>  (1227) 
A3066a

>  <HIPPO Compound ID>  (1227) 
350444

>  <tags>  (1227) 
openbind_a71ev2a_c2_elabs,syndirella_product,openbind_a71ev2a_c2_elabs_fragonly_scored_top80percent,openbind_a71ev2a_c2_elabs_scored,BulkDock Fragalysis export,openbind_a71ev2a_c2_elabs_scored_top80percent,openbind_a71ev2a_c2_elabs_activefrags_only_scored_5.2plus,syndirella_placed

>  <smina_score_min>  (1227) 
-7.268

$$$$
P577095
     RDKit          3D

 18 19  0  0  0  0  0  0  0  0999 V2000
    8.6057   17.2016   20.5950 C   0  0  0  0  0  0  0  0  0  0  0  0
    9.6633   16.1985   20.6756 C   0  0  0  0  0  0  0  0  0  0  0  0
   10.5484   15.4137   20.8805 C   0  0  0  0  0  0  0  0  0  0  0  0
   11.6271   14.5150   21.2892 C   0  0  0  0  0  0  0  0  0  0  0  0
   11.0194   13.4440   22.0010 N   0  0  0  0  0  0  0  0  0  0  0  0
   10.6043   13.3345   23.4718 C   0  0  0  0  0  0  0  0  0  0  0  0
   10.7619   14.0733   24.3576 O   0  0  0  0  0  0  0  0  0  0  0  0
    9.8412   12.1016   23.6921 C   0  0  0  0  0  0  0  0  0  0  0  0
   10.0348   10.8870   23.0684 C   0  0  0  0  0  0  0  0  0  0  0  0
    9.2451    9.9497   23.6679 N   0  0  0  0  0  0  0  0  0  0  0  0
    9.3396    8.5361   23.3910 C   0  0  0  0  0  0  0  0  0  0  0  0
    8.4023   10.5551   24.5702 C   0  0  0  0  0  0  0  0  0  0  0  0
    7.3750   10.0330   25.3662 C   0  0  0  0  0  0  0  0  0  0  0  0
    6.6757   10.9046   26.2026 C   0  0  0  0  0  0  0  0  0  0  0  0
    6.9921   12.2573   26.2342 C   0  0  0  0  0  0  0  0  0  0  0  0
    6.0298   13.4105   27.3828 Br  0  0  0  0  0  0  0  0  0  0  0  0
    8.0206   12.7761   25.4447 C   0  0  0  0  0  0  0  0  0  0  0  0
    8.7485   11.9103   24.6000 C   0  0  0  0  0  0  0  0  0  0  0  0
  1  2  1  0
  2  3  3  0
  3  4  1  0
  4  5  1  0
  5  6  1  0
  6  7  2  0
  6  8  1  0
  8  9  2  0
  9 10  1  0
 10 11  1  0
 10 12  1  0
 12 13  2  0
 13 14  1  0
 14 15  2  0
 15 16  1  0
 15 17  1  0
 17 18  2  0
 18  8  1  0
 18 12  1  0
M  END
>  <alias>  (1228) 
None

>  <rmsd(smina/fragmenstein)>  (1228) 
0.284

>  <smiles>  (1228) 
CC#CCNC(=O)c1cn(C)c2ccc(Br)cc12

>  <gnina_score>  (1228) 
5.525

>  <inspiration_score>  (1228) 
None

>  <energy_score>  (1228) 
-1.424701

>  <distance_score>  (1228) 
0.415889

>  <gnina_score_min>  (1228) 
5.564

>  <inchikey>  (1228) 
SHSRRPMPBPHZFQ-UHFFFAOYSA-N

>  <exports>  (1228) 
['/opt/xchem-fragalysis-2/maxwin/BulkDock/OUTPUTS/openbind_a71ev2a_c2_elabs_1LOUU54.sdf', '/opt/xchem-fragalysis-2/maxwin/BulkDock/OUTPUTS/openbind_a71ev2a_c2_elabs_1LSYIDY.sdf']

>  <name>  (1228) 
P577095

>  <ref_pdb>  (1228) 
A3066a

>  <subsites>  (1228) 
None

>  <HIPPO Pose ID>  (1228) 
577095

>  <ref_mols>  (1228) 
A3066a

>  <HIPPO Compound ID>  (1228) 
350446

>  <tags>  (1228) 
openbind_a71ev2a_c2_elabs,syndirella_product,openbind_a71ev2a_c2_elabs_fragonly_scored_top80percent,BulkDock Fragalysis export,openbind_a71ev2a_c2_elabs_scored,openbind_a71ev2a_c2_elabs_scored_top80percent,openbind_a71ev2a_c2_elabs_activefrags_only_scored_5.2plus,openbind_a71ev2a_c2_elabs_activefrags_only_scored_5.5plus,syndirella_placed

>  <smina_score_min>  (1228) 
-7.274

$$$$
P577096
     RDKit          3D

 18 19  0  0  0  0  0  0  0  0999 V2000
    9.9903   15.3301   20.1767 C   0  0  0  0  0  0  0  0  0  0  0  0
   11.3355   14.6572   20.0819 C   0  0  0  0  0  0  0  0  0  0  0  0
   11.8257   14.3356   18.9991 O   0  0  0  0  0  0  0  0  0  0  0  0
   12.0478   14.3675   21.3881 C   0  0  0  0  0  0  0  0  0  0  0  0
   11.3077   13.3451   22.0699 N   0  0  0  0  0  0  0  0  0  0  0  0
   10.6181   13.3595   23.4377 C   0  0  0  0  0  0  0  0  0  0  0  0
   10.6033   14.1757   24.2660 O   0  0  0  0  0  0  0  0  0  0  0  0
    9.8467   12.1237   23.6526 C   0  0  0  0  0  0  0  0  0  0  0  0
   10.0403   10.9002   23.0447 C   0  0  0  0  0  0  0  0  0  0  0  0
    9.2516    9.9661   23.6526 N   0  0  0  0  0  0  0  0  0  0  0  0
    9.3506    8.5489   23.3919 C   0  0  0  0  0  0  0  0  0  0  0  0
    8.4085   10.5779   24.5488 C   0  0  0  0  0  0  0  0  0  0  0  0
    7.3866   10.0573   25.3537 C   0  0  0  0  0  0  0  0  0  0  0  0
    6.6867   10.9320   26.1857 C   0  0  0  0  0  0  0  0  0  0  0  0
    6.9984   12.2855   26.2054 C   0  0  0  0  0  0  0  0  0  0  0  0
    6.0373   13.4450   27.3485 Br  0  0  0  0  0  0  0  0  0  0  0  0
    8.0218   12.8021   25.4071 C   0  0  0  0  0  0  0  0  0  0  0  0
    8.7499   11.9350   24.5628 C   0  0  0  0  0  0  0  0  0  0  0  0
  1  2  1  0
  2  3  2  0
  2  4  1  0
  4  5  1  0
  5  6  1  0
  6  7  2  0
  6  8  1  0
  8  9  2  0
  9 10  1  0
 10 11  1  0
 10 12  1  0
 12 13  2  0
 13 14  1  0
 14 15  2  0
 15 16  1  0
 15 17  1  0
 17 18  2  0
 18  8  1  0
 18 12  1  0
M  END
>  <alias>  (1229) 
None

>  <rmsd(smina/fragmenstein)>  (1229) 
0.454

>  <smiles>  (1229) 
CC(=O)CNC(=O)c1cn(C)c2ccc(Br)cc12

>  <gnina_score>  (1229) 
5.515

>  <inspiration_score>  (1229) 
None

>  <energy_score>  (1229) 
-4.50398

>  <distance_score>  (1229) 
0.352826

>  <gnina_score_min>  (1229) 
5.47

>  <inchikey>  (1229) 
LJSGIJNRPWGHTN-UHFFFAOYSA-N

>  <exports>  (1229) 
['/opt/xchem-fragalysis-2/maxwin/BulkDock/OUTPUTS/openbind_a71ev2a_c2_elabs_1LOUU54.sdf', '/opt/xchem-fragalysis-2/maxwin/BulkDock/OUTPUTS/openbind_a71ev2a_c2_elabs_1LSYIDY.sdf']

>  <name>  (1229) 
P577096

>  <ref_pdb>  (1229) 
A3066a

>  <subsites>  (1229) 
None

>  <HIPPO Pose ID>  (1229) 
577096

>  <ref_mols>  (1229) 
A3066a

>  <HIPPO Compound ID>  (1229) 
350447

>  <tags>  (1229) 
openbind_a71ev2a_c2_elabs,syndirella_product,openbind_a71ev2a_c2_elabs_fragonly_scored_top80percent,openbind_a71ev2a_c2_elabs_scored,BulkDock Fragalysis export,openbind_a71ev2a_c2_elabs_scored_top80percent,openbind_a71ev2a_c2_elabs_activefrags_only_scored_5.2plus,syndirella_placed

>  <smina_score_min>  (1229) 
-7.195

$$$$
P577097
     RDKit          3D

 18 20  0  0  0  0  0  0  0  0999 V2000
    8.7253    8.6431   23.9758 C   0  0  0  0  0  0  0  0  0  0  0  0
    8.6487   10.0542   24.2586 N   0  0  0  0  0  0  0  0  0  0  0  0
    9.4367   10.9812   23.6752 C   0  0  0  0  0  0  0  0  0  0  0  0
   10.3737   10.4642   22.3982 Cl  0  0  0  0  0  0  0  0  0  0  0  0
    9.3262   12.1819   24.3118 C   0  0  0  0  0  0  0  0  0  0  0  0
   10.1217   13.3728   24.0783 C   0  0  0  0  0  0  0  0  0  0  0  0
   10.4172   14.0715   24.9775 O   0  0  0  0  0  0  0  0  0  0  0  0
   10.3504   13.5374   22.6053 N   0  0  0  0  0  0  0  0  0  0  0  0
   11.1175   14.5988   21.8331 C   0  0  0  0  0  0  0  0  0  0  0  0
   10.0591   14.6160   20.7795 C   0  0  0  0  0  0  0  0  0  0  0  0
    9.6570   16.2276   20.0764 S   0  0  0  0  0  0  0  0  0  0  0  0
    9.1726   14.2858   21.9283 C   0  0  0  0  0  0  0  0  0  0  0  0
    8.2534   12.0156   25.2334 C   0  0  0  0  0  0  0  0  0  0  0  0
    7.5927   12.8957   26.1116 C   0  0  0  0  0  0  0  0  0  0  0  0
    6.5634   12.4134   26.9191 C   0  0  0  0  0  0  0  0  0  0  0  0
    6.1790   11.0796   26.8513 C   0  0  0  0  0  0  0  0  0  0  0  0
    6.7931   10.1939   25.9661 C   0  0  0  0  0  0  0  0  0  0  0  0
    7.8385   10.6778   25.1749 C   0  0  0  0  0  0  0  0  0  0  0  0
  1  2  1  0
  2  3  1  0
  3  4  1  0
  3  5  2  0
  5  6  1  0
  6  7  2  0
  6  8  1  0
  8  9  1  0
  9 10  1  0
 10 11  1  0
 10 12  1  0
  5 13  1  0
 13 14  2  0
 14 15  1  0
 15 16  2  0
 16 17  1  0
 17 18  2  0
 18  2  1  0
 12  8  1  0
 18 13  1  0
M  END
>  <alias>  (1230) 
None

>  <rmsd(smina/fragmenstein)>  (1230) 
0.208

>  <smiles>  (1230) 
Cn1c(Cl)c(C(=O)N2CC(S)C2)c2ccccc21

>  <gnina_score>  (1230) 
5.397

>  <inspiration_score>  (1230) 
None

>  <energy_score>  (1230) 
-9.505076

>  <distance_score>  (1230) 
1.045867

>  <gnina_score_min>  (1230) 
5.439

>  <inchikey>  (1230) 
XZAASZFQVXNJNW-UHFFFAOYSA-N

>  <exports>  (1230) 
['/opt/xchem-fragalysis-2/maxwin/BulkDock/OUTPUTS/openbind_a71ev2a_c2_elabs_1LOUU54.sdf', '/opt/xchem-fragalysis-2/maxwin/BulkDock/OUTPUTS/openbind_a71ev2a_c2_elabs_1LSYIDY.sdf']

>  <name>  (1230) 
P577097

>  <ref_pdb>  (1230) 
A3066a

>  <subsites>  (1230) 
None

>  <HIPPO Pose ID>  (1230) 
577097

>  <ref_mols>  (1230) 
A3066a

>  <HIPPO Compound ID>  (1230) 
350450

>  <tags>  (1230) 
openbind_a71ev2a_c2_elabs,syndirella_product,openbind_a71ev2a_c2_elabs_fragonly_scored_top80percent,openbind_a71ev2a_c2_elabs_scored,BulkDock Fragalysis export,openbind_a71ev2a_c2_elabs_scored_top80percent,openbind_a71ev2a_c2_elabs_activefrags_only_scored_5.2plus,syndirella_placed

>  <smina_score_min>  (1230) 
-5.886

$$$$
P577098
     RDKit          3D

 18 19  0  0  0  0  0  0  0  0999 V2000
   12.6578   14.0695   22.4924 C   0  0  0  0  0  0  0  0  0  0  0  0
   11.7773   14.9469   22.0041 C   0  0  0  0  0  0  0  0  0  0  0  0
   12.1903   16.2249   21.9435 F   0  0  0  0  0  0  0  0  0  0  0  0
   10.3713   14.6636   21.5956 C   0  0  0  0  0  0  0  0  0  0  0  0
    9.8873   13.5773   22.3810 N   0  0  0  0  0  0  0  0  0  0  0  0
    9.3124   13.5540   23.7961 C   0  0  0  0  0  0  0  0  0  0  0  0
    9.2101   14.4026   24.5806 O   0  0  0  0  0  0  0  0  0  0  0  0
    8.8694   12.2266   24.1641 C   0  0  0  0  0  0  0  0  0  0  0  0
    9.2675   11.0257   23.6568 C   0  0  0  0  0  0  0  0  0  0  0  0
   10.3875   10.6367   22.4821 Cl  0  0  0  0  0  0  0  0  0  0  0  0
    8.6067   10.0061   24.2447 N   0  0  0  0  0  0  0  0  0  0  0  0
    8.8403    8.6143   23.9444 C   0  0  0  0  0  0  0  0  0  0  0  0
    7.7286   10.5316   25.1625 C   0  0  0  0  0  0  0  0  0  0  0  0
    6.7650    9.9377   25.9750 C   0  0  0  0  0  0  0  0  0  0  0  0
    6.0809   10.7294   26.8966 C   0  0  0  0  0  0  0  0  0  0  0  0
    6.2960   12.0974   26.9617 C   0  0  0  0  0  0  0  0  0  0  0  0
    7.1994   12.7038   26.0942 C   0  0  0  0  0  0  0  0  0  0  0  0
    7.9305   11.9144   25.1836 C   0  0  0  0  0  0  0  0  0  0  0  0
  1  2  2  0
  2  3  1  0
  2  4  1  0
  4  5  1  0
  5  6  1  0
  6  7  2  0
  6  8  1  0
  8  9  2  0
  9 10  1  0
  9 11  1  0
 11 12  1  0
 11 13  1  0
 13 14  2  0
 14 15  1  0
 15 16  2  0
 16 17  1  0
 17 18  2  0
 18  8  1  0
 18 13  1  0
M  END
>  <alias>  (1231) 
None

>  <rmsd(smina/fragmenstein)>  (1231) 
0.397

>  <smiles>  (1231) 
C=C(F)CNC(=O)c1c(Cl)n(C)c2ccccc12

>  <gnina_score>  (1231) 
5.262

>  <inspiration_score>  (1231) 
None

>  <energy_score>  (1231) 
-7.875995

>  <distance_score>  (1231) 
1.373105

>  <gnina_score_min>  (1231) 
5.242

>  <inchikey>  (1231) 
NIEKKHCYFOJOAB-UHFFFAOYSA-N

>  <exports>  (1231) 
['/opt/xchem-fragalysis-2/maxwin/BulkDock/OUTPUTS/openbind_a71ev2a_c2_elabs_1LOUU54.sdf', '/opt/xchem-fragalysis-2/maxwin/BulkDock/OUTPUTS/openbind_a71ev2a_c2_elabs_1LSYIDY.sdf']

>  <name>  (1231) 
P577098

>  <ref_pdb>  (1231) 
A3066a

>  <subsites>  (1231) 
None

>  <HIPPO Pose ID>  (1231) 
577098

>  <ref_mols>  (1231) 
A3066a

>  <HIPPO Compound ID>  (1231) 
350451

>  <tags>  (1231) 
openbind_a71ev2a_c2_elabs,syndirella_product,openbind_a71ev2a_c2_elabs_fragonly_scored_top80percent,openbind_a71ev2a_c2_elabs_scored,BulkDock Fragalysis export,openbind_a71ev2a_c2_elabs_scored_top80percent,openbind_a71ev2a_c2_elabs_activefrags_only_scored_5.2plus,syndirella_placed

>  <smina_score_min>  (1231) 
-4.951

$$$$
P577100
     RDKit          3D

 18 19  0  0  0  0  0  0  0  0999 V2000
   11.4024   14.6025   19.5009 C   0  0  0  0  0  0  0  0  0  0  0  0
   11.1435   14.2968   20.9592 C   0  0  1  0  0  0  0  0  0  0  0  0
   12.5800   14.9247   22.0796 Br  0  0  0  0  0  0  0  0  0  0  0  0
    9.7879   14.7727   21.4612 C   0  0  0  0  0  0  0  0  0  0  0  0
    9.2815   13.8071   22.4055 N   0  0  0  0  0  0  0  0  0  0  0  0
    9.6607   13.5511   23.8702 C   0  0  0  0  0  0  0  0  0  0  0  0
   10.3865   14.1271   24.5731 O   0  0  0  0  0  0  0  0  0  0  0  0
    9.0155   12.3308   24.2816 C   0  0  0  0  0  0  0  0  0  0  0  0
    9.3127   11.1194   23.7295 C   0  0  0  0  0  0  0  0  0  0  0  0
   10.3897   10.7226   22.5173 Cl  0  0  0  0  0  0  0  0  0  0  0  0
    8.5991   10.1316   24.3051 N   0  0  0  0  0  0  0  0  0  0  0  0
    8.7643    8.7303   23.9987 C   0  0  0  0  0  0  0  0  0  0  0  0
    7.7505   10.7028   25.2275 C   0  0  0  0  0  0  0  0  0  0  0  0
    6.7624   10.1463   26.0415 C   0  0  0  0  0  0  0  0  0  0  0  0
    6.1070   10.9830   26.9450 C   0  0  0  0  0  0  0  0  0  0  0  0
    6.3883   12.3431   27.0049 C   0  0  0  0  0  0  0  0  0  0  0  0
    7.3407   12.9077   26.1589 C   0  0  0  0  0  0  0  0  0  0  0  0
    8.0350   12.0795   25.2615 C   0  0  0  0  0  0  0  0  0  0  0  0
  2  1  1  6
  2  3  1  0
  2  4  1  0
  4  5  1  0
  5  6  1  0
  6  7  2  0
  6  8  1  0
  8  9  2  0
  9 10  1  0
  9 11  1  0
 11 12  1  0
 11 13  1  0
 13 14  2  0
 14 15  1  0
 15 16  2  0
 16 17  1  0
 17 18  2  0
 18  8  1  0
 18 13  1  0
M  END
>  <alias>  (1232) 
None

>  <rmsd(smina/fragmenstein)>  (1232) 
0.558

>  <smiles>  (1232) 
C[C@@H](Br)CNC(=O)c1c(Cl)n(C)c2ccccc12

>  <gnina_score>  (1232) 
5.227

>  <inspiration_score>  (1232) 
None

>  <energy_score>  (1232) 
-4.255117

>  <distance_score>  (1232) 
1.416077

>  <gnina_score_min>  (1232) 
5.217

>  <inchikey>  (1232) 
ZWUHHOOUXOXIAB-MRVPVSSYSA-N

>  <exports>  (1232) 
['/opt/xchem-fragalysis-2/maxwin/BulkDock/OUTPUTS/openbind_a71ev2a_c2_elabs_1LOUU54.sdf', '/opt/xchem-fragalysis-2/maxwin/BulkDock/OUTPUTS/openbind_a71ev2a_c2_elabs_1LSYIDY.sdf']

>  <name>  (1232) 
P577100

>  <ref_pdb>  (1232) 
A3066a

>  <subsites>  (1232) 
None

>  <HIPPO Pose ID>  (1232) 
577100

>  <ref_mols>  (1232) 
A3066a

>  <HIPPO Compound ID>  (1232) 
350452

>  <tags>  (1232) 
openbind_a71ev2a_c2_elabs,syndirella_product,openbind_a71ev2a_c2_elabs_fragonly_scored_top80percent,openbind_a71ev2a_c2_elabs_scored,BulkDock Fragalysis export,openbind_a71ev2a_c2_elabs_scored_top80percent,openbind_a71ev2a_c2_elabs_activefrags_only_scored_5.2plus,syndirella_placed

>  <smina_score_min>  (1232) 
-5.351

$$$$
P577101
     RDKit          3D

 18 19  0  0  0  0  0  0  0  0999 V2000
   11.3007   14.7972   19.4174 C   0  0  0  0  0  0  0  0  0  0  0  0
   11.0992   14.4444   20.8750 C   0  0  1  0  0  0  0  0  0  0  0  0
   12.2704   15.1623   22.0518 S   0  0  0  0  0  0  0  0  0  0  0  0
    9.6585   14.6556   21.3428 C   0  0  0  0  0  0  0  0  0  0  0  0
    9.3979   13.6269   22.3024 N   0  0  0  0  0  0  0  0  0  0  0  0
    8.7434   13.6962   23.6758 C   0  0  0  0  0  0  0  0  0  0  0  0
    8.3763   14.6095   24.2888 O   0  0  0  0  0  0  0  0  0  0  0  0
    8.5918   12.3470   24.1943 C   0  0  0  0  0  0  0  0  0  0  0  0
    9.1975   11.1931   23.7702 C   0  0  0  0  0  0  0  0  0  0  0  0
   10.4512   10.9388   22.6832 Cl  0  0  0  0  0  0  0  0  0  0  0  0
    8.6045   10.1084   24.3190 N   0  0  0  0  0  0  0  0  0  0  0  0
    8.9121    8.7393   23.9664 C   0  0  0  0  0  0  0  0  0  0  0  0
    7.6787   10.5563   25.2335 C   0  0  0  0  0  0  0  0  0  0  0  0
    6.7637    9.8847   26.0366 C   0  0  0  0  0  0  0  0  0  0  0  0
    6.0231   10.6056   26.9721 C   0  0  0  0  0  0  0  0  0  0  0  0
    6.1240   11.9857   27.0497 C   0  0  0  0  0  0  0  0  0  0  0  0
    6.9531   12.6726   26.1703 C   0  0  0  0  0  0  0  0  0  0  0  0
    7.7434   11.9527   25.2540 C   0  0  0  0  0  0  0  0  0  0  0  0
  2  1  1  6
  2  3  1  0
  2  4  1  0
  4  5  1  0
  5  6  1  0
  6  7  2  0
  6  8  1  0
  8  9  2  0
  9 10  1  0
  9 11  1  0
 11 12  1  0
 11 13  1  0
 13 14  2  0
 14 15  1  0
 15 16  2  0
 16 17  1  0
 17 18  2  0
 18  8  1  0
 18 13  1  0
M  END
>  <alias>  (1233) 
None

>  <rmsd(smina/fragmenstein)>  (1233) 
0.827

>  <smiles>  (1233) 
C[C@@H](S)CNC(=O)c1c(Cl)n(C)c2ccccc12

>  <gnina_score>  (1233) 
5.383

>  <inspiration_score>  (1233) 
None

>  <energy_score>  (1233) 
-3.064579

>  <distance_score>  (1233) 
1.725343

>  <gnina_score_min>  (1233) 
5.265

>  <inchikey>  (1233) 
CYZKGEPTEYDNLQ-MRVPVSSYSA-N

>  <exports>  (1233) 
['/opt/xchem-fragalysis-2/maxwin/BulkDock/OUTPUTS/openbind_a71ev2a_c2_elabs_1LOUU54.sdf', '/opt/xchem-fragalysis-2/maxwin/BulkDock/OUTPUTS/openbind_a71ev2a_c2_elabs_1LSYIDY.sdf']

>  <name>  (1233) 
P577101

>  <ref_pdb>  (1233) 
A3066a

>  <subsites>  (1233) 
None

>  <HIPPO Pose ID>  (1233) 
577101

>  <ref_mols>  (1233) 
A3066a

>  <HIPPO Compound ID>  (1233) 
350454

>  <tags>  (1233) 
openbind_a71ev2a_c2_elabs,syndirella_product,openbind_a71ev2a_c2_elabs_fragonly_scored_top80percent,openbind_a71ev2a_c2_elabs_scored,BulkDock Fragalysis export,openbind_a71ev2a_c2_elabs_scored_top80percent,openbind_a71ev2a_c2_elabs_activefrags_only_scored_5.2plus,syndirella_placed

>  <smina_score_min>  (1233) 
-5.683

$$$$
P577102
     RDKit          3D

 18 19  0  0  0  0  0  0  0  0999 V2000
   11.3803   14.5685   19.1597 C   0  0  0  0  0  0  0  0  0  0  0  0
   10.2173   14.7276   20.1203 C   0  0  0  0  0  0  0  0  0  0  0  0
   10.5428   15.3976   21.4394 C   0  0  0  0  0  0  0  0  0  0  0  0
   11.5052   14.6192   22.3284 C   0  0  0  0  0  0  0  0  0  0  0  0
   10.7890   13.5381   22.9366 N   0  0  0  0  0  0  0  0  0  0  0  0
   10.1794   13.4100   24.3370 C   0  0  0  0  0  0  0  0  0  0  0  0
   10.2267   14.1312   25.2494 O   0  0  0  0  0  0  0  0  0  0  0  0
    9.3477   12.2109   24.4313 C   0  0  0  0  0  0  0  0  0  0  0  0
    9.4537   11.0443   23.7293 C   0  0  0  0  0  0  0  0  0  0  0  0
   10.3977   10.6006   22.4307 Cl  0  0  0  0  0  0  0  0  0  0  0  0
    8.6607   10.0841   24.2530 N   0  0  0  0  0  0  0  0  0  0  0  0
    8.7608    8.6809   23.9293 C   0  0  0  0  0  0  0  0  0  0  0  0
    7.8292   10.6637   25.1778 C   0  0  0  0  0  0  0  0  0  0  0  0
    6.7765   10.1383   25.9313 C   0  0  0  0  0  0  0  0  0  0  0  0
    6.1408   10.9781   26.8449 C   0  0  0  0  0  0  0  0  0  0  0  0
    6.5047   12.3124   26.9696 C   0  0  0  0  0  0  0  0  0  0  0  0
    7.5412   12.8367   26.1993 C   0  0  0  0  0  0  0  0  0  0  0  0
    8.2326   12.0007   25.3001 C   0  0  0  0  0  0  0  0  0  0  0  0
  1  2  1  0
  2  3  1  0
  3  4  1  0
  4  5  1  0
  5  6  1  0
  6  7  2  0
  6  8  1  0
  8  9  2  0
  9 10  1  0
  9 11  1  0
 11 12  1  0
 11 13  1  0
 13 14  2  0
 14 15  1  0
 15 16  2  0
 16 17  1  0
 17 18  2  0
 18  8  1  0
 18 13  1  0
M  END
>  <alias>  (1234) 
None

>  <rmsd(smina/fragmenstein)>  (1234) 
1.586

>  <smiles>  (1234) 
CCCCNC(=O)c1c(Cl)n(C)c2ccccc12

>  <gnina_score>  (1234) 
5.295

>  <inspiration_score>  (1234) 
None

>  <energy_score>  (1234) 
-7.944135

>  <distance_score>  (1234) 
1.041527

>  <gnina_score_min>  (1234) 
5.208

>  <inchikey>  (1234) 
JJTPHVSQLWDTET-UHFFFAOYSA-N

>  <exports>  (1234) 
['/opt/xchem-fragalysis-2/maxwin/BulkDock/OUTPUTS/openbind_a71ev2a_c2_elabs_1LOUU54.sdf', '/opt/xchem-fragalysis-2/maxwin/BulkDock/OUTPUTS/openbind_a71ev2a_c2_elabs_1LSYIDY.sdf']

>  <name>  (1234) 
P577102

>  <ref_pdb>  (1234) 
A3066a

>  <subsites>  (1234) 
None

>  <HIPPO Pose ID>  (1234) 
577102

>  <ref_mols>  (1234) 
A3066a

>  <HIPPO Compound ID>  (1234) 
350455

>  <tags>  (1234) 
openbind_a71ev2a_c2_elabs,syndirella_product,openbind_a71ev2a_c2_elabs_fragonly_scored_top80percent,openbind_a71ev2a_c2_elabs_scored,BulkDock Fragalysis export,openbind_a71ev2a_c2_elabs_scored_top80percent,openbind_a71ev2a_c2_elabs_activefrags_only_scored_5.2plus,syndirella_placed

>  <smina_score_min>  (1234) 
-6.436

$$$$
P577106
     RDKit          3D

 18 19  0  0  0  0  0  0  0  0999 V2000
   12.6575   14.8622   22.2452 C   0  0  0  0  0  0  0  0  0  0  0  0
   11.8253   13.9141   21.4179 C   0  0  2  0  0  0  0  0  0  0  0  0
   11.0384   14.5853   20.2831 C   0  0  0  0  0  0  0  0  0  0  0  0
    9.7138   15.7323   20.7460 S   0  0  0  0  0  0  0  0  0  0  0  0
   10.9941   13.0436   22.2200 N   0  0  0  0  0  0  0  0  0  0  0  0
   10.3707   13.2582   23.6057 C   0  0  0  0  0  0  0  0  0  0  0  0
   10.4884   14.1387   24.3577 O   0  0  0  0  0  0  0  0  0  0  0  0
    9.5038   12.1318   23.9770 C   0  0  0  0  0  0  0  0  0  0  0  0
    9.5111   10.8453   23.5072 C   0  0  0  0  0  0  0  0  0  0  0  0
   10.3241   10.0454   22.2787 Cl  0  0  0  0  0  0  0  0  0  0  0  0
    8.6811   10.0628   24.2296 N   0  0  0  0  0  0  0  0  0  0  0  0
    8.6152    8.6315   24.0934 C   0  0  0  0  0  0  0  0  0  0  0  0
    7.9454   10.8408   25.0810 C   0  0  0  0  0  0  0  0  0  0  0  0
    6.9006   10.5132   25.9542 C   0  0  0  0  0  0  0  0  0  0  0  0
    6.3510   11.5369   26.7227 C   0  0  0  0  0  0  0  0  0  0  0  0
    6.8148   12.8420   26.6122 C   0  0  0  0  0  0  0  0  0  0  0  0
    7.8539   13.1589   25.7331 C   0  0  0  0  0  0  0  0  0  0  0  0
    8.4423   12.1450   24.9503 C   0  0  0  0  0  0  0  0  0  0  0  0
  2  1  1  1
  2  3  1  0
  3  4  1  0
  2  5  1  0
  5  6  1  0
  6  7  2  0
  6  8  1  0
  8  9  2  0
  9 10  1  0
  9 11  1  0
 11 12  1  0
 11 13  1  0
 13 14  2  0
 14 15  1  0
 15 16  2  0
 16 17  1  0
 17 18  2  0
 18  8  1  0
 18 13  1  0
M  END
>  <alias>  (1235) 
None

>  <rmsd(smina/fragmenstein)>  (1235) 
1.226

>  <smiles>  (1235) 
C[C@H](CS)NC(=O)c1c(Cl)n(C)c2ccccc12

>  <gnina_score>  (1235) 
5.517

>  <inspiration_score>  (1235) 
None

>  <energy_score>  (1235) 
-13.699767

>  <distance_score>  (1235) 
0.89653

>  <gnina_score_min>  (1235) 
5.539

>  <inchikey>  (1235) 
BOLMZLYVOOZFGS-MRVPVSSYSA-N

>  <exports>  (1235) 
['/opt/xchem-fragalysis-2/maxwin/BulkDock/OUTPUTS/openbind_a71ev2a_c2_elabs_1LOUU54.sdf', '/opt/xchem-fragalysis-2/maxwin/BulkDock/OUTPUTS/openbind_a71ev2a_c2_elabs_1LSYIDY.sdf']

>  <name>  (1235) 
P577106

>  <ref_pdb>  (1235) 
A3066a

>  <subsites>  (1235) 
None

>  <HIPPO Pose ID>  (1235) 
577106

>  <ref_mols>  (1235) 
A3066a

>  <HIPPO Compound ID>  (1235) 
350463

>  <tags>  (1235) 
openbind_a71ev2a_c2_elabs,syndirella_product,openbind_a71ev2a_c2_elabs_fragonly_scored_top80percent,BulkDock Fragalysis export,openbind_a71ev2a_c2_elabs_scored,openbind_a71ev2a_c2_elabs_scored_top80percent,openbind_a71ev2a_c2_elabs_activefrags_only_scored_5.2plus,openbind_a71ev2a_c2_elabs_activefrags_only_scored_5.5plus,syndirella_placed

>  <smina_score_min>  (1235) 
-6.287

$$$$
P577107
     RDKit          3D

 18 19  0  0  0  0  0  0  0  0999 V2000
    8.7610    8.6425   23.9482 C   0  0  0  0  0  0  0  0  0  0  0  0
    8.6595   10.0492   24.2546 N   0  0  0  0  0  0  0  0  0  0  0  0
    9.4473   10.9998   23.7084 C   0  0  0  0  0  0  0  0  0  0  0  0
   10.3820   10.5261   22.4124 Cl  0  0  0  0  0  0  0  0  0  0  0  0
    9.3407   12.1797   24.3871 C   0  0  0  0  0  0  0  0  0  0  0  0
   10.1593   13.3828   24.2579 C   0  0  0  0  0  0  0  0  0  0  0  0
   10.2108   14.1239   25.1530 O   0  0  0  0  0  0  0  0  0  0  0  0
   10.7612   13.4792   22.8536 N   0  0  0  0  0  0  0  0  0  0  0  0
   11.4746   14.5469   22.2172 C   0  0  0  0  0  0  0  0  0  0  0  0
   10.5902   15.1392   21.1116 C   0  0  0  0  0  0  0  0  0  0  0  0
   10.7151   14.4513   19.8172 N   0  0  0  0  0  0  0  0  0  0  0  0
   12.1141   14.5481   19.4344 O   0  0  0  0  0  0  0  0  0  0  0  0
    8.2331   11.9833   25.2687 C   0  0  0  0  0  0  0  0  0  0  0  0
    7.5462   12.8340   26.1576 C   0  0  0  0  0  0  0  0  0  0  0  0
    6.5130   12.3229   26.9413 C   0  0  0  0  0  0  0  0  0  0  0  0
    6.1480   10.9869   26.8402 C   0  0  0  0  0  0  0  0  0  0  0  0
    6.7801   10.1322   25.9379 C   0  0  0  0  0  0  0  0  0  0  0  0
    7.8294   10.6445   25.1707 C   0  0  0  0  0  0  0  0  0  0  0  0
  1  2  1  0
  2  3  1  0
  3  4  1  0
  3  5  2  0
  5  6  1  0
  6  7  2  0
  6  8  1  0
  8  9  1  0
  9 10  1  0
 10 11  1  0
 11 12  1  0
  5 13  1  0
 13 14  2  0
 14 15  1  0
 15 16  2  0
 16 17  1  0
 17 18  2  0
 18  2  1  0
 18 13  1  0
M  END
>  <alias>  (1236) 
None

>  <rmsd(smina/fragmenstein)>  (1236) 
1.437

>  <smiles>  (1236) 
Cn1c(Cl)c(C(=O)NCCNO)c2ccccc21

>  <gnina_score>  (1236) 
5.448

>  <inspiration_score>  (1236) 
None

>  <energy_score>  (1236) 
-17.263306

>  <distance_score>  (1236) 
1.023769

>  <gnina_score_min>  (1236) 
5.484

>  <inchikey>  (1236) 
IOHQOHHQTNIXQN-UHFFFAOYSA-N

>  <exports>  (1236) 
['/opt/xchem-fragalysis-2/maxwin/BulkDock/OUTPUTS/openbind_a71ev2a_c2_elabs_1LOUU54.sdf', '/opt/xchem-fragalysis-2/maxwin/BulkDock/OUTPUTS/openbind_a71ev2a_c2_elabs_1LSYIDY.sdf']

>  <name>  (1236) 
P577107

>  <ref_pdb>  (1236) 
A3066a

>  <subsites>  (1236) 
None

>  <HIPPO Pose ID>  (1236) 
577107

>  <ref_mols>  (1236) 
A3066a

>  <HIPPO Compound ID>  (1236) 
350465

>  <tags>  (1236) 
openbind_a71ev2a_c2_elabs,syndirella_product,openbind_a71ev2a_c2_elabs_fragonly_scored_top80percent,openbind_a71ev2a_c2_elabs_scored,BulkDock Fragalysis export,openbind_a71ev2a_c2_elabs_scored_top80percent,openbind_a71ev2a_c2_elabs_activefrags_only_scored_5.2plus,syndirella_placed

>  <smina_score_min>  (1236) 
-6.904

$$$$
P577108
     RDKit          3D

 18 20  0  0  0  0  0  0  0  0999 V2000
    9.3051    8.4641   23.4594 C   0  0  0  0  0  0  0  0  0  0  0  0
    9.1455    9.8607   23.7803 N   0  0  0  0  0  0  0  0  0  0  0  0
    9.9143   10.8375   23.2237 C   0  0  0  0  0  0  0  0  0  0  0  0
    9.6204   12.0287   23.8506 C   0  0  0  0  0  0  0  0  0  0  0  0
   10.2659   13.3060   23.6209 C   0  0  0  0  0  0  0  0  0  0  0  0
   10.4120   14.0609   24.4956 O   0  0  0  0  0  0  0  0  0  0  0  0
   10.5795   13.4433   22.1257 N   0  0  0  0  0  0  0  0  0  0  0  0
   11.0383   14.5392   21.3914 C   0  0  0  0  0  0  0  0  0  0  0  0
    9.9403   15.4396   20.8808 C   0  0  0  0  0  0  0  0  0  0  0  0
   12.3668   15.1160   21.7841 C   0  0  0  0  0  0  0  0  0  0  0  0
   12.2375   14.3542   20.5012 C   0  0  0  0  0  0  0  0  0  0  0  0
    8.5497   11.7772   24.7517 C   0  0  0  0  0  0  0  0  0  0  0  0
    7.7881   12.6007   25.6080 C   0  0  0  0  0  0  0  0  0  0  0  0
    6.7812   12.0290   26.3832 C   0  0  0  0  0  0  0  0  0  0  0  0
    5.7754   13.1173   27.5561 Br  0  0  0  0  0  0  0  0  0  0  0  0
    6.5154   10.6687   26.3127 C   0  0  0  0  0  0  0  0  0  0  0  0
    7.2465    9.8469   25.4526 C   0  0  0  0  0  0  0  0  0  0  0  0
    8.2654   10.4129   24.6829 C   0  0  0  0  0  0  0  0  0  0  0  0
  1  2  1  0
  2  3  1  0
  3  4  2  0
  4  5  1  0
  5  6  2  0
  5  7  1  0
  7  8  1  0
  8  9  1  0
  8 10  1  0
 10 11  1  0
  4 12  1  0
 12 13  2  0
 13 14  1  0
 14 15  1  0
 14 16  2  0
 16 17  1  0
 17 18  2  0
 18  2  1  0
 11  8  1  0
 18 12  1  0
M  END
>  <alias>  (1237) 
None

>  <rmsd(smina/fragmenstein)>  (1237) 
0.206

>  <smiles>  (1237) 
Cn1cc(C(=O)NC2(C)CC2)c2cc(Br)ccc21

>  <gnina_score>  (1237) 
5.601

>  <inspiration_score>  (1237) 
None

>  <energy_score>  (1237) 
-7.466895

>  <distance_score>  (1237) 
0.65212

>  <gnina_score_min>  (1237) 
5.597

>  <inchikey>  (1237) 
DWYLCMFDOVJUGK-UHFFFAOYSA-N

>  <exports>  (1237) 
['/opt/xchem-fragalysis-2/maxwin/BulkDock/OUTPUTS/openbind_a71ev2a_c2_elabs_1LOUU54.sdf', '/opt/xchem-fragalysis-2/maxwin/BulkDock/OUTPUTS/openbind_a71ev2a_c2_elabs_1LSYIDY.sdf']

>  <name>  (1237) 
P577108

>  <ref_pdb>  (1237) 
A3066a

>  <subsites>  (1237) 
None

>  <HIPPO Pose ID>  (1237) 
577108

>  <ref_mols>  (1237) 
A3066a

>  <HIPPO Compound ID>  (1237) 
350469

>  <tags>  (1237) 
openbind_a71ev2a_c2_elabs,syndirella_product,openbind_a71ev2a_c2_elabs_fragonly_scored_top80percent,BulkDock Fragalysis export,openbind_a71ev2a_c2_elabs_scored,openbind_a71ev2a_c2_elabs_scored_top80percent,openbind_a71ev2a_c2_elabs_activefrags_only_scored_5.2plus,openbind_a71ev2a_c2_elabs_activefrags_only_scored_5.5plus,syndirella_placed

>  <smina_score_min>  (1237) 
-7.488

$$$$
P577110
     RDKit          3D

 18 19  0  0  0  0  0  0  0  0999 V2000
   10.0174   15.3067   20.4239 C   0  0  0  0  0  0  0  0  0  0  0  0
   11.0247   14.8022   21.4476 C   0  0  2  0  0  0  0  0  0  0  0  0
   12.3697   14.4060   20.8348 C   0  0  0  0  0  0  0  0  0  0  0  0
   13.3973   15.1105   21.5188 O   0  0  0  0  0  0  0  0  0  0  0  0
   10.4560   13.6860   22.1504 N   0  0  0  0  0  0  0  0  0  0  0  0
   10.3282   13.4164   23.6490 C   0  0  0  0  0  0  0  0  0  0  0  0
   10.5925   14.0870   24.5607 O   0  0  0  0  0  0  0  0  0  0  0  0
    9.6809   12.1304   23.8418 C   0  0  0  0  0  0  0  0  0  0  0  0
    9.9663   10.9616   23.1691 C   0  0  0  0  0  0  0  0  0  0  0  0
    9.2038    9.9622   23.6994 N   0  0  0  0  0  0  0  0  0  0  0  0
    9.3258    8.5749   23.3186 C   0  0  0  0  0  0  0  0  0  0  0  0
    8.3321   10.4823   24.6300 C   0  0  0  0  0  0  0  0  0  0  0  0
    7.3212    9.8834   25.3870 C   0  0  0  0  0  0  0  0  0  0  0  0
    6.5805   10.6779   26.2644 C   0  0  0  0  0  0  0  0  0  0  0  0
    6.8388   12.0379   26.3732 C   0  0  0  0  0  0  0  0  0  0  0  0
    5.8232   13.0873   27.5736 Br  0  0  0  0  0  0  0  0  0  0  0  0
    7.8468   12.6385   25.6192 C   0  0  0  0  0  0  0  0  0  0  0  0
    8.6122   11.8456   24.7381 C   0  0  0  0  0  0  0  0  0  0  0  0
  2  1  1  6
  2  3  1  0
  3  4  1  0
  2  5  1  0
  5  6  1  0
  6  7  2  0
  6  8  1  0
  8  9  2  0
  9 10  1  0
 10 11  1  0
 10 12  1  0
 12 13  2  0
 13 14  1  0
 14 15  2  0
 15 16  1  0
 15 17  1  0
 17 18  2  0
 18  8  1  0
 18 12  1  0
M  END
>  <alias>  (1238) 
None

>  <rmsd(smina/fragmenstein)>  (1238) 
0.249

>  <smiles>  (1238) 
C[C@H](CO)NC(=O)c1cn(C)c2ccc(Br)cc12

>  <gnina_score>  (1238) 
5.434

>  <inspiration_score>  (1238) 
None

>  <energy_score>  (1238) 
-18.938854

>  <distance_score>  (1238) 
0.620292

>  <gnina_score_min>  (1238) 
5.448

>  <inchikey>  (1238) 
WZNZDQMYOJUEAH-MRVPVSSYSA-N

>  <exports>  (1238) 
['/opt/xchem-fragalysis-2/maxwin/BulkDock/OUTPUTS/openbind_a71ev2a_c2_elabs_1LOUU54.sdf', '/opt/xchem-fragalysis-2/maxwin/BulkDock/OUTPUTS/openbind_a71ev2a_c2_elabs_1LSYIDY.sdf']

>  <name>  (1238) 
P577110

>  <ref_pdb>  (1238) 
A3066a

>  <subsites>  (1238) 
None

>  <HIPPO Pose ID>  (1238) 
577110

>  <ref_mols>  (1238) 
A3066a

>  <HIPPO Compound ID>  (1238) 
350470

>  <tags>  (1238) 
openbind_a71ev2a_c2_elabs,syndirella_product,openbind_a71ev2a_c2_elabs_fragonly_scored_top80percent,openbind_a71ev2a_c2_elabs_scored,BulkDock Fragalysis export,openbind_a71ev2a_c2_elabs_scored_top80percent,openbind_a71ev2a_c2_elabs_activefrags_only_scored_5.2plus,syndirella_placed

>  <smina_score_min>  (1238) 
-7.393

$$$$
P577111
     RDKit          3D

 18 20  0  0  0  0  0  0  0  0999 V2000
   10.2374   15.2204   21.0100 C   0  0  0  0  0  0  0  0  0  0  0  0
   11.6487   15.2981   21.5019 C   0  0  2  0  0  0  0  0  0  0  0  0
   12.6780   14.4075   20.8753 C   0  0  0  0  0  0  0  0  0  0  0  0
   12.2901   14.2008   22.2965 C   0  0  2  0  0  0  0  0  0  0  0  0
   11.4260   13.2206   22.7625 N   0  0  0  0  0  0  0  0  0  0  0  0
   10.5751   13.1668   24.0361 C   0  0  0  0  0  0  0  0  0  0  0  0
   10.5194   13.9004   24.9380 O   0  0  0  0  0  0  0  0  0  0  0  0
    9.7248   11.9840   24.0199 C   0  0  0  0  0  0  0  0  0  0  0  0
    9.9147   10.8313   23.2865 C   0  0  0  0  0  0  0  0  0  0  0  0
    9.0775    9.8744   23.7767 N   0  0  0  0  0  0  0  0  0  0  0  0
    9.1928    8.4837   23.4176 C   0  0  0  0  0  0  0  0  0  0  0  0
    8.2129   10.4276   24.6907 C   0  0  0  0  0  0  0  0  0  0  0  0
    7.1677    9.8739   25.4341 C   0  0  0  0  0  0  0  0  0  0  0  0
    6.4620   10.6934   26.3164 C   0  0  0  0  0  0  0  0  0  0  0  0
    6.7762   12.0394   26.4330 C   0  0  0  0  0  0  0  0  0  0  0  0
    5.8015   13.1259   27.6340 Br  0  0  0  0  0  0  0  0  0  0  0  0
    7.8214   12.5939   25.6969 C   0  0  0  0  0  0  0  0  0  0  0  0
    8.5656   11.7709   24.8236 C   0  0  0  0  0  0  0  0  0  0  0  0
  2  1  1  6
  2  3  1  0
  3  4  1  0
  4  5  1  6
  5  6  1  0
  6  7  2  0
  6  8  1  0
  8  9  2  0
  9 10  1  0
 10 11  1  0
 10 12  1  0
 12 13  2  0
 13 14  1  0
 14 15  2  0
 15 16  1  0
 15 17  1  0
 17 18  2  0
  4  2  1  0
 18  8  1  0
 18 12  1  0
M  END
>  <alias>  (1239) 
None

>  <rmsd(smina/fragmenstein)>  (1239) 
0.322

>  <smiles>  (1239) 
C[C@@H]1C[C@@H]1NC(=O)c1cn(C)c2ccc(Br)cc12

>  <gnina_score>  (1239) 
5.501

>  <inspiration_score>  (1239) 
None

>  <energy_score>  (1239) 
-1.644153

>  <distance_score>  (1239) 
0.4877

>  <gnina_score_min>  (1239) 
5.519

>  <inchikey>  (1239) 
WHFBZZADYUREQO-PELKAZGASA-N

>  <exports>  (1239) 
['/opt/xchem-fragalysis-2/maxwin/BulkDock/OUTPUTS/openbind_a71ev2a_c2_elabs_1LOUU54.sdf', '/opt/xchem-fragalysis-2/maxwin/BulkDock/OUTPUTS/openbind_a71ev2a_c2_elabs_1LSYIDY.sdf']

>  <name>  (1239) 
P577111

>  <ref_pdb>  (1239) 
A3066a

>  <subsites>  (1239) 
None

>  <HIPPO Pose ID>  (1239) 
577111

>  <ref_mols>  (1239) 
A3066a

>  <HIPPO Compound ID>  (1239) 
350473

>  <tags>  (1239) 
openbind_a71ev2a_c2_elabs,syndirella_product,openbind_a71ev2a_c2_elabs_fragonly_scored_top80percent,BulkDock Fragalysis export,openbind_a71ev2a_c2_elabs_scored,openbind_a71ev2a_c2_elabs_scored_top80percent,openbind_a71ev2a_c2_elabs_activefrags_only_scored_5.2plus,openbind_a71ev2a_c2_elabs_activefrags_only_scored_5.5plus,syndirella_placed

>  <smina_score_min>  (1239) 
-7.379

$$$$
P577113
     RDKit          3D

 18 19  0  0  0  0  0  0  0  0999 V2000
   12.7412   14.9127   22.0487 C   0  0  0  0  0  0  0  0  0  0  0  0
   11.4458   14.6256   21.3234 C   0  0  1  0  0  0  0  0  0  0  0  0
   11.7044   14.3611   19.9040 C   0  0  0  0  0  0  0  0  0  0  0  0
   11.9308   14.1680   18.7836 N   0  0  0  0  0  0  0  0  0  0  0  0
   10.8111   13.5318   22.0068 N   0  0  0  0  0  0  0  0  0  0  0  0
   10.3176   13.4136   23.4490 C   0  0  0  0  0  0  0  0  0  0  0  0
   10.4124   14.1527   24.3409 O   0  0  0  0  0  0  0  0  0  0  0  0
    9.6523   12.1346   23.6678 C   0  0  0  0  0  0  0  0  0  0  0  0
    9.9505   10.9337   23.0599 C   0  0  0  0  0  0  0  0  0  0  0  0
    9.2103    9.9492   23.6494 N   0  0  0  0  0  0  0  0  0  0  0  0
    9.3663    8.5443   23.3524 C   0  0  0  0  0  0  0  0  0  0  0  0
    8.3433   10.4996   24.5654 C   0  0  0  0  0  0  0  0  0  0  0  0
    7.3558    9.9177   25.3674 C   0  0  0  0  0  0  0  0  0  0  0  0
    6.6227   10.7368   26.2277 C   0  0  0  0  0  0  0  0  0  0  0  0
    6.8682   12.1022   26.2781 C   0  0  0  0  0  0  0  0  0  0  0  0
    5.8695   13.1866   27.4616 Br  0  0  0  0  0  0  0  0  0  0  0  0
    7.8494   12.6852   25.4752 C   0  0  0  0  0  0  0  0  0  0  0  0
    8.6029   11.8712   24.6017 C   0  0  0  0  0  0  0  0  0  0  0  0
  2  1  1  1
  2  3  1  0
  3  4  3  0
  2  5  1  0
  5  6  1  0
  6  7  2  0
  6  8  1  0
  8  9  2  0
  9 10  1  0
 10 11  1  0
 10 12  1  0
 12 13  2  0
 13 14  1  0
 14 15  2  0
 15 16  1  0
 15 17  1  0
 17 18  2  0
 18  8  1  0
 18 12  1  0
M  END
>  <alias>  (1240) 
None

>  <rmsd(smina/fragmenstein)>  (1240) 
0.872

>  <smiles>  (1240) 
C[C@@H](C#N)NC(=O)c1cn(C)c2ccc(Br)cc12

>  <gnina_score>  (1240) 
5.724

>  <inspiration_score>  (1240) 
None

>  <energy_score>  (1240) 
-11.177926

>  <distance_score>  (1240) 
0.530955

>  <gnina_score_min>  (1240) 
5.766

>  <inchikey>  (1240) 
WSATYEWNKLUIKM-QMMMGPOBSA-N

>  <exports>  (1240) 
['/opt/xchem-fragalysis-2/maxwin/BulkDock/OUTPUTS/openbind_a71ev2a_c2_elabs_1LOUU54.sdf', '/opt/xchem-fragalysis-2/maxwin/BulkDock/OUTPUTS/openbind_a71ev2a_c2_elabs_1LSYIDY.sdf']

>  <name>  (1240) 
P577113

>  <ref_pdb>  (1240) 
A3066a

>  <subsites>  (1240) 
None

>  <HIPPO Pose ID>  (1240) 
577113

>  <ref_mols>  (1240) 
A3066a

>  <HIPPO Compound ID>  (1240) 
350474

>  <tags>  (1240) 
openbind_a71ev2a_c2_elabs,syndirella_product,openbind_a71ev2a_c2_elabs_fragonly_scored_top80percent,BulkDock Fragalysis export,openbind_a71ev2a_c2_elabs_scored,openbind_a71ev2a_c2_elabs_scored_top80percent,openbind_a71ev2a_c2_elabs_activefrags_only_scored_5.2plus,openbind_a71ev2a_c2_elabs_activefrags_only_scored_5.5plus,syndirella_placed

>  <smina_score_min>  (1240) 
-7.426

$$$$
P577115
     RDKit          3D

 18 19  0  0  0  0  0  0  0  0999 V2000
   12.4522   14.1621   20.9553 C   0  0  0  0  0  0  0  0  0  0  0  0
   11.8313   14.9963   22.0543 C   0  0  0  0  0  0  0  0  0  0  0  0
   10.3792   14.9722   22.1309 N   0  0  0  0  0  0  0  0  0  0  0  0
    9.6769   15.3484   20.9160 C   0  0  0  0  0  0  0  0  0  0  0  0
    9.8550   13.8762   22.7481 N   0  0  0  0  0  0  0  0  0  0  0  0
    9.7226   13.5373   24.2526 C   0  0  0  0  0  0  0  0  0  0  0  0
    9.9714   14.1769   25.1973 O   0  0  0  0  0  0  0  0  0  0  0  0
    9.1013   12.2447   24.4142 C   0  0  0  0  0  0  0  0  0  0  0  0
    9.3868   11.1050   23.7305 C   0  0  0  0  0  0  0  0  0  0  0  0
   10.4596   10.8539   22.4861 Cl  0  0  0  0  0  0  0  0  0  0  0  0
    8.6840   10.0568   24.2127 N   0  0  0  0  0  0  0  0  0  0  0  0
    8.9102    8.6778   23.8446 C   0  0  0  0  0  0  0  0  0  0  0  0
    7.7950   10.5386   25.1484 C   0  0  0  0  0  0  0  0  0  0  0  0
    6.7828    9.9165   25.8770 C   0  0  0  0  0  0  0  0  0  0  0  0
    6.0937   10.6628   26.8336 C   0  0  0  0  0  0  0  0  0  0  0  0
    6.3564   12.0135   27.0182 C   0  0  0  0  0  0  0  0  0  0  0  0
    7.3312   12.6482   26.2547 C   0  0  0  0  0  0  0  0  0  0  0  0
    8.0689   11.9012   25.3174 C   0  0  0  0  0  0  0  0  0  0  0  0
  1  2  1  0
  2  3  1  0
  3  4  1  0
  3  5  1  0
  5  6  1  0
  6  7  2  0
  6  8  1  0
  8  9  2  0
  9 10  1  0
  9 11  1  0
 11 12  1  0
 11 13  1  0
 13 14  2  0
 14 15  1  0
 15 16  2  0
 16 17  1  0
 17 18  2  0
 18  8  1  0
 18 13  1  0
M  END
>  <alias>  (1241) 
None

>  <rmsd(smina/fragmenstein)>  (1241) 
0.596

>  <smiles>  (1241) 
CCN(C)NC(=O)c1c(Cl)n(C)c2ccccc12

>  <gnina_score>  (1241) 
5.526

>  <inspiration_score>  (1241) 
None

>  <energy_score>  (1241) 
-3.74149

>  <distance_score>  (1241) 
1.281578

>  <gnina_score_min>  (1241) 
5.503

>  <inchikey>  (1241) 
VHRVKIHYQDEYLD-UHFFFAOYSA-N

>  <exports>  (1241) 
['/opt/xchem-fragalysis-2/maxwin/BulkDock/OUTPUTS/openbind_a71ev2a_c2_elabs_1LOUU54.sdf', '/opt/xchem-fragalysis-2/maxwin/BulkDock/OUTPUTS/openbind_a71ev2a_c2_elabs_1LSYIDY.sdf']

>  <name>  (1241) 
P577115

>  <ref_pdb>  (1241) 
A3066a

>  <subsites>  (1241) 
None

>  <HIPPO Pose ID>  (1241) 
577115

>  <ref_mols>  (1241) 
A3066a

>  <HIPPO Compound ID>  (1241) 
350481

>  <tags>  (1241) 
openbind_a71ev2a_c2_elabs,syndirella_product,openbind_a71ev2a_c2_elabs_fragonly_scored_top80percent,BulkDock Fragalysis export,openbind_a71ev2a_c2_elabs_scored,openbind_a71ev2a_c2_elabs_scored_top80percent,openbind_a71ev2a_c2_elabs_activefrags_only_scored_5.2plus,openbind_a71ev2a_c2_elabs_activefrags_only_scored_5.5plus,syndirella_placed

>  <smina_score_min>  (1241) 
-5.404

$$$$
P577117
     RDKit          3D

 18 19  0  0  0  0  0  0  0  0999 V2000
    9.3777    8.5980   23.2572 C   0  0  0  0  0  0  0  0  0  0  0  0
    9.2962    9.9905   23.6294 N   0  0  0  0  0  0  0  0  0  0  0  0
   10.0577   10.9686   23.0633 C   0  0  0  0  0  0  0  0  0  0  0  0
    9.7970   12.1650   23.6949 C   0  0  0  0  0  0  0  0  0  0  0  0
   10.4321   13.4550   23.4183 C   0  0  0  0  0  0  0  0  0  0  0  0
   10.6195   14.2031   24.2892 O   0  0  0  0  0  0  0  0  0  0  0  0
   10.6534   13.6094   21.9131 N   0  0  0  0  0  0  0  0  0  0  0  0
   11.0673   14.7599   21.1345 C   0  0  0  0  0  0  0  0  0  0  0  0
    9.9922   15.1591   20.0747 C   0  0  0  0  0  0  0  0  0  0  0  0
   10.4376   15.5357   18.9476 O   0  0  0  0  0  0  0  0  0  0  0  0
    8.7822   15.0013   20.4250 O   0  0  0  0  0  0  0  0  0  0  0  0
    8.7362   11.9063   24.6209 C   0  0  0  0  0  0  0  0  0  0  0  0
    7.9736   12.7264   25.4805 C   0  0  0  0  0  0  0  0  0  0  0  0
    6.9657   12.1513   26.2568 C   0  0  0  0  0  0  0  0  0  0  0  0
    5.9543   13.2383   27.4284 Br  0  0  0  0  0  0  0  0  0  0  0  0
    6.7002   10.7881   26.1932 C   0  0  0  0  0  0  0  0  0  0  0  0
    7.4348    9.9626   25.3401 C   0  0  0  0  0  0  0  0  0  0  0  0
    8.4436   10.5398   24.5600 C   0  0  0  0  0  0  0  0  0  0  0  0
  1  2  1  0
  2  3  1  0
  3  4  2  0
  4  5  1  0
  5  6  2  0
  5  7  1  0
  7  8  1  0
  8  9  1  0
  9 10  2  0
  9 11  1  0
  4 12  1  0
 12 13  2  0
 13 14  1  0
 14 15  1  0
 14 16  2  0
 16 17  1  0
 17 18  2  0
 18  2  1  0
 18 12  1  0
M  CHG  1  11  -1
M  END
>  <alias>  (1242) 
None

>  <rmsd(smina/fragmenstein)>  (1242) 
0.426

>  <smiles>  (1242) 
Cn1cc(C(=O)NCC(=O)[O-])c2cc(Br)ccc21

>  <gnina_score>  (1242) 
5.346

>  <inspiration_score>  (1242) 
None

>  <energy_score>  (1242) 
-10.205238

>  <distance_score>  (1242) 
0.58066

>  <gnina_score_min>  (1242) 
5.299

>  <inchikey>  (1242) 
OTKBGFPORNIPBW-UHFFFAOYSA-M

>  <exports>  (1242) 
['/opt/xchem-fragalysis-2/maxwin/BulkDock/OUTPUTS/openbind_a71ev2a_c2_elabs_1LOUU54.sdf', '/opt/xchem-fragalysis-2/maxwin/BulkDock/OUTPUTS/openbind_a71ev2a_c2_elabs_1LSYIDY.sdf']

>  <name>  (1242) 
P577117

>  <ref_pdb>  (1242) 
A3066a

>  <subsites>  (1242) 
None

>  <HIPPO Pose ID>  (1242) 
577117

>  <ref_mols>  (1242) 
A3066a

>  <HIPPO Compound ID>  (1242) 
350488

>  <tags>  (1242) 
openbind_a71ev2a_c2_elabs,syndirella_product,openbind_a71ev2a_c2_elabs_fragonly_scored_top80percent,openbind_a71ev2a_c2_elabs_scored,BulkDock Fragalysis export,openbind_a71ev2a_c2_elabs_scored_top80percent,openbind_a71ev2a_c2_elabs_activefrags_only_scored_5.2plus,syndirella_placed

>  <smina_score_min>  (1242) 
-7.377

$$$$
P577118
     RDKit          3D

 18 19  0  0  0  0  0  0  0  0999 V2000
    9.3528    8.4771   23.3829 C   0  0  0  0  0  0  0  0  0  0  0  0
    9.2136    9.8874   23.6508 N   0  0  0  0  0  0  0  0  0  0  0  0
    9.9637   10.8425   23.0263 C   0  0  0  0  0  0  0  0  0  0  0  0
    9.6969   12.0593   23.6098 C   0  0  0  0  0  0  0  0  0  0  0  0
   10.3473   13.3343   23.3487 C   0  0  0  0  0  0  0  0  0  0  0  0
   10.4374   14.0939   24.2275 O   0  0  0  0  0  0  0  0  0  0  0  0
   10.7372   13.4727   21.8675 N   0  0  0  0  0  0  0  0  0  0  0  0
   11.2348   14.6117   21.1302 C   0  0  0  0  0  0  0  0  0  0  0  0
   12.4006   15.1469   21.9558 C   0  0  0  0  0  0  0  0  0  0  0  0
   10.0507   15.5741   20.9741 C   0  0  0  0  0  0  0  0  0  0  0  0
   11.7438   14.2605   19.7324 C   0  0  0  0  0  0  0  0  0  0  0  0
    8.6490   11.8402   24.5582 C   0  0  0  0  0  0  0  0  0  0  0  0
    7.9110   12.6975   25.4065 C   0  0  0  0  0  0  0  0  0  0  0  0
    6.9200   12.1702   26.2342 C   0  0  0  0  0  0  0  0  0  0  0  0
    6.6638   10.8107   26.2155 C   0  0  0  0  0  0  0  0  0  0  0  0
    5.7271   10.3148   27.0339 F   0  0  0  0  0  0  0  0  0  0  0  0
    7.3646    9.9399   25.3833 C   0  0  0  0  0  0  0  0  0  0  0  0
    8.3618   10.4734   24.5589 C   0  0  0  0  0  0  0  0  0  0  0  0
  1  2  1  0
  2  3  1  0
  3  4  2  0
  4  5  1  0
  5  6  2  0
  5  7  1  0
  7  8  1  0
  8  9  1  0
  8 10  1  0
  8 11  1  0
  4 12  1  0
 12 13  2  0
 13 14  1  0
 14 15  2  0
 15 16  1  0
 15 17  1  0
 17 18  2  0
 18  2  1  0
 18 12  1  0
M  END
>  <alias>  (1243) 
None

>  <rmsd(smina/fragmenstein)>  (1243) 
0.237

>  <smiles>  (1243) 
Cn1cc(C(=O)NC(C)(C)C)c2ccc(F)cc21

>  <gnina_score>  (1243) 
5.486

>  <inspiration_score>  (1243) 
None

>  <energy_score>  (1243) 
-6.293811

>  <distance_score>  (1243) 
0.585003

>  <gnina_score_min>  (1243) 
5.511

>  <inchikey>  (1243) 
QLIARWGDTMLLSF-UHFFFAOYSA-N

>  <exports>  (1243) 
['/opt/xchem-fragalysis-2/maxwin/BulkDock/OUTPUTS/openbind_a71ev2a_c2_elabs_1LOUU54.sdf', '/opt/xchem-fragalysis-2/maxwin/BulkDock/OUTPUTS/openbind_a71ev2a_c2_elabs_1LSYIDY.sdf']

>  <name>  (1243) 
P577118

>  <ref_pdb>  (1243) 
A3066a

>  <subsites>  (1243) 
None

>  <HIPPO Pose ID>  (1243) 
577118

>  <ref_mols>  (1243) 
A3066a

>  <HIPPO Compound ID>  (1243) 
350490

>  <tags>  (1243) 
openbind_a71ev2a_c2_elabs,syndirella_product,openbind_a71ev2a_c2_elabs_fragonly_scored_top80percent,BulkDock Fragalysis export,openbind_a71ev2a_c2_elabs_scored,openbind_a71ev2a_c2_elabs_scored_top80percent,openbind_a71ev2a_c2_elabs_activefrags_only_scored_5.2plus,openbind_a71ev2a_c2_elabs_activefrags_only_scored_5.5plus,syndirella_placed

>  <smina_score_min>  (1243) 
-7.026

$$$$
P577119
     RDKit          3D

 18 19  0  0  0  0  0  0  0  0999 V2000
    9.2023    8.6607   23.3709 C   0  0  0  0  0  0  0  0  0  0  0  0
    9.0388   10.0172   23.8435 N   0  0  0  0  0  0  0  0  0  0  0  0
    9.8521   11.0498   23.4662 C   0  0  0  0  0  0  0  0  0  0  0  0
    9.5665   12.1387   24.2718 C   0  0  0  0  0  0  0  0  0  0  0  0
   10.3385   13.3649   24.4433 C   0  0  0  0  0  0  0  0  0  0  0  0
   10.2166   13.9956   25.4095 O   0  0  0  0  0  0  0  0  0  0  0  0
   11.2414   13.5709   23.2399 N   0  0  0  0  0  0  0  0  0  0  0  0
   12.2501   14.5333   23.0009 C   0  0  0  0  0  0  0  0  0  0  0  0
   12.0754   15.1429   21.6478 C   0  0  0  0  0  0  0  0  0  0  0  0
   12.5294   14.2071   20.5607 C   0  0  0  0  0  0  0  0  0  0  0  0
   11.4783   14.5228   18.9807 Br  0  0  0  0  0  0  0  0  0  0  0  0
    8.3946   11.8109   25.0053 C   0  0  0  0  0  0  0  0  0  0  0  0
    7.5858   12.5376   25.9076 C   0  0  0  0  0  0  0  0  0  0  0  0
    6.5643   11.8894   26.5939 C   0  0  0  0  0  0  0  0  0  0  0  0
    6.3536   10.5405   26.3808 C   0  0  0  0  0  0  0  0  0  0  0  0
    5.3999    9.9124   27.0800 F   0  0  0  0  0  0  0  0  0  0  0  0
    7.1069    9.8109   25.4646 C   0  0  0  0  0  0  0  0  0  0  0  0
    8.1278   10.4622   24.7733 C   0  0  0  0  0  0  0  0  0  0  0  0
  1  2  1  0
  2  3  1  0
  3  4  2  0
  4  5  1  0
  5  6  2  0
  5  7  1  0
  7  8  1  0
  8  9  1  0
  9 10  1  0
 10 11  1  0
  4 12  1  0
 12 13  2  0
 13 14  1  0
 14 15  2  0
 15 16  1  0
 15 17  1  0
 17 18  2  0
 18  2  1  0
 18 12  1  0
M  END
>  <alias>  (1244) 
None

>  <rmsd(smina/fragmenstein)>  (1244) 
0.899

>  <smiles>  (1244) 
Cn1cc(C(=O)NCCCBr)c2ccc(F)cc21

>  <gnina_score>  (1244) 
5.264

>  <inspiration_score>  (1244) 
None

>  <energy_score>  (1244) 
-1.274351

>  <distance_score>  (1244) 
0.774772

>  <gnina_score_min>  (1244) 
5.473

>  <inchikey>  (1244) 
QJDYWLHJUKMXSH-UHFFFAOYSA-N

>  <exports>  (1244) 
['/opt/xchem-fragalysis-2/maxwin/BulkDock/OUTPUTS/openbind_a71ev2a_c2_elabs_1LOUU54.sdf', '/opt/xchem-fragalysis-2/maxwin/BulkDock/OUTPUTS/openbind_a71ev2a_c2_elabs_1LSYIDY.sdf']

>  <name>  (1244) 
P577119

>  <ref_pdb>  (1244) 
A3066a

>  <subsites>  (1244) 
None

>  <HIPPO Pose ID>  (1244) 
577119

>  <ref_mols>  (1244) 
A3066a

>  <HIPPO Compound ID>  (1244) 
350492

>  <tags>  (1244) 
openbind_a71ev2a_c2_elabs,syndirella_product,openbind_a71ev2a_c2_elabs_fragonly_scored_top80percent,openbind_a71ev2a_c2_elabs_scored,BulkDock Fragalysis export,openbind_a71ev2a_c2_elabs_scored_top80percent,openbind_a71ev2a_c2_elabs_activefrags_only_scored_5.2plus,syndirella_placed

>  <smina_score_min>  (1244) 
-6.877

$$$$
P577120
     RDKit          3D

 18 20  0  0  0  0  0  0  0  0999 V2000
   10.3355   14.9629   20.0333 C   0  0  0  0  0  0  0  0  0  0  0  0
   11.1416   14.8688   21.3099 C   0  0  2  0  0  0  0  0  0  0  0  0
   12.5238   14.2905   21.2165 C   0  0  0  0  0  0  0  0  0  0  0  0
   12.1767   13.7690   22.5749 C   0  0  0  0  0  0  0  0  0  0  0  0
   10.6911   13.6776   22.1309 N   0  0  0  0  0  0  0  0  0  0  0  0
    9.7731   13.5951   23.3064 C   0  0  0  0  0  0  0  0  0  0  0  0
    9.2465   14.4451   23.9187 O   0  0  0  0  0  0  0  0  0  0  0  0
    9.4397   12.2181   23.6455 C   0  0  0  0  0  0  0  0  0  0  0  0
    9.9177   11.0561   23.0788 C   0  0  0  0  0  0  0  0  0  0  0  0
    9.2718    9.9949   23.6488 N   0  0  0  0  0  0  0  0  0  0  0  0
    9.4901    8.6167   23.2736 C   0  0  0  0  0  0  0  0  0  0  0  0
    8.3628   10.4452   24.5796 C   0  0  0  0  0  0  0  0  0  0  0  0
    7.4291    9.7706   25.3695 C   0  0  0  0  0  0  0  0  0  0  0  0
    6.6244   10.5124   26.2318 C   0  0  0  0  0  0  0  0  0  0  0  0
    5.7411    9.8759   27.0106 F   0  0  0  0  0  0  0  0  0  0  0  0
    6.7203   11.8874   26.3152 C   0  0  0  0  0  0  0  0  0  0  0  0
    7.6354   12.5589   25.5089 C   0  0  0  0  0  0  0  0  0  0  0  0
    8.4707   11.8338   24.6250 C   0  0  0  0  0  0  0  0  0  0  0  0
  2  1  1  6
  2  3  1  0
  3  4  1  0
  4  5  1  0
  5  6  1  0
  6  7  2  0
  6  8  1  0
  8  9  2  0
  9 10  1  0
 10 11  1  0
 10 12  1  0
 12 13  2  0
 13 14  1  0
 14 15  1  0
 14 16  2  0
 16 17  1  0
 17 18  2  0
  5  2  1  0
 18  8  1  0
 18 12  1  0
M  END
>  <alias>  (1245) 
None

>  <rmsd(smina/fragmenstein)>  (1245) 
0.229

>  <smiles>  (1245) 
C[C@@H]1CCN1C(=O)c1cn(C)c2cc(F)ccc12

>  <gnina_score>  (1245) 
5.508

>  <inspiration_score>  (1245) 
None

>  <energy_score>  (1245) 
-3.215526

>  <distance_score>  (1245) 
0.847336

>  <gnina_score_min>  (1245) 
5.447

>  <inchikey>  (1245) 
IYGJGWKEWDPECZ-SECBINFHSA-N

>  <exports>  (1245) 
['/opt/xchem-fragalysis-2/maxwin/BulkDock/OUTPUTS/openbind_a71ev2a_c2_elabs_1LOUU54.sdf', '/opt/xchem-fragalysis-2/maxwin/BulkDock/OUTPUTS/openbind_a71ev2a_c2_elabs_1LSYIDY.sdf']

>  <name>  (1245) 
P577120

>  <ref_pdb>  (1245) 
A3066a

>  <subsites>  (1245) 
None

>  <HIPPO Pose ID>  (1245) 
577120

>  <ref_mols>  (1245) 
A3066a

>  <HIPPO Compound ID>  (1245) 
350495

>  <tags>  (1245) 
openbind_a71ev2a_c2_elabs,syndirella_product,openbind_a71ev2a_c2_elabs_fragonly_scored_top80percent,openbind_a71ev2a_c2_elabs_scored,BulkDock Fragalysis export,openbind_a71ev2a_c2_elabs_scored_top80percent,openbind_a71ev2a_c2_elabs_activefrags_only_scored_5.2plus,syndirella_placed

>  <smina_score_min>  (1245) 
-7.446

$$$$
P577121
     RDKit          3D

 18 19  0  0  0  0  0  0  0  0999 V2000
   11.6414   14.5244   19.2973 C   0  0  0  0  0  0  0  0  0  0  0  0
   11.1830   14.8217   20.5168 C   0  0  0  0  0  0  0  0  0  0  0  0
    9.5456   15.6877   20.7444 Br  0  0  0  0  0  0  0  0  0  0  0  0
   11.9346   14.4889   21.7663 C   0  0  0  0  0  0  0  0  0  0  0  0
   11.2212   13.4203   22.3826 N   0  0  0  0  0  0  0  0  0  0  0  0
   10.6334   13.2990   23.7855 C   0  0  0  0  0  0  0  0  0  0  0  0
   10.7000   14.0185   24.6951 O   0  0  0  0  0  0  0  0  0  0  0  0
    9.8187   12.0871   23.8808 C   0  0  0  0  0  0  0  0  0  0  0  0
   10.0021   10.9049   23.1928 C   0  0  0  0  0  0  0  0  0  0  0  0
    9.1801    9.9564   23.7286 N   0  0  0  0  0  0  0  0  0  0  0  0
    9.2679    8.5537   23.3997 C   0  0  0  0  0  0  0  0  0  0  0  0
    8.3275   10.5361   24.6384 C   0  0  0  0  0  0  0  0  0  0  0  0
    7.2873   10.0031   25.4073 C   0  0  0  0  0  0  0  0  0  0  0  0
    6.5982   10.8633   26.2591 C   0  0  0  0  0  0  0  0  0  0  0  0
    5.6226   10.3657   27.0297 F   0  0  0  0  0  0  0  0  0  0  0  0
    6.9030   12.2109   26.3450 C   0  0  0  0  0  0  0  0  0  0  0  0
    7.9484   12.7342   25.5834 C   0  0  0  0  0  0  0  0  0  0  0  0
    8.6857   11.8853   24.7280 C   0  0  0  0  0  0  0  0  0  0  0  0
  1  2  2  0
  2  3  1  0
  2  4  1  0
  4  5  1  0
  5  6  1  0
  6  7  2  0
  6  8  1  0
  8  9  2  0
  9 10  1  0
 10 11  1  0
 10 12  1  0
 12 13  2  0
 13 14  1  0
 14 15  1  0
 14 16  2  0
 16 17  1  0
 17 18  2  0
 18  8  1  0
 18 12  1  0
M  END
>  <alias>  (1246) 
None

>  <rmsd(smina/fragmenstein)>  (1246) 
0.232

>  <smiles>  (1246) 
C=C(Br)CNC(=O)c1cn(C)c2cc(F)ccc12

>  <gnina_score>  (1246) 
5.561

>  <inspiration_score>  (1246) 
None

>  <energy_score>  (1246) 
-24.473845

>  <distance_score>  (1246) 
0.352686

>  <gnina_score_min>  (1246) 
5.604

>  <inchikey>  (1246) 
MQNXKLIDBBFHID-UHFFFAOYSA-N

>  <exports>  (1246) 
['/opt/xchem-fragalysis-2/maxwin/BulkDock/OUTPUTS/openbind_a71ev2a_c2_elabs_1LOUU54.sdf', '/opt/xchem-fragalysis-2/maxwin/BulkDock/OUTPUTS/openbind_a71ev2a_c2_elabs_1LSYIDY.sdf']

>  <name>  (1246) 
P577121

>  <ref_pdb>  (1246) 
A3066a

>  <subsites>  (1246) 
None

>  <HIPPO Pose ID>  (1246) 
577121

>  <ref_mols>  (1246) 
A3066a

>  <HIPPO Compound ID>  (1246) 
350496

>  <tags>  (1246) 
openbind_a71ev2a_c2_elabs,syndirella_product,openbind_a71ev2a_c2_elabs_fragonly_scored_top80percent,BulkDock Fragalysis export,openbind_a71ev2a_c2_elabs_scored,openbind_a71ev2a_c2_elabs_scored_top80percent,openbind_a71ev2a_c2_elabs_activefrags_only_scored_5.2plus,openbind_a71ev2a_c2_elabs_activefrags_only_scored_5.5plus,syndirella_placed

>  <smina_score_min>  (1246) 
-6.949

$$$$
P577123
     RDKit          3D

 18 19  0  0  0  0  0  0  0  0999 V2000
   11.8796   15.4420   22.1991 C   0  0  0  0  0  0  0  0  0  0  0  0
   12.3676   14.0573   21.8959 C   0  0  2  0  0  0  0  0  0  0  0  0
   12.5958   13.9314   20.4064 C   0  0  0  0  0  0  0  0  0  0  0  0
   13.0987   12.7149   20.1008 F   0  0  0  0  0  0  0  0  0  0  0  0
   11.4271   13.1228   22.4269 N   0  0  0  0  0  0  0  0  0  0  0  0
   10.6575   13.1280   23.7537 C   0  0  0  0  0  0  0  0  0  0  0  0
   10.7228   13.8546   24.6618 O   0  0  0  0  0  0  0  0  0  0  0  0
    9.7726   11.9752   23.8317 C   0  0  0  0  0  0  0  0  0  0  0  0
    9.9239   10.7802   23.1635 C   0  0  0  0  0  0  0  0  0  0  0  0
    9.0888    9.8651   23.7306 N   0  0  0  0  0  0  0  0  0  0  0  0
    9.1818    8.4560   23.4450 C   0  0  0  0  0  0  0  0  0  0  0  0
    8.2576   10.4803   24.6365 C   0  0  0  0  0  0  0  0  0  0  0  0
    7.2200    9.9865   25.4347 C   0  0  0  0  0  0  0  0  0  0  0  0
    6.5678   10.8767   26.2845 C   0  0  0  0  0  0  0  0  0  0  0  0
    5.6024   10.4163   27.0903 F   0  0  0  0  0  0  0  0  0  0  0  0
    6.9027   12.2186   26.3381 C   0  0  0  0  0  0  0  0  0  0  0  0
    7.9420   12.7044   25.5448 C   0  0  0  0  0  0  0  0  0  0  0  0
    8.6415   11.8235   24.6898 C   0  0  0  0  0  0  0  0  0  0  0  0
  2  1  1  6
  2  3  1  0
  3  4  1  0
  2  5  1  0
  5  6  1  0
  6  7  2  0
  6  8  1  0
  8  9  2  0
  9 10  1  0
 10 11  1  0
 10 12  1  0
 12 13  2  0
 13 14  1  0
 14 15  1  0
 14 16  2  0
 16 17  1  0
 17 18  2  0
 18  8  1  0
 18 12  1  0
M  END
>  <alias>  (1247) 
None

>  <rmsd(smina/fragmenstein)>  (1247) 
1.294

>  <smiles>  (1247) 
C[C@H](CF)NC(=O)c1cn(C)c2cc(F)ccc12

>  <gnina_score>  (1247) 
4.891

>  <inspiration_score>  (1247) 
None

>  <energy_score>  (1247) 
-9.818045

>  <distance_score>  (1247) 
0.383666

>  <gnina_score_min>  (1247) 
5.374

>  <inchikey>  (1247) 
AVDWGCBKXKQJGJ-MRVPVSSYSA-N

>  <exports>  (1247) 
['/opt/xchem-fragalysis-2/maxwin/BulkDock/OUTPUTS/openbind_a71ev2a_c2_elabs_1LOUU54.sdf', '/opt/xchem-fragalysis-2/maxwin/BulkDock/OUTPUTS/openbind_a71ev2a_c2_elabs_1LSYIDY.sdf']

>  <name>  (1247) 
P577123

>  <ref_pdb>  (1247) 
A3066a

>  <subsites>  (1247) 
None

>  <HIPPO Pose ID>  (1247) 
577123

>  <ref_mols>  (1247) 
A3066a

>  <HIPPO Compound ID>  (1247) 
350499

>  <tags>  (1247) 
openbind_a71ev2a_c2_elabs,syndirella_product,openbind_a71ev2a_c2_elabs_fragonly_scored_top80percent,openbind_a71ev2a_c2_elabs_scored,BulkDock Fragalysis export,openbind_a71ev2a_c2_elabs_scored_top80percent,openbind_a71ev2a_c2_elabs_activefrags_only_scored_5.2plus,syndirella_placed

>  <smina_score_min>  (1247) 
-7.041

$$$$
P577124
     RDKit          3D

 18 19  0  0  0  0  0  0  0  0999 V2000
   13.3568   15.0219   21.6152 C   0  0  0  0  0  0  0  0  0  0  0  0
   12.2048   14.7216   22.5104 C   0  0  2  0  0  0  0  0  0  0  0  0
   12.6703   13.3073   23.5518 Cl  0  0  0  0  0  0  0  0  0  0  0  0
   10.9470   14.5325   21.6560 C   0  0  0  0  0  0  0  0  0  0  0  0
   10.1942   13.5057   22.2575 N   0  0  0  0  0  0  0  0  0  0  0  0
    9.4587   13.4692   23.5844 C   0  0  0  0  0  0  0  0  0  0  0  0
    9.2842   14.3022   24.3701 O   0  0  0  0  0  0  0  0  0  0  0  0
    9.0270   12.1206   23.8570 C   0  0  0  0  0  0  0  0  0  0  0  0
    9.5504   10.9571   23.3278 C   0  0  0  0  0  0  0  0  0  0  0  0
    8.9028    9.9046   23.9006 N   0  0  0  0  0  0  0  0  0  0  0  0
    9.2295    8.5350   23.5830 C   0  0  0  0  0  0  0  0  0  0  0  0
    7.9818   10.3710   24.8112 C   0  0  0  0  0  0  0  0  0  0  0  0
    7.0562    9.7256   25.6245 C   0  0  0  0  0  0  0  0  0  0  0  0
    6.3007   10.4784   26.5207 C   0  0  0  0  0  0  0  0  0  0  0  0
    5.4394    9.8518   27.3321 F   0  0  0  0  0  0  0  0  0  0  0  0
    6.4114   11.8523   26.5944 C   0  0  0  0  0  0  0  0  0  0  0  0
    7.2888   12.5077   25.7402 C   0  0  0  0  0  0  0  0  0  0  0  0
    8.0790   11.7595   24.8390 C   0  0  0  0  0  0  0  0  0  0  0  0
  2  1  1  6
  2  3  1  0
  2  4  1  0
  4  5  1  0
  5  6  1  0
  6  7  2  0
  6  8  1  0
  8  9  2  0
  9 10  1  0
 10 11  1  0
 10 12  1  0
 12 13  2  0
 13 14  1  0
 14 15  1  0
 14 16  2  0
 16 17  1  0
 17 18  2  0
 18  8  1  0
 18 12  1  0
M  END
>  <alias>  (1248) 
None

>  <rmsd(smina/fragmenstein)>  (1248) 
0.234

>  <smiles>  (1248) 
C[C@H](Cl)CNC(=O)c1cn(C)c2cc(F)ccc12

>  <gnina_score>  (1248) 
5.333

>  <inspiration_score>  (1248) 
None

>  <energy_score>  (1248) 
-7.89056

>  <distance_score>  (1248) 
1.066975

>  <gnina_score_min>  (1248) 
5.307

>  <inchikey>  (1248) 
UCSHDQJZEIMGTA-QMMMGPOBSA-N

>  <exports>  (1248) 
['/opt/xchem-fragalysis-2/maxwin/BulkDock/OUTPUTS/openbind_a71ev2a_c2_elabs_1LOUU54.sdf', '/opt/xchem-fragalysis-2/maxwin/BulkDock/OUTPUTS/openbind_a71ev2a_c2_elabs_1LSYIDY.sdf']

>  <name>  (1248) 
P577124

>  <ref_pdb>  (1248) 
A3066a

>  <subsites>  (1248) 
None

>  <HIPPO Pose ID>  (1248) 
577124

>  <ref_mols>  (1248) 
A3066a

>  <HIPPO Compound ID>  (1248) 
350500

>  <tags>  (1248) 
openbind_a71ev2a_c2_elabs,syndirella_product,openbind_a71ev2a_c2_elabs_fragonly_scored_top80percent,openbind_a71ev2a_c2_elabs_scored,BulkDock Fragalysis export,openbind_a71ev2a_c2_elabs_scored_top80percent,openbind_a71ev2a_c2_elabs_activefrags_only_scored_5.2plus,syndirella_placed

>  <smina_score_min>  (1248) 
-5.84

$$$$
P577126
     RDKit          3D

 18 19  0  0  0  0  0  0  0  0999 V2000
    9.4337    8.5342   23.4774 C   0  0  0  0  0  0  0  0  0  0  0  0
    9.1507    9.9288   23.7271 N   0  0  0  0  0  0  0  0  0  0  0  0
    9.7827   10.9467   23.0671 C   0  0  0  0  0  0  0  0  0  0  0  0
    9.2710   12.1478   23.5167 C   0  0  0  0  0  0  0  0  0  0  0  0
    9.5984   13.5007   23.0756 C   0  0  0  0  0  0  0  0  0  0  0  0
    9.2856   14.3878   23.7522 O   0  0  0  0  0  0  0  0  0  0  0  0
   10.3739   13.4844   21.7607 N   0  0  0  0  0  0  0  0  0  0  0  0
   11.0109   14.5436   21.0460 C   0  0  0  0  0  0  0  0  0  0  0  0
   12.5068   14.3891   21.2357 C   0  0  0  0  0  0  0  0  0  0  0  0
   12.8865   14.4266   22.7061 C   0  0  0  0  0  0  0  0  0  0  0  0
   12.8295   13.1447   23.3260 O   0  0  0  0  0  0  0  0  0  0  0  0
    8.3471   11.8346   24.5610 C   0  0  0  0  0  0  0  0  0  0  0  0
    7.5501   12.6236   25.4240 C   0  0  0  0  0  0  0  0  0  0  0  0
    6.6682   12.0128   26.3122 C   0  0  0  0  0  0  0  0  0  0  0  0
    6.5592   10.6360   26.3210 C   0  0  0  0  0  0  0  0  0  0  0  0
    5.7020   10.0562   27.1711 F   0  0  0  0  0  0  0  0  0  0  0  0
    7.3256    9.8332   25.4793 C   0  0  0  0  0  0  0  0  0  0  0  0
    8.2452   10.4450   24.6244 C   0  0  0  0  0  0  0  0  0  0  0  0
  1  2  1  0
  2  3  1  0
  3  4  2  0
  4  5  1  0
  5  6  2  0
  5  7  1  0
  7  8  1  0
  8  9  1  0
  9 10  1  0
 10 11  1  0
  4 12  1  0
 12 13  2  0
 13 14  1  0
 14 15  2  0
 15 16  1  0
 15 17  1  0
 17 18  2  0
 18  2  1  0
 18 12  1  0
M  END
>  <alias>  (1249) 
None

>  <rmsd(smina/fragmenstein)>  (1249) 
0.617

>  <smiles>  (1249) 
Cn1cc(C(=O)NCCCO)c2ccc(F)cc21

>  <gnina_score>  (1249) 
5.235

>  <inspiration_score>  (1249) 
None

>  <energy_score>  (1249) 
-0.645212

>  <distance_score>  (1249) 
0.968442

>  <gnina_score_min>  (1249) 
5.263

>  <inchikey>  (1249) 
ZDIMXYDSCLGWBU-UHFFFAOYSA-N

>  <exports>  (1249) 
['/opt/xchem-fragalysis-2/maxwin/BulkDock/OUTPUTS/openbind_a71ev2a_c2_elabs_1LOUU54.sdf', '/opt/xchem-fragalysis-2/maxwin/BulkDock/OUTPUTS/openbind_a71ev2a_c2_elabs_1LSYIDY.sdf']

>  <name>  (1249) 
P577126

>  <ref_pdb>  (1249) 
A3066a

>  <subsites>  (1249) 
None

>  <HIPPO Pose ID>  (1249) 
577126

>  <ref_mols>  (1249) 
A3066a

>  <HIPPO Compound ID>  (1249) 
350508

>  <tags>  (1249) 
openbind_a71ev2a_c2_elabs,syndirella_product,openbind_a71ev2a_c2_elabs_fragonly_scored_top80percent,openbind_a71ev2a_c2_elabs_scored,BulkDock Fragalysis export,openbind_a71ev2a_c2_elabs_scored_top80percent,openbind_a71ev2a_c2_elabs_activefrags_only_scored_5.2plus,syndirella_placed

>  <smina_score_min>  (1249) 
-6.712

$$$$
P577127
     RDKit          3D

 18 20  0  0  0  0  0  0  0  0999 V2000
    9.3453    8.4697   23.4431 C   0  0  0  0  0  0  0  0  0  0  0  0
    9.1690    9.8718   23.7342 N   0  0  0  0  0  0  0  0  0  0  0  0
    9.9169   10.8516   23.1480 C   0  0  0  0  0  0  0  0  0  0  0  0
    9.6096   12.0505   23.7521 C   0  0  0  0  0  0  0  0  0  0  0  0
   10.2338   13.3403   23.5204 C   0  0  0  0  0  0  0  0  0  0  0  0
   10.2549   14.1256   24.3837 O   0  0  0  0  0  0  0  0  0  0  0  0
   10.6997   13.4539   22.0517 N   0  0  0  0  0  0  0  0  0  0  0  0
   11.1761   14.5300   21.3499 N   0  0  0  0  0  0  0  0  0  0  0  0
   11.9490   15.4591   22.1845 C   0  0  0  0  0  0  0  0  0  0  0  0
   13.2266   14.7813   21.7718 C   0  0  0  0  0  0  0  0  0  0  0  0
   12.4221   14.1602   20.6406 C   0  0  0  0  0  0  0  0  0  0  0  0
    8.5517   11.7976   24.6723 C   0  0  0  0  0  0  0  0  0  0  0  0
    7.7875   12.6262   25.5254 C   0  0  0  0  0  0  0  0  0  0  0  0
    6.7958   12.0660   26.3285 C   0  0  0  0  0  0  0  0  0  0  0  0
    6.5637   10.7039   26.2755 C   0  0  0  0  0  0  0  0  0  0  0  0
    5.6224   10.1718   27.0650 F   0  0  0  0  0  0  0  0  0  0  0  0
    7.2885    9.8651   25.4316 C   0  0  0  0  0  0  0  0  0  0  0  0
    8.2898   10.4274   24.6354 C   0  0  0  0  0  0  0  0  0  0  0  0
  1  2  1  0
  2  3  1  0
  3  4  2  0
  4  5  1  0
  5  6  2  0
  5  7  1  0
  7  8  1  0
  8  9  1  0
  9 10  1  0
 10 11  1  0
  4 12  1  0
 12 13  2  0
 13 14  1  0
 14 15  2  0
 15 16  1  0
 15 17  1  0
 17 18  2  0
 18  2  1  0
 11  8  1  0
 18 12  1  0
M  END
>  <alias>  (1250) 
None

>  <rmsd(smina/fragmenstein)>  (1250) 
1.386

>  <smiles>  (1250) 
Cn1cc(C(=O)NN2CCC2)c2ccc(F)cc21

>  <gnina_score>  (1250) 
5.533

>  <inspiration_score>  (1250) 
None

>  <energy_score>  (1250) 
-17.959818

>  <distance_score>  (1250) 
0.623919

>  <gnina_score_min>  (1250) 
5.704

>  <inchikey>  (1250) 
BCGJQLLGPQPWHU-UHFFFAOYSA-N

>  <exports>  (1250) 
['/opt/xchem-fragalysis-2/maxwin/BulkDock/OUTPUTS/openbind_a71ev2a_c2_elabs_1LOUU54.sdf', '/opt/xchem-fragalysis-2/maxwin/BulkDock/OUTPUTS/openbind_a71ev2a_c2_elabs_1LSYIDY.sdf']

>  <name>  (1250) 
P577127

>  <ref_pdb>  (1250) 
A3066a

>  <subsites>  (1250) 
None

>  <HIPPO Pose ID>  (1250) 
577127

>  <ref_mols>  (1250) 
A3066a

>  <HIPPO Compound ID>  (1250) 
350510

>  <tags>  (1250) 
openbind_a71ev2a_c2_elabs,syndirella_product,openbind_a71ev2a_c2_elabs_fragonly_scored_top80percent,BulkDock Fragalysis export,openbind_a71ev2a_c2_elabs_scored,openbind_a71ev2a_c2_elabs_scored_top80percent,openbind_a71ev2a_c2_elabs_activefrags_only_scored_5.2plus,openbind_a71ev2a_c2_elabs_activefrags_only_scored_5.5plus,syndirella_placed

>  <smina_score_min>  (1250) 
-7.53

$$$$
P577130
     RDKit          3D

 18 19  0  0  0  0  0  0  0  0999 V2000
   12.6722   14.9152   22.0664 C   0  0  0  0  0  0  0  0  0  0  0  0
   11.4472   14.4494   21.3061 C   0  0  2  0  0  0  0  0  0  0  0  0
   10.4088   15.5675   21.1601 C   0  0  0  0  0  0  0  0  0  0  0  0
    9.6605   15.6630   19.5251 S   0  0  0  0  0  0  0  0  0  0  0  0
   10.8658   13.3671   22.0450 N   0  0  0  0  0  0  0  0  0  0  0  0
   10.3896   13.2971   23.4994 C   0  0  0  0  0  0  0  0  0  0  0  0
   10.4620   14.0818   24.3555 O   0  0  0  0  0  0  0  0  0  0  0  0
    9.6898   12.0453   23.7384 C   0  0  0  0  0  0  0  0  0  0  0  0
    9.9369   10.8328   23.1345 C   0  0  0  0  0  0  0  0  0  0  0  0
    9.1536    9.8865   23.7256 N   0  0  0  0  0  0  0  0  0  0  0  0
    9.2714    8.4804   23.4305 C   0  0  0  0  0  0  0  0  0  0  0  0
    8.3034   10.4766   24.6321 C   0  0  0  0  0  0  0  0  0  0  0  0
    7.2872    9.9511   25.4373 C   0  0  0  0  0  0  0  0  0  0  0  0
    6.5972   10.8233   26.2766 C   0  0  0  0  0  0  0  0  0  0  0  0
    5.6475   10.3336   27.0836 F   0  0  0  0  0  0  0  0  0  0  0  0
    6.8761   12.1781   26.3147 C   0  0  0  0  0  0  0  0  0  0  0  0
    7.8850   12.6988   25.5051 C   0  0  0  0  0  0  0  0  0  0  0  0
    8.6186   11.8380   24.6579 C   0  0  0  0  0  0  0  0  0  0  0  0
  2  1  1  1
  2  3  1  0
  3  4  1  0
  2  5  1  0
  5  6  1  0
  6  7  2  0
  6  8  1  0
  8  9  2  0
  9 10  1  0
 10 11  1  0
 10 12  1  0
 12 13  2  0
 13 14  1  0
 14 15  1  0
 14 16  2  0
 16 17  1  0
 17 18  2  0
 18  8  1  0
 18 12  1  0
M  END
>  <alias>  (1251) 
None

>  <rmsd(smina/fragmenstein)>  (1251) 
0.212

>  <smiles>  (1251) 
C[C@H](CS)NC(=O)c1cn(C)c2cc(F)ccc12

>  <gnina_score>  (1251) 
5.773

>  <inspiration_score>  (1251) 
None

>  <energy_score>  (1251) 
-9.846335

>  <distance_score>  (1251) 
0.529326

>  <gnina_score_min>  (1251) 
5.758

>  <inchikey>  (1251) 
YBNSRIXUOBJQJL-MRVPVSSYSA-N

>  <exports>  (1251) 
['/opt/xchem-fragalysis-2/maxwin/BulkDock/OUTPUTS/openbind_a71ev2a_c2_elabs_1LOUU54.sdf', '/opt/xchem-fragalysis-2/maxwin/BulkDock/OUTPUTS/openbind_a71ev2a_c2_elabs_1LSYIDY.sdf']

>  <name>  (1251) 
P577130

>  <ref_pdb>  (1251) 
A3066a

>  <subsites>  (1251) 
None

>  <HIPPO Pose ID>  (1251) 
577130

>  <ref_mols>  (1251) 
A3066a

>  <HIPPO Compound ID>  (1251) 
350518

>  <tags>  (1251) 
openbind_a71ev2a_c2_elabs,syndirella_product,openbind_a71ev2a_c2_elabs_fragonly_scored_top80percent,BulkDock Fragalysis export,openbind_a71ev2a_c2_elabs_scored,openbind_a71ev2a_c2_elabs_scored_top80percent,openbind_a71ev2a_c2_elabs_activefrags_only_scored_5.2plus,openbind_a71ev2a_c2_elabs_activefrags_only_scored_5.5plus,syndirella_placed

>  <smina_score_min>  (1251) 
-6.66

$$$$
P577132
     RDKit          3D

 18 19  0  0  0  0  0  0  0  0999 V2000
   12.8131   14.3203   22.7415 C   0  0  0  0  0  0  0  0  0  0  0  0
   12.4762   14.5263   21.2804 C   0  0  1  0  0  0  0  0  0  0  0  0
   12.9495   13.4714   20.5606 F   0  0  0  0  0  0  0  0  0  0  0  0
   10.9775   14.6255   21.0451 C   0  0  0  0  0  0  0  0  0  0  0  0
   10.3438   13.5461   21.7461 N   0  0  0  0  0  0  0  0  0  0  0  0
    9.7158   13.4993   23.1356 C   0  0  0  0  0  0  0  0  0  0  0  0
    9.5398   14.3440   23.9095 O   0  0  0  0  0  0  0  0  0  0  0  0
    9.3383   12.1445   23.5184 C   0  0  0  0  0  0  0  0  0  0  0  0
    9.8304   10.9474   23.0419 C   0  0  0  0  0  0  0  0  0  0  0  0
    9.1951    9.9250   23.6911 N   0  0  0  0  0  0  0  0  0  0  0  0
    9.4890    8.5311   23.4492 C   0  0  0  0  0  0  0  0  0  0  0  0
    8.2819   10.4351   24.5854 C   0  0  0  0  0  0  0  0  0  0  0  0
    7.3578    9.8179   25.4316 C   0  0  0  0  0  0  0  0  0  0  0  0
    6.5825   10.6164   26.2697 C   0  0  0  0  0  0  0  0  0  0  0  0
    5.7128   10.0310   27.1026 F   0  0  0  0  0  0  0  0  0  0  0  0
    6.6923   11.9934   26.2710 C   0  0  0  0  0  0  0  0  0  0  0  0
    7.5867   12.6092   25.3988 C   0  0  0  0  0  0  0  0  0  0  0  0
    8.3902   11.8246   24.5379 C   0  0  0  0  0  0  0  0  0  0  0  0
  2  1  1  1
  2  3  1  0
  2  4  1  0
  4  5  1  0
  5  6  1  0
  6  7  2  0
  6  8  1  0
  8  9  2  0
  9 10  1  0
 10 11  1  0
 10 12  1  0
 12 13  2  0
 13 14  1  0
 14 15  1  0
 14 16  2  0
 16 17  1  0
 17 18  2  0
 18  8  1  0
 18 12  1  0
M  END
>  <alias>  (1252) 
None

>  <rmsd(smina/fragmenstein)>  (1252) 
0.365

>  <smiles>  (1252) 
C[C@@H](F)CNC(=O)c1cn(C)c2cc(F)ccc12

>  <gnina_score>  (1252) 
5.341

>  <inspiration_score>  (1252) 
None

>  <energy_score>  (1252) 
-2.218813

>  <distance_score>  (1252) 
0.907019

>  <gnina_score_min>  (1252) 
5.405

>  <inchikey>  (1252) 
NDQBJKULSARRQQ-MRVPVSSYSA-N

>  <exports>  (1252) 
['/opt/xchem-fragalysis-2/maxwin/BulkDock/OUTPUTS/openbind_a71ev2a_c2_elabs_1LOUU54.sdf', '/opt/xchem-fragalysis-2/maxwin/BulkDock/OUTPUTS/openbind_a71ev2a_c2_elabs_1LSYIDY.sdf']

>  <name>  (1252) 
P577132

>  <ref_pdb>  (1252) 
A3066a

>  <subsites>  (1252) 
None

>  <HIPPO Pose ID>  (1252) 
577132

>  <ref_mols>  (1252) 
A3066a

>  <HIPPO Compound ID>  (1252) 
350522

>  <tags>  (1252) 
openbind_a71ev2a_c2_elabs,syndirella_product,openbind_a71ev2a_c2_elabs_fragonly_scored_top80percent,openbind_a71ev2a_c2_elabs_scored,BulkDock Fragalysis export,openbind_a71ev2a_c2_elabs_scored_top80percent,openbind_a71ev2a_c2_elabs_activefrags_only_scored_5.2plus,syndirella_placed

>  <smina_score_min>  (1252) 
-6.95

$$$$
P577133
     RDKit          3D

 18 19  0  0  0  0  0  0  0  0999 V2000
    9.2027    8.4425   23.4535 C   0  0  0  0  0  0  0  0  0  0  0  0
    9.1636    9.8593   23.7075 N   0  0  0  0  0  0  0  0  0  0  0  0
   10.0110   10.7336   23.0975 C   0  0  0  0  0  0  0  0  0  0  0  0
    9.9133   11.9512   23.7321 C   0  0  0  0  0  0  0  0  0  0  0  0
   10.7942   13.0996   23.5490 C   0  0  0  0  0  0  0  0  0  0  0  0
   10.9745   13.8290   24.4403 O   0  0  0  0  0  0  0  0  0  0  0  0
   11.2660   13.1749   22.0901 N   0  0  0  0  0  0  0  0  0  0  0  0
   12.1284   14.1025   21.4448 C   0  0  0  0  0  0  0  0  0  0  0  0
   11.4186   15.3772   21.6642 C   0  0  0  0  0  0  0  0  0  0  0  0
   10.4315   15.9141   20.9429 C   0  0  0  0  0  0  0  0  0  0  0  0
    9.9458   15.3720   19.4186 Cl  0  0  0  0  0  0  0  0  0  0  0  0
    8.7917   11.8544   24.6161 C   0  0  0  0  0  0  0  0  0  0  0  0
    8.1160   12.7823   25.4396 C   0  0  0  0  0  0  0  0  0  0  0  0
    7.0548   12.3535   26.2394 C   0  0  0  0  0  0  0  0  0  0  0  0
    6.6743   11.0218   26.2246 C   0  0  0  0  0  0  0  0  0  0  0  0
    5.6866   10.6199   27.0350 F   0  0  0  0  0  0  0  0  0  0  0  0
    7.3031   10.0835   25.4094 C   0  0  0  0  0  0  0  0  0  0  0  0
    8.3590   10.5237   24.6015 C   0  0  0  0  0  0  0  0  0  0  0  0
  1  2  1  0
  2  3  1  0
  3  4  2  0
  4  5  1  0
  5  6  2  0
  5  7  1  0
  7  8  1  0
  8  9  1  0
  9 10  2  0
 10 11  1  0
  4 12  1  0
 12 13  2  0
 13 14  1  0
 14 15  2  0
 15 16  1  0
 15 17  1  0
 17 18  2  0
 18  2  1  0
 18 12  1  0
M  END
>  <alias>  (1253) 
None

>  <rmsd(smina/fragmenstein)>  (1253) 
0.74

>  <smiles>  (1253) 
Cn1cc(C(=O)NC/C=C\Cl)c2ccc(F)cc21

>  <gnina_score>  (1253) 
5.526

>  <inspiration_score>  (1253) 
None

>  <energy_score>  (1253) 
-3.095424

>  <distance_score>  (1253) 
0.367098

>  <gnina_score_min>  (1253) 
5.455

>  <inchikey>  (1253) 
DDRQHTSNEPYLLK-DJWKRKHSSA-N

>  <exports>  (1253) 
['/opt/xchem-fragalysis-2/maxwin/BulkDock/OUTPUTS/openbind_a71ev2a_c2_elabs_1LOUU54.sdf', '/opt/xchem-fragalysis-2/maxwin/BulkDock/OUTPUTS/openbind_a71ev2a_c2_elabs_1LSYIDY.sdf']

>  <name>  (1253) 
P577133

>  <ref_pdb>  (1253) 
A3066a

>  <subsites>  (1253) 
None

>  <HIPPO Pose ID>  (1253) 
577133

>  <ref_mols>  (1253) 
A3066a

>  <HIPPO Compound ID>  (1253) 
350523

>  <tags>  (1253) 
openbind_a71ev2a_c2_elabs,syndirella_product,openbind_a71ev2a_c2_elabs_fragonly_scored_top80percent,openbind_a71ev2a_c2_elabs_scored,BulkDock Fragalysis export,openbind_a71ev2a_c2_elabs_scored_top80percent,openbind_a71ev2a_c2_elabs_activefrags_only_scored_5.2plus,syndirella_placed

>  <smina_score_min>  (1253) 
-6.816

$$$$
P577134
     RDKit          3D

 18 20  0  0  0  0  0  0  0  0999 V2000
    9.1662    8.5240   23.5178 C   0  0  0  0  0  0  0  0  0  0  0  0
    8.9338    9.8966   23.8978 N   0  0  0  0  0  0  0  0  0  0  0  0
    9.6718   10.9262   23.3983 C   0  0  0  0  0  0  0  0  0  0  0  0
    9.2941   12.0723   24.0654 C   0  0  0  0  0  0  0  0  0  0  0  0
    9.9180   13.3563   23.9347 C   0  0  0  0  0  0  0  0  0  0  0  0
   10.1130   14.0272   24.8629 O   0  0  0  0  0  0  0  0  0  0  0  0
   10.3134   13.5485   22.4749 N   0  0  0  0  0  0  0  0  0  0  0  0
   11.1127   14.5553   21.8553 C   0  0  0  0  0  0  0  0  0  0  0  0
   12.2709   14.8884   22.8309 C   0  0  0  0  0  0  0  0  0  0  0  0
   13.3347   15.1378   21.4361 S   0  0  0  0  0  0  0  0  0  0  0  0
   12.1020   14.0156   20.7960 C   0  0  0  0  0  0  0  0  0  0  0  0
    8.2527   11.7480   24.9531 C   0  0  0  0  0  0  0  0  0  0  0  0
    7.4868   12.5128   25.8583 C   0  0  0  0  0  0  0  0  0  0  0  0
    6.5188   11.8845   26.6325 C   0  0  0  0  0  0  0  0  0  0  0  0
    6.3123   10.5256   26.4875 C   0  0  0  0  0  0  0  0  0  0  0  0
    5.3847    9.9261   27.2446 F   0  0  0  0  0  0  0  0  0  0  0  0
    7.0394    9.7593   25.5784 C   0  0  0  0  0  0  0  0  0  0  0  0
    8.0318   10.3784   24.8227 C   0  0  0  0  0  0  0  0  0  0  0  0
  1  2  1  0
  2  3  1  0
  3  4  2  0
  4  5  1  0
  5  6  2  0
  5  7  1  0
  7  8  1  0
  8  9  1  0
  9 10  1  0
 10 11  1  0
  4 12  1  0
 12 13  2  0
 13 14  1  0
 14 15  2  0
 15 16  1  0
 15 17  1  0
 17 18  2  0
 18  2  1  0
 11  8  1  0
 18 12  1  0
M  END
>  <alias>  (1254) 
None

>  <rmsd(smina/fragmenstein)>  (1254) 
1.225

>  <smiles>  (1254) 
Cn1cc(C(=O)NC2CSC2)c2ccc(F)cc21

>  <gnina_score>  (1254) 
5.173

>  <inspiration_score>  (1254) 
None

>  <energy_score>  (1254) 
-5.005977

>  <distance_score>  (1254) 
0.871762

>  <gnina_score_min>  (1254) 
5.364

>  <inchikey>  (1254) 
BNLILCCAEGPMRY-UHFFFAOYSA-N

>  <exports>  (1254) 
['/opt/xchem-fragalysis-2/maxwin/BulkDock/OUTPUTS/openbind_a71ev2a_c2_elabs_1LOUU54.sdf', '/opt/xchem-fragalysis-2/maxwin/BulkDock/OUTPUTS/openbind_a71ev2a_c2_elabs_1LSYIDY.sdf']

>  <name>  (1254) 
P577134

>  <ref_pdb>  (1254) 
A3066a

>  <subsites>  (1254) 
None

>  <HIPPO Pose ID>  (1254) 
577134

>  <ref_mols>  (1254) 
A3066a

>  <HIPPO Compound ID>  (1254) 
350525

>  <tags>  (1254) 
openbind_a71ev2a_c2_elabs,syndirella_product,openbind_a71ev2a_c2_elabs_fragonly_scored_top80percent,openbind_a71ev2a_c2_elabs_scored,BulkDock Fragalysis export,openbind_a71ev2a_c2_elabs_scored_top80percent,openbind_a71ev2a_c2_elabs_activefrags_only_scored_5.2plus,syndirella_placed

>  <smina_score_min>  (1254) 
-5.73

$$$$
P577135
     RDKit          3D

 18 19  0  0  0  0  0  0  0  0999 V2000
   12.9166   14.3879   22.7234 C   0  0  0  0  0  0  0  0  0  0  0  0
   12.4198   14.5094   21.2995 C   0  0  0  0  0  0  0  0  0  0  0  0
   10.9165   14.7492   21.2819 C   0  0  1  0  0  0  0  0  0  0  0  0
   10.3556   14.9193   19.8861 C   0  0  0  0  0  0  0  0  0  0  0  0
   10.3025   13.6522   21.9744 N   0  0  0  0  0  0  0  0  0  0  0  0
    9.9727   13.4723   23.4570 C   0  0  0  0  0  0  0  0  0  0  0  0
   10.0740   14.2129   24.3468 O   0  0  0  0  0  0  0  0  0  0  0  0
    9.4487   12.1454   23.7100 C   0  0  0  0  0  0  0  0  0  0  0  0
    9.8463   10.9601   23.1296 C   0  0  0  0  0  0  0  0  0  0  0  0
    9.1531    9.9415   23.7212 N   0  0  0  0  0  0  0  0  0  0  0  0
    9.3809    8.5466   23.4249 C   0  0  0  0  0  0  0  0  0  0  0  0
    8.2580   10.4524   24.6351 C   0  0  0  0  0  0  0  0  0  0  0  0
    7.2961    9.8420   25.4432 C   0  0  0  0  0  0  0  0  0  0  0  0
    6.5475   10.6422   26.3043 C   0  0  0  0  0  0  0  0  0  0  0  0
    5.6465   10.0644   27.1088 F   0  0  0  0  0  0  0  0  0  0  0  0
    6.7184   12.0130   26.3632 C   0  0  0  0  0  0  0  0  0  0  0  0
    7.6623   12.6229   25.5406 C   0  0  0  0  0  0  0  0  0  0  0  0
    8.4436   11.8341   24.6662 C   0  0  0  0  0  0  0  0  0  0  0  0
  1  2  1  0
  2  3  1  0
  3  4  1  6
  3  5  1  0
  5  6  1  0
  6  7  2  0
  6  8  1  0
  8  9  2  0
  9 10  1  0
 10 11  1  0
 10 12  1  0
 12 13  2  0
 13 14  1  0
 14 15  1  0
 14 16  2  0
 16 17  1  0
 17 18  2  0
 18  8  1  0
 18 12  1  0
M  END
>  <alias>  (1255) 
None

>  <rmsd(smina/fragmenstein)>  (1255) 
0.44

>  <smiles>  (1255) 
CC[C@@H](C)NC(=O)c1cn(C)c2cc(F)ccc12

>  <gnina_score>  (1255) 
5.495

>  <inspiration_score>  (1255) 
None

>  <energy_score>  (1255) 
-14.446816

>  <distance_score>  (1255) 
0.781275

>  <gnina_score_min>  (1255) 
5.464

>  <inchikey>  (1255) 
XZVOUTHHBGAMFB-SECBINFHSA-N

>  <exports>  (1255) 
['/opt/xchem-fragalysis-2/maxwin/BulkDock/OUTPUTS/openbind_a71ev2a_c2_elabs_1LOUU54.sdf', '/opt/xchem-fragalysis-2/maxwin/BulkDock/OUTPUTS/openbind_a71ev2a_c2_elabs_1LSYIDY.sdf']

>  <name>  (1255) 
P577135

>  <ref_pdb>  (1255) 
A3066a

>  <subsites>  (1255) 
None

>  <HIPPO Pose ID>  (1255) 
577135

>  <ref_mols>  (1255) 
A3066a

>  <HIPPO Compound ID>  (1255) 
350527

>  <tags>  (1255) 
openbind_a71ev2a_c2_elabs,syndirella_product,openbind_a71ev2a_c2_elabs_fragonly_scored_top80percent,openbind_a71ev2a_c2_elabs_scored,BulkDock Fragalysis export,openbind_a71ev2a_c2_elabs_scored_top80percent,openbind_a71ev2a_c2_elabs_activefrags_only_scored_5.2plus,syndirella_placed

>  <smina_score_min>  (1255) 
-7.4

$$$$
P577136
     RDKit          3D

 18 19  0  0  0  0  0  0  0  0999 V2000
   13.5605   12.9756   24.5092 C   0  0  0  0  0  0  0  0  0  0  0  0
   13.1309   13.4110   23.4740 C   0  0  0  0  0  0  0  0  0  0  0  0
   12.3622   13.6980   22.2494 C   0  0  2  0  0  0  0  0  0  0  0  0
   12.0975   15.1553   22.0395 C   0  0  0  0  0  0  0  0  0  0  0  0
   11.2181   12.9461   22.5678 N   0  0  0  0  0  0  0  0  0  0  0  0
   10.1627   13.1574   23.6456 C   0  0  0  0  0  0  0  0  0  0  0  0
   10.0199   14.0287   24.3990 O   0  0  0  0  0  0  0  0  0  0  0  0
    9.3022   11.9909   23.7273 C   0  0  0  0  0  0  0  0  0  0  0  0
    9.5516   10.7628   23.1506 C   0  0  0  0  0  0  0  0  0  0  0  0
    8.8239    9.8275   23.8167 N   0  0  0  0  0  0  0  0  0  0  0  0
    9.0767    8.4252   23.6175 C   0  0  0  0  0  0  0  0  0  0  0  0
    7.9808   10.4323   24.7155 C   0  0  0  0  0  0  0  0  0  0  0  0
    7.0275    9.9174   25.5967 C   0  0  0  0  0  0  0  0  0  0  0  0
    6.3803   10.7989   26.4592 C   0  0  0  0  0  0  0  0  0  0  0  0
    5.4936   10.3125   27.3374 F   0  0  0  0  0  0  0  0  0  0  0  0
    6.6341   12.1577   26.4448 C   0  0  0  0  0  0  0  0  0  0  0  0
    7.5688   12.6724   25.5501 C   0  0  0  0  0  0  0  0  0  0  0  0
    8.2480   11.8033   24.6667 C   0  0  0  0  0  0  0  0  0  0  0  0
  1  2  3  0
  2  3  1  0
  3  4  1  1
  3  5  1  0
  5  6  1  0
  6  7  2  0
  6  8  1  0
  8  9  2  0
  9 10  1  0
 10 11  1  0
 10 12  1  0
 12 13  2  0
 13 14  1  0
 14 15  1  0
 14 16  2  0
 16 17  1  0
 17 18  2  0
 18  8  1  0
 18 12  1  0
M  END
>  <alias>  (1256) 
None

>  <rmsd(smina/fragmenstein)>  (1256) 
0.333

>  <smiles>  (1256) 
C#C[C@H](C)NC(=O)c1cn(C)c2cc(F)ccc12

>  <gnina_score>  (1256) 
5.299

>  <inspiration_score>  (1256) 
None

>  <energy_score>  (1256) 
-8.572094

>  <distance_score>  (1256) 
0.718412

>  <gnina_score_min>  (1256) 
5.291

>  <inchikey>  (1256) 
OWQWLMCIAKINAC-VIFPVBQESA-N

>  <exports>  (1256) 
['/opt/xchem-fragalysis-2/maxwin/BulkDock/OUTPUTS/openbind_a71ev2a_c2_elabs_1LOUU54.sdf', '/opt/xchem-fragalysis-2/maxwin/BulkDock/OUTPUTS/openbind_a71ev2a_c2_elabs_1LSYIDY.sdf']

>  <name>  (1256) 
P577136

>  <ref_pdb>  (1256) 
A3066a

>  <subsites>  (1256) 
None

>  <HIPPO Pose ID>  (1256) 
577136

>  <ref_mols>  (1256) 
A3066a

>  <HIPPO Compound ID>  (1256) 
350530

>  <tags>  (1256) 
openbind_a71ev2a_c2_elabs,syndirella_product,openbind_a71ev2a_c2_elabs_fragonly_scored_top80percent,openbind_a71ev2a_c2_elabs_scored,BulkDock Fragalysis export,openbind_a71ev2a_c2_elabs_scored_top80percent,openbind_a71ev2a_c2_elabs_activefrags_only_scored_5.2plus,syndirella_placed

>  <smina_score_min>  (1256) 
-4.929

$$$$
P577137
     RDKit          3D

 18 19  0  0  0  0  0  0  0  0999 V2000
    9.2803    8.5732   23.4028 C   0  0  0  0  0  0  0  0  0  0  0  0
    9.2481    9.9856   23.7016 N   0  0  0  0  0  0  0  0  0  0  0  0
   10.0752   10.8968   23.1121 C   0  0  0  0  0  0  0  0  0  0  0  0
    9.9258   12.1183   23.7362 C   0  0  0  0  0  0  0  0  0  0  0  0
   10.7082   13.3410   23.4966 C   0  0  0  0  0  0  0  0  0  0  0  0
   10.7934   14.1452   24.3351 O   0  0  0  0  0  0  0  0  0  0  0  0
   11.2162   13.3559   22.0481 N   0  0  0  0  0  0  0  0  0  0  0  0
   11.8505   14.3940   21.2961 C   0  0  0  0  0  0  0  0  0  0  0  0
   10.9364   14.7971   20.1378 C   0  0  0  0  0  0  0  0  0  0  0  0
    9.7402   15.6523   20.5384 C   0  0  0  0  0  0  0  0  0  0  0  0
    8.5179   14.7265   21.4405 Cl  0  0  0  0  0  0  0  0  0  0  0  0
    8.8127   11.9638   24.6282 C   0  0  0  0  0  0  0  0  0  0  0  0
    8.0928   12.8594   25.4506 C   0  0  0  0  0  0  0  0  0  0  0  0
    7.0394   12.3864   26.2365 C   0  0  0  0  0  0  0  0  0  0  0  0
    6.7053   11.0425   26.2077 C   0  0  0  0  0  0  0  0  0  0  0  0
    5.7165   10.6017   26.9959 F   0  0  0  0  0  0  0  0  0  0  0  0
    7.3763   10.1328   25.3945 C   0  0  0  0  0  0  0  0  0  0  0  0
    8.4238   10.6179   24.6011 C   0  0  0  0  0  0  0  0  0  0  0  0
  1  2  1  0
  2  3  1  0
  3  4  2  0
  4  5  1  0
  5  6  2  0
  5  7  1  0
  7  8  1  0
  8  9  1  0
  9 10  1  0
 10 11  1  0
  4 12  1  0
 12 13  2  0
 13 14  1  0
 14 15  2  0
 15 16  1  0
 15 17  1  0
 17 18  2  0
 18  2  1  0
 18 12  1  0
M  END
>  <alias>  (1257) 
None

>  <rmsd(smina/fragmenstein)>  (1257) 
0.283

>  <smiles>  (1257) 
Cn1cc(C(=O)NCCCCl)c2ccc(F)cc21

>  <gnina_score>  (1257) 
5.644

>  <inspiration_score>  (1257) 
None

>  <energy_score>  (1257) 
-4.01405

>  <distance_score>  (1257) 
0.378125

>  <gnina_score_min>  (1257) 
5.607

>  <inchikey>  (1257) 
NBHVOUSPAOYQMJ-UHFFFAOYSA-N

>  <exports>  (1257) 
['/opt/xchem-fragalysis-2/maxwin/BulkDock/OUTPUTS/openbind_a71ev2a_c2_elabs_1LOUU54.sdf', '/opt/xchem-fragalysis-2/maxwin/BulkDock/OUTPUTS/openbind_a71ev2a_c2_elabs_1LSYIDY.sdf']

>  <name>  (1257) 
P577137

>  <ref_pdb>  (1257) 
A3066a

>  <subsites>  (1257) 
None

>  <HIPPO Pose ID>  (1257) 
577137

>  <ref_mols>  (1257) 
A3066a

>  <HIPPO Compound ID>  (1257) 
350531

>  <tags>  (1257) 
openbind_a71ev2a_c2_elabs,syndirella_product,openbind_a71ev2a_c2_elabs_fragonly_scored_top80percent,BulkDock Fragalysis export,openbind_a71ev2a_c2_elabs_scored,openbind_a71ev2a_c2_elabs_scored_top80percent,openbind_a71ev2a_c2_elabs_activefrags_only_scored_5.2plus,openbind_a71ev2a_c2_elabs_activefrags_only_scored_5.5plus,syndirella_placed

>  <smina_score_min>  (1257) 
-6.925

$$$$
P577138
     RDKit          3D

 18 19  0  0  0  0  0  0  0  0999 V2000
    8.9734   15.0978   21.4650 C   0  0  0  0  0  0  0  0  0  0  0  0
   10.4200   15.4141   21.0497 C   0  0  0  0  0  0  0  0  0  0  0  0
   10.5583   15.0507   19.5882 C   0  0  0  0  0  0  0  0  0  0  0  0
   11.5253   14.7056   21.8541 C   0  0  0  0  0  0  0  0  0  0  0  0
   10.9659   13.5502   22.4679 N   0  0  0  0  0  0  0  0  0  0  0  0
   10.4996   13.3157   23.9039 C   0  0  0  0  0  0  0  0  0  0  0  0
   10.5667   14.0022   24.8402 O   0  0  0  0  0  0  0  0  0  0  0  0
    9.7935   12.0455   23.9845 C   0  0  0  0  0  0  0  0  0  0  0  0
   10.0248   10.9026   23.2501 C   0  0  0  0  0  0  0  0  0  0  0  0
    9.2214    9.9111   23.7332 N   0  0  0  0  0  0  0  0  0  0  0  0
    9.3274    8.5305   23.3262 C   0  0  0  0  0  0  0  0  0  0  0  0
    8.3402   10.4300   24.6537 C   0  0  0  0  0  0  0  0  0  0  0  0
    7.2980    9.8414   25.3743 C   0  0  0  0  0  0  0  0  0  0  0  0
    6.5511   10.6346   26.2471 C   0  0  0  0  0  0  0  0  0  0  0  0
    6.8279   11.9881   26.3798 C   0  0  0  0  0  0  0  0  0  0  0  0
    5.7982   13.0399   27.5654 Br  0  0  0  0  0  0  0  0  0  0  0  0
    7.8719   12.5765   25.6678 C   0  0  0  0  0  0  0  0  0  0  0  0
    8.6570   11.7796   24.8060 C   0  0  0  0  0  0  0  0  0  0  0  0
  1  2  1  0
  2  3  1  0
  2  4  1  0
  4  5  1  0
  5  6  1  0
  6  7  2  0
  6  8  1  0
  8  9  2  0
  9 10  1  0
 10 11  1  0
 10 12  1  0
 12 13  2  0
 13 14  1  0
 14 15  2  0
 15 16  1  0
 15 17  1  0
 17 18  2  0
 18  8  1  0
 18 12  1  0
M  END
>  <alias>  (1258) 
None

>  <rmsd(smina/fragmenstein)>  (1258) 
0.271

>  <smiles>  (1258) 
CC(C)CNC(=O)c1cn(C)c2ccc(Br)cc12

>  <gnina_score>  (1258) 
5.524

>  <inspiration_score>  (1258) 
None

>  <energy_score>  (1258) 
-4.553749

>  <distance_score>  (1258) 
0.472079

>  <gnina_score_min>  (1258) 
5.51

>  <inchikey>  (1258) 
OGWFJWVPGOBXBL-UHFFFAOYSA-N

>  <exports>  (1258) 
['/opt/xchem-fragalysis-2/maxwin/BulkDock/OUTPUTS/openbind_a71ev2a_c2_elabs_1LOUU54.sdf', '/opt/xchem-fragalysis-2/maxwin/BulkDock/OUTPUTS/openbind_a71ev2a_c2_elabs_1LSYIDY.sdf']

>  <name>  (1258) 
P577138

>  <ref_pdb>  (1258) 
A3066a

>  <subsites>  (1258) 
None

>  <HIPPO Pose ID>  (1258) 
577138

>  <ref_mols>  (1258) 
A3066a

>  <HIPPO Compound ID>  (1258) 
350532

>  <tags>  (1258) 
openbind_a71ev2a_c2_elabs,syndirella_product,openbind_a71ev2a_c2_elabs_fragonly_scored_top80percent,BulkDock Fragalysis export,openbind_a71ev2a_c2_elabs_scored,openbind_a71ev2a_c2_elabs_scored_top80percent,openbind_a71ev2a_c2_elabs_activefrags_only_scored_5.2plus,openbind_a71ev2a_c2_elabs_activefrags_only_scored_5.5plus,syndirella_placed

>  <smina_score_min>  (1258) 
-7.257

$$$$
P577139
     RDKit          3D

 18 19  0  0  0  0  0  0  0  0999 V2000
   12.6684   13.2972   24.0656 C   0  0  0  0  0  0  0  0  0  0  0  0
   13.1740   13.8257   22.8527 O   0  0  0  0  0  0  0  0  0  0  0  0
   12.4389   14.9049   22.2776 C   0  0  0  0  0  0  0  0  0  0  0  0
   11.3491   14.4656   21.3069 C   0  0  0  0  0  0  0  0  0  0  0  0
   10.5739   13.4305   21.9026 N   0  0  0  0  0  0  0  0  0  0  0  0
    9.6591   13.4544   23.1220 C   0  0  0  0  0  0  0  0  0  0  0  0
    9.3268   14.3377   23.7952 O   0  0  0  0  0  0  0  0  0  0  0  0
    9.2440   12.1061   23.5071 C   0  0  0  0  0  0  0  0  0  0  0  0
    9.7330   10.8990   23.0475 C   0  0  0  0  0  0  0  0  0  0  0  0
    9.1020    9.8867   23.7110 N   0  0  0  0  0  0  0  0  0  0  0  0
    9.3987    8.4939   23.4716 C   0  0  0  0  0  0  0  0  0  0  0  0
    8.2019   10.4080   24.6095 C   0  0  0  0  0  0  0  0  0  0  0  0
    7.2931    9.7943   25.4730 C   0  0  0  0  0  0  0  0  0  0  0  0
    6.5279   10.5845   26.3320 C   0  0  0  0  0  0  0  0  0  0  0  0
    6.6541   11.9644   26.3112 C   0  0  0  0  0  0  0  0  0  0  0  0
    5.6254   13.0165   27.4975 Br  0  0  0  0  0  0  0  0  0  0  0  0
    7.5246   12.5849   25.4179 C   0  0  0  0  0  0  0  0  0  0  0  0
    8.3065   11.7967   24.5423 C   0  0  0  0  0  0  0  0  0  0  0  0
  1  2  1  0
  2  3  1  0
  3  4  1  0
  4  5  1  0
  5  6  1  0
  6  7  2  0
  6  8  1  0
  8  9  2  0
  9 10  1  0
 10 11  1  0
 10 12  1  0
 12 13  2  0
 13 14  1  0
 14 15  2  0
 15 16  1  0
 15 17  1  0
 17 18  2  0
 18  8  1  0
 18 12  1  0
M  END
>  <alias>  (1259) 
None

>  <rmsd(smina/fragmenstein)>  (1259) 
0.379

>  <smiles>  (1259) 
COCCNC(=O)c1cn(C)c2ccc(Br)cc12

>  <gnina_score>  (1259) 
5.45

>  <inspiration_score>  (1259) 
None

>  <energy_score>  (1259) 
-2.439431

>  <distance_score>  (1259) 
0.891873

>  <gnina_score_min>  (1259) 
5.313

>  <inchikey>  (1259) 
XAKPMHQDRRTHMP-UHFFFAOYSA-N

>  <exports>  (1259) 
['/opt/xchem-fragalysis-2/maxwin/BulkDock/OUTPUTS/openbind_a71ev2a_c2_elabs_1LOUU54.sdf', '/opt/xchem-fragalysis-2/maxwin/BulkDock/OUTPUTS/openbind_a71ev2a_c2_elabs_1LSYIDY.sdf']

>  <name>  (1259) 
P577139

>  <ref_pdb>  (1259) 
A3066a

>  <subsites>  (1259) 
None

>  <HIPPO Pose ID>  (1259) 
577139

>  <ref_mols>  (1259) 
A3066a

>  <HIPPO Compound ID>  (1259) 
350533

>  <tags>  (1259) 
openbind_a71ev2a_c2_elabs,syndirella_product,openbind_a71ev2a_c2_elabs_fragonly_scored_top80percent,openbind_a71ev2a_c2_elabs_scored,BulkDock Fragalysis export,openbind_a71ev2a_c2_elabs_scored_top80percent,openbind_a71ev2a_c2_elabs_activefrags_only_scored_5.2plus,syndirella_placed

>  <smina_score_min>  (1259) 
-5.849

$$$$
P577140
     RDKit          3D

 18 19  0  0  0  0  0  0  0  0999 V2000
    9.3563    8.5916   23.2904 C   0  0  0  0  0  0  0  0  0  0  0  0
    9.2635    9.9942   23.6236 N   0  0  0  0  0  0  0  0  0  0  0  0
   10.0333   10.9631   23.0481 C   0  0  0  0  0  0  0  0  0  0  0  0
    9.7961   12.1620   23.6855 C   0  0  0  0  0  0  0  0  0  0  0  0
   10.5095   13.4217   23.4670 C   0  0  0  0  0  0  0  0  0  0  0  0
   10.6634   14.1500   24.3613 O   0  0  0  0  0  0  0  0  0  0  0  0
   10.8632   13.5799   21.9849 N   0  0  0  0  0  0  0  0  0  0  0  0
   11.3911   14.6949   21.2732 C   0  0  0  0  0  0  0  0  0  0  0  0
   10.2970   15.5879   20.8884 C   0  0  0  0  0  0  0  0  0  0  0  0
    9.4889   16.4367   20.6256 C   0  0  0  0  0  0  0  0  0  0  0  0
    8.3553   17.9397   20.2933 Br  0  0  0  0  0  0  0  0  0  0  0  0
    8.7213   11.9223   24.6011 C   0  0  0  0  0  0  0  0  0  0  0  0
    7.9755   12.7509   25.4671 C   0  0  0  0  0  0  0  0  0  0  0  0
    6.9658   12.1882   26.2512 C   0  0  0  0  0  0  0  0  0  0  0  0
    5.9764   13.2923   27.4248 Br  0  0  0  0  0  0  0  0  0  0  0  0
    6.6871   10.8282   26.1946 C   0  0  0  0  0  0  0  0  0  0  0  0
    7.4078    9.9931   25.3393 C   0  0  0  0  0  0  0  0  0  0  0  0
    8.4144   10.5589   24.5473 C   0  0  0  0  0  0  0  0  0  0  0  0
  1  2  1  0
  2  3  1  0
  3  4  2  0
  4  5  1  0
  5  6  2  0
  5  7  1  0
  7  8  1  0
  8  9  1  0
  9 10  3  0
 10 11  1  0
  4 12  1  0
 12 13  2  0
 13 14  1  0
 14 15  1  0
 14 16  2  0
 16 17  1  0
 17 18  2  0
 18  2  1  0
 18 12  1  0
M  END
>  <alias>  (1260) 
None

>  <rmsd(smina/fragmenstein)>  (1260) 
0.764

>  <smiles>  (1260) 
Cn1cc(C(=O)NCC#CBr)c2cc(Br)ccc21

>  <gnina_score>  (1260) 
5.515

>  <inspiration_score>  (1260) 
None

>  <energy_score>  (1260) 
-1.288034

>  <distance_score>  (1260) 
0.477904

>  <gnina_score_min>  (1260) 
5.284

>  <inchikey>  (1260) 
CDYYIZDBCOLMJV-UHFFFAOYSA-N

>  <exports>  (1260) 
['/opt/xchem-fragalysis-2/maxwin/BulkDock/OUTPUTS/openbind_a71ev2a_c2_elabs_1LOUU54.sdf', '/opt/xchem-fragalysis-2/maxwin/BulkDock/OUTPUTS/openbind_a71ev2a_c2_elabs_1LSYIDY.sdf']

>  <name>  (1260) 
P577140

>  <ref_pdb>  (1260) 
A3066a

>  <subsites>  (1260) 
None

>  <HIPPO Pose ID>  (1260) 
577140

>  <ref_mols>  (1260) 
A3066a

>  <HIPPO Compound ID>  (1260) 
350536

>  <tags>  (1260) 
openbind_a71ev2a_c2_elabs,syndirella_product,openbind_a71ev2a_c2_elabs_fragonly_scored_top80percent,openbind_a71ev2a_c2_elabs_scored,BulkDock Fragalysis export,openbind_a71ev2a_c2_elabs_scored_top80percent,openbind_a71ev2a_c2_elabs_activefrags_only_scored_5.2plus,syndirella_placed

>  <smina_score_min>  (1260) 
-6.976

$$$$
P577141
     RDKit          3D

 18 19  0  0  0  0  0  0  0  0999 V2000
    9.4521    8.5167   23.3883 C   0  0  0  0  0  0  0  0  0  0  0  0
    9.1825    9.9081   23.6677 N   0  0  0  0  0  0  0  0  0  0  0  0
    9.8255   10.9351   23.0379 C   0  0  0  0  0  0  0  0  0  0  0  0
    9.3375   12.1286   23.5274 C   0  0  0  0  0  0  0  0  0  0  0  0
    9.7312   13.4808   23.1522 C   0  0  0  0  0  0  0  0  0  0  0  0
    9.5754   14.3258   23.9332 O   0  0  0  0  0  0  0  0  0  0  0  0
   10.3758   13.5183   21.7671 N   0  0  0  0  0  0  0  0  0  0  0  0
   11.0515   14.5797   21.0836 C   0  0  0  0  0  0  0  0  0  0  0  0
   12.4989   14.6049   21.5791 C   0  0  0  0  0  0  0  0  0  0  0  0
   12.5693   14.7744   23.0391 N   0  0  0  0  0  0  0  0  0  0  0  0
   12.7946   13.4506   23.6019 O   0  0  0  0  0  0  0  0  0  0  0  0
    8.3912   11.7997   24.5458 C   0  0  0  0  0  0  0  0  0  0  0  0
    7.5943   12.5723   25.4208 C   0  0  0  0  0  0  0  0  0  0  0  0
    6.7075   11.9345   26.2854 C   0  0  0  0  0  0  0  0  0  0  0  0
    5.6612   12.9636   27.4763 Br  0  0  0  0  0  0  0  0  0  0  0  0
    6.5800   10.5537   26.2767 C   0  0  0  0  0  0  0  0  0  0  0  0
    7.3586    9.7791   25.4148 C   0  0  0  0  0  0  0  0  0  0  0  0
    8.2791   10.4107   24.5761 C   0  0  0  0  0  0  0  0  0  0  0  0
  1  2  1  0
  2  3  1  0
  3  4  2  0
  4  5  1  0
  5  6  2  0
  5  7  1  0
  7  8  1  0
  8  9  1  0
  9 10  1  0
 10 11  1  0
  4 12  1  0
 12 13  2  0
 13 14  1  0
 14 15  1  0
 14 16  2  0
 16 17  1  0
 17 18  2  0
 18  2  1  0
 18 12  1  0
M  END
>  <alias>  (1261) 
None

>  <rmsd(smina/fragmenstein)>  (1261) 
0.646

>  <smiles>  (1261) 
Cn1cc(C(=O)NCCNO)c2cc(Br)ccc21

>  <gnina_score>  (1261) 
5.49

>  <inspiration_score>  (1261) 
None

>  <energy_score>  (1261) 
-3.062008

>  <distance_score>  (1261) 
0.883543

>  <gnina_score_min>  (1261) 
5.426

>  <inchikey>  (1261) 
LJIFNEYTKWVKRH-UHFFFAOYSA-N

>  <exports>  (1261) 
['/opt/xchem-fragalysis-2/maxwin/BulkDock/OUTPUTS/openbind_a71ev2a_c2_elabs_1LOUU54.sdf', '/opt/xchem-fragalysis-2/maxwin/BulkDock/OUTPUTS/openbind_a71ev2a_c2_elabs_1LSYIDY.sdf']

>  <name>  (1261) 
P577141

>  <ref_pdb>  (1261) 
A3066a

>  <subsites>  (1261) 
None

>  <HIPPO Pose ID>  (1261) 
577141

>  <ref_mols>  (1261) 
A3066a

>  <HIPPO Compound ID>  (1261) 
350537

>  <tags>  (1261) 
openbind_a71ev2a_c2_elabs,syndirella_product,openbind_a71ev2a_c2_elabs_fragonly_scored_top80percent,openbind_a71ev2a_c2_elabs_scored,BulkDock Fragalysis export,openbind_a71ev2a_c2_elabs_scored_top80percent,openbind_a71ev2a_c2_elabs_activefrags_only_scored_5.2plus,syndirella_placed

>  <smina_score_min>  (1261) 
-6.826

$$$$
P577142
     RDKit          3D

 18 19  0  0  0  0  0  0  0  0999 V2000
    9.1969    8.4797   23.5075 C   0  0  0  0  0  0  0  0  0  0  0  0
    9.1900    9.8990   23.7539 N   0  0  0  0  0  0  0  0  0  0  0  0
   10.0522   10.7521   23.1370 C   0  0  0  0  0  0  0  0  0  0  0  0
    9.9591   11.9969   23.7248 C   0  0  0  0  0  0  0  0  0  0  0  0
   10.8116   13.1632   23.4466 C   0  0  0  0  0  0  0  0  0  0  0  0
   10.8809   14.0337   24.2182 O   0  0  0  0  0  0  0  0  0  0  0  0
   11.4140   13.0291   22.0399 N   0  0  0  0  0  0  0  0  0  0  0  0
   12.1466   13.9695   21.2482 C   0  0  0  0  0  0  0  0  0  0  0  0
   11.1267   14.6788   20.3581 C   0  0  0  0  0  0  0  0  0  0  0  0
   10.3449   15.6513   21.2145 C   0  0  0  0  0  0  0  0  0  0  0  0
    9.0075   16.8467   20.1818 I   0  0  0  0  0  0  0  0  0  0  0  0
    8.8370   11.9172   24.6187 C   0  0  0  0  0  0  0  0  0  0  0  0
    8.1577   12.8600   25.4199 C   0  0  0  0  0  0  0  0  0  0  0  0
    7.0861   12.4405   26.2128 C   0  0  0  0  0  0  0  0  0  0  0  0
    6.1979   13.6990   27.3102 Br  0  0  0  0  0  0  0  0  0  0  0  0
    6.6757   11.1130   26.2240 C   0  0  0  0  0  0  0  0  0  0  0  0
    7.3180   10.1657   25.4259 C   0  0  0  0  0  0  0  0  0  0  0  0
    8.3893   10.5896   24.6284 C   0  0  0  0  0  0  0  0  0  0  0  0
  1  2  1  0
  2  3  1  0
  3  4  2  0
  4  5  1  0
  5  6  2  0
  5  7  1  0
  7  8  1  0
  8  9  1  0
  9 10  1  0
 10 11  1  0
  4 12  1  0
 12 13  2  0
 13 14  1  0
 14 15  1  0
 14 16  2  0
 16 17  1  0
 17 18  2  0
 18  2  1  0
 18 12  1  0
M  END
>  <alias>  (1262) 
None

>  <rmsd(smina/fragmenstein)>  (1262) 
0.921

>  <smiles>  (1262) 
Cn1cc(C(=O)NCCCI)c2cc(Br)ccc21

>  <gnina_score>  (1262) 
5.599

>  <inspiration_score>  (1262) 
None

>  <energy_score>  (1262) 
-4.15465

>  <distance_score>  (1262) 
0.427101

>  <gnina_score_min>  (1262) 
5.549

>  <inchikey>  (1262) 
JDAYEXQJYXOTGO-UHFFFAOYSA-N

>  <exports>  (1262) 
['/opt/xchem-fragalysis-2/maxwin/BulkDock/OUTPUTS/openbind_a71ev2a_c2_elabs_1LOUU54.sdf', '/opt/xchem-fragalysis-2/maxwin/BulkDock/OUTPUTS/openbind_a71ev2a_c2_elabs_1LSYIDY.sdf']

>  <name>  (1262) 
P577142

>  <ref_pdb>  (1262) 
A3066a

>  <subsites>  (1262) 
None

>  <HIPPO Pose ID>  (1262) 
577142

>  <ref_mols>  (1262) 
A3066a

>  <HIPPO Compound ID>  (1262) 
350539

>  <tags>  (1262) 
openbind_a71ev2a_c2_elabs,syndirella_product,openbind_a71ev2a_c2_elabs_fragonly_scored_top80percent,BulkDock Fragalysis export,openbind_a71ev2a_c2_elabs_scored,openbind_a71ev2a_c2_elabs_scored_top80percent,openbind_a71ev2a_c2_elabs_activefrags_only_scored_5.2plus,openbind_a71ev2a_c2_elabs_activefrags_only_scored_5.5plus,syndirella_placed

>  <smina_score_min>  (1262) 
-6.353

$$$$
P577143
     RDKit          3D

 18 19  0  0  0  0  0  0  0  0999 V2000
   12.4718   14.2931   22.9288 C   0  0  0  0  0  0  0  0  0  0  0  0
   11.9346   14.9574   21.6662 C   0  0  1  0  0  0  0  0  0  0  0  0
   12.6716   14.1305   20.2432 S   0  0  0  0  0  0  0  0  0  0  0  0
   10.4233   14.8917   21.4732 C   0  0  0  0  0  0  0  0  0  0  0  0
    9.9260   13.7395   22.1371 N   0  0  0  0  0  0  0  0  0  0  0  0
    9.3862   13.5677   23.5476 C   0  0  0  0  0  0  0  0  0  0  0  0
    9.1862   14.3520   24.3764 O   0  0  0  0  0  0  0  0  0  0  0  0
    9.1232   12.1754   23.8229 C   0  0  0  0  0  0  0  0  0  0  0  0
    9.6907   11.0602   23.2389 C   0  0  0  0  0  0  0  0  0  0  0  0
    9.0846    9.9570   23.7704 N   0  0  0  0  0  0  0  0  0  0  0  0
    9.3843    8.6024   23.3648 C   0  0  0  0  0  0  0  0  0  0  0  0
    8.1583   10.3485   24.7115 C   0  0  0  0  0  0  0  0  0  0  0  0
    7.2507    9.6267   25.4780 C   0  0  0  0  0  0  0  0  0  0  0  0
    6.4412   10.2906   26.4031 C   0  0  0  0  0  0  0  0  0  0  0  0
    6.5245   11.6651   26.5455 C   0  0  0  0  0  0  0  0  0  0  0  0
    5.4604   12.5473   27.8339 Br  0  0  0  0  0  0  0  0  0  0  0  0
    7.3873   12.4018   25.7436 C   0  0  0  0  0  0  0  0  0  0  0  0
    8.2106   11.7316   24.8109 C   0  0  0  0  0  0  0  0  0  0  0  0
  2  1  1  1
  2  3  1  0
  2  4  1  0
  4  5  1  0
  5  6  1  0
  6  7  2  0
  6  8  1  0
  8  9  2  0
  9 10  1  0
 10 11  1  0
 10 12  1  0
 12 13  2  0
 13 14  1  0
 14 15  2  0
 15 16  1  0
 15 17  1  0
 17 18  2  0
 18  8  1  0
 18 12  1  0
M  END
>  <alias>  (1263) 
None

>  <rmsd(smina/fragmenstein)>  (1263) 
0.621

>  <smiles>  (1263) 
C[C@@H](S)CNC(=O)c1cn(C)c2ccc(Br)cc12

>  <gnina_score>  (1263) 
5.591

>  <inspiration_score>  (1263) 
None

>  <energy_score>  (1263) 
-5.088782

>  <distance_score>  (1263) 
1.130205

>  <gnina_score_min>  (1263) 
5.627

>  <inchikey>  (1263) 
OTYOKELJOBSFPN-MRVPVSSYSA-N

>  <exports>  (1263) 
['/opt/xchem-fragalysis-2/maxwin/BulkDock/OUTPUTS/openbind_a71ev2a_c2_elabs_1LOUU54.sdf', '/opt/xchem-fragalysis-2/maxwin/BulkDock/OUTPUTS/openbind_a71ev2a_c2_elabs_1LSYIDY.sdf']

>  <name>  (1263) 
P577143

>  <ref_pdb>  (1263) 
A3066a

>  <subsites>  (1263) 
None

>  <HIPPO Pose ID>  (1263) 
577143

>  <ref_mols>  (1263) 
A3066a

>  <HIPPO Compound ID>  (1263) 
350544

>  <tags>  (1263) 
openbind_a71ev2a_c2_elabs,syndirella_product,openbind_a71ev2a_c2_elabs_fragonly_scored_top80percent,BulkDock Fragalysis export,openbind_a71ev2a_c2_elabs_scored,openbind_a71ev2a_c2_elabs_scored_top80percent,openbind_a71ev2a_c2_elabs_activefrags_only_scored_5.2plus,openbind_a71ev2a_c2_elabs_activefrags_only_scored_5.5plus,syndirella_placed

>  <smina_score_min>  (1263) 
-5.966

$$$$
P577145
     RDKit          3D

 18 20  0  0  0  0  0  0  0  0999 V2000
    9.3191    8.5940   23.2568 C   0  0  0  0  0  0  0  0  0  0  0  0
    9.2350    9.9728   23.6757 N   0  0  0  0  0  0  0  0  0  0  0  0
   10.0128   10.9677   23.1624 C   0  0  0  0  0  0  0  0  0  0  0  0
    9.7902   12.1131   23.8934 C   0  0  0  0  0  0  0  0  0  0  0  0
   10.4898   13.3744   23.7357 C   0  0  0  0  0  0  0  0  0  0  0  0
   10.8013   14.0179   24.6698 O   0  0  0  0  0  0  0  0  0  0  0  0
   10.6044   13.6712   22.2723 N   0  0  0  0  0  0  0  0  0  0  0  0
    9.3402   14.3846   21.7396 C   0  0  0  0  0  0  0  0  0  0  0  0
   10.1005   14.9479   20.5968 C   0  0  0  0  0  0  0  0  0  0  0  0
    9.4865   16.6169   20.2410 S   0  0  0  0  0  0  0  0  0  0  0  0
   11.2467   14.8430   21.5441 C   0  0  0  0  0  0  0  0  0  0  0  0
    8.6945   11.8439   24.7620 C   0  0  0  0  0  0  0  0  0  0  0  0
    7.9329   12.6404   25.6430 C   0  0  0  0  0  0  0  0  0  0  0  0
    6.8978   12.0511   26.3698 C   0  0  0  0  0  0  0  0  0  0  0  0
    5.8880   13.1053   27.5712 Br  0  0  0  0  0  0  0  0  0  0  0  0
    6.6121   10.6983   26.2382 C   0  0  0  0  0  0  0  0  0  0  0  0
    7.3465    9.9009   25.3580 C   0  0  0  0  0  0  0  0  0  0  0  0
    8.3760   10.4917   24.6192 C   0  0  0  0  0  0  0  0  0  0  0  0
  1  2  1  0
  2  3  1  0
  3  4  2  0
  4  5  1  0
  5  6  2  0
  5  7  1  0
  7  8  1  0
  8  9  1  0
  9 10  1  0
  9 11  1  0
  4 12  1  0
 12 13  2  0
 13 14  1  0
 14 15  1  0
 14 16  2  0
 16 17  1  0
 17 18  2  0
 18  2  1  0
 11  7  1  0
 18 12  1  0
M  END
>  <alias>  (1264) 
None

>  <rmsd(smina/fragmenstein)>  (1264) 
0.167

>  <smiles>  (1264) 
Cn1cc(C(=O)N2CC(S)C2)c2cc(Br)ccc21

>  <gnina_score>  (1264) 
5.618

>  <inspiration_score>  (1264) 
None

>  <energy_score>  (1264) 
-5.189013

>  <distance_score>  (1264) 
0.522045

>  <gnina_score_min>  (1264) 
5.636

>  <inchikey>  (1264) 
XZFSMIVFJKLDCV-UHFFFAOYSA-N

>  <exports>  (1264) 
['/opt/xchem-fragalysis-2/maxwin/BulkDock/OUTPUTS/openbind_a71ev2a_c2_elabs_1LOUU54.sdf', '/opt/xchem-fragalysis-2/maxwin/BulkDock/OUTPUTS/openbind_a71ev2a_c2_elabs_1LSYIDY.sdf']

>  <name>  (1264) 
P577145

>  <ref_pdb>  (1264) 
A3066a

>  <subsites>  (1264) 
None

>  <HIPPO Pose ID>  (1264) 
577145

>  <ref_mols>  (1264) 
A3066a

>  <HIPPO Compound ID>  (1264) 
350549

>  <tags>  (1264) 
openbind_a71ev2a_c2_elabs,syndirella_product,openbind_a71ev2a_c2_elabs_fragonly_scored_top80percent,BulkDock Fragalysis export,openbind_a71ev2a_c2_elabs_scored,openbind_a71ev2a_c2_elabs_scored_top80percent,openbind_a71ev2a_c2_elabs_activefrags_only_scored_5.2plus,openbind_a71ev2a_c2_elabs_activefrags_only_scored_5.5plus,syndirella_placed

>  <smina_score_min>  (1264) 
-7.669

$$$$
P577146
     RDKit          3D

 18 19  0  0  0  0  0  0  0  0999 V2000
   10.6033   15.0678   19.2798 C   0  0  0  0  0  0  0  0  0  0  0  0
   10.5554   15.1811   20.7897 C   0  0  0  0  0  0  0  0  0  0  0  0
   11.5797   14.3028   21.3505 N   0  0  0  0  0  0  0  0  0  0  0  0
   12.6180   14.9698   22.0988 C   0  0  0  0  0  0  0  0  0  0  0  0
   10.9890   13.2977   22.0571 N   0  0  0  0  0  0  0  0  0  0  0  0
   10.4875   13.2581   23.5210 C   0  0  0  0  0  0  0  0  0  0  0  0
   10.5721   14.0542   24.3725 O   0  0  0  0  0  0  0  0  0  0  0  0
    9.7534   12.0196   23.7578 C   0  0  0  0  0  0  0  0  0  0  0  0
    9.9693   10.8041   23.1458 C   0  0  0  0  0  0  0  0  0  0  0  0
    9.1682    9.8708   23.7315 N   0  0  0  0  0  0  0  0  0  0  0  0
    9.2668    8.4631   23.4361 C   0  0  0  0  0  0  0  0  0  0  0  0
    8.3227   10.4742   24.6317 C   0  0  0  0  0  0  0  0  0  0  0  0
    7.2895    9.9566   25.4203 C   0  0  0  0  0  0  0  0  0  0  0  0
    6.5918   10.8252   26.2611 C   0  0  0  0  0  0  0  0  0  0  0  0
    6.9093   12.1762   26.2986 C   0  0  0  0  0  0  0  0  0  0  0  0
    5.9487   13.3284   27.4493 Br  0  0  0  0  0  0  0  0  0  0  0  0
    7.9368   12.6947   25.5095 C   0  0  0  0  0  0  0  0  0  0  0  0
    8.6654   11.8286   24.6657 C   0  0  0  0  0  0  0  0  0  0  0  0
  1  2  1  0
  2  3  1  0
  3  4  1  0
  3  5  1  0
  5  6  1  0
  6  7  2  0
  6  8  1  0
  8  9  2  0
  9 10  1  0
 10 11  1  0
 10 12  1  0
 12 13  2  0
 13 14  1  0
 14 15  2  0
 15 16  1  0
 15 17  1  0
 17 18  2  0
 18  8  1  0
 18 12  1  0
M  END
>  <alias>  (1265) 
None

>  <rmsd(smina/fragmenstein)>  (1265) 
0.26

>  <smiles>  (1265) 
CCN(C)NC(=O)c1cn(C)c2ccc(Br)cc12

>  <gnina_score>  (1265) 
5.866

>  <inspiration_score>  (1265) 
None

>  <energy_score>  (1265) 
-3.628128

>  <distance_score>  (1265) 
0.4768

>  <gnina_score_min>  (1265) 
5.876

>  <inchikey>  (1265) 
FMBVBTJPDHRTHA-UHFFFAOYSA-N

>  <exports>  (1265) 
['/opt/xchem-fragalysis-2/maxwin/BulkDock/OUTPUTS/openbind_a71ev2a_c2_elabs_1LOUU54.sdf', '/opt/xchem-fragalysis-2/maxwin/BulkDock/OUTPUTS/openbind_a71ev2a_c2_elabs_1LSYIDY.sdf']

>  <name>  (1265) 
P577146

>  <ref_pdb>  (1265) 
A3066a

>  <subsites>  (1265) 
None

>  <HIPPO Pose ID>  (1265) 
577146

>  <ref_mols>  (1265) 
A3066a

>  <HIPPO Compound ID>  (1265) 
350551

>  <tags>  (1265) 
openbind_a71ev2a_c2_elabs,syndirella_product,openbind_a71ev2a_c2_elabs_fragonly_scored_top80percent,BulkDock Fragalysis export,openbind_a71ev2a_c2_elabs_scored,openbind_a71ev2a_c2_elabs_scored_top80percent,openbind_a71ev2a_c2_elabs_activefrags_only_scored_5.2plus,openbind_a71ev2a_c2_elabs_activefrags_only_scored_5.5plus,syndirella_placed

>  <smina_score_min>  (1265) 
-7.094

$$$$
P577147
     RDKit          3D

 18 19  0  0  0  0  0  0  0  0999 V2000
   12.3765   14.0019   20.3585 C   0  0  0  0  0  0  0  0  0  0  0  0
   11.6475   14.4124   21.6142 C   0  0  2  0  0  0  0  0  0  0  0  0
   12.6478   14.6943   22.7406 C   0  0  0  0  0  0  0  0  0  0  0  0
   13.0082   13.2752   23.8089 Cl  0  0  0  0  0  0  0  0  0  0  0  0
   10.7524   13.4200   22.1091 N   0  0  0  0  0  0  0  0  0  0  0  0
    9.8555   13.4206   23.3442 C   0  0  0  0  0  0  0  0  0  0  0  0
    9.6411   14.2585   24.1178 O   0  0  0  0  0  0  0  0  0  0  0  0
    9.2815   12.1079   23.5872 C   0  0  0  0  0  0  0  0  0  0  0  0
    9.7187   10.8997   23.0848 C   0  0  0  0  0  0  0  0  0  0  0  0
    9.0399    9.8970   23.7151 N   0  0  0  0  0  0  0  0  0  0  0  0
    9.3095    8.5011   23.4684 C   0  0  0  0  0  0  0  0  0  0  0  0
    8.1497   10.4287   24.6192 C   0  0  0  0  0  0  0  0  0  0  0  0
    7.2285    9.8344   25.4845 C   0  0  0  0  0  0  0  0  0  0  0  0
    6.4931   10.6516   26.3400 C   0  0  0  0  0  0  0  0  0  0  0  0
    5.6385   10.0889   27.2036 F   0  0  0  0  0  0  0  0  0  0  0  0
    6.6305   12.0260   26.3333 C   0  0  0  0  0  0  0  0  0  0  0  0
    7.5218   12.6201   25.4443 C   0  0  0  0  0  0  0  0  0  0  0  0
    8.2909   11.8157   24.5709 C   0  0  0  0  0  0  0  0  0  0  0  0
  2  1  1  6
  2  3  1  0
  3  4  1  0
  2  5  1  0
  5  6  1  0
  6  7  2  0
  6  8  1  0
  8  9  2  0
  9 10  1  0
 10 11  1  0
 10 12  1  0
 12 13  2  0
 13 14  1  0
 14 15  1  0
 14 16  2  0
 16 17  1  0
 17 18  2  0
 18  8  1  0
 18 12  1  0
M  END
>  <alias>  (1266) 
None

>  <rmsd(smina/fragmenstein)>  (1266) 
1.201

>  <smiles>  (1266) 
C[C@H](CCl)NC(=O)c1cn(C)c2cc(F)ccc12

>  <gnina_score>  (1266) 
5.559

>  <inspiration_score>  (1266) 
None

>  <energy_score>  (1266) 
-4.297403

>  <distance_score>  (1266) 
0.750383

>  <gnina_score_min>  (1266) 
5.562

>  <inchikey>  (1266) 
VSIGFXOFEQWYFV-MRVPVSSYSA-N

>  <exports>  (1266) 
['/opt/xchem-fragalysis-2/maxwin/BulkDock/OUTPUTS/openbind_a71ev2a_c2_elabs_1LOUU54.sdf', '/opt/xchem-fragalysis-2/maxwin/BulkDock/OUTPUTS/openbind_a71ev2a_c2_elabs_1LSYIDY.sdf']

>  <name>  (1266) 
P577147

>  <ref_pdb>  (1266) 
A3066a

>  <subsites>  (1266) 
None

>  <HIPPO Pose ID>  (1266) 
577147

>  <ref_mols>  (1266) 
A3066a

>  <HIPPO Compound ID>  (1266) 
350553

>  <tags>  (1266) 
openbind_a71ev2a_c2_elabs,syndirella_product,openbind_a71ev2a_c2_elabs_fragonly_scored_top80percent,BulkDock Fragalysis export,openbind_a71ev2a_c2_elabs_scored,openbind_a71ev2a_c2_elabs_scored_top80percent,openbind_a71ev2a_c2_elabs_activefrags_only_scored_5.2plus,openbind_a71ev2a_c2_elabs_activefrags_only_scored_5.5plus,syndirella_placed

>  <smina_score_min>  (1266) 
-7.217

$$$$
P577150
     RDKit          3D

 18 19  0  0  0  0  0  0  0  0999 V2000
   13.0416   13.2892   23.9388 C   0  0  0  0  0  0  0  0  0  0  0  0
   12.9413   14.1614   22.9159 C   0  0  0  0  0  0  0  0  0  0  0  0
   11.7952   14.3546   21.9526 C   0  0  1  0  0  0  0  0  0  0  0  0
   12.2738   14.1737   20.5340 C   0  0  0  0  0  0  0  0  0  0  0  0
   10.8450   13.3926   22.3579 N   0  0  0  0  0  0  0  0  0  0  0  0
    9.8654   13.3993   23.5232 C   0  0  0  0  0  0  0  0  0  0  0  0
    9.6229   14.2281   24.2972 O   0  0  0  0  0  0  0  0  0  0  0  0
    9.2413   12.0976   23.6848 C   0  0  0  0  0  0  0  0  0  0  0  0
    9.6650   10.8979   23.1487 C   0  0  0  0  0  0  0  0  0  0  0  0
    8.9807    9.8879   23.7602 N   0  0  0  0  0  0  0  0  0  0  0  0
    9.2695    8.4966   23.5086 C   0  0  0  0  0  0  0  0  0  0  0  0
    8.0830   10.4096   24.6625 C   0  0  0  0  0  0  0  0  0  0  0  0
    7.1589    9.8075   25.5173 C   0  0  0  0  0  0  0  0  0  0  0  0
    6.4225   10.6136   26.3821 C   0  0  0  0  0  0  0  0  0  0  0  0
    5.5608   10.0398   27.2311 F   0  0  0  0  0  0  0  0  0  0  0  0
    6.5602   11.9875   26.3943 C   0  0  0  0  0  0  0  0  0  0  0  0
    7.4565   12.5910   25.5179 C   0  0  0  0  0  0  0  0  0  0  0  0
    8.2271   11.7964   24.6374 C   0  0  0  0  0  0  0  0  0  0  0  0
  1  2  2  0
  2  3  1  0
  3  4  1  6
  3  5  1  0
  5  6  1  0
  6  7  2  0
  6  8  1  0
  8  9  2  0
  9 10  1  0
 10 11  1  0
 10 12  1  0
 12 13  2  0
 13 14  1  0
 14 15  1  0
 14 16  2  0
 16 17  1  0
 17 18  2  0
 18  8  1  0
 18 12  1  0
M  END
>  <alias>  (1267) 
None

>  <rmsd(smina/fragmenstein)>  (1267) 
1.176

>  <smiles>  (1267) 
C=C[C@@H](C)NC(=O)c1cn(C)c2cc(F)ccc12

>  <gnina_score>  (1267) 
5.361

>  <inspiration_score>  (1267) 
None

>  <energy_score>  (1267) 
-16.89726

>  <distance_score>  (1267) 
0.753517

>  <gnina_score_min>  (1267) 
5.396

>  <inchikey>  (1267) 
GCAFVCHZZWKAPC-SECBINFHSA-N

>  <exports>  (1267) 
['/opt/xchem-fragalysis-2/maxwin/BulkDock/OUTPUTS/openbind_a71ev2a_c2_elabs_1LOUU54.sdf', '/opt/xchem-fragalysis-2/maxwin/BulkDock/OUTPUTS/openbind_a71ev2a_c2_elabs_1LSYIDY.sdf']

>  <name>  (1267) 
P577150

>  <ref_pdb>  (1267) 
A3066a

>  <subsites>  (1267) 
None

>  <HIPPO Pose ID>  (1267) 
577150

>  <ref_mols>  (1267) 
A3066a

>  <HIPPO Compound ID>  (1267) 
350556

>  <tags>  (1267) 
openbind_a71ev2a_c2_elabs,syndirella_product,openbind_a71ev2a_c2_elabs_fragonly_scored_top80percent,openbind_a71ev2a_c2_elabs_scored,BulkDock Fragalysis export,openbind_a71ev2a_c2_elabs_scored_top80percent,openbind_a71ev2a_c2_elabs_activefrags_only_scored_5.2plus,syndirella_placed

>  <smina_score_min>  (1267) 
-7.39

$$$$
P577151
     RDKit          3D

 18 20  0  0  0  0  0  0  0  0999 V2000
    9.2506    8.3897   23.4941 C   0  0  0  0  0  0  0  0  0  0  0  0
    9.1409    9.7999   23.7595 N   0  0  0  0  0  0  0  0  0  0  0  0
    9.9523   10.7131   23.1597 C   0  0  0  0  0  0  0  0  0  0  0  0
    9.7596   11.9286   23.7736 C   0  0  0  0  0  0  0  0  0  0  0  0
   10.5183   13.1444   23.5510 C   0  0  0  0  0  0  0  0  0  0  0  0
   10.6318   13.9201   24.4160 O   0  0  0  0  0  0  0  0  0  0  0  0
   10.9753   13.2136   22.0796 N   0  0  0  0  0  0  0  0  0  0  0  0
   11.5667   14.2600   21.3577 C   0  0  0  0  0  0  0  0  0  0  0  0
   12.5204   13.8994   20.2608 C   0  0  0  0  0  0  0  0  0  0  0  0
   11.8829   15.5401   22.0306 C   0  0  0  0  0  0  0  0  0  0  0  0
   10.6549   15.4468   21.1628 C   0  0  0  0  0  0  0  0  0  0  0  0
    8.6611   11.7720   24.6702 C   0  0  0  0  0  0  0  0  0  0  0  0
    7.9454   12.6656   25.4987 C   0  0  0  0  0  0  0  0  0  0  0  0
    6.9089   12.1867   26.2997 C   0  0  0  0  0  0  0  0  0  0  0  0
    6.5881   10.8411   26.2724 C   0  0  0  0  0  0  0  0  0  0  0  0
    5.6152   10.3874   27.0727 F   0  0  0  0  0  0  0  0  0  0  0  0
    7.2578    9.9392   25.4483 C   0  0  0  0  0  0  0  0  0  0  0  0
    8.2979   10.4232   24.6485 C   0  0  0  0  0  0  0  0  0  0  0  0
  1  2  1  0
  2  3  1  0
  3  4  2  0
  4  5  1  0
  5  6  2  0
  5  7  1  0
  7  8  1  0
  8  9  1  0
  8 10  1  0
 10 11  1  0
  4 12  1  0
 12 13  2  0
 13 14  1  0
 14 15  2  0
 15 16  1  0
 15 17  1  0
 17 18  2  0
 18  2  1  0
 11  8  1  0
 18 12  1  0
M  END
>  <alias>  (1268) 
None

>  <rmsd(smina/fragmenstein)>  (1268) 
0.802

>  <smiles>  (1268) 
Cn1cc(C(=O)NC2(C)CC2)c2ccc(F)cc21

>  <gnina_score>  (1268) 
5.309

>  <inspiration_score>  (1268) 
None

>  <energy_score>  (1268) 
-0.021105

>  <distance_score>  (1268) 
0.495467

>  <gnina_score_min>  (1268) 
5.576

>  <inchikey>  (1268) 
FGXKEONNENKHBY-UHFFFAOYSA-N

>  <exports>  (1268) 
['/opt/xchem-fragalysis-2/maxwin/BulkDock/OUTPUTS/openbind_a71ev2a_c2_elabs_1LOUU54.sdf', '/opt/xchem-fragalysis-2/maxwin/BulkDock/OUTPUTS/openbind_a71ev2a_c2_elabs_1LSYIDY.sdf']

>  <name>  (1268) 
P577151

>  <ref_pdb>  (1268) 
A3066a

>  <subsites>  (1268) 
None

>  <HIPPO Pose ID>  (1268) 
577151

>  <ref_mols>  (1268) 
A3066a

>  <HIPPO Compound ID>  (1268) 
350562

>  <tags>  (1268) 
openbind_a71ev2a_c2_elabs,syndirella_product,openbind_a71ev2a_c2_elabs_fragonly_scored_top80percent,BulkDock Fragalysis export,openbind_a71ev2a_c2_elabs_scored,openbind_a71ev2a_c2_elabs_scored_top80percent,openbind_a71ev2a_c2_elabs_activefrags_only_scored_5.2plus,openbind_a71ev2a_c2_elabs_activefrags_only_scored_5.5plus,syndirella_placed

>  <smina_score_min>  (1268) 
-7.527

$$$$
P577152
     RDKit          3D

 18 20  0  0  0  0  0  0  0  0999 V2000
    9.3570    8.7583   23.1850 C   0  0  0  0  0  0  0  0  0  0  0  0
    9.2509   10.1345   23.6190 N   0  0  0  0  0  0  0  0  0  0  0  0
   10.0238   11.1529   23.1295 C   0  0  0  0  0  0  0  0  0  0  0  0
    9.7916   12.2844   23.8826 C   0  0  0  0  0  0  0  0  0  0  0  0
   10.5401   13.5401   23.8703 C   0  0  0  0  0  0  0  0  0  0  0  0
   10.7019   14.1099   24.8878 O   0  0  0  0  0  0  0  0  0  0  0  0
   10.9015   13.9355   22.4669 N   0  0  0  0  0  0  0  0  0  0  0  0
   11.4840   15.2113   21.9269 C   0  0  0  0  0  0  0  0  0  0  0  0
   12.3677   14.4603   20.9834 C   0  0  0  0  0  0  0  0  0  0  0  0
   11.8283   14.1510   19.6791 O   0  0  0  0  0  0  0  0  0  0  0  0
   12.3203   13.4482   22.0887 C   0  0  0  0  0  0  0  0  0  0  0  0
    8.6817   11.9800   24.7307 C   0  0  0  0  0  0  0  0  0  0  0  0
    7.9139   12.7476   25.6350 C   0  0  0  0  0  0  0  0  0  0  0  0
    6.8964   12.1382   26.3693 C   0  0  0  0  0  0  0  0  0  0  0  0
    6.6534   10.7838   26.2152 C   0  0  0  0  0  0  0  0  0  0  0  0
    5.7013   10.2072   26.9592 F   0  0  0  0  0  0  0  0  0  0  0  0
    7.3830    9.9999   25.3239 C   0  0  0  0  0  0  0  0  0  0  0  0
    8.3880   10.6223   24.5741 C   0  0  0  0  0  0  0  0  0  0  0  0
  1  2  1  0
  2  3  1  0
  3  4  2  0
  4  5  1  0
  5  6  2  0
  5  7  1  0
  7  8  1  0
  8  9  1  0
  9 10  1  0
  9 11  1  0
  4 12  1  0
 12 13  2  0
 13 14  1  0
 14 15  2  0
 15 16  1  0
 15 17  1  0
 17 18  2  0
 18  2  1  0
 11  7  1  0
 18 12  1  0
M  END
>  <alias>  (1269) 
None

>  <rmsd(smina/fragmenstein)>  (1269) 
0.278

>  <smiles>  (1269) 
Cn1cc(C(=O)N2CC(O)C2)c2ccc(F)cc21

>  <gnina_score>  (1269) 
5.369

>  <inspiration_score>  (1269) 
None

>  <energy_score>  (1269) 
-1.478742

>  <distance_score>  (1269) 
0.494934

>  <gnina_score_min>  (1269) 
5.355

>  <inchikey>  (1269) 
NTGVFNWLEPXZDN-UHFFFAOYSA-N

>  <exports>  (1269) 
['/opt/xchem-fragalysis-2/maxwin/BulkDock/OUTPUTS/openbind_a71ev2a_c2_elabs_1LOUU54.sdf', '/opt/xchem-fragalysis-2/maxwin/BulkDock/OUTPUTS/openbind_a71ev2a_c2_elabs_1LSYIDY.sdf']

>  <name>  (1269) 
P577152

>  <ref_pdb>  (1269) 
A3066a

>  <subsites>  (1269) 
None

>  <HIPPO Pose ID>  (1269) 
577152

>  <ref_mols>  (1269) 
A3066a

>  <HIPPO Compound ID>  (1269) 
350564

>  <tags>  (1269) 
openbind_a71ev2a_c2_elabs,syndirella_product,openbind_a71ev2a_c2_elabs_fragonly_scored_top80percent,openbind_a71ev2a_c2_elabs_scored,BulkDock Fragalysis export,openbind_a71ev2a_c2_elabs_scored_top80percent,openbind_a71ev2a_c2_elabs_activefrags_only_scored_5.2plus,syndirella_placed

>  <smina_score_min>  (1269) 
-7.091

$$$$
P577154
     RDKit          3D

 18 20  0  0  0  0  0  0  0  0999 V2000
   10.2090   15.7394   19.8996 C   0  0  0  0  0  0  0  0  0  0  0  0
   10.6469   15.3462   21.2551 C   0  0  2  0  0  0  0  0  0  0  0  0
   12.0325   15.3978   21.8811 C   0  0  0  0  0  0  0  0  0  0  0  0
   11.5034   14.1196   21.3721 C   0  0  1  0  0  0  0  0  0  0  0  0
   10.9289   13.1231   22.1453 N   0  0  0  0  0  0  0  0  0  0  0  0
   10.4980   13.1269   23.6210 C   0  0  0  0  0  0  0  0  0  0  0  0
   10.6273   13.9426   24.4444 O   0  0  0  0  0  0  0  0  0  0  0  0
    9.7473   11.9160   23.8841 C   0  0  0  0  0  0  0  0  0  0  0  0
    9.9362   10.6937   23.2817 C   0  0  0  0  0  0  0  0  0  0  0  0
    9.0841    9.8011   23.8490 N   0  0  0  0  0  0  0  0  0  0  0  0
    9.1523    8.3977   23.5463 C   0  0  0  0  0  0  0  0  0  0  0  0
    8.2477   10.4361   24.7350 C   0  0  0  0  0  0  0  0  0  0  0  0
    7.1865    9.9706   25.5181 C   0  0  0  0  0  0  0  0  0  0  0  0
    6.5316   10.8833   26.3424 C   0  0  0  0  0  0  0  0  0  0  0  0
    5.5495   10.4483   27.1418 F   0  0  0  0  0  0  0  0  0  0  0  0
    6.8763   12.2234   26.3740 C   0  0  0  0  0  0  0  0  0  0  0  0
    7.9266   12.6856   25.5825 C   0  0  0  0  0  0  0  0  0  0  0  0
    8.6388   11.7779   24.7678 C   0  0  0  0  0  0  0  0  0  0  0  0
  2  1  1  6
  2  3  1  0
  3  4  1  0
  4  5  1  1
  5  6  1  0
  6  7  2  0
  6  8  1  0
  8  9  2  0
  9 10  1  0
 10 11  1  0
 10 12  1  0
 12 13  2  0
 13 14  1  0
 14 15  1  0
 14 16  2  0
 16 17  1  0
 17 18  2  0
  4  2  1  0
 18  8  1  0
 18 12  1  0
M  END
>  <alias>  (1270) 
None

>  <rmsd(smina/fragmenstein)>  (1270) 
0.264

>  <smiles>  (1270) 
C[C@@H]1C[C@H]1NC(=O)c1cn(C)c2cc(F)ccc12

>  <gnina_score>  (1270) 
5.476

>  <inspiration_score>  (1270) 
None

>  <energy_score>  (1270) 
-5.643084

>  <distance_score>  (1270) 
0.556302

>  <gnina_score_min>  (1270) 
5.474

>  <inchikey>  (1270) 
POKWOSNHVTYBDE-PRHODGIISA-N

>  <exports>  (1270) 
['/opt/xchem-fragalysis-2/maxwin/BulkDock/OUTPUTS/openbind_a71ev2a_c2_elabs_1LOUU54.sdf', '/opt/xchem-fragalysis-2/maxwin/BulkDock/OUTPUTS/openbind_a71ev2a_c2_elabs_1LSYIDY.sdf']

>  <name>  (1270) 
P577154

>  <ref_pdb>  (1270) 
A3066a

>  <subsites>  (1270) 
None

>  <HIPPO Pose ID>  (1270) 
577154

>  <ref_mols>  (1270) 
A3066a

>  <HIPPO Compound ID>  (1270) 
350565

>  <tags>  (1270) 
openbind_a71ev2a_c2_elabs,syndirella_product,openbind_a71ev2a_c2_elabs_fragonly_scored_top80percent,openbind_a71ev2a_c2_elabs_scored,BulkDock Fragalysis export,openbind_a71ev2a_c2_elabs_scored_top80percent,openbind_a71ev2a_c2_elabs_activefrags_only_scored_5.2plus,syndirella_placed

>  <smina_score_min>  (1270) 
-6.911

$$$$
P577156
     RDKit          3D

 18 19  0  0  0  0  0  0  0  0999 V2000
   12.4473   14.3117   20.6801 C   0  0  0  0  0  0  0  0  0  0  0  0
   11.2648   14.7721   21.5114 C   0  0  1  0  0  0  0  0  0  0  0  0
   10.2328   15.4479   20.7003 C   0  0  0  0  0  0  0  0  0  0  0  0
    9.4109   15.9605   20.0582 N   0  0  0  0  0  0  0  0  0  0  0  0
   10.6971   13.6421   22.1851 N   0  0  0  0  0  0  0  0  0  0  0  0
   10.4471   13.3956   23.6682 C   0  0  0  0  0  0  0  0  0  0  0  0
   10.7293   14.0343   24.5959 O   0  0  0  0  0  0  0  0  0  0  0  0
    9.7194   12.1470   23.8338 C   0  0  0  0  0  0  0  0  0  0  0  0
    9.9600   10.9634   23.1682 C   0  0  0  0  0  0  0  0  0  0  0  0
    9.1717    9.9918   23.7157 N   0  0  0  0  0  0  0  0  0  0  0  0
    9.2722    8.5930   23.3702 C   0  0  0  0  0  0  0  0  0  0  0  0
    8.3167   10.5486   24.6403 C   0  0  0  0  0  0  0  0  0  0  0  0
    7.2982    9.9898   25.4199 C   0  0  0  0  0  0  0  0  0  0  0  0
    6.5992   10.8320   26.2825 C   0  0  0  0  0  0  0  0  0  0  0  0
    5.6435   10.3131   27.0637 F   0  0  0  0  0  0  0  0  0  0  0  0
    6.8759   12.1859   26.3712 C   0  0  0  0  0  0  0  0  0  0  0  0
    7.8945   12.7375   25.5945 C   0  0  0  0  0  0  0  0  0  0  0  0
    8.6343   11.9078   24.7240 C   0  0  0  0  0  0  0  0  0  0  0  0
  2  1  1  6
  2  3  1  0
  3  4  3  0
  2  5  1  0
  5  6  1  0
  6  7  2  0
  6  8  1  0
  8  9  2  0
  9 10  1  0
 10 11  1  0
 10 12  1  0
 12 13  2  0
 13 14  1  0
 14 15  1  0
 14 16  2  0
 16 17  1  0
 17 18  2  0
 18  8  1  0
 18 12  1  0
M  END
>  <alias>  (1271) 
None

>  <rmsd(smina/fragmenstein)>  (1271) 
0.361

>  <smiles>  (1271) 
C[C@@H](C#N)NC(=O)c1cn(C)c2cc(F)ccc12

>  <gnina_score>  (1271) 
5.663

>  <inspiration_score>  (1271) 
None

>  <energy_score>  (1271) 
-2.411439

>  <distance_score>  (1271) 
0.530354

>  <gnina_score_min>  (1271) 
5.713

>  <inchikey>  (1271) 
UVTGYPFGTMYKFH-QMMMGPOBSA-N

>  <exports>  (1271) 
['/opt/xchem-fragalysis-2/maxwin/BulkDock/OUTPUTS/openbind_a71ev2a_c2_elabs_1LOUU54.sdf', '/opt/xchem-fragalysis-2/maxwin/BulkDock/OUTPUTS/openbind_a71ev2a_c2_elabs_1LSYIDY.sdf']

>  <name>  (1271) 
P577156

>  <ref_pdb>  (1271) 
A3066a

>  <subsites>  (1271) 
None

>  <HIPPO Pose ID>  (1271) 
577156

>  <ref_mols>  (1271) 
A3066a

>  <HIPPO Compound ID>  (1271) 
350566

>  <tags>  (1271) 
openbind_a71ev2a_c2_elabs,syndirella_product,openbind_a71ev2a_c2_elabs_fragonly_scored_top80percent,BulkDock Fragalysis export,openbind_a71ev2a_c2_elabs_scored,openbind_a71ev2a_c2_elabs_scored_top80percent,openbind_a71ev2a_c2_elabs_activefrags_only_scored_5.2plus,openbind_a71ev2a_c2_elabs_activefrags_only_scored_5.5plus,syndirella_placed

>  <smina_score_min>  (1271) 
-7.419

$$$$
P577157
     RDKit          3D

 18 19  0  0  0  0  0  0  0  0999 V2000
   11.6375   14.5523   19.0555 C   0  0  0  0  0  0  0  0  0  0  0  0
   11.8703   14.4759   20.3705 C   0  0  0  0  0  0  0  0  0  0  0  0
   10.9322   14.9117   21.4488 C   0  0  1  0  0  0  0  0  0  0  0  0
    9.6672   15.6231   20.9586 C   0  0  0  0  0  0  0  0  0  0  0  0
   10.5424   13.7222   22.1360 N   0  0  0  0  0  0  0  0  0  0  0  0
   10.3271   13.4614   23.6250 C   0  0  0  0  0  0  0  0  0  0  0  0
   10.5055   14.1493   24.5440 O   0  0  0  0  0  0  0  0  0  0  0  0
    9.7154   12.1548   23.8098 C   0  0  0  0  0  0  0  0  0  0  0  0
   10.0096   10.9954   23.1270 C   0  0  0  0  0  0  0  0  0  0  0  0
    9.2598    9.9816   23.6502 N   0  0  0  0  0  0  0  0  0  0  0  0
    9.3792    8.6006   23.2438 C   0  0  0  0  0  0  0  0  0  0  0  0
    8.3854   10.4828   24.5886 C   0  0  0  0  0  0  0  0  0  0  0  0
    7.3818    9.8648   25.3403 C   0  0  0  0  0  0  0  0  0  0  0  0
    6.6255   10.6435   26.2186 C   0  0  0  0  0  0  0  0  0  0  0  0
    6.8655   12.0062   26.3365 C   0  0  0  0  0  0  0  0  0  0  0  0
    5.8315   13.0345   27.5398 Br  0  0  0  0  0  0  0  0  0  0  0  0
    7.8688   12.6243   25.5903 C   0  0  0  0  0  0  0  0  0  0  0  0
    8.6488   11.8480   24.7061 C   0  0  0  0  0  0  0  0  0  0  0  0
  1  2  2  0
  2  3  1  0
  3  4  1  6
  3  5  1  0
  5  6  1  0
  6  7  2  0
  6  8  1  0
  8  9  2  0
  9 10  1  0
 10 11  1  0
 10 12  1  0
 12 13  2  0
 13 14  1  0
 14 15  2  0
 15 16  1  0
 15 17  1  0
 17 18  2  0
 18  8  1  0
 18 12  1  0
M  END
>  <alias>  (1272) 
None

>  <rmsd(smina/fragmenstein)>  (1272) 
0.287

>  <smiles>  (1272) 
C=C[C@@H](C)NC(=O)c1cn(C)c2ccc(Br)cc12

>  <gnina_score>  (1272) 
5.447

>  <inspiration_score>  (1272) 
None

>  <energy_score>  (1272) 
-20.574113

>  <distance_score>  (1272) 
0.619179

>  <gnina_score_min>  (1272) 
5.462

>  <inchikey>  (1272) 
GSROYVDNIKRGMG-SECBINFHSA-N

>  <exports>  (1272) 
['/opt/xchem-fragalysis-2/maxwin/BulkDock/OUTPUTS/openbind_a71ev2a_c2_elabs_1LOUU54.sdf', '/opt/xchem-fragalysis-2/maxwin/BulkDock/OUTPUTS/openbind_a71ev2a_c2_elabs_1LSYIDY.sdf']

>  <name>  (1272) 
P577157

>  <ref_pdb>  (1272) 
A3066a

>  <subsites>  (1272) 
None

>  <HIPPO Pose ID>  (1272) 
577157

>  <ref_mols>  (1272) 
A3066a

>  <HIPPO Compound ID>  (1272) 
350573

>  <tags>  (1272) 
openbind_a71ev2a_c2_elabs,syndirella_product,openbind_a71ev2a_c2_elabs_fragonly_scored_top80percent,openbind_a71ev2a_c2_elabs_scored,BulkDock Fragalysis export,openbind_a71ev2a_c2_elabs_scored_top80percent,openbind_a71ev2a_c2_elabs_activefrags_only_scored_5.2plus,syndirella_placed

>  <smina_score_min>  (1272) 
-6.561

$$$$
P577161
     RDKit          3D

 18 20  0  0  0  0  0  0  0  0999 V2000
    9.3028    8.4161   23.5866 C   0  0  0  0  0  0  0  0  0  0  0  0
    9.1083    9.8165   23.8630 N   0  0  0  0  0  0  0  0  0  0  0  0
    9.8346   10.7787   23.2297 C   0  0  0  0  0  0  0  0  0  0  0  0
    9.4210   12.0072   23.6925 C   0  0  0  0  0  0  0  0  0  0  0  0
    9.8161   13.3128   23.2049 C   0  0  0  0  0  0  0  0  0  0  0  0
    9.6099   14.2557   23.8536 O   0  0  0  0  0  0  0  0  0  0  0  0
   10.3837   13.1869   21.7859 N   0  0  0  0  0  0  0  0  0  0  0  0
   10.9062   14.1862   20.8984 C   0  0  0  0  0  0  0  0  0  0  0  0
   10.5250   15.6009   21.2650 C   0  0  0  0  0  0  0  0  0  0  0  0
   11.8576   15.6476   22.0493 C   0  0  0  0  0  0  0  0  0  0  0  0
   12.3709   14.4940   21.1951 C   0  0  0  0  0  0  0  0  0  0  0  0
    8.4435   11.7713   24.7002 C   0  0  0  0  0  0  0  0  0  0  0  0
    7.6765   12.6219   25.5279 C   0  0  0  0  0  0  0  0  0  0  0  0
    6.7593   12.0786   26.4248 C   0  0  0  0  0  0  0  0  0  0  0  0
    6.5695   10.7072   26.4641 C   0  0  0  0  0  0  0  0  0  0  0  0
    5.5204   10.0398   27.6560 Cl  0  0  0  0  0  0  0  0  0  0  0  0
    7.2604    9.8525   25.6001 C   0  0  0  0  0  0  0  0  0  0  0  0
    8.2308   10.3941   24.7515 C   0  0  0  0  0  0  0  0  0  0  0  0
  1  2  1  0
  2  3  1  0
  3  4  2  0
  4  5  1  0
  5  6  2  0
  5  7  1  0
  7  8  1  0
  8  9  1  0
  9 10  1  0
 10 11  1  0
  4 12  1  0
 12 13  2  0
 13 14  1  0
 14 15  2  0
 15 16  1  0
 15 17  1  0
 17 18  2  0
 18  2  1  0
 11  8  1  0
 18 12  1  0
M  END
>  <alias>  (1273) 
None

>  <rmsd(smina/fragmenstein)>  (1273) 
1.17

>  <smiles>  (1273) 
Cn1cc(C(=O)NC2CCC2)c2ccc(Cl)cc21

>  <gnina_score>  (1273) 
5.384

>  <inspiration_score>  (1273) 
None

>  <energy_score>  (1273) 
-1.663134

>  <distance_score>  (1273) 
0.92654

>  <gnina_score_min>  (1273) 
5.486

>  <inchikey>  (1273) 
PDBVECABGXHLIJ-UHFFFAOYSA-N

>  <exports>  (1273) 
['/opt/xchem-fragalysis-2/maxwin/BulkDock/OUTPUTS/openbind_a71ev2a_c2_elabs_1LOUU54.sdf', '/opt/xchem-fragalysis-2/maxwin/BulkDock/OUTPUTS/openbind_a71ev2a_c2_elabs_1LSYIDY.sdf']

>  <name>  (1273) 
P577161

>  <ref_pdb>  (1273) 
A3066a

>  <subsites>  (1273) 
None

>  <HIPPO Pose ID>  (1273) 
577161

>  <ref_mols>  (1273) 
A3066a

>  <HIPPO Compound ID>  (1273) 
350581

>  <tags>  (1273) 
openbind_a71ev2a_c2_elabs,syndirella_product,openbind_a71ev2a_c2_elabs_fragonly_scored_top80percent,openbind_a71ev2a_c2_elabs_scored,BulkDock Fragalysis export,openbind_a71ev2a_c2_elabs_scored_top80percent,openbind_a71ev2a_c2_elabs_activefrags_only_scored_5.2plus,syndirella_placed

>  <smina_score_min>  (1273) 
-6.989

$$$$
P577162
     RDKit          3D

 18 19  0  0  0  0  0  0  0  0999 V2000
   12.4543   14.3201   20.7028 C   0  0  0  0  0  0  0  0  0  0  0  0
   11.3898   14.7721   21.6811 C   0  0  1  0  0  0  0  0  0  0  0  0
   10.2981   15.7352   21.1975 C   0  0  0  0  0  0  0  0  0  0  0  0
    9.6846   15.5767   19.5253 S   0  0  0  0  0  0  0  0  0  0  0  0
   10.7801   13.6334   22.3014 N   0  0  0  0  0  0  0  0  0  0  0  0
   10.3831   13.3891   23.7553 C   0  0  0  0  0  0  0  0  0  0  0  0
   10.5548   14.0400   24.7035 O   0  0  0  0  0  0  0  0  0  0  0  0
    9.6600   12.1340   23.8697 C   0  0  0  0  0  0  0  0  0  0  0  0
    9.9149   10.9630   23.1890 C   0  0  0  0  0  0  0  0  0  0  0  0
    9.1323    9.9777   23.7214 N   0  0  0  0  0  0  0  0  0  0  0  0
    9.2535    8.5849   23.3582 C   0  0  0  0  0  0  0  0  0  0  0  0
    8.2819   10.5119   24.6651 C   0  0  0  0  0  0  0  0  0  0  0  0
    7.2986    9.9283   25.4734 C   0  0  0  0  0  0  0  0  0  0  0  0
    6.6315   10.7406   26.3955 C   0  0  0  0  0  0  0  0  0  0  0  0
    5.5668   10.0223   27.5445 Cl  0  0  0  0  0  0  0  0  0  0  0  0
    6.8697   12.1058   26.4640 C   0  0  0  0  0  0  0  0  0  0  0  0
    7.8353   12.6841   25.6410 C   0  0  0  0  0  0  0  0  0  0  0  0
    8.5752   11.8736   24.7537 C   0  0  0  0  0  0  0  0  0  0  0  0
  2  1  1  6
  2  3  1  0
  3  4  1  0
  2  5  1  0
  5  6  1  0
  6  7  2  0
  6  8  1  0
  8  9  2  0
  9 10  1  0
 10 11  1  0
 10 12  1  0
 12 13  2  0
 13 14  1  0
 14 15  1  0
 14 16  2  0
 16 17  1  0
 17 18  2  0
 18  8  1  0
 18 12  1  0
M  END
>  <alias>  (1274) 
None

>  <rmsd(smina/fragmenstein)>  (1274) 
0.3

>  <smiles>  (1274) 
C[C@@H](CS)NC(=O)c1cn(C)c2cc(Cl)ccc12

>  <gnina_score>  (1274) 
5.779

>  <inspiration_score>  (1274) 
None

>  <energy_score>  (1274) 
-4.365853

>  <distance_score>  (1274) 
0.532413

>  <gnina_score_min>  (1274) 
5.698

>  <inchikey>  (1274) 
IUJZIXLFVHPKFZ-QMMMGPOBSA-N

>  <exports>  (1274) 
['/opt/xchem-fragalysis-2/maxwin/BulkDock/OUTPUTS/openbind_a71ev2a_c2_elabs_1LOUU54.sdf', '/opt/xchem-fragalysis-2/maxwin/BulkDock/OUTPUTS/openbind_a71ev2a_c2_elabs_1LSYIDY.sdf']

>  <name>  (1274) 
P577162

>  <ref_pdb>  (1274) 
A3066a

>  <subsites>  (1274) 
None

>  <HIPPO Pose ID>  (1274) 
577162

>  <ref_mols>  (1274) 
A3066a

>  <HIPPO Compound ID>  (1274) 
350582

>  <tags>  (1274) 
openbind_a71ev2a_c2_elabs,syndirella_product,openbind_a71ev2a_c2_elabs_fragonly_scored_top80percent,BulkDock Fragalysis export,openbind_a71ev2a_c2_elabs_scored,openbind_a71ev2a_c2_elabs_scored_top80percent,openbind_a71ev2a_c2_elabs_activefrags_only_scored_5.2plus,openbind_a71ev2a_c2_elabs_activefrags_only_scored_5.5plus,syndirella_placed

>  <smina_score_min>  (1274) 
-6.304

$$$$
P577164
     RDKit          3D

 18 19  0  0  0  0  0  0  0  0999 V2000
    9.2246    8.6186   23.3937 C   0  0  0  0  0  0  0  0  0  0  0  0
    9.1062   10.0137   23.7522 N   0  0  0  0  0  0  0  0  0  0  0  0
    9.9186   10.9903   23.2479 C   0  0  0  0  0  0  0  0  0  0  0  0
    9.7010   12.1540   23.9608 C   0  0  0  0  0  0  0  0  0  0  0  0
   10.5263   13.3625   23.9517 C   0  0  0  0  0  0  0  0  0  0  0  0
   10.5875   14.0214   24.9069 O   0  0  0  0  0  0  0  0  0  0  0  0
   11.2419   13.4944   22.6121 N   0  0  0  0  0  0  0  0  0  0  0  0
   12.2574   14.4070   22.1862 C   0  0  0  0  0  0  0  0  0  0  0  0
   12.5339   14.3372   20.7005 C   0  0  1  0  0  0  0  0  0  0  0  0
   12.9672   13.1006   20.3622 F   0  0  0  0  0  0  0  0  0  0  0  0
   11.0950   14.7359   19.7347 Cl  0  0  0  0  0  0  0  0  0  0  0  0
    8.5716   11.9094   24.7973 C   0  0  0  0  0  0  0  0  0  0  0  0
    7.8334   12.7182   25.6877 C   0  0  0  0  0  0  0  0  0  0  0  0
    6.8551   12.1420   26.4984 C   0  0  0  0  0  0  0  0  0  0  0  0
    6.6047   10.7797   26.4182 C   0  0  0  0  0  0  0  0  0  0  0  0
    5.5405   10.0558   27.5634 Cl  0  0  0  0  0  0  0  0  0  0  0  0
    7.2623    9.9703   25.4877 C   0  0  0  0  0  0  0  0  0  0  0  0
    8.2540   10.5530   24.6888 C   0  0  0  0  0  0  0  0  0  0  0  0
  1  2  1  0
  2  3  1  0
  3  4  2  0
  4  5  1  0
  5  6  2  0
  5  7  1  0
  7  8  1  0
  8  9  1  0
  9 10  1  6
  9 11  1  0
  4 12  1  0
 12 13  2  0
 13 14  1  0
 14 15  2  0
 15 16  1  0
 15 17  1  0
 17 18  2  0
 18  2  1  0
 18 12  1  0
M  END
>  <alias>  (1275) 
None

>  <rmsd(smina/fragmenstein)>  (1275) 
0.506

>  <smiles>  (1275) 
Cn1cc(C(=O)NC[C@@H](F)Cl)c2ccc(Cl)cc21

>  <gnina_score>  (1275) 
5.118

>  <inspiration_score>  (1275) 
None

>  <energy_score>  (1275) 
-0.104641

>  <distance_score>  (1275) 
0.436589

>  <gnina_score_min>  (1275) 
5.482

>  <inchikey>  (1275) 
YTFURVRGUTWPPF-LLVKDONJSA-N

>  <exports>  (1275) 
['/opt/xchem-fragalysis-2/maxwin/BulkDock/OUTPUTS/openbind_a71ev2a_c2_elabs_1LOUU54.sdf', '/opt/xchem-fragalysis-2/maxwin/BulkDock/OUTPUTS/openbind_a71ev2a_c2_elabs_1LSYIDY.sdf']

>  <name>  (1275) 
P577164

>  <ref_pdb>  (1275) 
A3066a

>  <subsites>  (1275) 
None

>  <HIPPO Pose ID>  (1275) 
577164

>  <ref_mols>  (1275) 
A3066a

>  <HIPPO Compound ID>  (1275) 
350585

>  <tags>  (1275) 
openbind_a71ev2a_c2_elabs,syndirella_product,openbind_a71ev2a_c2_elabs_fragonly_scored_top80percent,openbind_a71ev2a_c2_elabs_scored,BulkDock Fragalysis export,openbind_a71ev2a_c2_elabs_scored_top80percent,openbind_a71ev2a_c2_elabs_activefrags_only_scored_5.2plus,syndirella_placed

>  <smina_score_min>  (1275) 
-7.25

$$$$
P577165
     RDKit          3D

 18 19  0  0  0  0  0  0  0  0999 V2000
   12.6879   13.8987   20.4214 C   0  0  0  0  0  0  0  0  0  0  0  0
   12.7757   14.6941   21.6889 C   0  0  2  0  0  0  0  0  0  0  0  0
   13.3621   13.9522   22.6686 F   0  0  0  0  0  0  0  0  0  0  0  0
   11.4156   15.0833   22.1930 C   0  0  0  0  0  0  0  0  0  0  0  0
   10.6537   13.9654   22.6553 N   0  0  0  0  0  0  0  0  0  0  0  0
   10.3616   13.4833   24.0712 C   0  0  0  0  0  0  0  0  0  0  0  0
   10.6268   13.9569   25.0983 O   0  0  0  0  0  0  0  0  0  0  0  0
    9.6190   12.2382   24.0259 C   0  0  0  0  0  0  0  0  0  0  0  0
    9.9038   11.1259   23.2619 C   0  0  0  0  0  0  0  0  0  0  0  0
    9.1309   10.0925   23.7199 N   0  0  0  0  0  0  0  0  0  0  0  0
    9.2879    8.7210   23.2879 C   0  0  0  0  0  0  0  0  0  0  0  0
    8.2517   10.5535   24.6790 C   0  0  0  0  0  0  0  0  0  0  0  0
    7.2796    9.9062   25.4520 C   0  0  0  0  0  0  0  0  0  0  0  0
    6.5804   10.6590   26.4032 C   0  0  0  0  0  0  0  0  0  0  0  0
    5.5123    9.8696   27.5002 Cl  0  0  0  0  0  0  0  0  0  0  0  0
    6.7815   12.0248   26.5411 C   0  0  0  0  0  0  0  0  0  0  0  0
    7.7448   12.6635   25.7652 C   0  0  0  0  0  0  0  0  0  0  0  0
    8.5100   11.9138   24.8482 C   0  0  0  0  0  0  0  0  0  0  0  0
  2  1  1  6
  2  3  1  0
  2  4  1  0
  4  5  1  0
  5  6  1  0
  6  7  2  0
  6  8  1  0
  8  9  2  0
  9 10  1  0
 10 11  1  0
 10 12  1  0
 12 13  2  0
 13 14  1  0
 14 15  1  0
 14 16  2  0
 16 17  1  0
 17 18  2  0
 18  8  1  0
 18 12  1  0
M  END
>  <alias>  (1276) 
None

>  <rmsd(smina/fragmenstein)>  (1276) 
0.443

>  <smiles>  (1276) 
C[C@H](F)CNC(=O)c1cn(C)c2cc(Cl)ccc12

>  <gnina_score>  (1276) 
5.232

>  <inspiration_score>  (1276) 
None

>  <energy_score>  (1276) 
-1.451184

>  <distance_score>  (1276) 
0.637163

>  <gnina_score_min>  (1276) 
5.378

>  <inchikey>  (1276) 
LLFRNXVIQBTZLN-QMMMGPOBSA-N

>  <exports>  (1276) 
['/opt/xchem-fragalysis-2/maxwin/BulkDock/OUTPUTS/openbind_a71ev2a_c2_elabs_1LOUU54.sdf', '/opt/xchem-fragalysis-2/maxwin/BulkDock/OUTPUTS/openbind_a71ev2a_c2_elabs_1LSYIDY.sdf']

>  <name>  (1276) 
P577165

>  <ref_pdb>  (1276) 
A3066a

>  <subsites>  (1276) 
None

>  <HIPPO Pose ID>  (1276) 
577165

>  <ref_mols>  (1276) 
A3066a

>  <HIPPO Compound ID>  (1276) 
350586

>  <tags>  (1276) 
openbind_a71ev2a_c2_elabs,syndirella_product,openbind_a71ev2a_c2_elabs_fragonly_scored_top80percent,openbind_a71ev2a_c2_elabs_scored,BulkDock Fragalysis export,openbind_a71ev2a_c2_elabs_scored_top80percent,openbind_a71ev2a_c2_elabs_activefrags_only_scored_5.2plus,syndirella_placed

>  <smina_score_min>  (1276) 
-6.281

$$$$
P577167
     RDKit          3D

 18 19  0  0  0  0  0  0  0  0999 V2000
    9.2610    8.5867   23.3392 C   0  0  0  0  0  0  0  0  0  0  0  0
    9.1640    9.9762   23.7215 N   0  0  0  0  0  0  0  0  0  0  0  0
    9.9752   10.9521   23.2152 C   0  0  0  0  0  0  0  0  0  0  0  0
    9.7656   12.1096   23.9344 C   0  0  0  0  0  0  0  0  0  0  0  0
   10.5375   13.3462   23.8753 C   0  0  0  0  0  0  0  0  0  0  0  0
   10.5984   14.0276   24.8137 O   0  0  0  0  0  0  0  0  0  0  0  0
   11.0713   13.5581   22.4633 N   0  0  0  0  0  0  0  0  0  0  0  0
   11.7075   14.6827   21.8767 C   0  0  0  0  0  0  0  0  0  0  0  0
   10.6363   15.2741   21.0208 C   0  0  0  0  0  0  0  0  0  0  0  0
   10.5567   15.1630   19.6952 C   0  0  0  0  0  0  0  0  0  0  0  0
   11.7292   14.3626   18.7523 Cl  0  0  0  0  0  0  0  0  0  0  0  0
    8.6400   11.8668   24.7765 C   0  0  0  0  0  0  0  0  0  0  0  0
    7.8964   12.6828   25.6564 C   0  0  0  0  0  0  0  0  0  0  0  0
    6.9063   12.1151   26.4575 C   0  0  0  0  0  0  0  0  0  0  0  0
    6.6493   10.7541   26.3768 C   0  0  0  0  0  0  0  0  0  0  0  0
    5.5666   10.0419   27.5119 Cl  0  0  0  0  0  0  0  0  0  0  0  0
    7.3123    9.9385   25.4544 C   0  0  0  0  0  0  0  0  0  0  0  0
    8.3139   10.5140   24.6622 C   0  0  0  0  0  0  0  0  0  0  0  0
  1  2  1  0
  2  3  1  0
  3  4  2  0
  4  5  1  0
  5  6  2  0
  5  7  1  0
  7  8  1  0
  8  9  1  0
  9 10  2  0
 10 11  1  0
  4 12  1  0
 12 13  2  0
 13 14  1  0
 14 15  2  0
 15 16  1  0
 15 17  1  0
 17 18  2  0
 18  2  1  0
 18 12  1  0
M  END
>  <alias>  (1277) 
None

>  <rmsd(smina/fragmenstein)>  (1277) 
0.221

>  <smiles>  (1277) 
Cn1cc(C(=O)NC/C=C\Cl)c2ccc(Cl)cc21

>  <gnina_score>  (1277) 
5.546

>  <inspiration_score>  (1277) 
None

>  <energy_score>  (1277) 
-6.174505

>  <distance_score>  (1277) 
0.430685

>  <gnina_score_min>  (1277) 
5.584

>  <inchikey>  (1277) 
CFOMTJLKHSKNED-DJWKRKHSSA-N

>  <exports>  (1277) 
['/opt/xchem-fragalysis-2/maxwin/BulkDock/OUTPUTS/openbind_a71ev2a_c2_elabs_1LOUU54.sdf', '/opt/xchem-fragalysis-2/maxwin/BulkDock/OUTPUTS/openbind_a71ev2a_c2_elabs_1LSYIDY.sdf']

>  <name>  (1277) 
P577167

>  <ref_pdb>  (1277) 
A3066a

>  <subsites>  (1277) 
None

>  <HIPPO Pose ID>  (1277) 
577167

>  <ref_mols>  (1277) 
A3066a

>  <HIPPO Compound ID>  (1277) 
350587

>  <tags>  (1277) 
openbind_a71ev2a_c2_elabs,syndirella_product,openbind_a71ev2a_c2_elabs_fragonly_scored_top80percent,BulkDock Fragalysis export,openbind_a71ev2a_c2_elabs_scored,openbind_a71ev2a_c2_elabs_scored_top80percent,openbind_a71ev2a_c2_elabs_activefrags_only_scored_5.2plus,openbind_a71ev2a_c2_elabs_activefrags_only_scored_5.5plus,syndirella_placed

>  <smina_score_min>  (1277) 
-6.908

$$$$
P577168
     RDKit          3D

 18 20  0  0  0  0  0  0  0  0999 V2000
    8.9496    8.3914   23.7019 C   0  0  0  0  0  0  0  0  0  0  0  0
    8.7285    9.7827   23.9762 N   0  0  0  0  0  0  0  0  0  0  0  0
    9.5372   10.7066   23.4086 C   0  0  0  0  0  0  0  0  0  0  0  0
    9.3133   11.9060   24.0464 C   0  0  0  0  0  0  0  0  0  0  0  0
   10.1935   13.0409   23.9772 C   0  0  0  0  0  0  0  0  0  0  0  0
   10.2030   13.8502   24.8099 O   0  0  0  0  0  0  0  0  0  0  0  0
   11.0785   12.8769   22.7491 N   0  0  0  0  0  0  0  0  0  0  0  0
   12.2053   13.6016   22.3340 C   0  0  0  0  0  0  0  0  0  0  0  0
   12.4073   13.8214   20.8174 C   0  0  0  0  0  0  0  0  0  0  0  0
   13.3256   15.2706   21.3535 S   0  0  0  0  0  0  0  0  0  0  0  0
   11.9918   15.1125   22.5275 C   0  0  0  0  0  0  0  0  0  0  0  0
    8.2205   11.7325   24.9252 C   0  0  0  0  0  0  0  0  0  0  0  0
    7.5504   12.5952   25.8167 C   0  0  0  0  0  0  0  0  0  0  0  0
    6.6081   12.0733   26.6989 C   0  0  0  0  0  0  0  0  0  0  0  0
    6.3180   10.7180   26.6715 C   0  0  0  0  0  0  0  0  0  0  0  0
    5.2756   10.0577   27.8755 Cl  0  0  0  0  0  0  0  0  0  0  0  0
    6.9052    9.8639   25.7339 C   0  0  0  0  0  0  0  0  0  0  0  0
    7.8906   10.3769   24.8884 C   0  0  0  0  0  0  0  0  0  0  0  0
  1  2  1  0
  2  3  1  0
  3  4  2  0
  4  5  1  0
  5  6  2  0
  5  7  1  0
  7  8  1  0
  8  9  1  0
  9 10  1  0
 10 11  1  0
  4 12  1  0
 12 13  2  0
 13 14  1  0
 14 15  2  0
 15 16  1  0
 15 17  1  0
 17 18  2  0
 18  2  1  0
 11  8  1  0
 18 12  1  0
M  END
>  <alias>  (1278) 
None

>  <rmsd(smina/fragmenstein)>  (1278) 
0.527

>  <smiles>  (1278) 
Cn1cc(C(=O)NC2CSC2)c2ccc(Cl)cc21

>  <gnina_score>  (1278) 
5.095

>  <inspiration_score>  (1278) 
None

>  <energy_score>  (1278) 
-0.814801

>  <distance_score>  (1278) 
0.839901

>  <gnina_score_min>  (1278) 
5.254

>  <inchikey>  (1278) 
MFQZUOKQFVCHOS-UHFFFAOYSA-N

>  <exports>  (1278) 
['/opt/xchem-fragalysis-2/maxwin/BulkDock/OUTPUTS/openbind_a71ev2a_c2_elabs_1LOUU54.sdf', '/opt/xchem-fragalysis-2/maxwin/BulkDock/OUTPUTS/openbind_a71ev2a_c2_elabs_1LSYIDY.sdf']

>  <name>  (1278) 
P577168

>  <ref_pdb>  (1278) 
A3066a

>  <subsites>  (1278) 
None

>  <HIPPO Pose ID>  (1278) 
577168

>  <ref_mols>  (1278) 
A3066a

>  <HIPPO Compound ID>  (1278) 
350589

>  <tags>  (1278) 
openbind_a71ev2a_c2_elabs,syndirella_product,openbind_a71ev2a_c2_elabs_fragonly_scored_top80percent,openbind_a71ev2a_c2_elabs_scored,BulkDock Fragalysis export,openbind_a71ev2a_c2_elabs_scored_top80percent,openbind_a71ev2a_c2_elabs_activefrags_only_scored_5.2plus,syndirella_placed

>  <smina_score_min>  (1278) 
-5.044

$$$$
P577169
     RDKit          3D

 18 19  0  0  0  0  0  0  0  0999 V2000
   12.6785   14.6994   22.4803 C   0  0  0  0  0  0  0  0  0  0  0  0
   12.3148   14.4401   21.0355 C   0  0  0  0  0  0  0  0  0  0  0  0
   10.8239   14.3463   20.7512 C   0  0  2  0  0  0  0  0  0  0  0  0
    9.9863   15.6055   20.7433 C   0  0  0  0  0  0  0  0  0  0  0  0
   10.3011   13.3379   21.6220 N   0  0  0  0  0  0  0  0  0  0  0  0
    9.7417   13.4426   23.0387 C   0  0  0  0  0  0  0  0  0  0  0  0
    9.5425   14.3731   23.7017 O   0  0  0  0  0  0  0  0  0  0  0  0
    9.3658   12.1220   23.5360 C   0  0  0  0  0  0  0  0  0  0  0  0
    9.8191   10.8930   23.1032 C   0  0  0  0  0  0  0  0  0  0  0  0
    9.1435    9.9146   23.7741 N   0  0  0  0  0  0  0  0  0  0  0  0
    9.3783    8.5099   23.5362 C   0  0  0  0  0  0  0  0  0  0  0  0
    8.2644   10.4812   24.6682 C   0  0  0  0  0  0  0  0  0  0  0  0
    7.3352    9.9181   25.5503 C   0  0  0  0  0  0  0  0  0  0  0  0
    6.6283   10.7656   26.4081 C   0  0  0  0  0  0  0  0  0  0  0  0
    5.6078   10.0838   27.6174 Cl  0  0  0  0  0  0  0  0  0  0  0  0
    6.7763   12.1418   26.3452 C   0  0  0  0  0  0  0  0  0  0  0  0
    7.6561   12.7015   25.4194 C   0  0  0  0  0  0  0  0  0  0  0  0
    8.4246   11.8654   24.5786 C   0  0  0  0  0  0  0  0  0  0  0  0
  1  2  1  0
  2  3  1  0
  3  4  1  1
  3  5  1  0
  5  6  1  0
  6  7  2  0
  6  8  1  0
  8  9  2  0
  9 10  1  0
 10 11  1  0
 10 12  1  0
 12 13  2  0
 13 14  1  0
 14 15  1  0
 14 16  2  0
 16 17  1  0
 17 18  2  0
 18  8  1  0
 18 12  1  0
M  END
>  <alias>  (1279) 
None

>  <rmsd(smina/fragmenstein)>  (1279) 
0.404

>  <smiles>  (1279) 
CC[C@H](C)NC(=O)c1cn(C)c2cc(Cl)ccc12

>  <gnina_score>  (1279) 
5.579

>  <inspiration_score>  (1279) 
None

>  <energy_score>  (1279) 
-11.048427

>  <distance_score>  (1279) 
0.975368

>  <gnina_score_min>  (1279) 
5.618

>  <inchikey>  (1279) 
ZVQZSELJJQOJKY-VIFPVBQESA-N

>  <exports>  (1279) 
['/opt/xchem-fragalysis-2/maxwin/BulkDock/OUTPUTS/openbind_a71ev2a_c2_elabs_1LOUU54.sdf', '/opt/xchem-fragalysis-2/maxwin/BulkDock/OUTPUTS/openbind_a71ev2a_c2_elabs_1LSYIDY.sdf']

>  <name>  (1279) 
P577169

>  <ref_pdb>  (1279) 
A3066a

>  <subsites>  (1279) 
None

>  <HIPPO Pose ID>  (1279) 
577169

>  <ref_mols>  (1279) 
A3066a

>  <HIPPO Compound ID>  (1279) 
350591

>  <tags>  (1279) 
openbind_a71ev2a_c2_elabs,syndirella_product,openbind_a71ev2a_c2_elabs_fragonly_scored_top80percent,BulkDock Fragalysis export,openbind_a71ev2a_c2_elabs_scored,openbind_a71ev2a_c2_elabs_scored_top80percent,openbind_a71ev2a_c2_elabs_activefrags_only_scored_5.2plus,openbind_a71ev2a_c2_elabs_activefrags_only_scored_5.5plus,syndirella_placed

>  <smina_score_min>  (1279) 
-6.731

$$$$
P577170
     RDKit          3D

 18 20  0  0  0  0  0  0  0  0999 V2000
    9.2285    8.4164   23.4749 C   0  0  0  0  0  0  0  0  0  0  0  0
    9.1339    9.8318   23.7251 N   0  0  0  0  0  0  0  0  0  0  0  0
    9.9505   10.7296   23.1078 C   0  0  0  0  0  0  0  0  0  0  0  0
    9.7895   11.9566   23.7104 C   0  0  0  0  0  0  0  0  0  0  0  0
   10.5998   13.1497   23.4930 C   0  0  0  0  0  0  0  0  0  0  0  0
   10.6103   13.9901   24.3071 O   0  0  0  0  0  0  0  0  0  0  0  0
   11.2723   13.0950   22.0949 N   0  0  0  0  0  0  0  0  0  0  0  0
   11.9821   14.0540   21.4050 N   0  0  0  0  0  0  0  0  0  0  0  0
   11.1196   14.5669   20.2875 C   0  0  0  0  0  0  0  0  0  0  0  0
   10.5441   15.6015   21.2598 C   0  0  0  0  0  0  0  0  0  0  0  0
   11.8834   15.3953   22.0046 C   0  0  0  0  0  0  0  0  0  0  0  0
    8.6928   11.8204   24.6190 C   0  0  0  0  0  0  0  0  0  0  0  0
    8.0036   12.7238   25.4579 C   0  0  0  0  0  0  0  0  0  0  0  0
    7.0186   12.2521   26.3285 C   0  0  0  0  0  0  0  0  0  0  0  0
    6.7091   10.8998   26.3560 C   0  0  0  0  0  0  0  0  0  0  0  0
    5.6329   10.3071   27.5637 Cl  0  0  0  0  0  0  0  0  0  0  0  0
    7.3185    9.9954   25.4830 C   0  0  0  0  0  0  0  0  0  0  0  0
    8.3214   10.4730   24.6295 C   0  0  0  0  0  0  0  0  0  0  0  0
  1  2  1  0
  2  3  1  0
  3  4  2  0
  4  5  1  0
  5  6  2  0
  5  7  1  0
  7  8  1  0
  8  9  1  0
  9 10  1  0
 10 11  1  0
  4 12  1  0
 12 13  2  0
 13 14  1  0
 14 15  2  0
 15 16  1  0
 15 17  1  0
 17 18  2  0
 18  2  1  0
 11  8  1  0
 18 12  1  0
M  END
>  <alias>  (1280) 
None

>  <rmsd(smina/fragmenstein)>  (1280) 
0.525

>  <smiles>  (1280) 
Cn1cc(C(=O)NN2CCC2)c2ccc(Cl)cc21

>  <gnina_score>  (1280) 
5.777

>  <inspiration_score>  (1280) 
None

>  <energy_score>  (1280) 
-10.17335

>  <distance_score>  (1280) 
0.432983

>  <gnina_score_min>  (1280) 
5.719

>  <inchikey>  (1280) 
CWKMGNYVUGPIBH-UHFFFAOYSA-N

>  <exports>  (1280) 
['/opt/xchem-fragalysis-2/maxwin/BulkDock/OUTPUTS/openbind_a71ev2a_c2_elabs_1LOUU54.sdf', '/opt/xchem-fragalysis-2/maxwin/BulkDock/OUTPUTS/openbind_a71ev2a_c2_elabs_1LSYIDY.sdf']

>  <name>  (1280) 
P577170

>  <ref_pdb>  (1280) 
A3066a

>  <subsites>  (1280) 
None

>  <HIPPO Pose ID>  (1280) 
577170

>  <ref_mols>  (1280) 
A3066a

>  <HIPPO Compound ID>  (1280) 
350593

>  <tags>  (1280) 
openbind_a71ev2a_c2_elabs,syndirella_product,openbind_a71ev2a_c2_elabs_fragonly_scored_top80percent,BulkDock Fragalysis export,openbind_a71ev2a_c2_elabs_scored,openbind_a71ev2a_c2_elabs_scored_top80percent,openbind_a71ev2a_c2_elabs_activefrags_only_scored_5.2plus,openbind_a71ev2a_c2_elabs_activefrags_only_scored_5.5plus,syndirella_placed

>  <smina_score_min>  (1280) 
-6.493

$$$$
P577171
     RDKit          3D

 18 19  0  0  0  0  0  0  0  0999 V2000
    9.2192    8.5907   23.4625 C   0  0  0  0  0  0  0  0  0  0  0  0
    9.0144    9.9758   23.8165 N   0  0  0  0  0  0  0  0  0  0  0  0
    9.7403   10.9967   23.2744 C   0  0  0  0  0  0  0  0  0  0  0  0
    9.3960   12.1542   23.9370 C   0  0  0  0  0  0  0  0  0  0  0  0
   10.0195   13.4391   23.7672 C   0  0  0  0  0  0  0  0  0  0  0  0
   10.3986   14.0387   24.6885 O   0  0  0  0  0  0  0  0  0  0  0  0
   10.1160   13.7497   22.2752 N   0  0  0  0  0  0  0  0  0  0  0  0
   10.6114   14.8999   21.6002 C   0  0  0  0  0  0  0  0  0  0  0  0
   11.9115   15.3352   22.2393 C   0  0  0  0  0  0  0  0  0  0  0  0
   12.9998   14.3008   22.1151 C   0  0  0  0  0  0  0  0  0  0  0  0
   12.9255   13.3019   23.1320 O   0  0  0  0  0  0  0  0  0  0  0  0
    8.3706   11.8458   24.8559 C   0  0  0  0  0  0  0  0  0  0  0  0
    7.6282   12.6277   25.7638 C   0  0  0  0  0  0  0  0  0  0  0  0
    6.6994   12.0117   26.5974 C   0  0  0  0  0  0  0  0  0  0  0  0
    6.4986   10.6418   26.5111 C   0  0  0  0  0  0  0  0  0  0  0  0
    5.4504    9.8849   27.6510 Cl  0  0  0  0  0  0  0  0  0  0  0  0
    7.1801    9.8593   25.5719 C   0  0  0  0  0  0  0  0  0  0  0  0
    8.1404   10.4740   24.7625 C   0  0  0  0  0  0  0  0  0  0  0  0
  1  2  1  0
  2  3  1  0
  3  4  2  0
  4  5  1  0
  5  6  2  0
  5  7  1  0
  7  8  1  0
  8  9  1  0
  9 10  1  0
 10 11  1  0
  4 12  1  0
 12 13  2  0
 13 14  1  0
 14 15  2  0
 15 16  1  0
 15 17  1  0
 17 18  2  0
 18  2  1  0
 18 12  1  0
M  END
>  <alias>  (1281) 
None

>  <rmsd(smina/fragmenstein)>  (1281) 
0.496

>  <smiles>  (1281) 
Cn1cc(C(=O)NCCCO)c2ccc(Cl)cc21

>  <gnina_score>  (1281) 
5.184

>  <inspiration_score>  (1281) 
None

>  <energy_score>  (1281) 
-7.152176

>  <distance_score>  (1281) 
0.86179

>  <gnina_score_min>  (1281) 
5.326

>  <inchikey>  (1281) 
VYCQCQJIDNCBGZ-UHFFFAOYSA-N

>  <exports>  (1281) 
['/opt/xchem-fragalysis-2/maxwin/BulkDock/OUTPUTS/openbind_a71ev2a_c2_elabs_1LOUU54.sdf', '/opt/xchem-fragalysis-2/maxwin/BulkDock/OUTPUTS/openbind_a71ev2a_c2_elabs_1LSYIDY.sdf']

>  <name>  (1281) 
P577171

>  <ref_pdb>  (1281) 
A3066a

>  <subsites>  (1281) 
None

>  <HIPPO Pose ID>  (1281) 
577171

>  <ref_mols>  (1281) 
A3066a

>  <HIPPO Compound ID>  (1281) 
350596

>  <tags>  (1281) 
openbind_a71ev2a_c2_elabs,syndirella_product,openbind_a71ev2a_c2_elabs_fragonly_scored_top80percent,openbind_a71ev2a_c2_elabs_scored,BulkDock Fragalysis export,openbind_a71ev2a_c2_elabs_scored_top80percent,openbind_a71ev2a_c2_elabs_activefrags_only_scored_5.2plus,syndirella_placed

>  <smina_score_min>  (1281) 
-6.27

$$$$
P577173
     RDKit          3D

 18 19  0  0  0  0  0  0  0  0999 V2000
    9.6749   16.0105   20.6039 C   0  0  0  0  0  0  0  0  0  0  0  0
   10.5118   14.7523   20.5619 C   0  0  1  0  0  0  0  0  0  0  0  0
   11.5649   14.6069   18.9578 Br  0  0  0  0  0  0  0  0  0  0  0  0
   11.4371   14.5264   21.7545 C   0  0  0  0  0  0  0  0  0  0  0  0
   10.8688   13.4271   22.4619 N   0  0  0  0  0  0  0  0  0  0  0  0
   10.3576   13.3286   23.8902 C   0  0  0  0  0  0  0  0  0  0  0  0
   10.3836   14.1027   24.7541 O   0  0  0  0  0  0  0  0  0  0  0  0
    9.6718   12.0552   24.0448 C   0  0  0  0  0  0  0  0  0  0  0  0
    9.9245   10.8797   23.3678 C   0  0  0  0  0  0  0  0  0  0  0  0
    9.1032    9.9108   23.8632 N   0  0  0  0  0  0  0  0  0  0  0  0
    9.2215    8.5222   23.4898 C   0  0  0  0  0  0  0  0  0  0  0  0
    8.2350   10.4571   24.7810 C   0  0  0  0  0  0  0  0  0  0  0  0
    7.2158    9.8923   25.5551 C   0  0  0  0  0  0  0  0  0  0  0  0
    6.5466   10.7093   26.4710 C   0  0  0  0  0  0  0  0  0  0  0  0
    5.4620    9.9958   27.6038 Cl  0  0  0  0  0  0  0  0  0  0  0  0
    6.7981   12.0710   26.5447 C   0  0  0  0  0  0  0  0  0  0  0  0
    7.7898   12.6359   25.7447 C   0  0  0  0  0  0  0  0  0  0  0  0
    8.5526   11.8121   24.8891 C   0  0  0  0  0  0  0  0  0  0  0  0
  2  1  1  1
  2  3  1  0
  2  4  1  0
  4  5  1  0
  5  6  1  0
  6  7  2  0
  6  8  1  0
  8  9  2  0
  9 10  1  0
 10 11  1  0
 10 12  1  0
 12 13  2  0
 13 14  1  0
 14 15  1  0
 14 16  2  0
 16 17  1  0
 17 18  2  0
 18  8  1  0
 18 12  1  0
M  END
>  <alias>  (1282) 
None

>  <rmsd(smina/fragmenstein)>  (1282) 
0.327

>  <smiles>  (1282) 
C[C@@H](Br)CNC(=O)c1cn(C)c2cc(Cl)ccc12

>  <gnina_score>  (1282) 
5.53

>  <inspiration_score>  (1282) 
None

>  <energy_score>  (1282) 
-7.100395

>  <distance_score>  (1282) 
0.590876

>  <gnina_score_min>  (1282) 
5.587

>  <inchikey>  (1282) 
AZHSZSVFKUDDBW-MRVPVSSYSA-N

>  <exports>  (1282) 
['/opt/xchem-fragalysis-2/maxwin/BulkDock/OUTPUTS/openbind_a71ev2a_c2_elabs_1LOUU54.sdf', '/opt/xchem-fragalysis-2/maxwin/BulkDock/OUTPUTS/openbind_a71ev2a_c2_elabs_1LSYIDY.sdf']

>  <name>  (1282) 
P577173

>  <ref_pdb>  (1282) 
A3066a

>  <subsites>  (1282) 
None

>  <HIPPO Pose ID>  (1282) 
577173

>  <ref_mols>  (1282) 
A3066a

>  <HIPPO Compound ID>  (1282) 
350598

>  <tags>  (1282) 
openbind_a71ev2a_c2_elabs,syndirella_product,openbind_a71ev2a_c2_elabs_fragonly_scored_top80percent,BulkDock Fragalysis export,openbind_a71ev2a_c2_elabs_scored,openbind_a71ev2a_c2_elabs_scored_top80percent,openbind_a71ev2a_c2_elabs_activefrags_only_scored_5.2plus,openbind_a71ev2a_c2_elabs_activefrags_only_scored_5.5plus,syndirella_placed

>  <smina_score_min>  (1282) 
-6.637

$$$$
P577174
     RDKit          3D

 18 19  0  0  0  0  0  0  0  0999 V2000
   12.9444   14.4776   22.6709 C   0  0  0  0  0  0  0  0  0  0  0  0
   12.3940   14.4719   21.2621 C   0  0  0  0  0  0  0  0  0  0  0  0
   10.9511   14.6931   21.3278 N   0  0  0  0  0  0  0  0  0  0  0  0
   10.3695   14.8928   20.0081 C   0  0  0  0  0  0  0  0  0  0  0  0
   10.3826   13.6314   21.9867 N   0  0  0  0  0  0  0  0  0  0  0  0
   10.0198   13.4547   23.4730 C   0  0  0  0  0  0  0  0  0  0  0  0
   10.0749   14.2092   24.3584 O   0  0  0  0  0  0  0  0  0  0  0  0
    9.4668   12.1369   23.7149 C   0  0  0  0  0  0  0  0  0  0  0  0
    9.8309   10.9474   23.1241 C   0  0  0  0  0  0  0  0  0  0  0  0
    9.1189    9.9421   23.7178 N   0  0  0  0  0  0  0  0  0  0  0  0
    9.3160    8.5457   23.4082 C   0  0  0  0  0  0  0  0  0  0  0  0
    8.2495   10.4662   24.6509 C   0  0  0  0  0  0  0  0  0  0  0  0
    7.3034    9.8707   25.4936 C   0  0  0  0  0  0  0  0  0  0  0  0
    6.6091   10.6820   26.3983 C   0  0  0  0  0  0  0  0  0  0  0  0
    5.5717    9.9596   27.5688 Cl  0  0  0  0  0  0  0  0  0  0  0  0
    6.7893   12.0560   26.4234 C   0  0  0  0  0  0  0  0  0  0  0  0
    7.7035   12.6481   25.5557 C   0  0  0  0  0  0  0  0  0  0  0  0
    8.4581   11.8440   24.6737 C   0  0  0  0  0  0  0  0  0  0  0  0
  1  2  1  0
  2  3  1  0
  3  4  1  0
  3  5  1  0
  5  6  1  0
  6  7  2  0
  6  8  1  0
  8  9  2  0
  9 10  1  0
 10 11  1  0
 10 12  1  0
 12 13  2  0
 13 14  1  0
 14 15  1  0
 14 16  2  0
 16 17  1  0
 17 18  2  0
 18  8  1  0
 18 12  1  0
M  END
>  <alias>  (1283) 
None

>  <rmsd(smina/fragmenstein)>  (1283) 
0.478

>  <smiles>  (1283) 
CCN(C)NC(=O)c1cn(C)c2cc(Cl)ccc12

>  <gnina_score>  (1283) 
5.87

>  <inspiration_score>  (1283) 
None

>  <energy_score>  (1283) 
-13.910723

>  <distance_score>  (1283) 
0.755362

>  <gnina_score_min>  (1283) 
5.831

>  <inchikey>  (1283) 
MTFCECLOZJJSRS-UHFFFAOYSA-N

>  <exports>  (1283) 
['/opt/xchem-fragalysis-2/maxwin/BulkDock/OUTPUTS/openbind_a71ev2a_c2_elabs_1LOUU54.sdf', '/opt/xchem-fragalysis-2/maxwin/BulkDock/OUTPUTS/openbind_a71ev2a_c2_elabs_1LSYIDY.sdf']

>  <name>  (1283) 
P577174

>  <ref_pdb>  (1283) 
A3066a

>  <subsites>  (1283) 
None

>  <HIPPO Pose ID>  (1283) 
577174

>  <ref_mols>  (1283) 
A3066a

>  <HIPPO Compound ID>  (1283) 
350606

>  <tags>  (1283) 
openbind_a71ev2a_c2_elabs,syndirella_product,openbind_a71ev2a_c2_elabs_fragonly_scored_top80percent,BulkDock Fragalysis export,openbind_a71ev2a_c2_elabs_scored,openbind_a71ev2a_c2_elabs_scored_top80percent,openbind_a71ev2a_c2_elabs_activefrags_only_scored_5.2plus,openbind_a71ev2a_c2_elabs_activefrags_only_scored_5.5plus,syndirella_placed

>  <smina_score_min>  (1283) 
-7.423

$$$$
P577175
     RDKit          3D

 18 19  0  0  0  0  0  0  0  0999 V2000
   10.3256   14.9805   21.1304 C   0  0  0  0  0  0  0  0  0  0  0  0
   11.8192   14.9838   21.4632 C   0  0  0  0  0  0  0  0  0  0  0  0
   12.5931   14.2420   20.3906 C   0  0  0  0  0  0  0  0  0  0  0  0
   12.1950   14.4536   22.8297 C   0  0  0  0  0  0  0  0  0  0  0  0
   11.3336   13.4055   23.2131 N   0  0  0  0  0  0  0  0  0  0  0  0
   10.3637   13.3000   24.3772 C   0  0  0  0  0  0  0  0  0  0  0  0
   10.1659   14.0263   25.2603 O   0  0  0  0  0  0  0  0  0  0  0  0
    9.5699   12.0836   24.2490 C   0  0  0  0  0  0  0  0  0  0  0  0
    9.8177   10.9742   23.4631 C   0  0  0  0  0  0  0  0  0  0  0  0
    8.9859    9.9699   23.8730 N   0  0  0  0  0  0  0  0  0  0  0  0
    9.1352    8.6027   23.4307 C   0  0  0  0  0  0  0  0  0  0  0  0
    8.1015   10.4507   24.8127 C   0  0  0  0  0  0  0  0  0  0  0  0
    7.0959    9.8312   25.5613 C   0  0  0  0  0  0  0  0  0  0  0  0
    6.4126   10.5873   26.5194 C   0  0  0  0  0  0  0  0  0  0  0  0
    5.3393    9.8063   27.6184 Cl  0  0  0  0  0  0  0  0  0  0  0  0
    6.6335   11.9475   26.6594 C   0  0  0  0  0  0  0  0  0  0  0  0
    7.6170   12.5659   25.8947 C   0  0  0  0  0  0  0  0  0  0  0  0
    8.3961   11.8001   25.0001 C   0  0  0  0  0  0  0  0  0  0  0  0
  1  2  1  0
  2  3  1  0
  2  4  1  0
  4  5  1  0
  5  6  1  0
  6  7  2  0
  6  8  1  0
  8  9  2  0
  9 10  1  0
 10 11  1  0
 10 12  1  0
 12 13  2  0
 13 14  1  0
 14 15  1  0
 14 16  2  0
 16 17  1  0
 17 18  2  0
 18  8  1  0
 18 12  1  0
M  END
>  <alias>  (1284) 
None

>  <rmsd(smina/fragmenstein)>  (1284) 
0.284

>  <smiles>  (1284) 
CC(C)CNC(=O)c1cn(C)c2cc(Cl)ccc12

>  <gnina_score>  (1284) 
5.404

>  <inspiration_score>  (1284) 
None

>  <energy_score>  (1284) 
-1.843067

>  <distance_score>  (1284) 
0.750414

>  <gnina_score_min>  (1284) 
5.452

>  <inchikey>  (1284) 
UAOJHEQIQRPYBD-UHFFFAOYSA-N

>  <exports>  (1284) 
['/opt/xchem-fragalysis-2/maxwin/BulkDock/OUTPUTS/openbind_a71ev2a_c2_elabs_1LOUU54.sdf', '/opt/xchem-fragalysis-2/maxwin/BulkDock/OUTPUTS/openbind_a71ev2a_c2_elabs_1LSYIDY.sdf']

>  <name>  (1284) 
P577175

>  <ref_pdb>  (1284) 
A3066a

>  <subsites>  (1284) 
None

>  <HIPPO Pose ID>  (1284) 
577175

>  <ref_mols>  (1284) 
A3066a

>  <HIPPO Compound ID>  (1284) 
350609

>  <tags>  (1284) 
openbind_a71ev2a_c2_elabs,syndirella_product,openbind_a71ev2a_c2_elabs_fragonly_scored_top80percent,openbind_a71ev2a_c2_elabs_scored,BulkDock Fragalysis export,openbind_a71ev2a_c2_elabs_scored_top80percent,openbind_a71ev2a_c2_elabs_activefrags_only_scored_5.2plus,syndirella_placed

>  <smina_score_min>  (1284) 
-6.84

$$$$
P577176
     RDKit          3D

 18 19  0  0  0  0  0  0  0  0999 V2000
    9.3087    8.5948   23.3847 C   0  0  0  0  0  0  0  0  0  0  0  0
    9.1696   10.0017   23.6841 N   0  0  0  0  0  0  0  0  0  0  0  0
    9.9210   10.9757   23.0894 C   0  0  0  0  0  0  0  0  0  0  0  0
    9.6514   12.1770   23.7097 C   0  0  0  0  0  0  0  0  0  0  0  0
   10.3459   13.4364   23.4879 C   0  0  0  0  0  0  0  0  0  0  0  0
   10.6501   14.0942   24.3956 O   0  0  0  0  0  0  0  0  0  0  0  0
   10.5458   13.6613   21.9900 N   0  0  0  0  0  0  0  0  0  0  0  0
   11.2476   14.6994   21.2872 C   0  0  0  0  0  0  0  0  0  0  0  0
   12.7265   14.3826   21.2328 C   0  0  0  0  0  0  0  0  0  0  0  0
   13.4506   15.5160   21.3290 F   0  0  0  0  0  0  0  0  0  0  0  0
   13.0211   13.8102   20.0396 F   0  0  0  0  0  0  0  0  0  0  0  0
    8.6080   11.9338   24.6477 C   0  0  0  0  0  0  0  0  0  0  0  0
    7.8865   12.7666   25.5287 C   0  0  0  0  0  0  0  0  0  0  0  0
    6.9380   12.2082   26.3868 C   0  0  0  0  0  0  0  0  0  0  0  0
    6.7008   10.8405   26.3628 C   0  0  0  0  0  0  0  0  0  0  0  0
    5.6418   10.1546   27.5355 Cl  0  0  0  0  0  0  0  0  0  0  0  0
    7.3612   10.0000   25.4614 C   0  0  0  0  0  0  0  0  0  0  0  0
    8.3265   10.5650   24.6175 C   0  0  0  0  0  0  0  0  0  0  0  0
  1  2  1  0
  2  3  1  0
  3  4  2  0
  4  5  1  0
  5  6  2  0
  5  7  1  0
  7  8  1  0
  8  9  1  0
  9 10  1  0
  9 11  1  0
  4 12  1  0
 12 13  2  0
 13 14  1  0
 14 15  2  0
 15 16  1  0
 15 17  1  0
 17 18  2  0
 18  2  1  0
 18 12  1  0
M  END
>  <alias>  (1285) 
None

>  <rmsd(smina/fragmenstein)>  (1285) 
0.302

>  <smiles>  (1285) 
Cn1cc(C(=O)NCC(F)F)c2ccc(Cl)cc21

>  <gnina_score>  (1285) 
5.227

>  <inspiration_score>  (1285) 
None

>  <energy_score>  (1285) 
-5.574905

>  <distance_score>  (1285) 
0.586167

>  <gnina_score_min>  (1285) 
5.243

>  <inchikey>  (1285) 
LJPAIFQZCRAVTR-UHFFFAOYSA-N

>  <exports>  (1285) 
['/opt/xchem-fragalysis-2/maxwin/BulkDock/OUTPUTS/openbind_a71ev2a_c2_elabs_1LOUU54.sdf', '/opt/xchem-fragalysis-2/maxwin/BulkDock/OUTPUTS/openbind_a71ev2a_c2_elabs_1LSYIDY.sdf']

>  <name>  (1285) 
P577176

>  <ref_pdb>  (1285) 
A3066a

>  <subsites>  (1285) 
None

>  <HIPPO Pose ID>  (1285) 
577176

>  <ref_mols>  (1285) 
A3066a

>  <HIPPO Compound ID>  (1285) 
350610

>  <tags>  (1285) 
openbind_a71ev2a_c2_elabs,syndirella_product,openbind_a71ev2a_c2_elabs_fragonly_scored_top80percent,openbind_a71ev2a_c2_elabs_scored,BulkDock Fragalysis export,openbind_a71ev2a_c2_elabs_scored_top80percent,openbind_a71ev2a_c2_elabs_activefrags_only_scored_5.2plus,syndirella_placed

>  <smina_score_min>  (1285) 
-7.397

$$$$
P577177
     RDKit          3D

 18 19  0  0  0  0  0  0  0  0999 V2000
    9.2948    8.6048   23.2980 C   0  0  0  0  0  0  0  0  0  0  0  0
    9.2114    9.9874   23.7091 N   0  0  0  0  0  0  0  0  0  0  0  0
   10.0157   10.9735   23.2092 C   0  0  0  0  0  0  0  0  0  0  0  0
    9.7897   12.1294   23.9249 C   0  0  0  0  0  0  0  0  0  0  0  0
   10.4943   13.4036   23.8297 C   0  0  0  0  0  0  0  0  0  0  0  0
   10.5284   14.1057   24.7553 O   0  0  0  0  0  0  0  0  0  0  0  0
   11.0013   13.6171   22.4065 N   0  0  0  0  0  0  0  0  0  0  0  0
   11.5764   14.7773   21.7842 C   0  0  0  0  0  0  0  0  0  0  0  0
   10.4421   15.4222   20.9713 C   0  0  0  0  0  0  0  0  0  0  0  0
   10.2347   14.7094   19.7085 N   0  0  0  0  0  0  0  0  0  0  0  0
   11.3783   14.9958   18.8538 O   0  0  0  0  0  0  0  0  0  0  0  0
    8.6698   11.8674   24.7726 C   0  0  0  0  0  0  0  0  0  0  0  0
    7.9064   12.6742   25.6448 C   0  0  0  0  0  0  0  0  0  0  0  0
    6.9151   12.0956   26.4365 C   0  0  0  0  0  0  0  0  0  0  0  0
    6.6733   10.7323   26.3522 C   0  0  0  0  0  0  0  0  0  0  0  0
    5.5838   10.0100   27.4734 Cl  0  0  0  0  0  0  0  0  0  0  0  0
    7.3544    9.9253   25.4355 C   0  0  0  0  0  0  0  0  0  0  0  0
    8.3572   10.5123   24.6532 C   0  0  0  0  0  0  0  0  0  0  0  0
  1  2  1  0
  2  3  1  0
  3  4  2  0
  4  5  1  0
  5  6  2  0
  5  7  1  0
  7  8  1  0
  8  9  1  0
  9 10  1  0
 10 11  1  0
  4 12  1  0
 12 13  2  0
 13 14  1  0
 14 15  2  0
 15 16  1  0
 15 17  1  0
 17 18  2  0
 18  2  1  0
 18 12  1  0
M  END
>  <alias>  (1286) 
None

>  <rmsd(smina/fragmenstein)>  (1286) 
0.448

>  <smiles>  (1286) 
Cn1cc(C(=O)NCCNO)c2ccc(Cl)cc21

>  <gnina_score>  (1286) 
5.698

>  <inspiration_score>  (1286) 
None

>  <energy_score>  (1286) 
-14.527658

>  <distance_score>  (1286) 
0.447407

>  <gnina_score_min>  (1286) 
5.85

>  <inchikey>  (1286) 
FJCPLDCEBPKXIY-UHFFFAOYSA-N

>  <exports>  (1286) 
['/opt/xchem-fragalysis-2/maxwin/BulkDock/OUTPUTS/openbind_a71ev2a_c2_elabs_1LOUU54.sdf', '/opt/xchem-fragalysis-2/maxwin/BulkDock/OUTPUTS/openbind_a71ev2a_c2_elabs_1LSYIDY.sdf']

>  <name>  (1286) 
P577177

>  <ref_pdb>  (1286) 
A3066a

>  <subsites>  (1286) 
None

>  <HIPPO Pose ID>  (1286) 
577177

>  <ref_mols>  (1286) 
A3066a

>  <HIPPO Compound ID>  (1286) 
350613

>  <tags>  (1286) 
openbind_a71ev2a_c2_elabs,syndirella_product,openbind_a71ev2a_c2_elabs_fragonly_scored_top80percent,BulkDock Fragalysis export,openbind_a71ev2a_c2_elabs_scored,openbind_a71ev2a_c2_elabs_scored_top80percent,openbind_a71ev2a_c2_elabs_activefrags_only_scored_5.2plus,openbind_a71ev2a_c2_elabs_activefrags_only_scored_5.5plus,syndirella_placed

>  <smina_score_min>  (1286) 
-7.768

$$$$
P577178
     RDKit          3D

 18 20  0  0  0  0  0  0  0  0999 V2000
    9.2932    8.6129   23.2846 C   0  0  0  0  0  0  0  0  0  0  0  0
    9.2125    9.9991   23.6828 N   0  0  0  0  0  0  0  0  0  0  0  0
    9.9936   10.9824   23.1491 C   0  0  0  0  0  0  0  0  0  0  0  0
    9.7853   12.1394   23.8653 C   0  0  0  0  0  0  0  0  0  0  0  0
   10.4946   13.3952   23.6996 C   0  0  0  0  0  0  0  0  0  0  0  0
   10.8074   14.0419   24.6309 O   0  0  0  0  0  0  0  0  0  0  0  0
   10.6160   13.6824   22.2365 N   0  0  0  0  0  0  0  0  0  0  0  0
   11.2685   14.8450   21.5038 C   0  0  0  0  0  0  0  0  0  0  0  0
   10.1375   14.8984   20.5306 C   0  0  0  0  0  0  0  0  0  0  0  0
    9.5195   16.5371   20.0730 S   0  0  0  0  0  0  0  0  0  0  0  0
    9.3612   14.4001   21.6963 C   0  0  0  0  0  0  0  0  0  0  0  0
    8.6977   11.8893   24.7481 C   0  0  0  0  0  0  0  0  0  0  0  0
    7.9599   12.7060   25.6306 C   0  0  0  0  0  0  0  0  0  0  0  0
    6.9702   12.1368   26.4328 C   0  0  0  0  0  0  0  0  0  0  0  0
    6.7100   10.7754   26.3506 C   0  0  0  0  0  0  0  0  0  0  0  0
    5.6169   10.0652   27.4769 Cl  0  0  0  0  0  0  0  0  0  0  0  0
    7.3757    9.9575   25.4322 C   0  0  0  0  0  0  0  0  0  0  0  0
    8.3742   10.5345   24.6376 C   0  0  0  0  0  0  0  0  0  0  0  0
  1  2  1  0
  2  3  1  0
  3  4  2  0
  4  5  1  0
  5  6  2  0
  5  7  1  0
  7  8  1  0
  8  9  1  0
  9 10  1  0
  9 11  1  0
  4 12  1  0
 12 13  2  0
 13 14  1  0
 14 15  2  0
 15 16  1  0
 15 17  1  0
 17 18  2  0
 18  2  1  0
 11  7  1  0
 18 12  1  0
M  END
>  <alias>  (1287) 
None

>  <rmsd(smina/fragmenstein)>  (1287) 
0.189

>  <smiles>  (1287) 
Cn1cc(C(=O)N2CC(S)C2)c2ccc(Cl)cc21

>  <gnina_score>  (1287) 
5.704

>  <inspiration_score>  (1287) 
None

>  <energy_score>  (1287) 
-3.331551

>  <distance_score>  (1287) 
0.520767

>  <gnina_score_min>  (1287) 
5.711

>  <inchikey>  (1287) 
RNTSNGAESQKPSB-UHFFFAOYSA-N

>  <exports>  (1287) 
['/opt/xchem-fragalysis-2/maxwin/BulkDock/OUTPUTS/openbind_a71ev2a_c2_elabs_1LOUU54.sdf', '/opt/xchem-fragalysis-2/maxwin/BulkDock/OUTPUTS/openbind_a71ev2a_c2_elabs_1LSYIDY.sdf']

>  <name>  (1287) 
P577178

>  <ref_pdb>  (1287) 
A3066a

>  <subsites>  (1287) 
None

>  <HIPPO Pose ID>  (1287) 
577178

>  <ref_mols>  (1287) 
A3066a

>  <HIPPO Compound ID>  (1287) 
350616

>  <tags>  (1287) 
openbind_a71ev2a_c2_elabs,syndirella_product,openbind_a71ev2a_c2_elabs_fragonly_scored_top80percent,BulkDock Fragalysis export,openbind_a71ev2a_c2_elabs_scored,openbind_a71ev2a_c2_elabs_scored_top80percent,openbind_a71ev2a_c2_elabs_activefrags_only_scored_5.2plus,openbind_a71ev2a_c2_elabs_activefrags_only_scored_5.5plus,syndirella_placed

>  <smina_score_min>  (1287) 
-7.753

$$$$
P577179
     RDKit          3D

 18 19  0  0  0  0  0  0  0  0999 V2000
    9.7377   15.7127   20.3445 C   0  0  0  0  0  0  0  0  0  0  0  0
   10.8238   14.9463   20.1849 C   0  0  0  0  0  0  0  0  0  0  0  0
   11.1352   14.5672   18.9247 F   0  0  0  0  0  0  0  0  0  0  0  0
   11.7391   14.5201   21.2919 C   0  0  0  0  0  0  0  0  0  0  0  0
   11.0837   13.4648   21.9941 N   0  0  0  0  0  0  0  0  0  0  0  0
   10.5804   13.3927   23.4375 C   0  0  0  0  0  0  0  0  0  0  0  0
   10.6862   14.1526   24.3120 O   0  0  0  0  0  0  0  0  0  0  0  0
    9.8202   12.1559   23.6593 C   0  0  0  0  0  0  0  0  0  0  0  0
   10.0170   10.9335   23.0506 C   0  0  0  0  0  0  0  0  0  0  0  0
    9.2313    9.9983   23.6624 N   0  0  0  0  0  0  0  0  0  0  0  0
    9.3269    8.5811   23.3972 C   0  0  0  0  0  0  0  0  0  0  0  0
    8.4071   10.6076   24.5795 C   0  0  0  0  0  0  0  0  0  0  0  0
    7.4207   10.0853   25.4279 C   0  0  0  0  0  0  0  0  0  0  0  0
    6.7809   10.9618   26.3074 C   0  0  0  0  0  0  0  0  0  0  0  0
    5.7074   10.3253   27.4945 Cl  0  0  0  0  0  0  0  0  0  0  0  0
    7.0556   12.3226   26.3009 C   0  0  0  0  0  0  0  0  0  0  0  0
    8.0295   12.8356   25.4398 C   0  0  0  0  0  0  0  0  0  0  0  0
    8.7411   11.9664   24.5840 C   0  0  0  0  0  0  0  0  0  0  0  0
  1  2  2  0
  2  3  1  0
  2  4  1  0
  4  5  1  0
  5  6  1  0
  6  7  2  0
  6  8  1  0
  8  9  2  0
  9 10  1  0
 10 11  1  0
 10 12  1  0
 12 13  2  0
 13 14  1  0
 14 15  1  0
 14 16  2  0
 16 17  1  0
 17 18  2  0
 18  8  1  0
 18 12  1  0
M  END
>  <alias>  (1288) 
None

>  <rmsd(smina/fragmenstein)>  (1288) 
0.267

>  <smiles>  (1288) 
C=C(F)CNC(=O)c1cn(C)c2cc(Cl)ccc12

>  <gnina_score>  (1288) 
5.515

>  <inspiration_score>  (1288) 
None

>  <energy_score>  (1288) 
-2.342914

>  <distance_score>  (1288) 
0.416988

>  <gnina_score_min>  (1288) 
5.486

>  <inchikey>  (1288) 
NZCOXVPDGSQBNS-UHFFFAOYSA-N

>  <exports>  (1288) 
['/opt/xchem-fragalysis-2/maxwin/BulkDock/OUTPUTS/openbind_a71ev2a_c2_elabs_1LOUU54.sdf', '/opt/xchem-fragalysis-2/maxwin/BulkDock/OUTPUTS/openbind_a71ev2a_c2_elabs_1LSYIDY.sdf']

>  <name>  (1288) 
P577179

>  <ref_pdb>  (1288) 
A3066a

>  <subsites>  (1288) 
None

>  <HIPPO Pose ID>  (1288) 
577179

>  <ref_mols>  (1288) 
A3066a

>  <HIPPO Compound ID>  (1288) 
350617

>  <tags>  (1288) 
openbind_a71ev2a_c2_elabs,syndirella_product,openbind_a71ev2a_c2_elabs_fragonly_scored_top80percent,openbind_a71ev2a_c2_elabs_scored,BulkDock Fragalysis export,openbind_a71ev2a_c2_elabs_scored_top80percent,openbind_a71ev2a_c2_elabs_activefrags_only_scored_5.2plus,syndirella_placed

>  <smina_score_min>  (1288) 
-7.618

$$$$
P577180
     RDKit          3D

 18 19  0  0  0  0  0  0  0  0999 V2000
   12.8599   14.8481   21.6404 C   0  0  0  0  0  0  0  0  0  0  0  0
   12.5825   14.3556   20.3429 O   0  0  0  0  0  0  0  0  0  0  0  0
   11.2864   14.6285   19.8245 C   0  0  0  0  0  0  0  0  0  0  0  0
   10.1656   14.7934   20.8369 C   0  0  0  0  0  0  0  0  0  0  0  0
   10.0298   13.6586   21.6970 N   0  0  0  0  0  0  0  0  0  0  0  0
    9.6802   13.5743   23.1758 C   0  0  0  0  0  0  0  0  0  0  0  0
    9.5198   14.4128   23.9588 O   0  0  0  0  0  0  0  0  0  0  0  0
    9.4271   12.2022   23.5954 C   0  0  0  0  0  0  0  0  0  0  0  0
    9.8968   11.0165   23.0750 C   0  0  0  0  0  0  0  0  0  0  0  0
    9.2463    9.9821   23.6978 N   0  0  0  0  0  0  0  0  0  0  0  0
    9.4642    8.5890   23.3767 C   0  0  0  0  0  0  0  0  0  0  0  0
    8.3549   10.4763   24.6261 C   0  0  0  0  0  0  0  0  0  0  0  0
    7.4237    9.8468   25.4621 C   0  0  0  0  0  0  0  0  0  0  0  0
    6.6718   10.6329   26.3426 C   0  0  0  0  0  0  0  0  0  0  0  0
    5.6269    9.8831   27.4881 Cl  0  0  0  0  0  0  0  0  0  0  0  0
    6.7887   12.0124   26.3558 C   0  0  0  0  0  0  0  0  0  0  0  0
    7.6792   12.6355   25.4859 C   0  0  0  0  0  0  0  0  0  0  0  0
    8.4879   11.8625   24.6203 C   0  0  0  0  0  0  0  0  0  0  0  0
  1  2  1  0
  2  3  1  0
  3  4  1  0
  4  5  1  0
  5  6  1  0
  6  7  2  0
  6  8  1  0
  8  9  2  0
  9 10  1  0
 10 11  1  0
 10 12  1  0
 12 13  2  0
 13 14  1  0
 14 15  1  0
 14 16  2  0
 16 17  1  0
 17 18  2  0
 18  8  1  0
 18 12  1  0
M  END
>  <alias>  (1289) 
None

>  <rmsd(smina/fragmenstein)>  (1289) 
0.48

>  <smiles>  (1289) 
COCCNC(=O)c1cn(C)c2cc(Cl)ccc12

>  <gnina_score>  (1289) 
5.417

>  <inspiration_score>  (1289) 
None

>  <energy_score>  (1289) 
-6.967635

>  <distance_score>  (1289) 
1.053912

>  <gnina_score_min>  (1289) 
5.36

>  <inchikey>  (1289) 
SFKLORBZKKUUCY-UHFFFAOYSA-N

>  <exports>  (1289) 
['/opt/xchem-fragalysis-2/maxwin/BulkDock/OUTPUTS/openbind_a71ev2a_c2_elabs_1LOUU54.sdf', '/opt/xchem-fragalysis-2/maxwin/BulkDock/OUTPUTS/openbind_a71ev2a_c2_elabs_1LSYIDY.sdf']

>  <name>  (1289) 
P577180

>  <ref_pdb>  (1289) 
A3066a

>  <subsites>  (1289) 
None

>  <HIPPO Pose ID>  (1289) 
577180

>  <ref_mols>  (1289) 
A3066a

>  <HIPPO Compound ID>  (1289) 
350618

>  <tags>  (1289) 
openbind_a71ev2a_c2_elabs,syndirella_product,openbind_a71ev2a_c2_elabs_fragonly_scored_top80percent,openbind_a71ev2a_c2_elabs_scored,BulkDock Fragalysis export,openbind_a71ev2a_c2_elabs_scored_top80percent,openbind_a71ev2a_c2_elabs_activefrags_only_scored_5.2plus,syndirella_placed

>  <smina_score_min>  (1289) 
-6.607

$$$$
P577181
     RDKit          3D

 18 19  0  0  0  0  0  0  0  0999 V2000
    9.3719    8.4789   23.3752 C   0  0  0  0  0  0  0  0  0  0  0  0
    9.2142    9.8886   23.6426 N   0  0  0  0  0  0  0  0  0  0  0  0
    9.9518   10.8522   23.0154 C   0  0  0  0  0  0  0  0  0  0  0  0
    9.6720   12.0670   23.5963 C   0  0  0  0  0  0  0  0  0  0  0  0
   10.3071   13.3502   23.3332 C   0  0  0  0  0  0  0  0  0  0  0  0
   10.3306   14.1332   24.1949 O   0  0  0  0  0  0  0  0  0  0  0  0
   10.7605   13.4659   21.8699 N   0  0  0  0  0  0  0  0  0  0  0  0
   11.2535   14.6029   21.1270 C   0  0  0  0  0  0  0  0  0  0  0  0
   11.7736   14.2470   19.7353 C   0  0  0  0  0  0  0  0  0  0  0  0
   12.4079   15.1504   21.9590 C   0  0  0  0  0  0  0  0  0  0  0  0
   10.0630   15.5564   20.9574 C   0  0  0  0  0  0  0  0  0  0  0  0
    8.6328   11.8361   24.5517 C   0  0  0  0  0  0  0  0  0  0  0  0
    7.8960   12.6835   25.4096 C   0  0  0  0  0  0  0  0  0  0  0  0
    6.9534   12.1418   26.2843 C   0  0  0  0  0  0  0  0  0  0  0  0
    6.7312   10.7731   26.2968 C   0  0  0  0  0  0  0  0  0  0  0  0
    5.6710   10.1066   27.4795 Cl  0  0  0  0  0  0  0  0  0  0  0  0
    7.4041    9.9180   25.4192 C   0  0  0  0  0  0  0  0  0  0  0  0
    8.3675   10.4661   24.5624 C   0  0  0  0  0  0  0  0  0  0  0  0
  1  2  1  0
  2  3  1  0
  3  4  2  0
  4  5  1  0
  5  6  2  0
  5  7  1  0
  7  8  1  0
  8  9  1  0
  8 10  1  0
  8 11  1  0
  4 12  1  0
 12 13  2  0
 13 14  1  0
 14 15  2  0
 15 16  1  0
 15 17  1  0
 17 18  2  0
 18  2  1  0
 18 12  1  0
M  END
>  <alias>  (1290) 
None

>  <rmsd(smina/fragmenstein)>  (1290) 
0.25

>  <smiles>  (1290) 
Cn1cc(C(=O)NC(C)(C)C)c2ccc(Cl)cc21

>  <gnina_score>  (1290) 
5.608

>  <inspiration_score>  (1290) 
None

>  <energy_score>  (1290) 
-16.633622

>  <distance_score>  (1290) 
0.596748

>  <gnina_score_min>  (1290) 
5.613

>  <inchikey>  (1290) 
GZJBLBFYGBFQRK-UHFFFAOYSA-N

>  <exports>  (1290) 
['/opt/xchem-fragalysis-2/maxwin/BulkDock/OUTPUTS/openbind_a71ev2a_c2_elabs_1LOUU54.sdf', '/opt/xchem-fragalysis-2/maxwin/BulkDock/OUTPUTS/openbind_a71ev2a_c2_elabs_1LSYIDY.sdf']

>  <name>  (1290) 
P577181

>  <ref_pdb>  (1290) 
A3066a

>  <subsites>  (1290) 
None

>  <HIPPO Pose ID>  (1290) 
577181

>  <ref_mols>  (1290) 
A3066a

>  <HIPPO Compound ID>  (1290) 
350620

>  <tags>  (1290) 
openbind_a71ev2a_c2_elabs,syndirella_product,openbind_a71ev2a_c2_elabs_fragonly_scored_top80percent,BulkDock Fragalysis export,openbind_a71ev2a_c2_elabs_scored,openbind_a71ev2a_c2_elabs_scored_top80percent,openbind_a71ev2a_c2_elabs_activefrags_only_scored_5.2plus,openbind_a71ev2a_c2_elabs_activefrags_only_scored_5.5plus,syndirella_placed

>  <smina_score_min>  (1290) 
-7.051

$$$$
P577182
     RDKit          3D

 18 20  0  0  0  0  0  0  0  0999 V2000
    9.2652    8.5049   23.4630 C   0  0  0  0  0  0  0  0  0  0  0  0
    9.1295    9.9068   23.7733 N   0  0  0  0  0  0  0  0  0  0  0  0
    9.8988   10.8699   23.1892 C   0  0  0  0  0  0  0  0  0  0  0  0
    9.6208   12.0741   23.7975 C   0  0  0  0  0  0  0  0  0  0  0  0
   10.2513   13.3531   23.5278 C   0  0  0  0  0  0  0  0  0  0  0  0
   10.3832   14.1332   24.3802 O   0  0  0  0  0  0  0  0  0  0  0  0
   10.5551   13.4573   22.0302 N   0  0  0  0  0  0  0  0  0  0  0  0
   11.1585   14.4831   21.2937 C   0  0  0  0  0  0  0  0  0  0  0  0
   10.1778   15.4193   20.6288 C   0  0  0  0  0  0  0  0  0  0  0  0
   12.4151   14.1611   20.5270 C   0  0  0  0  0  0  0  0  0  0  0  0
   12.4921   14.9927   21.7630 C   0  0  0  0  0  0  0  0  0  0  0  0
    8.5712   11.8414   24.7290 C   0  0  0  0  0  0  0  0  0  0  0  0
    7.8378   12.6858   25.5899 C   0  0  0  0  0  0  0  0  0  0  0  0
    6.8785   12.1399   26.4418 C   0  0  0  0  0  0  0  0  0  0  0  0
    6.6326   10.7748   26.4199 C   0  0  0  0  0  0  0  0  0  0  0  0
    5.5675   10.0994   27.5941 Cl  0  0  0  0  0  0  0  0  0  0  0  0
    7.2917    9.9284   25.5228 C   0  0  0  0  0  0  0  0  0  0  0  0
    8.2797   10.4766   24.6957 C   0  0  0  0  0  0  0  0  0  0  0  0
  1  2  1  0
  2  3  1  0
  3  4  2  0
  4  5  1  0
  5  6  2  0
  5  7  1  0
  7  8  1  0
  8  9  1  0
  8 10  1  0
 10 11  1  0
  4 12  1  0
 12 13  2  0
 13 14  1  0
 14 15  2  0
 15 16  1  0
 15 17  1  0
 17 18  2  0
 18  2  1  0
 11  8  1  0
 18 12  1  0
M  END
>  <alias>  (1291) 
None

>  <rmsd(smina/fragmenstein)>  (1291) 
0.226

>  <smiles>  (1291) 
Cn1cc(C(=O)NC2(C)CC2)c2ccc(Cl)cc21

>  <gnina_score>  (1291) 
5.614

>  <inspiration_score>  (1291) 
None

>  <energy_score>  (1291) 
-7.885979

>  <distance_score>  (1291) 
0.643194

>  <gnina_score_min>  (1291) 
5.65

>  <inchikey>  (1291) 
VPGBUELMLJYUGH-UHFFFAOYSA-N

>  <exports>  (1291) 
['/opt/xchem-fragalysis-2/maxwin/BulkDock/OUTPUTS/openbind_a71ev2a_c2_elabs_1LOUU54.sdf', '/opt/xchem-fragalysis-2/maxwin/BulkDock/OUTPUTS/openbind_a71ev2a_c2_elabs_1LSYIDY.sdf']

>  <name>  (1291) 
P577182

>  <ref_pdb>  (1291) 
A3066a

>  <subsites>  (1291) 
None

>  <HIPPO Pose ID>  (1291) 
577182

>  <ref_mols>  (1291) 
A3066a

>  <HIPPO Compound ID>  (1291) 
350624

>  <tags>  (1291) 
openbind_a71ev2a_c2_elabs,syndirella_product,openbind_a71ev2a_c2_elabs_fragonly_scored_top80percent,BulkDock Fragalysis export,openbind_a71ev2a_c2_elabs_scored,openbind_a71ev2a_c2_elabs_scored_top80percent,openbind_a71ev2a_c2_elabs_activefrags_only_scored_5.2plus,openbind_a71ev2a_c2_elabs_activefrags_only_scored_5.5plus,syndirella_placed

>  <smina_score_min>  (1291) 
-7.693

$$$$
P577183
     RDKit          3D

 18 19  0  0  0  0  0  0  0  0999 V2000
   12.8096   14.4576   21.4643 C   0  0  0  0  0  0  0  0  0  0  0  0
   11.3335   14.7598   21.3494 C   0  0  1  0  0  0  0  0  0  0  0  0
   10.8908   14.8416   19.8841 C   0  0  0  0  0  0  0  0  0  0  0  0
    9.7202   15.6408   19.7182 O   0  0  0  0  0  0  0  0  0  0  0  0
   10.6250   13.7138   22.0443 N   0  0  0  0  0  0  0  0  0  0  0  0
   10.3616   13.5138   23.5383 C   0  0  0  0  0  0  0  0  0  0  0  0
   10.6063   14.1989   24.4456 O   0  0  0  0  0  0  0  0  0  0  0  0
    9.6698   12.2474   23.7459 C   0  0  0  0  0  0  0  0  0  0  0  0
    9.9467   11.0567   23.1062 C   0  0  0  0  0  0  0  0  0  0  0  0
    9.1875   10.0697   23.6681 N   0  0  0  0  0  0  0  0  0  0  0  0
    9.2981    8.6715   23.3158 C   0  0  0  0  0  0  0  0  0  0  0  0
    8.3458   10.6111   24.6154 C   0  0  0  0  0  0  0  0  0  0  0  0
    7.3808   10.0224   25.4436 C   0  0  0  0  0  0  0  0  0  0  0  0
    6.7100   10.8413   26.3564 C   0  0  0  0  0  0  0  0  0  0  0  0
    5.6541   10.1275   27.5156 Cl  0  0  0  0  0  0  0  0  0  0  0  0
    6.9368   12.2104   26.4052 C   0  0  0  0  0  0  0  0  0  0  0  0
    7.8862   12.7919   25.5630 C   0  0  0  0  0  0  0  0  0  0  0  0
    8.6212   11.9809   24.6729 C   0  0  0  0  0  0  0  0  0  0  0  0
  2  1  1  6
  2  3  1  0
  3  4  1  0
  2  5  1  0
  5  6  1  0
  6  7  2  0
  6  8  1  0
  8  9  2  0
  9 10  1  0
 10 11  1  0
 10 12  1  0
 12 13  2  0
 13 14  1  0
 14 15  1  0
 14 16  2  0
 16 17  1  0
 17 18  2  0
 18  8  1  0
 18 12  1  0
M  END
>  <alias>  (1292) 
None

>  <rmsd(smina/fragmenstein)>  (1292) 
0.338

>  <smiles>  (1292) 
C[C@@H](CO)NC(=O)c1cn(C)c2cc(Cl)ccc12

>  <gnina_score>  (1292) 
5.597

>  <inspiration_score>  (1292) 
None

>  <energy_score>  (1292) 
-4.615951

>  <distance_score>  (1292) 
0.562783

>  <gnina_score_min>  (1292) 
5.561

>  <inchikey>  (1292) 
WWNGOSPIXQYSCL-QMMMGPOBSA-N

>  <exports>  (1292) 
['/opt/xchem-fragalysis-2/maxwin/BulkDock/OUTPUTS/openbind_a71ev2a_c2_elabs_1LOUU54.sdf', '/opt/xchem-fragalysis-2/maxwin/BulkDock/OUTPUTS/openbind_a71ev2a_c2_elabs_1LSYIDY.sdf']

>  <name>  (1292) 
P577183

>  <ref_pdb>  (1292) 
A3066a

>  <subsites>  (1292) 
None

>  <HIPPO Pose ID>  (1292) 
577183

>  <ref_mols>  (1292) 
A3066a

>  <HIPPO Compound ID>  (1292) 
350625

>  <tags>  (1292) 
openbind_a71ev2a_c2_elabs,syndirella_product,openbind_a71ev2a_c2_elabs_fragonly_scored_top80percent,BulkDock Fragalysis export,openbind_a71ev2a_c2_elabs_scored,openbind_a71ev2a_c2_elabs_scored_top80percent,openbind_a71ev2a_c2_elabs_activefrags_only_scored_5.2plus,openbind_a71ev2a_c2_elabs_activefrags_only_scored_5.5plus,syndirella_placed

>  <smina_score_min>  (1292) 
-7.748

$$$$
P577185
     RDKit          3D

 18 20  0  0  0  0  0  0  0  0999 V2000
   11.7747   14.5412   19.2258 C   0  0  0  0  0  0  0  0  0  0  0  0
   12.2081   14.1240   20.5755 C   0  0  1  0  0  0  0  0  0  0  0  0
   12.7708   14.9179   21.7113 C   0  0  0  0  0  0  0  0  0  0  0  0
   11.3170   14.6184   21.6842 C   0  0  2  0  0  0  0  0  0  0  0  0
   10.6533   13.5924   22.3499 N   0  0  0  0  0  0  0  0  0  0  0  0
   10.3669   13.3953   23.8399 C   0  0  0  0  0  0  0  0  0  0  0  0
   10.5713   14.0953   24.7470 O   0  0  0  0  0  0  0  0  0  0  0  0
    9.6475   12.1401   23.9914 C   0  0  0  0  0  0  0  0  0  0  0  0
    9.9060   10.9680   23.3082 C   0  0  0  0  0  0  0  0  0  0  0  0
    9.1092    9.9860   23.8203 N   0  0  0  0  0  0  0  0  0  0  0  0
    9.2382    8.5932   23.4589 C   0  0  0  0  0  0  0  0  0  0  0  0
    8.2464   10.5243   24.7499 C   0  0  0  0  0  0  0  0  0  0  0  0
    7.2458    9.9437   25.5377 C   0  0  0  0  0  0  0  0  0  0  0  0
    6.5784   10.7536   26.4615 C   0  0  0  0  0  0  0  0  0  0  0  0
    5.5036   10.0295   27.5966 Cl  0  0  0  0  0  0  0  0  0  0  0  0
    6.8243   12.1170   26.5415 C   0  0  0  0  0  0  0  0  0  0  0  0
    7.8027   12.6956   25.7337 C   0  0  0  0  0  0  0  0  0  0  0  0
    8.5513   11.8839   24.8563 C   0  0  0  0  0  0  0  0  0  0  0  0
  2  1  1  6
  2  3  1  0
  3  4  1  0
  4  5  1  1
  5  6  1  0
  6  7  2  0
  6  8  1  0
  8  9  2  0
  9 10  1  0
 10 11  1  0
 10 12  1  0
 12 13  2  0
 13 14  1  0
 14 15  1  0
 14 16  2  0
 16 17  1  0
 17 18  2  0
  4  2  1  0
 18  8  1  0
 18 12  1  0
M  END
>  <alias>  (1293) 
None

>  <rmsd(smina/fragmenstein)>  (1293) 
0.233

>  <smiles>  (1293) 
C[C@H]1C[C@@H]1NC(=O)c1cn(C)c2cc(Cl)ccc12

>  <gnina_score>  (1293) 
5.355

>  <inspiration_score>  (1293) 
None

>  <energy_score>  (1293) 
-0.282511

>  <distance_score>  (1293) 
0.598712

>  <gnina_score_min>  (1293) 
5.405

>  <inchikey>  (1293) 
ZMHFGURHCKAMND-UFBFGSQYSA-N

>  <exports>  (1293) 
['/opt/xchem-fragalysis-2/maxwin/BulkDock/OUTPUTS/openbind_a71ev2a_c2_elabs_1LOUU54.sdf', '/opt/xchem-fragalysis-2/maxwin/BulkDock/OUTPUTS/openbind_a71ev2a_c2_elabs_1LSYIDY.sdf']

>  <name>  (1293) 
P577185

>  <ref_pdb>  (1293) 
A3066a

>  <subsites>  (1293) 
None

>  <HIPPO Pose ID>  (1293) 
577185

>  <ref_mols>  (1293) 
A3066a

>  <HIPPO Compound ID>  (1293) 
350628

>  <tags>  (1293) 
openbind_a71ev2a_c2_elabs,syndirella_product,openbind_a71ev2a_c2_elabs_fragonly_scored_top80percent,openbind_a71ev2a_c2_elabs_scored,BulkDock Fragalysis export,openbind_a71ev2a_c2_elabs_scored_top80percent,openbind_a71ev2a_c2_elabs_activefrags_only_scored_5.2plus,syndirella_placed

>  <smina_score_min>  (1293) 
-6.991

$$$$
P577187
     RDKit          3D

 18 19  0  0  0  0  0  0  0  0999 V2000
   12.0335   15.7617   22.4118 C   0  0  0  0  0  0  0  0  0  0  0  0
   13.0325   14.7931   21.8563 C   0  0  0  0  0  0  0  0  0  0  0  0
   12.3593   13.8087   21.0439 N   0  0  0  0  0  0  0  0  0  0  0  0
   11.6537   14.4208   19.9051 C   0  0  0  0  0  0  0  0  0  0  0  0
   11.5331   12.9695   21.7922 N   0  0  0  0  0  0  0  0  0  0  0  0
   11.1604   13.0028   23.3053 C   0  0  0  0  0  0  0  0  0  0  0  0
   11.5510   13.6931   24.1692 O   0  0  0  0  0  0  0  0  0  0  0  0
   10.1210   12.0265   23.5910 C   0  0  0  0  0  0  0  0  0  0  0  0
   10.0197   10.7632   23.0622 C   0  0  0  0  0  0  0  0  0  0  0  0
    9.0767   10.0738   23.7718 N   0  0  0  0  0  0  0  0  0  0  0  0
    8.9608    8.6422   23.6407 C   0  0  0  0  0  0  0  0  0  0  0  0
    8.3847   10.9331   24.6012 C   0  0  0  0  0  0  0  0  0  0  0  0
    7.2684   10.7981   25.4439 C   0  0  0  0  0  0  0  0  0  0  0  0
    6.3708    9.3667   25.5999 Cl  0  0  0  0  0  0  0  0  0  0  0  0
    6.8139   11.8971   26.1791 C   0  0  0  0  0  0  0  0  0  0  0  0
    7.4452   13.1232   26.0864 C   0  0  0  0  0  0  0  0  0  0  0  0
    8.5549   13.2656   25.2576 C   0  0  0  0  0  0  0  0  0  0  0  0
    9.0344   12.1719   24.5032 C   0  0  0  0  0  0  0  0  0  0  0  0
  1  2  1  0
  2  3  1  0
  3  4  1  0
  3  5  1  0
  5  6  1  0
  6  7  2  0
  6  8  1  0
  8  9  2  0
  9 10  1  0
 10 11  1  0
 10 12  1  0
 12 13  2  0
 13 14  1  0
 13 15  1  0
 15 16  2  0
 16 17  1  0
 17 18  2  0
 18  8  1  0
 18 12  1  0
M  END
>  <alias>  (1294) 
None

>  <rmsd(smina/fragmenstein)>  (1294) 
0.906

>  <smiles>  (1294) 
CCN(C)NC(=O)c1cn(C)c2c(Cl)cccc12

>  <gnina_score>  (1294) 
5.504

>  <inspiration_score>  (1294) 
None

>  <energy_score>  (1294) 
-5.143801

>  <distance_score>  (1294) 
0.739069

>  <gnina_score_min>  (1294) 
5.372

>  <inchikey>  (1294) 
FHSUAEUOPMYNKC-UHFFFAOYSA-N

>  <exports>  (1294) 
['/opt/xchem-fragalysis-2/maxwin/BulkDock/OUTPUTS/openbind_a71ev2a_c2_elabs_1LOUU54.sdf', '/opt/xchem-fragalysis-2/maxwin/BulkDock/OUTPUTS/openbind_a71ev2a_c2_elabs_1LSYIDY.sdf']

>  <name>  (1294) 
P577187

>  <ref_pdb>  (1294) 
A3066a

>  <subsites>  (1294) 
None

>  <HIPPO Pose ID>  (1294) 
577187

>  <ref_mols>  (1294) 
A3066a

>  <HIPPO Compound ID>  (1294) 
350636

>  <tags>  (1294) 
openbind_a71ev2a_c2_elabs,syndirella_product,openbind_a71ev2a_c2_elabs_fragonly_scored_top80percent,openbind_a71ev2a_c2_elabs_scored,BulkDock Fragalysis export,openbind_a71ev2a_c2_elabs_scored_top80percent,openbind_a71ev2a_c2_elabs_activefrags_only_scored_5.2plus,syndirella_placed

>  <smina_score_min>  (1294) 
-4.907

$$$$
P577188
     RDKit          3D

 18 19  0  0  0  0  0  0  0  0999 V2000
    7.4968   16.1698   19.6372 C   0  0  0  0  0  0  0  0  0  0  0  0
    8.3195   15.2540   20.9616 S   0  0  0  0  0  0  0  0  0  0  0  0
   10.0426   15.3785   20.3515 C   0  0  0  0  0  0  0  0  0  0  0  0
   11.1314   14.8223   21.2832 C   0  0  0  0  0  0  0  0  0  0  0  0
   10.6907   13.6647   21.9968 N   0  0  0  0  0  0  0  0  0  0  0  0
   10.4515   13.4498   23.4933 C   0  0  0  0  0  0  0  0  0  0  0  0
   10.6475   14.1553   24.3978 O   0  0  0  0  0  0  0  0  0  0  0  0
    9.7866   12.1691   23.7151 C   0  0  0  0  0  0  0  0  0  0  0  0
   10.0242   10.9742   23.0727 C   0  0  0  0  0  0  0  0  0  0  0  0
    9.2528   10.0041   23.6488 N   0  0  0  0  0  0  0  0  0  0  0  0
    9.3384    8.6031   23.3055 C   0  0  0  0  0  0  0  0  0  0  0  0
    8.4163   10.5654   24.5878 C   0  0  0  0  0  0  0  0  0  0  0  0
    7.4334   10.0025   25.4133 C   0  0  0  0  0  0  0  0  0  0  0  0
    6.7634   10.8441   26.3060 C   0  0  0  0  0  0  0  0  0  0  0  0
    5.6833   10.1618   27.4610 Cl  0  0  0  0  0  0  0  0  0  0  0  0
    7.0067   12.2104   26.3356 C   0  0  0  0  0  0  0  0  0  0  0  0
    7.9775   12.7639   25.4988 C   0  0  0  0  0  0  0  0  0  0  0  0
    8.7183   11.9288   24.6345 C   0  0  0  0  0  0  0  0  0  0  0  0
  1  2  1  0
  2  3  1  0
  3  4  1  0
  4  5  1  0
  5  6  1  0
  6  7  2  0
  6  8  1  0
  8  9  2  0
  9 10  1  0
 10 11  1  0
 10 12  1  0
 12 13  2  0
 13 14  1  0
 14 15  1  0
 14 16  2  0
 16 17  1  0
 17 18  2  0
 18  8  1  0
 18 12  1  0
M  END
>  <alias>  (1295) 
None

>  <rmsd(smina/fragmenstein)>  (1295) 
0.743

>  <smiles>  (1295) 
CSCCNC(=O)c1cn(C)c2cc(Cl)ccc12

>  <gnina_score>  (1295) 
5.428

>  <inspiration_score>  (1295) 
None

>  <energy_score>  (1295) 
-5.263998

>  <distance_score>  (1295) 
0.551459

>  <gnina_score_min>  (1295) 
5.769

>  <inchikey>  (1295) 
DIRQRQCEBNTKPX-UHFFFAOYSA-N

>  <exports>  (1295) 
['/opt/xchem-fragalysis-2/maxwin/BulkDock/OUTPUTS/openbind_a71ev2a_c2_elabs_1LOUU54.sdf', '/opt/xchem-fragalysis-2/maxwin/BulkDock/OUTPUTS/openbind_a71ev2a_c2_elabs_1LSYIDY.sdf']

>  <name>  (1295) 
P577188

>  <ref_pdb>  (1295) 
A3066a

>  <subsites>  (1295) 
None

>  <HIPPO Pose ID>  (1295) 
577188

>  <ref_mols>  (1295) 
A3066a

>  <HIPPO Compound ID>  (1295) 
350641

>  <tags>  (1295) 
openbind_a71ev2a_c2_elabs,syndirella_product,openbind_a71ev2a_c2_elabs_fragonly_scored_top80percent,BulkDock Fragalysis export,openbind_a71ev2a_c2_elabs_scored,openbind_a71ev2a_c2_elabs_scored_top80percent,openbind_a71ev2a_c2_elabs_activefrags_only_scored_5.2plus,openbind_a71ev2a_c2_elabs_activefrags_only_scored_5.5plus,syndirella_placed

>  <smina_score_min>  (1295) 
-6.676

$$$$
P577189
     RDKit          3D

 18 19  0  0  0  0  0  0  0  0999 V2000
   10.3996   15.2228   19.4594 C   0  0  0  0  0  0  0  0  0  0  0  0
   10.3479   15.3146   20.7922 C   0  0  0  0  0  0  0  0  0  0  0  0
   11.3576   14.8018   21.7710 C   0  0  2  0  0  0  0  0  0  0  0  0
   12.7297   14.4055   21.2803 C   0  0  0  0  0  0  0  0  0  0  0  0
   10.7538   13.6733   22.3902 N   0  0  0  0  0  0  0  0  0  0  0  0
   10.3771   13.4254   23.8459 C   0  0  0  0  0  0  0  0  0  0  0  0
   10.5667   14.0701   24.7940 O   0  0  0  0  0  0  0  0  0  0  0  0
    9.6467   12.1727   23.9443 C   0  0  0  0  0  0  0  0  0  0  0  0
    9.9059   11.0130   23.2434 C   0  0  0  0  0  0  0  0  0  0  0  0
    9.1172   10.0195   23.7503 N   0  0  0  0  0  0  0  0  0  0  0  0
    9.2347    8.6332   23.3604 C   0  0  0  0  0  0  0  0  0  0  0  0
    8.2622   10.5386   24.6987 C   0  0  0  0  0  0  0  0  0  0  0  0
    7.2753    9.9421   25.4933 C   0  0  0  0  0  0  0  0  0  0  0  0
    6.6053   10.7405   26.4258 C   0  0  0  0  0  0  0  0  0  0  0  0
    5.5398   10.0061   27.5631 Cl  0  0  0  0  0  0  0  0  0  0  0  0
    6.8416   12.1051   26.5153 C   0  0  0  0  0  0  0  0  0  0  0  0
    7.8103   12.6968   25.7063 C   0  0  0  0  0  0  0  0  0  0  0  0
    8.5554   11.8993   24.8126 C   0  0  0  0  0  0  0  0  0  0  0  0
  1  2  2  0
  2  3  1  0
  3  4  1  6
  3  5  1  0
  5  6  1  0
  6  7  2  0
  6  8  1  0
  8  9  2  0
  9 10  1  0
 10 11  1  0
 10 12  1  0
 12 13  2  0
 13 14  1  0
 14 15  1  0
 14 16  2  0
 16 17  1  0
 17 18  2  0
 18  8  1  0
 18 12  1  0
M  END
>  <alias>  (1296) 
None

>  <rmsd(smina/fragmenstein)>  (1296) 
0.333

>  <smiles>  (1296) 
C=C[C@H](C)NC(=O)c1cn(C)c2cc(Cl)ccc12

>  <gnina_score>  (1296) 
5.581

>  <inspiration_score>  (1296) 
None

>  <energy_score>  (1296) 
-10.329289

>  <distance_score>  (1296) 
0.565418

>  <gnina_score_min>  (1296) 
5.626

>  <inchikey>  (1296) 
KMRICTOEUBJGAP-VIFPVBQESA-N

>  <exports>  (1296) 
['/opt/xchem-fragalysis-2/maxwin/BulkDock/OUTPUTS/openbind_a71ev2a_c2_elabs_1LOUU54.sdf', '/opt/xchem-fragalysis-2/maxwin/BulkDock/OUTPUTS/openbind_a71ev2a_c2_elabs_1LSYIDY.sdf']

>  <name>  (1296) 
P577189

>  <ref_pdb>  (1296) 
A3066a

>  <subsites>  (1296) 
None

>  <HIPPO Pose ID>  (1296) 
577189

>  <ref_mols>  (1296) 
A3066a

>  <HIPPO Compound ID>  (1296) 
350643

>  <tags>  (1296) 
openbind_a71ev2a_c2_elabs,syndirella_product,openbind_a71ev2a_c2_elabs_fragonly_scored_top80percent,BulkDock Fragalysis export,openbind_a71ev2a_c2_elabs_scored,openbind_a71ev2a_c2_elabs_scored_top80percent,openbind_a71ev2a_c2_elabs_activefrags_only_scored_5.2plus,openbind_a71ev2a_c2_elabs_activefrags_only_scored_5.5plus,syndirella_placed

>  <smina_score_min>  (1296) 
-7.44

$$$$
P577191
     RDKit          3D

 18 19  0  0  0  0  0  0  0  0999 V2000
   11.4622   14.6091   19.2575 C   0  0  0  0  0  0  0  0  0  0  0  0
   11.0909   14.8668   20.5130 C   0  0  0  0  0  0  0  0  0  0  0  0
    9.5867   15.6674   20.8051 Cl  0  0  0  0  0  0  0  0  0  0  0  0
   11.9047   14.4942   21.7072 C   0  0  0  0  0  0  0  0  0  0  0  0
   11.1998   13.4339   22.3442 N   0  0  0  0  0  0  0  0  0  0  0  0
   10.6259   13.3306   23.7548 C   0  0  0  0  0  0  0  0  0  0  0  0
   10.7004   14.0629   24.6547 O   0  0  0  0  0  0  0  0  0  0  0  0
    9.8125   12.1187   23.8690 C   0  0  0  0  0  0  0  0  0  0  0  0
    9.9898   10.9330   23.1857 C   0  0  0  0  0  0  0  0  0  0  0  0
    9.1604    9.9898   23.7200 N   0  0  0  0  0  0  0  0  0  0  0  0
    9.2185    8.5917   23.3645 C   0  0  0  0  0  0  0  0  0  0  0  0
    8.3353   10.5677   24.6571 C   0  0  0  0  0  0  0  0  0  0  0  0
    7.3282   10.0274   25.4681 C   0  0  0  0  0  0  0  0  0  0  0  0
    6.6920   10.8761   26.3779 C   0  0  0  0  0  0  0  0  0  0  0  0
    5.6150   10.2080   27.5449 Cl  0  0  0  0  0  0  0  0  0  0  0  0
    6.9781   12.2337   26.4248 C   0  0  0  0  0  0  0  0  0  0  0  0
    7.9716   12.7662   25.6011 C   0  0  0  0  0  0  0  0  0  0  0  0
    8.6923   11.9176   24.7335 C   0  0  0  0  0  0  0  0  0  0  0  0
  1  2  2  0
  2  3  1  0
  2  4  1  0
  4  5  1  0
  5  6  1  0
  6  7  2  0
  6  8  1  0
  8  9  2  0
  9 10  1  0
 10 11  1  0
 10 12  1  0
 12 13  2  0
 13 14  1  0
 14 15  1  0
 14 16  2  0
 16 17  1  0
 17 18  2  0
 18  8  1  0
 18 12  1  0
M  END
>  <alias>  (1297) 
None

>  <rmsd(smina/fragmenstein)>  (1297) 
0.434

>  <smiles>  (1297) 
C=C(Cl)CNC(=O)c1cn(C)c2cc(Cl)ccc12

>  <gnina_score>  (1297) 
5.653

>  <inspiration_score>  (1297) 
None

>  <energy_score>  (1297) 
-3.298239

>  <distance_score>  (1297) 
0.364866

>  <gnina_score_min>  (1297) 
5.64

>  <inchikey>  (1297) 
CPPBANZRCOHLFC-UHFFFAOYSA-N

>  <exports>  (1297) 
['/opt/xchem-fragalysis-2/maxwin/BulkDock/OUTPUTS/openbind_a71ev2a_c2_elabs_1LOUU54.sdf', '/opt/xchem-fragalysis-2/maxwin/BulkDock/OUTPUTS/openbind_a71ev2a_c2_elabs_1LSYIDY.sdf']

>  <name>  (1297) 
P577191

>  <ref_pdb>  (1297) 
A3066a

>  <subsites>  (1297) 
None

>  <HIPPO Pose ID>  (1297) 
577191

>  <ref_mols>  (1297) 
A3066a

>  <HIPPO Compound ID>  (1297) 
350644

>  <tags>  (1297) 
openbind_a71ev2a_c2_elabs,syndirella_product,openbind_a71ev2a_c2_elabs_fragonly_scored_top80percent,BulkDock Fragalysis export,openbind_a71ev2a_c2_elabs_scored,openbind_a71ev2a_c2_elabs_scored_top80percent,openbind_a71ev2a_c2_elabs_activefrags_only_scored_5.2plus,openbind_a71ev2a_c2_elabs_activefrags_only_scored_5.5plus,syndirella_placed

>  <smina_score_min>  (1297) 
-7.105

$$$$
P577192
     RDKit          3D

 18 20  0  0  0  0  0  0  0  0999 V2000
    8.3825   14.3908   21.6670 C   0  0  0  0  0  0  0  0  0  0  0  0
    9.8343   14.7825   21.6504 C   0  0  2  0  0  0  0  0  0  0  0  0
   10.6025   14.8781   20.3628 C   0  0  0  0  0  0  0  0  0  0  0  0
   11.7638   14.6163   21.3021 C   0  0  0  0  0  0  0  0  0  0  0  0
   10.8555   13.6904   22.0771 N   0  0  0  0  0  0  0  0  0  0  0  0
   10.7724   13.4041   23.5506 C   0  0  0  0  0  0  0  0  0  0  0  0
   11.3454   13.8947   24.4564 O   0  0  0  0  0  0  0  0  0  0  0  0
    9.8813   12.2629   23.7568 C   0  0  0  0  0  0  0  0  0  0  0  0
   10.0135   11.0698   23.0745 C   0  0  0  0  0  0  0  0  0  0  0  0
    9.2085   10.1364   23.6532 N   0  0  0  0  0  0  0  0  0  0  0  0
    9.2414    8.7312   23.3171 C   0  0  0  0  0  0  0  0  0  0  0  0
    8.4165   10.7359   24.6070 C   0  0  0  0  0  0  0  0  0  0  0  0
    7.4175   10.2098   25.4386 C   0  0  0  0  0  0  0  0  0  0  0  0
    6.8086   11.0752   26.3503 C   0  0  0  0  0  0  0  0  0  0  0  0
    5.7172   10.4335   27.5192 Cl  0  0  0  0  0  0  0  0  0  0  0  0
    7.1330   12.4261   26.3985 C   0  0  0  0  0  0  0  0  0  0  0  0
    8.1310   12.9410   25.5654 C   0  0  0  0  0  0  0  0  0  0  0  0
    8.8053   12.0825   24.6734 C   0  0  0  0  0  0  0  0  0  0  0  0
  2  1  1  6
  2  3  1  0
  3  4  1  0
  4  5  1  0
  5  6  1  0
  6  7  2  0
  6  8  1  0
  8  9  2  0
  9 10  1  0
 10 11  1  0
 10 12  1  0
 12 13  2  0
 13 14  1  0
 14 15  1  0
 14 16  2  0
 16 17  1  0
 17 18  2  0
  5  2  1  0
 18  8  1  0
 18 12  1  0
M  END
>  <alias>  (1298) 
None

>  <rmsd(smina/fragmenstein)>  (1298) 
0.274

>  <smiles>  (1298) 
C[C@@H]1CCN1C(=O)c1cn(C)c2cc(Cl)ccc12

>  <gnina_score>  (1298) 
5.507

>  <inspiration_score>  (1298) 
None

>  <energy_score>  (1298) 
-9.936923

>  <distance_score>  (1298) 
0.453457

>  <gnina_score_min>  (1298) 
5.501

>  <inchikey>  (1298) 
SJJKGXPIYCWLCY-SECBINFHSA-N

>  <exports>  (1298) 
['/opt/xchem-fragalysis-2/maxwin/BulkDock/OUTPUTS/openbind_a71ev2a_c2_elabs_1LOUU54.sdf', '/opt/xchem-fragalysis-2/maxwin/BulkDock/OUTPUTS/openbind_a71ev2a_c2_elabs_1LSYIDY.sdf']

>  <name>  (1298) 
P577192

>  <ref_pdb>  (1298) 
A3066a

>  <subsites>  (1298) 
None

>  <HIPPO Pose ID>  (1298) 
577192

>  <ref_mols>  (1298) 
A3066a

>  <HIPPO Compound ID>  (1298) 
350648

>  <tags>  (1298) 
openbind_a71ev2a_c2_elabs,syndirella_product,openbind_a71ev2a_c2_elabs_fragonly_scored_top80percent,BulkDock Fragalysis export,openbind_a71ev2a_c2_elabs_scored,openbind_a71ev2a_c2_elabs_scored_top80percent,openbind_a71ev2a_c2_elabs_activefrags_only_scored_5.2plus,openbind_a71ev2a_c2_elabs_activefrags_only_scored_5.5plus,syndirella_placed

>  <smina_score_min>  (1298) 
-7.993

$$$$
P577194
     RDKit          3D

 18 19  0  0  0  0  0  0  0  0999 V2000
   10.4421   14.9440   20.1720 C   0  0  0  0  0  0  0  0  0  0  0  0
   11.2473   14.7115   21.4417 C   0  0  2  0  0  0  0  0  0  0  0  0
   12.7405   14.5238   21.2345 C   0  0  0  0  0  0  0  0  0  0  0  0
   12.9635   13.7195   20.1629 F   0  0  0  0  0  0  0  0  0  0  0  0
   10.7231   13.5749   22.1440 N   0  0  0  0  0  0  0  0  0  0  0  0
   10.3748   13.3940   23.6195 C   0  0  0  0  0  0  0  0  0  0  0  0
   10.5265   14.1093   24.5229 O   0  0  0  0  0  0  0  0  0  0  0  0
    9.6754   12.1316   23.8047 C   0  0  0  0  0  0  0  0  0  0  0  0
    9.9329   10.9421   23.1575 C   0  0  0  0  0  0  0  0  0  0  0  0
    9.1617    9.9663   23.7218 N   0  0  0  0  0  0  0  0  0  0  0  0
    9.2931    8.5650   23.3966 C   0  0  0  0  0  0  0  0  0  0  0  0
    8.3115   10.5210   24.6533 C   0  0  0  0  0  0  0  0  0  0  0  0
    7.3301    9.9527   25.4754 C   0  0  0  0  0  0  0  0  0  0  0  0
    6.6636   10.7839   26.3808 C   0  0  0  0  0  0  0  0  0  0  0  0
    5.5960   10.0885   27.5399 Cl  0  0  0  0  0  0  0  0  0  0  0  0
    6.9026   12.1502   26.4215 C   0  0  0  0  0  0  0  0  0  0  0  0
    7.8658   12.7128   25.5840 C   0  0  0  0  0  0  0  0  0  0  0  0
    8.6036   11.8857   24.7103 C   0  0  0  0  0  0  0  0  0  0  0  0
  2  1  1  6
  2  3  1  0
  3  4  1  0
  2  5  1  0
  5  6  1  0
  6  7  2  0
  6  8  1  0
  8  9  2  0
  9 10  1  0
 10 11  1  0
 10 12  1  0
 12 13  2  0
 13 14  1  0
 14 15  1  0
 14 16  2  0
 16 17  1  0
 17 18  2  0
 18  8  1  0
 18 12  1  0
M  END
>  <alias>  (1299) 
None

>  <rmsd(smina/fragmenstein)>  (1299) 
0.304

>  <smiles>  (1299) 
C[C@H](CF)NC(=O)c1cn(C)c2cc(Cl)ccc12

>  <gnina_score>  (1299) 
5.488

>  <inspiration_score>  (1299) 
None

>  <energy_score>  (1299) 
-0.548445

>  <distance_score>  (1299) 
0.557839

>  <gnina_score_min>  (1299) 
5.542

>  <inchikey>  (1299) 
IMZFYUOSRDGOEL-MRVPVSSYSA-N

>  <exports>  (1299) 
['/opt/xchem-fragalysis-2/maxwin/BulkDock/OUTPUTS/openbind_a71ev2a_c2_elabs_1LOUU54.sdf', '/opt/xchem-fragalysis-2/maxwin/BulkDock/OUTPUTS/openbind_a71ev2a_c2_elabs_1LSYIDY.sdf']

>  <name>  (1299) 
P577194

>  <ref_pdb>  (1299) 
A3066a

>  <subsites>  (1299) 
None

>  <HIPPO Pose ID>  (1299) 
577194

>  <ref_mols>  (1299) 
A3066a

>  <HIPPO Compound ID>  (1299) 
350652

>  <tags>  (1299) 
openbind_a71ev2a_c2_elabs,syndirella_product,openbind_a71ev2a_c2_elabs_fragonly_scored_top80percent,BulkDock Fragalysis export,openbind_a71ev2a_c2_elabs_scored,openbind_a71ev2a_c2_elabs_scored_top80percent,openbind_a71ev2a_c2_elabs_activefrags_only_scored_5.2plus,openbind_a71ev2a_c2_elabs_activefrags_only_scored_5.5plus,syndirella_placed

>  <smina_score_min>  (1299) 
-7.529

$$$$
P577195
     RDKit          3D

 18 19  0  0  0  0  0  0  0  0999 V2000
    8.7542   15.1614   21.4321 C   0  0  0  0  0  0  0  0  0  0  0  0
   10.1476   15.5642   20.9531 C   0  0  2  0  0  0  0  0  0  0  0  0
   10.1145   15.5495   19.1824 Cl  0  0  0  0  0  0  0  0  0  0  0  0
   11.3242   14.7064   21.4630 C   0  0  0  0  0  0  0  0  0  0  0  0
   10.8310   13.5548   22.1503 N   0  0  0  0  0  0  0  0  0  0  0  0
   10.4915   13.3483   23.6270 C   0  0  0  0  0  0  0  0  0  0  0  0
   10.6302   14.0568   24.5392 O   0  0  0  0  0  0  0  0  0  0  0  0
    9.8080   12.0747   23.8073 C   0  0  0  0  0  0  0  0  0  0  0  0
   10.0195   10.8935   23.1331 C   0  0  0  0  0  0  0  0  0  0  0  0
    9.2291    9.9278   23.6885 N   0  0  0  0  0  0  0  0  0  0  0  0
    9.3196    8.5302   23.3369 C   0  0  0  0  0  0  0  0  0  0  0  0
    8.3871   10.4890   24.6222 C   0  0  0  0  0  0  0  0  0  0  0  0
    7.3845    9.9343   25.4275 C   0  0  0  0  0  0  0  0  0  0  0  0
    6.7194   10.7728   26.3268 C   0  0  0  0  0  0  0  0  0  0  0  0
    5.6280   10.0886   27.4703 Cl  0  0  0  0  0  0  0  0  0  0  0  0
    6.9800   12.1347   26.3750 C   0  0  0  0  0  0  0  0  0  0  0  0
    7.9695   12.6820   25.5572 C   0  0  0  0  0  0  0  0  0  0  0  0
    8.7123   11.8445   24.6960 C   0  0  0  0  0  0  0  0  0  0  0  0
  2  1  1  1
  2  3  1  0
  2  4  1  0
  4  5  1  0
  5  6  1  0
  6  7  2  0
  6  8  1  0
  8  9  2  0
  9 10  1  0
 10 11  1  0
 10 12  1  0
 12 13  2  0
 13 14  1  0
 14 15  1  0
 14 16  2  0
 16 17  1  0
 17 18  2  0
 18  8  1  0
 18 12  1  0
M  END
>  <alias>  (1300) 
None

>  <rmsd(smina/fragmenstein)>  (1300) 
0.354

>  <smiles>  (1300) 
C[C@H](Cl)CNC(=O)c1cn(C)c2cc(Cl)ccc12

>  <gnina_score>  (1300) 
5.615

>  <inspiration_score>  (1300) 
None

>  <energy_score>  (1300) 
-0.067698

>  <distance_score>  (1300) 
0.48035

>  <gnina_score_min>  (1300) 
5.656

>  <inchikey>  (1300) 
OMZZZTMEKZNLJO-QMMMGPOBSA-N

>  <exports>  (1300) 
['/opt/xchem-fragalysis-2/maxwin/BulkDock/OUTPUTS/openbind_a71ev2a_c2_elabs_1LOUU54.sdf', '/opt/xchem-fragalysis-2/maxwin/BulkDock/OUTPUTS/openbind_a71ev2a_c2_elabs_1LSYIDY.sdf']

>  <name>  (1300) 
P577195

>  <ref_pdb>  (1300) 
A3066a

>  <subsites>  (1300) 
None

>  <HIPPO Pose ID>  (1300) 
577195

>  <ref_mols>  (1300) 
A3066a

>  <HIPPO Compound ID>  (1300) 
350653

>  <tags>  (1300) 
openbind_a71ev2a_c2_elabs,syndirella_product,openbind_a71ev2a_c2_elabs_fragonly_scored_top80percent,BulkDock Fragalysis export,openbind_a71ev2a_c2_elabs_scored,openbind_a71ev2a_c2_elabs_scored_top80percent,openbind_a71ev2a_c2_elabs_activefrags_only_scored_5.2plus,openbind_a71ev2a_c2_elabs_activefrags_only_scored_5.5plus,syndirella_placed

>  <smina_score_min>  (1300) 
-7.126

$$$$
P577198
     RDKit          3D

 18 19  0  0  0  0  0  0  0  0999 V2000
   11.5671   14.4616   18.9196 C   0  0  0  0  0  0  0  0  0  0  0  0
   11.4291   14.5706   20.1033 C   0  0  0  0  0  0  0  0  0  0  0  0
   11.3846   14.7310   21.5442 C   0  0  2  0  0  0  0  0  0  0  0  0
   12.7834   14.6937   22.1126 C   0  0  0  0  0  0  0  0  0  0  0  0
   10.6347   13.6863   22.1551 N   0  0  0  0  0  0  0  0  0  0  0  0
   10.2563   13.4606   23.6159 C   0  0  0  0  0  0  0  0  0  0  0  0
   10.4282   14.1289   24.5510 O   0  0  0  0  0  0  0  0  0  0  0  0
    9.5839   12.1816   23.7766 C   0  0  0  0  0  0  0  0  0  0  0  0
    9.8869   10.9985   23.1372 C   0  0  0  0  0  0  0  0  0  0  0  0
    9.1408   10.0002   23.6994 N   0  0  0  0  0  0  0  0  0  0  0  0
    9.2999    8.6026   23.3663 C   0  0  0  0  0  0  0  0  0  0  0  0
    8.2816   10.5293   24.6387 C   0  0  0  0  0  0  0  0  0  0  0  0
    7.3235    9.9335   25.4685 C   0  0  0  0  0  0  0  0  0  0  0  0
    6.6419   10.7443   26.3817 C   0  0  0  0  0  0  0  0  0  0  0  0
    5.5902   10.0216   27.5386 Cl  0  0  0  0  0  0  0  0  0  0  0  0
    6.8486   12.1154   26.4287 C   0  0  0  0  0  0  0  0  0  0  0  0
    7.7876   12.7054   25.5837 C   0  0  0  0  0  0  0  0  0  0  0  0
    8.5323   11.9015   24.6944 C   0  0  0  0  0  0  0  0  0  0  0  0
  1  2  3  0
  2  3  1  0
  3  4  1  1
  3  5  1  0
  5  6  1  0
  6  7  2  0
  6  8  1  0
  8  9  2  0
  9 10  1  0
 10 11  1  0
 10 12  1  0
 12 13  2  0
 13 14  1  0
 14 15  1  0
 14 16  2  0
 16 17  1  0
 17 18  2  0
 18  8  1  0
 18 12  1  0
M  END
>  <alias>  (1301) 
None

>  <rmsd(smina/fragmenstein)>  (1301) 
0.779

>  <smiles>  (1301) 
C#C[C@H](C)NC(=O)c1cn(C)c2cc(Cl)ccc12

>  <gnina_score>  (1301) 
5.388

>  <inspiration_score>  (1301) 
None

>  <energy_score>  (1301) 
-23.518145

>  <distance_score>  (1301) 
0.576746

>  <gnina_score_min>  (1301) 
5.589

>  <inchikey>  (1301) 
UXBZVFLZCBHQIX-VIFPVBQESA-N

>  <exports>  (1301) 
['/opt/xchem-fragalysis-2/maxwin/BulkDock/OUTPUTS/openbind_a71ev2a_c2_elabs_1LOUU54.sdf', '/opt/xchem-fragalysis-2/maxwin/BulkDock/OUTPUTS/openbind_a71ev2a_c2_elabs_1LSYIDY.sdf']

>  <name>  (1301) 
P577198

>  <ref_pdb>  (1301) 
A3066a

>  <subsites>  (1301) 
None

>  <HIPPO Pose ID>  (1301) 
577198

>  <ref_mols>  (1301) 
A3066a

>  <HIPPO Compound ID>  (1301) 
350661

>  <tags>  (1301) 
openbind_a71ev2a_c2_elabs,syndirella_product,openbind_a71ev2a_c2_elabs_fragonly_scored_top80percent,BulkDock Fragalysis export,openbind_a71ev2a_c2_elabs_scored,openbind_a71ev2a_c2_elabs_scored_top80percent,openbind_a71ev2a_c2_elabs_activefrags_only_scored_5.2plus,openbind_a71ev2a_c2_elabs_activefrags_only_scored_5.5plus,syndirella_placed

>  <smina_score_min>  (1301) 
-7.46

$$$$
P577199
     RDKit          3D

 18 19  0  0  0  0  0  0  0  0999 V2000
    9.2907    8.5394   23.4787 C   0  0  0  0  0  0  0  0  0  0  0  0
    9.2228    9.9631   23.7092 N   0  0  0  0  0  0  0  0  0  0  0  0
   10.0336   10.8570   23.0727 C   0  0  0  0  0  0  0  0  0  0  0  0
    9.8793   12.1029   23.6465 C   0  0  0  0  0  0  0  0  0  0  0  0
   10.6618   13.3185   23.3622 C   0  0  0  0  0  0  0  0  0  0  0  0
   10.6750   14.1839   24.1399 O   0  0  0  0  0  0  0  0  0  0  0  0
   11.2707   13.2350   21.9580 N   0  0  0  0  0  0  0  0  0  0  0  0
   11.9431   14.2288   21.1732 C   0  0  0  0  0  0  0  0  0  0  0  0
   10.9240   14.8203   20.2024 C   0  0  0  0  0  0  0  0  0  0  0  0
   10.0377   15.8142   20.9252 C   0  0  0  0  0  0  0  0  0  0  0  0
    9.0121   16.7324   19.8306 Cl  0  0  0  0  0  0  0  0  0  0  0  0
    8.7910   11.9690   24.5741 C   0  0  0  0  0  0  0  0  0  0  0  0
    8.0978   12.8805   25.4007 C   0  0  0  0  0  0  0  0  0  0  0  0
    7.1087   12.4177   26.2738 C   0  0  0  0  0  0  0  0  0  0  0  0
    6.7973   11.0656   26.3190 C   0  0  0  0  0  0  0  0  0  0  0  0
    5.7119   10.4903   27.5262 Cl  0  0  0  0  0  0  0  0  0  0  0  0
    7.4115   10.1484   25.4640 C   0  0  0  0  0  0  0  0  0  0  0  0
    8.4157   10.6200   24.6062 C   0  0  0  0  0  0  0  0  0  0  0  0
  1  2  1  0
  2  3  1  0
  3  4  2  0
  4  5  1  0
  5  6  2  0
  5  7  1  0
  7  8  1  0
  8  9  1  0
  9 10  1  0
 10 11  1  0
  4 12  1  0
 12 13  2  0
 13 14  1  0
 14 15  2  0
 15 16  1  0
 15 17  1  0
 17 18  2  0
 18  2  1  0
 18 12  1  0
M  END
>  <alias>  (1302) 
None

>  <rmsd(smina/fragmenstein)>  (1302) 
0.454

>  <smiles>  (1302) 
Cn1cc(C(=O)NCCCCl)c2ccc(Cl)cc21

>  <gnina_score>  (1302) 
5.667

>  <inspiration_score>  (1302) 
None

>  <energy_score>  (1302) 
-2.158081

>  <distance_score>  (1302) 
0.438668

>  <gnina_score_min>  (1302) 
5.634

>  <inchikey>  (1302) 
GKEFAQGOXXIIEF-UHFFFAOYSA-N

>  <exports>  (1302) 
['/opt/xchem-fragalysis-2/maxwin/BulkDock/OUTPUTS/openbind_a71ev2a_c2_elabs_1LOUU54.sdf', '/opt/xchem-fragalysis-2/maxwin/BulkDock/OUTPUTS/openbind_a71ev2a_c2_elabs_1LSYIDY.sdf']

>  <name>  (1302) 
P577199

>  <ref_pdb>  (1302) 
A3066a

>  <subsites>  (1302) 
None

>  <HIPPO Pose ID>  (1302) 
577199

>  <ref_mols>  (1302) 
A3066a

>  <HIPPO Compound ID>  (1302) 
350662

>  <tags>  (1302) 
openbind_a71ev2a_c2_elabs,syndirella_product,openbind_a71ev2a_c2_elabs_fragonly_scored_top80percent,BulkDock Fragalysis export,openbind_a71ev2a_c2_elabs_scored,openbind_a71ev2a_c2_elabs_scored_top80percent,openbind_a71ev2a_c2_elabs_activefrags_only_scored_5.2plus,openbind_a71ev2a_c2_elabs_activefrags_only_scored_5.5plus,syndirella_placed

>  <smina_score_min>  (1302) 
-7.21

$$$$
P577204
     RDKit          3D

 18 19  0  0  0  0  0  0  0  0999 V2000
   11.1733   14.5187   19.9314 C   0  0  0  0  0  0  0  0  0  0  0  0
   11.7488   14.7014   21.3196 C   0  0  2  0  0  0  0  0  0  0  0  0
   12.6058   13.2965   21.9214 Cl  0  0  0  0  0  0  0  0  0  0  0  0
   10.6705   15.0306   22.3208 C   0  0  0  0  0  0  0  0  0  0  0  0
    9.9519   13.9264   22.8904 N   0  0  0  0  0  0  0  0  0  0  0  0
    9.7061   13.5478   24.3539 C   0  0  0  0  0  0  0  0  0  0  0  0
    9.9801   14.1100   25.3348 O   0  0  0  0  0  0  0  0  0  0  0  0
    9.0292   12.2734   24.4438 C   0  0  0  0  0  0  0  0  0  0  0  0
    9.3095   11.1334   23.7506 C   0  0  0  0  0  0  0  0  0  0  0  0
   10.3969   10.8385   22.5238 Cl  0  0  0  0  0  0  0  0  0  0  0  0
    8.6061   10.0855   24.2368 N   0  0  0  0  0  0  0  0  0  0  0  0
    8.8473    8.7040   23.8840 C   0  0  0  0  0  0  0  0  0  0  0  0
    7.7212   10.5645   25.1764 C   0  0  0  0  0  0  0  0  0  0  0  0
    6.7219    9.9361   25.9172 C   0  0  0  0  0  0  0  0  0  0  0  0
    6.0478   10.6764   26.8887 C   0  0  0  0  0  0  0  0  0  0  0  0
    6.3126   12.0261   27.0770 C   0  0  0  0  0  0  0  0  0  0  0  0
    7.2746   12.6662   26.3020 C   0  0  0  0  0  0  0  0  0  0  0  0
    7.9949   11.9265   25.3456 C   0  0  0  0  0  0  0  0  0  0  0  0
  2  1  1  6
  2  3  1  0
  2  4  1  0
  4  5  1  0
  5  6  1  0
  6  7  2  0
  6  8  1  0
  8  9  2  0
  9 10  1  0
  9 11  1  0
 11 12  1  0
 11 13  1  0
 13 14  2  0
 14 15  1  0
 15 16  2  0
 16 17  1  0
 17 18  2  0
 18  8  1  0
 18 13  1  0
M  END
>  <alias>  (1303) 
None

>  <rmsd(smina/fragmenstein)>  (1303) 
0.508

>  <smiles>  (1303) 
C[C@H](Cl)CNC(=O)c1c(Cl)n(C)c2ccccc12

>  <gnina_score>  (1303) 
5.154

>  <inspiration_score>  (1303) 
None

>  <energy_score>  (1303) 
-3.409839

>  <distance_score>  (1303) 
1.30676

>  <gnina_score_min>  (1303) 
5.252

>  <inchikey>  (1303) 
RKACOGAHGHEYJE-QMMMGPOBSA-N

>  <exports>  (1303) 
['/opt/xchem-fragalysis-2/maxwin/BulkDock/OUTPUTS/openbind_a71ev2a_c2_elabs_1LOUU54.sdf', '/opt/xchem-fragalysis-2/maxwin/BulkDock/OUTPUTS/openbind_a71ev2a_c2_elabs_1LSYIDY.sdf']

>  <name>  (1303) 
P577204

>  <ref_pdb>  (1303) 
A3066a

>  <subsites>  (1303) 
None

>  <HIPPO Pose ID>  (1303) 
577204

>  <ref_mols>  (1303) 
A3066a

>  <HIPPO Compound ID>  (1303) 
350675

>  <tags>  (1303) 
openbind_a71ev2a_c2_elabs,syndirella_product,openbind_a71ev2a_c2_elabs_fragonly_scored_top80percent,openbind_a71ev2a_c2_elabs_scored,BulkDock Fragalysis export,openbind_a71ev2a_c2_elabs_scored_top80percent,openbind_a71ev2a_c2_elabs_activefrags_only_scored_5.2plus,syndirella_placed

>  <smina_score_min>  (1303) 
-4.399

$$$$
P577209
     RDKit          3D

 18 20  0  0  0  0  0  0  0  0999 V2000
    8.5886    8.4923   24.1478 C   0  0  0  0  0  0  0  0  0  0  0  0
    8.6097    9.9184   24.2504 N   0  0  0  0  0  0  0  0  0  0  0  0
    9.3845   10.6817   23.4620 C   0  0  0  0  0  0  0  0  0  0  0  0
   10.2571    9.8436   22.2845 Cl  0  0  0  0  0  0  0  0  0  0  0  0
    9.2568   11.9964   23.8111 C   0  0  0  0  0  0  0  0  0  0  0  0
    9.9762   13.1316   23.2639 C   0  0  0  0  0  0  0  0  0  0  0  0
    9.6145   14.2129   23.5084 O   0  0  0  0  0  0  0  0  0  0  0  0
   11.2206   12.6433   22.4899 N   0  0  0  0  0  0  0  0  0  0  0  0
   12.2620   13.3369   21.9707 N   0  0  0  0  0  0  0  0  0  0  0  0
   12.7046   14.3872   22.8802 C   0  0  0  0  0  0  0  0  0  0  0  0
   12.7153   15.3400   21.7020 C   0  0  0  0  0  0  0  0  0  0  0  0
   11.8240   14.3363   20.9817 C   0  0  0  0  0  0  0  0  0  0  0  0
    8.2658   12.0215   24.8472 C   0  0  0  0  0  0  0  0  0  0  0  0
    7.6709   13.0502   25.6053 C   0  0  0  0  0  0  0  0  0  0  0  0
    6.6991   12.7348   26.5573 C   0  0  0  0  0  0  0  0  0  0  0  0
    6.3044   11.4178   26.7557 C   0  0  0  0  0  0  0  0  0  0  0  0
    6.8671   10.3803   26.0145 C   0  0  0  0  0  0  0  0  0  0  0  0
    7.8617   10.7037   25.0843 C   0  0  0  0  0  0  0  0  0  0  0  0
  1  2  1  0
  2  3  1  0
  3  4  1  0
  3  5  2  0
  5  6  1  0
  6  7  2  0
  6  8  1  0
  8  9  1  0
  9 10  1  0
 10 11  1  0
 11 12  1  0
  5 13  1  0
 13 14  2  0
 14 15  1  0
 15 16  2  0
 16 17  1  0
 17 18  2  0
 18  2  1  0
 12  9  1  0
 18 13  1  0
M  END
>  <alias>  (1304) 
None

>  <rmsd(smina/fragmenstein)>  (1304) 
0.33

>  <smiles>  (1304) 
Cn1c(Cl)c(C(=O)NN2CCC2)c2ccccc21

>  <gnina_score>  (1304) 
5.434

>  <inspiration_score>  (1304) 
None

>  <energy_score>  (1304) 
-10.6451

>  <distance_score>  (1304) 
1.06643

>  <gnina_score_min>  (1304) 
5.367

>  <inchikey>  (1304) 
RUHACLILOPIGFH-UHFFFAOYSA-N

>  <exports>  (1304) 
['/opt/xchem-fragalysis-2/maxwin/BulkDock/OUTPUTS/openbind_a71ev2a_c2_elabs_1LOUU54.sdf', '/opt/xchem-fragalysis-2/maxwin/BulkDock/OUTPUTS/openbind_a71ev2a_c2_elabs_1LSYIDY.sdf']

>  <name>  (1304) 
P577209

>  <ref_pdb>  (1304) 
A3066a

>  <subsites>  (1304) 
None

>  <HIPPO Pose ID>  (1304) 
577209

>  <ref_mols>  (1304) 
A3066a

>  <HIPPO Compound ID>  (1304) 
350702

>  <tags>  (1304) 
openbind_a71ev2a_c2_elabs,syndirella_product,openbind_a71ev2a_c2_elabs_fragonly_scored_top80percent,openbind_a71ev2a_c2_elabs_scored,BulkDock Fragalysis export,openbind_a71ev2a_c2_elabs_scored_top80percent,openbind_a71ev2a_c2_elabs_activefrags_only_scored_5.2plus,syndirella_placed

>  <smina_score_min>  (1304) 
-4.371

$$$$
P577213
     RDKit          3D

 19 20  0  0  0  0  0  0  0  0999 V2000
   11.1934    8.0584   23.5766 C   0  0  0  0  0  0  0  0  0  0  0  0
    9.7345    7.8350   23.5767 C   0  0  0  0  0  0  0  0  0  0  0  0
    8.9883    8.9725   22.9964 C   0  0  0  0  0  0  0  0  0  0  0  0
    9.1562   10.2363   23.6627 N   0  0  0  0  0  0  0  0  0  0  0  0
   10.0380   11.1585   23.1963 C   0  0  0  0  0  0  0  0  0  0  0  0
    9.7415   12.3759   23.7601 C   0  0  0  0  0  0  0  0  0  0  0  0
   10.3308   13.6190   23.2912 C   0  0  0  0  0  0  0  0  0  0  0  0
   10.6761   14.4681   24.0130 O   0  0  0  0  0  0  0  0  0  0  0  0
   10.2827   13.5744   21.7448 N   0  0  0  0  0  0  0  0  0  0  0  0
   10.7098   14.4698   20.8271 N   0  0  0  0  0  0  0  0  0  0  0  0
    9.9525   15.6864   20.6900 C   0  0  0  0  0  0  0  0  0  0  0  0
   12.1378   14.4500   20.6137 C   0  0  0  0  0  0  0  0  0  0  0  0
   12.9007   15.0531   21.7664 C   0  0  0  0  0  0  0  0  0  0  0  0
    8.7117   12.1433   24.7183 C   0  0  0  0  0  0  0  0  0  0  0  0
    7.9741   12.9746   25.5838 C   0  0  0  0  0  0  0  0  0  0  0  0
    6.9614   12.4221   26.3753 C   0  0  0  0  0  0  0  0  0  0  0  0
    6.6648   11.0646   26.3039 C   0  0  0  0  0  0  0  0  0  0  0  0
    7.3582   10.2237   25.4324 C   0  0  0  0  0  0  0  0  0  0  0  0
    8.3731   10.7838   24.6466 C   0  0  0  0  0  0  0  0  0  0  0  0
  1  2  1  0
  2  3  1  0
  3  4  1  0
  4  5  1  0
  5  6  2  0
  6  7  1  0
  7  8  2  0
  7  9  1  0
  9 10  1  0
 10 11  1  0
 10 12  1  0
 12 13  1  0
  6 14  1  0
 14 15  2  0
 15 16  1  0
 16 17  2  0
 17 18  1  0
 18 19  2  0
 19  4  1  0
 19 14  1  0
M  END
>  <alias>  (1305) 
None

>  <rmsd(smina/fragmenstein)>  (1305) 
0.692

>  <smiles>  (1305) 
CCCn1cc(C(=O)NN(C)CC)c2ccccc21

>  <gnina_score>  (1305) 
5.764

>  <inspiration_score>  (1305) 
None

>  <energy_score>  (1305) 
-10.926058

>  <distance_score>  (1305) 
0.815086

>  <gnina_score_min>  (1305) 
5.698

>  <inchikey>  (1305) 
QSLFBDNGBLMKIW-UHFFFAOYSA-N

>  <exports>  (1305) 
['/opt/xchem-fragalysis-2/maxwin/BulkDock/OUTPUTS/openbind_a71ev2a_c2_elabs_1LOUU54.sdf', '/opt/xchem-fragalysis-2/maxwin/BulkDock/OUTPUTS/openbind_a71ev2a_c2_elabs_1LSYIDY.sdf']

>  <name>  (1305) 
P577213

>  <ref_pdb>  (1305) 
A3066a

>  <subsites>  (1305) 
None

>  <HIPPO Pose ID>  (1305) 
577213

>  <ref_mols>  (1305) 
A3066a

>  <HIPPO Compound ID>  (1305) 
350713

>  <tags>  (1305) 
openbind_a71ev2a_c2_elabs,syndirella_product,openbind_a71ev2a_c2_elabs_fragonly_scored_top80percent,BulkDock Fragalysis export,openbind_a71ev2a_c2_elabs_scored,openbind_a71ev2a_c2_elabs_scored_top80percent,openbind_a71ev2a_c2_elabs_activefrags_only_scored_5.2plus,openbind_a71ev2a_c2_elabs_activefrags_only_scored_5.5plus,syndirella_placed

>  <smina_score_min>  (1305) 
-4.889

$$$$
P577214
     RDKit          3D

 19 20  0  0  0  0  0  0  0  0999 V2000
   11.0232    8.1213   23.3293 C   0  0  0  0  0  0  0  0  0  0  0  0
    9.8055    8.3817   22.8711 C   0  0  0  0  0  0  0  0  0  0  0  0
    8.7443    8.8904   23.7431 C   0  0  0  0  0  0  0  0  0  0  0  0
    8.7840   10.3175   23.9924 N   0  0  0  0  0  0  0  0  0  0  0  0
    9.5565   11.2478   23.3563 C   0  0  0  0  0  0  0  0  0  0  0  0
    9.2912   12.4750   23.9240 C   0  0  0  0  0  0  0  0  0  0  0  0
    9.9231   13.7172   23.5382 C   0  0  0  0  0  0  0  0  0  0  0  0
   10.6207   14.2839   24.2787 O   0  0  0  0  0  0  0  0  0  0  0  0
    9.5031   14.0640   22.1017 N   0  0  0  0  0  0  0  0  0  0  0  0
    9.9244   15.1277   21.2399 C   0  0  0  0  0  0  0  0  0  0  0  0
   10.9656   14.6175   20.3111 C   0  0  0  0  0  0  0  0  0  0  0  0
   12.2301   14.3434   20.6422 C   0  0  0  0  0  0  0  0  0  0  0  0
   12.8767   14.5341   22.2059 Cl  0  0  0  0  0  0  0  0  0  0  0  0
    8.3146   12.2789   24.9359 C   0  0  0  0  0  0  0  0  0  0  0  0
    7.6492   13.1391   25.8284 C   0  0  0  0  0  0  0  0  0  0  0  0
    6.6910   12.6149   26.6999 C   0  0  0  0  0  0  0  0  0  0  0  0
    6.3831   11.2589   26.6846 C   0  0  0  0  0  0  0  0  0  0  0  0
    7.0209   10.3890   25.8015 C   0  0  0  0  0  0  0  0  0  0  0  0
    7.9936   10.9229   24.9453 C   0  0  0  0  0  0  0  0  0  0  0  0
  1  2  2  0
  2  3  1  0
  3  4  1  0
  4  5  1  0
  5  6  2  0
  6  7  1  0
  7  8  2  0
  7  9  1  0
  9 10  1  0
 10 11  1  0
 11 12  2  0
 12 13  1  0
  6 14  1  0
 14 15  2  0
 15 16  1  0
 16 17  2  0
 17 18  1  0
 18 19  2  0
 19  4  1  0
 19 14  1  0
M  END
>  <alias>  (1306) 
None

>  <rmsd(smina/fragmenstein)>  (1306) 
0.451

>  <smiles>  (1306) 
C=CCn1cc(C(=O)NC/C=C\Cl)c2ccccc21

>  <gnina_score>  (1306) 
5.482

>  <inspiration_score>  (1306) 
None

>  <energy_score>  (1306) 
-0.665832

>  <distance_score>  (1306) 
1.218132

>  <gnina_score_min>  (1306) 
5.456

>  <inchikey>  (1306) 
QBIBIAWURFCEIK-YVMONPNESA-N

>  <exports>  (1306) 
['/opt/xchem-fragalysis-2/maxwin/BulkDock/OUTPUTS/openbind_a71ev2a_c2_elabs_1LOUU54.sdf', '/opt/xchem-fragalysis-2/maxwin/BulkDock/OUTPUTS/openbind_a71ev2a_c2_elabs_1LSYIDY.sdf']

>  <name>  (1306) 
P577214

>  <ref_pdb>  (1306) 
A3066a

>  <subsites>  (1306) 
None

>  <HIPPO Pose ID>  (1306) 
577214

>  <ref_mols>  (1306) 
A3066a

>  <HIPPO Compound ID>  (1306) 
350715

>  <tags>  (1306) 
openbind_a71ev2a_c2_elabs,syndirella_product,openbind_a71ev2a_c2_elabs_fragonly_scored_top80percent,openbind_a71ev2a_c2_elabs_scored,BulkDock Fragalysis export,openbind_a71ev2a_c2_elabs_scored_top80percent,openbind_a71ev2a_c2_elabs_activefrags_only_scored_5.2plus,syndirella_placed

>  <smina_score_min>  (1306) 
-5.348

$$$$
P577215
     RDKit          3D

 19 21  0  0  0  0  0  0  0  0999 V2000
   11.0163    8.1112   23.3130 C   0  0  0  0  0  0  0  0  0  0  0  0
    9.7980    8.3493   22.8450 C   0  0  0  0  0  0  0  0  0  0  0  0
    8.6870    8.7459   23.7154 C   0  0  0  0  0  0  0  0  0  0  0  0
    8.6580   10.1460   24.0748 N   0  0  0  0  0  0  0  0  0  0  0  0
    9.4548   11.1221   23.5573 C   0  0  0  0  0  0  0  0  0  0  0  0
    9.1851   12.2811   24.2480 C   0  0  0  0  0  0  0  0  0  0  0  0
    9.9166   13.5108   24.1153 C   0  0  0  0  0  0  0  0  0  0  0  0
   10.2240   14.1161   25.0653 O   0  0  0  0  0  0  0  0  0  0  0  0
   10.2475   13.7493   22.6255 N   0  0  0  0  0  0  0  0  0  0  0  0
   11.0539   14.6704   22.0379 N   0  0  0  0  0  0  0  0  0  0  0  0
   12.1959   14.9125   22.9588 C   0  0  0  0  0  0  0  0  0  0  0  0
   13.0674   15.0144   21.7319 C   0  0  0  0  0  0  0  0  0  0  0  0
   12.0532   14.0584   21.1095 C   0  0  0  0  0  0  0  0  0  0  0  0
    8.1415   12.0150   25.1643 C   0  0  0  0  0  0  0  0  0  0  0  0
    7.4496   12.8021   26.1033 C   0  0  0  0  0  0  0  0  0  0  0  0
    6.4784   12.2086   26.9078 C   0  0  0  0  0  0  0  0  0  0  0  0
    6.1859   10.8571   26.7751 C   0  0  0  0  0  0  0  0  0  0  0  0
    6.8362   10.0692   25.8255 C   0  0  0  0  0  0  0  0  0  0  0  0
    7.8257   10.6666   25.0399 C   0  0  0  0  0  0  0  0  0  0  0  0
  1  2  2  0
  2  3  1  0
  3  4  1  0
  4  5  1  0
  5  6  2  0
  6  7  1  0
  7  8  2  0
  7  9  1  0
  9 10  1  0
 10 11  1  0
 11 12  1  0
 12 13  1  0
  6 14  1  0
 14 15  2  0
 15 16  1  0
 16 17  2  0
 17 18  1  0
 18 19  2  0
 19  4  1  0
 13 10  1  0
 19 14  1  0
M  END
>  <alias>  (1307) 
None

>  <rmsd(smina/fragmenstein)>  (1307) 
0.584

>  <smiles>  (1307) 
C=CCn1cc(C(=O)NN2CCC2)c2ccccc21

>  <gnina_score>  (1307) 
5.505

>  <inspiration_score>  (1307) 
None

>  <energy_score>  (1307) 
-3.49925

>  <distance_score>  (1307) 
1.059085

>  <gnina_score_min>  (1307) 
5.554

>  <inchikey>  (1307) 
SXPPCNYEHMPCGL-UHFFFAOYSA-N

>  <exports>  (1307) 
['/opt/xchem-fragalysis-2/maxwin/BulkDock/OUTPUTS/openbind_a71ev2a_c2_elabs_1LOUU54.sdf', '/opt/xchem-fragalysis-2/maxwin/BulkDock/OUTPUTS/openbind_a71ev2a_c2_elabs_1LSYIDY.sdf']

>  <name>  (1307) 
P577215

>  <ref_pdb>  (1307) 
A3066a

>  <subsites>  (1307) 
None

>  <HIPPO Pose ID>  (1307) 
577215

>  <ref_mols>  (1307) 
A3066a

>  <HIPPO Compound ID>  (1307) 
350718

>  <tags>  (1307) 
openbind_a71ev2a_c2_elabs,syndirella_product,openbind_a71ev2a_c2_elabs_fragonly_scored_top80percent,BulkDock Fragalysis export,openbind_a71ev2a_c2_elabs_scored,openbind_a71ev2a_c2_elabs_scored_top80percent,openbind_a71ev2a_c2_elabs_activefrags_only_scored_5.2plus,openbind_a71ev2a_c2_elabs_activefrags_only_scored_5.5plus,syndirella_placed

>  <smina_score_min>  (1307) 
-5.649

$$$$
P577216
     RDKit          3D

 19 20  0  0  0  0  0  0  0  0999 V2000
   10.7899    8.3037   22.8949 C   0  0  0  0  0  0  0  0  0  0  0  0
    9.8141    8.1343   23.7695 C   0  0  0  0  0  0  0  0  0  0  0  0
    8.5474    8.8665   23.7493 C   0  0  0  0  0  0  0  0  0  0  0  0
    8.6513   10.2763   24.0715 N   0  0  0  0  0  0  0  0  0  0  0  0
    9.4491   11.1852   23.4365 C   0  0  0  0  0  0  0  0  0  0  0  0
    9.2967   12.4006   24.0630 C   0  0  0  0  0  0  0  0  0  0  0  0
   10.0669   13.5859   23.7573 C   0  0  0  0  0  0  0  0  0  0  0  0
   10.5693   14.1971   24.6108 O   0  0  0  0  0  0  0  0  0  0  0  0
   10.0619   13.8142   22.2394 N   0  0  0  0  0  0  0  0  0  0  0  0
   10.7527   14.7899   21.4383 C   0  0  2  0  0  0  0  0  0  0  0  0
   10.1083   14.9769   20.0787 C   0  0  0  0  0  0  0  0  0  0  0  0
   12.2234   14.4083   21.3098 C   0  0  0  0  0  0  0  0  0  0  0  0
   12.9153   14.5082   22.6454 C   0  0  0  0  0  0  0  0  0  0  0  0
    8.2961   12.2429   25.0558 C   0  0  0  0  0  0  0  0  0  0  0  0
    7.6840   13.1269   25.9639 C   0  0  0  0  0  0  0  0  0  0  0  0
    6.6980   12.6500   26.8289 C   0  0  0  0  0  0  0  0  0  0  0  0
    6.3157   11.3149   26.7967 C   0  0  0  0  0  0  0  0  0  0  0  0
    6.8994   10.4219   25.8986 C   0  0  0  0  0  0  0  0  0  0  0  0
    7.8961   10.9064   25.0386 C   0  0  0  0  0  0  0  0  0  0  0  0
  1  2  2  0
  2  3  1  0
  3  4  1  0
  4  5  1  0
  5  6  2  0
  6  7  1  0
  7  8  2  0
  7  9  1  0
  9 10  1  0
 10 11  1  6
 10 12  1  0
 12 13  1  0
  6 14  1  0
 14 15  2  0
 15 16  1  0
 16 17  2  0
 17 18  1  0
 18 19  2  0
 19  4  1  0
 19 14  1  0
M  END
>  <alias>  (1308) 
None

>  <rmsd(smina/fragmenstein)>  (1308) 
0.443

>  <smiles>  (1308) 
C=CCn1cc(C(=O)N[C@H](C)CC)c2ccccc21

>  <gnina_score>  (1308) 
5.465

>  <inspiration_score>  (1308) 
None

>  <energy_score>  (1308) 
-1.479847

>  <distance_score>  (1308) 
1.072389

>  <gnina_score_min>  (1308) 
5.445

>  <inchikey>  (1308) 
GSEADSBXAVMADP-GFCCVEGCSA-N

>  <exports>  (1308) 
['/opt/xchem-fragalysis-2/maxwin/BulkDock/OUTPUTS/openbind_a71ev2a_c2_elabs_1LOUU54.sdf', '/opt/xchem-fragalysis-2/maxwin/BulkDock/OUTPUTS/openbind_a71ev2a_c2_elabs_1LSYIDY.sdf']

>  <name>  (1308) 
P577216

>  <ref_pdb>  (1308) 
A3066a

>  <subsites>  (1308) 
None

>  <HIPPO Pose ID>  (1308) 
577216

>  <ref_mols>  (1308) 
A3066a

>  <HIPPO Compound ID>  (1308) 
350720

>  <tags>  (1308) 
openbind_a71ev2a_c2_elabs,syndirella_product,openbind_a71ev2a_c2_elabs_fragonly_scored_top80percent,openbind_a71ev2a_c2_elabs_scored,BulkDock Fragalysis export,openbind_a71ev2a_c2_elabs_scored_top80percent,openbind_a71ev2a_c2_elabs_activefrags_only_scored_5.2plus,syndirella_placed

>  <smina_score_min>  (1308) 
-5.551

$$$$
P577217
     RDKit          3D

 19 21  0  0  0  0  0  0  0  0999 V2000
    8.9194    7.8051   22.0737 C   0  0  0  0  0  0  0  0  0  0  0  0
    9.9047    8.4237   22.6939 C   0  0  0  0  0  0  0  0  0  0  0  0
    9.6906    8.8950   24.0516 C   0  0  0  0  0  0  0  0  0  0  0  0
    9.1950   10.2520   24.0933 N   0  0  0  0  0  0  0  0  0  0  0  0
    9.8437   11.2899   23.4953 C   0  0  0  0  0  0  0  0  0  0  0  0
    9.4296   12.4373   24.1266 C   0  0  0  0  0  0  0  0  0  0  0  0
   10.0684   13.6989   23.9071 C   0  0  0  0  0  0  0  0  0  0  0  0
   10.6504   14.2463   24.7535 O   0  0  0  0  0  0  0  0  0  0  0  0
    9.9070   14.0499   22.4242 N   0  0  0  0  0  0  0  0  0  0  0  0
   10.5112   15.1101   21.6326 C   0  0  0  0  0  0  0  0  0  0  0  0
   10.8816   14.6937   20.1924 C   0  0  0  0  0  0  0  0  0  0  0  0
   12.5388   14.2134   20.7344 S   0  0  0  0  0  0  0  0  0  0  0  0
   11.9914   15.3511   22.0221 C   0  0  0  0  0  0  0  0  0  0  0  0
    8.3614   12.1081   24.9892 C   0  0  0  0  0  0  0  0  0  0  0  0
    7.5264   12.8571   25.8375 C   0  0  0  0  0  0  0  0  0  0  0  0
    6.5442   12.2002   26.5804 C   0  0  0  0  0  0  0  0  0  0  0  0
    6.3814   10.8234   26.4746 C   0  0  0  0  0  0  0  0  0  0  0  0
    7.1908   10.0659   25.6276 C   0  0  0  0  0  0  0  0  0  0  0  0
    8.1925   10.7250   24.9095 C   0  0  0  0  0  0  0  0  0  0  0  0
  1  2  2  0
  2  3  1  0
  3  4  1  0
  4  5  1  0
  5  6  2  0
  6  7  1  0
  7  8  2  0
  7  9  1  0
  9 10  1  0
 10 11  1  0
 11 12  1  0
 12 13  1  0
  6 14  1  0
 14 15  2  0
 15 16  1  0
 16 17  2  0
 17 18  1  0
 18 19  2  0
 19  4  1  0
 13 10  1  0
 19 14  1  0
M  END
>  <alias>  (1309) 
None

>  <rmsd(smina/fragmenstein)>  (1309) 
1.206

>  <smiles>  (1309) 
C=CCn1cc(C(=O)NC2CSC2)c2ccccc21

>  <gnina_score>  (1309) 
5.39

>  <inspiration_score>  (1309) 
None

>  <energy_score>  (1309) 
-13.915247

>  <distance_score>  (1309) 
1.002676

>  <gnina_score_min>  (1309) 
5.394

>  <inchikey>  (1309) 
LTFSDSUOXOOQCA-UHFFFAOYSA-N

>  <exports>  (1309) 
['/opt/xchem-fragalysis-2/maxwin/BulkDock/OUTPUTS/openbind_a71ev2a_c2_elabs_1LOUU54.sdf', '/opt/xchem-fragalysis-2/maxwin/BulkDock/OUTPUTS/openbind_a71ev2a_c2_elabs_1LSYIDY.sdf']

>  <name>  (1309) 
P577217

>  <ref_pdb>  (1309) 
A3066a

>  <subsites>  (1309) 
None

>  <HIPPO Pose ID>  (1309) 
577217

>  <ref_mols>  (1309) 
A3066a

>  <HIPPO Compound ID>  (1309) 
350722

>  <tags>  (1309) 
openbind_a71ev2a_c2_elabs,syndirella_product,openbind_a71ev2a_c2_elabs_fragonly_scored_top80percent,openbind_a71ev2a_c2_elabs_scored,BulkDock Fragalysis export,openbind_a71ev2a_c2_elabs_scored_top80percent,openbind_a71ev2a_c2_elabs_activefrags_only_scored_5.2plus,syndirella_placed

>  <smina_score_min>  (1309) 
-5.0

$$$$
P577218
     RDKit          3D

 19 20  0  0  0  0  0  0  0  0999 V2000
   10.9254    7.9262   23.3187 C   0  0  0  0  0  0  0  0  0  0  0  0
    9.8976    8.6276   22.8642 C   0  0  0  0  0  0  0  0  0  0  0  0
    8.6458    8.7796   23.6369 C   0  0  0  0  0  0  0  0  0  0  0  0
    8.4604   10.1208   24.1572 N   0  0  0  0  0  0  0  0  0  0  0  0
    9.1490   11.2068   23.7196 C   0  0  0  0  0  0  0  0  0  0  0  0
    9.0330   12.1898   24.6789 C   0  0  0  0  0  0  0  0  0  0  0  0
    9.8029   13.4100   24.7280 C   0  0  0  0  0  0  0  0  0  0  0  0
    9.4098   14.3548   25.2739 O   0  0  0  0  0  0  0  0  0  0  0  0
   11.0574   13.2037   23.8891 N   0  0  0  0  0  0  0  0  0  0  0  0
   12.0387   14.1237   23.4657 C   0  0  0  0  0  0  0  0  0  0  0  0
   11.9679   14.1336   21.9418 C   0  0  2  0  0  0  0  0  0  0  0  0
   13.0371   15.0198   21.4045 C   0  0  0  0  0  0  0  0  0  0  0  0
   10.3358   14.6923   21.2972 S   0  0  0  0  0  0  0  0  0  0  0  0
    7.9621   11.8149   25.5141 C   0  0  0  0  0  0  0  0  0  0  0  0
    7.2698   12.4719   26.5479 C   0  0  0  0  0  0  0  0  0  0  0  0
    6.2863   11.7864   27.2523 C   0  0  0  0  0  0  0  0  0  0  0  0
    5.9836   10.4723   26.9249 C   0  0  0  0  0  0  0  0  0  0  0  0
    6.6264    9.8235   25.8697 C   0  0  0  0  0  0  0  0  0  0  0  0
    7.6322   10.5005   25.1859 C   0  0  0  0  0  0  0  0  0  0  0  0
  1  2  2  0
  2  3  1  0
  3  4  1  0
  4  5  1  0
  5  6  2  0
  6  7  1  0
  7  8  2  0
  7  9  1  0
  9 10  1  0
 10 11  1  0
 11 12  1  6
 11 13  1  0
  6 14  1  0
 14 15  2  0
 15 16  1  0
 16 17  2  0
 17 18  1  0
 18 19  2  0
 19  4  1  0
 19 14  1  0
M  END
>  <alias>  (1310) 
None

>  <rmsd(smina/fragmenstein)>  (1310) 
0.483

>  <smiles>  (1310) 
C=CCn1cc(C(=O)NC[C@H](C)S)c2ccccc21

>  <gnina_score>  (1310) 
5.53

>  <inspiration_score>  (1310) 
None

>  <energy_score>  (1310) 
-1.179176

>  <distance_score>  (1310) 
1.394518

>  <gnina_score_min>  (1310) 
5.458

>  <inchikey>  (1310) 
RRGFHWOPHDRITA-NSHDSACASA-N

>  <exports>  (1310) 
['/opt/xchem-fragalysis-2/maxwin/BulkDock/OUTPUTS/openbind_a71ev2a_c2_elabs_1LOUU54.sdf', '/opt/xchem-fragalysis-2/maxwin/BulkDock/OUTPUTS/openbind_a71ev2a_c2_elabs_1LSYIDY.sdf']

>  <name>  (1310) 
P577218

>  <ref_pdb>  (1310) 
A3066a

>  <subsites>  (1310) 
None

>  <HIPPO Pose ID>  (1310) 
577218

>  <ref_mols>  (1310) 
A3066a

>  <HIPPO Compound ID>  (1310) 
350728

>  <tags>  (1310) 
openbind_a71ev2a_c2_elabs,syndirella_product,openbind_a71ev2a_c2_elabs_fragonly_scored_top80percent,openbind_a71ev2a_c2_elabs_scored,BulkDock Fragalysis export,openbind_a71ev2a_c2_elabs_scored_top80percent,openbind_a71ev2a_c2_elabs_activefrags_only_scored_5.2plus,syndirella_placed

>  <smina_score_min>  (1310) 
-5.226

$$$$
P577219
     RDKit          3D

 19 20  0  0  0  0  0  0  0  0999 V2000
   10.9873    8.1381   23.3334 C   0  0  0  0  0  0  0  0  0  0  0  0
    9.7457    8.3221   22.9030 C   0  0  0  0  0  0  0  0  0  0  0  0
    8.6276    8.6694   23.7921 C   0  0  0  0  0  0  0  0  0  0  0  0
    8.5296   10.0529   24.1917 N   0  0  0  0  0  0  0  0  0  0  0  0
    9.2805   11.0519   23.6766 C   0  0  0  0  0  0  0  0  0  0  0  0
    8.8602   12.2292   24.2517 C   0  0  0  0  0  0  0  0  0  0  0  0
    9.4831   13.4890   23.9946 C   0  0  0  0  0  0  0  0  0  0  0  0
    9.6191   14.2746   24.8380 O   0  0  0  0  0  0  0  0  0  0  0  0
    9.9654   13.4974   22.5462 N   0  0  0  0  0  0  0  0  0  0  0  0
   10.7861   14.4139   21.8599 C   0  0  0  0  0  0  0  0  0  0  0  0
   12.2211   13.9076   21.9750 C   0  0  1  0  0  0  0  0  0  0  0  0
   13.1494   14.9823   21.5210 C   0  0  0  0  0  0  0  0  0  0  0  0
   12.7005   13.3398   23.8019 Br  0  0  0  0  0  0  0  0  0  0  0  0
    7.8908   11.9239   25.2213 C   0  0  0  0  0  0  0  0  0  0  0  0
    7.1850   12.6954   26.1609 C   0  0  0  0  0  0  0  0  0  0  0  0
    6.2769   12.0681   27.0085 C   0  0  0  0  0  0  0  0  0  0  0  0
    6.0455   10.7034   26.8977 C   0  0  0  0  0  0  0  0  0  0  0  0
    6.7080    9.9347   25.9401 C   0  0  0  0  0  0  0  0  0  0  0  0
    7.6669   10.5527   25.1403 C   0  0  0  0  0  0  0  0  0  0  0  0
  1  2  2  0
  2  3  1  0
  3  4  1  0
  4  5  1  0
  5  6  2  0
  6  7  1  0
  7  8  2  0
  7  9  1  0
  9 10  1  0
 10 11  1  0
 11 12  1  1
 11 13  1  0
  6 14  1  0
 14 15  2  0
 15 16  1  0
 16 17  2  0
 17 18  1  0
 18 19  2  0
 19  4  1  0
 19 14  1  0
M  END
>  <alias>  (1311) 
None

>  <rmsd(smina/fragmenstein)>  (1311) 
0.451

>  <smiles>  (1311) 
C=CCn1cc(C(=O)NC[C@@H](C)Br)c2ccccc21

>  <gnina_score>  (1311) 
5.465

>  <inspiration_score>  (1311) 
None

>  <energy_score>  (1311) 
-1.481098

>  <distance_score>  (1311) 
1.297224

>  <gnina_score_min>  (1311) 
5.427

>  <inchikey>  (1311) 
CEFABNFOJRHWNY-LLVKDONJSA-N

>  <exports>  (1311) 
['/opt/xchem-fragalysis-2/maxwin/BulkDock/OUTPUTS/openbind_a71ev2a_c2_elabs_1LOUU54.sdf', '/opt/xchem-fragalysis-2/maxwin/BulkDock/OUTPUTS/openbind_a71ev2a_c2_elabs_1LSYIDY.sdf']

>  <name>  (1311) 
P577219

>  <ref_pdb>  (1311) 
A3066a

>  <subsites>  (1311) 
None

>  <HIPPO Pose ID>  (1311) 
577219

>  <ref_mols>  (1311) 
A3066a

>  <HIPPO Compound ID>  (1311) 
350730

>  <tags>  (1311) 
openbind_a71ev2a_c2_elabs,syndirella_product,openbind_a71ev2a_c2_elabs_fragonly_scored_top80percent,openbind_a71ev2a_c2_elabs_scored,BulkDock Fragalysis export,openbind_a71ev2a_c2_elabs_scored_top80percent,openbind_a71ev2a_c2_elabs_activefrags_only_scored_5.2plus,syndirella_placed

>  <smina_score_min>  (1311) 
-4.813

$$$$
P577220
     RDKit          3D

 19 20  0  0  0  0  0  0  0  0999 V2000
   11.0285    7.8330   23.4780 C   0  0  0  0  0  0  0  0  0  0  0  0
    9.7797    8.1072   23.8136 C   0  0  0  0  0  0  0  0  0  0  0  0
    8.9788    9.0180   23.0111 C   0  0  0  0  0  0  0  0  0  0  0  0
    9.0773   10.3512   23.5608 N   0  0  0  0  0  0  0  0  0  0  0  0
    9.9791   11.2645   23.1032 C   0  0  0  0  0  0  0  0  0  0  0  0
    9.8021   12.4389   23.7950 C   0  0  0  0  0  0  0  0  0  0  0  0
   10.5592   13.6571   23.5490 C   0  0  0  0  0  0  0  0  0  0  0  0
   10.9345   14.3208   24.4281 O   0  0  0  0  0  0  0  0  0  0  0  0
   10.6320   13.8796   22.0343 N   0  0  0  0  0  0  0  0  0  0  0  0
   11.0930   15.0005   21.2835 C   0  0  0  0  0  0  0  0  0  0  0  0
    9.8754   15.6194   20.6508 C   0  0  0  0  0  0  0  0  0  0  0  0
    9.7579   15.9103   19.3515 C   0  0  0  0  0  0  0  0  0  0  0  0
    8.7895   15.8558   21.4241 F   0  0  0  0  0  0  0  0  0  0  0  0
    8.7300   12.2161   24.7147 C   0  0  0  0  0  0  0  0  0  0  0  0
    8.0439   13.0332   25.6353 C   0  0  0  0  0  0  0  0  0  0  0  0
    7.0198   12.4875   26.4174 C   0  0  0  0  0  0  0  0  0  0  0  0
    6.6744   11.1454   26.2986 C   0  0  0  0  0  0  0  0  0  0  0  0
    7.3194   10.3195   25.3776 C   0  0  0  0  0  0  0  0  0  0  0  0
    8.3261   10.8835   24.5805 C   0  0  0  0  0  0  0  0  0  0  0  0
  1  2  2  0
  2  3  1  0
  3  4  1  0
  4  5  1  0
  5  6  2  0
  6  7  1  0
  7  8  2  0
  7  9  1  0
  9 10  1  0
 10 11  1  0
 11 12  2  0
 11 13  1  0
  6 14  1  0
 14 15  2  0
 15 16  1  0
 16 17  2  0
 17 18  1  0
 18 19  2  0
 19  4  1  0
 19 14  1  0
M  END
>  <alias>  (1312) 
None

>  <rmsd(smina/fragmenstein)>  (1312) 
0.86

>  <smiles>  (1312) 
C=CCn1cc(C(=O)NCC(=C)F)c2ccccc21

>  <gnina_score>  (1312) 
5.384

>  <inspiration_score>  (1312) 
None

>  <energy_score>  (1312) 
-6.936948

>  <distance_score>  (1312) 
0.671208

>  <gnina_score_min>  (1312) 
5.25

>  <inchikey>  (1312) 
NAOJKORBVGLFKH-UHFFFAOYSA-N

>  <exports>  (1312) 
['/opt/xchem-fragalysis-2/maxwin/BulkDock/OUTPUTS/openbind_a71ev2a_c2_elabs_1LOUU54.sdf', '/opt/xchem-fragalysis-2/maxwin/BulkDock/OUTPUTS/openbind_a71ev2a_c2_elabs_1LSYIDY.sdf']

>  <name>  (1312) 
P577220

>  <ref_pdb>  (1312) 
A3066a

>  <subsites>  (1312) 
None

>  <HIPPO Pose ID>  (1312) 
577220

>  <ref_mols>  (1312) 
A3066a

>  <HIPPO Compound ID>  (1312) 
350731

>  <tags>  (1312) 
openbind_a71ev2a_c2_elabs,syndirella_product,openbind_a71ev2a_c2_elabs_fragonly_scored_top80percent,openbind_a71ev2a_c2_elabs_scored,BulkDock Fragalysis export,openbind_a71ev2a_c2_elabs_scored_top80percent,openbind_a71ev2a_c2_elabs_activefrags_only_scored_5.2plus,syndirella_placed

>  <smina_score_min>  (1312) 
-6.178

$$$$
P577224
     RDKit          3D

 19 20  0  0  0  0  0  0  0  0999 V2000
    8.8819    7.8164   22.1363 C   0  0  0  0  0  0  0  0  0  0  0  0
    9.9003    8.4073   22.7293 C   0  0  0  0  0  0  0  0  0  0  0  0
    9.7018    8.9453   24.0650 C   0  0  0  0  0  0  0  0  0  0  0  0
    9.2926   10.3320   24.0622 N   0  0  0  0  0  0  0  0  0  0  0  0
   10.0222   11.3099   23.4581 C   0  0  0  0  0  0  0  0  0  0  0  0
    9.7205   12.5007   24.0792 C   0  0  0  0  0  0  0  0  0  0  0  0
   10.4916   13.7034   23.8505 C   0  0  0  0  0  0  0  0  0  0  0  0
   10.9971   14.2922   24.7167 O   0  0  0  0  0  0  0  0  0  0  0  0
   10.5564   13.9140   22.3394 N   0  0  0  0  0  0  0  0  0  0  0  0
   11.3319   14.8355   21.5577 C   0  0  1  0  0  0  0  0  0  0  0  0
   12.7098   14.2499   21.3448 C   0  0  0  0  0  0  0  0  0  0  0  0
   10.6023   15.1068   20.2424 C   0  0  0  0  0  0  0  0  0  0  0  0
    9.3168   16.3732   20.4747 S   0  0  0  0  0  0  0  0  0  0  0  0
    8.5971   12.2630   24.9150 C   0  0  0  0  0  0  0  0  0  0  0  0
    7.7882   13.0834   25.7228 C   0  0  0  0  0  0  0  0  0  0  0  0
    6.7468   12.5098   26.4581 C   0  0  0  0  0  0  0  0  0  0  0  0
    6.5008   11.1422   26.3943 C   0  0  0  0  0  0  0  0  0  0  0  0
    7.2769   10.3094   25.5886 C   0  0  0  0  0  0  0  0  0  0  0  0
    8.3248   10.8908   24.8635 C   0  0  0  0  0  0  0  0  0  0  0  0
  1  2  2  0
  2  3  1  0
  3  4  1  0
  4  5  1  0
  5  6  2  0
  6  7  1  0
  7  8  2  0
  7  9  1  0
  9 10  1  0
 10 11  1  6
 10 12  1  0
 12 13  1  0
  6 14  1  0
 14 15  2  0
 15 16  1  0
 16 17  2  0
 17 18  1  0
 18 19  2  0
 19  4  1  0
 19 14  1  0
M  END
>  <alias>  (1313) 
None

>  <rmsd(smina/fragmenstein)>  (1313) 
0.857

>  <smiles>  (1313) 
C=CCn1cc(C(=O)N[C@@H](C)CS)c2ccccc21

>  <gnina_score>  (1313) 
5.685

>  <inspiration_score>  (1313) 
None

>  <energy_score>  (1313) 
-2.392788

>  <distance_score>  (1313) 
0.756718

>  <gnina_score_min>  (1313) 
5.642

>  <inchikey>  (1313) 
BDMMEFNKXANZJO-NSHDSACASA-N

>  <exports>  (1313) 
['/opt/xchem-fragalysis-2/maxwin/BulkDock/OUTPUTS/openbind_a71ev2a_c2_elabs_1LOUU54.sdf', '/opt/xchem-fragalysis-2/maxwin/BulkDock/OUTPUTS/openbind_a71ev2a_c2_elabs_1LSYIDY.sdf']

>  <name>  (1313) 
P577224

>  <ref_pdb>  (1313) 
A3066a

>  <subsites>  (1313) 
None

>  <HIPPO Pose ID>  (1313) 
577224

>  <ref_mols>  (1313) 
A3066a

>  <HIPPO Compound ID>  (1313) 
350758

>  <tags>  (1313) 
openbind_a71ev2a_c2_elabs,syndirella_product,openbind_a71ev2a_c2_elabs_fragonly_scored_top80percent,BulkDock Fragalysis export,openbind_a71ev2a_c2_elabs_scored,openbind_a71ev2a_c2_elabs_scored_top80percent,openbind_a71ev2a_c2_elabs_activefrags_only_scored_5.2plus,openbind_a71ev2a_c2_elabs_activefrags_only_scored_5.5plus,syndirella_placed

>  <smina_score_min>  (1313) 
-6.001

$$$$
P577226
     RDKit          3D

 19 20  0  0  0  0  0  0  0  0999 V2000
    9.2639    7.9991   22.4824 C   0  0  0  0  0  0  0  0  0  0  0  0
    9.6043    8.2617   23.9100 C   0  0  0  0  0  0  0  0  0  0  0  0
    8.4650    9.0370   24.5195 C   0  0  0  0  0  0  0  0  0  0  0  0
    8.5211   10.4610   24.3699 N   0  0  0  0  0  0  0  0  0  0  0  0
    9.4335   11.1247   23.6341 C   0  0  0  0  0  0  0  0  0  0  0  0
    9.5095   12.4105   24.1277 C   0  0  0  0  0  0  0  0  0  0  0  0
   10.6578   13.2532   23.8545 C   0  0  0  0  0  0  0  0  0  0  0  0
   11.0513   14.0231   24.6357 O   0  0  0  0  0  0  0  0  0  0  0  0
   11.2241   12.8440   22.4864 N   0  0  0  0  0  0  0  0  0  0  0  0
   12.4240   13.2174   21.8402 C   0  0  0  0  0  0  0  0  0  0  0  0
   12.2530   14.3603   20.8758 C   0  0  0  0  0  0  0  0  0  0  0  0
   12.7980   15.5434   21.5038 N   0  0  0  0  0  0  0  0  0  0  0  0
   12.0618   15.7108   22.7300 O   0  0  0  0  0  0  0  0  0  0  0  0
    8.4193   12.5719   25.0274 C   0  0  0  0  0  0  0  0  0  0  0  0
    7.9272   13.6296   25.8095 C   0  0  0  0  0  0  0  0  0  0  0  0
    6.8451   13.4022   26.6681 C   0  0  0  0  0  0  0  0  0  0  0  0
    6.2624   12.1428   26.7729 C   0  0  0  0  0  0  0  0  0  0  0  0
    6.7364   11.0748   26.0200 C   0  0  0  0  0  0  0  0  0  0  0  0
    7.8088   11.3238   25.1558 C   0  0  0  0  0  0  0  0  0  0  0  0
  1  2  1  0
  2  3  1  0
  3  4  1  0
  4  5  1  0
  5  6  2  0
  6  7  1  0
  7  8  2  0
  7  9  1  0
  9 10  1  0
 10 11  1  0
 11 12  1  0
 12 13  1  0
  6 14  1  0
 14 15  2  0
 15 16  1  0
 16 17  2  0
 17 18  1  0
 18 19  2  0
 19  4  1  0
 19 14  1  0
M  END
>  <alias>  (1314) 
None

>  <rmsd(smina/fragmenstein)>  (1314) 
0.48

>  <smiles>  (1314) 
CCCn1cc(C(=O)NCCNO)c2ccccc21

>  <gnina_score>  (1314) 
5.166

>  <inspiration_score>  (1314) 
None

>  <energy_score>  (1314) 
-15.182993

>  <distance_score>  (1314) 
1.197206

>  <gnina_score_min>  (1314) 
5.288

>  <inchikey>  (1314) 
CLMVAIVVXYTLIC-UHFFFAOYSA-N

>  <exports>  (1314) 
['/opt/xchem-fragalysis-2/maxwin/BulkDock/OUTPUTS/openbind_a71ev2a_c2_elabs_1LOUU54.sdf', '/opt/xchem-fragalysis-2/maxwin/BulkDock/OUTPUTS/openbind_a71ev2a_c2_elabs_1LSYIDY.sdf']

>  <name>  (1314) 
P577226

>  <ref_pdb>  (1314) 
A3066a

>  <subsites>  (1314) 
None

>  <HIPPO Pose ID>  (1314) 
577226

>  <ref_mols>  (1314) 
A3066a

>  <HIPPO Compound ID>  (1314) 
350771

>  <tags>  (1314) 
openbind_a71ev2a_c2_elabs,syndirella_product,openbind_a71ev2a_c2_elabs_fragonly_scored_top80percent,openbind_a71ev2a_c2_elabs_scored,BulkDock Fragalysis export,openbind_a71ev2a_c2_elabs_scored_top80percent,openbind_a71ev2a_c2_elabs_activefrags_only_scored_5.2plus,syndirella_placed

>  <smina_score_min>  (1314) 
-4.004

$$$$
P577227
     RDKit          3D

 19 20  0  0  0  0  0  0  0  0999 V2000
   11.2095    8.0798   23.5936 C   0  0  0  0  0  0  0  0  0  0  0  0
    9.7678    7.7649   23.5919 C   0  0  0  0  0  0  0  0  0  0  0  0
    8.9587    8.8236   22.9466 C   0  0  0  0  0  0  0  0  0  0  0  0
    9.0472   10.1071   23.5901 N   0  0  0  0  0  0  0  0  0  0  0  0
    9.9204   11.0446   23.1420 C   0  0  0  0  0  0  0  0  0  0  0  0
    9.6935   12.2141   23.8198 C   0  0  0  0  0  0  0  0  0  0  0  0
   10.4314   13.4349   23.5834 C   0  0  0  0  0  0  0  0  0  0  0  0
   10.6255   14.1891   24.4490 O   0  0  0  0  0  0  0  0  0  0  0  0
   10.8009   13.5116   22.0927 N   0  0  0  0  0  0  0  0  0  0  0  0
   11.3996   14.5673   21.3374 C   0  0  2  0  0  0  0  0  0  0  0  0
   12.6412   15.0154   22.0730 C   0  0  0  0  0  0  0  0  0  0  0  0
   10.3650   15.6797   21.1498 C   0  0  0  0  0  0  0  0  0  0  0  0
    9.6346   15.6938   19.5030 S   0  0  0  0  0  0  0  0  0  0  0  0
    8.6315   11.9631   24.7363 C   0  0  0  0  0  0  0  0  0  0  0  0
    7.9218   12.7646   25.6533 C   0  0  0  0  0  0  0  0  0  0  0  0
    6.9093   12.1953   26.4301 C   0  0  0  0  0  0  0  0  0  0  0  0
    6.5987   10.8461   26.3042 C   0  0  0  0  0  0  0  0  0  0  0  0
    7.2704   10.0376   25.3854 C   0  0  0  0  0  0  0  0  0  0  0  0
    8.2736   10.6170   24.6009 C   0  0  0  0  0  0  0  0  0  0  0  0
  1  2  1  0
  2  3  1  0
  3  4  1  0
  4  5  1  0
  5  6  2  0
  6  7  1  0
  7  8  2  0
  7  9  1  0
  9 10  1  0
 10 11  1  1
 10 12  1  0
 12 13  1  0
  6 14  1  0
 14 15  2  0
 15 16  1  0
 16 17  2  0
 17 18  1  0
 18 19  2  0
 19  4  1  0
 19 14  1  0
M  END
>  <alias>  (1315) 
None

>  <rmsd(smina/fragmenstein)>  (1315) 
0.851

>  <smiles>  (1315) 
CCCn1cc(C(=O)N[C@H](C)CS)c2ccccc21

>  <gnina_score>  (1315) 
5.793

>  <inspiration_score>  (1315) 
None

>  <energy_score>  (1315) 
-17.667241

>  <distance_score>  (1315) 
0.547146

>  <gnina_score_min>  (1315) 
5.646

>  <inchikey>  (1315) 
MAEDRVWNUCXTNZ-LLVKDONJSA-N

>  <exports>  (1315) 
['/opt/xchem-fragalysis-2/maxwin/BulkDock/OUTPUTS/openbind_a71ev2a_c2_elabs_1LOUU54.sdf', '/opt/xchem-fragalysis-2/maxwin/BulkDock/OUTPUTS/openbind_a71ev2a_c2_elabs_1LSYIDY.sdf']

>  <name>  (1315) 
P577227

>  <ref_pdb>  (1315) 
A3066a

>  <subsites>  (1315) 
None

>  <HIPPO Pose ID>  (1315) 
577227

>  <ref_mols>  (1315) 
A3066a

>  <HIPPO Compound ID>  (1315) 
350772

>  <tags>  (1315) 
openbind_a71ev2a_c2_elabs,syndirella_product,openbind_a71ev2a_c2_elabs_fragonly_scored_top80percent,BulkDock Fragalysis export,openbind_a71ev2a_c2_elabs_scored,openbind_a71ev2a_c2_elabs_scored_top80percent,openbind_a71ev2a_c2_elabs_activefrags_only_scored_5.2plus,openbind_a71ev2a_c2_elabs_activefrags_only_scored_5.5plus,syndirella_placed

>  <smina_score_min>  (1315) 
-4.901

$$$$
P577230
     RDKit          3D

 19 20  0  0  0  0  0  0  0  0999 V2000
   11.0212    8.0691   23.3592 C   0  0  0  0  0  0  0  0  0  0  0  0
    9.7789    8.2050   22.9115 C   0  0  0  0  0  0  0  0  0  0  0  0
    8.7203    8.7980   23.7259 C   0  0  0  0  0  0  0  0  0  0  0  0
    8.8546   10.2216   23.9378 N   0  0  0  0  0  0  0  0  0  0  0  0
    9.7055   11.0678   23.2844 C   0  0  0  0  0  0  0  0  0  0  0  0
    9.5822   12.3122   23.8519 C   0  0  0  0  0  0  0  0  0  0  0  0
   10.3623   13.4935   23.5303 C   0  0  0  0  0  0  0  0  0  0  0  0
   10.5973   14.2465   24.3878 O   0  0  0  0  0  0  0  0  0  0  0  0
   10.6607   13.5741   22.0214 N   0  0  0  0  0  0  0  0  0  0  0  0
   11.2291   14.6460   21.2310 C   0  0  0  0  0  0  0  0  0  0  0  0
   11.7414   14.2264   19.8552 C   0  0  0  0  0  0  0  0  0  0  0  0
   10.0797   15.6422   21.0126 C   0  0  0  0  0  0  0  0  0  0  0  0
   12.4169   15.1723   22.0250 C   0  0  0  0  0  0  0  0  0  0  0  0
    8.5345   12.2253   24.8257 C   0  0  0  0  0  0  0  0  0  0  0  0
    7.9049   13.1566   25.6758 C   0  0  0  0  0  0  0  0  0  0  0  0
    6.8860   12.7328   26.5350 C   0  0  0  0  0  0  0  0  0  0  0  0
    6.4851   11.4021   26.5580 C   0  0  0  0  0  0  0  0  0  0  0  0
    7.0797   10.4629   25.7174 C   0  0  0  0  0  0  0  0  0  0  0  0
    8.1002   10.9036   24.8619 C   0  0  0  0  0  0  0  0  0  0  0  0
  1  2  2  0
  2  3  1  0
  3  4  1  0
  4  5  1  0
  5  6  2  0
  6  7  1  0
  7  8  2  0
  7  9  1  0
  9 10  1  0
 10 11  1  0
 10 12  1  0
 10 13  1  0
  6 14  1  0
 14 15  2  0
 15 16  1  0
 16 17  2  0
 17 18  1  0
 18 19  2  0
 19  4  1  0
 19 14  1  0
M  END
>  <alias>  (1316) 
None

>  <rmsd(smina/fragmenstein)>  (1316) 
0.598

>  <smiles>  (1316) 
C=CCn1cc(C(=O)NC(C)(C)C)c2ccccc21

>  <gnina_score>  (1316) 
5.533

>  <inspiration_score>  (1316) 
None

>  <energy_score>  (1316) 
-15.560529

>  <distance_score>  (1316) 
0.804386

>  <gnina_score_min>  (1316) 
5.443

>  <inchikey>  (1316) 
MGHRAQWKABKPCY-UHFFFAOYSA-N

>  <exports>  (1316) 
['/opt/xchem-fragalysis-2/maxwin/BulkDock/OUTPUTS/openbind_a71ev2a_c2_elabs_1LOUU54.sdf', '/opt/xchem-fragalysis-2/maxwin/BulkDock/OUTPUTS/openbind_a71ev2a_c2_elabs_1LSYIDY.sdf']

>  <name>  (1316) 
P577230

>  <ref_pdb>  (1316) 
A3066a

>  <subsites>  (1316) 
None

>  <HIPPO Pose ID>  (1316) 
577230

>  <ref_mols>  (1316) 
A3066a

>  <HIPPO Compound ID>  (1316) 
350804

>  <tags>  (1316) 
openbind_a71ev2a_c2_elabs,syndirella_product,openbind_a71ev2a_c2_elabs_fragonly_scored_top80percent,openbind_a71ev2a_c2_elabs_scored,BulkDock Fragalysis export,openbind_a71ev2a_c2_elabs_scored_top80percent,openbind_a71ev2a_c2_elabs_activefrags_only_scored_5.2plus,syndirella_placed

>  <smina_score_min>  (1316) 
-5.931

$$$$
P577231
     RDKit          3D

 19 21  0  0  0  0  0  0  0  0999 V2000
   10.9779    8.0014   23.3961 C   0  0  0  0  0  0  0  0  0  0  0  0
    9.7150    8.3640   22.6783 C   0  0  0  0  0  0  0  0  0  0  0  0
    8.7329    8.8746   23.6862 C   0  0  0  0  0  0  0  0  0  0  0  0
    8.8504   10.2589   24.0684 N   0  0  0  0  0  0  0  0  0  0  0  0
    9.7510   11.1625   23.5926 C   0  0  0  0  0  0  0  0  0  0  0  0
    9.5815   12.3423   24.2855 C   0  0  0  0  0  0  0  0  0  0  0  0
   10.4199   13.5186   24.1472 C   0  0  0  0  0  0  0  0  0  0  0  0
   10.7006   14.1728   25.0679 O   0  0  0  0  0  0  0  0  0  0  0  0
   10.7126   13.7222   22.6580 N   0  0  0  0  0  0  0  0  0  0  0  0
   11.3367   14.8314   21.9633 C   0  0  0  0  0  0  0  0  0  0  0  0
   12.2783   14.3942   20.8283 C   0  0  0  0  0  0  0  0  0  0  0  0
   11.0101   14.7264   19.5816 S   0  0  0  0  0  0  0  0  0  0  0  0
   10.3195   15.5466   21.0313 C   0  0  0  0  0  0  0  0  0  0  0  0
    8.4508   12.1724   25.1308 C   0  0  0  0  0  0  0  0  0  0  0  0
    7.7501   13.0227   26.0074 C   0  0  0  0  0  0  0  0  0  0  0  0
    6.6927   12.5104   26.7621 C   0  0  0  0  0  0  0  0  0  0  0  0
    6.3233   11.1752   26.6477 C   0  0  0  0  0  0  0  0  0  0  0  0
    6.9736   10.3239   25.7555 C   0  0  0  0  0  0  0  0  0  0  0  0
    8.0341   10.8485   25.0061 C   0  0  0  0  0  0  0  0  0  0  0  0
  1  2  1  0
  2  3  1  0
  3  4  1  0
  4  5  1  0
  5  6  2  0
  6  7  1  0
  7  8  2  0
  7  9  1  0
  9 10  1  0
 10 11  1  0
 11 12  1  0
 12 13  1  0
  6 14  1  0
 14 15  2  0
 15 16  1  0
 16 17  2  0
 17 18  1  0
 18 19  2  0
 19  4  1  0
 13 10  1  0
 19 14  1  0
M  END
>  <alias>  (1317) 
None

>  <rmsd(smina/fragmenstein)>  (1317) 
0.535

>  <smiles>  (1317) 
CCCn1cc(C(=O)NC2CSC2)c2ccccc21

>  <gnina_score>  (1317) 
5.443

>  <inspiration_score>  (1317) 
None

>  <energy_score>  (1317) 
-2.989342

>  <distance_score>  (1317) 
0.856589

>  <gnina_score_min>  (1317) 
5.462

>  <inchikey>  (1317) 
BPFKZZIHYIUOIK-UHFFFAOYSA-N

>  <exports>  (1317) 
['/opt/xchem-fragalysis-2/maxwin/BulkDock/OUTPUTS/openbind_a71ev2a_c2_elabs_1LOUU54.sdf', '/opt/xchem-fragalysis-2/maxwin/BulkDock/OUTPUTS/openbind_a71ev2a_c2_elabs_1LSYIDY.sdf']

>  <name>  (1317) 
P577231

>  <ref_pdb>  (1317) 
A3066a

>  <subsites>  (1317) 
None

>  <HIPPO Pose ID>  (1317) 
577231

>  <ref_mols>  (1317) 
A3066a

>  <HIPPO Compound ID>  (1317) 
350807

>  <tags>  (1317) 
openbind_a71ev2a_c2_elabs,syndirella_product,openbind_a71ev2a_c2_elabs_fragonly_scored_top80percent,openbind_a71ev2a_c2_elabs_scored,BulkDock Fragalysis export,openbind_a71ev2a_c2_elabs_scored_top80percent,openbind_a71ev2a_c2_elabs_activefrags_only_scored_5.2plus,syndirella_placed

>  <smina_score_min>  (1317) 
-4.976

$$$$
P577232
     RDKit          3D

 19 20  0  0  0  0  0  0  0  0999 V2000
   10.1388    8.8678   21.9719 C   0  0  0  0  0  0  0  0  0  0  0  0
   10.1844    8.4291   23.4066 C   0  0  0  0  0  0  0  0  0  0  0  0
    8.8527    8.7813   24.0145 C   0  0  0  0  0  0  0  0  0  0  0  0
    8.6763   10.1739   24.3667 N   0  0  0  0  0  0  0  0  0  0  0  0
    9.4050   11.2248   23.8978 C   0  0  0  0  0  0  0  0  0  0  0  0
    8.7638   12.3752   24.2791 C   0  0  0  0  0  0  0  0  0  0  0  0
    9.0693   13.7072   23.8452 C   0  0  0  0  0  0  0  0  0  0  0  0
    8.9046   14.5862   24.5844 O   0  0  0  0  0  0  0  0  0  0  0  0
    9.6213   13.7014   22.4168 N   0  0  0  0  0  0  0  0  0  0  0  0
   10.1752   14.7607   21.6295 C   0  0  0  0  0  0  0  0  0  0  0  0
   11.6929   14.8856   21.8216 C   0  0  1  0  0  0  0  0  0  0  0  0
   12.2593   14.2006   23.0609 C   0  0  0  0  0  0  0  0  0  0  0  0
   12.5296   14.1878   20.3761 S   0  0  0  0  0  0  0  0  0  0  0  0
    7.8134   12.0198   25.2601 C   0  0  0  0  0  0  0  0  0  0  0  0
    6.9852   12.7597   26.1239 C   0  0  0  0  0  0  0  0  0  0  0  0
    6.1098   12.0876   26.9714 C   0  0  0  0  0  0  0  0  0  0  0  0
    6.0037   10.7057   26.9102 C   0  0  0  0  0  0  0  0  0  0  0  0
    6.7696    9.9671   26.0104 C   0  0  0  0  0  0  0  0  0  0  0  0
    7.7207   10.6341   25.2419 C   0  0  0  0  0  0  0  0  0  0  0  0
  1  2  1  0
  2  3  1  0
  3  4  1  0
  4  5  1  0
  5  6  2  0
  6  7  1  0
  7  8  2  0
  7  9  1  0
  9 10  1  0
 10 11  1  0
 11 12  1  1
 11 13  1  0
  6 14  1  0
 14 15  2  0
 15 16  1  0
 16 17  2  0
 17 18  1  0
 18 19  2  0
 19  4  1  0
 19 14  1  0
M  END
>  <alias>  (1318) 
None

>  <rmsd(smina/fragmenstein)>  (1318) 
0.998

>  <smiles>  (1318) 
CCCn1cc(C(=O)NC[C@@H](C)S)c2ccccc21

>  <gnina_score>  (1318) 
5.51

>  <inspiration_score>  (1318) 
None

>  <energy_score>  (1318) 
-1.876184

>  <distance_score>  (1318) 
1.537814

>  <gnina_score_min>  (1318) 
5.277

>  <inchikey>  (1318) 
AIXBABAMVAPHJV-LLVKDONJSA-N

>  <exports>  (1318) 
['/opt/xchem-fragalysis-2/maxwin/BulkDock/OUTPUTS/openbind_a71ev2a_c2_elabs_1LOUU54.sdf', '/opt/xchem-fragalysis-2/maxwin/BulkDock/OUTPUTS/openbind_a71ev2a_c2_elabs_1LSYIDY.sdf']

>  <name>  (1318) 
P577232

>  <ref_pdb>  (1318) 
A3066a

>  <subsites>  (1318) 
None

>  <HIPPO Pose ID>  (1318) 
577232

>  <ref_mols>  (1318) 
A3066a

>  <HIPPO Compound ID>  (1318) 
350818

>  <tags>  (1318) 
openbind_a71ev2a_c2_elabs,syndirella_product,openbind_a71ev2a_c2_elabs_fragonly_scored_top80percent,openbind_a71ev2a_c2_elabs_scored,BulkDock Fragalysis export,openbind_a71ev2a_c2_elabs_scored_top80percent,openbind_a71ev2a_c2_elabs_activefrags_only_scored_5.2plus,syndirella_placed

>  <smina_score_min>  (1318) 
-4.705

$$$$
P577233
     RDKit          3D

 19 21  0  0  0  0  0  0  0  0999 V2000
   10.9849    8.0109   23.3992 C   0  0  0  0  0  0  0  0  0  0  0  0
    9.7485    8.3842   22.6437 C   0  0  0  0  0  0  0  0  0  0  0  0
    8.7428    8.9001   23.6203 C   0  0  0  0  0  0  0  0  0  0  0  0
    8.8478   10.2845   24.0048 N   0  0  0  0  0  0  0  0  0  0  0  0
    9.7099   11.2212   23.5094 C   0  0  0  0  0  0  0  0  0  0  0  0
    9.5508   12.3768   24.2432 C   0  0  0  0  0  0  0  0  0  0  0  0
   10.3467   13.5938   24.1799 C   0  0  0  0  0  0  0  0  0  0  0  0
   10.5491   14.1930   25.1733 O   0  0  0  0  0  0  0  0  0  0  0  0
   10.7006   13.9221   22.7584 N   0  0  0  0  0  0  0  0  0  0  0  0
   12.1050   13.3562   22.3736 C   0  0  0  0  0  0  0  0  0  0  0  0
   12.2538   14.3835   21.2972 C   0  0  0  0  0  0  0  0  0  0  0  0
   13.5103   15.0612   21.1684 O   0  0  0  0  0  0  0  0  0  0  0  0
   11.3201   15.1392   22.1687 C   0  0  0  0  0  0  0  0  0  0  0  0
    8.4318   12.1654   25.1063 C   0  0  0  0  0  0  0  0  0  0  0  0
    7.7285   12.9860   26.0111 C   0  0  0  0  0  0  0  0  0  0  0  0
    6.6899   12.4444   26.7716 C   0  0  0  0  0  0  0  0  0  0  0  0
    6.3421   11.1058   26.6397 C   0  0  0  0  0  0  0  0  0  0  0  0
    6.9972   10.2826   25.7252 C   0  0  0  0  0  0  0  0  0  0  0  0
    8.0367   10.8393   24.9676 C   0  0  0  0  0  0  0  0  0  0  0  0
  1  2  1  0
  2  3  1  0
  3  4  1  0
  4  5  1  0
  5  6  2  0
  6  7  1  0
  7  8  2  0
  7  9  1  0
  9 10  1  0
 10 11  1  0
 11 12  1  0
 11 13  1  0
  6 14  1  0
 14 15  2  0
 15 16  1  0
 16 17  2  0
 17 18  1  0
 18 19  2  0
 19  4  1  0
 13  9  1  0
 19 14  1  0
M  END
>  <alias>  (1319) 
None

>  <rmsd(smina/fragmenstein)>  (1319) 
0.327

>  <smiles>  (1319) 
CCCn1cc(C(=O)N2CC(O)C2)c2ccccc21

>  <gnina_score>  (1319) 
5.228

>  <inspiration_score>  (1319) 
None

>  <energy_score>  (1319) 
-2.68799

>  <distance_score>  (1319) 
0.878771

>  <gnina_score_min>  (1319) 
5.228

>  <inchikey>  (1319) 
HXMNTLMQSSIZMM-UHFFFAOYSA-N

>  <exports>  (1319) 
['/opt/xchem-fragalysis-2/maxwin/BulkDock/OUTPUTS/openbind_a71ev2a_c2_elabs_1LOUU54.sdf', '/opt/xchem-fragalysis-2/maxwin/BulkDock/OUTPUTS/openbind_a71ev2a_c2_elabs_1LSYIDY.sdf']

>  <name>  (1319) 
P577233

>  <ref_pdb>  (1319) 
A3066a

>  <subsites>  (1319) 
None

>  <HIPPO Pose ID>  (1319) 
577233

>  <ref_mols>  (1319) 
A3066a

>  <HIPPO Compound ID>  (1319) 
350833

>  <tags>  (1319) 
openbind_a71ev2a_c2_elabs,syndirella_product,openbind_a71ev2a_c2_elabs_fragonly_scored_top80percent,openbind_a71ev2a_c2_elabs_scored,BulkDock Fragalysis export,openbind_a71ev2a_c2_elabs_scored_top80percent,openbind_a71ev2a_c2_elabs_activefrags_only_scored_5.2plus,syndirella_placed

>  <smina_score_min>  (1319) 
-4.795

$$$$
P577234
     RDKit          3D

 19 21  0  0  0  0  0  0  0  0999 V2000
   10.9685    7.9883   23.4000 C   0  0  0  0  0  0  0  0  0  0  0  0
    9.6949    8.3069   22.6787 C   0  0  0  0  0  0  0  0  0  0  0  0
    8.6961    8.8150   23.6717 C   0  0  0  0  0  0  0  0  0  0  0  0
    8.8028   10.1992   24.0468 N   0  0  0  0  0  0  0  0  0  0  0  0
    9.7288   11.0810   23.5853 C   0  0  0  0  0  0  0  0  0  0  0  0
    9.6100   12.2456   24.3110 C   0  0  0  0  0  0  0  0  0  0  0  0
   10.5590   13.3482   24.2985 C   0  0  0  0  0  0  0  0  0  0  0  0
   10.6637   14.0393   25.2296 O   0  0  0  0  0  0  0  0  0  0  0  0
   11.2751   13.3918   22.9407 N   0  0  0  0  0  0  0  0  0  0  0  0
   12.1710   14.3176   22.4226 C   0  0  1  0  0  0  0  0  0  0  0  0
   12.6282   14.4025   21.0065 C   0  0  0  0  0  0  0  0  0  0  0  0
   11.5721   15.3393   21.5053 C   0  0  1  0  0  0  0  0  0  0  0  0
   10.1886   15.2282   20.9483 C   0  0  0  0  0  0  0  0  0  0  0  0
    8.4419   12.1113   25.1154 C   0  0  0  0  0  0  0  0  0  0  0  0
    7.7594   12.9716   25.9967 C   0  0  0  0  0  0  0  0  0  0  0  0
    6.6916   12.4791   26.7489 C   0  0  0  0  0  0  0  0  0  0  0  0
    6.2979   11.1512   26.6322 C   0  0  0  0  0  0  0  0  0  0  0  0
    6.9272   10.2907   25.7333 C   0  0  0  0  0  0  0  0  0  0  0  0
    7.9938   10.7983   24.9812 C   0  0  0  0  0  0  0  0  0  0  0  0
  1  2  1  0
  2  3  1  0
  3  4  1  0
  4  5  1  0
  5  6  2  0
  6  7  1  0
  7  8  2  0
  7  9  1  0
 10  9  1  6
 10 11  1  0
 11 12  1  0
 12 13  1  6
  6 14  1  0
 14 15  2  0
 15 16  1  0
 16 17  2  0
 17 18  1  0
 18 19  2  0
 19  4  1  0
 12 10  1  0
 19 14  1  0
M  END
>  <alias>  (1320) 
None

>  <rmsd(smina/fragmenstein)>  (1320) 
0.622

>  <smiles>  (1320) 
CCCn1cc(C(=O)N[C@H]2C[C@H]2C)c2ccccc21

>  <gnina_score>  (1320) 
5.444

>  <inspiration_score>  (1320) 
None

>  <energy_score>  (1320) 
-10.177057

>  <distance_score>  (1320) 
0.797823

>  <gnina_score_min>  (1320) 
5.406

>  <inchikey>  (1320) 
KWCVPTUGQQBVQQ-RISCZKNCSA-N

>  <exports>  (1320) 
['/opt/xchem-fragalysis-2/maxwin/BulkDock/OUTPUTS/openbind_a71ev2a_c2_elabs_1LOUU54.sdf', '/opt/xchem-fragalysis-2/maxwin/BulkDock/OUTPUTS/openbind_a71ev2a_c2_elabs_1LSYIDY.sdf']

>  <name>  (1320) 
P577234

>  <ref_pdb>  (1320) 
A3066a

>  <subsites>  (1320) 
None

>  <HIPPO Pose ID>  (1320) 
577234

>  <ref_mols>  (1320) 
A3066a

>  <HIPPO Compound ID>  (1320) 
350834

>  <tags>  (1320) 
openbind_a71ev2a_c2_elabs,syndirella_product,openbind_a71ev2a_c2_elabs_fragonly_scored_top80percent,openbind_a71ev2a_c2_elabs_scored,BulkDock Fragalysis export,openbind_a71ev2a_c2_elabs_scored_top80percent,openbind_a71ev2a_c2_elabs_activefrags_only_scored_5.2plus,syndirella_placed

>  <smina_score_min>  (1320) 
-5.886

$$$$
P577235
     RDKit          3D

 19 20  0  0  0  0  0  0  0  0999 V2000
   11.1646    8.0987   23.5667 C   0  0  0  0  0  0  0  0  0  0  0  0
    9.7058    7.8698   23.5616 C   0  0  0  0  0  0  0  0  0  0  0  0
    8.9562    9.0161   22.9955 C   0  0  0  0  0  0  0  0  0  0  0  0
    8.9718   10.2286   23.7688 N   0  0  0  0  0  0  0  0  0  0  0  0
    9.8357   11.2453   23.4909 C   0  0  0  0  0  0  0  0  0  0  0  0
    9.5768   12.2822   24.3630 C   0  0  0  0  0  0  0  0  0  0  0  0
   10.3808   13.4808   24.5540 C   0  0  0  0  0  0  0  0  0  0  0  0
   10.2767   14.1067   25.5266 O   0  0  0  0  0  0  0  0  0  0  0  0
   11.2998   13.6661   23.3535 N   0  0  0  0  0  0  0  0  0  0  0  0
   12.2127   14.6995   23.0467 C   0  0  0  0  0  0  0  0  0  0  0  0
   11.9232   15.3047   21.7044 C   0  0  0  0  0  0  0  0  0  0  0  0
   12.3893   14.1595   20.3952 S   0  0  0  0  0  0  0  0  0  0  0  0
   11.1935   14.6502   19.1360 C   0  0  0  0  0  0  0  0  0  0  0  0
    8.4105   11.9195   25.0945 C   0  0  0  0  0  0  0  0  0  0  0  0
    7.6166   12.5863   26.0505 C   0  0  0  0  0  0  0  0  0  0  0  0
    6.5946   11.8978   26.7020 C   0  0  0  0  0  0  0  0  0  0  0  0
    6.3614   10.5601   26.4150 C   0  0  0  0  0  0  0  0  0  0  0  0
    7.1042    9.8965   25.4379 C   0  0  0  0  0  0  0  0  0  0  0  0
    8.1147   10.5951   24.7743 C   0  0  0  0  0  0  0  0  0  0  0  0
  1  2  1  0
  2  3  1  0
  3  4  1  0
  4  5  1  0
  5  6  2  0
  6  7  1  0
  7  8  2  0
  7  9  1  0
  9 10  1  0
 10 11  1  0
 11 12  1  0
 12 13  1  0
  6 14  1  0
 14 15  2  0
 15 16  1  0
 16 17  2  0
 17 18  1  0
 18 19  2  0
 19  4  1  0
 19 14  1  0
M  END
>  <alias>  (1321) 
None

>  <rmsd(smina/fragmenstein)>  (1321) 
1.24

>  <smiles>  (1321) 
CCCn1cc(C(=O)NCCSC)c2ccccc21

>  <gnina_score>  (1321) 
5.352

>  <inspiration_score>  (1321) 
None

>  <energy_score>  (1321) 
-3.103995

>  <distance_score>  (1321) 
0.843443

>  <gnina_score_min>  (1321) 
5.468

>  <inchikey>  (1321) 
CXHLSDBSLTVOPR-UHFFFAOYSA-N

>  <exports>  (1321) 
['/opt/xchem-fragalysis-2/maxwin/BulkDock/OUTPUTS/openbind_a71ev2a_c2_elabs_1LOUU54.sdf', '/opt/xchem-fragalysis-2/maxwin/BulkDock/OUTPUTS/openbind_a71ev2a_c2_elabs_1LSYIDY.sdf']

>  <name>  (1321) 
P577235

>  <ref_pdb>  (1321) 
A3066a

>  <subsites>  (1321) 
None

>  <HIPPO Pose ID>  (1321) 
577235

>  <ref_mols>  (1321) 
A3066a

>  <HIPPO Compound ID>  (1321) 
350838

>  <tags>  (1321) 
openbind_a71ev2a_c2_elabs,syndirella_product,openbind_a71ev2a_c2_elabs_fragonly_scored_top80percent,openbind_a71ev2a_c2_elabs_scored,BulkDock Fragalysis export,openbind_a71ev2a_c2_elabs_scored_top80percent,openbind_a71ev2a_c2_elabs_activefrags_only_scored_5.2plus,syndirella_placed

>  <smina_score_min>  (1321) 
-5.107

$$$$
P577236
     RDKit          3D

 19 20  0  0  0  0  0  0  0  0999 V2000
    8.8079    8.6392   24.0034 C   0  0  0  0  0  0  0  0  0  0  0  0
    8.5407   10.0404   24.2270 N   0  0  0  0  0  0  0  0  0  0  0  0
    9.1524   11.0376   23.5499 C   0  0  0  0  0  0  0  0  0  0  0  0
   10.3328   10.5725   22.4569 Cl  0  0  0  0  0  0  0  0  0  0  0  0
    8.6553   12.2579   23.9156 C   0  0  0  0  0  0  0  0  0  0  0  0
    9.0003   13.5861   23.4248 C   0  0  0  0  0  0  0  0  0  0  0  0
    8.6417   14.4983   24.0453 O   0  0  0  0  0  0  0  0  0  0  0  0
    9.8899   13.5200   22.1839 N   0  0  0  0  0  0  0  0  0  0  0  0
   10.6058   14.5514   21.4965 C   0  0  0  0  0  0  0  0  0  0  0  0
   12.1128   14.3460   21.7011 C   0  0  0  0  0  0  0  0  0  0  0  0
   12.5565   13.4602   23.6843 I   0  0  0  0  0  0  0  0  0  0  0  0
    7.7863   11.9840   25.0143 C   0  0  0  0  0  0  0  0  0  0  0  0
    7.0651   12.8095   25.9033 C   0  0  0  0  0  0  0  0  0  0  0  0
    6.2717   12.2387   26.8970 C   0  0  0  0  0  0  0  0  0  0  0  0
    5.4683   13.3051   27.9944 Cl  0  0  0  0  0  0  0  0  0  0  0  0
    6.1444   10.8559   26.9758 C   0  0  0  0  0  0  0  0  0  0  0  0
    5.2115   10.0857   28.2137 Cl  0  0  0  0  0  0  0  0  0  0  0  0
    6.8036   10.0255   26.0647 C   0  0  0  0  0  0  0  0  0  0  0  0
    7.6759   10.5970   25.1379 C   0  0  0  0  0  0  0  0  0  0  0  0
  1  2  1  0
  2  3  1  0
  3  4  1  0
  3  5  2  0
  5  6  1  0
  6  7  2  0
  6  8  1  0
  8  9  1  0
  9 10  1  0
 10 11  1  0
  5 12  1  0
 12 13  2  0
 13 14  1  0
 14 15  1  0
 14 16  2  0
 16 17  1  0
 16 18  1  0
 18 19  2  0
 19  2  1  0
 19 12  1  0
M  END
>  <alias>  (1322) 
None

>  <rmsd(smina/fragmenstein)>  (1322) 
0.924

>  <smiles>  (1322) 
Cn1c(Cl)c(C(=O)NCCI)c2cc(Cl)c(Cl)cc21

>  <gnina_score>  (1322) 
5.836

>  <inspiration_score>  (1322) 
None

>  <energy_score>  (1322) 
-2.655042

>  <distance_score>  (1322) 
1.474683

>  <gnina_score_min>  (1322) 
5.735

>  <inchikey>  (1322) 
LVYBUKIFJOACPY-UHFFFAOYSA-N

>  <exports>  (1322) 
['/opt/xchem-fragalysis-2/maxwin/BulkDock/OUTPUTS/openbind_a71ev2a_c2_elabs_1LOUU54.sdf', '/opt/xchem-fragalysis-2/maxwin/BulkDock/OUTPUTS/openbind_a71ev2a_c2_elabs_1LSYIDY.sdf']

>  <name>  (1322) 
P577236

>  <ref_pdb>  (1322) 
A3066a

>  <subsites>  (1322) 
None

>  <HIPPO Pose ID>  (1322) 
577236

>  <ref_mols>  (1322) 
A3066a

>  <HIPPO Compound ID>  (1322) 
350847

>  <tags>  (1322) 
openbind_a71ev2a_c2_elabs,syndirella_product,openbind_a71ev2a_c2_elabs_fragonly_scored_top80percent,BulkDock Fragalysis export,openbind_a71ev2a_c2_elabs_scored,openbind_a71ev2a_c2_elabs_scored_top80percent,openbind_a71ev2a_c2_elabs_activefrags_only_scored_5.2plus,openbind_a71ev2a_c2_elabs_activefrags_only_scored_5.5plus,syndirella_placed

>  <smina_score_min>  (1322) 
-5.14

$$$$
P577237
     RDKit          3D

 19 20  0  0  0  0  0  0  0  0999 V2000
    8.7521    8.5609   24.0341 C   0  0  0  0  0  0  0  0  0  0  0  0
    8.5938    9.9832   24.1984 N   0  0  0  0  0  0  0  0  0  0  0  0
    9.2820   10.8900   23.4747 C   0  0  0  0  0  0  0  0  0  0  0  0
   10.3236   10.2505   22.3322 Cl  0  0  0  0  0  0  0  0  0  0  0  0
    8.9597   12.1641   23.8441 C   0  0  0  0  0  0  0  0  0  0  0  0
    9.5090   13.4306   23.3709 C   0  0  0  0  0  0  0  0  0  0  0  0
    9.1632   14.3933   23.9144 O   0  0  0  0  0  0  0  0  0  0  0  0
   10.5475   13.2348   22.2725 N   0  0  0  0  0  0  0  0  0  0  0  0
   11.4521   14.1656   21.6717 C   0  0  0  0  0  0  0  0  0  0  0  0
   12.4845   14.5967   22.7037 C   0  0  0  0  0  0  0  0  0  0  0  0
   12.9301   13.2682   23.8417 Cl  0  0  0  0  0  0  0  0  0  0  0  0
    8.0146   12.0060   24.9128 C   0  0  0  0  0  0  0  0  0  0  0  0
    7.3447   12.9173   25.7579 C   0  0  0  0  0  0  0  0  0  0  0  0
    6.4870   12.4469   26.7544 C   0  0  0  0  0  0  0  0  0  0  0  0
    5.7530   13.6149   27.7955 Cl  0  0  0  0  0  0  0  0  0  0  0  0
    6.2561   11.0809   26.8915 C   0  0  0  0  0  0  0  0  0  0  0  0
    5.2694   10.4347   28.1584 Cl  0  0  0  0  0  0  0  0  0  0  0  0
    6.8603   10.1635   26.0270 C   0  0  0  0  0  0  0  0  0  0  0  0
    7.7755   10.6387   25.0827 C   0  0  0  0  0  0  0  0  0  0  0  0
  1  2  1  0
  2  3  1  0
  3  4  1  0
  3  5  2  0
  5  6  1  0
  6  7  2  0
  6  8  1  0
  8  9  1  0
  9 10  1  0
 10 11  1  0
  5 12  1  0
 12 13  2  0
 13 14  1  0
 14 15  1  0
 14 16  2  0
 16 17  1  0
 16 18  1  0
 18 19  2  0
 19  2  1  0
 19 12  1  0
M  END
>  <alias>  (1323) 
None

>  <rmsd(smina/fragmenstein)>  (1323) 
0.474

>  <smiles>  (1323) 
Cn1c(Cl)c(C(=O)NCCCl)c2cc(Cl)c(Cl)cc21

>  <gnina_score>  (1323) 
5.742

>  <inspiration_score>  (1323) 
None

>  <energy_score>  (1323) 
-4.899519

>  <distance_score>  (1323) 
1.168518

>  <gnina_score_min>  (1323) 
5.889

>  <inchikey>  (1323) 
IZBLPZDLCJWZTI-UHFFFAOYSA-N

>  <exports>  (1323) 
['/opt/xchem-fragalysis-2/maxwin/BulkDock/OUTPUTS/openbind_a71ev2a_c2_elabs_1LOUU54.sdf', '/opt/xchem-fragalysis-2/maxwin/BulkDock/OUTPUTS/openbind_a71ev2a_c2_elabs_1LSYIDY.sdf']

>  <name>  (1323) 
P577237

>  <ref_pdb>  (1323) 
A3066a

>  <subsites>  (1323) 
None

>  <HIPPO Pose ID>  (1323) 
577237

>  <ref_mols>  (1323) 
A3066a

>  <HIPPO Compound ID>  (1323) 
350852

>  <tags>  (1323) 
openbind_a71ev2a_c2_elabs,syndirella_product,openbind_a71ev2a_c2_elabs_fragonly_scored_top80percent,BulkDock Fragalysis export,openbind_a71ev2a_c2_elabs_scored,openbind_a71ev2a_c2_elabs_scored_top80percent,openbind_a71ev2a_c2_elabs_activefrags_only_scored_5.2plus,openbind_a71ev2a_c2_elabs_activefrags_only_scored_5.5plus,syndirella_placed

>  <smina_score_min>  (1323) 
-5.415

$$$$
P577238
     RDKit          3D

 19 20  0  0  0  0  0  0  0  0999 V2000
    4.7845   12.3090   28.7456 C   0  0  0  0  0  0  0  0  0  0  0  0
    5.7049   12.9186   27.8486 O   0  0  0  0  0  0  0  0  0  0  0  0
    6.3320   12.1010   26.9482 C   0  0  0  0  0  0  0  0  0  0  0  0
    6.1346   10.7309   26.8195 C   0  0  0  0  0  0  0  0  0  0  0  0
    6.8303    9.9836   25.8646 C   0  0  0  0  0  0  0  0  0  0  0  0
    7.7765   10.6275   25.0698 C   0  0  0  0  0  0  0  0  0  0  0  0
    7.9680   12.0097   25.1623 C   0  0  0  0  0  0  0  0  0  0  0  0
    7.2368   12.7502   26.1072 C   0  0  0  0  0  0  0  0  0  0  0  0
    8.9404   12.3559   24.2081 C   0  0  0  0  0  0  0  0  0  0  0  0
    9.5680   13.6295   23.9377 C   0  0  0  0  0  0  0  0  0  0  0  0
   10.1452   14.2019   24.7715 O   0  0  0  0  0  0  0  0  0  0  0  0
    9.4037   13.9460   22.4413 N   0  0  0  0  0  0  0  0  0  0  0  0
    9.9930   14.9820   21.6344 C   0  0  0  0  0  0  0  0  0  0  0  0
   11.4910   15.1116   21.8955 C   0  0  0  0  0  0  0  0  0  0  0  0
   12.4582   14.1877   20.6873 S   0  0  0  0  0  0  0  0  0  0  0  0
    9.3628   11.1880   23.6118 C   0  0  0  0  0  0  0  0  0  0  0  0
   10.4899   11.0341   22.6969 C   0  0  0  0  0  0  0  0  0  0  0  0
    8.6707   10.1417   24.1412 N   0  0  0  0  0  0  0  0  0  0  0  0
    8.9512    8.7531   23.8429 C   0  0  0  0  0  0  0  0  0  0  0  0
  1  2  1  0
  2  3  1  0
  3  4  2  0
  4  5  1  0
  5  6  2  0
  6  7  1  0
  7  8  2  0
  7  9  1  0
  9 10  1  0
 10 11  2  0
 10 12  1  0
 12 13  1  0
 13 14  1  0
 14 15  1  0
  9 16  2  0
 16 17  1  0
 16 18  1  0
 18 19  1  0
  8  3  1  0
 18  6  1  0
M  END
>  <alias>  (1324) 
None

>  <rmsd(smina/fragmenstein)>  (1324) 
0.601

>  <smiles>  (1324) 
COc1ccc2c(c1)c(C(=O)NCCS)c(C)n2C

>  <gnina_score>  (1324) 
5.336

>  <inspiration_score>  (1324) 
None

>  <energy_score>  (1324) 
-8.480563

>  <distance_score>  (1324) 
1.350342

>  <gnina_score_min>  (1324) 
5.284

>  <inchikey>  (1324) 
ZUAPBIXLEFBOOI-UHFFFAOYSA-N

>  <exports>  (1324) 
['/opt/xchem-fragalysis-2/maxwin/BulkDock/OUTPUTS/openbind_a71ev2a_c2_elabs_1LOUU54.sdf', '/opt/xchem-fragalysis-2/maxwin/BulkDock/OUTPUTS/openbind_a71ev2a_c2_elabs_1LSYIDY.sdf']

>  <name>  (1324) 
P577238

>  <ref_pdb>  (1324) 
A3066a

>  <subsites>  (1324) 
None

>  <HIPPO Pose ID>  (1324) 
577238

>  <ref_mols>  (1324) 
A3066a

>  <HIPPO Compound ID>  (1324) 
350853

>  <tags>  (1324) 
openbind_a71ev2a_c2_elabs,syndirella_product,openbind_a71ev2a_c2_elabs_fragonly_scored_top80percent,openbind_a71ev2a_c2_elabs_scored,BulkDock Fragalysis export,openbind_a71ev2a_c2_elabs_scored_top80percent,openbind_a71ev2a_c2_elabs_activefrags_only_scored_5.2plus,syndirella_placed

>  <smina_score_min>  (1324) 
-4.348

$$$$
P577241
     RDKit          3D

 19 20  0  0  0  0  0  0  0  0999 V2000
    4.9307   13.1314   28.5025 C   0  0  0  0  0  0  0  0  0  0  0  0
    6.0598   13.4988   27.7203 O   0  0  0  0  0  0  0  0  0  0  0  0
    6.5775   12.5429   26.8882 C   0  0  0  0  0  0  0  0  0  0  0  0
    6.1946   11.2061   26.8490 C   0  0  0  0  0  0  0  0  0  0  0  0
    6.7930   10.3057   25.9634 C   0  0  0  0  0  0  0  0  0  0  0  0
    7.8179   10.7767   25.1379 C   0  0  0  0  0  0  0  0  0  0  0  0
    8.2298   12.1119   25.1597 C   0  0  0  0  0  0  0  0  0  0  0  0
    7.5899   13.0022   26.0418 C   0  0  0  0  0  0  0  0  0  0  0  0
    9.2955   12.2567   24.2275 C   0  0  0  0  0  0  0  0  0  0  0  0
   10.1143   13.4452   23.9913 C   0  0  0  0  0  0  0  0  0  0  0  0
   10.5520   14.0541   24.8818 O   0  0  0  0  0  0  0  0  0  0  0  0
   10.2051   13.6887   22.4812 N   0  0  0  0  0  0  0  0  0  0  0  0
   10.9323   14.6795   21.7372 C   0  0  0  0  0  0  0  0  0  0  0  0
   12.3998   14.2997   21.6278 C   0  0  0  0  0  0  0  0  0  0  0  0
   10.2724   14.9077   20.3873 C   0  0  0  0  0  0  0  0  0  0  0  0
    9.4548   11.0217   23.6292 C   0  0  0  0  0  0  0  0  0  0  0  0
   10.4100   10.5243   22.6430 C   0  0  0  0  0  0  0  0  0  0  0  0
    8.6175   10.1307   24.2331 N   0  0  0  0  0  0  0  0  0  0  0  0
    8.6785    8.7079   23.9906 C   0  0  0  0  0  0  0  0  0  0  0  0
  1  2  1  0
  2  3  1  0
  3  4  2  0
  4  5  1  0
  5  6  2  0
  6  7  1  0
  7  8  2  0
  7  9  1  0
  9 10  1  0
 10 11  2  0
 10 12  1  0
 12 13  1  0
 13 14  1  0
 13 15  1  0
  9 16  2  0
 16 17  1  0
 16 18  1  0
 18 19  1  0
  8  3  1  0
 18  6  1  0
M  END
>  <alias>  (1325) 
None

>  <rmsd(smina/fragmenstein)>  (1325) 
0.356

>  <smiles>  (1325) 
COc1ccc2c(c1)c(C(=O)NC(C)C)c(C)n2C

>  <gnina_score>  (1325) 
5.219

>  <inspiration_score>  (1325) 
None

>  <energy_score>  (1325) 
-4.282689

>  <distance_score>  (1325) 
1.072521

>  <gnina_score_min>  (1325) 
5.285

>  <inchikey>  (1325) 
QFOVBQGUEIIZIX-UHFFFAOYSA-N

>  <exports>  (1325) 
['/opt/xchem-fragalysis-2/maxwin/BulkDock/OUTPUTS/openbind_a71ev2a_c2_elabs_1LOUU54.sdf', '/opt/xchem-fragalysis-2/maxwin/BulkDock/OUTPUTS/openbind_a71ev2a_c2_elabs_1LSYIDY.sdf']

>  <name>  (1325) 
P577241

>  <ref_pdb>  (1325) 
A3066a

>  <subsites>  (1325) 
None

>  <HIPPO Pose ID>  (1325) 
577241

>  <ref_mols>  (1325) 
A3066a

>  <HIPPO Compound ID>  (1325) 
350858

>  <tags>  (1325) 
openbind_a71ev2a_c2_elabs,syndirella_product,openbind_a71ev2a_c2_elabs_fragonly_scored_top80percent,openbind_a71ev2a_c2_elabs_scored,BulkDock Fragalysis export,openbind_a71ev2a_c2_elabs_scored_top80percent,openbind_a71ev2a_c2_elabs_activefrags_only_scored_5.2plus,syndirella_placed

>  <smina_score_min>  (1325) 
-5.77

$$$$
P577247
     RDKit          3D

 19 20  0  0  0  0  0  0  0  0999 V2000
    8.5773    8.5762   24.0843 C   0  0  0  0  0  0  0  0  0  0  0  0
    8.6045   10.0073   24.2093 N   0  0  0  0  0  0  0  0  0  0  0  0
    9.4428   10.7864   23.4972 C   0  0  0  0  0  0  0  0  0  0  0  0
   10.3006    9.9847   22.2965 Cl  0  0  0  0  0  0  0  0  0  0  0  0
    9.4454   12.0595   23.9952 C   0  0  0  0  0  0  0  0  0  0  0  0
   10.4018   13.1316   23.7358 C   0  0  0  0  0  0  0  0  0  0  0  0
   10.4787   13.9913   24.5157 O   0  0  0  0  0  0  0  0  0  0  0  0
   11.2268   12.8578   22.4777 N   0  0  0  0  0  0  0  0  0  0  0  0
   12.3827   13.5262   21.9581 C   0  0  0  0  0  0  0  0  0  0  0  0
   12.2163   15.0189   21.8412 C   0  0  0  0  0  0  0  0  0  0  0  0
   12.1866   15.5901   23.1410 O   0  0  0  0  0  0  0  0  0  0  0  0
    8.3707   12.0820   24.9486 C   0  0  0  0  0  0  0  0  0  0  0  0
    7.8110   13.0922   25.7572 C   0  0  0  0  0  0  0  0  0  0  0  0
    6.8320   12.7659   26.7012 C   0  0  0  0  0  0  0  0  0  0  0  0
    6.2557   14.0426   27.7149 Cl  0  0  0  0  0  0  0  0  0  0  0  0
    6.3881   11.4506   26.8342 C   0  0  0  0  0  0  0  0  0  0  0  0
    5.2884   10.9775   28.0840 Cl  0  0  0  0  0  0  0  0  0  0  0  0
    6.8765   10.4416   25.9977 C   0  0  0  0  0  0  0  0  0  0  0  0
    7.8805   10.7781   25.0798 C   0  0  0  0  0  0  0  0  0  0  0  0
  1  2  1  0
  2  3  1  0
  3  4  1  0
  3  5  2  0
  5  6  1  0
  6  7  2  0
  6  8  1  0
  8  9  1  0
  9 10  1  0
 10 11  1  0
  5 12  1  0
 12 13  2  0
 13 14  1  0
 14 15  1  0
 14 16  2  0
 16 17  1  0
 16 18  1  0
 18 19  2  0
 19  2  1  0
 19 12  1  0
M  END
>  <alias>  (1326) 
None

>  <rmsd(smina/fragmenstein)>  (1326) 
1.587

>  <smiles>  (1326) 
Cn1c(Cl)c(C(=O)NCCO)c2cc(Cl)c(Cl)cc21

>  <gnina_score>  (1326) 
5.457

>  <inspiration_score>  (1326) 
None

>  <energy_score>  (1326) 
-22.574671

>  <distance_score>  (1326) 
0.906369

>  <gnina_score_min>  (1326) 
5.22

>  <inchikey>  (1326) 
NVCXQTQOPJLGBE-UHFFFAOYSA-N

>  <exports>  (1326) 
['/opt/xchem-fragalysis-2/maxwin/BulkDock/OUTPUTS/openbind_a71ev2a_c2_elabs_1LOUU54.sdf', '/opt/xchem-fragalysis-2/maxwin/BulkDock/OUTPUTS/openbind_a71ev2a_c2_elabs_1LSYIDY.sdf']

>  <name>  (1326) 
P577247

>  <ref_pdb>  (1326) 
A3066a

>  <subsites>  (1326) 
None

>  <HIPPO Pose ID>  (1326) 
577247

>  <ref_mols>  (1326) 
A3066a

>  <HIPPO Compound ID>  (1326) 
350867

>  <tags>  (1326) 
openbind_a71ev2a_c2_elabs,syndirella_product,openbind_a71ev2a_c2_elabs_fragonly_scored_top80percent,openbind_a71ev2a_c2_elabs_scored,BulkDock Fragalysis export,openbind_a71ev2a_c2_elabs_scored_top80percent,openbind_a71ev2a_c2_elabs_activefrags_only_scored_5.2plus,syndirella_placed

>  <smina_score_min>  (1326) 
-6.302

$$$$
P577248
     RDKit          3D

 19 20  0  0  0  0  0  0  0  0999 V2000
    8.5577    8.6113   24.0949 C   0  0  0  0  0  0  0  0  0  0  0  0
    8.5987   10.0382   24.2651 N   0  0  0  0  0  0  0  0  0  0  0  0
    9.4610   10.8308   23.5981 C   0  0  0  0  0  0  0  0  0  0  0  0
   10.3006   10.0767   22.3545 Cl  0  0  0  0  0  0  0  0  0  0  0  0
    9.5005   12.0743   24.1683 C   0  0  0  0  0  0  0  0  0  0  0  0
   10.4868   13.1331   23.9609 C   0  0  0  0  0  0  0  0  0  0  0  0
   10.6148   13.9546   24.7737 O   0  0  0  0  0  0  0  0  0  0  0  0
   11.2143   12.9316   22.6333 N   0  0  0  0  0  0  0  0  0  0  0  0
   12.3135   13.6358   22.0636 C   0  0  0  0  0  0  0  0  0  0  0  0
   11.9400   15.0493   21.7215 C   0  0  0  0  0  0  0  0  0  0  0  0
   10.3333   15.1113   20.6092 Br  0  0  0  0  0  0  0  0  0  0  0  0
    8.3941   12.0891   25.0800 C   0  0  0  0  0  0  0  0  0  0  0  0
    7.8266   13.0866   25.8974 C   0  0  0  0  0  0  0  0  0  0  0  0
    6.8177   12.7487   26.8046 C   0  0  0  0  0  0  0  0  0  0  0  0
    6.2341   14.0035   27.8413 Cl  0  0  0  0  0  0  0  0  0  0  0  0
    6.3529   11.4361   26.8894 C   0  0  0  0  0  0  0  0  0  0  0  0
    5.2241   10.9430   28.1059 Cl  0  0  0  0  0  0  0  0  0  0  0  0
    6.8421   10.4442   26.0328 C   0  0  0  0  0  0  0  0  0  0  0  0
    7.8722   10.7918   25.1492 C   0  0  0  0  0  0  0  0  0  0  0  0
  1  2  1  0
  2  3  1  0
  3  4  1  0
  3  5  2  0
  5  6  1  0
  6  7  2  0
  6  8  1  0
  8  9  1  0
  9 10  1  0
 10 11  1  0
  5 12  1  0
 12 13  2  0
 13 14  1  0
 14 15  1  0
 14 16  2  0
 16 17  1  0
 16 18  1  0
 18 19  2  0
 19  2  1  0
 19 12  1  0
M  END
>  <alias>  (1327) 
None

>  <rmsd(smina/fragmenstein)>  (1327) 
1.454

>  <smiles>  (1327) 
Cn1c(Cl)c(C(=O)NCCBr)c2cc(Cl)c(Cl)cc21

>  <gnina_score>  (1327) 
5.767

>  <inspiration_score>  (1327) 
None

>  <energy_score>  (1327) 
-5.286866

>  <distance_score>  (1327) 
0.932777

>  <gnina_score_min>  (1327) 
5.435

>  <inchikey>  (1327) 
DXJVVFJHRQYKAE-UHFFFAOYSA-N

>  <exports>  (1327) 
['/opt/xchem-fragalysis-2/maxwin/BulkDock/OUTPUTS/openbind_a71ev2a_c2_elabs_1LOUU54.sdf', '/opt/xchem-fragalysis-2/maxwin/BulkDock/OUTPUTS/openbind_a71ev2a_c2_elabs_1LSYIDY.sdf']

>  <name>  (1327) 
P577248

>  <ref_pdb>  (1327) 
A3066a

>  <subsites>  (1327) 
None

>  <HIPPO Pose ID>  (1327) 
577248

>  <ref_mols>  (1327) 
A3066a

>  <HIPPO Compound ID>  (1327) 
350871

>  <tags>  (1327) 
openbind_a71ev2a_c2_elabs,syndirella_product,openbind_a71ev2a_c2_elabs_fragonly_scored_top80percent,openbind_a71ev2a_c2_elabs_scored,BulkDock Fragalysis export,openbind_a71ev2a_c2_elabs_scored_top80percent,openbind_a71ev2a_c2_elabs_activefrags_only_scored_5.2plus,syndirella_placed

>  <smina_score_min>  (1327) 
-6.331

$$$$
P577250
     RDKit          3D

 19 20  0  0  0  0  0  0  0  0999 V2000
   12.4702   14.2420   21.6332 C   0  0  0  0  0  0  0  0  0  0  0  0
   11.0176   14.6296   21.8281 C   0  0  0  0  0  0  0  0  0  0  0  0
   10.2896   14.9246   20.5256 C   0  0  0  0  0  0  0  0  0  0  0  0
   10.3033   13.6126   22.5463 N   0  0  0  0  0  0  0  0  0  0  0  0
   10.0583   13.4403   24.0482 C   0  0  0  0  0  0  0  0  0  0  0  0
   10.3297   14.1348   24.9415 O   0  0  0  0  0  0  0  0  0  0  0  0
    9.2780   12.2364   24.2887 C   0  0  0  0  0  0  0  0  0  0  0  0
    9.4123   11.0265   23.6754 C   0  0  0  0  0  0  0  0  0  0  0  0
   10.3773   10.5227   22.4149 Cl  0  0  0  0  0  0  0  0  0  0  0  0
    8.6330   10.0919   24.2608 N   0  0  0  0  0  0  0  0  0  0  0  0
    8.7241    8.6784   23.9821 C   0  0  0  0  0  0  0  0  0  0  0  0
    7.8311   10.7115   25.1899 C   0  0  0  0  0  0  0  0  0  0  0  0
    6.8265   10.2131   26.0271 C   0  0  0  0  0  0  0  0  0  0  0  0
    6.2526   11.0842   26.9602 C   0  0  0  0  0  0  0  0  0  0  0  0
    5.1711   10.3960   28.1238 Cl  0  0  0  0  0  0  0  0  0  0  0  0
    6.5990   12.4351   26.9865 C   0  0  0  0  0  0  0  0  0  0  0  0
    5.9036   13.5464   28.1142 Cl  0  0  0  0  0  0  0  0  0  0  0  0
    7.5665   12.9343   26.1119 C   0  0  0  0  0  0  0  0  0  0  0  0
    8.2197   12.0579   25.2248 C   0  0  0  0  0  0  0  0  0  0  0  0
  1  2  1  0
  2  3  1  0
  2  4  1  0
  4  5  1  0
  5  6  2  0
  5  7  1  0
  7  8  2  0
  8  9  1  0
  8 10  1  0
 10 11  1  0
 10 12  1  0
 12 13  2  0
 13 14  1  0
 14 15  1  0
 14 16  2  0
 16 17  1  0
 16 18  1  0
 18 19  2  0
 19  7  1  0
 19 12  1  0
M  END
>  <alias>  (1328) 
None

>  <rmsd(smina/fragmenstein)>  (1328) 
0.393

>  <smiles>  (1328) 
CC(C)NC(=O)c1c(Cl)n(C)c2cc(Cl)c(Cl)cc12

>  <gnina_score>  (1328) 
5.729

>  <inspiration_score>  (1328) 
None

>  <energy_score>  (1328) 
-16.635484

>  <distance_score>  (1328) 
1.082701

>  <gnina_score_min>  (1328) 
5.77

>  <inchikey>  (1328) 
BMJOQOSJWPGBLN-UHFFFAOYSA-N

>  <exports>  (1328) 
['/opt/xchem-fragalysis-2/maxwin/BulkDock/OUTPUTS/openbind_a71ev2a_c2_elabs_1LOUU54.sdf', '/opt/xchem-fragalysis-2/maxwin/BulkDock/OUTPUTS/openbind_a71ev2a_c2_elabs_1LSYIDY.sdf']

>  <name>  (1328) 
P577250

>  <ref_pdb>  (1328) 
A3066a

>  <subsites>  (1328) 
None

>  <HIPPO Pose ID>  (1328) 
577250

>  <ref_mols>  (1328) 
A3066a

>  <HIPPO Compound ID>  (1328) 
350874

>  <tags>  (1328) 
openbind_a71ev2a_c2_elabs,syndirella_product,openbind_a71ev2a_c2_elabs_fragonly_scored_top80percent,BulkDock Fragalysis export,openbind_a71ev2a_c2_elabs_scored,openbind_a71ev2a_c2_elabs_scored_top80percent,openbind_a71ev2a_c2_elabs_activefrags_only_scored_5.2plus,openbind_a71ev2a_c2_elabs_activefrags_only_scored_5.5plus,syndirella_placed

>  <smina_score_min>  (1328) 
-5.992

$$$$
P577251
     RDKit          3D

 19 20  0  0  0  0  0  0  0  0999 V2000
   11.0976    8.1065   23.3978 C   0  0  0  0  0  0  0  0  0  0  0  0
    9.6559    8.4139   23.2029 C   0  0  0  0  0  0  0  0  0  0  0  0
    8.9348    8.1975   24.4670 C   0  0  0  0  0  0  0  0  0  0  0  0
    9.3577    9.8096   22.8028 C   0  0  0  0  0  0  0  0  0  0  0  0
    9.5742   10.9408   23.6692 N   0  0  0  0  0  0  0  0  0  0  0  0
   10.5155   11.8612   23.3364 C   0  0  0  0  0  0  0  0  0  0  0  0
   10.1541   13.0599   23.8951 C   0  0  0  0  0  0  0  0  0  0  0  0
   10.7091   14.2783   23.3712 C   0  0  0  0  0  0  0  0  0  0  0  0
   11.6009   14.8445   23.8616 O   0  0  0  0  0  0  0  0  0  0  0  0
    9.9567   14.5493   22.0565 N   0  0  0  0  0  0  0  0  0  0  0  0
   10.2034   15.5156   21.0217 C   0  0  0  0  0  0  0  0  0  0  0  0
   10.9477   14.8677   19.8607 C   0  0  0  0  0  0  0  0  0  0  0  0
   12.5412   14.1906   20.3965 S   0  0  0  0  0  0  0  0  0  0  0  0
    9.0509   12.8298   24.7535 C   0  0  0  0  0  0  0  0  0  0  0  0
    8.2617   13.6556   25.5798 C   0  0  0  0  0  0  0  0  0  0  0  0
    7.1574   13.1289   26.2543 C   0  0  0  0  0  0  0  0  0  0  0  0
    6.7967   11.8048   26.0765 C   0  0  0  0  0  0  0  0  0  0  0  0
    7.5250   10.9844   25.2163 C   0  0  0  0  0  0  0  0  0  0  0  0
    8.6755   11.4912   24.5782 C   0  0  0  0  0  0  0  0  0  0  0  0
  1  2  1  0
  2  3  1  0
  2  4  1  0
  4  5  1  0
  5  6  1  0
  6  7  2  0
  7  8  1  0
  8  9  2  0
  8 10  1  0
 10 11  1  0
 11 12  1  0
 12 13  1  0
  7 14  1  0
 14 15  2  0
 15 16  1  0
 16 17  2  0
 17 18  1  0
 18 19  2  0
 19  5  1  0
 19 14  1  0
M  END
>  <alias>  (1329) 
None

>  <rmsd(smina/fragmenstein)>  (1329) 
0.755

>  <smiles>  (1329) 
CC(C)Cn1cc(C(=O)NCCS)c2ccccc21

>  <gnina_score>  (1329) 
5.539

>  <inspiration_score>  (1329) 
None

>  <energy_score>  (1329) 
-11.365036

>  <distance_score>  (1329) 
1.302857

>  <gnina_score_min>  (1329) 
5.5

>  <inchikey>  (1329) 
VZPGZLGGDHZICF-UHFFFAOYSA-N

>  <exports>  (1329) 
['/opt/xchem-fragalysis-2/maxwin/BulkDock/OUTPUTS/openbind_a71ev2a_c2_elabs_1LOUU54.sdf', '/opt/xchem-fragalysis-2/maxwin/BulkDock/OUTPUTS/openbind_a71ev2a_c2_elabs_1LSYIDY.sdf']

>  <name>  (1329) 
P577251

>  <ref_pdb>  (1329) 
A3066a

>  <subsites>  (1329) 
None

>  <HIPPO Pose ID>  (1329) 
577251

>  <ref_mols>  (1329) 
A3066a

>  <HIPPO Compound ID>  (1329) 
350881

>  <tags>  (1329) 
openbind_a71ev2a_c2_elabs,syndirella_product,openbind_a71ev2a_c2_elabs_fragonly_scored_top80percent,BulkDock Fragalysis export,openbind_a71ev2a_c2_elabs_scored,openbind_a71ev2a_c2_elabs_scored_top80percent,openbind_a71ev2a_c2_elabs_activefrags_only_scored_5.2plus,openbind_a71ev2a_c2_elabs_activefrags_only_scored_5.5plus,syndirella_placed

>  <smina_score_min>  (1329) 
-3.212

$$$$
P577252
     RDKit          3D

 19 20  0  0  0  0  0  0  0  0999 V2000
   10.9467    8.1864   23.5396 C   0  0  0  0  0  0  0  0  0  0  0  0
    9.4588    8.3284   23.5163 C   0  0  0  0  0  0  0  0  0  0  0  0
    8.9710    7.5883   22.2971 C   0  0  0  0  0  0  0  0  0  0  0  0
    8.9775    9.7114   23.2502 C   0  0  0  0  0  0  0  0  0  0  0  0
    9.2802   10.8075   24.1022 N   0  0  0  0  0  0  0  0  0  0  0  0
   10.2656   11.6740   23.7711 C   0  0  0  0  0  0  0  0  0  0  0  0
   10.0515   12.8597   24.4360 C   0  0  0  0  0  0  0  0  0  0  0  0
   10.9949   13.9549   24.3006 C   0  0  0  0  0  0  0  0  0  0  0  0
   11.4190   14.5350   25.2171 O   0  0  0  0  0  0  0  0  0  0  0  0
   11.3367   14.0646   22.8088 N   0  0  0  0  0  0  0  0  0  0  0  0
   12.3337   14.8382   22.1389 C   0  0  0  0  0  0  0  0  0  0  0  0
   12.5323   14.2966   20.7368 C   0  0  0  0  0  0  0  0  0  0  0  0
   11.1377   14.6924   19.6952 Cl  0  0  0  0  0  0  0  0  0  0  0  0
    8.8444   12.6954   25.1790 C   0  0  0  0  0  0  0  0  0  0  0  0
    8.0646   13.5333   25.9976 C   0  0  0  0  0  0  0  0  0  0  0  0
    6.9302   13.0134   26.6348 C   0  0  0  0  0  0  0  0  0  0  0  0
    6.5581   11.6827   26.4678 C   0  0  0  0  0  0  0  0  0  0  0  0
    7.2887   10.8374   25.6376 C   0  0  0  0  0  0  0  0  0  0  0  0
    8.4201   11.3713   25.0049 C   0  0  0  0  0  0  0  0  0  0  0  0
  1  2  1  0
  2  3  1  0
  2  4  1  0
  4  5  1  0
  5  6  1  0
  6  7  2  0
  7  8  1  0
  8  9  2  0
  8 10  1  0
 10 11  1  0
 11 12  1  0
 12 13  1  0
  7 14  1  0
 14 15  2  0
 15 16  1  0
 16 17  2  0
 17 18  1  0
 18 19  2  0
 19  5  1  0
 19 14  1  0
M  END
>  <alias>  (1330) 
None

>  <rmsd(smina/fragmenstein)>  (1330) 
0.798

>  <smiles>  (1330) 
CC(C)Cn1cc(C(=O)NCCCl)c2ccccc21

>  <gnina_score>  (1330) 
5.398

>  <inspiration_score>  (1330) 
None

>  <energy_score>  (1330) 
-3.294437

>  <distance_score>  (1330) 
0.995449

>  <gnina_score_min>  (1330) 
5.402

>  <inchikey>  (1330) 
FWXXVUWYWNBBJN-UHFFFAOYSA-N

>  <exports>  (1330) 
['/opt/xchem-fragalysis-2/maxwin/BulkDock/OUTPUTS/openbind_a71ev2a_c2_elabs_1LOUU54.sdf', '/opt/xchem-fragalysis-2/maxwin/BulkDock/OUTPUTS/openbind_a71ev2a_c2_elabs_1LSYIDY.sdf']

>  <name>  (1330) 
P577252

>  <ref_pdb>  (1330) 
A3066a

>  <subsites>  (1330) 
None

>  <HIPPO Pose ID>  (1330) 
577252

>  <ref_mols>  (1330) 
A3066a

>  <HIPPO Compound ID>  (1330) 
350887

>  <tags>  (1330) 
openbind_a71ev2a_c2_elabs,syndirella_product,openbind_a71ev2a_c2_elabs_fragonly_scored_top80percent,openbind_a71ev2a_c2_elabs_scored,BulkDock Fragalysis export,openbind_a71ev2a_c2_elabs_scored_top80percent,openbind_a71ev2a_c2_elabs_activefrags_only_scored_5.2plus,syndirella_placed

>  <smina_score_min>  (1330) 
-3.707

$$$$
P577253
     RDKit          3D

 19 20  0  0  0  0  0  0  0  0999 V2000
    9.8411   15.5269   19.7836 C   0  0  0  0  0  0  0  0  0  0  0  0
   10.4350   15.1322   20.7486 C   0  0  0  0  0  0  0  0  0  0  0  0
   11.1514   14.6006   21.9008 C   0  0  0  0  0  0  0  0  0  0  0  0
   10.2607   13.7605   22.6354 N   0  0  0  0  0  0  0  0  0  0  0  0
   10.1632   13.4875   24.1343 C   0  0  0  0  0  0  0  0  0  0  0  0
   10.7415   13.9596   25.0263 O   0  0  0  0  0  0  0  0  0  0  0  0
    9.2273   12.3772   24.3652 C   0  0  0  0  0  0  0  0  0  0  0  0
    9.3148   11.1042   23.8041 C   0  0  0  0  0  0  0  0  0  0  0  0
   10.3102   10.6437   22.8147 C   0  0  0  0  0  0  0  0  0  0  0  0
   10.3266    9.2070   22.3495 C   0  0  0  0  0  0  0  0  0  0  0  0
    8.4233   10.3020   24.4568 N   0  0  0  0  0  0  0  0  0  0  0  0
    8.3424    8.8704   24.3544 C   0  0  0  0  0  0  0  0  0  0  0  0
    7.6616   11.0445   25.3275 C   0  0  0  0  0  0  0  0  0  0  0  0
    6.6175   10.6645   26.1816 C   0  0  0  0  0  0  0  0  0  0  0  0
    6.0721   11.6393   27.0138 C   0  0  0  0  0  0  0  0  0  0  0  0
    6.5373   12.9475   26.9756 C   0  0  0  0  0  0  0  0  0  0  0  0
    5.8436   14.1219   28.0269 Cl  0  0  0  0  0  0  0  0  0  0  0  0
    7.5693   13.3236   26.1185 C   0  0  0  0  0  0  0  0  0  0  0  0
    8.1477   12.3513   25.2839 C   0  0  0  0  0  0  0  0  0  0  0  0
  1  2  3  0
  2  3  1  0
  3  4  1  0
  4  5  1  0
  5  6  2  0
  5  7  1  0
  7  8  2  0
  8  9  1  0
  9 10  1  0
  8 11  1  0
 11 12  1  0
 11 13  1  0
 13 14  2  0
 14 15  1  0
 15 16  2  0
 16 17  1  0
 16 18  1  0
 18 19  2  0
 19  7  1  0
 19 13  1  0
M  END
>  <alias>  (1331) 
None

>  <rmsd(smina/fragmenstein)>  (1331) 
1.215

>  <smiles>  (1331) 
C#CCNC(=O)c1c(CC)n(C)c2ccc(Cl)cc12

>  <gnina_score>  (1331) 
5.27

>  <inspiration_score>  (1331) 
None

>  <energy_score>  (1331) 
-0.05798

>  <distance_score>  (1331) 
1.27872

>  <gnina_score_min>  (1331) 
5.278

>  <inchikey>  (1331) 
VFGHRTJRVWUUHC-UHFFFAOYSA-N

>  <exports>  (1331) 
['/opt/xchem-fragalysis-2/maxwin/BulkDock/OUTPUTS/openbind_a71ev2a_c2_elabs_1LOUU54.sdf', '/opt/xchem-fragalysis-2/maxwin/BulkDock/OUTPUTS/openbind_a71ev2a_c2_elabs_1LSYIDY.sdf']

>  <name>  (1331) 
P577253

>  <ref_pdb>  (1331) 
A3066a

>  <subsites>  (1331) 
None

>  <HIPPO Pose ID>  (1331) 
577253

>  <ref_mols>  (1331) 
A3066a

>  <HIPPO Compound ID>  (1331) 
350898

>  <tags>  (1331) 
openbind_a71ev2a_c2_elabs,syndirella_product,openbind_a71ev2a_c2_elabs_fragonly_scored_top80percent,openbind_a71ev2a_c2_elabs_scored,BulkDock Fragalysis export,openbind_a71ev2a_c2_elabs_scored_top80percent,openbind_a71ev2a_c2_elabs_activefrags_only_scored_5.2plus,syndirella_placed

>  <smina_score_min>  (1331) 
-6.673

$$$$
P577255
     RDKit          3D

 19 20  0  0  0  0  0  0  0  0999 V2000
   10.2992    9.2036   22.2070 C   0  0  0  0  0  0  0  0  0  0  0  0
   10.2910   10.6011   22.7745 C   0  0  0  0  0  0  0  0  0  0  0  0
    9.2148   11.0194   23.6918 C   0  0  0  0  0  0  0  0  0  0  0  0
    8.8416   12.3133   24.0169 C   0  0  0  0  0  0  0  0  0  0  0  0
    9.3806   13.5394   23.4499 C   0  0  0  0  0  0  0  0  0  0  0  0
    8.6694   14.3431   23.0065 O   0  0  0  0  0  0  0  0  0  0  0  0
   10.8997   13.5560   23.6439 N   0  0  0  0  0  0  0  0  0  0  0  0
   11.8770   14.5238   23.2484 C   0  0  0  0  0  0  0  0  0  0  0  0
   11.6660   15.1454   21.8808 C   0  0  0  0  0  0  0  0  0  0  0  0
   12.3832   14.1431   20.5733 S   0  0  0  0  0  0  0  0  0  0  0  0
    7.8641   12.2316   25.0380 C   0  0  0  0  0  0  0  0  0  0  0  0
    7.1760   13.1989   25.7916 C   0  0  0  0  0  0  0  0  0  0  0  0
    6.2830   12.7753   26.7722 C   0  0  0  0  0  0  0  0  0  0  0  0
    5.4575   13.9439   27.7295 Cl  0  0  0  0  0  0  0  0  0  0  0  0
    6.0454   11.4248   26.9924 C   0  0  0  0  0  0  0  0  0  0  0  0
    6.6896   10.4529   26.2293 C   0  0  0  0  0  0  0  0  0  0  0  0
    7.6237   10.8806   25.2776 C   0  0  0  0  0  0  0  0  0  0  0  0
    8.4391   10.1736   24.4264 N   0  0  0  0  0  0  0  0  0  0  0  0
    8.4538    8.7435   24.3271 C   0  0  0  0  0  0  0  0  0  0  0  0
  1  2  1  0
  2  3  1  0
  3  4  2  0
  4  5  1  0
  5  6  2  0
  5  7  1  0
  7  8  1  0
  8  9  1  0
  9 10  1  0
  4 11  1  0
 11 12  2  0
 12 13  1  0
 13 14  1  0
 13 15  2  0
 15 16  1  0
 16 17  2  0
 17 18  1  0
 18 19  1  0
 18  3  1  0
 17 11  1  0
M  END
>  <alias>  (1332) 
None

>  <rmsd(smina/fragmenstein)>  (1332) 
1.447

>  <smiles>  (1332) 
CCc1c(C(=O)NCCS)c2cc(Cl)ccc2n1C

>  <gnina_score>  (1332) 
5.361

>  <inspiration_score>  (1332) 
None

>  <energy_score>  (1332) 
-4.510665

>  <distance_score>  (1332) 
1.494449

>  <gnina_score_min>  (1332) 
5.406

>  <inchikey>  (1332) 
LUQWXKTZFVCNPI-UHFFFAOYSA-N

>  <exports>  (1332) 
['/opt/xchem-fragalysis-2/maxwin/BulkDock/OUTPUTS/openbind_a71ev2a_c2_elabs_1LOUU54.sdf', '/opt/xchem-fragalysis-2/maxwin/BulkDock/OUTPUTS/openbind_a71ev2a_c2_elabs_1LSYIDY.sdf']

>  <name>  (1332) 
P577255

>  <ref_pdb>  (1332) 
A3066a

>  <subsites>  (1332) 
None

>  <HIPPO Pose ID>  (1332) 
577255

>  <ref_mols>  (1332) 
A3066a

>  <HIPPO Compound ID>  (1332) 
350902

>  <tags>  (1332) 
openbind_a71ev2a_c2_elabs,syndirella_product,openbind_a71ev2a_c2_elabs_fragonly_scored_top80percent,openbind_a71ev2a_c2_elabs_scored,BulkDock Fragalysis export,openbind_a71ev2a_c2_elabs_scored_top80percent,openbind_a71ev2a_c2_elabs_activefrags_only_scored_5.2plus,syndirella_placed

>  <smina_score_min>  (1332) 
-5.454

$$$$
P577256
     RDKit          3D

 19 21  0  0  0  0  0  0  0  0999 V2000
   11.6904   12.5227   23.8000 C   0  0  0  0  0  0  0  0  0  0  0  0
   10.7724   11.5289   23.0761 C   0  0  0  0  0  0  0  0  0  0  0  0
    9.3977   11.4764   23.6161 C   0  0  0  0  0  0  0  0  0  0  0  0
    8.5813   12.5259   23.9759 C   0  0  0  0  0  0  0  0  0  0  0  0
    8.9065   13.8948   23.6872 C   0  0  0  0  0  0  0  0  0  0  0  0
    8.8151   14.7017   24.5381 O   0  0  0  0  0  0  0  0  0  0  0  0
    9.4283   14.0191   22.2703 N   0  0  0  0  0  0  0  0  0  0  0  0
   10.0773   15.1812   21.5591 C   0  0  0  0  0  0  0  0  0  0  0  0
    8.7840   15.8060   21.1884 C   0  0  0  0  0  0  0  0  0  0  0  0
    8.2970   14.3979   21.2809 C   0  0  0  0  0  0  0  0  0  0  0  0
    7.6999   12.0181   24.9489 C   0  0  0  0  0  0  0  0  0  0  0  0
    6.8508   12.6279   25.8894 C   0  0  0  0  0  0  0  0  0  0  0  0
    6.1259   11.8210   26.7580 C   0  0  0  0  0  0  0  0  0  0  0  0
    5.1290   12.5473   27.9595 Cl  0  0  0  0  0  0  0  0  0  0  0  0
    6.1838   10.4370   26.6582 C   0  0  0  0  0  0  0  0  0  0  0  0
    6.9978    9.8248   25.7047 C   0  0  0  0  0  0  0  0  0  0  0  0
    7.7972   10.6276   24.8991 C   0  0  0  0  0  0  0  0  0  0  0  0
    8.7684   10.3151   23.9751 N   0  0  0  0  0  0  0  0  0  0  0  0
    9.1584    8.9869   23.5441 C   0  0  0  0  0  0  0  0  0  0  0  0
  1  2  1  0
  2  3  1  0
  3  4  2  0
  4  5  1  0
  5  6  2  0
  5  7  1  0
  7  8  1  0
  8  9  1  0
  9 10  1  0
  4 11  1  0
 11 12  2  0
 12 13  1  0
 13 14  1  0
 13 15  2  0
 15 16  1  0
 16 17  2  0
 17 18  1  0
 18 19  1  0
 18  3  1  0
 10  7  1  0
 17 11  1  0
M  END
>  <alias>  (1333) 
None

>  <rmsd(smina/fragmenstein)>  (1333) 
0.488

>  <smiles>  (1333) 
CCc1c(C(=O)N2CCC2)c2cc(Cl)ccc2n1C

>  <gnina_score>  (1333) 
5.403

>  <inspiration_score>  (1333) 
None

>  <energy_score>  (1333) 
-8.807286

>  <distance_score>  (1333) 
1.54026

>  <gnina_score_min>  (1333) 
5.484

>  <inchikey>  (1333) 
LNTWOBPNFKZNAF-UHFFFAOYSA-N

>  <exports>  (1333) 
['/opt/xchem-fragalysis-2/maxwin/BulkDock/OUTPUTS/openbind_a71ev2a_c2_elabs_1LOUU54.sdf', '/opt/xchem-fragalysis-2/maxwin/BulkDock/OUTPUTS/openbind_a71ev2a_c2_elabs_1LSYIDY.sdf']

>  <name>  (1333) 
P577256

>  <ref_pdb>  (1333) 
A3066a

>  <subsites>  (1333) 
None

>  <HIPPO Pose ID>  (1333) 
577256

>  <ref_mols>  (1333) 
A3066a

>  <HIPPO Compound ID>  (1333) 
350903

>  <tags>  (1333) 
openbind_a71ev2a_c2_elabs,syndirella_product,openbind_a71ev2a_c2_elabs_fragonly_scored_top80percent,openbind_a71ev2a_c2_elabs_scored,BulkDock Fragalysis export,openbind_a71ev2a_c2_elabs_scored_top80percent,openbind_a71ev2a_c2_elabs_activefrags_only_scored_5.2plus,syndirella_placed

>  <smina_score_min>  (1333) 
-4.988

$$$$
P577257
     RDKit          3D

 19 20  0  0  0  0  0  0  0  0999 V2000
   10.7743    8.6049   23.2571 C   0  0  0  0  0  0  0  0  0  0  0  0
   10.1844    9.8980   22.7057 C   0  0  0  0  0  0  0  0  0  0  0  0
    9.4736   10.7614   23.6959 C   0  0  0  0  0  0  0  0  0  0  0  0
    9.6243   12.0783   24.1347 C   0  0  0  0  0  0  0  0  0  0  0  0
   10.6598   13.0713   23.8097 C   0  0  0  0  0  0  0  0  0  0  0  0
   11.1103   13.7304   24.6561 O   0  0  0  0  0  0  0  0  0  0  0  0
   10.8873   13.1062   22.2992 N   0  0  0  0  0  0  0  0  0  0  0  0
   11.7927   13.8990   21.5057 C   0  0  0  0  0  0  0  0  0  0  0  0
   10.9767   14.7204   20.5163 C   0  0  0  0  0  0  0  0  0  0  0  0
   12.7194   14.7671   22.3208 C   0  0  0  0  0  0  0  0  0  0  0  0
    8.5441   12.3371   25.0456 C   0  0  0  0  0  0  0  0  0  0  0  0
    8.1183   13.4755   25.7580 C   0  0  0  0  0  0  0  0  0  0  0  0
    7.0349   13.3681   26.6320 C   0  0  0  0  0  0  0  0  0  0  0  0
    6.5426   14.7502   27.5340 Cl  0  0  0  0  0  0  0  0  0  0  0  0
    6.3676   12.1632   26.8105 C   0  0  0  0  0  0  0  0  0  0  0  0
    6.7610   11.0293   26.1075 C   0  0  0  0  0  0  0  0  0  0  0  0
    7.8437   11.1524   25.2253 C   0  0  0  0  0  0  0  0  0  0  0  0
    8.4372   10.2335   24.4110 N   0  0  0  0  0  0  0  0  0  0  0  0
    8.0262    8.8676   24.3318 C   0  0  0  0  0  0  0  0  0  0  0  0
  1  2  1  0
  2  3  1  0
  3  4  2  0
  4  5  1  0
  5  6  2  0
  5  7  1  0
  7  8  1  0
  8  9  1  0
  8 10  1  0
  4 11  1  0
 11 12  2  0
 12 13  1  0
 13 14  1  0
 13 15  2  0
 15 16  1  0
 16 17  2  0
 17 18  1  0
 18 19  1  0
 18  3  1  0
 17 11  1  0
M  END
>  <alias>  (1334) 
None

>  <rmsd(smina/fragmenstein)>  (1334) 
1.007

>  <smiles>  (1334) 
CCc1c(C(=O)NC(C)C)c2cc(Cl)ccc2n1C

>  <gnina_score>  (1334) 
5.492

>  <inspiration_score>  (1334) 
None

>  <energy_score>  (1334) 
-9.187077

>  <distance_score>  (1334) 
1.150791

>  <gnina_score_min>  (1334) 
5.507

>  <inchikey>  (1334) 
MZSRJDZBYXVNCK-UHFFFAOYSA-N

>  <exports>  (1334) 
['/opt/xchem-fragalysis-2/maxwin/BulkDock/OUTPUTS/openbind_a71ev2a_c2_elabs_1LOUU54.sdf', '/opt/xchem-fragalysis-2/maxwin/BulkDock/OUTPUTS/openbind_a71ev2a_c2_elabs_1LSYIDY.sdf']

>  <name>  (1334) 
P577257

>  <ref_pdb>  (1334) 
A3066a

>  <subsites>  (1334) 
None

>  <HIPPO Pose ID>  (1334) 
577257

>  <ref_mols>  (1334) 
A3066a

>  <HIPPO Compound ID>  (1334) 
350907

>  <tags>  (1334) 
openbind_a71ev2a_c2_elabs,syndirella_product,openbind_a71ev2a_c2_elabs_fragonly_scored_top80percent,BulkDock Fragalysis export,openbind_a71ev2a_c2_elabs_scored,openbind_a71ev2a_c2_elabs_scored_top80percent,openbind_a71ev2a_c2_elabs_activefrags_only_scored_5.2plus,openbind_a71ev2a_c2_elabs_activefrags_only_scored_5.5plus,syndirella_placed

>  <smina_score_min>  (1334) 
-6.109

$$$$
P577263
     RDKit          3D

 19 20  0  0  0  0  0  0  0  0999 V2000
    9.9287    8.8361   21.8537 C   0  0  0  0  0  0  0  0  0  0  0  0
    9.2040    8.8666   23.1595 C   0  0  0  0  0  0  0  0  0  0  0  0
    9.9386    7.8796   23.9911 C   0  0  0  0  0  0  0  0  0  0  0  0
    9.2078   10.1897   23.7509 N   0  0  0  0  0  0  0  0  0  0  0  0
   10.0876   11.1545   23.3826 C   0  0  0  0  0  0  0  0  0  0  0  0
    9.6794   12.3491   23.8954 C   0  0  0  0  0  0  0  0  0  0  0  0
   10.3590   13.5788   23.5842 C   0  0  0  0  0  0  0  0  0  0  0  0
   10.6012   14.3363   24.4362 O   0  0  0  0  0  0  0  0  0  0  0  0
   10.6374   13.6566   22.0645 N   0  0  0  0  0  0  0  0  0  0  0  0
   11.1874   14.7275   21.2649 C   0  0  0  0  0  0  0  0  0  0  0  0
   12.3959   15.2338   22.0376 C   0  0  0  0  0  0  0  0  0  0  0  0
   11.6833   14.2731   19.8913 C   0  0  0  0  0  0  0  0  0  0  0  0
   10.0454   15.7247   21.0341 C   0  0  0  0  0  0  0  0  0  0  0  0
    8.5898   12.0735   24.7644 C   0  0  0  0  0  0  0  0  0  0  0  0
    7.7899   12.8645   25.6109 C   0  0  0  0  0  0  0  0  0  0  0  0
    6.7835   12.2598   26.3689 C   0  0  0  0  0  0  0  0  0  0  0  0
    6.5551   10.8908   26.2791 C   0  0  0  0  0  0  0  0  0  0  0  0
    7.3076   10.0918   25.4169 C   0  0  0  0  0  0  0  0  0  0  0  0
    8.3234   10.7006   24.6714 C   0  0  0  0  0  0  0  0  0  0  0  0
  1  2  1  0
  2  3  1  0
  2  4  1  0
  4  5  1  0
  5  6  2  0
  6  7  1  0
  7  8  2  0
  7  9  1  0
  9 10  1  0
 10 11  1  0
 10 12  1  0
 10 13  1  0
  6 14  1  0
 14 15  2  0
 15 16  1  0
 16 17  2  0
 17 18  1  0
 18 19  2  0
 19  4  1  0
 19 14  1  0
M  END
>  <alias>  (1335) 
None

>  <rmsd(smina/fragmenstein)>  (1335) 
0.352

>  <smiles>  (1335) 
CC(C)n1cc(C(=O)NC(C)(C)C)c2ccccc21

>  <gnina_score>  (1335) 
5.51

>  <inspiration_score>  (1335) 
None

>  <energy_score>  (1335) 
-8.430986

>  <distance_score>  (1335) 
0.634754

>  <gnina_score_min>  (1335) 
5.498

>  <inchikey>  (1335) 
FDXGPVAXYQUXFN-UHFFFAOYSA-N

>  <exports>  (1335) 
['/opt/xchem-fragalysis-2/maxwin/BulkDock/OUTPUTS/openbind_a71ev2a_c2_elabs_1LOUU54.sdf', '/opt/xchem-fragalysis-2/maxwin/BulkDock/OUTPUTS/openbind_a71ev2a_c2_elabs_1LSYIDY.sdf']

>  <name>  (1335) 
P577263

>  <ref_pdb>  (1335) 
A3066a

>  <subsites>  (1335) 
None

>  <HIPPO Pose ID>  (1335) 
577263

>  <ref_mols>  (1335) 
A3066a

>  <HIPPO Compound ID>  (1335) 
351007

>  <tags>  (1335) 
openbind_a71ev2a_c2_elabs,syndirella_product,openbind_a71ev2a_c2_elabs_fragonly_scored_top80percent,openbind_a71ev2a_c2_elabs_scored,BulkDock Fragalysis export,openbind_a71ev2a_c2_elabs_scored_top80percent,openbind_a71ev2a_c2_elabs_activefrags_only_scored_5.2plus,syndirella_placed

>  <smina_score_min>  (1335) 
-4.442

$$$$
P577264
     RDKit          3D

 19 20  0  0  0  0  0  0  0  0999 V2000
    9.0758    8.4493   23.4882 C   0  0  0  0  0  0  0  0  0  0  0  0
    9.0368    9.8598   23.7613 N   0  0  0  0  0  0  0  0  0  0  0  0
    9.9253   10.7210   23.2082 C   0  0  0  0  0  0  0  0  0  0  0  0
    9.8312   11.9273   23.8689 C   0  0  0  0  0  0  0  0  0  0  0  0
   10.7827   13.0203   23.7454 C   0  0  0  0  0  0  0  0  0  0  0  0
   10.9783   13.7342   24.6437 O   0  0  0  0  0  0  0  0  0  0  0  0
   11.4329   12.9643   22.3636 N   0  0  0  0  0  0  0  0  0  0  0  0
   12.3913   13.8265   21.7545 C   0  0  0  0  0  0  0  0  0  0  0  0
   11.7420   15.1323   21.3476 C   0  0  0  0  0  0  0  0  0  0  0  0
   12.1779   16.1191   21.9972 O   0  0  0  0  0  0  0  0  0  0  0  0
   10.8636   15.0811   20.4372 O   0  0  0  0  0  0  0  0  0  0  0  0
    8.6955   11.8394   24.7241 C   0  0  0  0  0  0  0  0  0  0  0  0
    8.0375   12.7465   25.5805 C   0  0  0  0  0  0  0  0  0  0  0  0
    6.9638   12.2971   26.3471 C   0  0  0  0  0  0  0  0  0  0  0  0
    6.3655   13.1428   27.1973 F   0  0  0  0  0  0  0  0  0  0  0  0
    6.5166   10.9899   26.2722 C   0  0  0  0  0  0  0  0  0  0  0  0
    7.1335   10.1038   25.4008 C   0  0  0  0  0  0  0  0  0  0  0  0
    6.6533    8.8659   25.2707 F   0  0  0  0  0  0  0  0  0  0  0  0
    8.2272   10.5244   24.6466 C   0  0  0  0  0  0  0  0  0  0  0  0
  1  2  1  0
  2  3  1  0
  3  4  2  0
  4  5  1  0
  5  6  2  0
  5  7  1  0
  7  8  1  0
  8  9  1  0
  9 10  2  0
  9 11  1  0
  4 12  1  0
 12 13  2  0
 13 14  1  0
 14 15  1  0
 14 16  2  0
 16 17  1  0
 17 18  1  0
 17 19  2  0
 19  2  1  0
 19 12  1  0
M  CHG  1  11  -1
M  END
>  <alias>  (1336) 
None

>  <rmsd(smina/fragmenstein)>  (1336) 
0.461

>  <smiles>  (1336) 
Cn1cc(C(=O)NCC(=O)[O-])c2cc(F)cc(F)c21

>  <gnina_score>  (1336) 
5.378

>  <inspiration_score>  (1336) 
None

>  <energy_score>  (1336) 
-11.048241

>  <distance_score>  (1336) 
0.443698

>  <gnina_score_min>  (1336) 
5.243

>  <inchikey>  (1336) 
FKJUUQHBOIZMCJ-UHFFFAOYSA-M

>  <exports>  (1336) 
['/opt/xchem-fragalysis-2/maxwin/BulkDock/OUTPUTS/openbind_a71ev2a_c2_elabs_1LOUU54.sdf', '/opt/xchem-fragalysis-2/maxwin/BulkDock/OUTPUTS/openbind_a71ev2a_c2_elabs_1LSYIDY.sdf']

>  <name>  (1336) 
P577264

>  <ref_pdb>  (1336) 
A3066a

>  <subsites>  (1336) 
None

>  <HIPPO Pose ID>  (1336) 
577264

>  <ref_mols>  (1336) 
A3066a

>  <HIPPO Compound ID>  (1336) 
351009

>  <tags>  (1336) 
openbind_a71ev2a_c2_elabs,syndirella_product,openbind_a71ev2a_c2_elabs_fragonly_scored_top80percent,openbind_a71ev2a_c2_elabs_scored,BulkDock Fragalysis export,openbind_a71ev2a_c2_elabs_scored_top80percent,openbind_a71ev2a_c2_elabs_activefrags_only_scored_5.2plus,syndirella_placed

>  <smina_score_min>  (1336) 
-6.155

$$$$
P577265
     RDKit          3D

 19 20  0  0  0  0  0  0  0  0999 V2000
   13.0702   14.7827   21.2468 C   0  0  0  0  0  0  0  0  0  0  0  0
   11.6395   14.3895   21.0069 C   0  0  2  0  0  0  0  0  0  0  0  0
   11.0448   14.8008   19.3403 S   0  0  0  0  0  0  0  0  0  0  0  0
   10.7419   14.9813   22.0703 C   0  0  0  0  0  0  0  0  0  0  0  0
   10.1044   13.9087   22.7431 N   0  0  0  0  0  0  0  0  0  0  0  0
   10.2307   13.4288   24.1781 C   0  0  0  0  0  0  0  0  0  0  0  0
   10.8188   13.8759   25.0724 O   0  0  0  0  0  0  0  0  0  0  0  0
    9.5293   12.1765   24.2477 C   0  0  0  0  0  0  0  0  0  0  0  0
    9.8240   11.0802   23.4593 C   0  0  0  0  0  0  0  0  0  0  0  0
    9.0249   10.0519   23.8614 N   0  0  0  0  0  0  0  0  0  0  0  0
    9.1661    8.6938   23.3856 C   0  0  0  0  0  0  0  0  0  0  0  0
    8.1271   10.5137   24.7988 C   0  0  0  0  0  0  0  0  0  0  0  0
    7.0664    9.8981   25.4534 C   0  0  0  0  0  0  0  0  0  0  0  0
    6.7191    8.6547   25.1393 F   0  0  0  0  0  0  0  0  0  0  0  0
    6.3348   10.5904   26.4074 C   0  0  0  0  0  0  0  0  0  0  0  0
    6.6249   11.9182   26.6565 C   0  0  0  0  0  0  0  0  0  0  0  0
    5.9079   12.5875   27.5686 F   0  0  0  0  0  0  0  0  0  0  0  0
    7.6536   12.5734   25.9879 C   0  0  0  0  0  0  0  0  0  0  0  0
    8.4285   11.8500   25.0608 C   0  0  0  0  0  0  0  0  0  0  0  0
  2  1  1  1
  2  3  1  0
  2  4  1  0
  4  5  1  0
  5  6  1  0
  6  7  2  0
  6  8  1  0
  8  9  2  0
  9 10  1  0
 10 11  1  0
 10 12  1  0
 12 13  2  0
 13 14  1  0
 13 15  1  0
 15 16  2  0
 16 17  1  0
 16 18  1  0
 18 19  2  0
 19  8  1  0
 19 12  1  0
M  END
>  <alias>  (1337) 
None

>  <rmsd(smina/fragmenstein)>  (1337) 
0.537

>  <smiles>  (1337) 
C[C@H](S)CNC(=O)c1cn(C)c2c(F)cc(F)cc12

>  <gnina_score>  (1337) 
5.455

>  <inspiration_score>  (1337) 
None

>  <energy_score>  (1337) 
-15.651299

>  <distance_score>  (1337) 
0.876578

>  <gnina_score_min>  (1337) 
5.498

>  <inchikey>  (1337) 
QHKWPVUGWAOFNT-ZETCQYMHSA-N

>  <exports>  (1337) 
['/opt/xchem-fragalysis-2/maxwin/BulkDock/OUTPUTS/openbind_a71ev2a_c2_elabs_1LOUU54.sdf', '/opt/xchem-fragalysis-2/maxwin/BulkDock/OUTPUTS/openbind_a71ev2a_c2_elabs_1LSYIDY.sdf']

>  <name>  (1337) 
P577265

>  <ref_pdb>  (1337) 
A3066a

>  <subsites>  (1337) 
None

>  <HIPPO Pose ID>  (1337) 
577265

>  <ref_mols>  (1337) 
A3066a

>  <HIPPO Compound ID>  (1337) 
351015

>  <tags>  (1337) 
openbind_a71ev2a_c2_elabs,syndirella_product,openbind_a71ev2a_c2_elabs_fragonly_scored_top80percent,openbind_a71ev2a_c2_elabs_scored,BulkDock Fragalysis export,openbind_a71ev2a_c2_elabs_scored_top80percent,openbind_a71ev2a_c2_elabs_activefrags_only_scored_5.2plus,syndirella_placed

>  <smina_score_min>  (1337) 
-5.378

$$$$
P577267
     RDKit          3D

 19 20  0  0  0  0  0  0  0  0999 V2000
    9.1101   14.9793   21.1245 C   0  0  0  0  0  0  0  0  0  0  0  0
   10.5871   15.3308   20.9768 C   0  0  2  0  0  0  0  0  0  0  0  0
   11.1586   14.7315   19.2079 Br  0  0  0  0  0  0  0  0  0  0  0  0
   11.5801   14.7278   21.9777 C   0  0  0  0  0  0  0  0  0  0  0  0
   10.9943   13.5795   22.5801 N   0  0  0  0  0  0  0  0  0  0  0  0
   10.4609   13.3644   23.9910 C   0  0  0  0  0  0  0  0  0  0  0  0
   10.4808   14.0632   24.9187 O   0  0  0  0  0  0  0  0  0  0  0  0
    9.7558   12.0950   24.0555 C   0  0  0  0  0  0  0  0  0  0  0  0
    9.9885   10.9571   23.3114 C   0  0  0  0  0  0  0  0  0  0  0  0
    9.1530    9.9720   23.7540 N   0  0  0  0  0  0  0  0  0  0  0  0
    9.2362    8.5986   23.3127 C   0  0  0  0  0  0  0  0  0  0  0  0
    8.2745   10.4915   24.6756 C   0  0  0  0  0  0  0  0  0  0  0  0
    7.1992    9.9314   25.3616 C   0  0  0  0  0  0  0  0  0  0  0  0
    6.8267    8.6771   25.1225 F   0  0  0  0  0  0  0  0  0  0  0  0
    6.4769   10.6883   26.2728 C   0  0  0  0  0  0  0  0  0  0  0  0
    6.7977   12.0188   26.4542 C   0  0  0  0  0  0  0  0  0  0  0  0
    6.0929   12.7505   27.3266 F   0  0  0  0  0  0  0  0  0  0  0  0
    7.8491   12.6106   25.7608 C   0  0  0  0  0  0  0  0  0  0  0  0
    8.6204   11.8275   24.8739 C   0  0  0  0  0  0  0  0  0  0  0  0
  2  1  1  1
  2  3  1  0
  2  4  1  0
  4  5  1  0
  5  6  1  0
  6  7  2  0
  6  8  1  0
  8  9  2  0
  9 10  1  0
 10 11  1  0
 10 12  1  0
 12 13  2  0
 13 14  1  0
 13 15  1  0
 15 16  2  0
 16 17  1  0
 16 18  1  0
 18 19  2  0
 19  8  1  0
 19 12  1  0
M  END
>  <alias>  (1338) 
None

>  <rmsd(smina/fragmenstein)>  (1338) 
0.678

>  <smiles>  (1338) 
C[C@H](Br)CNC(=O)c1cn(C)c2c(F)cc(F)cc12

>  <gnina_score>  (1338) 
5.707

>  <inspiration_score>  (1338) 
None

>  <energy_score>  (1338) 
-2.996639

>  <distance_score>  (1338) 
0.513603

>  <gnina_score_min>  (1338) 
5.797

>  <inchikey>  (1338) 
RTIGPSFQIKGKIV-ZETCQYMHSA-N

>  <exports>  (1338) 
['/opt/xchem-fragalysis-2/maxwin/BulkDock/OUTPUTS/openbind_a71ev2a_c2_elabs_1LOUU54.sdf', '/opt/xchem-fragalysis-2/maxwin/BulkDock/OUTPUTS/openbind_a71ev2a_c2_elabs_1LSYIDY.sdf']

>  <name>  (1338) 
P577267

>  <ref_pdb>  (1338) 
A3066a

>  <subsites>  (1338) 
None

>  <HIPPO Pose ID>  (1338) 
577267

>  <ref_mols>  (1338) 
A3066a

>  <HIPPO Compound ID>  (1338) 
351017

>  <tags>  (1338) 
openbind_a71ev2a_c2_elabs,syndirella_product,openbind_a71ev2a_c2_elabs_fragonly_scored_top80percent,BulkDock Fragalysis export,openbind_a71ev2a_c2_elabs_scored,openbind_a71ev2a_c2_elabs_scored_top80percent,openbind_a71ev2a_c2_elabs_activefrags_only_scored_5.2plus,openbind_a71ev2a_c2_elabs_activefrags_only_scored_5.5plus,syndirella_placed

>  <smina_score_min>  (1338) 
-6.48

$$$$
P577269
     RDKit          3D

 19 21  0  0  0  0  0  0  0  0999 V2000
    9.2855    8.6869   23.2319 C   0  0  0  0  0  0  0  0  0  0  0  0
    9.1930   10.0602   23.6760 N   0  0  0  0  0  0  0  0  0  0  0  0
   10.0014   11.0632   23.2212 C   0  0  0  0  0  0  0  0  0  0  0  0
    9.7914   12.1773   24.0056 C   0  0  0  0  0  0  0  0  0  0  0  0
   10.5556   13.4123   23.9878 C   0  0  0  0  0  0  0  0  0  0  0  0
   10.6857   14.0369   24.9752 O   0  0  0  0  0  0  0  0  0  0  0  0
   10.9834   13.7160   22.5862 N   0  0  0  0  0  0  0  0  0  0  0  0
   11.8006   14.8675   22.0272 C   0  0  0  0  0  0  0  0  0  0  0  0
   10.8123   15.2723   21.0021 C   0  0  0  0  0  0  0  0  0  0  0  0
   11.1859   14.6236   19.3584 S   0  0  0  0  0  0  0  0  0  0  0  0
    9.8689   14.4866   21.8029 C   0  0  0  0  0  0  0  0  0  0  0  0
    8.6620   11.8989   24.8259 C   0  0  0  0  0  0  0  0  0  0  0  0
    7.9011   12.6662   25.7341 C   0  0  0  0  0  0  0  0  0  0  0  0
    6.8575   12.0601   26.4285 C   0  0  0  0  0  0  0  0  0  0  0  0
    6.1558   12.7779   27.3154 F   0  0  0  0  0  0  0  0  0  0  0  0
    6.5448   10.7278   26.2397 C   0  0  0  0  0  0  0  0  0  0  0  0
    7.2680    9.9802   25.3206 C   0  0  0  0  0  0  0  0  0  0  0  0
    6.9188    8.7151   25.0972 F   0  0  0  0  0  0  0  0  0  0  0  0
    8.3228   10.5614   24.6179 C   0  0  0  0  0  0  0  0  0  0  0  0
  1  2  1  0
  2  3  1  0
  3  4  2  0
  4  5  1  0
  5  6  2  0
  5  7  1  0
  7  8  1  0
  8  9  1  0
  9 10  1  0
  9 11  1  0
  4 12  1  0
 12 13  2  0
 13 14  1  0
 14 15  1  0
 14 16  2  0
 16 17  1  0
 17 18  1  0
 17 19  2  0
 19  2  1  0
 11  7  1  0
 19 12  1  0
M  END
>  <alias>  (1339) 
None

>  <rmsd(smina/fragmenstein)>  (1339) 
0.565

>  <smiles>  (1339) 
Cn1cc(C(=O)N2CC(S)C2)c2cc(F)cc(F)c21

>  <gnina_score>  (1339) 
5.654

>  <inspiration_score>  (1339) 
None

>  <energy_score>  (1339) 
-1.612378

>  <distance_score>  (1339) 
0.449282

>  <gnina_score_min>  (1339) 
5.767

>  <inchikey>  (1339) 
PCWIUDDUQFEOIH-UHFFFAOYSA-N

>  <exports>  (1339) 
['/opt/xchem-fragalysis-2/maxwin/BulkDock/OUTPUTS/openbind_a71ev2a_c2_elabs_1LOUU54.sdf', '/opt/xchem-fragalysis-2/maxwin/BulkDock/OUTPUTS/openbind_a71ev2a_c2_elabs_1LSYIDY.sdf']

>  <name>  (1339) 
P577269

>  <ref_pdb>  (1339) 
A3066a

>  <subsites>  (1339) 
None

>  <HIPPO Pose ID>  (1339) 
577269

>  <ref_mols>  (1339) 
A3066a

>  <HIPPO Compound ID>  (1339) 
351019

>  <tags>  (1339) 
openbind_a71ev2a_c2_elabs,syndirella_product,openbind_a71ev2a_c2_elabs_fragonly_scored_top80percent,BulkDock Fragalysis export,openbind_a71ev2a_c2_elabs_scored,openbind_a71ev2a_c2_elabs_scored_top80percent,openbind_a71ev2a_c2_elabs_activefrags_only_scored_5.2plus,openbind_a71ev2a_c2_elabs_activefrags_only_scored_5.5plus,syndirella_placed

>  <smina_score_min>  (1339) 
-6.932

$$$$
P577270
     RDKit          3D

 19 20  0  0  0  0  0  0  0  0999 V2000
    9.2262    8.6024   23.3867 C   0  0  0  0  0  0  0  0  0  0  0  0
    9.0721    9.9742   23.8130 N   0  0  0  0  0  0  0  0  0  0  0  0
    9.8297   11.0022   23.3351 C   0  0  0  0  0  0  0  0  0  0  0  0
    9.4866   12.1369   24.0383 C   0  0  0  0  0  0  0  0  0  0  0  0
   10.0257   13.4501   23.8311 C   0  0  0  0  0  0  0  0  0  0  0  0
   10.4054   14.1049   24.7134 O   0  0  0  0  0  0  0  0  0  0  0  0
    9.8866   13.7739   22.3456 N   0  0  0  0  0  0  0  0  0  0  0  0
   10.2682   14.9286   21.6131 C   0  0  0  0  0  0  0  0  0  0  0  0
   11.6859   15.3138   21.9864 C   0  0  0  0  0  0  0  0  0  0  0  0
   12.6560   14.4592   21.3132 N   0  0  0  0  0  0  0  0  0  0  0  0
   13.8106   15.3248   21.2453 O   0  0  0  0  0  0  0  0  0  0  0  0
    8.4495   11.8086   24.9354 C   0  0  0  0  0  0  0  0  0  0  0  0
    7.6791   12.5559   25.8496 C   0  0  0  0  0  0  0  0  0  0  0  0
    6.6741   11.9134   26.5643 C   0  0  0  0  0  0  0  0  0  0  0  0
    5.9591   12.6075   27.4590 F   0  0  0  0  0  0  0  0  0  0  0  0
    6.3963   10.5755   26.3659 C   0  0  0  0  0  0  0  0  0  0  0  0
    7.1296    9.8581   25.4313 C   0  0  0  0  0  0  0  0  0  0  0  0
    6.7843    8.6067   25.1555 F   0  0  0  0  0  0  0  0  0  0  0  0
    8.1780   10.4570   24.7435 C   0  0  0  0  0  0  0  0  0  0  0  0
  1  2  1  0
  2  3  1  0
  3  4  2  0
  4  5  1  0
  5  6  2  0
  5  7  1  0
  7  8  1  0
  8  9  1  0
  9 10  1  0
 10 11  1  0
  4 12  1  0
 12 13  2  0
 13 14  1  0
 14 15  1  0
 14 16  2  0
 16 17  1  0
 17 18  1  0
 17 19  2  0
 19  2  1  0
 19 12  1  0
M  END
>  <alias>  (1340) 
None

>  <rmsd(smina/fragmenstein)>  (1340) 
0.854

>  <smiles>  (1340) 
Cn1cc(C(=O)NCCNO)c2cc(F)cc(F)c21

>  <gnina_score>  (1340) 
5.511

>  <inspiration_score>  (1340) 
None

>  <energy_score>  (1340) 
-0.619785

>  <distance_score>  (1340) 
0.933437

>  <gnina_score_min>  (1340) 
5.78

>  <inchikey>  (1340) 
HDUFQRIYBHQDFL-UHFFFAOYSA-N

>  <exports>  (1340) 
['/opt/xchem-fragalysis-2/maxwin/BulkDock/OUTPUTS/openbind_a71ev2a_c2_elabs_1LOUU54.sdf', '/opt/xchem-fragalysis-2/maxwin/BulkDock/OUTPUTS/openbind_a71ev2a_c2_elabs_1LSYIDY.sdf']

>  <name>  (1340) 
P577270

>  <ref_pdb>  (1340) 
A3066a

>  <subsites>  (1340) 
None

>  <HIPPO Pose ID>  (1340) 
577270

>  <ref_mols>  (1340) 
A3066a

>  <HIPPO Compound ID>  (1340) 
351022

>  <tags>  (1340) 
openbind_a71ev2a_c2_elabs,syndirella_product,openbind_a71ev2a_c2_elabs_fragonly_scored_top80percent,BulkDock Fragalysis export,openbind_a71ev2a_c2_elabs_scored,openbind_a71ev2a_c2_elabs_scored_top80percent,openbind_a71ev2a_c2_elabs_activefrags_only_scored_5.2plus,openbind_a71ev2a_c2_elabs_activefrags_only_scored_5.5plus,syndirella_placed

>  <smina_score_min>  (1340) 
-6.994

$$$$
P577271
     RDKit          3D

 19 20  0  0  0  0  0  0  0  0999 V2000
   12.6013   14.2920   22.8772 C   0  0  0  0  0  0  0  0  0  0  0  0
   12.0628   14.8730   21.5730 C   0  0  0  0  0  0  0  0  0  0  0  0
   12.7112   14.1714   20.3965 C   0  0  0  0  0  0  0  0  0  0  0  0
   10.5501   14.8150   21.4233 C   0  0  0  0  0  0  0  0  0  0  0  0
   10.0595   13.6828   22.1186 N   0  0  0  0  0  0  0  0  0  0  0  0
    9.5864   13.5340   23.5564 C   0  0  0  0  0  0  0  0  0  0  0  0
    9.4475   14.3286   24.3876 O   0  0  0  0  0  0  0  0  0  0  0  0
    9.2428   12.1654   23.8408 C   0  0  0  0  0  0  0  0  0  0  0  0
    9.7320   11.0189   23.2491 C   0  0  0  0  0  0  0  0  0  0  0  0
    9.0611    9.9578   23.7857 N   0  0  0  0  0  0  0  0  0  0  0  0
    9.3115    8.5827   23.4205 C   0  0  0  0  0  0  0  0  0  0  0  0
    8.1453   10.4124   24.7058 C   0  0  0  0  0  0  0  0  0  0  0  0
    7.1507    9.7721   25.4282 C   0  0  0  0  0  0  0  0  0  0  0  0
    6.8751    8.5064   25.1603 F   0  0  0  0  0  0  0  0  0  0  0  0
    6.3883   10.4533   26.3650 C   0  0  0  0  0  0  0  0  0  0  0  0
    6.5825   11.8080   26.5295 C   0  0  0  0  0  0  0  0  0  0  0  0
    5.8437   12.4758   27.4248 F   0  0  0  0  0  0  0  0  0  0  0  0
    7.5104   12.4969   25.7580 C   0  0  0  0  0  0  0  0  0  0  0  0
    8.3012   11.7848   24.8280 C   0  0  0  0  0  0  0  0  0  0  0  0
  1  2  1  0
  2  3  1  0
  2  4  1  0
  4  5  1  0
  5  6  1  0
  6  7  2  0
  6  8  1  0
  8  9  2  0
  9 10  1  0
 10 11  1  0
 10 12  1  0
 12 13  2  0
 13 14  1  0
 13 15  1  0
 15 16  2  0
 16 17  1  0
 16 18  1  0
 18 19  2  0
 19  8  1  0
 19 12  1  0
M  END
>  <alias>  (1341) 
None

>  <rmsd(smina/fragmenstein)>  (1341) 
0.903

>  <smiles>  (1341) 
CC(C)CNC(=O)c1cn(C)c2c(F)cc(F)cc12

>  <gnina_score>  (1341) 
5.441

>  <inspiration_score>  (1341) 
None

>  <energy_score>  (1341) 
-15.504872

>  <distance_score>  (1341) 
1.019991

>  <gnina_score_min>  (1341) 
5.582

>  <inchikey>  (1341) 
LECCFRAYVUWDSC-UHFFFAOYSA-N

>  <exports>  (1341) 
['/opt/xchem-fragalysis-2/maxwin/BulkDock/OUTPUTS/openbind_a71ev2a_c2_elabs_1LOUU54.sdf', '/opt/xchem-fragalysis-2/maxwin/BulkDock/OUTPUTS/openbind_a71ev2a_c2_elabs_1LSYIDY.sdf']

>  <name>  (1341) 
P577271

>  <ref_pdb>  (1341) 
A3066a

>  <subsites>  (1341) 
None

>  <HIPPO Pose ID>  (1341) 
577271

>  <ref_mols>  (1341) 
A3066a

>  <HIPPO Compound ID>  (1341) 
351027

>  <tags>  (1341) 
openbind_a71ev2a_c2_elabs,syndirella_product,openbind_a71ev2a_c2_elabs_fragonly_scored_top80percent,BulkDock Fragalysis export,openbind_a71ev2a_c2_elabs_scored,openbind_a71ev2a_c2_elabs_scored_top80percent,openbind_a71ev2a_c2_elabs_activefrags_only_scored_5.2plus,openbind_a71ev2a_c2_elabs_activefrags_only_scored_5.5plus,syndirella_placed

>  <smina_score_min>  (1341) 
-6.416

$$$$
P577272
     RDKit          3D

 19 20  0  0  0  0  0  0  0  0999 V2000
   12.9705   14.5364   22.6151 C   0  0  0  0  0  0  0  0  0  0  0  0
   12.3372   14.4733   21.2458 C   0  0  0  0  0  0  0  0  0  0  0  0
   10.9060   14.7350   21.3895 N   0  0  0  0  0  0  0  0  0  0  0  0
   10.2671   14.9588   20.0993 C   0  0  0  0  0  0  0  0  0  0  0  0
   10.3387   13.6847   22.0658 N   0  0  0  0  0  0  0  0  0  0  0  0
   10.1388   13.4580   23.5795 C   0  0  0  0  0  0  0  0  0  0  0  0
   10.3549   14.1616   24.4848 O   0  0  0  0  0  0  0  0  0  0  0  0
    9.5466   12.1581   23.8038 C   0  0  0  0  0  0  0  0  0  0  0  0
    9.8757   10.9802   23.1670 C   0  0  0  0  0  0  0  0  0  0  0  0
    9.1247    9.9785   23.7111 N   0  0  0  0  0  0  0  0  0  0  0  0
    9.2804    8.5832   23.3694 C   0  0  0  0  0  0  0  0  0  0  0  0
    8.2465   10.5069   24.6294 C   0  0  0  0  0  0  0  0  0  0  0  0
    7.2201    9.9331   25.3735 C   0  0  0  0  0  0  0  0  0  0  0  0
    6.8802    8.6640   25.1713 F   0  0  0  0  0  0  0  0  0  0  0  0
    6.5038   10.6938   26.2863 C   0  0  0  0  0  0  0  0  0  0  0  0
    6.7855   12.0403   26.4142 C   0  0  0  0  0  0  0  0  0  0  0  0
    6.0910   12.7741   27.2934 F   0  0  0  0  0  0  0  0  0  0  0  0
    7.7722   12.6513   25.6448 C   0  0  0  0  0  0  0  0  0  0  0  0
    8.5199   11.8684   24.7398 C   0  0  0  0  0  0  0  0  0  0  0  0
  1  2  1  0
  2  3  1  0
  3  4  1  0
  3  5  1  0
  5  6  1  0
  6  7  2  0
  6  8  1  0
  8  9  2  0
  9 10  1  0
 10 11  1  0
 10 12  1  0
 12 13  2  0
 13 14  1  0
 13 15  1  0
 15 16  2  0
 16 17  1  0
 16 18  1  0
 18 19  2  0
 19  8  1  0
 19 12  1  0
M  END
>  <alias>  (1342) 
None

>  <rmsd(smina/fragmenstein)>  (1342) 
0.532

>  <smiles>  (1342) 
CCN(C)NC(=O)c1cn(C)c2c(F)cc(F)cc12

>  <gnina_score>  (1342) 
5.929

>  <inspiration_score>  (1342) 
None

>  <energy_score>  (1342) 
-9.623596

>  <distance_score>  (1342) 
0.71651

>  <gnina_score_min>  (1342) 
5.906

>  <inchikey>  (1342) 
QXAJIUYJIGGBJA-UHFFFAOYSA-N

>  <exports>  (1342) 
['/opt/xchem-fragalysis-2/maxwin/BulkDock/OUTPUTS/openbind_a71ev2a_c2_elabs_1LOUU54.sdf', '/opt/xchem-fragalysis-2/maxwin/BulkDock/OUTPUTS/openbind_a71ev2a_c2_elabs_1LSYIDY.sdf']

>  <name>  (1342) 
P577272

>  <ref_pdb>  (1342) 
A3066a

>  <subsites>  (1342) 
None

>  <HIPPO Pose ID>  (1342) 
577272

>  <ref_mols>  (1342) 
A3066a

>  <HIPPO Compound ID>  (1342) 
351029

>  <tags>  (1342) 
openbind_a71ev2a_c2_elabs,syndirella_product,openbind_a71ev2a_c2_elabs_fragonly_scored_top80percent,BulkDock Fragalysis export,openbind_a71ev2a_c2_elabs_scored,openbind_a71ev2a_c2_elabs_scored_top80percent,openbind_a71ev2a_c2_elabs_activefrags_only_scored_5.2plus,openbind_a71ev2a_c2_elabs_activefrags_only_scored_5.5plus,syndirella_placed

>  <smina_score_min>  (1342) 
-7.147

$$$$
P577273
     RDKit          3D

 19 20  0  0  0  0  0  0  0  0999 V2000
   12.3718   14.0238   20.3830 C   0  0  0  0  0  0  0  0  0  0  0  0
   11.6606   14.4144   21.6550 C   0  0  2  0  0  0  0  0  0  0  0  0
   12.6728   14.6450   22.7896 C   0  0  0  0  0  0  0  0  0  0  0  0
   12.9931   13.2159   23.9412 S   0  0  0  0  0  0  0  0  0  0  0  0
   10.7544   13.4271   22.1325 N   0  0  0  0  0  0  0  0  0  0  0  0
    9.8217   13.4392   23.3367 C   0  0  0  0  0  0  0  0  0  0  0  0
    9.5815   14.2842   24.0931 O   0  0  0  0  0  0  0  0  0  0  0  0
    9.2448   12.1319   23.5772 C   0  0  0  0  0  0  0  0  0  0  0  0
    9.6848   10.9239   23.0732 C   0  0  0  0  0  0  0  0  0  0  0  0
    8.9967    9.9222   23.6913 N   0  0  0  0  0  0  0  0  0  0  0  0
    9.2687    8.5232   23.4593 C   0  0  0  0  0  0  0  0  0  0  0  0
    8.1042   10.4612   24.5851 C   0  0  0  0  0  0  0  0  0  0  0  0
    7.1374    9.8820   25.3965 C   0  0  0  0  0  0  0  0  0  0  0  0
    6.8378    8.5999   25.2385 F   0  0  0  0  0  0  0  0  0  0  0  0
    6.4264   10.6432   26.3108 C   0  0  0  0  0  0  0  0  0  0  0  0
    6.6413   12.0049   26.3604 C   0  0  0  0  0  0  0  0  0  0  0  0
    5.9554   12.7464   27.2397 F   0  0  0  0  0  0  0  0  0  0  0  0
    7.5385   12.6258   25.4964 C   0  0  0  0  0  0  0  0  0  0  0  0
    8.2773   11.8412   24.5817 C   0  0  0  0  0  0  0  0  0  0  0  0
  2  1  1  6
  2  3  1  0
  3  4  1  0
  2  5  1  0
  5  6  1  0
  6  7  2  0
  6  8  1  0
  8  9  2  0
  9 10  1  0
 10 11  1  0
 10 12  1  0
 12 13  2  0
 13 14  1  0
 13 15  1  0
 15 16  2  0
 16 17  1  0
 16 18  1  0
 18 19  2  0
 19  8  1  0
 19 12  1  0
M  END
>  <alias>  (1343) 
None

>  <rmsd(smina/fragmenstein)>  (1343) 
1.303

>  <smiles>  (1343) 
C[C@H](CS)NC(=O)c1cn(C)c2c(F)cc(F)cc12

>  <gnina_score>  (1343) 
5.661

>  <inspiration_score>  (1343) 
None

>  <energy_score>  (1343) 
-12.34579

>  <distance_score>  (1343) 
0.768437

>  <gnina_score_min>  (1343) 
5.714

>  <inchikey>  (1343) 
TXDRFIOWFVDJQE-SSDOTTSWSA-N

>  <exports>  (1343) 
['/opt/xchem-fragalysis-2/maxwin/BulkDock/OUTPUTS/openbind_a71ev2a_c2_elabs_1LOUU54.sdf', '/opt/xchem-fragalysis-2/maxwin/BulkDock/OUTPUTS/openbind_a71ev2a_c2_elabs_1LSYIDY.sdf']

>  <name>  (1343) 
P577273

>  <ref_pdb>  (1343) 
A3066a

>  <subsites>  (1343) 
None

>  <HIPPO Pose ID>  (1343) 
577273

>  <ref_mols>  (1343) 
A3066a

>  <HIPPO Compound ID>  (1343) 
351033

>  <tags>  (1343) 
openbind_a71ev2a_c2_elabs,syndirella_product,openbind_a71ev2a_c2_elabs_fragonly_scored_top80percent,BulkDock Fragalysis export,openbind_a71ev2a_c2_elabs_scored,openbind_a71ev2a_c2_elabs_scored_top80percent,openbind_a71ev2a_c2_elabs_activefrags_only_scored_5.2plus,openbind_a71ev2a_c2_elabs_activefrags_only_scored_5.5plus,syndirella_placed

>  <smina_score_min>  (1343) 
-5.956

$$$$
P577275
     RDKit          3D

 19 20  0  0  0  0  0  0  0  0999 V2000
   12.6625   15.0250   21.9387 C   0  0  0  0  0  0  0  0  0  0  0  0
   11.6402   14.2673   21.1244 C   0  0  2  0  0  0  0  0  0  0  0  0
   10.5320   15.1334   20.5175 C   0  0  0  0  0  0  0  0  0  0  0  0
   10.8364   15.4304   19.2217 F   0  0  0  0  0  0  0  0  0  0  0  0
   11.0428   13.2469   21.9390 N   0  0  0  0  0  0  0  0  0  0  0  0
   10.4669   13.3149   23.3561 C   0  0  0  0  0  0  0  0  0  0  0  0
   10.4522   14.1890   24.1226 O   0  0  0  0  0  0  0  0  0  0  0  0
    9.7659   12.0727   23.6725 C   0  0  0  0  0  0  0  0  0  0  0  0
    9.9820   10.8328   23.1083 C   0  0  0  0  0  0  0  0  0  0  0  0
    9.1669    9.9219   23.7100 N   0  0  0  0  0  0  0  0  0  0  0  0
    9.2349    8.5059   23.4414 C   0  0  0  0  0  0  0  0  0  0  0  0
    8.3309   10.5596   24.5915 C   0  0  0  0  0  0  0  0  0  0  0  0
    7.2733   10.0880   25.3685 C   0  0  0  0  0  0  0  0  0  0  0  0
    6.8789    8.8186   25.2714 F   0  0  0  0  0  0  0  0  0  0  0  0
    6.6005   10.9503   26.2213 C   0  0  0  0  0  0  0  0  0  0  0  0
    6.9629   12.2835   26.2601 C   0  0  0  0  0  0  0  0  0  0  0  0
    6.3165   13.1140   27.0888 F   0  0  0  0  0  0  0  0  0  0  0  0
    7.9914   12.7851   25.4622 C   0  0  0  0  0  0  0  0  0  0  0  0
    8.6996   11.9071   24.6130 C   0  0  0  0  0  0  0  0  0  0  0  0
  2  1  1  1
  2  3  1  0
  3  4  1  0
  2  5  1  0
  5  6  1  0
  6  7  2  0
  6  8  1  0
  8  9  2  0
  9 10  1  0
 10 11  1  0
 10 12  1  0
 12 13  2  0
 13 14  1  0
 13 15  1  0
 15 16  2  0
 16 17  1  0
 16 18  1  0
 18 19  2  0
 19  8  1  0
 19 12  1  0
M  END
>  <alias>  (1344) 
None

>  <rmsd(smina/fragmenstein)>  (1344) 
0.522

>  <smiles>  (1344) 
C[C@H](CF)NC(=O)c1cn(C)c2c(F)cc(F)cc12

>  <gnina_score>  (1344) 
5.667

>  <inspiration_score>  (1344) 
None

>  <energy_score>  (1344) 
-10.809721

>  <distance_score>  (1344) 
0.517168

>  <gnina_score_min>  (1344) 
5.63

>  <inchikey>  (1344) 
HNBKJGADAVATET-SSDOTTSWSA-N

>  <exports>  (1344) 
['/opt/xchem-fragalysis-2/maxwin/BulkDock/OUTPUTS/openbind_a71ev2a_c2_elabs_1LOUU54.sdf', '/opt/xchem-fragalysis-2/maxwin/BulkDock/OUTPUTS/openbind_a71ev2a_c2_elabs_1LSYIDY.sdf']

>  <name>  (1344) 
P577275

>  <ref_pdb>  (1344) 
A3066a

>  <subsites>  (1344) 
None

>  <HIPPO Pose ID>  (1344) 
577275

>  <ref_mols>  (1344) 
A3066a

>  <HIPPO Compound ID>  (1344) 
351035

>  <tags>  (1344) 
openbind_a71ev2a_c2_elabs,syndirella_product,openbind_a71ev2a_c2_elabs_fragonly_scored_top80percent,BulkDock Fragalysis export,openbind_a71ev2a_c2_elabs_scored,openbind_a71ev2a_c2_elabs_scored_top80percent,openbind_a71ev2a_c2_elabs_activefrags_only_scored_5.2plus,openbind_a71ev2a_c2_elabs_activefrags_only_scored_5.5plus,syndirella_placed

>  <smina_score_min>  (1344) 
-7.346

$$$$
P577276
     RDKit          3D

 19 20  0  0  0  0  0  0  0  0999 V2000
    9.3293    8.6280   23.3503 C   0  0  0  0  0  0  0  0  0  0  0  0
    9.2663   10.0458   23.6247 N   0  0  0  0  0  0  0  0  0  0  0  0
   10.0665   10.9773   23.0272 C   0  0  0  0  0  0  0  0  0  0  0  0
    9.8758   12.1990   23.6400 C   0  0  0  0  0  0  0  0  0  0  0  0
   10.6120   13.4449   23.3905 C   0  0  0  0  0  0  0  0  0  0  0  0
   10.7066   14.2222   24.2498 O   0  0  0  0  0  0  0  0  0  0  0  0
   11.0585   13.5231   21.9261 N   0  0  0  0  0  0  0  0  0  0  0  0
   11.6330   14.6127   21.1797 C   0  0  0  0  0  0  0  0  0  0  0  0
   10.8032   14.8713   19.9245 C   0  0  0  0  0  0  0  0  0  0  0  0
    9.4875   15.5704   20.2131 C   0  0  0  0  0  0  0  0  0  0  0  0
    9.7225   16.8570   20.5719 F   0  0  0  0  0  0  0  0  0  0  0  0
    8.7967   12.0121   24.5664 C   0  0  0  0  0  0  0  0  0  0  0  0
    8.0840   12.8724   25.4300 C   0  0  0  0  0  0  0  0  0  0  0  0
    7.0529   12.3535   26.2146 C   0  0  0  0  0  0  0  0  0  0  0  0
    6.3959   13.1671   27.0516 F   0  0  0  0  0  0  0  0  0  0  0  0
    6.7003   11.0169   26.1603 C   0  0  0  0  0  0  0  0  0  0  0  0
    7.3838   10.1672   25.3028 C   0  0  0  0  0  0  0  0  0  0  0  0
    7.0134    8.8879   25.2096 F   0  0  0  0  0  0  0  0  0  0  0  0
    8.4298   10.6634   24.5219 C   0  0  0  0  0  0  0  0  0  0  0  0
  1  2  1  0
  2  3  1  0
  3  4  2  0
  4  5  1  0
  5  6  2  0
  5  7  1  0
  7  8  1  0
  8  9  1  0
  9 10  1  0
 10 11  1  0
  4 12  1  0
 12 13  2  0
 13 14  1  0
 14 15  1  0
 14 16  2  0
 16 17  1  0
 17 18  1  0
 17 19  2  0
 19  2  1  0
 19 12  1  0
M  END
>  <alias>  (1345) 
None

>  <rmsd(smina/fragmenstein)>  (1345) 
0.471

>  <smiles>  (1345) 
Cn1cc(C(=O)NCCCF)c2cc(F)cc(F)c21

>  <gnina_score>  (1345) 
5.673

>  <inspiration_score>  (1345) 
None

>  <energy_score>  (1345) 
-11.46278

>  <distance_score>  (1345) 
0.445923

>  <gnina_score_min>  (1345) 
5.59

>  <inchikey>  (1345) 
OBMSAXZIYPTVFX-UHFFFAOYSA-N

>  <exports>  (1345) 
['/opt/xchem-fragalysis-2/maxwin/BulkDock/OUTPUTS/openbind_a71ev2a_c2_elabs_1LOUU54.sdf', '/opt/xchem-fragalysis-2/maxwin/BulkDock/OUTPUTS/openbind_a71ev2a_c2_elabs_1LSYIDY.sdf']

>  <name>  (1345) 
P577276

>  <ref_pdb>  (1345) 
A3066a

>  <subsites>  (1345) 
None

>  <HIPPO Pose ID>  (1345) 
577276

>  <ref_mols>  (1345) 
A3066a

>  <HIPPO Compound ID>  (1345) 
351037

>  <tags>  (1345) 
openbind_a71ev2a_c2_elabs,syndirella_product,openbind_a71ev2a_c2_elabs_fragonly_scored_top80percent,BulkDock Fragalysis export,openbind_a71ev2a_c2_elabs_scored,openbind_a71ev2a_c2_elabs_scored_top80percent,openbind_a71ev2a_c2_elabs_activefrags_only_scored_5.2plus,openbind_a71ev2a_c2_elabs_activefrags_only_scored_5.5plus,syndirella_placed

>  <smina_score_min>  (1345) 
-7.264

$$$$
P577277
     RDKit          3D

 19 20  0  0  0  0  0  0  0  0999 V2000
   11.8783   14.3352   19.6300 C   0  0  0  0  0  0  0  0  0  0  0  0
   11.5375   14.6435   20.8830 C   0  0  0  0  0  0  0  0  0  0  0  0
   12.8183   14.6299   22.2262 Br  0  0  0  0  0  0  0  0  0  0  0  0
   10.1467   14.9574   21.3208 C   0  0  0  0  0  0  0  0  0  0  0  0
    9.7168   13.8680   22.1351 N   0  0  0  0  0  0  0  0  0  0  0  0
    9.9421   13.5887   23.6213 C   0  0  0  0  0  0  0  0  0  0  0  0
   10.4486   14.2374   24.4422 O   0  0  0  0  0  0  0  0  0  0  0  0
    9.4404   12.2666   23.9014 C   0  0  0  0  0  0  0  0  0  0  0  0
    9.8296   11.1117   23.2514 C   0  0  0  0  0  0  0  0  0  0  0  0
    9.1139   10.0729   23.7716 N   0  0  0  0  0  0  0  0  0  0  0  0
    9.2967    8.6893   23.3907 C   0  0  0  0  0  0  0  0  0  0  0  0
    8.2164   10.5563   24.6980 C   0  0  0  0  0  0  0  0  0  0  0  0
    7.2028    9.9349   25.4196 C   0  0  0  0  0  0  0  0  0  0  0  0
    6.9042    8.6612   25.1836 F   0  0  0  0  0  0  0  0  0  0  0  0
    6.4591   10.6534   26.3446 C   0  0  0  0  0  0  0  0  0  0  0  0
    6.6995   12.0051   26.5053 C   0  0  0  0  0  0  0  0  0  0  0  0
    5.9759   12.6978   27.3942 F   0  0  0  0  0  0  0  0  0  0  0  0
    7.6691   12.6654   25.7556 C   0  0  0  0  0  0  0  0  0  0  0  0
    8.4429   11.9246   24.8404 C   0  0  0  0  0  0  0  0  0  0  0  0
  1  2  2  0
  2  3  1  0
  2  4  1  0
  4  5  1  0
  5  6  1  0
  6  7  2  0
  6  8  1  0
  8  9  2  0
  9 10  1  0
 10 11  1  0
 10 12  1  0
 12 13  2  0
 13 14  1  0
 13 15  1  0
 15 16  2  0
 16 17  1  0
 16 18  1  0
 18 19  2  0
 19  8  1  0
 19 12  1  0
M  END
>  <alias>  (1346) 
None

>  <rmsd(smina/fragmenstein)>  (1346) 
0.49

>  <smiles>  (1346) 
C=C(Br)CNC(=O)c1cn(C)c2c(F)cc(F)cc12

>  <gnina_score>  (1346) 
5.453

>  <inspiration_score>  (1346) 
None

>  <energy_score>  (1346) 
-4.356892

>  <distance_score>  (1346) 
0.97937

>  <gnina_score_min>  (1346) 
5.536

>  <inchikey>  (1346) 
AFCWMUHZWPPPPI-UHFFFAOYSA-N

>  <exports>  (1346) 
['/opt/xchem-fragalysis-2/maxwin/BulkDock/OUTPUTS/openbind_a71ev2a_c2_elabs_1LOUU54.sdf', '/opt/xchem-fragalysis-2/maxwin/BulkDock/OUTPUTS/openbind_a71ev2a_c2_elabs_1LSYIDY.sdf']

>  <name>  (1346) 
P577277

>  <ref_pdb>  (1346) 
A3066a

>  <subsites>  (1346) 
None

>  <HIPPO Pose ID>  (1346) 
577277

>  <ref_mols>  (1346) 
A3066a

>  <HIPPO Compound ID>  (1346) 
351038

>  <tags>  (1346) 
openbind_a71ev2a_c2_elabs,syndirella_product,openbind_a71ev2a_c2_elabs_fragonly_scored_top80percent,BulkDock Fragalysis export,openbind_a71ev2a_c2_elabs_scored,openbind_a71ev2a_c2_elabs_scored_top80percent,openbind_a71ev2a_c2_elabs_activefrags_only_scored_5.2plus,openbind_a71ev2a_c2_elabs_activefrags_only_scored_5.5plus,syndirella_placed

>  <smina_score_min>  (1346) 
-6.266

$$$$
P577278
     RDKit          3D

 19 20  0  0  0  0  0  0  0  0999 V2000
    9.1199    8.4518   23.4375 C   0  0  0  0  0  0  0  0  0  0  0  0
    9.0778    9.8575   23.7487 N   0  0  0  0  0  0  0  0  0  0  0  0
    9.9703   10.7444   23.2305 C   0  0  0  0  0  0  0  0  0  0  0  0
    9.8753   11.9215   23.9412 C   0  0  0  0  0  0  0  0  0  0  0  0
   10.7940   13.0515   23.8867 C   0  0  0  0  0  0  0  0  0  0  0  0
   10.8014   13.8274   24.7544 O   0  0  0  0  0  0  0  0  0  0  0  0
   11.5548   13.0409   22.5572 N   0  0  0  0  0  0  0  0  0  0  0  0
   12.4059   14.0168   21.9728 C   0  0  0  0  0  0  0  0  0  0  0  0
   11.5077   15.1905   21.6686 C   0  0  0  0  0  0  0  0  0  0  0  0
   10.6640   14.9311   20.4341 C   0  0  0  0  0  0  0  0  0  0  0  0
    9.3533   16.3459   20.2158 Br  0  0  0  0  0  0  0  0  0  0  0  0
    8.7108   11.8050   24.7616 C   0  0  0  0  0  0  0  0  0  0  0  0
    8.0227   12.6869   25.6226 C   0  0  0  0  0  0  0  0  0  0  0  0
    6.9402   12.2129   26.3607 C   0  0  0  0  0  0  0  0  0  0  0  0
    6.3184   13.0384   27.2127 F   0  0  0  0  0  0  0  0  0  0  0  0
    6.5101   10.9041   26.2529 C   0  0  0  0  0  0  0  0  0  0  0  0
    7.1493   10.0455   25.3703 C   0  0  0  0  0  0  0  0  0  0  0  0
    6.6750    8.8108   25.2004 F   0  0  0  0  0  0  0  0  0  0  0  0
    8.2511   10.4918   24.6408 C   0  0  0  0  0  0  0  0  0  0  0  0
  1  2  1  0
  2  3  1  0
  3  4  2  0
  4  5  1  0
  5  6  2  0
  5  7  1  0
  7  8  1  0
  8  9  1  0
  9 10  1  0
 10 11  1  0
  4 12  1  0
 12 13  2  0
 13 14  1  0
 14 15  1  0
 14 16  2  0
 16 17  1  0
 17 18  1  0
 17 19  2  0
 19  2  1  0
 19 12  1  0
M  END
>  <alias>  (1347) 
None

>  <rmsd(smina/fragmenstein)>  (1347) 
0.611

>  <smiles>  (1347) 
Cn1cc(C(=O)NCCCBr)c2cc(F)cc(F)c21

>  <gnina_score>  (1347) 
5.802

>  <inspiration_score>  (1347) 
None

>  <energy_score>  (1347) 
-6.048768

>  <distance_score>  (1347) 
0.405039

>  <gnina_score_min>  (1347) 
5.769

>  <inchikey>  (1347) 
UZHTYVFITYOPGU-UHFFFAOYSA-N

>  <exports>  (1347) 
['/opt/xchem-fragalysis-2/maxwin/BulkDock/OUTPUTS/openbind_a71ev2a_c2_elabs_1LOUU54.sdf', '/opt/xchem-fragalysis-2/maxwin/BulkDock/OUTPUTS/openbind_a71ev2a_c2_elabs_1LSYIDY.sdf']

>  <name>  (1347) 
P577278

>  <ref_pdb>  (1347) 
A3066a

>  <subsites>  (1347) 
None

>  <HIPPO Pose ID>  (1347) 
577278

>  <ref_mols>  (1347) 
A3066a

>  <HIPPO Compound ID>  (1347) 
351042

>  <tags>  (1347) 
openbind_a71ev2a_c2_elabs,syndirella_product,openbind_a71ev2a_c2_elabs_fragonly_scored_top80percent,BulkDock Fragalysis export,openbind_a71ev2a_c2_elabs_scored,openbind_a71ev2a_c2_elabs_scored_top80percent,openbind_a71ev2a_c2_elabs_activefrags_only_scored_5.2plus,openbind_a71ev2a_c2_elabs_activefrags_only_scored_5.5plus,syndirella_placed

>  <smina_score_min>  (1347) 
-6.729

$$$$
P577279
     RDKit          3D

 19 20  0  0  0  0  0  0  0  0999 V2000
    9.3226    8.4969   23.3940 C   0  0  0  0  0  0  0  0  0  0  0  0
    9.1965    9.9116   23.6507 N   0  0  0  0  0  0  0  0  0  0  0  0
    9.9697   10.8577   23.0422 C   0  0  0  0  0  0  0  0  0  0  0  0
    9.7231   12.0738   23.6388 C   0  0  0  0  0  0  0  0  0  0  0  0
   10.3883   13.3400   23.3804 C   0  0  0  0  0  0  0  0  0  0  0  0
   10.4842   14.1019   24.2561 O   0  0  0  0  0  0  0  0  0  0  0  0
   10.7711   13.4728   21.8976 N   0  0  0  0  0  0  0  0  0  0  0  0
   11.2665   14.6061   21.1557 C   0  0  0  0  0  0  0  0  0  0  0  0
   10.0773   15.5614   20.9917 C   0  0  0  0  0  0  0  0  0  0  0  0
   12.4282   15.1539   21.9753 C   0  0  0  0  0  0  0  0  0  0  0  0
   11.7782   14.2445   19.7635 C   0  0  0  0  0  0  0  0  0  0  0  0
    8.6726   11.8661   24.5856 C   0  0  0  0  0  0  0  0  0  0  0  0
    7.9534   12.7143   25.4566 C   0  0  0  0  0  0  0  0  0  0  0  0
    6.9444   12.1774   26.2544 C   0  0  0  0  0  0  0  0  0  0  0  0
    6.2826   12.9782   27.0996 F   0  0  0  0  0  0  0  0  0  0  0  0
    6.6137   10.8373   26.1947 C   0  0  0  0  0  0  0  0  0  0  0  0
    7.3023   10.0062   25.3230 C   0  0  0  0  0  0  0  0  0  0  0  0
    6.9287    8.7341   25.2004 F   0  0  0  0  0  0  0  0  0  0  0  0
    8.3426   10.5120   24.5444 C   0  0  0  0  0  0  0  0  0  0  0  0
  1  2  1  0
  2  3  1  0
  3  4  2  0
  4  5  1  0
  5  6  2  0
  5  7  1  0
  7  8  1  0
  8  9  1  0
  8 10  1  0
  8 11  1  0
  4 12  1  0
 12 13  2  0
 13 14  1  0
 14 15  1  0
 14 16  2  0
 16 17  1  0
 17 18  1  0
 17 19  2  0
 19  2  1  0
 19 12  1  0
M  END
>  <alias>  (1348) 
None

>  <rmsd(smina/fragmenstein)>  (1348) 
0.605

>  <smiles>  (1348) 
Cn1cc(C(=O)NC(C)(C)C)c2cc(F)cc(F)c21

>  <gnina_score>  (1348) 
5.656

>  <inspiration_score>  (1348) 
None

>  <energy_score>  (1348) 
-4.449318

>  <distance_score>  (1348) 
0.561886

>  <gnina_score_min>  (1348) 
5.656

>  <inchikey>  (1348) 
PQQXVOMBAMOMNN-UHFFFAOYSA-N

>  <exports>  (1348) 
['/opt/xchem-fragalysis-2/maxwin/BulkDock/OUTPUTS/openbind_a71ev2a_c2_elabs_1LOUU54.sdf', '/opt/xchem-fragalysis-2/maxwin/BulkDock/OUTPUTS/openbind_a71ev2a_c2_elabs_1LSYIDY.sdf']

>  <name>  (1348) 
P577279

>  <ref_pdb>  (1348) 
A3066a

>  <subsites>  (1348) 
None

>  <HIPPO Pose ID>  (1348) 
577279

>  <ref_mols>  (1348) 
A3066a

>  <HIPPO Compound ID>  (1348) 
351044

>  <tags>  (1348) 
openbind_a71ev2a_c2_elabs,syndirella_product,openbind_a71ev2a_c2_elabs_fragonly_scored_top80percent,BulkDock Fragalysis export,openbind_a71ev2a_c2_elabs_scored,openbind_a71ev2a_c2_elabs_scored_top80percent,openbind_a71ev2a_c2_elabs_activefrags_only_scored_5.2plus,openbind_a71ev2a_c2_elabs_activefrags_only_scored_5.5plus,syndirella_placed

>  <smina_score_min>  (1348) 
-7.148

$$$$
P577280
     RDKit          3D

 19 20  0  0  0  0  0  0  0  0999 V2000
    9.0832    8.4638   23.5199 C   0  0  0  0  0  0  0  0  0  0  0  0
    9.0231    9.8765   23.7900 N   0  0  0  0  0  0  0  0  0  0  0  0
    9.9028   10.7518   23.2401 C   0  0  0  0  0  0  0  0  0  0  0  0
    9.7710   11.9693   23.8761 C   0  0  0  0  0  0  0  0  0  0  0  0
   10.6716   13.1035   23.7214 C   0  0  0  0  0  0  0  0  0  0  0  0
   10.7704   13.9010   24.5625 O   0  0  0  0  0  0  0  0  0  0  0  0
   11.3819   12.9920   22.3725 N   0  0  0  0  0  0  0  0  0  0  0  0
   12.4191   13.7708   21.8140 C   0  0  0  0  0  0  0  0  0  0  0  0
   11.8521   15.0492   21.2798 C   0  0  0  0  0  0  0  0  0  0  0  0
   10.9785   14.8592   20.0374 C   0  0  0  0  0  0  0  0  0  0  0  0
   11.7712   14.4914   18.9155 O   0  0  0  0  0  0  0  0  0  0  0  0
    8.6457   11.8558   24.7439 C   0  0  0  0  0  0  0  0  0  0  0  0
    7.9754   12.7493   25.6050 C   0  0  0  0  0  0  0  0  0  0  0  0
    6.9133   12.2805   26.3765 C   0  0  0  0  0  0  0  0  0  0  0  0
    6.3042   13.1180   27.2263 F   0  0  0  0  0  0  0  0  0  0  0  0
    6.4836   10.9685   26.2977 C   0  0  0  0  0  0  0  0  0  0  0  0
    7.1091   10.0963   25.4191 C   0  0  0  0  0  0  0  0  0  0  0  0
    6.6325    8.8596   25.2679 F   0  0  0  0  0  0  0  0  0  0  0  0
    8.1997   10.5327   24.6685 C   0  0  0  0  0  0  0  0  0  0  0  0
  1  2  1  0
  2  3  1  0
  3  4  2  0
  4  5  1  0
  5  6  2  0
  5  7  1  0
  7  8  1  0
  8  9  1  0
  9 10  1  0
 10 11  1  0
  4 12  1  0
 12 13  2  0
 13 14  1  0
 14 15  1  0
 14 16  2  0
 16 17  1  0
 17 18  1  0
 17 19  2  0
 19  2  1  0
 19 12  1  0
M  END
>  <alias>  (1349) 
None

>  <rmsd(smina/fragmenstein)>  (1349) 
0.747

>  <smiles>  (1349) 
Cn1cc(C(=O)NCCCO)c2cc(F)cc(F)c21

>  <gnina_score>  (1349) 
5.611

>  <inspiration_score>  (1349) 
None

>  <energy_score>  (1349) 
-0.32574

>  <distance_score>  (1349) 
0.462868

>  <gnina_score_min>  (1349) 
5.658

>  <inchikey>  (1349) 
WIEPJYKSSUAFCS-UHFFFAOYSA-N

>  <exports>  (1349) 
['/opt/xchem-fragalysis-2/maxwin/BulkDock/OUTPUTS/openbind_a71ev2a_c2_elabs_1LOUU54.sdf', '/opt/xchem-fragalysis-2/maxwin/BulkDock/OUTPUTS/openbind_a71ev2a_c2_elabs_1LSYIDY.sdf']

>  <name>  (1349) 
P577280

>  <ref_pdb>  (1349) 
A3066a

>  <subsites>  (1349) 
None

>  <HIPPO Pose ID>  (1349) 
577280

>  <ref_mols>  (1349) 
A3066a

>  <HIPPO Compound ID>  (1349) 
351047

>  <tags>  (1349) 
openbind_a71ev2a_c2_elabs,syndirella_product,openbind_a71ev2a_c2_elabs_fragonly_scored_top80percent,BulkDock Fragalysis export,openbind_a71ev2a_c2_elabs_scored,openbind_a71ev2a_c2_elabs_scored_top80percent,openbind_a71ev2a_c2_elabs_activefrags_only_scored_5.2plus,openbind_a71ev2a_c2_elabs_activefrags_only_scored_5.5plus,syndirella_placed

>  <smina_score_min>  (1349) 
-7.194

$$$$
P577281
     RDKit          3D

 19 21  0  0  0  0  0  0  0  0999 V2000
    9.0920    8.6812   23.4522 C   0  0  0  0  0  0  0  0  0  0  0  0
    8.9224   10.0411   23.9132 N   0  0  0  0  0  0  0  0  0  0  0  0
    9.7416   11.0648   23.5415 C   0  0  0  0  0  0  0  0  0  0  0  0
    9.4425   12.1592   24.3358 C   0  0  0  0  0  0  0  0  0  0  0  0
   10.2174   13.3764   24.3853 C   0  0  0  0  0  0  0  0  0  0  0  0
   10.5367   13.8688   25.3890 O   0  0  0  0  0  0  0  0  0  0  0  0
   10.5646   13.7468   22.9460 N   0  0  0  0  0  0  0  0  0  0  0  0
   11.4034   14.6860   22.4597 N   0  0  0  0  0  0  0  0  0  0  0  0
   11.2769   14.7987   20.9935 C   0  0  0  0  0  0  0  0  0  0  0  0
   12.8027   14.6501   20.9128 C   0  0  0  0  0  0  0  0  0  0  0  0
   12.7083   14.0129   22.2838 C   0  0  0  0  0  0  0  0  0  0  0  0
    8.3245   11.8300   25.1244 C   0  0  0  0  0  0  0  0  0  0  0  0
    7.5620   12.5421   26.0705 C   0  0  0  0  0  0  0  0  0  0  0  0
    6.5393   11.8808   26.7395 C   0  0  0  0  0  0  0  0  0  0  0  0
    5.8356   12.5340   27.6733 F   0  0  0  0  0  0  0  0  0  0  0  0
    6.2415   10.5591   26.4699 C   0  0  0  0  0  0  0  0  0  0  0  0
    6.9557    9.8806   25.4933 C   0  0  0  0  0  0  0  0  0  0  0  0
    6.5885    8.6492   25.1544 F   0  0  0  0  0  0  0  0  0  0  0  0
    8.0178   10.4986   24.8445 C   0  0  0  0  0  0  0  0  0  0  0  0
  1  2  1  0
  2  3  1  0
  3  4  2  0
  4  5  1  0
  5  6  2  0
  5  7  1  0
  7  8  1  0
  8  9  1  0
  9 10  1  0
 10 11  1  0
  4 12  1  0
 12 13  2  0
 13 14  1  0
 14 15  1  0
 14 16  2  0
 16 17  1  0
 17 18  1  0
 17 19  2  0
 19  2  1  0
 11  8  1  0
 19 12  1  0
M  END
>  <alias>  (1350) 
None

>  <rmsd(smina/fragmenstein)>  (1350) 
1.732

>  <smiles>  (1350) 
Cn1cc(C(=O)NN2CCC2)c2cc(F)cc(F)c21

>  <gnina_score>  (1350) 
5.643

>  <inspiration_score>  (1350) 
None

>  <energy_score>  (1350) 
-8.946041

>  <distance_score>  (1350) 
0.868162

>  <gnina_score_min>  (1350) 
5.822

>  <inchikey>  (1350) 
VIMRJEUDJFQSRI-UHFFFAOYSA-N

>  <exports>  (1350) 
['/opt/xchem-fragalysis-2/maxwin/BulkDock/OUTPUTS/openbind_a71ev2a_c2_elabs_1LOUU54.sdf', '/opt/xchem-fragalysis-2/maxwin/BulkDock/OUTPUTS/openbind_a71ev2a_c2_elabs_1LSYIDY.sdf']

>  <name>  (1350) 
P577281

>  <ref_pdb>  (1350) 
A3066a

>  <subsites>  (1350) 
None

>  <HIPPO Pose ID>  (1350) 
577281

>  <ref_mols>  (1350) 
A3066a

>  <HIPPO Compound ID>  (1350) 
351048

>  <tags>  (1350) 
openbind_a71ev2a_c2_elabs,syndirella_product,openbind_a71ev2a_c2_elabs_fragonly_scored_top80percent,BulkDock Fragalysis export,openbind_a71ev2a_c2_elabs_scored,openbind_a71ev2a_c2_elabs_scored_top80percent,openbind_a71ev2a_c2_elabs_activefrags_only_scored_5.2plus,openbind_a71ev2a_c2_elabs_activefrags_only_scored_5.5plus,syndirella_placed

>  <smina_score_min>  (1350) 
-7.248

$$$$
P577282
     RDKit          3D

 19 21  0  0  0  0  0  0  0  0999 V2000
    9.3057    8.5734   23.3560 C   0  0  0  0  0  0  0  0  0  0  0  0
    9.1507    9.9651   23.7107 N   0  0  0  0  0  0  0  0  0  0  0  0
    9.8714   10.9766   23.1467 C   0  0  0  0  0  0  0  0  0  0  0  0
    9.5178   12.1584   23.7630 C   0  0  0  0  0  0  0  0  0  0  0  0
   10.0084   13.4868   23.4607 C   0  0  0  0  0  0  0  0  0  0  0  0
    9.8772   14.3419   24.2487 O   0  0  0  0  0  0  0  0  0  0  0  0
   10.5400   13.5303   22.0720 N   0  0  0  0  0  0  0  0  0  0  0  0
   10.9867   14.7244   21.2010 C   0  0  0  0  0  0  0  0  0  0  0  0
   12.3886   14.6594   21.6452 C   0  0  0  0  0  0  0  0  0  0  0  0
   13.3492   15.3829   21.6448 O   0  0  0  0  0  0  0  0  0  0  0  0
   12.1271   13.2780   22.0435 C   0  0  0  0  0  0  0  0  0  0  0  0
    8.5167   11.8513   24.7277 C   0  0  0  0  0  0  0  0  0  0  0  0
    7.7493   12.6225   25.6290 C   0  0  0  0  0  0  0  0  0  0  0  0
    6.7739   11.9979   26.4024 C   0  0  0  0  0  0  0  0  0  0  0  0
    6.0643   12.7254   27.2749 F   0  0  0  0  0  0  0  0  0  0  0  0
    6.5178   10.6470   26.2811 C   0  0  0  0  0  0  0  0  0  0  0  0
    7.2538    9.8979   25.3754 C   0  0  0  0  0  0  0  0  0  0  0  0
    6.9447    8.6218   25.1782 F   0  0  0  0  0  0  0  0  0  0  0  0
    8.2720   10.4844   24.6317 C   0  0  0  0  0  0  0  0  0  0  0  0
  1  2  1  0
  2  3  1  0
  3  4  2  0
  4  5  1  0
  5  6  2  0
  5  7  1  0
  7  8  1  0
  8  9  1  0
  9 10  2  0
  9 11  1  0
  4 12  1  0
 12 13  2  0
 13 14  1  0
 14 15  1  0
 14 16  2  0
 16 17  1  0
 17 18  1  0
 17 19  2  0
 19  2  1  0
 11  7  1  0
 19 12  1  0
M  END
>  <alias>  (1351) 
None

>  <rmsd(smina/fragmenstein)>  (1351) 
0.45

>  <smiles>  (1351) 
Cn1cc(C(=O)N2CC(=O)C2)c2cc(F)cc(F)c21

>  <gnina_score>  (1351) 
5.379

>  <inspiration_score>  (1351) 
None

>  <energy_score>  (1351) 
-2.693976

>  <distance_score>  (1351) 
0.756852

>  <gnina_score_min>  (1351) 
5.325

>  <inchikey>  (1351) 
GCWTWQKVDSJCCZ-UHFFFAOYSA-N

>  <exports>  (1351) 
['/opt/xchem-fragalysis-2/maxwin/BulkDock/OUTPUTS/openbind_a71ev2a_c2_elabs_1LOUU54.sdf', '/opt/xchem-fragalysis-2/maxwin/BulkDock/OUTPUTS/openbind_a71ev2a_c2_elabs_1LSYIDY.sdf']

>  <name>  (1351) 
P577282

>  <ref_pdb>  (1351) 
A3066a

>  <subsites>  (1351) 
None

>  <HIPPO Pose ID>  (1351) 
577282

>  <ref_mols>  (1351) 
A3066a

>  <HIPPO Compound ID>  (1351) 
351049

>  <tags>  (1351) 
openbind_a71ev2a_c2_elabs,syndirella_product,openbind_a71ev2a_c2_elabs_fragonly_scored_top80percent,openbind_a71ev2a_c2_elabs_scored,BulkDock Fragalysis export,openbind_a71ev2a_c2_elabs_scored_top80percent,openbind_a71ev2a_c2_elabs_activefrags_only_scored_5.2plus,syndirella_placed

>  <smina_score_min>  (1351) 
-5.989

$$$$
P577283
     RDKit          3D

 19 20  0  0  0  0  0  0  0  0999 V2000
   12.9713   14.4399   22.6884 C   0  0  0  0  0  0  0  0  0  0  0  0
   12.4213   14.5014   21.2828 C   0  0  0  0  0  0  0  0  0  0  0  0
   10.9231   14.7595   21.3221 C   0  0  1  0  0  0  0  0  0  0  0  0
   10.3195   14.9252   19.9431 C   0  0  0  0  0  0  0  0  0  0  0  0
   10.3275   13.6712   22.0389 N   0  0  0  0  0  0  0  0  0  0  0  0
   10.0875   13.4807   23.5375 C   0  0  0  0  0  0  0  0  0  0  0  0
   10.2635   14.2074   24.4274 O   0  0  0  0  0  0  0  0  0  0  0  0
    9.5134   12.1764   23.7808 C   0  0  0  0  0  0  0  0  0  0  0  0
    9.8599   10.9973   23.1551 C   0  0  0  0  0  0  0  0  0  0  0  0
    9.1220    9.9893   23.7047 N   0  0  0  0  0  0  0  0  0  0  0  0
    9.2863    8.5949   23.3615 C   0  0  0  0  0  0  0  0  0  0  0  0
    8.2427   10.5120   24.6257 C   0  0  0  0  0  0  0  0  0  0  0  0
    7.2258    9.9303   25.3765 C   0  0  0  0  0  0  0  0  0  0  0  0
    6.8991    8.6567   25.1821 F   0  0  0  0  0  0  0  0  0  0  0  0
    6.5056   10.6867   26.2900 C   0  0  0  0  0  0  0  0  0  0  0  0
    6.7748   12.0360   26.4133 C   0  0  0  0  0  0  0  0  0  0  0  0
    6.0773   12.7650   27.2939 F   0  0  0  0  0  0  0  0  0  0  0  0
    7.7505   12.6548   25.6366 C   0  0  0  0  0  0  0  0  0  0  0  0
    8.5003   11.8775   24.7284 C   0  0  0  0  0  0  0  0  0  0  0  0
  1  2  1  0
  2  3  1  0
  3  4  1  6
  3  5  1  0
  5  6  1  0
  6  7  2  0
  6  8  1  0
  8  9  2  0
  9 10  1  0
 10 11  1  0
 10 12  1  0
 12 13  2  0
 13 14  1  0
 13 15  1  0
 15 16  2  0
 16 17  1  0
 16 18  1  0
 18 19  2  0
 19  8  1  0
 19 12  1  0
M  END
>  <alias>  (1352) 
None

>  <rmsd(smina/fragmenstein)>  (1352) 
0.555

>  <smiles>  (1352) 
CC[C@@H](C)NC(=O)c1cn(C)c2c(F)cc(F)cc12

>  <gnina_score>  (1352) 
5.609

>  <inspiration_score>  (1352) 
None

>  <energy_score>  (1352) 
-7.067212

>  <distance_score>  (1352) 
0.736966

>  <gnina_score_min>  (1352) 
5.578

>  <inchikey>  (1352) 
ISZNNFRUSMZUSG-MRVPVSSYSA-N

>  <exports>  (1352) 
['/opt/xchem-fragalysis-2/maxwin/BulkDock/OUTPUTS/openbind_a71ev2a_c2_elabs_1LOUU54.sdf', '/opt/xchem-fragalysis-2/maxwin/BulkDock/OUTPUTS/openbind_a71ev2a_c2_elabs_1LSYIDY.sdf']

>  <name>  (1352) 
P577283

>  <ref_pdb>  (1352) 
A3066a

>  <subsites>  (1352) 
None

>  <HIPPO Pose ID>  (1352) 
577283

>  <ref_mols>  (1352) 
A3066a

>  <HIPPO Compound ID>  (1352) 
351050

>  <tags>  (1352) 
openbind_a71ev2a_c2_elabs,syndirella_product,openbind_a71ev2a_c2_elabs_fragonly_scored_top80percent,BulkDock Fragalysis export,openbind_a71ev2a_c2_elabs_scored,openbind_a71ev2a_c2_elabs_scored_top80percent,openbind_a71ev2a_c2_elabs_activefrags_only_scored_5.2plus,openbind_a71ev2a_c2_elabs_activefrags_only_scored_5.5plus,syndirella_placed

>  <smina_score_min>  (1352) 
-7.133

$$$$
P577284
     RDKit          3D

 19 20  0  0  0  0  0  0  0  0999 V2000
   12.9018   14.3974   22.6890 C   0  0  0  0  0  0  0  0  0  0  0  0
   12.5075   14.5147   21.2359 C   0  0  1  0  0  0  0  0  0  0  0  0
   12.9346   13.4142   20.5625 F   0  0  0  0  0  0  0  0  0  0  0  0
   11.0036   14.6342   21.0664 C   0  0  0  0  0  0  0  0  0  0  0  0
   10.3822   13.5684   21.7965 N   0  0  0  0  0  0  0  0  0  0  0  0
    9.9383   13.4918   23.2557 C   0  0  0  0  0  0  0  0  0  0  0  0
    9.9331   14.3041   24.0841 O   0  0  0  0  0  0  0  0  0  0  0  0
    9.4592   12.1653   23.5953 C   0  0  0  0  0  0  0  0  0  0  0  0
    9.8624   10.9612   23.0582 C   0  0  0  0  0  0  0  0  0  0  0  0
    9.1592    9.9601   23.6640 N   0  0  0  0  0  0  0  0  0  0  0  0
    9.3578    8.5572   23.3800 C   0  0  0  0  0  0  0  0  0  0  0  0
    8.2750   10.4997   24.5680 C   0  0  0  0  0  0  0  0  0  0  0  0
    7.2817    9.9243   25.3537 C   0  0  0  0  0  0  0  0  0  0  0  0
    6.9832    8.6387   25.2042 F   0  0  0  0  0  0  0  0  0  0  0  0
    6.5523   10.6952   26.2467 C   0  0  0  0  0  0  0  0  0  0  0  0
    6.7892   12.0539   26.3134 C   0  0  0  0  0  0  0  0  0  0  0  0
    6.0848   12.8000   27.1742 F   0  0  0  0  0  0  0  0  0  0  0  0
    7.7317   12.6664   25.4909 C   0  0  0  0  0  0  0  0  0  0  0  0
    8.4881   11.8754   24.5974 C   0  0  0  0  0  0  0  0  0  0  0  0
  2  1  1  1
  2  3  1  0
  2  4  1  0
  4  5  1  0
  5  6  1  0
  6  7  2  0
  6  8  1  0
  8  9  2  0
  9 10  1  0
 10 11  1  0
 10 12  1  0
 12 13  2  0
 13 14  1  0
 13 15  1  0
 15 16  2  0
 16 17  1  0
 16 18  1  0
 18 19  2  0
 19  8  1  0
 19 12  1  0
M  END
>  <alias>  (1353) 
None

>  <rmsd(smina/fragmenstein)>  (1353) 
0.608

>  <smiles>  (1353) 
C[C@@H](F)CNC(=O)c1cn(C)c2c(F)cc(F)cc12

>  <gnina_score>  (1353) 
5.412

>  <inspiration_score>  (1353) 
None

>  <energy_score>  (1353) 
-6.738831

>  <distance_score>  (1353) 
0.793967

>  <gnina_score_min>  (1353) 
5.448

>  <inchikey>  (1353) 
CKGPCNNMKYQTMU-SSDOTTSWSA-N

>  <exports>  (1353) 
['/opt/xchem-fragalysis-2/maxwin/BulkDock/OUTPUTS/openbind_a71ev2a_c2_elabs_1LOUU54.sdf', '/opt/xchem-fragalysis-2/maxwin/BulkDock/OUTPUTS/openbind_a71ev2a_c2_elabs_1LSYIDY.sdf']

>  <name>  (1353) 
P577284

>  <ref_pdb>  (1353) 
A3066a

>  <subsites>  (1353) 
None

>  <HIPPO Pose ID>  (1353) 
577284

>  <ref_mols>  (1353) 
A3066a

>  <HIPPO Compound ID>  (1353) 
351055

>  <tags>  (1353) 
openbind_a71ev2a_c2_elabs,syndirella_product,openbind_a71ev2a_c2_elabs_fragonly_scored_top80percent,openbind_a71ev2a_c2_elabs_scored,BulkDock Fragalysis export,openbind_a71ev2a_c2_elabs_scored_top80percent,openbind_a71ev2a_c2_elabs_activefrags_only_scored_5.2plus,syndirella_placed

>  <smina_score_min>  (1353) 
-6.26

$$$$
P577285
     RDKit          3D

 19 20  0  0  0  0  0  0  0  0999 V2000
    9.1932    8.6314   23.3734 C   0  0  0  0  0  0  0  0  0  0  0  0
    9.0964   10.0239   23.7480 N   0  0  0  0  0  0  0  0  0  0  0  0
    9.9408   10.9913   23.2837 C   0  0  0  0  0  0  0  0  0  0  0  0
    9.7419   12.1395   24.0280 C   0  0  0  0  0  0  0  0  0  0  0  0
   10.5910   13.3269   24.0484 C   0  0  0  0  0  0  0  0  0  0  0  0
   10.6876   13.9498   25.0236 O   0  0  0  0  0  0  0  0  0  0  0  0
   11.2666   13.5005   22.6942 N   0  0  0  0  0  0  0  0  0  0  0  0
   12.2768   14.4180   22.2710 C   0  0  0  0  0  0  0  0  0  0  0  0
   12.5048   14.3929   20.7756 C   0  0  1  0  0  0  0  0  0  0  0  0
   12.9591   13.1781   20.3858 F   0  0  0  0  0  0  0  0  0  0  0  0
   11.0250   14.7714   19.8616 Cl  0  0  0  0  0  0  0  0  0  0  0  0
    8.5955   11.9050   24.8410 C   0  0  0  0  0  0  0  0  0  0  0  0
    7.8586   12.7002   25.7443 C   0  0  0  0  0  0  0  0  0  0  0  0
    6.8120   12.1233   26.4596 C   0  0  0  0  0  0  0  0  0  0  0  0
    6.1374   12.8660   27.3469 F   0  0  0  0  0  0  0  0  0  0  0  0
    6.4689   10.7949   26.2926 C   0  0  0  0  0  0  0  0  0  0  0  0
    7.1634   10.0208   25.3747 C   0  0  0  0  0  0  0  0  0  0  0  0
    6.7825    8.7623   25.1591 F   0  0  0  0  0  0  0  0  0  0  0  0
    8.2290   10.5695   24.6634 C   0  0  0  0  0  0  0  0  0  0  0  0
  1  2  1  0
  2  3  1  0
  3  4  2  0
  4  5  1  0
  5  6  2  0
  5  7  1  0
  7  8  1  0
  8  9  1  0
  9 10  1  6
  9 11  1  0
  4 12  1  0
 12 13  2  0
 13 14  1  0
 14 15  1  0
 14 16  2  0
 16 17  1  0
 17 18  1  0
 17 19  2  0
 19  2  1  0
 19 12  1  0
M  END
>  <alias>  (1354) 
None

>  <rmsd(smina/fragmenstein)>  (1354) 
0.649

>  <smiles>  (1354) 
Cn1cc(C(=O)NC[C@@H](F)Cl)c2cc(F)cc(F)c21

>  <gnina_score>  (1354) 
5.16

>  <inspiration_score>  (1354) 
None

>  <energy_score>  (1354) 
-2.747876

>  <distance_score>  (1354) 
0.45148

>  <gnina_score_min>  (1354) 
5.436

>  <inchikey>  (1354) 
UPTPFYIFSYOGJP-SNVBAGLBSA-N

>  <exports>  (1354) 
['/opt/xchem-fragalysis-2/maxwin/BulkDock/OUTPUTS/openbind_a71ev2a_c2_elabs_1LOUU54.sdf', '/opt/xchem-fragalysis-2/maxwin/BulkDock/OUTPUTS/openbind_a71ev2a_c2_elabs_1LSYIDY.sdf']

>  <name>  (1354) 
P577285

>  <ref_pdb>  (1354) 
A3066a

>  <subsites>  (1354) 
None

>  <HIPPO Pose ID>  (1354) 
577285

>  <ref_mols>  (1354) 
A3066a

>  <HIPPO Compound ID>  (1354) 
351057

>  <tags>  (1354) 
openbind_a71ev2a_c2_elabs,syndirella_product,openbind_a71ev2a_c2_elabs_fragonly_scored_top80percent,openbind_a71ev2a_c2_elabs_scored,BulkDock Fragalysis export,openbind_a71ev2a_c2_elabs_scored_top80percent,openbind_a71ev2a_c2_elabs_activefrags_only_scored_5.2plus,syndirella_placed

>  <smina_score_min>  (1354) 
-6.963

$$$$
P577286
     RDKit          3D

 19 20  0  0  0  0  0  0  0  0999 V2000
   10.4121   15.1811   21.0613 C   0  0  0  0  0  0  0  0  0  0  0  0
   11.8888   15.0149   21.4121 C   0  0  2  0  0  0  0  0  0  0  0  0
   12.6367   14.0463   20.1366 Cl  0  0  0  0  0  0  0  0  0  0  0  0
   12.1863   14.4239   22.7681 C   0  0  0  0  0  0  0  0  0  0  0  0
   11.2520   13.4251   23.1164 N   0  0  0  0  0  0  0  0  0  0  0  0
   10.4014   13.2612   24.3621 C   0  0  0  0  0  0  0  0  0  0  0  0
   10.2678   13.9583   25.2785 O   0  0  0  0  0  0  0  0  0  0  0  0
    9.6018   12.0529   24.2514 C   0  0  0  0  0  0  0  0  0  0  0  0
    9.8420   10.9456   23.4598 C   0  0  0  0  0  0  0  0  0  0  0  0
    8.9885    9.9547   23.8501 N   0  0  0  0  0  0  0  0  0  0  0  0
    9.1294    8.5825   23.4232 C   0  0  0  0  0  0  0  0  0  0  0  0
    8.0909   10.4511   24.7650 C   0  0  0  0  0  0  0  0  0  0  0  0
    7.0119    9.8747   25.4277 C   0  0  0  0  0  0  0  0  0  0  0  0
    6.6171    8.6424   25.1251 F   0  0  0  0  0  0  0  0  0  0  0  0
    6.3030   10.5942   26.3780 C   0  0  0  0  0  0  0  0  0  0  0  0
    6.6219   11.9169   26.6056 C   0  0  0  0  0  0  0  0  0  0  0  0
    5.9230   12.6140   27.5104 F   0  0  0  0  0  0  0  0  0  0  0  0
    7.6656   12.5324   25.9259 C   0  0  0  0  0  0  0  0  0  0  0  0
    8.4332   11.7784   25.0112 C   0  0  0  0  0  0  0  0  0  0  0  0
  2  1  1  6
  2  3  1  0
  2  4  1  0
  4  5  1  0
  5  6  1  0
  6  7  2  0
  6  8  1  0
  8  9  2  0
  9 10  1  0
 10 11  1  0
 10 12  1  0
 12 13  2  0
 13 14  1  0
 13 15  1  0
 15 16  2  0
 16 17  1  0
 16 18  1  0
 18 19  2  0
 19  8  1  0
 19 12  1  0
M  END
>  <alias>  (1355) 
None

>  <rmsd(smina/fragmenstein)>  (1355) 
1.039

>  <smiles>  (1355) 
C[C@H](Cl)CNC(=O)c1cn(C)c2c(F)cc(F)cc12

>  <gnina_score>  (1355) 
5.53

>  <inspiration_score>  (1355) 
None

>  <energy_score>  (1355) 
-0.614965

>  <distance_score>  (1355) 
0.722002

>  <gnina_score_min>  (1355) 
5.773

>  <inchikey>  (1355) 
MSHJDMXXISQFRY-ZETCQYMHSA-N

>  <exports>  (1355) 
['/opt/xchem-fragalysis-2/maxwin/BulkDock/OUTPUTS/openbind_a71ev2a_c2_elabs_1LOUU54.sdf', '/opt/xchem-fragalysis-2/maxwin/BulkDock/OUTPUTS/openbind_a71ev2a_c2_elabs_1LSYIDY.sdf']

>  <name>  (1355) 
P577286

>  <ref_pdb>  (1355) 
A3066a

>  <subsites>  (1355) 
None

>  <HIPPO Pose ID>  (1355) 
577286

>  <ref_mols>  (1355) 
A3066a

>  <HIPPO Compound ID>  (1355) 
351060

>  <tags>  (1355) 
openbind_a71ev2a_c2_elabs,syndirella_product,openbind_a71ev2a_c2_elabs_fragonly_scored_top80percent,BulkDock Fragalysis export,openbind_a71ev2a_c2_elabs_scored,openbind_a71ev2a_c2_elabs_scored_top80percent,openbind_a71ev2a_c2_elabs_activefrags_only_scored_5.2plus,openbind_a71ev2a_c2_elabs_activefrags_only_scored_5.5plus,syndirella_placed

>  <smina_score_min>  (1355) 
-6.984

$$$$
P577287
     RDKit          3D

 19 20  0  0  0  0  0  0  0  0999 V2000
   10.9699    8.0356   23.3788 C   0  0  0  0  0  0  0  0  0  0  0  0
    9.8696    8.4192   23.6149 C   0  0  0  0  0  0  0  0  0  0  0  0
    8.5226    8.8562   23.8385 C   0  0  0  0  0  0  0  0  0  0  0  0
    8.4199   10.2465   24.2289 N   0  0  0  0  0  0  0  0  0  0  0  0
    9.1820   11.2613   23.7270 C   0  0  0  0  0  0  0  0  0  0  0  0
    8.9245   12.3850   24.4897 C   0  0  0  0  0  0  0  0  0  0  0  0
    9.7154   13.5876   24.4467 C   0  0  0  0  0  0  0  0  0  0  0  0
   10.0805   14.1003   25.4220 O   0  0  0  0  0  0  0  0  0  0  0  0
   10.0104   13.9133   22.9907 N   0  0  0  0  0  0  0  0  0  0  0  0
   10.8864   14.8729   22.4187 C   0  0  0  0  0  0  0  0  0  0  0  0
   12.0794   14.0756   22.0580 C   0  0  0  0  0  0  0  0  0  0  0  0
   12.6720   13.3078   22.9814 C   0  0  0  0  0  0  0  0  0  0  0  0
   12.5275   14.1359   20.2751 Br  0  0  0  0  0  0  0  0  0  0  0  0
    7.9026   12.0674   25.4047 C   0  0  0  0  0  0  0  0  0  0  0  0
    7.2458   12.8039   26.4056 C   0  0  0  0  0  0  0  0  0  0  0  0
    6.3026   12.1687   27.2083 C   0  0  0  0  0  0  0  0  0  0  0  0
    6.0056   10.8263   27.0138 C   0  0  0  0  0  0  0  0  0  0  0  0
    6.6239   10.0881   26.0045 C   0  0  0  0  0  0  0  0  0  0  0  0
    7.5924   10.7223   25.2220 C   0  0  0  0  0  0  0  0  0  0  0  0
  1  2  3  0
  2  3  1  0
  3  4  1  0
  4  5  1  0
  5  6  2  0
  6  7  1  0
  7  8  2  0
  7  9  1  0
  9 10  1  0
 10 11  1  0
 11 12  2  0
 11 13  1  0
  6 14  1  0
 14 15  2  0
 15 16  1  0
 16 17  2  0
 17 18  1  0
 18 19  2  0
 19  4  1  0
 19 14  1  0
M  END
>  <alias>  (1356) 
None

>  <rmsd(smina/fragmenstein)>  (1356) 
0.332

>  <smiles>  (1356) 
C#CCn1cc(C(=O)NCC(=C)Br)c2ccccc21

>  <gnina_score>  (1356) 
5.256

>  <inspiration_score>  (1356) 
None

>  <energy_score>  (1356) 
-0.386296

>  <distance_score>  (1356) 
1.374333

>  <gnina_score_min>  (1356) 
5.284

>  <inchikey>  (1356) 
UUUMJGZWSVHWPI-UHFFFAOYSA-N

>  <exports>  (1356) 
['/opt/xchem-fragalysis-2/maxwin/BulkDock/OUTPUTS/openbind_a71ev2a_c2_elabs_1LOUU54.sdf', '/opt/xchem-fragalysis-2/maxwin/BulkDock/OUTPUTS/openbind_a71ev2a_c2_elabs_1LSYIDY.sdf']

>  <name>  (1356) 
P577287

>  <ref_pdb>  (1356) 
A3066a

>  <subsites>  (1356) 
None

>  <HIPPO Pose ID>  (1356) 
577287

>  <ref_mols>  (1356) 
A3066a

>  <HIPPO Compound ID>  (1356) 
351064

>  <tags>  (1356) 
openbind_a71ev2a_c2_elabs,syndirella_product,openbind_a71ev2a_c2_elabs_fragonly_scored_top80percent,openbind_a71ev2a_c2_elabs_scored,BulkDock Fragalysis export,openbind_a71ev2a_c2_elabs_scored_top80percent,openbind_a71ev2a_c2_elabs_activefrags_only_scored_5.2plus,syndirella_placed

>  <smina_score_min>  (1356) 
-3.807

$$$$
P577288
     RDKit          3D

 19 21  0  0  0  0  0  0  0  0999 V2000
   10.9969    7.9045   23.3904 C   0  0  0  0  0  0  0  0  0  0  0  0
    9.8922    8.2914   23.5875 C   0  0  0  0  0  0  0  0  0  0  0  0
    8.5909    8.8606   23.7448 C   0  0  0  0  0  0  0  0  0  0  0  0
    8.6624   10.2827   23.9981 N   0  0  0  0  0  0  0  0  0  0  0  0
    9.5104   11.1604   23.3740 C   0  0  0  0  0  0  0  0  0  0  0  0
    9.4012   12.3737   24.0152 C   0  0  0  0  0  0  0  0  0  0  0  0
   10.2324   13.5456   23.7990 C   0  0  0  0  0  0  0  0  0  0  0  0
   10.5073   14.2210   24.7218 O   0  0  0  0  0  0  0  0  0  0  0  0
   10.5296   13.7283   22.3386 N   0  0  0  0  0  0  0  0  0  0  0  0
    9.3973   14.5244   21.6203 C   0  0  0  0  0  0  0  0  0  0  0  0
   10.3552   14.8235   20.5066 C   0  0  0  0  0  0  0  0  0  0  0  0
   11.3520   14.7734   21.6245 C   0  0  2  0  0  0  0  0  0  0  0  0
   12.7306   14.2358   21.3654 C   0  0  0  0  0  0  0  0  0  0  0  0
    8.3559   12.2463   24.9798 C   0  0  0  0  0  0  0  0  0  0  0  0
    7.7526   13.1419   25.8846 C   0  0  0  0  0  0  0  0  0  0  0  0
    6.7504   12.6864   26.7438 C   0  0  0  0  0  0  0  0  0  0  0  0
    6.3431   11.3588   26.7137 C   0  0  0  0  0  0  0  0  0  0  0  0
    6.9113   10.4555   25.8167 C   0  0  0  0  0  0  0  0  0  0  0  0
    7.9169   10.9248   24.9584 C   0  0  0  0  0  0  0  0  0  0  0  0
  1  2  3  0
  2  3  1  0
  3  4  1  0
  4  5  1  0
  5  6  2  0
  6  7  1  0
  7  8  2  0
  7  9  1  0
  9 10  1  0
 10 11  1  0
 11 12  1  0
 12 13  1  6
  6 14  1  0
 14 15  2  0
 15 16  1  0
 16 17  2  0
 17 18  1  0
 18 19  2  0
 19  4  1  0
 12  9  1  0
 19 14  1  0
M  END
>  <alias>  (1357) 
None

>  <rmsd(smina/fragmenstein)>  (1357) 
0.815

>  <smiles>  (1357) 
C#CCn1cc(C(=O)N2CC[C@@H]2C)c2ccccc21

>  <gnina_score>  (1357) 
5.343

>  <inspiration_score>  (1357) 
None

>  <energy_score>  (1357) 
-2.64016

>  <distance_score>  (1357) 
0.914412

>  <gnina_score_min>  (1357) 
5.342

>  <inchikey>  (1357) 
NRTZLXMRFOVAIZ-LBPRGKRZSA-N

>  <exports>  (1357) 
['/opt/xchem-fragalysis-2/maxwin/BulkDock/OUTPUTS/openbind_a71ev2a_c2_elabs_1LOUU54.sdf', '/opt/xchem-fragalysis-2/maxwin/BulkDock/OUTPUTS/openbind_a71ev2a_c2_elabs_1LSYIDY.sdf']

>  <name>  (1357) 
P577288

>  <ref_pdb>  (1357) 
A3066a

>  <subsites>  (1357) 
None

>  <HIPPO Pose ID>  (1357) 
577288

>  <ref_mols>  (1357) 
A3066a

>  <HIPPO Compound ID>  (1357) 
351065

>  <tags>  (1357) 
openbind_a71ev2a_c2_elabs,syndirella_product,openbind_a71ev2a_c2_elabs_fragonly_scored_top80percent,openbind_a71ev2a_c2_elabs_scored,BulkDock Fragalysis export,openbind_a71ev2a_c2_elabs_scored_top80percent,openbind_a71ev2a_c2_elabs_activefrags_only_scored_5.2plus,syndirella_placed

>  <smina_score_min>  (1357) 
-6.195

$$$$
P577289
     RDKit          3D

 19 20  0  0  0  0  0  0  0  0999 V2000
    8.7581    7.4732   21.9836 C   0  0  0  0  0  0  0  0  0  0  0  0
    9.3357    8.0765   22.8262 C   0  0  0  0  0  0  0  0  0  0  0  0
    9.7969    8.7831   23.9642 C   0  0  0  0  0  0  0  0  0  0  0  0
    9.3671   10.1569   23.9057 N   0  0  0  0  0  0  0  0  0  0  0  0
   10.0090   11.0863   23.1478 C   0  0  0  0  0  0  0  0  0  0  0  0
    9.6646   12.3164   23.6419 C   0  0  0  0  0  0  0  0  0  0  0  0
   10.3154   13.5578   23.3054 C   0  0  0  0  0  0  0  0  0  0  0  0
   10.4614   14.3443   24.1498 O   0  0  0  0  0  0  0  0  0  0  0  0
   10.6814   13.6177   21.8148 N   0  0  0  0  0  0  0  0  0  0  0  0
   11.2198   14.6976   21.0251 C   0  0  0  0  0  0  0  0  0  0  0  0
   11.7214   14.2738   19.6462 C   0  0  0  0  0  0  0  0  0  0  0  0
   12.4094   15.2037   21.8406 C   0  0  0  0  0  0  0  0  0  0  0  0
   10.0521   15.6733   20.8212 C   0  0  0  0  0  0  0  0  0  0  0  0
    8.6121   12.1161   24.5895 C   0  0  0  0  0  0  0  0  0  0  0  0
    7.8185   12.9759   25.3754 C   0  0  0  0  0  0  0  0  0  0  0  0
    6.8304   12.4379   26.2061 C   0  0  0  0  0  0  0  0  0  0  0  0
    6.6204   11.0645   26.2576 C   0  0  0  0  0  0  0  0  0  0  0  0
    7.3970   10.1928   25.4939 C   0  0  0  0  0  0  0  0  0  0  0  0
    8.3998   10.7422   24.6848 C   0  0  0  0  0  0  0  0  0  0  0  0
  1  2  3  0
  2  3  1  0
  3  4  1  0
  4  5  1  0
  5  6  2  0
  6  7  1  0
  7  8  2  0
  7  9  1  0
  9 10  1  0
 10 11  1  0
 10 12  1  0
 10 13  1  0
  6 14  1  0
 14 15  2  0
 15 16  1  0
 16 17  2  0
 17 18  1  0
 18 19  2  0
 19  4  1  0
 19 14  1  0
M  END
>  <alias>  (1358) 
None

>  <rmsd(smina/fragmenstein)>  (1358) 
1.275

>  <smiles>  (1358) 
C#CCn1cc(C(=O)NC(C)(C)C)c2ccccc21

>  <gnina_score>  (1358) 
5.425

>  <inspiration_score>  (1358) 
None

>  <energy_score>  (1358) 
-3.705563

>  <distance_score>  (1358) 
0.719287

>  <gnina_score_min>  (1358) 
5.329

>  <inchikey>  (1358) 
HAUKERWCVAVMJY-UHFFFAOYSA-N

>  <exports>  (1358) 
['/opt/xchem-fragalysis-2/maxwin/BulkDock/OUTPUTS/openbind_a71ev2a_c2_elabs_1LOUU54.sdf', '/opt/xchem-fragalysis-2/maxwin/BulkDock/OUTPUTS/openbind_a71ev2a_c2_elabs_1LSYIDY.sdf']

>  <name>  (1358) 
P577289

>  <ref_pdb>  (1358) 
A3066a

>  <subsites>  (1358) 
None

>  <HIPPO Pose ID>  (1358) 
577289

>  <ref_mols>  (1358) 
A3066a

>  <HIPPO Compound ID>  (1358) 
351070

>  <tags>  (1358) 
openbind_a71ev2a_c2_elabs,syndirella_product,openbind_a71ev2a_c2_elabs_fragonly_scored_top80percent,openbind_a71ev2a_c2_elabs_scored,BulkDock Fragalysis export,openbind_a71ev2a_c2_elabs_scored_top80percent,openbind_a71ev2a_c2_elabs_activefrags_only_scored_5.2plus,syndirella_placed

>  <smina_score_min>  (1358) 
-6.129

$$$$
P577293
     RDKit          3D

 19 20  0  0  0  0  0  0  0  0999 V2000
    8.7918    7.5403   22.0264 C   0  0  0  0  0  0  0  0  0  0  0  0
    9.2907    8.2102   22.8697 C   0  0  0  0  0  0  0  0  0  0  0  0
    9.7160    8.9292   24.0147 C   0  0  0  0  0  0  0  0  0  0  0  0
    9.2961   10.3107   23.9861 N   0  0  0  0  0  0  0  0  0  0  0  0
   10.0066   11.2730   23.3402 C   0  0  0  0  0  0  0  0  0  0  0  0
    9.7322   12.4711   23.9632 C   0  0  0  0  0  0  0  0  0  0  0  0
   10.5170   13.6656   23.7357 C   0  0  0  0  0  0  0  0  0  0  0  0
   10.9551   14.2869   24.6137 O   0  0  0  0  0  0  0  0  0  0  0  0
   10.6956   13.8198   22.2282 N   0  0  0  0  0  0  0  0  0  0  0  0
   11.3776   14.8314   21.4659 C   0  0  1  0  0  0  0  0  0  0  0  0
   12.8103   14.3793   21.3063 C   0  0  0  0  0  0  0  0  0  0  0  0
   10.6739   15.0244   20.1211 C   0  0  0  0  0  0  0  0  0  0  0  0
    9.2865   16.1890   20.2977 S   0  0  0  0  0  0  0  0  0  0  0  0
    8.6274   12.2506   24.8309 C   0  0  0  0  0  0  0  0  0  0  0  0
    7.8489   13.0811   25.6584 C   0  0  0  0  0  0  0  0  0  0  0  0
    6.8132   12.5215   26.4134 C   0  0  0  0  0  0  0  0  0  0  0  0
    6.5467   11.1571   26.3541 C   0  0  0  0  0  0  0  0  0  0  0  0
    7.3013   10.3130   25.5398 C   0  0  0  0  0  0  0  0  0  0  0  0
    8.3416   10.8826   24.7942 C   0  0  0  0  0  0  0  0  0  0  0  0
  1  2  3  0
  2  3  1  0
  3  4  1  0
  4  5  1  0
  5  6  2  0
  6  7  1  0
  7  8  2  0
  7  9  1  0
  9 10  1  0
 10 11  1  6
 10 12  1  0
 12 13  1  0
  6 14  1  0
 14 15  2  0
 15 16  1  0
 16 17  2  0
 17 18  1  0
 18 19  2  0
 19  4  1  0
 19 14  1  0
M  END
>  <alias>  (1359) 
None

>  <rmsd(smina/fragmenstein)>  (1359) 
1.315

>  <smiles>  (1359) 
C#CCn1cc(C(=O)N[C@@H](C)CS)c2ccccc21

>  <gnina_score>  (1359) 
5.678

>  <inspiration_score>  (1359) 
None

>  <energy_score>  (1359) 
-2.385172

>  <distance_score>  (1359) 
0.696211

>  <gnina_score_min>  (1359) 
5.603

>  <inchikey>  (1359) 
WBFJQNWFDUZKAB-NSHDSACASA-N

>  <exports>  (1359) 
['/opt/xchem-fragalysis-2/maxwin/BulkDock/OUTPUTS/openbind_a71ev2a_c2_elabs_1LOUU54.sdf', '/opt/xchem-fragalysis-2/maxwin/BulkDock/OUTPUTS/openbind_a71ev2a_c2_elabs_1LSYIDY.sdf']

>  <name>  (1359) 
P577293

>  <ref_pdb>  (1359) 
A3066a

>  <subsites>  (1359) 
None

>  <HIPPO Pose ID>  (1359) 
577293

>  <ref_mols>  (1359) 
A3066a

>  <HIPPO Compound ID>  (1359) 
351085

>  <tags>  (1359) 
openbind_a71ev2a_c2_elabs,syndirella_product,openbind_a71ev2a_c2_elabs_fragonly_scored_top80percent,BulkDock Fragalysis export,openbind_a71ev2a_c2_elabs_scored,openbind_a71ev2a_c2_elabs_scored_top80percent,openbind_a71ev2a_c2_elabs_activefrags_only_scored_5.2plus,openbind_a71ev2a_c2_elabs_activefrags_only_scored_5.5plus,syndirella_placed

>  <smina_score_min>  (1359) 
-6.16

$$$$
P577295
     RDKit          3D

 19 21  0  0  0  0  0  0  0  0999 V2000
   10.9617    7.9022   23.3921 C   0  0  0  0  0  0  0  0  0  0  0  0
    9.8658    8.3038   23.6123 C   0  0  0  0  0  0  0  0  0  0  0  0
    8.5830    8.8984   23.8230 C   0  0  0  0  0  0  0  0  0  0  0  0
    8.6937   10.3045   24.1547 N   0  0  0  0  0  0  0  0  0  0  0  0
    9.5983   11.1731   23.6088 C   0  0  0  0  0  0  0  0  0  0  0  0
    9.4963   12.3756   24.2788 C   0  0  0  0  0  0  0  0  0  0  0  0
   10.3208   13.5447   24.0154 C   0  0  0  0  0  0  0  0  0  0  0  0
   10.7898   14.1951   24.8600 O   0  0  0  0  0  0  0  0  0  0  0  0
   10.3186   13.7399   22.4959 N   0  0  0  0  0  0  0  0  0  0  0  0
   10.7992   14.8007   21.7110 C   0  0  2  0  0  0  0  0  0  0  0  0
    9.8875   15.8294   21.0908 C   0  0  0  0  0  0  0  0  0  0  0  0
   10.3693   14.6825   20.2704 C   0  0  1  0  0  0  0  0  0  0  0  0
   11.3760   14.7527   19.1893 C   0  0  0  0  0  0  0  0  0  0  0  0
    8.4001   12.2578   25.1764 C   0  0  0  0  0  0  0  0  0  0  0  0
    7.7584   13.1572   26.0478 C   0  0  0  0  0  0  0  0  0  0  0  0
    6.7036   12.7070   26.8443 C   0  0  0  0  0  0  0  0  0  0  0  0
    6.2778   11.3857   26.7768 C   0  0  0  0  0  0  0  0  0  0  0  0
    6.8704   10.4838   25.8944 C   0  0  0  0  0  0  0  0  0  0  0  0
    7.9282   10.9458   25.0993 C   0  0  0  0  0  0  0  0  0  0  0  0
  1  2  3  0
  2  3  1  0
  3  4  1  0
  4  5  1  0
  5  6  2  0
  6  7  1  0
  7  8  2  0
  7  9  1  0
 10  9  1  1
 10 11  1  0
 11 12  1  0
 12 13  1  6
  6 14  1  0
 14 15  2  0
 15 16  1  0
 16 17  2  0
 17 18  1  0
 18 19  2  0
 19  4  1  0
 12 10  1  0
 19 14  1  0
M  END
>  <alias>  (1360) 
None

>  <rmsd(smina/fragmenstein)>  (1360) 
0.92

>  <smiles>  (1360) 
C#CCn1cc(C(=O)N[C@@H]2C[C@H]2C)c2ccccc21

>  <gnina_score>  (1360) 
5.342

>  <inspiration_score>  (1360) 
None

>  <energy_score>  (1360) 
-2.559447

>  <distance_score>  (1360) 
1.037942

>  <gnina_score_min>  (1360) 
5.241

>  <inchikey>  (1360) 
YGKDVGACEHANSO-BXUZGUMPSA-N

>  <exports>  (1360) 
['/opt/xchem-fragalysis-2/maxwin/BulkDock/OUTPUTS/openbind_a71ev2a_c2_elabs_1LOUU54.sdf', '/opt/xchem-fragalysis-2/maxwin/BulkDock/OUTPUTS/openbind_a71ev2a_c2_elabs_1LSYIDY.sdf']

>  <name>  (1360) 
P577295

>  <ref_pdb>  (1360) 
A3066a

>  <subsites>  (1360) 
None

>  <HIPPO Pose ID>  (1360) 
577295

>  <ref_mols>  (1360) 
A3066a

>  <HIPPO Compound ID>  (1360) 
351092

>  <tags>  (1360) 
openbind_a71ev2a_c2_elabs,syndirella_product,openbind_a71ev2a_c2_elabs_fragonly_scored_top80percent,openbind_a71ev2a_c2_elabs_scored,BulkDock Fragalysis export,openbind_a71ev2a_c2_elabs_scored_top80percent,openbind_a71ev2a_c2_elabs_activefrags_only_scored_5.2plus,syndirella_placed

>  <smina_score_min>  (1360) 
-6.093

$$$$
P577298
     RDKit          3D

 19 20  0  0  0  0  0  0  0  0999 V2000
   10.9871    7.9081   23.3885 C   0  0  0  0  0  0  0  0  0  0  0  0
    9.8888    8.3041   23.6074 C   0  0  0  0  0  0  0  0  0  0  0  0
    8.5955    8.8904   23.7812 C   0  0  0  0  0  0  0  0  0  0  0  0
    8.6857   10.3045   24.0821 N   0  0  0  0  0  0  0  0  0  0  0  0
    9.5830   11.1786   23.5259 C   0  0  0  0  0  0  0  0  0  0  0  0
    9.4972   12.3680   24.2198 C   0  0  0  0  0  0  0  0  0  0  0  0
   10.3834   13.5113   24.0649 C   0  0  0  0  0  0  0  0  0  0  0  0
   10.8016   14.0718   24.9940 O   0  0  0  0  0  0  0  0  0  0  0  0
   10.5333   13.8129   22.5766 N   0  0  0  0  0  0  0  0  0  0  0  0
   11.3026   14.8077   21.9054 C   0  0  1  0  0  0  0  0  0  0  0  0
   12.6465   14.2495   21.4923 C   0  0  0  0  0  0  0  0  0  0  0  0
   10.3898   15.3295   20.8423 C   0  0  0  0  0  0  0  0  0  0  0  0
   10.4789   15.1119   19.5270 C   0  0  0  0  0  0  0  0  0  0  0  0
    8.3967   12.2484   25.1159 C   0  0  0  0  0  0  0  0  0  0  0  0
    7.7720   13.1384   26.0100 C   0  0  0  0  0  0  0  0  0  0  0  0
    6.7261   12.6840   26.8155 C   0  0  0  0  0  0  0  0  0  0  0  0
    6.2967   11.3648   26.7403 C   0  0  0  0  0  0  0  0  0  0  0  0
    6.8771   10.4708   25.8417 C   0  0  0  0  0  0  0  0  0  0  0  0
    7.9236   10.9391   25.0344 C   0  0  0  0  0  0  0  0  0  0  0  0
  1  2  3  0
  2  3  1  0
  3  4  1  0
  4  5  1  0
  5  6  2  0
  6  7  1  0
  7  8  2  0
  7  9  1  0
  9 10  1  0
 10 11  1  6
 10 12  1  0
 12 13  2  0
  6 14  1  0
 14 15  2  0
 15 16  1  0
 16 17  2  0
 17 18  1  0
 18 19  2  0
 19  4  1  0
 19 14  1  0
M  END
>  <alias>  (1361) 
None

>  <rmsd(smina/fragmenstein)>  (1361) 
0.914

>  <smiles>  (1361) 
C#CCn1cc(C(=O)N[C@@H](C)C=C)c2ccccc21

>  <gnina_score>  (1361) 
5.452

>  <inspiration_score>  (1361) 
None

>  <energy_score>  (1361) 
-8.281548

>  <distance_score>  (1361) 
0.943705

>  <gnina_score_min>  (1361) 
5.323

>  <inchikey>  (1361) 
JJUQSECYHHRTSA-LBPRGKRZSA-N

>  <exports>  (1361) 
['/opt/xchem-fragalysis-2/maxwin/BulkDock/OUTPUTS/openbind_a71ev2a_c2_elabs_1LOUU54.sdf', '/opt/xchem-fragalysis-2/maxwin/BulkDock/OUTPUTS/openbind_a71ev2a_c2_elabs_1LSYIDY.sdf']

>  <name>  (1361) 
P577298

>  <ref_pdb>  (1361) 
A3066a

>  <subsites>  (1361) 
None

>  <HIPPO Pose ID>  (1361) 
577298

>  <ref_mols>  (1361) 
A3066a

>  <HIPPO Compound ID>  (1361) 
351102

>  <tags>  (1361) 
openbind_a71ev2a_c2_elabs,syndirella_product,openbind_a71ev2a_c2_elabs_fragonly_scored_top80percent,openbind_a71ev2a_c2_elabs_scored,BulkDock Fragalysis export,openbind_a71ev2a_c2_elabs_scored_top80percent,openbind_a71ev2a_c2_elabs_activefrags_only_scored_5.2plus,syndirella_placed

>  <smina_score_min>  (1361) 
-6.141

$$$$
P577300
     RDKit          3D

 19 20  0  0  0  0  0  0  0  0999 V2000
    8.7677    7.4868   21.9833 C   0  0  0  0  0  0  0  0  0  0  0  0
    9.2872    8.0935   22.8603 C   0  0  0  0  0  0  0  0  0  0  0  0
    9.7004    8.7807   24.0285 C   0  0  0  0  0  0  0  0  0  0  0  0
    9.3003   10.1633   23.9738 N   0  0  0  0  0  0  0  0  0  0  0  0
    9.9833   11.0731   23.2316 C   0  0  0  0  0  0  0  0  0  0  0  0
    9.6858   12.3154   23.7312 C   0  0  0  0  0  0  0  0  0  0  0  0
   10.4028   13.5216   23.3858 C   0  0  0  0  0  0  0  0  0  0  0  0
   10.6089   14.3175   24.2064 O   0  0  0  0  0  0  0  0  0  0  0  0
   10.7956   13.4962   21.9075 N   0  0  0  0  0  0  0  0  0  0  0  0
   11.4385   14.4784   21.1052 C   0  0  2  0  0  0  0  0  0  0  0  0
   12.5963   15.0571   21.8845 C   0  0  0  0  0  0  0  0  0  0  0  0
   10.3998   15.4429   20.7178 C   0  0  0  0  0  0  0  0  0  0  0  0
    9.4950   16.1735   20.4154 C   0  0  0  0  0  0  0  0  0  0  0  0
    8.6171   12.1484   24.6639 C   0  0  0  0  0  0  0  0  0  0  0  0
    7.8496   13.0329   25.4466 C   0  0  0  0  0  0  0  0  0  0  0  0
    6.8404   12.5259   26.2715 C   0  0  0  0  0  0  0  0  0  0  0  0
    6.5849   11.1595   26.3220 C   0  0  0  0  0  0  0  0  0  0  0  0
    7.3319   10.2621   25.5584 C   0  0  0  0  0  0  0  0  0  0  0  0
    8.3532   10.7801   24.7518 C   0  0  0  0  0  0  0  0  0  0  0  0
  1  2  3  0
  2  3  1  0
  3  4  1  0
  4  5  1  0
  5  6  2  0
  6  7  1  0
  7  8  2  0
  7  9  1  0
  9 10  1  0
 10 11  1  1
 10 12  1  0
 12 13  3  0
  6 14  1  0
 14 15  2  0
 15 16  1  0
 16 17  2  0
 17 18  1  0
 18 19  2  0
 19  4  1  0
 19 14  1  0
M  END
>  <alias>  (1362) 
None

>  <rmsd(smina/fragmenstein)>  (1362) 
1.401

>  <smiles>  (1362) 
C#CCn1cc(C(=O)N[C@H](C)C#C)c2ccccc21

>  <gnina_score>  (1362) 
5.43

>  <inspiration_score>  (1362) 
None

>  <energy_score>  (1362) 
-14.214069

>  <distance_score>  (1362) 
0.679444

>  <gnina_score_min>  (1362) 
5.317

>  <inchikey>  (1362) 
HIBXDANVRDQDID-GFCCVEGCSA-N

>  <exports>  (1362) 
['/opt/xchem-fragalysis-2/maxwin/BulkDock/OUTPUTS/openbind_a71ev2a_c2_elabs_1LOUU54.sdf', '/opt/xchem-fragalysis-2/maxwin/BulkDock/OUTPUTS/openbind_a71ev2a_c2_elabs_1LSYIDY.sdf']

>  <name>  (1362) 
P577300

>  <ref_pdb>  (1362) 
A3066a

>  <subsites>  (1362) 
None

>  <HIPPO Pose ID>  (1362) 
577300

>  <ref_mols>  (1362) 
A3066a

>  <HIPPO Compound ID>  (1362) 
351106

>  <tags>  (1362) 
openbind_a71ev2a_c2_elabs,syndirella_product,openbind_a71ev2a_c2_elabs_fragonly_scored_top80percent,openbind_a71ev2a_c2_elabs_scored,BulkDock Fragalysis export,openbind_a71ev2a_c2_elabs_scored_top80percent,openbind_a71ev2a_c2_elabs_activefrags_only_scored_5.2plus,syndirella_placed

>  <smina_score_min>  (1362) 
-6.833

$$$$
P577301
     RDKit          3D

 19 20  0  0  0  0  0  0  0  0999 V2000
    8.7922    7.5448   22.0260 C   0  0  0  0  0  0  0  0  0  0  0  0
    9.2777    8.2249   22.8691 C   0  0  0  0  0  0  0  0  0  0  0  0
    9.6984    8.9517   24.0108 C   0  0  0  0  0  0  0  0  0  0  0  0
    9.2668   10.3318   23.9842 N   0  0  0  0  0  0  0  0  0  0  0  0
   10.0048   11.3116   23.3901 C   0  0  0  0  0  0  0  0  0  0  0  0
    9.7719   12.4743   24.0978 C   0  0  0  0  0  0  0  0  0  0  0  0
   10.6690   13.6188   24.0743 C   0  0  0  0  0  0  0  0  0  0  0  0
   10.9423   14.1868   25.0503 O   0  0  0  0  0  0  0  0  0  0  0  0
   11.1847   13.7956   22.6485 N   0  0  0  0  0  0  0  0  0  0  0  0
   12.2140   14.6424   22.1306 C   0  0  0  0  0  0  0  0  0  0  0  0
   12.5917   14.2331   20.7253 C   0  0  0  0  0  0  0  0  0  0  0  0
   11.5491   14.6265   19.7765 C   0  0  0  0  0  0  0  0  0  0  0  0
   10.7326   15.0129   19.0476 N   0  0  0  0  0  0  0  0  0  0  0  0
    8.6145   12.2455   24.8965 C   0  0  0  0  0  0  0  0  0  0  0  0
    7.8366   13.0524   25.7481 C   0  0  0  0  0  0  0  0  0  0  0  0
    6.7857   12.4778   26.4696 C   0  0  0  0  0  0  0  0  0  0  0  0
    6.5087   11.1189   26.3613 C   0  0  0  0  0  0  0  0  0  0  0  0
    7.2586   10.2985   25.5190 C   0  0  0  0  0  0  0  0  0  0  0  0
    8.3062   10.8857   24.7975 C   0  0  0  0  0  0  0  0  0  0  0  0
  1  2  3  0
  2  3  1  0
  3  4  1  0
  4  5  1  0
  5  6  2  0
  6  7  1  0
  7  8  2  0
  7  9  1  0
  9 10  1  0
 10 11  1  0
 11 12  1  0
 12 13  3  0
  6 14  1  0
 14 15  2  0
 15 16  1  0
 16 17  2  0
 17 18  1  0
 18 19  2  0
 19  4  1  0
 19 14  1  0
M  END
>  <alias>  (1363) 
None

>  <rmsd(smina/fragmenstein)>  (1363) 
1.732

>  <smiles>  (1363) 
C#CCn1cc(C(=O)NCCC#N)c2ccccc21

>  <gnina_score>  (1363) 
5.402

>  <inspiration_score>  (1363) 
None

>  <energy_score>  (1363) 
-9.891926

>  <distance_score>  (1363) 
0.622636

>  <gnina_score_min>  (1363) 
5.313

>  <inchikey>  (1363) 
UHHUTYJCXCEBTQ-UHFFFAOYSA-N

>  <exports>  (1363) 
['/opt/xchem-fragalysis-2/maxwin/BulkDock/OUTPUTS/openbind_a71ev2a_c2_elabs_1LOUU54.sdf', '/opt/xchem-fragalysis-2/maxwin/BulkDock/OUTPUTS/openbind_a71ev2a_c2_elabs_1LSYIDY.sdf']

>  <name>  (1363) 
P577301

>  <ref_pdb>  (1363) 
A3066a

>  <subsites>  (1363) 
None

>  <HIPPO Pose ID>  (1363) 
577301

>  <ref_mols>  (1363) 
A3066a

>  <HIPPO Compound ID>  (1363) 
351110

>  <tags>  (1363) 
openbind_a71ev2a_c2_elabs,syndirella_product,openbind_a71ev2a_c2_elabs_fragonly_scored_top80percent,openbind_a71ev2a_c2_elabs_scored,BulkDock Fragalysis export,openbind_a71ev2a_c2_elabs_scored_top80percent,openbind_a71ev2a_c2_elabs_activefrags_only_scored_5.2plus,syndirella_placed

>  <smina_score_min>  (1363) 
-6.414

$$$$
P577302
     RDKit          3D

 19 20  0  0  0  0  0  0  0  0999 V2000
    8.8920    8.0968   22.4580 C   0  0  0  0  0  0  0  0  0  0  0  0
    9.5000    8.5535   23.7352 C   0  0  0  0  0  0  0  0  0  0  0  0
   10.9510    8.1595   23.6221 C   0  0  0  0  0  0  0  0  0  0  0  0
    9.2577    9.9698   23.9652 N   0  0  0  0  0  0  0  0  0  0  0  0
    9.9850   10.9799   23.4073 C   0  0  0  0  0  0  0  0  0  0  0  0
    9.7088   12.1335   24.1088 C   0  0  0  0  0  0  0  0  0  0  0  0
   10.3916   13.3761   23.8679 C   0  0  0  0  0  0  0  0  0  0  0  0
   11.2845   13.7533   24.5050 O   0  0  0  0  0  0  0  0  0  0  0  0
    9.7631   13.9541   22.6115 N   0  0  0  0  0  0  0  0  0  0  0  0
   10.1496   15.0654   21.8105 C   0  0  0  0  0  0  0  0  0  0  0  0
   10.6469   14.5643   20.4753 C   0  0  2  0  0  0  0  0  0  0  0  0
   12.1410   14.2747   20.4938 C   0  0  0  0  0  0  0  0  0  0  0  0
   10.1899   15.7266   19.2322 Cl  0  0  0  0  0  0  0  0  0  0  0  0
    8.5886   11.8774   24.9290 C   0  0  0  0  0  0  0  0  0  0  0  0
    7.7798   12.6851   25.7518 C   0  0  0  0  0  0  0  0  0  0  0  0
    6.7281   12.1037   26.4604 C   0  0  0  0  0  0  0  0  0  0  0  0
    6.4724   10.7432   26.3448 C   0  0  0  0  0  0  0  0  0  0  0  0
    7.2455    9.9337   25.5106 C   0  0  0  0  0  0  0  0  0  0  0  0
    8.3108   10.5125   24.8148 C   0  0  0  0  0  0  0  0  0  0  0  0
  1  2  1  0
  2  3  1  0
  2  4  1  0
  4  5  1  0
  5  6  2  0
  6  7  1  0
  7  8  2  0
  7  9  1  0
  9 10  1  0
 10 11  1  0
 11 12  1  1
 11 13  1  0
  6 14  1  0
 14 15  2  0
 15 16  1  0
 16 17  2  0
 17 18  1  0
 18 19  2  0
 19  4  1  0
 19 14  1  0
M  END
>  <alias>  (1364) 
None

>  <rmsd(smina/fragmenstein)>  (1364) 
0.711

>  <smiles>  (1364) 
CC(C)n1cc(C(=O)NC[C@H](C)Cl)c2ccccc21

>  <gnina_score>  (1364) 
5.33

>  <inspiration_score>  (1364) 
None

>  <energy_score>  (1364) 
-15.119496

>  <distance_score>  (1364) 
0.922455

>  <gnina_score_min>  (1364) 
5.41

>  <inchikey>  (1364) 
QBPXIBQUMMJGBB-NSHDSACASA-N

>  <exports>  (1364) 
['/opt/xchem-fragalysis-2/maxwin/BulkDock/OUTPUTS/openbind_a71ev2a_c2_elabs_1LOUU54.sdf', '/opt/xchem-fragalysis-2/maxwin/BulkDock/OUTPUTS/openbind_a71ev2a_c2_elabs_1LSYIDY.sdf']

>  <name>  (1364) 
P577302

>  <ref_pdb>  (1364) 
A3066a

>  <subsites>  (1364) 
None

>  <HIPPO Pose ID>  (1364) 
577302

>  <ref_mols>  (1364) 
A3066a

>  <HIPPO Compound ID>  (1364) 
351118

>  <tags>  (1364) 
openbind_a71ev2a_c2_elabs,syndirella_product,openbind_a71ev2a_c2_elabs_fragonly_scored_top80percent,openbind_a71ev2a_c2_elabs_scored,BulkDock Fragalysis export,openbind_a71ev2a_c2_elabs_scored_top80percent,openbind_a71ev2a_c2_elabs_activefrags_only_scored_5.2plus,syndirella_placed

>  <smina_score_min>  (1364) 
-4.282

$$$$
P577304
     RDKit          3D

 19 20  0  0  0  0  0  0  0  0999 V2000
   10.9365    8.1194   23.6168 C   0  0  0  0  0  0  0  0  0  0  0  0
    9.4738    8.4831   23.6877 C   0  0  0  0  0  0  0  0  0  0  0  0
    8.8910    7.9836   22.4116 C   0  0  0  0  0  0  0  0  0  0  0  0
    9.2201    9.9053   23.8397 N   0  0  0  0  0  0  0  0  0  0  0  0
    9.9374   10.8619   23.1848 C   0  0  0  0  0  0  0  0  0  0  0  0
    9.7324   12.0600   23.8284 C   0  0  0  0  0  0  0  0  0  0  0  0
   10.5686   13.2404   23.6982 C   0  0  0  0  0  0  0  0  0  0  0  0
   10.6386   13.9889   24.5876 O   0  0  0  0  0  0  0  0  0  0  0  0
   11.3007   13.2268   22.3487 N   0  0  0  0  0  0  0  0  0  0  0  0
   12.3361   14.0705   21.8473 C   0  0  2  0  0  0  0  0  0  0  0  0
   11.9599   15.4897   22.1364 C   0  0  0  0  0  0  0  0  0  0  0  0
   12.6002   13.9245   20.3641 C   0  0  0  0  0  0  0  0  0  0  0  0
   13.0873   12.6921   20.0849 F   0  0  0  0  0  0  0  0  0  0  0  0
    8.6240   11.8670   24.7043 C   0  0  0  0  0  0  0  0  0  0  0  0
    7.8788   12.7241   25.5410 C   0  0  0  0  0  0  0  0  0  0  0  0
    6.8462   12.2032   26.3234 C   0  0  0  0  0  0  0  0  0  0  0  0
    6.5546   10.8459   26.2858 C   0  0  0  0  0  0  0  0  0  0  0  0
    7.2775    9.9791   25.4643 C   0  0  0  0  0  0  0  0  0  0  0  0
    8.3141   10.5045   24.6852 C   0  0  0  0  0  0  0  0  0  0  0  0
  1  2  1  0
  2  3  1  0
  2  4  1  0
  4  5  1  0
  5  6  2  0
  6  7  1  0
  7  8  2  0
  7  9  1  0
  9 10  1  0
 10 11  1  6
 10 12  1  0
 12 13  1  0
  6 14  1  0
 14 15  2  0
 15 16  1  0
 16 17  2  0
 17 18  1  0
 18 19  2  0
 19  4  1  0
 19 14  1  0
M  END
>  <alias>  (1365) 
None

>  <rmsd(smina/fragmenstein)>  (1365) 
1.359

>  <smiles>  (1365) 
CC(C)n1cc(C(=O)N[C@H](C)CF)c2ccccc21

>  <gnina_score>  (1365) 
5.135

>  <inspiration_score>  (1365) 
None

>  <energy_score>  (1365) 
-4.037556

>  <distance_score>  (1365) 
0.405086

>  <gnina_score_min>  (1365) 
5.417

>  <inchikey>  (1365) 
JCDFJEYLWLXDRE-LLVKDONJSA-N

>  <exports>  (1365) 
['/opt/xchem-fragalysis-2/maxwin/BulkDock/OUTPUTS/openbind_a71ev2a_c2_elabs_1LOUU54.sdf', '/opt/xchem-fragalysis-2/maxwin/BulkDock/OUTPUTS/openbind_a71ev2a_c2_elabs_1LSYIDY.sdf']

>  <name>  (1365) 
P577304

>  <ref_pdb>  (1365) 
A3066a

>  <subsites>  (1365) 
None

>  <HIPPO Pose ID>  (1365) 
577304

>  <ref_mols>  (1365) 
A3066a

>  <HIPPO Compound ID>  (1365) 
351119

>  <tags>  (1365) 
openbind_a71ev2a_c2_elabs,syndirella_product,openbind_a71ev2a_c2_elabs_fragonly_scored_top80percent,openbind_a71ev2a_c2_elabs_scored,BulkDock Fragalysis export,openbind_a71ev2a_c2_elabs_scored_top80percent,openbind_a71ev2a_c2_elabs_activefrags_only_scored_5.2plus,syndirella_placed

>  <smina_score_min>  (1365) 
-4.715

$$$$
P577306
     RDKit          3D

 19 20  0  0  0  0  0  0  0  0999 V2000
   10.9485    8.1815   23.6187 C   0  0  0  0  0  0  0  0  0  0  0  0
    9.4875    8.5317   23.7337 C   0  0  0  0  0  0  0  0  0  0  0  0
    8.8910    8.0719   22.4512 C   0  0  0  0  0  0  0  0  0  0  0  0
    9.1965    9.9358   23.9792 N   0  0  0  0  0  0  0  0  0  0  0  0
    9.8697   10.9825   23.4161 C   0  0  0  0  0  0  0  0  0  0  0  0
    9.4929   12.1244   24.0895 C   0  0  0  0  0  0  0  0  0  0  0  0
   10.0277   13.4368   23.8711 C   0  0  0  0  0  0  0  0  0  0  0  0
   10.5624   14.0387   24.7084 O   0  0  0  0  0  0  0  0  0  0  0  0
    9.7334   13.8058   22.4214 N   0  0  0  0  0  0  0  0  0  0  0  0
   10.1106   14.9445   21.6652 C   0  0  0  0  0  0  0  0  0  0  0  0
   11.6046   15.1686   21.7940 C   0  0  0  0  0  0  0  0  0  0  0  0
   12.4282   14.2851   20.8871 C   0  0  0  0  0  0  0  0  0  0  0  0
   11.8267   14.4040   19.0423 Br  0  0  0  0  0  0  0  0  0  0  0  0
    8.4363   11.7979   24.9613 C   0  0  0  0  0  0  0  0  0  0  0  0
    7.6158   12.5615   25.8151 C   0  0  0  0  0  0  0  0  0  0  0  0
    6.6079   11.9302   26.5400 C   0  0  0  0  0  0  0  0  0  0  0  0
    6.4051   10.5644   26.4028 C   0  0  0  0  0  0  0  0  0  0  0  0
    7.1984    9.8029   25.5420 C   0  0  0  0  0  0  0  0  0  0  0  0
    8.2310   10.4264   24.8406 C   0  0  0  0  0  0  0  0  0  0  0  0
  1  2  1  0
  2  3  1  0
  2  4  1  0
  4  5  1  0
  5  6  2  0
  6  7  1  0
  7  8  2  0
  7  9  1  0
  9 10  1  0
 10 11  1  0
 11 12  1  0
 12 13  1  0
  6 14  1  0
 14 15  2  0
 15 16  1  0
 16 17  2  0
 17 18  1  0
 18 19  2  0
 19  4  1  0
 19 14  1  0
M  END
>  <alias>  (1366) 
None

>  <rmsd(smina/fragmenstein)>  (1366) 
0.28

>  <smiles>  (1366) 
CC(C)n1cc(C(=O)NCCCBr)c2ccccc21

>  <gnina_score>  (1366) 
5.362

>  <inspiration_score>  (1366) 
None

>  <energy_score>  (1366) 
-1.573165

>  <distance_score>  (1366) 
0.995289

>  <gnina_score_min>  (1366) 
5.357

>  <inchikey>  (1366) 
FPOQNPJSKYBIMK-UHFFFAOYSA-N

>  <exports>  (1366) 
['/opt/xchem-fragalysis-2/maxwin/BulkDock/OUTPUTS/openbind_a71ev2a_c2_elabs_1LOUU54.sdf', '/opt/xchem-fragalysis-2/maxwin/BulkDock/OUTPUTS/openbind_a71ev2a_c2_elabs_1LSYIDY.sdf']

>  <name>  (1366) 
P577306

>  <ref_pdb>  (1366) 
A3066a

>  <subsites>  (1366) 
None

>  <HIPPO Pose ID>  (1366) 
577306

>  <ref_mols>  (1366) 
A3066a

>  <HIPPO Compound ID>  (1366) 
351126

>  <tags>  (1366) 
openbind_a71ev2a_c2_elabs,syndirella_product,openbind_a71ev2a_c2_elabs_fragonly_scored_top80percent,openbind_a71ev2a_c2_elabs_scored,BulkDock Fragalysis export,openbind_a71ev2a_c2_elabs_scored_top80percent,openbind_a71ev2a_c2_elabs_activefrags_only_scored_5.2plus,syndirella_placed

>  <smina_score_min>  (1366) 
-3.193

$$$$
P577307
     RDKit          3D

 19 20  0  0  0  0  0  0  0  0999 V2000
   10.9502    8.1995   23.6115 C   0  0  0  0  0  0  0  0  0  0  0  0
    9.4864    8.5373   23.7109 C   0  0  0  0  0  0  0  0  0  0  0  0
    8.8982    8.0457   22.4356 C   0  0  0  0  0  0  0  0  0  0  0  0
    9.1753    9.9412   23.9279 N   0  0  0  0  0  0  0  0  0  0  0  0
    9.8225   10.9895   23.3356 C   0  0  0  0  0  0  0  0  0  0  0  0
    9.3973   12.1461   23.9531 C   0  0  0  0  0  0  0  0  0  0  0  0
    9.9088   13.4766   23.7491 C   0  0  0  0  0  0  0  0  0  0  0  0
   10.1060   14.1661   24.6643 O   0  0  0  0  0  0  0  0  0  0  0  0
   10.0748   13.7428   22.2537 N   0  0  0  0  0  0  0  0  0  0  0  0
   10.6046   14.8728   21.5679 C   0  0  0  0  0  0  0  0  0  0  0  0
   11.9033   15.2877   22.2242 C   0  0  0  0  0  0  0  0  0  0  0  0
   12.9707   14.2312   22.1150 C   0  0  0  0  0  0  0  0  0  0  0  0
   12.8303   13.2332   23.1276 O   0  0  0  0  0  0  0  0  0  0  0  0
    8.3723   11.8051   24.8649 C   0  0  0  0  0  0  0  0  0  0  0  0
    7.5537   12.5619   25.7290 C   0  0  0  0  0  0  0  0  0  0  0  0
    6.5843   11.9211   26.4965 C   0  0  0  0  0  0  0  0  0  0  0  0
    6.4145   10.5488   26.3925 C   0  0  0  0  0  0  0  0  0  0  0  0
    7.2103    9.7919   25.5304 C   0  0  0  0  0  0  0  0  0  0  0  0
    8.2095   10.4263   24.7907 C   0  0  0  0  0  0  0  0  0  0  0  0
  1  2  1  0
  2  3  1  0
  2  4  1  0
  4  5  1  0
  5  6  2  0
  6  7  1  0
  7  8  2  0
  7  9  1  0
  9 10  1  0
 10 11  1  0
 11 12  1  0
 12 13  1  0
  6 14  1  0
 14 15  2  0
 15 16  1  0
 16 17  2  0
 17 18  1  0
 18 19  2  0
 19  4  1  0
 19 14  1  0
M  END
>  <alias>  (1367) 
None

>  <rmsd(smina/fragmenstein)>  (1367) 
0.474

>  <smiles>  (1367) 
CC(C)n1cc(C(=O)NCCCO)c2ccccc21

>  <gnina_score>  (1367) 
5.248

>  <inspiration_score>  (1367) 
None

>  <energy_score>  (1367) 
-2.710352

>  <distance_score>  (1367) 
0.906826

>  <gnina_score_min>  (1367) 
5.31

>  <inchikey>  (1367) 
ZSWNWHKBMOCDEE-UHFFFAOYSA-N

>  <exports>  (1367) 
['/opt/xchem-fragalysis-2/maxwin/BulkDock/OUTPUTS/openbind_a71ev2a_c2_elabs_1LOUU54.sdf', '/opt/xchem-fragalysis-2/maxwin/BulkDock/OUTPUTS/openbind_a71ev2a_c2_elabs_1LSYIDY.sdf']

>  <name>  (1367) 
P577307

>  <ref_pdb>  (1367) 
A3066a

>  <subsites>  (1367) 
None

>  <HIPPO Pose ID>  (1367) 
577307

>  <ref_mols>  (1367) 
A3066a

>  <HIPPO Compound ID>  (1367) 
351129

>  <tags>  (1367) 
openbind_a71ev2a_c2_elabs,syndirella_product,openbind_a71ev2a_c2_elabs_fragonly_scored_top80percent,openbind_a71ev2a_c2_elabs_scored,BulkDock Fragalysis export,openbind_a71ev2a_c2_elabs_scored_top80percent,openbind_a71ev2a_c2_elabs_activefrags_only_scored_5.2plus,syndirella_placed

>  <smina_score_min>  (1367) 
-4.001

$$$$
P577308
     RDKit          3D

 19 21  0  0  0  0  0  0  0  0999 V2000
    8.9151    8.0987   22.4419 C   0  0  0  0  0  0  0  0  0  0  0  0
    9.5318    8.6147   23.6916 C   0  0  0  0  0  0  0  0  0  0  0  0
   10.9732    8.1920   23.6065 C   0  0  0  0  0  0  0  0  0  0  0  0
    9.3025   10.0429   23.8621 N   0  0  0  0  0  0  0  0  0  0  0  0
   10.0102   11.0482   23.2524 C   0  0  0  0  0  0  0  0  0  0  0  0
    9.7535   12.2280   23.9227 C   0  0  0  0  0  0  0  0  0  0  0  0
   10.4215   13.5211   23.7830 C   0  0  0  0  0  0  0  0  0  0  0  0
   10.6321   14.1655   24.7430 O   0  0  0  0  0  0  0  0  0  0  0  0
   10.6404   13.8374   22.3384 N   0  0  0  0  0  0  0  0  0  0  0  0
   12.0946   13.3889   21.8560 C   0  0  0  0  0  0  0  0  0  0  0  0
   11.9047   14.3092   20.6777 C   0  0  0  0  0  0  0  0  0  0  0  0
   12.2293   14.3883   19.5178 O   0  0  0  0  0  0  0  0  0  0  0  0
   11.1081   15.1291   21.6558 C   0  0  0  0  0  0  0  0  0  0  0  0
    8.6540   11.9606   24.7960 C   0  0  0  0  0  0  0  0  0  0  0  0
    7.8655   12.7718   25.6402 C   0  0  0  0  0  0  0  0  0  0  0  0
    6.8291   12.2016   26.3821 C   0  0  0  0  0  0  0  0  0  0  0  0
    6.5678   10.8412   26.2904 C   0  0  0  0  0  0  0  0  0  0  0  0
    7.3277   10.0211   25.4550 C   0  0  0  0  0  0  0  0  0  0  0  0
    8.3729   10.5962   24.7202 C   0  0  0  0  0  0  0  0  0  0  0  0
  1  2  1  0
  2  3  1  0
  2  4  1  0
  4  5  1  0
  5  6  2  0
  6  7  1  0
  7  8  2  0
  7  9  1  0
  9 10  1  0
 10 11  1  0
 11 12  2  0
 11 13  1  0
  6 14  1  0
 14 15  2  0
 15 16  1  0
 16 17  2  0
 17 18  1  0
 18 19  2  0
 19  4  1  0
 13  9  1  0
 19 14  1  0
M  END
>  <alias>  (1368) 
None

>  <rmsd(smina/fragmenstein)>  (1368) 
0.343

>  <smiles>  (1368) 
CC(C)n1cc(C(=O)N2CC(=O)C2)c2ccccc21

>  <gnina_score>  (1368) 
5.239

>  <inspiration_score>  (1368) 
None

>  <energy_score>  (1368) 
-4.194452

>  <distance_score>  (1368) 
0.619796

>  <gnina_score_min>  (1368) 
5.23

>  <inchikey>  (1368) 
YYNZYAFSKZKERZ-UHFFFAOYSA-N

>  <exports>  (1368) 
['/opt/xchem-fragalysis-2/maxwin/BulkDock/OUTPUTS/openbind_a71ev2a_c2_elabs_1LOUU54.sdf', '/opt/xchem-fragalysis-2/maxwin/BulkDock/OUTPUTS/openbind_a71ev2a_c2_elabs_1LSYIDY.sdf']

>  <name>  (1368) 
P577308

>  <ref_pdb>  (1368) 
A3066a

>  <subsites>  (1368) 
None

>  <HIPPO Pose ID>  (1368) 
577308

>  <ref_mols>  (1368) 
A3066a

>  <HIPPO Compound ID>  (1368) 
351132

>  <tags>  (1368) 
openbind_a71ev2a_c2_elabs,syndirella_product,openbind_a71ev2a_c2_elabs_fragonly_scored_top80percent,openbind_a71ev2a_c2_elabs_scored,BulkDock Fragalysis export,openbind_a71ev2a_c2_elabs_scored_top80percent,openbind_a71ev2a_c2_elabs_activefrags_only_scored_5.2plus,syndirella_placed

>  <smina_score_min>  (1368) 
-3.853

$$$$
P577309
     RDKit          3D

 19 20  0  0  0  0  0  0  0  0999 V2000
   12.7192   14.7411   22.3974 C   0  0  0  0  0  0  0  0  0  0  0  0
   12.2928   14.4149   20.9850 C   0  0  0  0  0  0  0  0  0  0  0  0
   10.7909   14.3286   20.7743 C   0  0  2  0  0  0  0  0  0  0  0  0
    9.9700   15.5979   20.7733 C   0  0  0  0  0  0  0  0  0  0  0  0
   10.2899   13.3382   21.6743 N   0  0  0  0  0  0  0  0  0  0  0  0
    9.8360   13.4559   23.1285 C   0  0  0  0  0  0  0  0  0  0  0  0
    9.7229   14.3895   23.8080 O   0  0  0  0  0  0  0  0  0  0  0  0
    9.4430   12.1482   23.6335 C   0  0  0  0  0  0  0  0  0  0  0  0
    9.9017   10.9234   23.2012 C   0  0  0  0  0  0  0  0  0  0  0  0
    9.2519    9.9405   23.8900 N   0  0  0  0  0  0  0  0  0  0  0  0
    9.5064    8.5207   23.7103 C   0  0  0  0  0  0  0  0  0  0  0  0
    8.9037    8.0332   22.4381 C   0  0  0  0  0  0  0  0  0  0  0  0
   10.9622    8.1469   23.6160 C   0  0  0  0  0  0  0  0  0  0  0  0
    8.3167   10.5061   24.7297 C   0  0  0  0  0  0  0  0  0  0  0  0
    7.3295    9.9374   25.5415 C   0  0  0  0  0  0  0  0  0  0  0  0
    6.5451   10.7740   26.3370 C   0  0  0  0  0  0  0  0  0  0  0  0
    6.7151   12.1504   26.3034 C   0  0  0  0  0  0  0  0  0  0  0  0
    7.6634   12.7195   25.4523 C   0  0  0  0  0  0  0  0  0  0  0  0
    8.4749   11.8905   24.6481 C   0  0  0  0  0  0  0  0  0  0  0  0
  1  2  1  0
  2  3  1  0
  3  4  1  1
  3  5  1  0
  5  6  1  0
  6  7  2  0
  6  8  1  0
  8  9  2  0
  9 10  1  0
 10 11  1  0
 11 12  1  0
 11 13  1  0
 10 14  1  0
 14 15  2  0
 15 16  1  0
 16 17  2  0
 17 18  1  0
 18 19  2  0
 19  8  1  0
 19 14  1  0
M  END
>  <alias>  (1369) 
None

>  <rmsd(smina/fragmenstein)>  (1369) 
0.315

>  <smiles>  (1369) 
CC[C@H](C)NC(=O)c1cn(C(C)C)c2ccccc12

>  <gnina_score>  (1369) 
5.523

>  <inspiration_score>  (1369) 
None

>  <energy_score>  (1369) 
-3.442993

>  <distance_score>  (1369) 
0.942546

>  <gnina_score_min>  (1369) 
5.526

>  <inchikey>  (1369) 
CDHVHNDLQNBDKT-LBPRGKRZSA-N

>  <exports>  (1369) 
['/opt/xchem-fragalysis-2/maxwin/BulkDock/OUTPUTS/openbind_a71ev2a_c2_elabs_1LOUU54.sdf', '/opt/xchem-fragalysis-2/maxwin/BulkDock/OUTPUTS/openbind_a71ev2a_c2_elabs_1LSYIDY.sdf']

>  <name>  (1369) 
P577309

>  <ref_pdb>  (1369) 
A3066a

>  <subsites>  (1369) 
None

>  <HIPPO Pose ID>  (1369) 
577309

>  <ref_mols>  (1369) 
A3066a

>  <HIPPO Compound ID>  (1369) 
351133

>  <tags>  (1369) 
openbind_a71ev2a_c2_elabs,syndirella_product,openbind_a71ev2a_c2_elabs_fragonly_scored_top80percent,BulkDock Fragalysis export,openbind_a71ev2a_c2_elabs_scored,openbind_a71ev2a_c2_elabs_scored_top80percent,openbind_a71ev2a_c2_elabs_activefrags_only_scored_5.2plus,openbind_a71ev2a_c2_elabs_activefrags_only_scored_5.5plus,syndirella_placed

>  <smina_score_min>  (1369) 
-4.334

$$$$
P577310
     RDKit          3D

 19 21  0  0  0  0  0  0  0  0999 V2000
    9.9832    8.9940   21.8829 C   0  0  0  0  0  0  0  0  0  0  0  0
    9.2108    8.9399   23.1681 C   0  0  0  0  0  0  0  0  0  0  0  0
    9.9221    7.9031   23.9659 C   0  0  0  0  0  0  0  0  0  0  0  0
    9.1678   10.2224   23.8530 N   0  0  0  0  0  0  0  0  0  0  0  0
   10.0574   11.2229   23.6206 C   0  0  0  0  0  0  0  0  0  0  0  0
    9.6762   12.3408   24.3177 C   0  0  0  0  0  0  0  0  0  0  0  0
   10.4122   13.5782   24.2275 C   0  0  0  0  0  0  0  0  0  0  0  0
   10.7620   14.1745   25.1634 O   0  0  0  0  0  0  0  0  0  0  0  0
   10.6516   13.8394   22.7344 N   0  0  0  0  0  0  0  0  0  0  0  0
   11.2960   14.9485   22.0654 C   0  0  0  0  0  0  0  0  0  0  0  0
   10.3008   15.6614   21.1047 C   0  0  0  0  0  0  0  0  0  0  0  0
   10.9510   14.7377   19.6925 S   0  0  0  0  0  0  0  0  0  0  0  0
   12.2421   14.4838   20.9394 C   0  0  0  0  0  0  0  0  0  0  0  0
    8.5224   11.9954   25.0564 C   0  0  0  0  0  0  0  0  0  0  0  0
    7.6845   12.7062   25.9360 C   0  0  0  0  0  0  0  0  0  0  0  0
    6.6434   12.0368   26.5796 C   0  0  0  0  0  0  0  0  0  0  0  0
    6.4231   10.6849   26.3432 C   0  0  0  0  0  0  0  0  0  0  0  0
    7.2053    9.9763   25.4300 C   0  0  0  0  0  0  0  0  0  0  0  0
    8.2508   10.6464   24.7898 C   0  0  0  0  0  0  0  0  0  0  0  0
  1  2  1  0
  2  3  1  0
  2  4  1  0
  4  5  1  0
  5  6  2  0
  6  7  1  0
  7  8  2  0
  7  9  1  0
  9 10  1  0
 10 11  1  0
 11 12  1  0
 12 13  1  0
  6 14  1  0
 14 15  2  0
 15 16  1  0
 16 17  2  0
 17 18  1  0
 18 19  2  0
 19  4  1  0
 13 10  1  0
 19 14  1  0
M  END
>  <alias>  (1370) 
None

>  <rmsd(smina/fragmenstein)>  (1370) 
0.399

>  <smiles>  (1370) 
CC(C)n1cc(C(=O)NC2CSC2)c2ccccc21

>  <gnina_score>  (1370) 
5.392

>  <inspiration_score>  (1370) 
None

>  <energy_score>  (1370) 
-7.206965

>  <distance_score>  (1370) 
0.727457

>  <gnina_score_min>  (1370) 
5.497

>  <inchikey>  (1370) 
YKKKSMKDPVIQRN-UHFFFAOYSA-N

>  <exports>  (1370) 
['/opt/xchem-fragalysis-2/maxwin/BulkDock/OUTPUTS/openbind_a71ev2a_c2_elabs_1LOUU54.sdf', '/opt/xchem-fragalysis-2/maxwin/BulkDock/OUTPUTS/openbind_a71ev2a_c2_elabs_1LSYIDY.sdf']

>  <name>  (1370) 
P577310

>  <ref_pdb>  (1370) 
A3066a

>  <subsites>  (1370) 
None

>  <HIPPO Pose ID>  (1370) 
577310

>  <ref_mols>  (1370) 
A3066a

>  <HIPPO Compound ID>  (1370) 
351135

>  <tags>  (1370) 
openbind_a71ev2a_c2_elabs,syndirella_product,openbind_a71ev2a_c2_elabs_fragonly_scored_top80percent,openbind_a71ev2a_c2_elabs_scored,BulkDock Fragalysis export,openbind_a71ev2a_c2_elabs_scored_top80percent,openbind_a71ev2a_c2_elabs_activefrags_only_scored_5.2plus,syndirella_placed

>  <smina_score_min>  (1370) 
-3.962

$$$$
P577311
     RDKit          3D

 19 20  0  0  0  0  0  0  0  0999 V2000
    9.8840    8.0138   23.9981 C   0  0  0  0  0  0  0  0  0  0  0  0
    9.2274    9.0454   23.1470 C   0  0  0  0  0  0  0  0  0  0  0  0
   10.0418    9.0484   21.8885 C   0  0  0  0  0  0  0  0  0  0  0  0
    9.1574   10.3446   23.8017 N   0  0  0  0  0  0  0  0  0  0  0  0
   10.0067   11.3852   23.5616 C   0  0  0  0  0  0  0  0  0  0  0  0
    9.6236   12.4649   24.3234 C   0  0  0  0  0  0  0  0  0  0  0  0
   10.3789   13.6998   24.3812 C   0  0  0  0  0  0  0  0  0  0  0  0
   10.6954   14.1640   25.4007 O   0  0  0  0  0  0  0  0  0  0  0  0
   10.7126   14.1279   22.9479 N   0  0  0  0  0  0  0  0  0  0  0  0
   11.5812   15.1586   22.4625 C   0  0  0  0  0  0  0  0  0  0  0  0
   12.8552   14.5947   21.8942 C   0  0  2  0  0  0  0  0  0  0  0  0
   12.6197   13.8724   20.5973 C   0  0  0  0  0  0  0  0  0  0  0  0
   13.3390   13.7226   22.8259 F   0  0  0  0  0  0  0  0  0  0  0  0
    8.4770   12.0713   25.0543 C   0  0  0  0  0  0  0  0  0  0  0  0
    7.6416   12.7320   25.9755 C   0  0  0  0  0  0  0  0  0  0  0  0
    6.6244   12.0210   26.6130 C   0  0  0  0  0  0  0  0  0  0  0  0
    6.4317   10.6724   26.3402 C   0  0  0  0  0  0  0  0  0  0  0  0
    7.2199   10.0100   25.3984 C   0  0  0  0  0  0  0  0  0  0  0  0
    8.2359   10.7257   24.7563 C   0  0  0  0  0  0  0  0  0  0  0  0
  1  2  1  0
  2  3  1  0
  2  4  1  0
  4  5  1  0
  5  6  2  0
  6  7  1  0
  7  8  2  0
  7  9  1  0
  9 10  1  0
 10 11  1  0
 11 12  1  6
 11 13  1  0
  6 14  1  0
 14 15  2  0
 15 16  1  0
 16 17  2  0
 17 18  1  0
 18 19  2  0
 19  4  1  0
 19 14  1  0
M  END
>  <alias>  (1371) 
None

>  <rmsd(smina/fragmenstein)>  (1371) 
0.824

>  <smiles>  (1371) 
CC(C)n1cc(C(=O)NC[C@H](C)F)c2ccccc21

>  <gnina_score>  (1371) 
5.207

>  <inspiration_score>  (1371) 
None

>  <energy_score>  (1371) 
-0.259407

>  <distance_score>  (1371) 
0.797189

>  <gnina_score_min>  (1371) 
5.281

>  <inchikey>  (1371) 
YUBJKYXEFMWIRZ-NSHDSACASA-N

>  <exports>  (1371) 
['/opt/xchem-fragalysis-2/maxwin/BulkDock/OUTPUTS/openbind_a71ev2a_c2_elabs_1LOUU54.sdf', '/opt/xchem-fragalysis-2/maxwin/BulkDock/OUTPUTS/openbind_a71ev2a_c2_elabs_1LSYIDY.sdf']

>  <name>  (1371) 
P577311

>  <ref_pdb>  (1371) 
A3066a

>  <subsites>  (1371) 
None

>  <HIPPO Pose ID>  (1371) 
577311

>  <ref_mols>  (1371) 
A3066a

>  <HIPPO Compound ID>  (1371) 
351138

>  <tags>  (1371) 
openbind_a71ev2a_c2_elabs,syndirella_product,openbind_a71ev2a_c2_elabs_fragonly_scored_top80percent,openbind_a71ev2a_c2_elabs_scored,BulkDock Fragalysis export,openbind_a71ev2a_c2_elabs_scored_top80percent,openbind_a71ev2a_c2_elabs_activefrags_only_scored_5.2plus,syndirella_placed

>  <smina_score_min>  (1371) 
-3.963

$$$$
P577314
     RDKit          3D

 19 20  0  0  0  0  0  0  0  0999 V2000
    9.6235   15.0643   20.5819 C   0  0  0  0  0  0  0  0  0  0  0  0
   11.1056   14.7553   19.6002 S   0  0  0  0  0  0  0  0  0  0  0  0
   12.3650   14.3046   20.8630 C   0  0  0  0  0  0  0  0  0  0  0  0
   12.1524   14.6438   22.3331 C   0  0  0  0  0  0  0  0  0  0  0  0
   11.4001   13.6281   23.0134 N   0  0  0  0  0  0  0  0  0  0  0  0
    9.9868   13.6624   23.6004 C   0  0  0  0  0  0  0  0  0  0  0  0
    9.2341   14.5384   23.6962 O   0  0  0  0  0  0  0  0  0  0  0  0
    9.5492   12.3426   23.9947 C   0  0  0  0  0  0  0  0  0  0  0  0
   10.0398   11.1793   23.4689 C   0  0  0  0  0  0  0  0  0  0  0  0
    9.2105   10.1560   23.8170 N   0  0  0  0  0  0  0  0  0  0  0  0
    9.2325    8.8587   23.1638 C   0  0  0  0  0  0  0  0  0  0  0  0
    9.9503    8.8887   21.8532 C   0  0  0  0  0  0  0  0  0  0  0  0
    9.9763    7.8435   23.9558 C   0  0  0  0  0  0  0  0  0  0  0  0
    8.2957   10.6017   24.7426 C   0  0  0  0  0  0  0  0  0  0  0  0
    7.2978    9.9319   25.4556 C   0  0  0  0  0  0  0  0  0  0  0  0
    6.4865   10.6696   26.3186 C   0  0  0  0  0  0  0  0  0  0  0  0
    6.6307   12.0469   26.4295 C   0  0  0  0  0  0  0  0  0  0  0  0
    7.6071   12.7164   25.6902 C   0  0  0  0  0  0  0  0  0  0  0  0
    8.4735   11.9835   24.8543 C   0  0  0  0  0  0  0  0  0  0  0  0
  1  2  1  0
  2  3  1  0
  3  4  1  0
  4  5  1  0
  5  6  1  0
  6  7  2  0
  6  8  1  0
  8  9  2  0
  9 10  1  0
 10 11  1  0
 11 12  1  0
 11 13  1  0
 10 14  1  0
 14 15  2  0
 15 16  1  0
 16 17  2  0
 17 18  1  0
 18 19  2  0
 19  8  1  0
 19 14  1  0
M  END
>  <alias>  (1372) 
None

>  <rmsd(smina/fragmenstein)>  (1372) 
0.478

>  <smiles>  (1372) 
CSCCNC(=O)c1cn(C(C)C)c2ccccc12

>  <gnina_score>  (1372) 
5.457

>  <inspiration_score>  (1372) 
None

>  <energy_score>  (1372) 
-10.309387

>  <distance_score>  (1372) 
0.770906

>  <gnina_score_min>  (1372) 
5.384

>  <inchikey>  (1372) 
GSDYVFFWGDQXFF-UHFFFAOYSA-N

>  <exports>  (1372) 
['/opt/xchem-fragalysis-2/maxwin/BulkDock/OUTPUTS/openbind_a71ev2a_c2_elabs_1LOUU54.sdf', '/opt/xchem-fragalysis-2/maxwin/BulkDock/OUTPUTS/openbind_a71ev2a_c2_elabs_1LSYIDY.sdf']

>  <name>  (1372) 
P577314

>  <ref_pdb>  (1372) 
A3066a

>  <subsites>  (1372) 
None

>  <HIPPO Pose ID>  (1372) 
577314

>  <ref_mols>  (1372) 
A3066a

>  <HIPPO Compound ID>  (1372) 
351145

>  <tags>  (1372) 
openbind_a71ev2a_c2_elabs,syndirella_product,openbind_a71ev2a_c2_elabs_fragonly_scored_top80percent,openbind_a71ev2a_c2_elabs_scored,BulkDock Fragalysis export,openbind_a71ev2a_c2_elabs_scored_top80percent,openbind_a71ev2a_c2_elabs_activefrags_only_scored_5.2plus,syndirella_placed

>  <smina_score_min>  (1372) 
-3.781

$$$$
P577315
     RDKit          3D

 19 20  0  0  0  0  0  0  0  0999 V2000
   10.9732    8.1587   23.6023 C   0  0  0  0  0  0  0  0  0  0  0  0
    9.5155    8.5194   23.6832 C   0  0  0  0  0  0  0  0  0  0  0  0
    8.9144    8.0084   22.4198 C   0  0  0  0  0  0  0  0  0  0  0  0
    9.2425    9.9378   23.8447 N   0  0  0  0  0  0  0  0  0  0  0  0
    9.8655   10.9303   23.1394 C   0  0  0  0  0  0  0  0  0  0  0  0
    9.3898   12.1464   23.5769 C   0  0  0  0  0  0  0  0  0  0  0  0
    9.7594   13.4754   23.1096 C   0  0  0  0  0  0  0  0  0  0  0  0
    9.5621   14.3731   23.8161 O   0  0  0  0  0  0  0  0  0  0  0  0
   10.3219   13.4373   21.6913 N   0  0  0  0  0  0  0  0  0  0  0  0
   10.8521   14.4878   20.8696 C   0  0  1  0  0  0  0  0  0  0  0  0
    9.8161   15.5711   20.6372 C   0  0  0  0  0  0  0  0  0  0  0  0
   12.0617   14.9262   21.5615 C   0  0  0  0  0  0  0  0  0  0  0  0
   12.9936   15.1114   22.2231 N   0  0  0  0  0  0  0  0  0  0  0  0
    8.4322   11.8707   24.6025 C   0  0  0  0  0  0  0  0  0  0  0  0
    7.6180   12.6836   25.4227 C   0  0  0  0  0  0  0  0  0  0  0  0
    6.6929   12.0995   26.2889 C   0  0  0  0  0  0  0  0  0  0  0  0
    6.5478   10.7213   26.3246 C   0  0  0  0  0  0  0  0  0  0  0  0
    7.3370    9.9012   25.5172 C   0  0  0  0  0  0  0  0  0  0  0  0
    8.3017   10.4865   24.6898 C   0  0  0  0  0  0  0  0  0  0  0  0
  1  2  1  0
  2  3  1  0
  2  4  1  0
  4  5  1  0
  5  6  2  0
  6  7  1  0
  7  8  2  0
  7  9  1  0
  9 10  1  0
 10 11  1  1
 10 12  1  0
 12 13  3  0
  6 14  1  0
 14 15  2  0
 15 16  1  0
 16 17  2  0
 17 18  1  0
 18 19  2  0
 19  4  1  0
 19 14  1  0
M  END
>  <alias>  (1373) 
None

>  <rmsd(smina/fragmenstein)>  (1373) 
0.334

>  <smiles>  (1373) 
CC(C)n1cc(C(=O)N[C@@H](C)C#N)c2ccccc21

>  <gnina_score>  (1373) 
5.576

>  <inspiration_score>  (1373) 
None

>  <energy_score>  (1373) 
-7.670458

>  <distance_score>  (1373) 
0.946759

>  <gnina_score_min>  (1373) 
5.611

>  <inchikey>  (1373) 
AVNRSLQPPFSMBK-NSHDSACASA-N

>  <exports>  (1373) 
['/opt/xchem-fragalysis-2/maxwin/BulkDock/OUTPUTS/openbind_a71ev2a_c2_elabs_1LOUU54.sdf', '/opt/xchem-fragalysis-2/maxwin/BulkDock/OUTPUTS/openbind_a71ev2a_c2_elabs_1LSYIDY.sdf']

>  <name>  (1373) 
P577315

>  <ref_pdb>  (1373) 
A3066a

>  <subsites>  (1373) 
None

>  <HIPPO Pose ID>  (1373) 
577315

>  <ref_mols>  (1373) 
A3066a

>  <HIPPO Compound ID>  (1373) 
351148

>  <tags>  (1373) 
openbind_a71ev2a_c2_elabs,syndirella_product,openbind_a71ev2a_c2_elabs_fragonly_scored_top80percent,BulkDock Fragalysis export,openbind_a71ev2a_c2_elabs_scored,openbind_a71ev2a_c2_elabs_scored_top80percent,openbind_a71ev2a_c2_elabs_activefrags_only_scored_5.2plus,openbind_a71ev2a_c2_elabs_activefrags_only_scored_5.5plus,syndirella_placed

>  <smina_score_min>  (1373) 
-4.507

$$$$
P577316
     RDKit          3D

 19 21  0  0  0  0  0  0  0  0999 V2000
   10.9745    8.2716   23.5293 C   0  0  0  0  0  0  0  0  0  0  0  0
    9.8115    9.0672   22.9820 C   0  0  0  0  0  0  0  0  0  0  0  0
    8.6677    8.1471   22.9852 C   0  0  0  0  0  0  0  0  0  0  0  0
    9.5435   10.3248   23.6586 N   0  0  0  0  0  0  0  0  0  0  0  0
   10.2786   11.4032   23.2874 C   0  0  0  0  0  0  0  0  0  0  0  0
    9.9136   12.4932   24.0357 C   0  0  0  0  0  0  0  0  0  0  0  0
   10.6279   13.7353   23.8762 C   0  0  0  0  0  0  0  0  0  0  0  0
   11.1039   14.3312   24.7556 O   0  0  0  0  0  0  0  0  0  0  0  0
   10.6821   13.9814   22.3626 N   0  0  0  0  0  0  0  0  0  0  0  0
   11.3865   14.9243   21.6264 C   0  0  1  0  0  0  0  0  0  0  0  0
   12.8680   15.0220   21.5612 C   0  0  0  0  0  0  0  0  0  0  0  0
   12.1415   14.2690   20.4872 C   0  0  2  0  0  0  0  0  0  0  0  0
   11.6849   14.6481   19.1255 C   0  0  0  0  0  0  0  0  0  0  0  0
    8.8049   12.1054   24.8150 C   0  0  0  0  0  0  0  0  0  0  0  0
    7.9449   12.8095   25.6824 C   0  0  0  0  0  0  0  0  0  0  0  0
    6.9129   12.1370   26.3353 C   0  0  0  0  0  0  0  0  0  0  0  0
    6.7349   10.7762   26.1380 C   0  0  0  0  0  0  0  0  0  0  0  0
    7.5664   10.0601   25.2706 C   0  0  0  0  0  0  0  0  0  0  0  0
    8.5973   10.7290   24.5882 C   0  0  0  0  0  0  0  0  0  0  0  0
  1  2  1  0
  2  3  1  0
  2  4  1  0
  4  5  1  0
  5  6  2  0
  6  7  1  0
  7  8  2  0
  7  9  1  0
 10  9  1  1
 10 11  1  0
 11 12  1  0
 12 13  1  6
  6 14  1  0
 14 15  2  0
 15 16  1  0
 16 17  2  0
 17 18  1  0
 18 19  2  0
 19  4  1  0
 12 10  1  0
 19 14  1  0
M  END
>  <alias>  (1374) 
None

>  <rmsd(smina/fragmenstein)>  (1374) 
0.23

>  <smiles>  (1374) 
CC(C)n1cc(C(=O)N[C@H]2C[C@@H]2C)c2ccccc21

>  <gnina_score>  (1374) 
5.325

>  <inspiration_score>  (1374) 
None

>  <energy_score>  (1374) 
-5.596334

>  <distance_score>  (1374) 
0.581771

>  <gnina_score_min>  (1374) 
5.33

>  <inchikey>  (1374) 
AEYGIUIZBQHZDS-FZMZJTMJSA-N

>  <exports>  (1374) 
['/opt/xchem-fragalysis-2/maxwin/BulkDock/OUTPUTS/openbind_a71ev2a_c2_elabs_1LOUU54.sdf', '/opt/xchem-fragalysis-2/maxwin/BulkDock/OUTPUTS/openbind_a71ev2a_c2_elabs_1LSYIDY.sdf']

>  <name>  (1374) 
P577316

>  <ref_pdb>  (1374) 
A3066a

>  <subsites>  (1374) 
None

>  <HIPPO Pose ID>  (1374) 
577316

>  <ref_mols>  (1374) 
A3066a

>  <HIPPO Compound ID>  (1374) 
351149

>  <tags>  (1374) 
openbind_a71ev2a_c2_elabs,syndirella_product,openbind_a71ev2a_c2_elabs_fragonly_scored_top80percent,openbind_a71ev2a_c2_elabs_scored,BulkDock Fragalysis export,openbind_a71ev2a_c2_elabs_scored_top80percent,openbind_a71ev2a_c2_elabs_activefrags_only_scored_5.2plus,syndirella_placed

>  <smina_score_min>  (1374) 
-4.604

$$$$
P577317
     RDKit          3D

 19 20  0  0  0  0  0  0  0  0999 V2000
    9.9270    7.9101   23.9732 C   0  0  0  0  0  0  0  0  0  0  0  0
    9.2228    8.9424   23.1649 C   0  0  0  0  0  0  0  0  0  0  0  0
    9.9802    8.9621   21.8726 C   0  0  0  0  0  0  0  0  0  0  0  0
    9.2060   10.2383   23.8248 N   0  0  0  0  0  0  0  0  0  0  0  0
   10.0895   11.2308   23.5439 C   0  0  0  0  0  0  0  0  0  0  0  0
    9.7050   12.3784   24.1852 C   0  0  0  0  0  0  0  0  0  0  0  0
   10.4107   13.6197   23.9738 C   0  0  0  0  0  0  0  0  0  0  0  0
   10.7897   14.2886   24.8477 O   0  0  0  0  0  0  0  0  0  0  0  0
   10.5280   13.8056   22.4545 N   0  0  0  0  0  0  0  0  0  0  0  0
   11.0532   14.9001   21.6854 C   0  0  2  0  0  0  0  0  0  0  0  0
    9.9409   15.4104   20.7759 C   0  0  0  0  0  0  0  0  0  0  0  0
   12.2987   14.4465   20.9180 C   0  0  0  0  0  0  0  0  0  0  0  0
   13.4256   15.0802   21.5125 O   0  0  0  0  0  0  0  0  0  0  0  0
    8.5733   12.0531   24.9701 C   0  0  0  0  0  0  0  0  0  0  0  0
    7.7417   12.7909   25.8333 C   0  0  0  0  0  0  0  0  0  0  0  0
    6.7084   12.1409   26.5115 C   0  0  0  0  0  0  0  0  0  0  0  0
    6.4861   10.7809   26.3249 C   0  0  0  0  0  0  0  0  0  0  0  0
    7.2622   10.0410   25.4317 C   0  0  0  0  0  0  0  0  0  0  0  0
    8.3007   10.6929   24.7589 C   0  0  0  0  0  0  0  0  0  0  0  0
  1  2  1  0
  2  3  1  0
  2  4  1  0
  4  5  1  0
  5  6  2  0
  6  7  1  0
  7  8  2  0
  7  9  1  0
  9 10  1  0
 10 11  1  6
 10 12  1  0
 12 13  1  0
  6 14  1  0
 14 15  2  0
 15 16  1  0
 16 17  2  0
 17 18  1  0
 18 19  2  0
 19  4  1  0
 19 14  1  0
M  END
>  <alias>  (1375) 
None

>  <rmsd(smina/fragmenstein)>  (1375) 
0.369

>  <smiles>  (1375) 
CC(C)n1cc(C(=O)N[C@H](C)CO)c2ccccc21

>  <gnina_score>  (1375) 
5.38

>  <inspiration_score>  (1375) 
None

>  <energy_score>  (1375) 
-1.024299

>  <distance_score>  (1375) 
0.702301

>  <gnina_score_min>  (1375) 
5.443

>  <inchikey>  (1375) 
CCMYRJUKVBBDLU-LLVKDONJSA-N

>  <exports>  (1375) 
['/opt/xchem-fragalysis-2/maxwin/BulkDock/OUTPUTS/openbind_a71ev2a_c2_elabs_1LOUU54.sdf', '/opt/xchem-fragalysis-2/maxwin/BulkDock/OUTPUTS/openbind_a71ev2a_c2_elabs_1LSYIDY.sdf']

>  <name>  (1375) 
P577317

>  <ref_pdb>  (1375) 
A3066a

>  <subsites>  (1375) 
None

>  <HIPPO Pose ID>  (1375) 
577317

>  <ref_mols>  (1375) 
A3066a

>  <HIPPO Compound ID>  (1375) 
351152

>  <tags>  (1375) 
openbind_a71ev2a_c2_elabs,syndirella_product,openbind_a71ev2a_c2_elabs_fragonly_scored_top80percent,openbind_a71ev2a_c2_elabs_scored,BulkDock Fragalysis export,openbind_a71ev2a_c2_elabs_scored_top80percent,openbind_a71ev2a_c2_elabs_activefrags_only_scored_5.2plus,syndirella_placed

>  <smina_score_min>  (1375) 
-4.914

$$$$
P577319
     RDKit          3D

 19 20  0  0  0  0  0  0  0  0999 V2000
    9.5951   15.9793   20.2384 C   0  0  0  0  0  0  0  0  0  0  0  0
   10.5656   15.0707   20.4054 C   0  0  0  0  0  0  0  0  0  0  0  0
   11.3063   14.8713   21.6925 C   0  0  2  0  0  0  0  0  0  0  0  0
   12.7207   14.3670   21.5040 C   0  0  0  0  0  0  0  0  0  0  0  0
   10.5497   13.9220   22.4381 N   0  0  0  0  0  0  0  0  0  0  0  0
   10.4808   13.6678   23.9492 C   0  0  0  0  0  0  0  0  0  0  0  0
   10.9717   14.2422   24.8343 O   0  0  0  0  0  0  0  0  0  0  0  0
    9.7312   12.4463   24.1406 C   0  0  0  0  0  0  0  0  0  0  0  0
   10.0899   11.2955   23.4876 C   0  0  0  0  0  0  0  0  0  0  0  0
    9.2076   10.3076   23.7911 N   0  0  0  0  0  0  0  0  0  0  0  0
    9.2163    8.9963   23.1627 C   0  0  0  0  0  0  0  0  0  0  0  0
    9.8890    7.9735   24.0063 C   0  0  0  0  0  0  0  0  0  0  0  0
    9.9906    8.9634   21.8811 C   0  0  0  0  0  0  0  0  0  0  0  0
    8.3145   10.7742   24.7321 C   0  0  0  0  0  0  0  0  0  0  0  0
    7.2764   10.1312   25.4164 C   0  0  0  0  0  0  0  0  0  0  0  0
    6.5150   10.8807   26.3142 C   0  0  0  0  0  0  0  0  0  0  0  0
    6.7559   12.2379   26.4999 C   0  0  0  0  0  0  0  0  0  0  0  0
    7.7912   12.8769   25.8132 C   0  0  0  0  0  0  0  0  0  0  0  0
    8.6033   12.1324   24.9372 C   0  0  0  0  0  0  0  0  0  0  0  0
  1  2  2  0
  2  3  1  0
  3  4  1  6
  3  5  1  0
  5  6  1  0
  6  7  2  0
  6  8  1  0
  8  9  2  0
  9 10  1  0
 10 11  1  0
 11 12  1  0
 11 13  1  0
 10 14  1  0
 14 15  2  0
 15 16  1  0
 16 17  2  0
 17 18  1  0
 18 19  2  0
 19  8  1  0
 19 14  1  0
M  END
>  <alias>  (1376) 
None

>  <rmsd(smina/fragmenstein)>  (1376) 
0.368

>  <smiles>  (1376) 
C=C[C@H](C)NC(=O)c1cn(C(C)C)c2ccccc12

>  <gnina_score>  (1376) 
5.496

>  <inspiration_score>  (1376) 
None

>  <energy_score>  (1376) 
-4.229911

>  <distance_score>  (1376) 
0.66188

>  <gnina_score_min>  (1376) 
5.555

>  <inchikey>  (1376) 
ZXULHDHFCYXHFI-LBPRGKRZSA-N

>  <exports>  (1376) 
['/opt/xchem-fragalysis-2/maxwin/BulkDock/OUTPUTS/openbind_a71ev2a_c2_elabs_1LOUU54.sdf', '/opt/xchem-fragalysis-2/maxwin/BulkDock/OUTPUTS/openbind_a71ev2a_c2_elabs_1LSYIDY.sdf']

>  <name>  (1376) 
P577319

>  <ref_pdb>  (1376) 
A3066a

>  <subsites>  (1376) 
None

>  <HIPPO Pose ID>  (1376) 
577319

>  <ref_mols>  (1376) 
A3066a

>  <HIPPO Compound ID>  (1376) 
351158

>  <tags>  (1376) 
openbind_a71ev2a_c2_elabs,syndirella_product,openbind_a71ev2a_c2_elabs_fragonly_scored_top80percent,BulkDock Fragalysis export,openbind_a71ev2a_c2_elabs_scored,openbind_a71ev2a_c2_elabs_scored_top80percent,openbind_a71ev2a_c2_elabs_activefrags_only_scored_5.2plus,openbind_a71ev2a_c2_elabs_activefrags_only_scored_5.5plus,syndirella_placed

>  <smina_score_min>  (1376) 
-5.207

$$$$
P577320
     RDKit          3D

 19 20  0  0  0  0  0  0  0  0999 V2000
   10.6290   15.0018   19.3653 C   0  0  0  0  0  0  0  0  0  0  0  0
   11.2081   14.7632   20.5424 C   0  0  0  0  0  0  0  0  0  0  0  0
   12.7322   13.9934   20.6003 Cl  0  0  0  0  0  0  0  0  0  0  0  0
   10.6987   15.2270   21.8506 C   0  0  0  0  0  0  0  0  0  0  0  0
   10.1553   14.1208   22.5668 N   0  0  0  0  0  0  0  0  0  0  0  0
   10.3075   13.7143   24.0357 C   0  0  0  0  0  0  0  0  0  0  0  0
   10.8377   14.2569   24.9179 O   0  0  0  0  0  0  0  0  0  0  0  0
    9.6500   12.4419   24.1952 C   0  0  0  0  0  0  0  0  0  0  0  0
   10.0516   11.3272   23.5058 C   0  0  0  0  0  0  0  0  0  0  0  0
    9.2077   10.2980   23.7972 N   0  0  0  0  0  0  0  0  0  0  0  0
    9.2431    8.9961   23.1472 C   0  0  0  0  0  0  0  0  0  0  0  0
   10.0220    8.9952   21.8695 C   0  0  0  0  0  0  0  0  0  0  0  0
    9.9177    7.9640   23.9819 C   0  0  0  0  0  0  0  0  0  0  0  0
    8.2952   10.7143   24.7462 C   0  0  0  0  0  0  0  0  0  0  0  0
    7.2754   10.0258   25.4126 C   0  0  0  0  0  0  0  0  0  0  0  0
    6.4863   10.7286   26.3242 C   0  0  0  0  0  0  0  0  0  0  0  0
    6.6811   12.0881   26.5402 C   0  0  0  0  0  0  0  0  0  0  0  0
    7.6962   12.7737   25.8703 C   0  0  0  0  0  0  0  0  0  0  0  0
    8.5347   12.0734   24.9827 C   0  0  0  0  0  0  0  0  0  0  0  0
  1  2  2  0
  2  3  1  0
  2  4  1  0
  4  5  1  0
  5  6  1  0
  6  7  2  0
  6  8  1  0
  8  9  2  0
  9 10  1  0
 10 11  1  0
 11 12  1  0
 11 13  1  0
 10 14  1  0
 14 15  2  0
 15 16  1  0
 16 17  2  0
 17 18  1  0
 18 19  2  0
 19  8  1  0
 19 14  1  0
M  END
>  <alias>  (1377) 
None

>  <rmsd(smina/fragmenstein)>  (1377) 
0.778

>  <smiles>  (1377) 
C=C(Cl)CNC(=O)c1cn(C(C)C)c2ccccc12

>  <gnina_score>  (1377) 
5.393

>  <inspiration_score>  (1377) 
None

>  <energy_score>  (1377) 
-10.423887

>  <distance_score>  (1377) 
0.846297

>  <gnina_score_min>  (1377) 
5.507

>  <inchikey>  (1377) 
NUZMKPJXXDJHQB-UHFFFAOYSA-N

>  <exports>  (1377) 
['/opt/xchem-fragalysis-2/maxwin/BulkDock/OUTPUTS/openbind_a71ev2a_c2_elabs_1LOUU54.sdf', '/opt/xchem-fragalysis-2/maxwin/BulkDock/OUTPUTS/openbind_a71ev2a_c2_elabs_1LSYIDY.sdf']

>  <name>  (1377) 
P577320

>  <ref_pdb>  (1377) 
A3066a

>  <subsites>  (1377) 
None

>  <HIPPO Pose ID>  (1377) 
577320

>  <ref_mols>  (1377) 
A3066a

>  <HIPPO Compound ID>  (1377) 
351159

>  <tags>  (1377) 
openbind_a71ev2a_c2_elabs,syndirella_product,openbind_a71ev2a_c2_elabs_fragonly_scored_top80percent,BulkDock Fragalysis export,openbind_a71ev2a_c2_elabs_scored,openbind_a71ev2a_c2_elabs_scored_top80percent,openbind_a71ev2a_c2_elabs_activefrags_only_scored_5.2plus,openbind_a71ev2a_c2_elabs_activefrags_only_scored_5.5plus,syndirella_placed

>  <smina_score_min>  (1377) 
-4.702

$$$$
P577322
     RDKit          3D

 19 20  0  0  0  0  0  0  0  0999 V2000
   10.9797    8.2708   23.5257 C   0  0  0  0  0  0  0  0  0  0  0  0
    9.8243    9.0683   22.9656 C   0  0  0  0  0  0  0  0  0  0  0  0
    8.6682    8.1615   22.9938 C   0  0  0  0  0  0  0  0  0  0  0  0
    9.5772   10.3469   23.6118 N   0  0  0  0  0  0  0  0  0  0  0  0
   10.3014   11.4175   23.1938 C   0  0  0  0  0  0  0  0  0  0  0  0
    9.9366   12.5328   23.9022 C   0  0  0  0  0  0  0  0  0  0  0  0
   10.6207   13.7835   23.6775 C   0  0  0  0  0  0  0  0  0  0  0  0
   11.1064   14.4088   24.5298 O   0  0  0  0  0  0  0  0  0  0  0  0
   10.6334   13.9931   22.1609 N   0  0  0  0  0  0  0  0  0  0  0  0
   11.3236   14.9611   21.3597 C   0  0  1  0  0  0  0  0  0  0  0  0
   12.7792   14.5305   21.3319 C   0  0  0  0  0  0  0  0  0  0  0  0
   10.7089   14.9972   19.9583 C   0  0  0  0  0  0  0  0  0  0  0  0
    9.1193   15.8072   19.9805 Cl  0  0  0  0  0  0  0  0  0  0  0  0
    8.8528   12.1593   24.7265 C   0  0  0  0  0  0  0  0  0  0  0  0
    8.0042   12.8844   25.5886 C   0  0  0  0  0  0  0  0  0  0  0  0
    6.9807   12.2286   26.2725 C   0  0  0  0  0  0  0  0  0  0  0  0
    6.7994   10.8636   26.1121 C   0  0  0  0  0  0  0  0  0  0  0  0
    7.6233   10.1238   25.2575 C   0  0  0  0  0  0  0  0  0  0  0  0
    8.6461   10.7757   24.5458 C   0  0  0  0  0  0  0  0  0  0  0  0
  1  2  1  0
  2  3  1  0
  2  4  1  0
  4  5  1  0
  5  6  2  0
  6  7  1  0
  7  8  2  0
  7  9  1  0
  9 10  1  0
 10 11  1  6
 10 12  1  0
 12 13  1  0
  6 14  1  0
 14 15  2  0
 15 16  1  0
 16 17  2  0
 17 18  1  0
 18 19  2  0
 19  4  1  0
 19 14  1  0
M  END
>  <alias>  (1378) 
None

>  <rmsd(smina/fragmenstein)>  (1378) 
0.459

>  <smiles>  (1378) 
CC(C)n1cc(C(=O)N[C@@H](C)CCl)c2ccccc21

>  <gnina_score>  (1378) 
5.659

>  <inspiration_score>  (1378) 
None

>  <energy_score>  (1378) 
-8.839934

>  <distance_score>  (1378) 
0.608974

>  <gnina_score_min>  (1378) 
5.554

>  <inchikey>  (1378) 
CZZJCYCKJPPZEA-NSHDSACASA-N

>  <exports>  (1378) 
['/opt/xchem-fragalysis-2/maxwin/BulkDock/OUTPUTS/openbind_a71ev2a_c2_elabs_1LOUU54.sdf', '/opt/xchem-fragalysis-2/maxwin/BulkDock/OUTPUTS/openbind_a71ev2a_c2_elabs_1LSYIDY.sdf']

>  <name>  (1378) 
P577322

>  <ref_pdb>  (1378) 
A3066a

>  <subsites>  (1378) 
None

>  <HIPPO Pose ID>  (1378) 
577322

>  <ref_mols>  (1378) 
A3066a

>  <HIPPO Compound ID>  (1378) 
351161

>  <tags>  (1378) 
openbind_a71ev2a_c2_elabs,syndirella_product,openbind_a71ev2a_c2_elabs_fragonly_scored_top80percent,BulkDock Fragalysis export,openbind_a71ev2a_c2_elabs_scored,openbind_a71ev2a_c2_elabs_scored_top80percent,openbind_a71ev2a_c2_elabs_activefrags_only_scored_5.2plus,openbind_a71ev2a_c2_elabs_activefrags_only_scored_5.5plus,syndirella_placed

>  <smina_score_min>  (1378) 
-5.339

$$$$
P577323
     RDKit          3D

 19 20  0  0  0  0  0  0  0  0999 V2000
   11.8330   14.3296   18.9664 C   0  0  0  0  0  0  0  0  0  0  0  0
   12.2456   14.3546   20.0893 C   0  0  0  0  0  0  0  0  0  0  0  0
   12.7158   14.4806   21.4626 C   0  0  0  0  0  0  0  0  0  0  0  0
   11.5867   14.9706   22.3358 C   0  0  0  0  0  0  0  0  0  0  0  0
   10.7779   13.8781   22.7847 N   0  0  0  0  0  0  0  0  0  0  0  0
   10.3828   13.4518   24.1918 C   0  0  0  0  0  0  0  0  0  0  0  0
   10.5839   13.9592   25.2172 O   0  0  0  0  0  0  0  0  0  0  0  0
    9.6388   12.2032   24.1398 C   0  0  0  0  0  0  0  0  0  0  0  0
    9.9439   11.0774   23.3959 C   0  0  0  0  0  0  0  0  0  0  0  0
    9.2251   10.0299   23.9159 N   0  0  0  0  0  0  0  0  0  0  0  0
    9.5049    8.6139   23.7104 C   0  0  0  0  0  0  0  0  0  0  0  0
    8.9037    8.1062   22.4497 C   0  0  0  0  0  0  0  0  0  0  0  0
   10.9558    8.2253   23.6127 C   0  0  0  0  0  0  0  0  0  0  0  0
    8.2572   10.5257   24.7722 C   0  0  0  0  0  0  0  0  0  0  0  0
    7.2169    9.8980   25.4650 C   0  0  0  0  0  0  0  0  0  0  0  0
    6.4335   10.6558   26.3370 C   0  0  0  0  0  0  0  0  0  0  0  0
    6.6584   12.0155   26.4989 C   0  0  0  0  0  0  0  0  0  0  0  0
    7.6891   12.6422   25.8000 C   0  0  0  0  0  0  0  0  0  0  0  0
    8.5028   11.8878   24.9292 C   0  0  0  0  0  0  0  0  0  0  0  0
  1  2  3  0
  2  3  1  0
  3  4  1  0
  4  5  1  0
  5  6  1  0
  6  7  2  0
  6  8  1  0
  8  9  2  0
  9 10  1  0
 10 11  1  0
 11 12  1  0
 11 13  1  0
 10 14  1  0
 14 15  2  0
 15 16  1  0
 16 17  2  0
 17 18  1  0
 18 19  2  0
 19  8  1  0
 19 14  1  0
M  END
>  <alias>  (1379) 
None

>  <rmsd(smina/fragmenstein)>  (1379) 
0.801

>  <smiles>  (1379) 
C#CCCNC(=O)c1cn(C(C)C)c2ccccc12

>  <gnina_score>  (1379) 
5.165

>  <inspiration_score>  (1379) 
None

>  <energy_score>  (1379) 
-12.162085

>  <distance_score>  (1379) 
0.669501

>  <gnina_score_min>  (1379) 
5.453

>  <inchikey>  (1379) 
QVNXGDYWVLKSFV-UHFFFAOYSA-N

>  <exports>  (1379) 
['/opt/xchem-fragalysis-2/maxwin/BulkDock/OUTPUTS/openbind_a71ev2a_c2_elabs_1LOUU54.sdf', '/opt/xchem-fragalysis-2/maxwin/BulkDock/OUTPUTS/openbind_a71ev2a_c2_elabs_1LSYIDY.sdf']

>  <name>  (1379) 
P577323

>  <ref_pdb>  (1379) 
A3066a

>  <subsites>  (1379) 
None

>  <HIPPO Pose ID>  (1379) 
577323

>  <ref_mols>  (1379) 
A3066a

>  <HIPPO Compound ID>  (1379) 
351165

>  <tags>  (1379) 
openbind_a71ev2a_c2_elabs,syndirella_product,openbind_a71ev2a_c2_elabs_fragonly_scored_top80percent,openbind_a71ev2a_c2_elabs_scored,BulkDock Fragalysis export,openbind_a71ev2a_c2_elabs_scored_top80percent,openbind_a71ev2a_c2_elabs_activefrags_only_scored_5.2plus,syndirella_placed

>  <smina_score_min>  (1379) 
-4.798

$$$$
P577324
     RDKit          3D

 19 20  0  0  0  0  0  0  0  0999 V2000
   10.8506    8.1753   23.7433 C   0  0  0  0  0  0  0  0  0  0  0  0
    9.9778    8.9528   22.8144 C   0  0  0  0  0  0  0  0  0  0  0  0
    8.9867    7.9790   22.2769 C   0  0  0  0  0  0  0  0  0  0  0  0
    9.5109   10.2015   23.3865 N   0  0  0  0  0  0  0  0  0  0  0  0
   10.1523   11.3587   23.0562 C   0  0  0  0  0  0  0  0  0  0  0  0
    9.7320   12.3752   23.8805 C   0  0  0  0  0  0  0  0  0  0  0  0
   10.4174   13.6507   23.9155 C   0  0  0  0  0  0  0  0  0  0  0  0
   10.6900   14.1754   24.9171 O   0  0  0  0  0  0  0  0  0  0  0  0
   10.7515   14.0319   22.4734 N   0  0  0  0  0  0  0  0  0  0  0  0
   11.5700   15.0842   21.9556 C   0  0  0  0  0  0  0  0  0  0  0  0
   12.5081   14.5087   20.8987 C   0  0  1  0  0  0  0  0  0  0  0  0
   12.8493   13.2433   21.2617 F   0  0  0  0  0  0  0  0  0  0  0  0
   11.6923   14.4513   19.3208 Cl  0  0  0  0  0  0  0  0  0  0  0  0
    8.6734   11.8559   24.6575 C   0  0  0  0  0  0  0  0  0  0  0  0
    7.8016   12.4273   25.6059 C   0  0  0  0  0  0  0  0  0  0  0  0
    6.8569   11.6253   26.2443 C   0  0  0  0  0  0  0  0  0  0  0  0
    6.8002   10.2643   25.9735 C   0  0  0  0  0  0  0  0  0  0  0  0
    7.6725    9.6754   25.0515 C   0  0  0  0  0  0  0  0  0  0  0  0
    8.5829   10.4829   24.3669 C   0  0  0  0  0  0  0  0  0  0  0  0
  1  2  1  0
  2  3  1  0
  2  4  1  0
  4  5  1  0
  5  6  2  0
  6  7  1  0
  7  8  2  0
  7  9  1  0
  9 10  1  0
 10 11  1  0
 11 12  1  1
 11 13  1  0
  6 14  1  0
 14 15  2  0
 15 16  1  0
 16 17  2  0
 17 18  1  0
 18 19  2  0
 19  4  1  0
 19 14  1  0
M  END
>  <alias>  (1380) 
None

>  <rmsd(smina/fragmenstein)>  (1380) 
0.817

>  <smiles>  (1380) 
CC(C)n1cc(C(=O)NC[C@@H](F)Cl)c2ccccc21

>  <gnina_score>  (1380) 
5.29

>  <inspiration_score>  (1380) 
None

>  <energy_score>  (1380) 
-4.392395

>  <distance_score>  (1380) 
0.604136

>  <gnina_score_min>  (1380) 
5.449

>  <inchikey>  (1380) 
ZTCFZQZGVBCMMQ-CYBMUJFWSA-N

>  <exports>  (1380) 
['/opt/xchem-fragalysis-2/maxwin/BulkDock/OUTPUTS/openbind_a71ev2a_c2_elabs_1LOUU54.sdf', '/opt/xchem-fragalysis-2/maxwin/BulkDock/OUTPUTS/openbind_a71ev2a_c2_elabs_1LSYIDY.sdf']

>  <name>  (1380) 
P577324

>  <ref_pdb>  (1380) 
A3066a

>  <subsites>  (1380) 
None

>  <HIPPO Pose ID>  (1380) 
577324

>  <ref_mols>  (1380) 
A3066a

>  <HIPPO Compound ID>  (1380) 
351168

>  <tags>  (1380) 
openbind_a71ev2a_c2_elabs,syndirella_product,openbind_a71ev2a_c2_elabs_fragonly_scored_top80percent,openbind_a71ev2a_c2_elabs_scored,BulkDock Fragalysis export,openbind_a71ev2a_c2_elabs_scored_top80percent,openbind_a71ev2a_c2_elabs_activefrags_only_scored_5.2plus,syndirella_placed

>  <smina_score_min>  (1380) 
-4.926

$$$$
P577326
     RDKit          3D

 19 20  0  0  0  0  0  0  0  0999 V2000
   10.9531    8.1200   23.6109 C   0  0  0  0  0  0  0  0  0  0  0  0
    9.4954    8.4956   23.6898 C   0  0  0  0  0  0  0  0  0  0  0  0
    8.8986    8.0051   22.4176 C   0  0  0  0  0  0  0  0  0  0  0  0
    9.2524    9.9175   23.8570 N   0  0  0  0  0  0  0  0  0  0  0  0
    9.9555   10.8834   23.1999 C   0  0  0  0  0  0  0  0  0  0  0  0
    9.6760   12.0957   23.7854 C   0  0  0  0  0  0  0  0  0  0  0  0
   10.3598   13.3480   23.5235 C   0  0  0  0  0  0  0  0  0  0  0  0
   10.4749   14.1261   24.3808 O   0  0  0  0  0  0  0  0  0  0  0  0
   10.8259   13.4008   22.0643 N   0  0  0  0  0  0  0  0  0  0  0  0
   11.4475   14.4565   21.3240 C   0  0  2  0  0  0  0  0  0  0  0  0
   12.6657   14.9184   22.0955 C   0  0  0  0  0  0  0  0  0  0  0  0
   10.4276   15.5781   21.1223 C   0  0  0  0  0  0  0  0  0  0  0  0
    9.8082   15.6506   19.4356 S   0  0  0  0  0  0  0  0  0  0  0  0
    8.6094   11.8739   24.7042 C   0  0  0  0  0  0  0  0  0  0  0  0
    7.8409   12.7225   25.5284 C   0  0  0  0  0  0  0  0  0  0  0  0
    6.8249   12.1851   26.3209 C   0  0  0  0  0  0  0  0  0  0  0  0
    6.5637   10.8217   26.2950 C   0  0  0  0  0  0  0  0  0  0  0  0
    7.3076    9.9647   25.4819 C   0  0  0  0  0  0  0  0  0  0  0  0
    8.3379   10.5041   24.7037 C   0  0  0  0  0  0  0  0  0  0  0  0
  1  2  1  0
  2  3  1  0
  2  4  1  0
  4  5  1  0
  5  6  2  0
  6  7  1  0
  7  8  2  0
  7  9  1  0
  9 10  1  0
 10 11  1  1
 10 12  1  0
 12 13  1  0
  6 14  1  0
 14 15  2  0
 15 16  1  0
 16 17  2  0
 17 18  1  0
 18 19  2  0
 19  4  1  0
 19 14  1  0
M  END
>  <alias>  (1381) 
None

>  <rmsd(smina/fragmenstein)>  (1381) 
0.196

>  <smiles>  (1381) 
CC(C)n1cc(C(=O)N[C@H](C)CS)c2ccccc21

>  <gnina_score>  (1381) 
5.744

>  <inspiration_score>  (1381) 
None

>  <energy_score>  (1381) 
-16.7453

>  <distance_score>  (1381) 
0.559213

>  <gnina_score_min>  (1381) 
5.712

>  <inchikey>  (1381) 
VBHXVHOHKZVSGO-LLVKDONJSA-N

>  <exports>  (1381) 
['/opt/xchem-fragalysis-2/maxwin/BulkDock/OUTPUTS/openbind_a71ev2a_c2_elabs_1LOUU54.sdf', '/opt/xchem-fragalysis-2/maxwin/BulkDock/OUTPUTS/openbind_a71ev2a_c2_elabs_1LSYIDY.sdf']

>  <name>  (1381) 
P577326

>  <ref_pdb>  (1381) 
A3066a

>  <subsites>  (1381) 
None

>  <HIPPO Pose ID>  (1381) 
577326

>  <ref_mols>  (1381) 
A3066a

>  <HIPPO Compound ID>  (1381) 
351169

>  <tags>  (1381) 
openbind_a71ev2a_c2_elabs,syndirella_product,openbind_a71ev2a_c2_elabs_fragonly_scored_top80percent,BulkDock Fragalysis export,openbind_a71ev2a_c2_elabs_scored,openbind_a71ev2a_c2_elabs_scored_top80percent,openbind_a71ev2a_c2_elabs_activefrags_only_scored_5.2plus,openbind_a71ev2a_c2_elabs_activefrags_only_scored_5.5plus,syndirella_placed

>  <smina_score_min>  (1381) 
-4.262

$$$$
P577329
     RDKit          3D

 19 21  0  0  0  0  0  0  0  0999 V2000
    9.9931   15.2510   20.7958 C   0  0  0  0  0  0  0  0  0  0  0  0
   11.4338   14.9102   20.6113 C   0  0  1  0  0  0  0  0  0  0  0  0
   12.4232   15.2315   21.7107 C   0  0  0  0  0  0  0  0  0  0  0  0
   12.1183   13.8264   21.3892 C   0  0  1  0  0  0  0  0  0  0  0  0
   11.3170   12.9684   22.1336 N   0  0  0  0  0  0  0  0  0  0  0  0
   10.7334   13.1211   23.5505 C   0  0  0  0  0  0  0  0  0  0  0  0
   10.8946   13.9565   24.3494 O   0  0  0  0  0  0  0  0  0  0  0  0
    9.8486   11.9878   23.8071 C   0  0  0  0  0  0  0  0  0  0  0  0
    9.9632   10.7423   23.2230 C   0  0  0  0  0  0  0  0  0  0  0  0
    9.0717    9.8986   23.8025 N   0  0  0  0  0  0  0  0  0  0  0  0
    9.0846    8.4810   23.5517 C   0  0  0  0  0  0  0  0  0  0  0  0
    8.2656   10.5947   24.6651 C   0  0  0  0  0  0  0  0  0  0  0  0
    7.1702   10.1955   25.4308 C   0  0  0  0  0  0  0  0  0  0  0  0
    6.6959    8.9508   25.3438 F   0  0  0  0  0  0  0  0  0  0  0  0
    6.5502   11.1090   26.2702 C   0  0  0  0  0  0  0  0  0  0  0  0
    6.9972   12.4179   26.3019 C   0  0  0  0  0  0  0  0  0  0  0  0
    6.3977   13.2928   27.1205 F   0  0  0  0  0  0  0  0  0  0  0  0
    8.0693   12.8461   25.5187 C   0  0  0  0  0  0  0  0  0  0  0  0
    8.7316   11.9146   24.6927 C   0  0  0  0  0  0  0  0  0  0  0  0
  2  1  1  1
  2  3  1  0
  3  4  1  0
  4  5  1  1
  5  6  1  0
  6  7  2  0
  6  8  1  0
  8  9  2  0
  9 10  1  0
 10 11  1  0
 10 12  1  0
 12 13  2  0
 13 14  1  0
 13 15  1  0
 15 16  2  0
 16 17  1  0
 16 18  1  0
 18 19  2  0
  4  2  1  0
 19  8  1  0
 19 12  1  0
M  END
>  <alias>  (1382) 
None

>  <rmsd(smina/fragmenstein)>  (1382) 
0.436

>  <smiles>  (1382) 
C[C@H]1C[C@H]1NC(=O)c1cn(C)c2c(F)cc(F)cc12

>  <gnina_score>  (1382) 
5.665

>  <inspiration_score>  (1382) 
None

>  <energy_score>  (1382) 
-6.376718

>  <distance_score>  (1382) 
0.476314

>  <gnina_score_min>  (1382) 
5.593

>  <inchikey>  (1382) 
MAVZXKVPZKWCIM-JVXZTZIISA-N

>  <exports>  (1382) 
['/opt/xchem-fragalysis-2/maxwin/BulkDock/OUTPUTS/openbind_a71ev2a_c2_elabs_1LOUU54.sdf', '/opt/xchem-fragalysis-2/maxwin/BulkDock/OUTPUTS/openbind_a71ev2a_c2_elabs_1LSYIDY.sdf']

>  <name>  (1382) 
P577329

>  <ref_pdb>  (1382) 
A3066a

>  <subsites>  (1382) 
None

>  <HIPPO Pose ID>  (1382) 
577329

>  <ref_mols>  (1382) 
A3066a

>  <HIPPO Compound ID>  (1382) 
351173

>  <tags>  (1382) 
openbind_a71ev2a_c2_elabs,syndirella_product,openbind_a71ev2a_c2_elabs_fragonly_scored_top80percent,BulkDock Fragalysis export,openbind_a71ev2a_c2_elabs_scored,openbind_a71ev2a_c2_elabs_scored_top80percent,openbind_a71ev2a_c2_elabs_activefrags_only_scored_5.2plus,openbind_a71ev2a_c2_elabs_activefrags_only_scored_5.5plus,syndirella_placed

>  <smina_score_min>  (1382) 
-7.189

$$$$
P577330
     RDKit          3D

 19 21  0  0  0  0  0  0  0  0999 V2000
    9.1965    8.7337   23.3369 C   0  0  0  0  0  0  0  0  0  0  0  0
    9.0831   10.1115   23.7647 N   0  0  0  0  0  0  0  0  0  0  0  0
    9.8776   11.1194   23.2973 C   0  0  0  0  0  0  0  0  0  0  0  0
    9.6553   12.2521   24.0583 C   0  0  0  0  0  0  0  0  0  0  0  0
   10.4140   13.4997   24.0250 C   0  0  0  0  0  0  0  0  0  0  0  0
   10.6795   14.0624   25.0235 O   0  0  0  0  0  0  0  0  0  0  0  0
   10.7003   13.8639   22.6040 N   0  0  0  0  0  0  0  0  0  0  0  0
   11.3241   15.1046   22.0105 C   0  0  0  0  0  0  0  0  0  0  0  0
   11.9523   14.2258   20.9653 C   0  0  0  0  0  0  0  0  0  0  0  0
   13.1892   14.5942   20.3630 O   0  0  0  0  0  0  0  0  0  0  0  0
   12.0422   13.2952   22.1388 C   0  0  0  0  0  0  0  0  0  0  0  0
    8.5496   11.9570   24.9050 C   0  0  0  0  0  0  0  0  0  0  0  0
    7.8020   12.7156   25.8297 C   0  0  0  0  0  0  0  0  0  0  0  0
    6.7746   12.0980   26.5389 C   0  0  0  0  0  0  0  0  0  0  0  0
    6.0847   12.8063   27.4426 F   0  0  0  0  0  0  0  0  0  0  0  0
    6.4605   10.7657   26.3449 C   0  0  0  0  0  0  0  0  0  0  0  0
    7.1687   10.0258   25.4093 C   0  0  0  0  0  0  0  0  0  0  0  0
    6.8143    8.7641   25.1679 F   0  0  0  0  0  0  0  0  0  0  0  0
    8.2166   10.6146   24.7049 C   0  0  0  0  0  0  0  0  0  0  0  0
  1  2  1  0
  2  3  1  0
  3  4  2  0
  4  5  1  0
  5  6  2  0
  5  7  1  0
  7  8  1  0
  8  9  1  0
  9 10  1  0
  9 11  1  0
  4 12  1  0
 12 13  2  0
 13 14  1  0
 14 15  1  0
 14 16  2  0
 16 17  1  0
 17 18  1  0
 17 19  2  0
 19  2  1  0
 11  7  1  0
 19 12  1  0
M  END
>  <alias>  (1383) 
None

>  <rmsd(smina/fragmenstein)>  (1383) 
0.566

>  <smiles>  (1383) 
Cn1cc(C(=O)N2CC(O)C2)c2cc(F)cc(F)c21

>  <gnina_score>  (1383) 
5.356

>  <inspiration_score>  (1383) 
None

>  <energy_score>  (1383) 
-1.465829

>  <distance_score>  (1383) 
0.638782

>  <gnina_score_min>  (1383) 
5.309

>  <inchikey>  (1383) 
RPRWAXZJIURACE-UHFFFAOYSA-N

>  <exports>  (1383) 
['/opt/xchem-fragalysis-2/maxwin/BulkDock/OUTPUTS/openbind_a71ev2a_c2_elabs_1LOUU54.sdf', '/opt/xchem-fragalysis-2/maxwin/BulkDock/OUTPUTS/openbind_a71ev2a_c2_elabs_1LSYIDY.sdf']

>  <name>  (1383) 
P577330

>  <ref_pdb>  (1383) 
A3066a

>  <subsites>  (1383) 
None

>  <HIPPO Pose ID>  (1383) 
577330

>  <ref_mols>  (1383) 
A3066a

>  <HIPPO Compound ID>  (1383) 
351174

>  <tags>  (1383) 
openbind_a71ev2a_c2_elabs,syndirella_product,openbind_a71ev2a_c2_elabs_fragonly_scored_top80percent,openbind_a71ev2a_c2_elabs_scored,BulkDock Fragalysis export,openbind_a71ev2a_c2_elabs_scored_top80percent,openbind_a71ev2a_c2_elabs_activefrags_only_scored_5.2plus,syndirella_placed

>  <smina_score_min>  (1383) 
-6.206

$$$$
P577332
     RDKit          3D

 19 20  0  0  0  0  0  0  0  0999 V2000
   12.7832   14.6099   21.5351 C   0  0  0  0  0  0  0  0  0  0  0  0
   11.2802   14.7640   21.6230 C   0  0  1  0  0  0  0  0  0  0  0  0
   10.5464   14.9645   20.2932 C   0  0  0  0  0  0  0  0  0  0  0  0
   11.1743   14.2504   19.2435 O   0  0  0  0  0  0  0  0  0  0  0  0
   10.7559   13.6103   22.2999 N   0  0  0  0  0  0  0  0  0  0  0  0
   10.4435   13.3831   23.7769 C   0  0  0  0  0  0  0  0  0  0  0  0
   10.6301   14.0639   24.7005 O   0  0  0  0  0  0  0  0  0  0  0  0
    9.7213   12.1314   23.9192 C   0  0  0  0  0  0  0  0  0  0  0  0
    9.9585   10.9648   23.2220 C   0  0  0  0  0  0  0  0  0  0  0  0
    9.1463    9.9895   23.7224 N   0  0  0  0  0  0  0  0  0  0  0  0
    9.2387    8.5986   23.3415 C   0  0  0  0  0  0  0  0  0  0  0  0
    8.2819   10.5363   24.6421 C   0  0  0  0  0  0  0  0  0  0  0  0
    7.2228    9.9896   25.3640 C   0  0  0  0  0  0  0  0  0  0  0  0
    6.8482    8.7278   25.1624 F   0  0  0  0  0  0  0  0  0  0  0  0
    6.5196   10.7708   26.2699 C   0  0  0  0  0  0  0  0  0  0  0  0
    6.8489   12.1050   26.4156 C   0  0  0  0  0  0  0  0  0  0  0  0
    6.1659   12.8557   27.2895 F   0  0  0  0  0  0  0  0  0  0  0  0
    7.8830   12.6831   25.6832 C   0  0  0  0  0  0  0  0  0  0  0  0
    8.6253   11.8811   24.7906 C   0  0  0  0  0  0  0  0  0  0  0  0
  2  1  1  6
  2  3  1  0
  3  4  1  0
  2  5  1  0
  5  6  1  0
  6  7  2  0
  6  8  1  0
  8  9  2  0
  9 10  1  0
 10 11  1  0
 10 12  1  0
 12 13  2  0
 13 14  1  0
 13 15  1  0
 15 16  2  0
 16 17  1  0
 16 18  1  0
 18 19  2  0
 19  8  1  0
 19 12  1  0
M  END
>  <alias>  (1384) 
None

>  <rmsd(smina/fragmenstein)>  (1384) 
0.523

>  <smiles>  (1384) 
C[C@@H](CO)NC(=O)c1cn(C)c2c(F)cc(F)cc12

>  <gnina_score>  (1384) 
5.648

>  <inspiration_score>  (1384) 
None

>  <energy_score>  (1384) 
-11.987788

>  <distance_score>  (1384) 
0.53626

>  <gnina_score_min>  (1384) 
5.708

>  <inchikey>  (1384) 
VXCCEXRFSLJTQZ-ZETCQYMHSA-N

>  <exports>  (1384) 
['/opt/xchem-fragalysis-2/maxwin/BulkDock/OUTPUTS/openbind_a71ev2a_c2_elabs_1LOUU54.sdf', '/opt/xchem-fragalysis-2/maxwin/BulkDock/OUTPUTS/openbind_a71ev2a_c2_elabs_1LSYIDY.sdf']

>  <name>  (1384) 
P577332

>  <ref_pdb>  (1384) 
A3066a

>  <subsites>  (1384) 
None

>  <HIPPO Pose ID>  (1384) 
577332

>  <ref_mols>  (1384) 
A3066a

>  <HIPPO Compound ID>  (1384) 
351176

>  <tags>  (1384) 
openbind_a71ev2a_c2_elabs,syndirella_product,openbind_a71ev2a_c2_elabs_fragonly_scored_top80percent,BulkDock Fragalysis export,openbind_a71ev2a_c2_elabs_scored,openbind_a71ev2a_c2_elabs_scored_top80percent,openbind_a71ev2a_c2_elabs_activefrags_only_scored_5.2plus,openbind_a71ev2a_c2_elabs_activefrags_only_scored_5.5plus,syndirella_placed

>  <smina_score_min>  (1384) 
-7.794

$$$$
P577333
     RDKit          3D

 19 21  0  0  0  0  0  0  0  0999 V2000
    9.2374    8.5043   23.4335 C   0  0  0  0  0  0  0  0  0  0  0  0
    9.1213    9.9099   23.7365 N   0  0  0  0  0  0  0  0  0  0  0  0
    9.9260   10.8602   23.1834 C   0  0  0  0  0  0  0  0  0  0  0  0
    9.6872   12.0563   23.8250 C   0  0  0  0  0  0  0  0  0  0  0  0
   10.3954   13.3038   23.6166 C   0  0  0  0  0  0  0  0  0  0  0  0
   10.5263   14.0513   24.4994 O   0  0  0  0  0  0  0  0  0  0  0  0
   10.7787   13.4354   22.1358 N   0  0  0  0  0  0  0  0  0  0  0  0
   11.3043   14.5219   21.4248 C   0  0  0  0  0  0  0  0  0  0  0  0
   12.5804   15.0232   22.0180 C   0  0  0  0  0  0  0  0  0  0  0  0
   11.1075   14.6560   19.9408 C   0  0  0  0  0  0  0  0  0  0  0  0
   10.2856   15.4965   20.8646 C   0  0  0  0  0  0  0  0  0  0  0  0
    8.6122   11.8409   24.7321 C   0  0  0  0  0  0  0  0  0  0  0  0
    7.8911   12.6750   25.6132 C   0  0  0  0  0  0  0  0  0  0  0  0
    6.8629   12.1280   26.3773 C   0  0  0  0  0  0  0  0  0  0  0  0
    6.1992   12.9100   27.2386 F   0  0  0  0  0  0  0  0  0  0  0  0
    6.5149   10.7951   26.2695 C   0  0  0  0  0  0  0  0  0  0  0  0
    7.1988    9.9825   25.3768 C   0  0  0  0  0  0  0  0  0  0  0  0
    6.7982    8.7256   25.1982 F   0  0  0  0  0  0  0  0  0  0  0  0
    8.2608   10.4947   24.6346 C   0  0  0  0  0  0  0  0  0  0  0  0
  1  2  1  0
  2  3  1  0
  3  4  2  0
  4  5  1  0
  5  6  2  0
  5  7  1  0
  7  8  1  0
  8  9  1  0
  8 10  1  0
 10 11  1  0
  4 12  1  0
 12 13  2  0
 13 14  1  0
 14 15  1  0
 14 16  2  0
 16 17  1  0
 17 18  1  0
 17 19  2  0
 19  2  1  0
 11  8  1  0
 19 12  1  0
M  END
>  <alias>  (1385) 
None

>  <rmsd(smina/fragmenstein)>  (1385) 
0.568

>  <smiles>  (1385) 
Cn1cc(C(=O)NC2(C)CC2)c2cc(F)cc(F)c21

>  <gnina_score>  (1385) 
5.693

>  <inspiration_score>  (1385) 
None

>  <energy_score>  (1385) 
-3.679145

>  <distance_score>  (1385) 
0.548836

>  <gnina_score_min>  (1385) 
5.731

>  <inchikey>  (1385) 
UPNZQVBMOZZREH-UHFFFAOYSA-N

>  <exports>  (1385) 
['/opt/xchem-fragalysis-2/maxwin/BulkDock/OUTPUTS/openbind_a71ev2a_c2_elabs_1LOUU54.sdf', '/opt/xchem-fragalysis-2/maxwin/BulkDock/OUTPUTS/openbind_a71ev2a_c2_elabs_1LSYIDY.sdf']

>  <name>  (1385) 
P577333

>  <ref_pdb>  (1385) 
A3066a

>  <subsites>  (1385) 
None

>  <HIPPO Pose ID>  (1385) 
577333

>  <ref_mols>  (1385) 
A3066a

>  <HIPPO Compound ID>  (1385) 
351177

>  <tags>  (1385) 
openbind_a71ev2a_c2_elabs,syndirella_product,openbind_a71ev2a_c2_elabs_fragonly_scored_top80percent,BulkDock Fragalysis export,openbind_a71ev2a_c2_elabs_scored,openbind_a71ev2a_c2_elabs_scored_top80percent,openbind_a71ev2a_c2_elabs_activefrags_only_scored_5.2plus,openbind_a71ev2a_c2_elabs_activefrags_only_scored_5.5plus,syndirella_placed

>  <smina_score_min>  (1385) 
-7.723

$$$$
P577334
     RDKit          3D

 19 20  0  0  0  0  0  0  0  0999 V2000
    9.8288   15.5524   20.4621 C   0  0  0  0  0  0  0  0  0  0  0  0
   11.0008   14.9044   20.4142 C   0  0  0  0  0  0  0  0  0  0  0  0
   11.6513   14.4304   18.8907 Cl  0  0  0  0  0  0  0  0  0  0  0  0
   11.8474   14.5528   21.5985 C   0  0  0  0  0  0  0  0  0  0  0  0
   11.1891   13.4690   22.2520 N   0  0  0  0  0  0  0  0  0  0  0  0
   10.6351   13.3542   23.6704 C   0  0  0  0  0  0  0  0  0  0  0  0
   10.6918   14.0949   24.5636 O   0  0  0  0  0  0  0  0  0  0  0  0
    9.8452   12.1307   23.8102 C   0  0  0  0  0  0  0  0  0  0  0  0
   10.0233   10.9420   23.1327 C   0  0  0  0  0  0  0  0  0  0  0  0
    9.1946    9.9996   23.6693 N   0  0  0  0  0  0  0  0  0  0  0  0
    9.2548    8.5955   23.3344 C   0  0  0  0  0  0  0  0  0  0  0  0
    8.3510   10.5897   24.5785 C   0  0  0  0  0  0  0  0  0  0  0  0
    7.2887   10.0788   25.3248 C   0  0  0  0  0  0  0  0  0  0  0  0
    6.8982    8.8131   25.1703 F   0  0  0  0  0  0  0  0  0  0  0  0
    6.6047   10.9003   26.2090 C   0  0  0  0  0  0  0  0  0  0  0  0
    6.9648   12.2308   26.3161 C   0  0  0  0  0  0  0  0  0  0  0  0
    6.3031   13.0196   27.1730 F   0  0  0  0  0  0  0  0  0  0  0  0
    8.0111   12.7671   25.5661 C   0  0  0  0  0  0  0  0  0  0  0  0
    8.7317   11.9297   24.6866 C   0  0  0  0  0  0  0  0  0  0  0  0
  1  2  2  0
  2  3  1  0
  2  4  1  0
  4  5  1  0
  5  6  1  0
  6  7  2  0
  6  8  1  0
  8  9  2  0
  9 10  1  0
 10 11  1  0
 10 12  1  0
 12 13  2  0
 13 14  1  0
 13 15  1  0
 15 16  2  0
 16 17  1  0
 16 18  1  0
 18 19  2  0
 19  8  1  0
 19 12  1  0
M  END
>  <alias>  (1386) 
None

>  <rmsd(smina/fragmenstein)>  (1386) 
0.538

>  <smiles>  (1386) 
C=C(Cl)CNC(=O)c1cn(C)c2c(F)cc(F)cc12

>  <gnina_score>  (1386) 
5.742

>  <inspiration_score>  (1386) 
None

>  <energy_score>  (1386) 
-4.845646

>  <distance_score>  (1386) 
0.344304

>  <gnina_score_min>  (1386) 
5.712

>  <inchikey>  (1386) 
WKHABVLLDFAQTR-UHFFFAOYSA-N

>  <exports>  (1386) 
['/opt/xchem-fragalysis-2/maxwin/BulkDock/OUTPUTS/openbind_a71ev2a_c2_elabs_1LOUU54.sdf', '/opt/xchem-fragalysis-2/maxwin/BulkDock/OUTPUTS/openbind_a71ev2a_c2_elabs_1LSYIDY.sdf']

>  <name>  (1386) 
P577334

>  <ref_pdb>  (1386) 
A3066a

>  <subsites>  (1386) 
None

>  <HIPPO Pose ID>  (1386) 
577334

>  <ref_mols>  (1386) 
A3066a

>  <HIPPO Compound ID>  (1386) 
351183

>  <tags>  (1386) 
openbind_a71ev2a_c2_elabs,syndirella_product,openbind_a71ev2a_c2_elabs_fragonly_scored_top80percent,BulkDock Fragalysis export,openbind_a71ev2a_c2_elabs_scored,openbind_a71ev2a_c2_elabs_scored_top80percent,openbind_a71ev2a_c2_elabs_activefrags_only_scored_5.2plus,openbind_a71ev2a_c2_elabs_activefrags_only_scored_5.5plus,syndirella_placed

>  <smina_score_min>  (1386) 
-7.229

$$$$
P577335
     RDKit          3D

 19 20  0  0  0  0  0  0  0  0999 V2000
   12.5304   14.2974   20.4649 C   0  0  0  0  0  0  0  0  0  0  0  0
   11.7922   15.0490   21.5490 C   0  0  1  0  0  0  0  0  0  0  0  0
   10.3856   14.9642   21.3119 O   0  0  0  0  0  0  0  0  0  0  0  0
   12.1734   14.5262   22.9187 C   0  0  0  0  0  0  0  0  0  0  0  0
   11.3134   13.4648   23.2787 N   0  0  0  0  0  0  0  0  0  0  0  0
   10.4325   13.2805   24.4977 C   0  0  0  0  0  0  0  0  0  0  0  0
   10.3205   13.9319   25.4504 O   0  0  0  0  0  0  0  0  0  0  0  0
    9.6142   12.0874   24.3277 C   0  0  0  0  0  0  0  0  0  0  0  0
    9.8531   11.0036   23.5015 C   0  0  0  0  0  0  0  0  0  0  0  0
    8.9917   10.0038   23.8525 N   0  0  0  0  0  0  0  0  0  0  0  0
    9.1235    8.6453   23.3772 C   0  0  0  0  0  0  0  0  0  0  0  0
    8.0911   10.4765   24.7773 C   0  0  0  0  0  0  0  0  0  0  0  0
    7.0127    9.8819   25.4247 C   0  0  0  0  0  0  0  0  0  0  0  0
    6.6298    8.6502   25.1049 F   0  0  0  0  0  0  0  0  0  0  0  0
    6.2946   10.5815   26.3832 C   0  0  0  0  0  0  0  0  0  0  0  0
    6.6037   11.9024   26.6349 C   0  0  0  0  0  0  0  0  0  0  0  0
    5.8943   12.5803   27.5466 F   0  0  0  0  0  0  0  0  0  0  0  0
    7.6512   12.5340   25.9766 C   0  0  0  0  0  0  0  0  0  0  0  0
    8.4299   11.7990   25.0563 C   0  0  0  0  0  0  0  0  0  0  0  0
  2  1  1  6
  2  3  1  0
  2  4  1  0
  4  5  1  0
  5  6  1  0
  6  7  2  0
  6  8  1  0
  8  9  2  0
  9 10  1  0
 10 11  1  0
 10 12  1  0
 12 13  2  0
 13 14  1  0
 13 15  1  0
 15 16  2  0
 16 17  1  0
 16 18  1  0
 18 19  2  0
 19  8  1  0
 19 12  1  0
M  END
>  <alias>  (1387) 
None

>  <rmsd(smina/fragmenstein)>  (1387) 
0.647

>  <smiles>  (1387) 
C[C@@H](O)CNC(=O)c1cn(C)c2c(F)cc(F)cc12

>  <gnina_score>  (1387) 
5.294

>  <inspiration_score>  (1387) 
None

>  <energy_score>  (1387) 
-1.125725

>  <distance_score>  (1387) 
0.778071

>  <gnina_score_min>  (1387) 
5.447

>  <inchikey>  (1387) 
OWWYYJBOXYUGLE-SSDOTTSWSA-N

>  <exports>  (1387) 
['/opt/xchem-fragalysis-2/maxwin/BulkDock/OUTPUTS/openbind_a71ev2a_c2_elabs_1LOUU54.sdf', '/opt/xchem-fragalysis-2/maxwin/BulkDock/OUTPUTS/openbind_a71ev2a_c2_elabs_1LSYIDY.sdf']

>  <name>  (1387) 
P577335

>  <ref_pdb>  (1387) 
A3066a

>  <subsites>  (1387) 
None

>  <HIPPO Pose ID>  (1387) 
577335

>  <ref_mols>  (1387) 
A3066a

>  <HIPPO Compound ID>  (1387) 
351184

>  <tags>  (1387) 
openbind_a71ev2a_c2_elabs,syndirella_product,openbind_a71ev2a_c2_elabs_fragonly_scored_top80percent,openbind_a71ev2a_c2_elabs_scored,BulkDock Fragalysis export,openbind_a71ev2a_c2_elabs_scored_top80percent,openbind_a71ev2a_c2_elabs_activefrags_only_scored_5.2plus,syndirella_placed

>  <smina_score_min>  (1387) 
-6.572

$$$$
P577337
     RDKit          3D

 19 20  0  0  0  0  0  0  0  0999 V2000
    9.8913   15.6141   20.8302 C   0  0  0  0  0  0  0  0  0  0  0  0
   11.0313   14.8885   21.5476 C   0  0  2  0  0  0  0  0  0  0  0  0
   12.2277   14.4309   20.7090 C   0  0  0  0  0  0  0  0  0  0  0  0
   11.8783   14.3023   18.9761 Cl  0  0  0  0  0  0  0  0  0  0  0  0
   10.4601   13.7668   22.2411 N   0  0  0  0  0  0  0  0  0  0  0  0
   10.4138   13.4406   23.7314 C   0  0  0  0  0  0  0  0  0  0  0  0
   10.7620   14.0611   24.6499 O   0  0  0  0  0  0  0  0  0  0  0  0
    9.7263   12.1758   23.9012 C   0  0  0  0  0  0  0  0  0  0  0  0
    9.9737   11.0162   23.1964 C   0  0  0  0  0  0  0  0  0  0  0  0
    9.1824   10.0278   23.7057 N   0  0  0  0  0  0  0  0  0  0  0  0
    9.2817    8.6375   23.3234 C   0  0  0  0  0  0  0  0  0  0  0  0
    8.3150   10.5628   24.6305 C   0  0  0  0  0  0  0  0  0  0  0  0
    7.2632   10.0014   25.3520 C   0  0  0  0  0  0  0  0  0  0  0  0
    6.9053    8.7354   25.1463 F   0  0  0  0  0  0  0  0  0  0  0  0
    6.5504   10.7731   26.2586 C   0  0  0  0  0  0  0  0  0  0  0  0
    6.8677   12.1102   26.4097 C   0  0  0  0  0  0  0  0  0  0  0  0
    6.1761   12.8516   27.2849 F   0  0  0  0  0  0  0  0  0  0  0  0
    7.8969   12.7020   25.6799 C   0  0  0  0  0  0  0  0  0  0  0  0
    8.6445   11.9104   24.7833 C   0  0  0  0  0  0  0  0  0  0  0  0
  2  1  1  6
  2  3  1  0
  3  4  1  0
  2  5  1  0
  5  6  1  0
  6  7  2  0
  6  8  1  0
  8  9  2  0
  9 10  1  0
 10 11  1  0
 10 12  1  0
 12 13  2  0
 13 14  1  0
 13 15  1  0
 15 16  2  0
 16 17  1  0
 16 18  1  0
 18 19  2  0
 19  8  1  0
 19 12  1  0
M  END
>  <alias>  (1388) 
None

>  <rmsd(smina/fragmenstein)>  (1388) 
0.514

>  <smiles>  (1388) 
C[C@H](CCl)NC(=O)c1cn(C)c2c(F)cc(F)cc12

>  <gnina_score>  (1388) 
5.559

>  <inspiration_score>  (1388) 
None

>  <energy_score>  (1388) 
-13.221681

>  <distance_score>  (1388) 
0.607238

>  <gnina_score_min>  (1388) 
5.635

>  <inchikey>  (1388) 
IYCYEUVHBUIGFS-SSDOTTSWSA-N

>  <exports>  (1388) 
['/opt/xchem-fragalysis-2/maxwin/BulkDock/OUTPUTS/openbind_a71ev2a_c2_elabs_1LOUU54.sdf', '/opt/xchem-fragalysis-2/maxwin/BulkDock/OUTPUTS/openbind_a71ev2a_c2_elabs_1LSYIDY.sdf']

>  <name>  (1388) 
P577337

>  <ref_pdb>  (1388) 
A3066a

>  <subsites>  (1388) 
None

>  <HIPPO Pose ID>  (1388) 
577337

>  <ref_mols>  (1388) 
A3066a

>  <HIPPO Compound ID>  (1388) 
351185

>  <tags>  (1388) 
openbind_a71ev2a_c2_elabs,syndirella_product,openbind_a71ev2a_c2_elabs_fragonly_scored_top80percent,BulkDock Fragalysis export,openbind_a71ev2a_c2_elabs_scored,openbind_a71ev2a_c2_elabs_scored_top80percent,openbind_a71ev2a_c2_elabs_activefrags_only_scored_5.2plus,openbind_a71ev2a_c2_elabs_activefrags_only_scored_5.5plus,syndirella_placed

>  <smina_score_min>  (1388) 
-6.67

$$$$
P577339
     RDKit          3D

 19 20  0  0  0  0  0  0  0  0999 V2000
   12.3647   14.1440   20.6598 C   0  0  0  0  0  0  0  0  0  0  0  0
   11.0124   14.7598   19.6216 S   0  0  0  0  0  0  0  0  0  0  0  0
   10.1580   15.7787   20.8570 C   0  0  0  0  0  0  0  0  0  0  0  0
    8.8440   15.1795   21.3045 C   0  0  0  0  0  0  0  0  0  0  0  0
    8.9173   14.0385   22.1670 N   0  0  0  0  0  0  0  0  0  0  0  0
    9.9248   13.6842   23.2679 C   0  0  0  0  0  0  0  0  0  0  0  0
   10.8126   14.2970   23.7041 O   0  0  0  0  0  0  0  0  0  0  0  0
    9.5635   12.3623   23.7291 C   0  0  0  0  0  0  0  0  0  0  0  0
    9.9884   11.1899   23.1411 C   0  0  0  0  0  0  0  0  0  0  0  0
    9.2889   10.1531   23.6899 N   0  0  0  0  0  0  0  0  0  0  0  0
    9.4404    8.7665   23.3009 C   0  0  0  0  0  0  0  0  0  0  0  0
    8.3865   10.6462   24.6070 C   0  0  0  0  0  0  0  0  0  0  0  0
    7.3917   10.0176   25.3528 C   0  0  0  0  0  0  0  0  0  0  0  0
    7.1577    8.7167   25.1937 F   0  0  0  0  0  0  0  0  0  0  0  0
    6.6083   10.7538   26.2299 C   0  0  0  0  0  0  0  0  0  0  0  0
    6.7997   12.1201   26.3254 C   0  0  0  0  0  0  0  0  0  0  0  0
    6.0385   12.8290   27.1689 F   0  0  0  0  0  0  0  0  0  0  0  0
    7.7568   12.7809   25.5559 C   0  0  0  0  0  0  0  0  0  0  0  0
    8.5718   12.0282   24.6865 C   0  0  0  0  0  0  0  0  0  0  0  0
  1  2  1  0
  2  3  1  0
  3  4  1  0
  4  5  1  0
  5  6  1  0
  6  7  2  0
  6  8  1  0
  8  9  2  0
  9 10  1  0
 10 11  1  0
 10 12  1  0
 12 13  2  0
 13 14  1  0
 13 15  1  0
 15 16  2  0
 16 17  1  0
 16 18  1  0
 18 19  2  0
 19  8  1  0
 19 12  1  0
M  END
>  <alias>  (1389) 
None

>  <rmsd(smina/fragmenstein)>  (1389) 
0.353

>  <smiles>  (1389) 
CSCCNC(=O)c1cn(C)c2c(F)cc(F)cc12

>  <gnina_score>  (1389) 
5.486

>  <inspiration_score>  (1389) 
None

>  <energy_score>  (1389) 
-3.810032

>  <distance_score>  (1389) 
1.313185

>  <gnina_score_min>  (1389) 
5.517

>  <inchikey>  (1389) 
MIRVDGBMILSZGV-UHFFFAOYSA-N

>  <exports>  (1389) 
['/opt/xchem-fragalysis-2/maxwin/BulkDock/OUTPUTS/openbind_a71ev2a_c2_elabs_1LOUU54.sdf', '/opt/xchem-fragalysis-2/maxwin/BulkDock/OUTPUTS/openbind_a71ev2a_c2_elabs_1LSYIDY.sdf']

>  <name>  (1389) 
P577339

>  <ref_pdb>  (1389) 
A3066a

>  <subsites>  (1389) 
None

>  <HIPPO Pose ID>  (1389) 
577339

>  <ref_mols>  (1389) 
A3066a

>  <HIPPO Compound ID>  (1389) 
351192

>  <tags>  (1389) 
openbind_a71ev2a_c2_elabs,syndirella_product,openbind_a71ev2a_c2_elabs_fragonly_scored_top80percent,BulkDock Fragalysis export,openbind_a71ev2a_c2_elabs_scored,openbind_a71ev2a_c2_elabs_scored_top80percent,openbind_a71ev2a_c2_elabs_activefrags_only_scored_5.2plus,openbind_a71ev2a_c2_elabs_activefrags_only_scored_5.5plus,syndirella_placed

>  <smina_score_min>  (1389) 
-5.535

$$$$
P577340
     RDKit          3D

 19 20  0  0  0  0  0  0  0  0999 V2000
    8.9266    8.0827   22.4353 C   0  0  0  0  0  0  0  0  0  0  0  0
    9.5536    8.6328   23.6671 C   0  0  0  0  0  0  0  0  0  0  0  0
   10.9828    8.1672   23.6072 C   0  0  0  0  0  0  0  0  0  0  0  0
    9.3777   10.0751   23.7589 N   0  0  0  0  0  0  0  0  0  0  0  0
   10.0939   10.9999   23.0501 C   0  0  0  0  0  0  0  0  0  0  0  0
    9.8859   12.2503   23.5939 C   0  0  0  0  0  0  0  0  0  0  0  0
   10.6306   13.4819   23.2769 C   0  0  0  0  0  0  0  0  0  0  0  0
   10.7784   14.2743   24.1189 O   0  0  0  0  0  0  0  0  0  0  0  0
   11.0417   13.5122   21.7982 N   0  0  0  0  0  0  0  0  0  0  0  0
   11.8138   14.4920   21.0521 C   0  0  0  0  0  0  0  0  0  0  0  0
   11.4415   14.5975   19.5460 C   0  0  0  0  0  0  0  0  0  0  0  0
   10.4552   15.3472   19.2692 O   0  0  0  0  0  0  0  0  0  0  0  0
   12.1664   13.9600   18.7280 O   0  0  0  0  0  0  0  0  0  0  0  0
    8.8173   12.0868   24.5383 C   0  0  0  0  0  0  0  0  0  0  0  0
    8.0784   12.9831   25.3396 C   0  0  0  0  0  0  0  0  0  0  0  0
    7.0466   12.5049   26.1541 C   0  0  0  0  0  0  0  0  0  0  0  0
    6.7420   11.1493   26.1847 C   0  0  0  0  0  0  0  0  0  0  0  0
    7.4589   10.2383   25.4076 C   0  0  0  0  0  0  0  0  0  0  0  0
    8.4956   10.7254   24.5964 C   0  0  0  0  0  0  0  0  0  0  0  0
  1  2  1  0
  2  3  1  0
  2  4  1  0
  4  5  1  0
  5  6  2  0
  6  7  1  0
  7  8  2  0
  7  9  1  0
  9 10  1  0
 10 11  1  0
 11 12  2  0
 11 13  1  0
  6 14  1  0
 14 15  2  0
 15 16  1  0
 16 17  2  0
 17 18  1  0
 18 19  2  0
 19  4  1  0
 19 14  1  0
M  CHG  1  13  -1
M  END
>  <alias>  (1390) 
None

>  <rmsd(smina/fragmenstein)>  (1390) 
0.516

>  <smiles>  (1390) 
CC(C)n1cc(C(=O)NCC(=O)[O-])c2ccccc21

>  <gnina_score>  (1390) 
5.231

>  <inspiration_score>  (1390) 
None

>  <energy_score>  (1390) 
-6.515555

>  <distance_score>  (1390) 
0.51466

>  <gnina_score_min>  (1390) 
5.282

>  <inchikey>  (1390) 
UKJYAMKGCDWYEC-UHFFFAOYSA-M

>  <exports>  (1390) 
['/opt/xchem-fragalysis-2/maxwin/BulkDock/OUTPUTS/openbind_a71ev2a_c2_elabs_1LOUU54.sdf', '/opt/xchem-fragalysis-2/maxwin/BulkDock/OUTPUTS/openbind_a71ev2a_c2_elabs_1LSYIDY.sdf']

>  <name>  (1390) 
P577340

>  <ref_pdb>  (1390) 
A3066a

>  <subsites>  (1390) 
None

>  <HIPPO Pose ID>  (1390) 
577340

>  <ref_mols>  (1390) 
A3066a

>  <HIPPO Compound ID>  (1390) 
351198

>  <tags>  (1390) 
openbind_a71ev2a_c2_elabs,syndirella_product,openbind_a71ev2a_c2_elabs_fragonly_scored_top80percent,openbind_a71ev2a_c2_elabs_scored,BulkDock Fragalysis export,openbind_a71ev2a_c2_elabs_scored_top80percent,openbind_a71ev2a_c2_elabs_activefrags_only_scored_5.2plus,syndirella_placed

>  <smina_score_min>  (1390) 
-4.771

$$$$
P577342
     RDKit          3D

 19 20  0  0  0  0  0  0  0  0999 V2000
    8.8684    8.0053   22.4375 C   0  0  0  0  0  0  0  0  0  0  0  0
    9.4037    8.5112   23.7341 C   0  0  0  0  0  0  0  0  0  0  0  0
   10.8883    8.2558   23.6350 C   0  0  0  0  0  0  0  0  0  0  0  0
    9.0069    9.8926   23.9609 N   0  0  0  0  0  0  0  0  0  0  0  0
    9.5768   10.9619   23.3358 C   0  0  0  0  0  0  0  0  0  0  0  0
    9.0073   12.1142   23.8456 C   0  0  0  0  0  0  0  0  0  0  0  0
    9.4233   13.4695   23.5836 C   0  0  0  0  0  0  0  0  0  0  0  0
    9.2451   14.2877   24.3847 O   0  0  0  0  0  0  0  0  0  0  0  0
   10.1480   13.5370   22.2509 N   0  0  0  0  0  0  0  0  0  0  0  0
   10.8841   14.5832   21.6605 C   0  0  0  0  0  0  0  0  0  0  0  0
   12.1606   14.7360   22.5098 C   0  0  2  0  0  0  0  0  0  0  0  0
   13.3206   14.9852   21.6039 C   0  0  0  0  0  0  0  0  0  0  0  0
   12.6516   13.3208   23.6236 S   0  0  0  0  0  0  0  0  0  0  0  0
    8.0744   11.7352   24.8328 C   0  0  0  0  0  0  0  0  0  0  0  0
    7.2528   12.4623   25.7208 C   0  0  0  0  0  0  0  0  0  0  0  0
    6.3839   11.7861   26.5696 C   0  0  0  0  0  0  0  0  0  0  0  0
    6.3014   10.4061   26.5064 C   0  0  0  0  0  0  0  0  0  0  0  0
    7.1052    9.6837   25.6232 C   0  0  0  0  0  0  0  0  0  0  0  0
    8.0343   10.3465   24.8292 C   0  0  0  0  0  0  0  0  0  0  0  0
  1  2  1  0
  2  3  1  0
  2  4  1  0
  4  5  1  0
  5  6  2  0
  6  7  1  0
  7  8  2  0
  7  9  1  0
  9 10  1  0
 10 11  1  0
 11 12  1  6
 11 13  1  0
  6 14  1  0
 14 15  2  0
 15 16  1  0
 16 17  2  0
 17 18  1  0
 18 19  2  0
 19  4  1  0
 19 14  1  0
M  END
>  <alias>  (1391) 
None

>  <rmsd(smina/fragmenstein)>  (1391) 
0.171

>  <smiles>  (1391) 
CC(C)n1cc(C(=O)NC[C@H](C)S)c2ccccc21

>  <gnina_score>  (1391) 
5.503

>  <inspiration_score>  (1391) 
None

>  <energy_score>  (1391) 
-7.794698

>  <distance_score>  (1391) 
1.093049

>  <gnina_score_min>  (1391) 
5.536

>  <inchikey>  (1391) 
HJUHGQUZGYTULR-NSHDSACASA-N

>  <exports>  (1391) 
['/opt/xchem-fragalysis-2/maxwin/BulkDock/OUTPUTS/openbind_a71ev2a_c2_elabs_1LOUU54.sdf', '/opt/xchem-fragalysis-2/maxwin/BulkDock/OUTPUTS/openbind_a71ev2a_c2_elabs_1LSYIDY.sdf']

>  <name>  (1391) 
P577342

>  <ref_pdb>  (1391) 
A3066a

>  <subsites>  (1391) 
None

>  <HIPPO Pose ID>  (1391) 
577342

>  <ref_mols>  (1391) 
A3066a

>  <HIPPO Compound ID>  (1391) 
351204

>  <tags>  (1391) 
openbind_a71ev2a_c2_elabs,syndirella_product,openbind_a71ev2a_c2_elabs_fragonly_scored_top80percent,BulkDock Fragalysis export,openbind_a71ev2a_c2_elabs_scored,openbind_a71ev2a_c2_elabs_scored_top80percent,openbind_a71ev2a_c2_elabs_activefrags_only_scored_5.2plus,openbind_a71ev2a_c2_elabs_activefrags_only_scored_5.5plus,syndirella_placed

>  <smina_score_min>  (1391) 
-3.179

$$$$
P577343
     RDKit          3D

 19 20  0  0  0  0  0  0  0  0999 V2000
   11.2578   14.7670   19.1569 C   0  0  0  0  0  0  0  0  0  0  0  0
   11.8536   14.5980   20.3400 C   0  0  0  0  0  0  0  0  0  0  0  0
   13.0160   13.9131   20.3554 F   0  0  0  0  0  0  0  0  0  0  0  0
   11.3008   15.0961   21.6351 C   0  0  0  0  0  0  0  0  0  0  0  0
   10.7073   13.9588   22.2416 N   0  0  0  0  0  0  0  0  0  0  0  0
   10.4561   13.6354   23.7149 C   0  0  0  0  0  0  0  0  0  0  0  0
   10.7626   14.2121   24.6762 O   0  0  0  0  0  0  0  0  0  0  0  0
    9.8066   12.3421   23.7764 C   0  0  0  0  0  0  0  0  0  0  0  0
   10.2110   11.2940   22.9913 C   0  0  0  0  0  0  0  0  0  0  0  0
    9.5512   10.1600   23.3518 N   0  0  0  0  0  0  0  0  0  0  0  0
    9.9945    8.8947   22.8031 C   0  0  0  0  0  0  0  0  0  0  0  0
   10.8316    8.1178   23.7613 C   0  0  0  0  0  0  0  0  0  0  0  0
    8.9842    7.9476   22.2581 C   0  0  0  0  0  0  0  0  0  0  0  0
    8.6345   10.4778   24.3307 C   0  0  0  0  0  0  0  0  0  0  0  0
    7.7104    9.7016   25.0349 C   0  0  0  0  0  0  0  0  0  0  0  0
    6.8531   10.3279   25.9461 C   0  0  0  0  0  0  0  0  0  0  0  0
    6.9358   11.6944   26.1831 C   0  0  0  0  0  0  0  0  0  0  0  0
    7.8912   12.4653   25.5205 C   0  0  0  0  0  0  0  0  0  0  0  0
    8.7525   11.8562   24.5858 C   0  0  0  0  0  0  0  0  0  0  0  0
  1  2  2  0
  2  3  1  0
  2  4  1  0
  4  5  1  0
  5  6  1  0
  6  7  2  0
  6  8  1  0
  8  9  2  0
  9 10  1  0
 10 11  1  0
 11 12  1  0
 11 13  1  0
 10 14  1  0
 14 15  2  0
 15 16  1  0
 16 17  2  0
 17 18  1  0
 18 19  2  0
 19  8  1  0
 19 14  1  0
M  END
>  <alias>  (1392) 
None

>  <rmsd(smina/fragmenstein)>  (1392) 
1.12

>  <smiles>  (1392) 
C=C(F)CNC(=O)c1cn(C(C)C)c2ccccc12

>  <gnina_score>  (1392) 
5.299

>  <inspiration_score>  (1392) 
None

>  <energy_score>  (1392) 
-1.605484

>  <distance_score>  (1392) 
0.598803

>  <gnina_score_min>  (1392) 
5.336

>  <inchikey>  (1392) 
GQLUEHXFCJKVEO-UHFFFAOYSA-N

>  <exports>  (1392) 
['/opt/xchem-fragalysis-2/maxwin/BulkDock/OUTPUTS/openbind_a71ev2a_c2_elabs_1LOUU54.sdf', '/opt/xchem-fragalysis-2/maxwin/BulkDock/OUTPUTS/openbind_a71ev2a_c2_elabs_1LSYIDY.sdf']

>  <name>  (1392) 
P577343

>  <ref_pdb>  (1392) 
A3066a

>  <subsites>  (1392) 
None

>  <HIPPO Pose ID>  (1392) 
577343

>  <ref_mols>  (1392) 
A3066a

>  <HIPPO Compound ID>  (1392) 
351208

>  <tags>  (1392) 
openbind_a71ev2a_c2_elabs,syndirella_product,openbind_a71ev2a_c2_elabs_fragonly_scored_top80percent,openbind_a71ev2a_c2_elabs_scored,BulkDock Fragalysis export,openbind_a71ev2a_c2_elabs_scored_top80percent,openbind_a71ev2a_c2_elabs_activefrags_only_scored_5.2plus,syndirella_placed

>  <smina_score_min>  (1392) 
-5.274

$$$$
P577344
     RDKit          3D

 19 21  0  0  0  0  0  0  0  0999 V2000
   10.9694    8.2146   23.6054 C   0  0  0  0  0  0  0  0  0  0  0  0
    9.5286    8.6416   23.6797 C   0  0  0  0  0  0  0  0  0  0  0  0
    8.9171    8.1019   22.4377 C   0  0  0  0  0  0  0  0  0  0  0  0
    9.2933   10.0716   23.8314 N   0  0  0  0  0  0  0  0  0  0  0  0
   10.0145   11.0791   23.2382 C   0  0  0  0  0  0  0  0  0  0  0  0
    9.7732   12.2480   23.9350 C   0  0  0  0  0  0  0  0  0  0  0  0
   10.5421   13.4948   23.9161 C   0  0  0  0  0  0  0  0  0  0  0  0
   10.7587   14.0228   24.9466 O   0  0  0  0  0  0  0  0  0  0  0  0
   10.8612   13.9313   22.5147 N   0  0  0  0  0  0  0  0  0  0  0  0
   11.4600   15.2125   21.9969 C   0  0  0  0  0  0  0  0  0  0  0  0
   12.3494   14.5064   21.0353 C   0  0  0  0  0  0  0  0  0  0  0  0
   11.7615   14.3417   19.3548 Cl  0  0  0  0  0  0  0  0  0  0  0  0
   12.2509   13.4196   22.0642 C   0  0  0  0  0  0  0  0  0  0  0  0
    8.6486   11.9851   24.7780 C   0  0  0  0  0  0  0  0  0  0  0  0
    7.8679   12.7904   25.6345 C   0  0  0  0  0  0  0  0  0  0  0  0
    6.8298   12.2181   26.3725 C   0  0  0  0  0  0  0  0  0  0  0  0
    6.5640   10.8592   26.2708 C   0  0  0  0  0  0  0  0  0  0  0  0
    7.3178   10.0439   25.4253 C   0  0  0  0  0  0  0  0  0  0  0  0
    8.3606   10.6231   24.6890 C   0  0  0  0  0  0  0  0  0  0  0  0
  1  2  1  0
  2  3  1  0
  2  4  1  0
  4  5  1  0
  5  6  2  0
  6  7  1  0
  7  8  2  0
  7  9  1  0
  9 10  1  0
 10 11  1  0
 11 12  1  0
 11 13  1  0
  6 14  1  0
 14 15  2  0
 15 16  1  0
 16 17  2  0
 17 18  1  0
 18 19  2  0
 19  4  1  0
 13  9  1  0
 19 14  1  0
M  END
>  <alias>  (1393) 
None

>  <rmsd(smina/fragmenstein)>  (1393) 
0.108

>  <smiles>  (1393) 
CC(C)n1cc(C(=O)N2CC(Cl)C2)c2ccccc21

>  <gnina_score>  (1393) 
5.328

>  <inspiration_score>  (1393) 
None

>  <energy_score>  (1393) 
-0.077595

>  <distance_score>  (1393) 
0.54968

>  <gnina_score_min>  (1393) 
5.326

>  <inchikey>  (1393) 
HIBUUDGFLGTWOJ-UHFFFAOYSA-N

>  <exports>  (1393) 
['/opt/xchem-fragalysis-2/maxwin/BulkDock/OUTPUTS/openbind_a71ev2a_c2_elabs_1LOUU54.sdf', '/opt/xchem-fragalysis-2/maxwin/BulkDock/OUTPUTS/openbind_a71ev2a_c2_elabs_1LSYIDY.sdf']

>  <name>  (1393) 
P577344

>  <ref_pdb>  (1393) 
A3066a

>  <subsites>  (1393) 
None

>  <HIPPO Pose ID>  (1393) 
577344

>  <ref_mols>  (1393) 
A3066a

>  <HIPPO Compound ID>  (1393) 
351210

>  <tags>  (1393) 
openbind_a71ev2a_c2_elabs,syndirella_product,openbind_a71ev2a_c2_elabs_fragonly_scored_top80percent,openbind_a71ev2a_c2_elabs_scored,BulkDock Fragalysis export,openbind_a71ev2a_c2_elabs_scored_top80percent,openbind_a71ev2a_c2_elabs_activefrags_only_scored_5.2plus,syndirella_placed

>  <smina_score_min>  (1393) 
-4.006

$$$$
P577345
     RDKit          3D

 19 20  0  0  0  0  0  0  0  0999 V2000
   10.0197    8.9790   21.8877 C   0  0  0  0  0  0  0  0  0  0  0  0
    9.2403    9.0496   23.1631 C   0  0  0  0  0  0  0  0  0  0  0  0
    9.8860    8.0256   24.0260 C   0  0  0  0  0  0  0  0  0  0  0  0
    9.2326   10.3723   23.7721 N   0  0  0  0  0  0  0  0  0  0  0  0
   10.0538   11.3972   23.4082 C   0  0  0  0  0  0  0  0  0  0  0  0
    9.5772   12.5618   23.9545 C   0  0  0  0  0  0  0  0  0  0  0  0
   10.1009   13.8337   23.5218 C   0  0  0  0  0  0  0  0  0  0  0  0
   10.9401   14.3994   24.0976 O   0  0  0  0  0  0  0  0  0  0  0  0
    9.4151   14.1596   22.1852 N   0  0  0  0  0  0  0  0  0  0  0  0
    9.6824   15.2005   21.2250 C   0  0  0  0  0  0  0  0  0  0  0  0
   10.7983   14.7990   20.2628 C   0  0  0  0  0  0  0  0  0  0  0  0
   12.0713   14.5920   20.9613 N   0  0  0  0  0  0  0  0  0  0  0  0
   12.9473   13.9969   19.9672 O   0  0  0  0  0  0  0  0  0  0  0  0
    8.5206   12.2157   24.8285 C   0  0  0  0  0  0  0  0  0  0  0  0
    7.6767   12.9515   25.6808 C   0  0  0  0  0  0  0  0  0  0  0  0
    6.7018   12.2822   26.4255 C   0  0  0  0  0  0  0  0  0  0  0  0
    6.5409   10.9057   26.3089 C   0  0  0  0  0  0  0  0  0  0  0  0
    7.3356   10.1614   25.4364 C   0  0  0  0  0  0  0  0  0  0  0  0
    8.3283   10.8313   24.7103 C   0  0  0  0  0  0  0  0  0  0  0  0
  1  2  1  0
  2  3  1  0
  2  4  1  0
  4  5  1  0
  5  6  2  0
  6  7  1  0
  7  8  2  0
  7  9  1  0
  9 10  1  0
 10 11  1  0
 11 12  1  0
 12 13  1  0
  6 14  1  0
 14 15  2  0
 15 16  1  0
 16 17  2  0
 17 18  1  0
 18 19  2  0
 19  4  1  0
 19 14  1  0
M  END
>  <alias>  (1394) 
None

>  <rmsd(smina/fragmenstein)>  (1394) 
0.416

>  <smiles>  (1394) 
CC(C)n1cc(C(=O)NCCNO)c2ccccc21

>  <gnina_score>  (1394) 
5.532

>  <inspiration_score>  (1394) 
None

>  <energy_score>  (1394) 
-17.930456

>  <distance_score>  (1394) 
1.130434

>  <gnina_score_min>  (1394) 
5.616

>  <inchikey>  (1394) 
WTYSJZZKZAYYHJ-UHFFFAOYSA-N

>  <exports>  (1394) 
['/opt/xchem-fragalysis-2/maxwin/BulkDock/OUTPUTS/openbind_a71ev2a_c2_elabs_1LOUU54.sdf', '/opt/xchem-fragalysis-2/maxwin/BulkDock/OUTPUTS/openbind_a71ev2a_c2_elabs_1LSYIDY.sdf']

>  <name>  (1394) 
P577345

>  <ref_pdb>  (1394) 
A3066a

>  <subsites>  (1394) 
None

>  <HIPPO Pose ID>  (1394) 
577345

>  <ref_mols>  (1394) 
A3066a

>  <HIPPO Compound ID>  (1394) 
351211

>  <tags>  (1394) 
openbind_a71ev2a_c2_elabs,syndirella_product,openbind_a71ev2a_c2_elabs_fragonly_scored_top80percent,BulkDock Fragalysis export,openbind_a71ev2a_c2_elabs_scored,openbind_a71ev2a_c2_elabs_scored_top80percent,openbind_a71ev2a_c2_elabs_activefrags_only_scored_5.2plus,openbind_a71ev2a_c2_elabs_activefrags_only_scored_5.5plus,syndirella_placed

>  <smina_score_min>  (1394) 
-4.917

$$$$
P577347
     RDKit          3D

 19 20  0  0  0  0  0  0  0  0999 V2000
   12.8095   14.5067   22.5895 C   0  0  0  0  0  0  0  0  0  0  0  0
   12.5327   14.6267   21.0911 C   0  0  0  0  0  0  0  0  0  0  0  0
   11.1035   14.8999   20.8362 N   0  0  0  0  0  0  0  0  0  0  0  0
   10.7837   14.8679   19.4149 C   0  0  0  0  0  0  0  0  0  0  0  0
   10.4414   13.9370   21.5421 N   0  0  0  0  0  0  0  0  0  0  0  0
    9.1555   14.0204   22.3827 C   0  0  0  0  0  0  0  0  0  0  0  0
    8.4159   14.9032   22.5433 O   0  0  0  0  0  0  0  0  0  0  0  0
    8.9853   12.7661   23.1243 C   0  0  0  0  0  0  0  0  0  0  0  0
    9.7932   11.6578   23.0464 C   0  0  0  0  0  0  0  0  0  0  0  0
    9.2180   10.6269   23.7303 N   0  0  0  0  0  0  0  0  0  0  0  0
    9.8224    9.3185   23.6348 C   0  0  0  0  0  0  0  0  0  0  0  0
   10.2182    8.8706   22.2458 C   0  0  0  0  0  0  0  0  0  0  0  0
    8.9955    8.2190   24.1613 C   0  0  0  0  0  0  0  0  0  0  0  0
    8.2310   11.1353   24.5532 C   0  0  0  0  0  0  0  0  0  0  0  0
    7.3948   10.5842   25.5438 C   0  0  0  0  0  0  0  0  0  0  0  0
    6.5502   11.4171   26.2805 C   0  0  0  0  0  0  0  0  0  0  0  0
    6.4888   12.7726   26.0158 C   0  0  0  0  0  0  0  0  0  0  0  0
    7.2461   13.3145   24.9787 C   0  0  0  0  0  0  0  0  0  0  0  0
    8.1208   12.4993   24.2285 C   0  0  0  0  0  0  0  0  0  0  0  0
  1  2  1  0
  2  3  1  0
  3  4  1  0
  3  5  1  0
  5  6  1  0
  6  7  2  0
  6  8  1  0
  8  9  2  0
  9 10  1  0
 10 11  1  0
 11 12  1  0
 11 13  1  0
 10 14  1  0
 14 15  2  0
 15 16  1  0
 16 17  2  0
 17 18  1  0
 18 19  2  0
 19  8  1  0
 19 14  1  0
M  END
>  <alias>  (1395) 
None

>  <rmsd(smina/fragmenstein)>  (1395) 
0.557

>  <smiles>  (1395) 
CCN(C)NC(=O)c1cn(C(C)C)c2ccccc12

>  <gnina_score>  (1395) 
5.7

>  <inspiration_score>  (1395) 
None

>  <energy_score>  (1395) 
-9.252348

>  <distance_score>  (1395) 
1.494888

>  <gnina_score_min>  (1395) 
5.673

>  <inchikey>  (1395) 
LDUNOAONQHQKKH-UHFFFAOYSA-N

>  <exports>  (1395) 
['/opt/xchem-fragalysis-2/maxwin/BulkDock/OUTPUTS/openbind_a71ev2a_c2_elabs_1LOUU54.sdf', '/opt/xchem-fragalysis-2/maxwin/BulkDock/OUTPUTS/openbind_a71ev2a_c2_elabs_1LSYIDY.sdf']

>  <name>  (1395) 
P577347

>  <ref_pdb>  (1395) 
A3066a

>  <subsites>  (1395) 
None

>  <HIPPO Pose ID>  (1395) 
577347

>  <ref_mols>  (1395) 
A3066a

>  <HIPPO Compound ID>  (1395) 
351218

>  <tags>  (1395) 
openbind_a71ev2a_c2_elabs,syndirella_product,openbind_a71ev2a_c2_elabs_fragonly_scored_top80percent,BulkDock Fragalysis export,openbind_a71ev2a_c2_elabs_scored,openbind_a71ev2a_c2_elabs_scored_top80percent,openbind_a71ev2a_c2_elabs_activefrags_only_scored_5.2plus,openbind_a71ev2a_c2_elabs_activefrags_only_scored_5.5plus,syndirella_placed

>  <smina_score_min>  (1395) 
-5.324

$$$$
P577348
     RDKit          3D

 19 20  0  0  0  0  0  0  0  0999 V2000
    4.6444   12.7367   28.8005 C   0  0  0  0  0  0  0  0  0  0  0  0
    5.7849   13.1567   28.0619 O   0  0  0  0  0  0  0  0  0  0  0  0
    6.3182   12.2591   27.1780 C   0  0  0  0  0  0  0  0  0  0  0  0
    5.9370   10.9296   27.0385 C   0  0  0  0  0  0  0  0  0  0  0  0
    6.5444   10.0934   26.0931 C   0  0  0  0  0  0  0  0  0  0  0  0
    7.6020   10.6017   25.3331 C   0  0  0  0  0  0  0  0  0  0  0  0
    8.0206   11.9316   25.4689 C   0  0  0  0  0  0  0  0  0  0  0  0
    7.3521   12.7673   26.3871 C   0  0  0  0  0  0  0  0  0  0  0  0
    9.1582   12.1004   24.6333 C   0  0  0  0  0  0  0  0  0  0  0  0
   10.1070   13.2053   24.5428 C   0  0  0  0  0  0  0  0  0  0  0  0
   10.2609   13.9749   25.4436 O   0  0  0  0  0  0  0  0  0  0  0  0
   10.7874   13.0782   23.3034 N   0  0  0  0  0  0  0  0  0  0  0  0
   11.7126   13.8117   22.7564 N   0  0  0  0  0  0  0  0  0  0  0  0
   11.7344   14.6218   21.5054 C   0  0  0  0  0  0  0  0  0  0  0  0
   13.1667   15.0270   21.3265 C   0  0  0  0  0  0  0  0  0  0  0  0
   10.6202   14.9661   20.4529 S   0  0  0  0  0  0  0  0  0  0  0  0
    9.3421   10.9046   23.9637 C   0  0  0  0  0  0  0  0  0  0  0  0
    8.4420   10.0113   24.4241 N   0  0  0  0  0  0  0  0  0  0  0  0
    8.5826    8.6304   24.0647 C   0  0  0  0  0  0  0  0  0  0  0  0
  1  2  1  0
  2  3  1  0
  3  4  2  0
  4  5  1  0
  5  6  2  0
  6  7  1  0
  7  8  2  0
  7  9  1  0
  9 10  1  0
 10 11  2  0
 10 12  1  0
 12 13  1  0
 13 14  1  0
 14 15  1  0
 14 16  2  0
  9 17  2  0
 17 18  1  0
 18 19  1  0
  8  3  1  0
 18  6  1  0
M  END
>  <alias>  (1396) 
None

>  <rmsd(smina/fragmenstein)>  (1396) 
1.48

>  <smiles>  (1396) 
COc1ccc2c(c1)c(C(=O)NNC(C)=S)cn2C

>  <gnina_score>  (1396) 
5.104

>  <inspiration_score>  (1396) 
None

>  <energy_score>  (1396) 
-12.809996

>  <distance_score>  (1396) 
1.290786

>  <gnina_score_min>  (1396) 
5.696

>  <inchikey>  (1396) 
ZQTRDHMAQBHLDP-UHFFFAOYSA-N

>  <exports>  (1396) 
['/opt/xchem-fragalysis-2/maxwin/BulkDock/OUTPUTS/openbind_a71ev2a_c2_elabs_1LOUU54.sdf', '/opt/xchem-fragalysis-2/maxwin/BulkDock/OUTPUTS/openbind_a71ev2a_c2_elabs_1LSYIDY.sdf']

>  <name>  (1396) 
P577348

>  <ref_pdb>  (1396) 
A3066a

>  <subsites>  (1396) 
None

>  <HIPPO Pose ID>  (1396) 
577348

>  <ref_mols>  (1396) 
A3066a

>  <HIPPO Compound ID>  (1396) 
351225

>  <tags>  (1396) 
openbind_a71ev2a_c2_elabs,syndirella_product,openbind_a71ev2a_c2_elabs_fragonly_scored_top80percent,BulkDock Fragalysis export,openbind_a71ev2a_c2_elabs_scored,openbind_a71ev2a_c2_elabs_scored_top80percent,openbind_a71ev2a_c2_elabs_activefrags_only_scored_5.2plus,openbind_a71ev2a_c2_elabs_activefrags_only_scored_5.5plus,syndirella_placed

>  <smina_score_min>  (1396) 
-6.814

$$$$
P577349
     RDKit          3D

 19 20  0  0  0  0  0  0  0  0999 V2000
   12.5847   14.1500   20.6133 C   0  0  0  0  0  0  0  0  0  0  0  0
   12.1185   14.9976   21.7742 C   0  0  0  0  0  0  0  0  0  0  0  0
   10.6793   15.0376   21.9651 N   0  0  0  0  0  0  0  0  0  0  0  0
    9.8670   15.4861   20.8476 C   0  0  0  0  0  0  0  0  0  0  0  0
   10.2091   13.9002   22.5333 N   0  0  0  0  0  0  0  0  0  0  0  0
   10.2029   13.4462   24.0027 C   0  0  0  0  0  0  0  0  0  0  0  0
   10.5311   14.0094   24.9697 O   0  0  0  0  0  0  0  0  0  0  0  0
    9.5907   12.1403   24.0631 C   0  0  0  0  0  0  0  0  0  0  0  0
    9.9197   11.0415   23.2976 C   0  0  0  0  0  0  0  0  0  0  0  0
    9.1689    9.9872   23.7349 N   0  0  0  0  0  0  0  0  0  0  0  0
    9.3277    8.6333   23.2533 C   0  0  0  0  0  0  0  0  0  0  0  0
    8.2722   10.4204   24.6881 C   0  0  0  0  0  0  0  0  0  0  0  0
    7.2718    9.7559   25.3952 C   0  0  0  0  0  0  0  0  0  0  0  0
    6.5098   10.4625   26.3334 C   0  0  0  0  0  0  0  0  0  0  0  0
    6.7291   11.8153   26.5588 C   0  0  0  0  0  0  0  0  0  0  0  0
    6.0635   12.5930   27.4657 O   0  0  0  0  0  0  0  0  0  0  0  0
    5.2729   11.9160   28.4353 C   0  0  0  0  0  0  0  0  0  0  0  0
    7.7138   12.4816   25.8269 C   0  0  0  0  0  0  0  0  0  0  0  0
    8.5102   11.7744   24.9018 C   0  0  0  0  0  0  0  0  0  0  0  0
  1  2  1  0
  2  3  1  0
  3  4  1  0
  3  5  1  0
  5  6  1  0
  6  7  2  0
  6  8  1  0
  8  9  2  0
  9 10  1  0
 10 11  1  0
 10 12  1  0
 12 13  2  0
 13 14  1  0
 14 15  2  0
 15 16  1  0
 16 17  1  0
 15 18  1  0
 18 19  2  0
 19  8  1  0
 19 12  1  0
M  END
>  <alias>  (1397) 
None

>  <rmsd(smina/fragmenstein)>  (1397) 
0.382

>  <smiles>  (1397) 
CCN(C)NC(=O)c1cn(C)c2ccc(OC)cc12

>  <gnina_score>  (1397) 
5.614

>  <inspiration_score>  (1397) 
None

>  <energy_score>  (1397) 
-29.11828

>  <distance_score>  (1397) 
0.797279

>  <gnina_score_min>  (1397) 
5.718

>  <inchikey>  (1397) 
NEGIDPIGRAHXGA-UHFFFAOYSA-N

>  <exports>  (1397) 
['/opt/xchem-fragalysis-2/maxwin/BulkDock/OUTPUTS/openbind_a71ev2a_c2_elabs_1LOUU54.sdf', '/opt/xchem-fragalysis-2/maxwin/BulkDock/OUTPUTS/openbind_a71ev2a_c2_elabs_1LSYIDY.sdf']

>  <name>  (1397) 
P577349

>  <ref_pdb>  (1397) 
A3066a

>  <subsites>  (1397) 
None

>  <HIPPO Pose ID>  (1397) 
577349

>  <ref_mols>  (1397) 
A3066a

>  <HIPPO Compound ID>  (1397) 
351226

>  <tags>  (1397) 
openbind_a71ev2a_c2_elabs,syndirella_product,openbind_a71ev2a_c2_elabs_fragonly_scored_top80percent,BulkDock Fragalysis export,openbind_a71ev2a_c2_elabs_scored,openbind_a71ev2a_c2_elabs_scored_top80percent,openbind_a71ev2a_c2_elabs_activefrags_only_scored_5.2plus,openbind_a71ev2a_c2_elabs_activefrags_only_scored_5.5plus,syndirella_placed

>  <smina_score_min>  (1397) 
-6.692

$$$$
P577350
     RDKit          3D

 19 20  0  0  0  0  0  0  0  0999 V2000
    5.3682   13.7964   27.3601 C   0  0  0  0  0  0  0  0  0  0  0  0
    5.5471   12.3887   27.4822 O   0  0  0  0  0  0  0  0  0  0  0  0
    6.3773   11.8039   26.5657 C   0  0  0  0  0  0  0  0  0  0  0  0
    6.3033   10.4200   26.5016 C   0  0  0  0  0  0  0  0  0  0  0  0
    7.0821    9.6912   25.5999 C   0  0  0  0  0  0  0  0  0  0  0  0
    7.9918   10.3551   24.7886 C   0  0  0  0  0  0  0  0  0  0  0  0
    8.0624   11.7416   24.8188 C   0  0  0  0  0  0  0  0  0  0  0  0
    7.2532   12.4734   25.7188 C   0  0  0  0  0  0  0  0  0  0  0  0
    9.0144   12.1216   23.8466 C   0  0  0  0  0  0  0  0  0  0  0  0
    9.4499   13.4764   23.6119 C   0  0  0  0  0  0  0  0  0  0  0  0
    9.2986   14.2774   24.4364 O   0  0  0  0  0  0  0  0  0  0  0  0
   10.1551   13.5654   22.2680 N   0  0  0  0  0  0  0  0  0  0  0  0
   10.8995   14.6135   21.6920 C   0  0  0  0  0  0  0  0  0  0  0  0
   12.1831   14.7323   22.5267 C   0  0  0  0  0  0  0  0  0  0  0  0
   12.5695   13.5139   23.3844 C   0  0  0  0  0  0  0  0  0  0  0  0
   13.3178   15.0212   21.5934 C   0  0  0  0  0  0  0  0  0  0  0  0
    9.5528   10.9680   23.3080 C   0  0  0  0  0  0  0  0  0  0  0  0
    8.9157    9.9048   23.8745 N   0  0  0  0  0  0  0  0  0  0  0  0
    9.2498    8.5379   23.5546 C   0  0  0  0  0  0  0  0  0  0  0  0
  1  2  1  0
  2  3  1  0
  3  4  2  0
  4  5  1  0
  5  6  2  0
  6  7  1  0
  7  8  2  0
  7  9  1  0
  9 10  1  0
 10 11  2  0
 10 12  1  0
 12 13  1  0
 13 14  1  0
 14 15  1  0
 14 16  1  0
  9 17  2  0
 17 18  1  0
 18 19  1  0
  8  3  1  0
 18  6  1  0
M  END
>  <alias>  (1398) 
None

>  <rmsd(smina/fragmenstein)>  (1398) 
0.204

>  <smiles>  (1398) 
COc1ccc2c(c1)c(C(=O)NCC(C)C)cn2C

>  <gnina_score>  (1398) 
5.237

>  <inspiration_score>  (1398) 
None

>  <energy_score>  (1398) 
-0.353551

>  <distance_score>  (1398) 
1.075359

>  <gnina_score_min>  (1398) 
5.25

>  <inchikey>  (1398) 
LEZBVNDKCXAZAT-UHFFFAOYSA-N

>  <exports>  (1398) 
['/opt/xchem-fragalysis-2/maxwin/BulkDock/OUTPUTS/openbind_a71ev2a_c2_elabs_1LOUU54.sdf', '/opt/xchem-fragalysis-2/maxwin/BulkDock/OUTPUTS/openbind_a71ev2a_c2_elabs_1LSYIDY.sdf']

>  <name>  (1398) 
P577350

>  <ref_pdb>  (1398) 
A3066a

>  <subsites>  (1398) 
None

>  <HIPPO Pose ID>  (1398) 
577350

>  <ref_mols>  (1398) 
A3066a

>  <HIPPO Compound ID>  (1398) 
351228

>  <tags>  (1398) 
openbind_a71ev2a_c2_elabs,syndirella_product,openbind_a71ev2a_c2_elabs_fragonly_scored_top80percent,openbind_a71ev2a_c2_elabs_scored,BulkDock Fragalysis export,openbind_a71ev2a_c2_elabs_scored_top80percent,openbind_a71ev2a_c2_elabs_activefrags_only_scored_5.2plus,syndirella_placed

>  <smina_score_min>  (1398) 
-5.698

$$$$
P577351
     RDKit          3D

 19 20  0  0  0  0  0  0  0  0999 V2000
   12.6698   13.2938   24.0906 C   0  0  0  0  0  0  0  0  0  0  0  0
   13.1806   13.8042   22.8734 O   0  0  0  0  0  0  0  0  0  0  0  0
   12.4626   14.8889   22.2858 C   0  0  0  0  0  0  0  0  0  0  0  0
   11.3734   14.4579   21.3104 C   0  0  0  0  0  0  0  0  0  0  0  0
   10.5890   13.4262   21.9014 N   0  0  0  0  0  0  0  0  0  0  0  0
    9.6870   13.4478   23.1306 C   0  0  0  0  0  0  0  0  0  0  0  0
    9.3745   14.3274   23.8184 O   0  0  0  0  0  0  0  0  0  0  0  0
    9.2565   12.1010   23.5028 C   0  0  0  0  0  0  0  0  0  0  0  0
    9.7469   10.8936   23.0459 C   0  0  0  0  0  0  0  0  0  0  0  0
    9.1122    9.8821   23.7069 N   0  0  0  0  0  0  0  0  0  0  0  0
    9.4093    8.4893   23.4692 C   0  0  0  0  0  0  0  0  0  0  0  0
    8.2080   10.4048   24.6002 C   0  0  0  0  0  0  0  0  0  0  0  0
    7.3026    9.7960   25.4679 C   0  0  0  0  0  0  0  0  0  0  0  0
    6.5232   10.5960   26.3062 C   0  0  0  0  0  0  0  0  0  0  0  0
    6.6089   11.9816   26.2652 C   0  0  0  0  0  0  0  0  0  0  0  0
    5.7748   12.6382   27.1291 O   0  0  0  0  0  0  0  0  0  0  0  0
    5.6147   14.0364   26.9059 C   0  0  0  0  0  0  0  0  0  0  0  0
    7.4982   12.5854   25.3769 C   0  0  0  0  0  0  0  0  0  0  0  0
    8.3026   11.7924   24.5224 C   0  0  0  0  0  0  0  0  0  0  0  0
  1  2  1  0
  2  3  1  0
  3  4  1  0
  4  5  1  0
  5  6  1  0
  6  7  2  0
  6  8  1  0
  8  9  2  0
  9 10  1  0
 10 11  1  0
 10 12  1  0
 12 13  2  0
 13 14  1  0
 14 15  2  0
 15 16  1  0
 16 17  1  0
 15 18  1  0
 18 19  2  0
 19  8  1  0
 19 12  1  0
M  END
>  <alias>  (1399) 
None

>  <rmsd(smina/fragmenstein)>  (1399) 
0.422

>  <smiles>  (1399) 
COCCNC(=O)c1cn(C)c2ccc(OC)cc12

>  <gnina_score>  (1399) 
5.354

>  <inspiration_score>  (1399) 
None

>  <energy_score>  (1399) 
-9.824743

>  <distance_score>  (1399) 
0.877964

>  <gnina_score_min>  (1399) 
5.219

>  <inchikey>  (1399) 
LCSSRMDZMIUXTC-UHFFFAOYSA-N

>  <exports>  (1399) 
['/opt/xchem-fragalysis-2/maxwin/BulkDock/OUTPUTS/openbind_a71ev2a_c2_elabs_1LOUU54.sdf', '/opt/xchem-fragalysis-2/maxwin/BulkDock/OUTPUTS/openbind_a71ev2a_c2_elabs_1LSYIDY.sdf']

>  <name>  (1399) 
P577351

>  <ref_pdb>  (1399) 
A3066a

>  <subsites>  (1399) 
None

>  <HIPPO Pose ID>  (1399) 
577351

>  <ref_mols>  (1399) 
A3066a

>  <HIPPO Compound ID>  (1399) 
351229

>  <tags>  (1399) 
openbind_a71ev2a_c2_elabs,syndirella_product,openbind_a71ev2a_c2_elabs_fragonly_scored_top80percent,openbind_a71ev2a_c2_elabs_scored,BulkDock Fragalysis export,openbind_a71ev2a_c2_elabs_scored_top80percent,openbind_a71ev2a_c2_elabs_activefrags_only_scored_5.2plus,syndirella_placed

>  <smina_score_min>  (1399) 
-5.777

$$$$
P577352
     RDKit          3D

 19 20  0  0  0  0  0  0  0  0999 V2000
    6.0799   14.3828   26.7714 C   0  0  0  0  0  0  0  0  0  0  0  0
    6.1454   12.9842   27.0441 O   0  0  0  0  0  0  0  0  0  0  0  0
    6.9421   12.2530   26.2035 C   0  0  0  0  0  0  0  0  0  0  0  0
    6.6813   10.8855   26.1845 C   0  0  0  0  0  0  0  0  0  0  0  0
    7.3994   10.0183   25.3568 C   0  0  0  0  0  0  0  0  0  0  0  0
    8.4089   10.5568   24.5520 C   0  0  0  0  0  0  0  0  0  0  0  0
    8.7213   11.9183   24.5778 C   0  0  0  0  0  0  0  0  0  0  0  0
    7.9730   12.7746   25.4175 C   0  0  0  0  0  0  0  0  0  0  0  0
    9.8081   12.1329   23.6709 C   0  0  0  0  0  0  0  0  0  0  0  0
   10.5375   13.3841   23.4564 C   0  0  0  0  0  0  0  0  0  0  0  0
   10.6957   14.1069   24.3531 O   0  0  0  0  0  0  0  0  0  0  0  0
   10.8909   13.5467   21.9764 N   0  0  0  0  0  0  0  0  0  0  0  0
   11.4245   14.6620   21.2693 C   0  0  0  0  0  0  0  0  0  0  0  0
   10.3293   15.5546   20.8872 C   0  0  0  0  0  0  0  0  0  0  0  0
    9.5124   16.3994   20.6396 C   0  0  0  0  0  0  0  0  0  0  0  0
    8.3579   17.8937   20.3457 Br  0  0  0  0  0  0  0  0  0  0  0  0
   10.0325   10.9245   23.0467 C   0  0  0  0  0  0  0  0  0  0  0  0
    9.2628    9.9695   23.6473 N   0  0  0  0  0  0  0  0  0  0  0  0
    9.3791    8.5573   23.3701 C   0  0  0  0  0  0  0  0  0  0  0  0
  1  2  1  0
  2  3  1  0
  3  4  2  0
  4  5  1  0
  5  6  2  0
  6  7  1  0
  7  8  2  0
  7  9  1  0
  9 10  1  0
 10 11  2  0
 10 12  1  0
 12 13  1  0
 13 14  1  0
 14 15  3  0
 15 16  1  0
  9 17  2  0
 17 18  1  0
 18 19  1  0
  8  3  1  0
 18  6  1  0
M  END
>  <alias>  (1400) 
None

>  <rmsd(smina/fragmenstein)>  (1400) 
0.217

>  <smiles>  (1400) 
COc1ccc2c(c1)c(C(=O)NCC#CBr)cn2C

>  <gnina_score>  (1400) 
5.447

>  <inspiration_score>  (1400) 
None

>  <energy_score>  (1400) 
-7.212286

>  <distance_score>  (1400) 
0.470386

>  <gnina_score_min>  (1400) 
5.426

>  <inchikey>  (1400) 
CQXYNTPTSVBMPZ-UHFFFAOYSA-N

>  <exports>  (1400) 
['/opt/xchem-fragalysis-2/maxwin/BulkDock/OUTPUTS/openbind_a71ev2a_c2_elabs_1LOUU54.sdf', '/opt/xchem-fragalysis-2/maxwin/BulkDock/OUTPUTS/openbind_a71ev2a_c2_elabs_1LSYIDY.sdf']

>  <name>  (1400) 
P577352

>  <ref_pdb>  (1400) 
A3066a

>  <subsites>  (1400) 
None

>  <HIPPO Pose ID>  (1400) 
577352

>  <ref_mols>  (1400) 
A3066a

>  <HIPPO Compound ID>  (1400) 
351232

>  <tags>  (1400) 
openbind_a71ev2a_c2_elabs,syndirella_product,openbind_a71ev2a_c2_elabs_fragonly_scored_top80percent,openbind_a71ev2a_c2_elabs_scored,BulkDock Fragalysis export,openbind_a71ev2a_c2_elabs_scored_top80percent,openbind_a71ev2a_c2_elabs_activefrags_only_scored_5.2plus,syndirella_placed

>  <smina_score_min>  (1400) 
-6.685

$$$$
P577353
     RDKit          3D

 19 20  0  0  0  0  0  0  0  0999 V2000
    5.3671   12.1932   28.3257 C   0  0  0  0  0  0  0  0  0  0  0  0
    6.2226   12.8160   27.3761 O   0  0  0  0  0  0  0  0  0  0  0  0
    6.8500   11.9993   26.4749 C   0  0  0  0  0  0  0  0  0  0  0  0
    6.5982   10.6442   26.2916 C   0  0  0  0  0  0  0  0  0  0  0  0
    7.3283    9.8952   25.3613 C   0  0  0  0  0  0  0  0  0  0  0  0
    8.3235   10.5306   24.6144 C   0  0  0  0  0  0  0  0  0  0  0  0
    8.5967   11.8892   24.7786 C   0  0  0  0  0  0  0  0  0  0  0  0
    7.8357   12.6288   25.7082 C   0  0  0  0  0  0  0  0  0  0  0  0
    9.6808   12.2130   23.9138 C   0  0  0  0  0  0  0  0  0  0  0  0
   10.4119   13.4717   23.8490 C   0  0  0  0  0  0  0  0  0  0  0  0
   10.6403   14.0637   24.8241 O   0  0  0  0  0  0  0  0  0  0  0  0
   10.7963   13.7642   22.3981 N   0  0  0  0  0  0  0  0  0  0  0  0
   11.4618   14.8935   21.8210 C   0  0  0  0  0  0  0  0  0  0  0  0
   12.4984   14.4558   20.7924 C   0  0  0  0  0  0  0  0  0  0  0  0
   12.0008   14.0890   19.4568 N   0  0  0  0  0  0  0  0  0  0  0  0
   11.0853   15.1173   18.9947 O   0  0  0  0  0  0  0  0  0  0  0  0
    9.9599   11.0767   23.1810 C   0  0  0  0  0  0  0  0  0  0  0  0
    9.1947   10.0525   23.6608 N   0  0  0  0  0  0  0  0  0  0  0  0
    9.3281    8.6789   23.2291 C   0  0  0  0  0  0  0  0  0  0  0  0
  1  2  1  0
  2  3  1  0
  3  4  2  0
  4  5  1  0
  5  6  2  0
  6  7  1  0
  7  8  2  0
  7  9  1  0
  9 10  1  0
 10 11  2  0
 10 12  1  0
 12 13  1  0
 13 14  1  0
 14 15  1  0
 15 16  1  0
  9 17  2  0
 17 18  1  0
 18 19  1  0
  8  3  1  0
 18  6  1  0
M  END
>  <alias>  (1401) 
None

>  <rmsd(smina/fragmenstein)>  (1401) 
0.62

>  <smiles>  (1401) 
COc1ccc2c(c1)c(C(=O)NCCNO)cn2C

>  <gnina_score>  (1401) 
5.611

>  <inspiration_score>  (1401) 
None

>  <energy_score>  (1401) 
-7.440181

>  <distance_score>  (1401) 
0.516419

>  <gnina_score_min>  (1401) 
5.753

>  <inchikey>  (1401) 
UNXBFGADCNPZBK-UHFFFAOYSA-N

>  <exports>  (1401) 
['/opt/xchem-fragalysis-2/maxwin/BulkDock/OUTPUTS/openbind_a71ev2a_c2_elabs_1LOUU54.sdf', '/opt/xchem-fragalysis-2/maxwin/BulkDock/OUTPUTS/openbind_a71ev2a_c2_elabs_1LSYIDY.sdf']

>  <name>  (1401) 
P577353

>  <ref_pdb>  (1401) 
A3066a

>  <subsites>  (1401) 
None

>  <HIPPO Pose ID>  (1401) 
577353

>  <ref_mols>  (1401) 
A3066a

>  <HIPPO Compound ID>  (1401) 
351233

>  <tags>  (1401) 
openbind_a71ev2a_c2_elabs,syndirella_product,openbind_a71ev2a_c2_elabs_fragonly_scored_top80percent,BulkDock Fragalysis export,openbind_a71ev2a_c2_elabs_scored,openbind_a71ev2a_c2_elabs_scored_top80percent,openbind_a71ev2a_c2_elabs_activefrags_only_scored_5.2plus,openbind_a71ev2a_c2_elabs_activefrags_only_scored_5.5plus,syndirella_placed

>  <smina_score_min>  (1401) 
-7.151

$$$$
P577354
     RDKit          3D

 19 20  0  0  0  0  0  0  0  0999 V2000
    9.6057   15.6033   20.4582 C   0  0  0  0  0  0  0  0  0  0  0  0
   10.7610   14.9599   20.2481 C   0  0  0  0  0  0  0  0  0  0  0  0
   11.1095   14.7205   18.9630 F   0  0  0  0  0  0  0  0  0  0  0  0
   11.7064   14.5172   21.3271 C   0  0  0  0  0  0  0  0  0  0  0  0
   11.0860   13.4404   22.0315 N   0  0  0  0  0  0  0  0  0  0  0  0
   10.5641   13.3613   23.4686 C   0  0  0  0  0  0  0  0  0  0  0  0
   10.6236   14.1333   24.3355 O   0  0  0  0  0  0  0  0  0  0  0  0
    9.8176   12.1157   23.6815 C   0  0  0  0  0  0  0  0  0  0  0  0
   10.0211   10.9064   23.0504 C   0  0  0  0  0  0  0  0  0  0  0  0
    9.2394    9.9580   23.6448 N   0  0  0  0  0  0  0  0  0  0  0  0
    9.3413    8.5469   23.3568 C   0  0  0  0  0  0  0  0  0  0  0  0
    8.3999   10.5484   24.5594 C   0  0  0  0  0  0  0  0  0  0  0  0
    7.3831   10.0162   25.3606 C   0  0  0  0  0  0  0  0  0  0  0  0
    6.6989   10.8700   26.2335 C   0  0  0  0  0  0  0  0  0  0  0  0
    7.0177   12.2216   26.3079 C   0  0  0  0  0  0  0  0  0  0  0  0
    6.4431   13.1370   27.1474 O   0  0  0  0  0  0  0  0  0  0  0  0
    5.4581   12.6584   28.0530 C   0  0  0  0  0  0  0  0  0  0  0  0
    8.0260   12.7425   25.4876 C   0  0  0  0  0  0  0  0  0  0  0  0
    8.7403   11.9025   24.6052 C   0  0  0  0  0  0  0  0  0  0  0  0
  1  2  2  0
  2  3  1  0
  2  4  1  0
  4  5  1  0
  5  6  1  0
  6  7  2  0
  6  8  1  0
  8  9  2  0
  9 10  1  0
 10 11  1  0
 10 12  1  0
 12 13  2  0
 13 14  1  0
 14 15  2  0
 15 16  1  0
 16 17  1  0
 15 18  1  0
 18 19  2  0
 19  8  1  0
 19 12  1  0
M  END
>  <alias>  (1402) 
None

>  <rmsd(smina/fragmenstein)>  (1402) 
0.264

>  <smiles>  (1402) 
C=C(F)CNC(=O)c1cn(C)c2ccc(OC)cc12

>  <gnina_score>  (1402) 
5.434

>  <inspiration_score>  (1402) 
None

>  <energy_score>  (1402) 
-10.2992

>  <distance_score>  (1402) 
0.403076

>  <gnina_score_min>  (1402) 
5.374

>  <inchikey>  (1402) 
WXIOASQGMPQJEY-UHFFFAOYSA-N

>  <exports>  (1402) 
['/opt/xchem-fragalysis-2/maxwin/BulkDock/OUTPUTS/openbind_a71ev2a_c2_elabs_1LOUU54.sdf', '/opt/xchem-fragalysis-2/maxwin/BulkDock/OUTPUTS/openbind_a71ev2a_c2_elabs_1LSYIDY.sdf']

>  <name>  (1402) 
P577354

>  <ref_pdb>  (1402) 
A3066a

>  <subsites>  (1402) 
None

>  <HIPPO Pose ID>  (1402) 
577354

>  <ref_mols>  (1402) 
A3066a

>  <HIPPO Compound ID>  (1402) 
351237

>  <tags>  (1402) 
openbind_a71ev2a_c2_elabs,syndirella_product,openbind_a71ev2a_c2_elabs_fragonly_scored_top80percent,openbind_a71ev2a_c2_elabs_scored,BulkDock Fragalysis export,openbind_a71ev2a_c2_elabs_scored_top80percent,openbind_a71ev2a_c2_elabs_activefrags_only_scored_5.2plus,syndirella_placed

>  <smina_score_min>  (1402) 
-7.267

$$$$
P577355
     RDKit          3D

 19 20  0  0  0  0  0  0  0  0999 V2000
    5.8189   14.1183   27.0520 C   0  0  0  0  0  0  0  0  0  0  0  0
    5.8823   12.7068   27.2385 O   0  0  0  0  0  0  0  0  0  0  0  0
    6.7203   12.0291   26.3951 C   0  0  0  0  0  0  0  0  0  0  0  0
    6.4837   10.6623   26.3034 C   0  0  0  0  0  0  0  0  0  0  0  0
    7.2356    9.8482   25.4535 C   0  0  0  0  0  0  0  0  0  0  0  0
    8.2731   10.4241   24.7208 C   0  0  0  0  0  0  0  0  0  0  0  0
    8.5691   11.7818   24.8359 C   0  0  0  0  0  0  0  0  0  0  0  0
    7.7691   12.5957   25.6711 C   0  0  0  0  0  0  0  0  0  0  0  0
    9.6958   12.0432   24.0032 C   0  0  0  0  0  0  0  0  0  0  0  0
   10.3600   13.3291   23.8468 C   0  0  0  0  0  0  0  0  0  0  0  0
   10.3588   14.1048   24.7105 O   0  0  0  0  0  0  0  0  0  0  0  0
   10.8881   13.4372   22.4229 N   0  0  0  0  0  0  0  0  0  0  0  0
   11.4435   14.5499   21.7204 C   0  0  0  0  0  0  0  0  0  0  0  0
   10.5127   14.7934   20.5338 C   0  0  1  0  0  0  0  0  0  0  0  0
    9.7235   16.0823   20.5773 C   0  0  0  0  0  0  0  0  0  0  0  0
   11.5430   14.5994   18.9160 Br  0  0  0  0  0  0  0  0  0  0  0  0
    9.9703   10.8714   23.3285 C   0  0  0  0  0  0  0  0  0  0  0  0
    9.1650    9.8888   23.8216 N   0  0  0  0  0  0  0  0  0  0  0  0
    9.2929    8.5026   23.4440 C   0  0  0  0  0  0  0  0  0  0  0  0
  1  2  1  0
  2  3  1  0
  3  4  2  0
  4  5  1  0
  5  6  2  0
  6  7  1  0
  7  8  2  0
  7  9  1  0
  9 10  1  0
 10 11  2  0
 10 12  1  0
 12 13  1  0
 13 14  1  0
 14 15  1  1
 14 16  1  0
  9 17  2  0
 17 18  1  0
 18 19  1  0
  8  3  1  0
 18  6  1  0
M  END
>  <alias>  (1403) 
None

>  <rmsd(smina/fragmenstein)>  (1403) 
0.381

>  <smiles>  (1403) 
COc1ccc2c(c1)c(C(=O)NC[C@@H](C)Br)cn2C

>  <gnina_score>  (1403) 
5.423

>  <inspiration_score>  (1403) 
None

>  <energy_score>  (1403) 
-10.882792

>  <distance_score>  (1403) 
0.559997

>  <gnina_score_min>  (1403) 
5.448

>  <inchikey>  (1403) 
USSNLVOCQSHYQW-SECBINFHSA-N

>  <exports>  (1403) 
['/opt/xchem-fragalysis-2/maxwin/BulkDock/OUTPUTS/openbind_a71ev2a_c2_elabs_1LOUU54.sdf', '/opt/xchem-fragalysis-2/maxwin/BulkDock/OUTPUTS/openbind_a71ev2a_c2_elabs_1LSYIDY.sdf']

>  <name>  (1403) 
P577355

>  <ref_pdb>  (1403) 
A3066a

>  <subsites>  (1403) 
None

>  <HIPPO Pose ID>  (1403) 
577355

>  <ref_mols>  (1403) 
A3066a

>  <HIPPO Compound ID>  (1403) 
351238

>  <tags>  (1403) 
openbind_a71ev2a_c2_elabs,syndirella_product,openbind_a71ev2a_c2_elabs_fragonly_scored_top80percent,openbind_a71ev2a_c2_elabs_scored,BulkDock Fragalysis export,openbind_a71ev2a_c2_elabs_scored_top80percent,openbind_a71ev2a_c2_elabs_activefrags_only_scored_5.2plus,syndirella_placed

>  <smina_score_min>  (1403) 
-6.401

$$$$
P577357
     RDKit          3D

 19 20  0  0  0  0  0  0  0  0999 V2000
    5.3691   12.3963   28.1841 C   0  0  0  0  0  0  0  0  0  0  0  0
    6.3507   12.9272   27.3045 O   0  0  0  0  0  0  0  0  0  0  0  0
    6.9422   12.0551   26.4317 C   0  0  0  0  0  0  0  0  0  0  0  0
    6.6148   10.7142   26.2688 C   0  0  0  0  0  0  0  0  0  0  0  0
    7.3178    9.9045   25.3685 C   0  0  0  0  0  0  0  0  0  0  0  0
    8.3704   10.4624   24.6377 C   0  0  0  0  0  0  0  0  0  0  0  0
    8.7308   11.7999   24.7912 C   0  0  0  0  0  0  0  0  0  0  0  0
    7.9838   12.6057   25.6783 C   0  0  0  0  0  0  0  0  0  0  0  0
    9.8601   12.0421   23.9472 C   0  0  0  0  0  0  0  0  0  0  0  0
   10.5934   13.2988   23.8538 C   0  0  0  0  0  0  0  0  0  0  0  0
   10.7258   13.9634   24.7987 O   0  0  0  0  0  0  0  0  0  0  0  0
   10.9907   13.5530   22.3984 N   0  0  0  0  0  0  0  0  0  0  0  0
   11.5487   14.7143   21.7761 C   0  0  0  0  0  0  0  0  0  0  0  0
   10.4738   15.3989   20.9006 C   0  0  1  0  0  0  0  0  0  0  0  0
   10.6435   14.9895   19.4473 C   0  0  0  0  0  0  0  0  0  0  0  0
    8.7344   15.0412   21.3845 S   0  0  0  0  0  0  0  0  0  0  0  0
   10.0443   10.8954   23.2059 C   0  0  0  0  0  0  0  0  0  0  0  0
    9.2239    9.9242   23.7037 N   0  0  0  0  0  0  0  0  0  0  0  0
    9.2891    8.5421   23.2965 C   0  0  0  0  0  0  0  0  0  0  0  0
  1  2  1  0
  2  3  1  0
  3  4  2  0
  4  5  1  0
  5  6  2  0
  6  7  1  0
  7  8  2  0
  7  9  1  0
  9 10  1  0
 10 11  2  0
 10 12  1  0
 12 13  1  0
 13 14  1  0
 14 15  1  6
 14 16  1  0
  9 17  2  0
 17 18  1  0
 18 19  1  0
  8  3  1  0
 18  6  1  0
M  END
>  <alias>  (1404) 
None

>  <rmsd(smina/fragmenstein)>  (1404) 
0.5

>  <smiles>  (1404) 
COc1ccc2c(c1)c(C(=O)NC[C@@H](C)S)cn2C

>  <gnina_score>  (1404) 
5.634

>  <inspiration_score>  (1404) 
None

>  <energy_score>  (1404) 
-4.994216

>  <distance_score>  (1404) 
0.421099

>  <gnina_score_min>  (1404) 
5.634

>  <inchikey>  (1404) 
DAPFKGAKNGNTDW-SECBINFHSA-N

>  <exports>  (1404) 
['/opt/xchem-fragalysis-2/maxwin/BulkDock/OUTPUTS/openbind_a71ev2a_c2_elabs_1LOUU54.sdf', '/opt/xchem-fragalysis-2/maxwin/BulkDock/OUTPUTS/openbind_a71ev2a_c2_elabs_1LSYIDY.sdf']

>  <name>  (1404) 
P577357

>  <ref_pdb>  (1404) 
A3066a

>  <subsites>  (1404) 
None

>  <HIPPO Pose ID>  (1404) 
577357

>  <ref_mols>  (1404) 
A3066a

>  <HIPPO Compound ID>  (1404) 
351240

>  <tags>  (1404) 
openbind_a71ev2a_c2_elabs,syndirella_product,openbind_a71ev2a_c2_elabs_fragonly_scored_top80percent,BulkDock Fragalysis export,openbind_a71ev2a_c2_elabs_scored,openbind_a71ev2a_c2_elabs_scored_top80percent,openbind_a71ev2a_c2_elabs_activefrags_only_scored_5.2plus,openbind_a71ev2a_c2_elabs_activefrags_only_scored_5.5plus,syndirella_placed

>  <smina_score_min>  (1404) 
-6.724

$$$$
P577360
     RDKit          3D

 19 21  0  0  0  0  0  0  0  0999 V2000
    5.1593   12.5969   28.2966 C   0  0  0  0  0  0  0  0  0  0  0  0
    6.1487   13.0357   27.3752 O   0  0  0  0  0  0  0  0  0  0  0  0
    6.6910   12.0945   26.5443 C   0  0  0  0  0  0  0  0  0  0  0  0
    6.3529   10.7479   26.5047 C   0  0  0  0  0  0  0  0  0  0  0  0
    6.9916    9.8656   25.6250 C   0  0  0  0  0  0  0  0  0  0  0  0
    8.0162   10.3455   24.8097 C   0  0  0  0  0  0  0  0  0  0  0  0
    8.3591   11.6975   24.8184 C   0  0  0  0  0  0  0  0  0  0  0  0
    7.6801   12.5773   25.6862 C   0  0  0  0  0  0  0  0  0  0  0  0
    9.4255   11.8557   23.8996 C   0  0  0  0  0  0  0  0  0  0  0  0
   10.2227   13.0296   23.6657 C   0  0  0  0  0  0  0  0  0  0  0  0
   10.2578   13.8976   24.4422 O   0  0  0  0  0  0  0  0  0  0  0  0
   11.0048   12.8300   22.3587 N   0  0  0  0  0  0  0  0  0  0  0  0
   12.0453   13.5934   21.7864 C   0  0  0  0  0  0  0  0  0  0  0  0
   12.6880   14.5640   22.7611 C   0  0  0  0  0  0  0  0  0  0  0  0
   12.6758   15.5564   21.6291 C   0  0  0  0  0  0  0  0  0  0  0  0
   11.5651   14.7619   20.9455 C   0  0  0  0  0  0  0  0  0  0  0  0
    9.6822   10.6251   23.3429 C   0  0  0  0  0  0  0  0  0  0  0  0
    8.8624    9.7243   23.9256 N   0  0  0  0  0  0  0  0  0  0  0  0
    9.0427    8.3283   23.6592 C   0  0  0  0  0  0  0  0  0  0  0  0
  1  2  1  0
  2  3  1  0
  3  4  2  0
  4  5  1  0
  5  6  2  0
  6  7  1  0
  7  8  2  0
  7  9  1  0
  9 10  1  0
 10 11  2  0
 10 12  1  0
 12 13  1  0
 13 14  1  0
 14 15  1  0
 15 16  1  0
  9 17  2  0
 17 18  1  0
 18 19  1  0
  8  3  1  0
 16 13  1  0
 18  6  1  0
M  END
>  <alias>  (1405) 
None

>  <rmsd(smina/fragmenstein)>  (1405) 
0.251

>  <smiles>  (1405) 
COc1ccc2c(c1)c(C(=O)NC1CCC1)cn2C

>  <gnina_score>  (1405) 
5.262

>  <inspiration_score>  (1405) 
None

>  <energy_score>  (1405) 
-4.532716

>  <distance_score>  (1405) 
0.735844

>  <gnina_score_min>  (1405) 
5.249

>  <inchikey>  (1405) 
SVXOORMTDRGMSC-UHFFFAOYSA-N

>  <exports>  (1405) 
['/opt/xchem-fragalysis-2/maxwin/BulkDock/OUTPUTS/openbind_a71ev2a_c2_elabs_1LOUU54.sdf', '/opt/xchem-fragalysis-2/maxwin/BulkDock/OUTPUTS/openbind_a71ev2a_c2_elabs_1LSYIDY.sdf']

>  <name>  (1405) 
P577360

>  <ref_pdb>  (1405) 
A3066a

>  <subsites>  (1405) 
None

>  <HIPPO Pose ID>  (1405) 
577360

>  <ref_mols>  (1405) 
A3066a

>  <HIPPO Compound ID>  (1405) 
351248

>  <tags>  (1405) 
openbind_a71ev2a_c2_elabs,syndirella_product,openbind_a71ev2a_c2_elabs_fragonly_scored_top80percent,openbind_a71ev2a_c2_elabs_scored,BulkDock Fragalysis export,openbind_a71ev2a_c2_elabs_scored_top80percent,openbind_a71ev2a_c2_elabs_activefrags_only_scored_5.2plus,syndirella_placed

>  <smina_score_min>  (1405) 
-6.127

$$$$
P577362
     RDKit          3D

 19 20  0  0  0  0  0  0  0  0999 V2000
    5.2451   12.1153   28.3610 C   0  0  0  0  0  0  0  0  0  0  0  0
    5.9510   12.7216   27.2853 O   0  0  0  0  0  0  0  0  0  0  0  0
    6.6065   11.8837   26.4255 C   0  0  0  0  0  0  0  0  0  0  0  0
    6.4775   10.5036   26.3823 C   0  0  0  0  0  0  0  0  0  0  0  0
    7.2262    9.7424   25.4792 C   0  0  0  0  0  0  0  0  0  0  0  0
    8.1266   10.3749   24.6251 C   0  0  0  0  0  0  0  0  0  0  0  0
    8.2317   11.7622   24.6068 C   0  0  0  0  0  0  0  0  0  0  0  0
    7.4628   12.5173   25.5225 C   0  0  0  0  0  0  0  0  0  0  0  0
    9.1945   12.0986   23.6099 C   0  0  0  0  0  0  0  0  0  0  0  0
    9.7307   13.4295   23.3783 C   0  0  0  0  0  0  0  0  0  0  0  0
    9.4825   14.2640   24.1459 O   0  0  0  0  0  0  0  0  0  0  0  0
   10.6451   13.4495   22.1539 N   0  0  0  0  0  0  0  0  0  0  0  0
   11.5186   14.4639   21.6679 C   0  0  2  0  0  0  0  0  0  0  0  0
   12.1977   14.1043   20.3680 C   0  0  0  0  0  0  0  0  0  0  0  0
   12.5701   14.6892   22.7692 C   0  0  0  0  0  0  0  0  0  0  0  0
   12.9265   13.2351   23.8674 S   0  0  0  0  0  0  0  0  0  0  0  0
    9.6701   10.9096   23.0913 C   0  0  0  0  0  0  0  0  0  0  0  0
    9.0257    9.8791   23.7111 N   0  0  0  0  0  0  0  0  0  0  0  0
    9.3372    8.4940   23.4497 C   0  0  0  0  0  0  0  0  0  0  0  0
  1  2  1  0
  2  3  1  0
  3  4  2  0
  4  5  1  0
  5  6  2  0
  6  7  1  0
  7  8  2  0
  7  9  1  0
  9 10  1  0
 10 11  2  0
 10 12  1  0
 12 13  1  0
 13 14  1  6
 13 15  1  0
 15 16  1  0
  9 17  2  0
 17 18  1  0
 18 19  1  0
  8  3  1  0
 18  6  1  0
M  END
>  <alias>  (1406) 
None

>  <rmsd(smina/fragmenstein)>  (1406) 
1.189

>  <smiles>  (1406) 
COc1ccc2c(c1)c(C(=O)N[C@H](C)CS)cn2C

>  <gnina_score>  (1406) 
5.58

>  <inspiration_score>  (1406) 
None

>  <energy_score>  (1406) 
-7.001642

>  <distance_score>  (1406) 
0.827408

>  <gnina_score_min>  (1406) 
5.565

>  <inchikey>  (1406) 
QUAWWCGOKRULKD-SECBINFHSA-N

>  <exports>  (1406) 
['/opt/xchem-fragalysis-2/maxwin/BulkDock/OUTPUTS/openbind_a71ev2a_c2_elabs_1LOUU54.sdf', '/opt/xchem-fragalysis-2/maxwin/BulkDock/OUTPUTS/openbind_a71ev2a_c2_elabs_1LSYIDY.sdf']

>  <name>  (1406) 
P577362

>  <ref_pdb>  (1406) 
A3066a

>  <subsites>  (1406) 
None

>  <HIPPO Pose ID>  (1406) 
577362

>  <ref_mols>  (1406) 
A3066a

>  <HIPPO Compound ID>  (1406) 
351249

>  <tags>  (1406) 
openbind_a71ev2a_c2_elabs,syndirella_product,openbind_a71ev2a_c2_elabs_fragonly_scored_top80percent,BulkDock Fragalysis export,openbind_a71ev2a_c2_elabs_scored,openbind_a71ev2a_c2_elabs_scored_top80percent,openbind_a71ev2a_c2_elabs_activefrags_only_scored_5.2plus,openbind_a71ev2a_c2_elabs_activefrags_only_scored_5.5plus,syndirella_placed

>  <smina_score_min>  (1406) 
-6.18

$$$$
P577364
     RDKit          3D

 19 21  0  0  0  0  0  0  0  0999 V2000
   11.4239   14.5376   23.9363 O   0  0  0  0  0  0  0  0  0  0  0  0
   10.9772   13.7750   23.1805 C   0  0  0  0  0  0  0  0  0  0  0  0
   11.0374   13.7412   21.6513 N   0  0  0  0  0  0  0  0  0  0  0  0
   11.5683   14.6706   20.7350 C   0  0  0  0  0  0  0  0  0  0  0  0
   10.5312   15.7331   20.7597 C   0  0  0  0  0  0  0  0  0  0  0  0
    9.6559   16.0914   19.8272 C   0  0  0  0  0  0  0  0  0  0  0  0
    8.6331   17.4563   20.0782 Cl  0  0  0  0  0  0  0  0  0  0  0  0
   10.1288   12.6819   23.6041 C   0  0  0  0  0  0  0  0  0  0  0  0
   10.1781   11.4103   23.0621 C   0  0  0  0  0  0  0  0  0  0  0  0
    9.1984   10.6903   23.6335 N   0  0  0  0  0  0  0  0  0  0  0  0
    8.4914   11.4562   24.5225 C   0  0  0  0  0  0  0  0  0  0  0  0
    7.4430   11.0360   25.3424 C   0  0  0  0  0  0  0  0  0  0  0  0
    6.8358   11.9910   26.1495 C   0  0  0  0  0  0  0  0  0  0  0  0
    7.3124   13.2981   26.1495 C   0  0  0  0  0  0  0  0  0  0  0  0
    8.4163   13.6700   25.3603 C   0  0  0  0  0  0  0  0  0  0  0  0
    9.0366   12.7201   24.5290 C   0  0  0  0  0  0  0  0  0  0  0  0
    7.0870    9.5944   25.3363 C   0  0  0  0  0  0  0  0  0  0  0  0
    8.2933    8.8327   24.7794 C   0  0  0  0  0  0  0  0  0  0  0  0
    8.9695    9.2756   23.5138 C   0  0  0  0  0  0  0  0  0  0  0  0
  1  2  2  0
  2  3  1  0
  3  4  1  0
  4  5  1  0
  5  6  2  0
  6  7  1  0
  2  8  1  0
  8  9  2  0
  9 10  1  0
 10 11  1  0
 11 12  2  0
 12 13  1  0
 13 14  2  0
 14 15  1  0
 15 16  2  0
 12 17  1  0
 17 18  1  0
 18 19  1  0
 16  8  1  0
 19 10  1  0
 16 11  1  0
M  END
>  <alias>  (1407) 
None

>  <rmsd(smina/fragmenstein)>  (1407) 
1.205

>  <smiles>  (1407) 
O=C(NC/C=C/Cl)c1cn2c3c(cccc13)CCC2

>  <gnina_score>  (1407) 
5.491

>  <inspiration_score>  (1407) 
None

>  <energy_score>  (1407) 
-6.024294

>  <distance_score>  (1407) 
0.971538

>  <gnina_score_min>  (1407) 
5.355

>  <inchikey>  (1407) 
HFTFTWNMWAUSNA-XVNBXDOJSA-N

>  <exports>  (1407) 
['/opt/xchem-fragalysis-2/maxwin/BulkDock/OUTPUTS/openbind_a71ev2a_c2_elabs_1LOUU54.sdf', '/opt/xchem-fragalysis-2/maxwin/BulkDock/OUTPUTS/openbind_a71ev2a_c2_elabs_1LSYIDY.sdf']

>  <name>  (1407) 
P577364

>  <ref_pdb>  (1407) 
A3066a

>  <subsites>  (1407) 
None

>  <HIPPO Pose ID>  (1407) 
577364

>  <ref_mols>  (1407) 
A3066a

>  <HIPPO Compound ID>  (1407) 
351259

>  <tags>  (1407) 
openbind_a71ev2a_c2_elabs,syndirella_product,openbind_a71ev2a_c2_elabs_fragonly_scored_top80percent,openbind_a71ev2a_c2_elabs_scored,BulkDock Fragalysis export,openbind_a71ev2a_c2_elabs_scored_top80percent,openbind_a71ev2a_c2_elabs_activefrags_only_scored_5.2plus,syndirella_placed

>  <smina_score_min>  (1407) 
-6.849

$$$$
P577366
     RDKit          3D

 19 21  0  0  0  0  0  0  0  0999 V2000
   11.0784   14.8455   19.3867 C   0  0  0  0  0  0  0  0  0  0  0  0
    9.7885   15.2713   20.0994 C   0  0  2  0  0  0  0  0  0  0  0  0
    9.8126   16.7529   20.3830 C   0  0  0  0  0  0  0  0  0  0  0  0
    8.2741   17.6565   20.5915 S   0  0  0  0  0  0  0  0  0  0  0  0
    9.6097   14.4133   21.2409 N   0  0  0  0  0  0  0  0  0  0  0  0
   10.4259   14.2937   22.5383 C   0  0  0  0  0  0  0  0  0  0  0  0
   11.3268   14.9228   22.9246 O   0  0  0  0  0  0  0  0  0  0  0  0
    9.9378   13.1225   23.2353 C   0  0  0  0  0  0  0  0  0  0  0  0
   10.4515   11.8849   22.8873 C   0  0  0  0  0  0  0  0  0  0  0  0
    9.7197   10.9327   23.4940 N   0  0  0  0  0  0  0  0  0  0  0  0
    8.7631   11.5239   24.2671 C   0  0  0  0  0  0  0  0  0  0  0  0
    7.7913   10.8694   25.0010 C   0  0  0  0  0  0  0  0  0  0  0  0
    6.9357   11.6527   25.7732 C   0  0  0  0  0  0  0  0  0  0  0  0
    7.0308   13.0420   25.7287 C   0  0  0  0  0  0  0  0  0  0  0  0
    7.9858   13.6795   24.9164 C   0  0  0  0  0  0  0  0  0  0  0  0
    8.8924   12.9008   24.1752 C   0  0  0  0  0  0  0  0  0  0  0  0
    7.7764    9.3912   24.9671 C   0  0  0  0  0  0  0  0  0  0  0  0
    8.6452    8.7482   23.8701 C   0  0  0  0  0  0  0  0  0  0  0  0
    9.8684    9.5024   23.3789 C   0  0  0  0  0  0  0  0  0  0  0  0
  2  1  1  1
  2  3  1  0
  3  4  1  0
  2  5  1  0
  5  6  1  0
  6  7  2  0
  6  8  1  0
  8  9  2  0
  9 10  1  0
 10 11  1  0
 11 12  2  0
 12 13  1  0
 13 14  2  0
 14 15  1  0
 15 16  2  0
 12 17  1  0
 17 18  1  0
 18 19  1  0
 16  8  1  0
 19 10  1  0
 16 11  1  0
M  END
>  <alias>  (1408) 
None

>  <rmsd(smina/fragmenstein)>  (1408) 
0.366

>  <smiles>  (1408) 
C[C@H](CS)NC(=O)c1cn2c3c(cccc13)CCC2

>  <gnina_score>  (1408) 
5.537

>  <inspiration_score>  (1408) 
None

>  <energy_score>  (1408) 
-10.850498

>  <distance_score>  (1408) 
1.552659

>  <gnina_score_min>  (1408) 
5.44

>  <inchikey>  (1408) 
UCTYKJHEUQGJTD-SNVBAGLBSA-N

>  <exports>  (1408) 
['/opt/xchem-fragalysis-2/maxwin/BulkDock/OUTPUTS/openbind_a71ev2a_c2_elabs_1LOUU54.sdf', '/opt/xchem-fragalysis-2/maxwin/BulkDock/OUTPUTS/openbind_a71ev2a_c2_elabs_1LSYIDY.sdf']

>  <name>  (1408) 
P577366

>  <ref_pdb>  (1408) 
A3066a

>  <subsites>  (1408) 
None

>  <HIPPO Pose ID>  (1408) 
577366

>  <ref_mols>  (1408) 
A3066a

>  <HIPPO Compound ID>  (1408) 
351264

>  <tags>  (1408) 
openbind_a71ev2a_c2_elabs,syndirella_product,openbind_a71ev2a_c2_elabs_fragonly_scored_top80percent,openbind_a71ev2a_c2_elabs_scored,BulkDock Fragalysis export,openbind_a71ev2a_c2_elabs_scored_top80percent,openbind_a71ev2a_c2_elabs_activefrags_only_scored_5.2plus,syndirella_placed

>  <smina_score_min>  (1408) 
-6.199

$$$$
P577367
     RDKit          3D

 19 21  0  0  0  0  0  0  0  0999 V2000
   12.9637   14.2169   20.7407 O   0  0  0  0  0  0  0  0  0  0  0  0
   12.0308   14.4444   19.9199 C   0  0  0  0  0  0  0  0  0  0  0  0
   12.0031   14.2259   18.6773 O   0  0  0  0  0  0  0  0  0  0  0  0
   10.7469   15.0527   20.5487 C   0  0  0  0  0  0  0  0  0  0  0  0
   10.2862   14.2049   21.6044 N   0  0  0  0  0  0  0  0  0  0  0  0
   10.6797   14.1539   23.0826 C   0  0  0  0  0  0  0  0  0  0  0  0
   11.3851   14.8425   23.7002 O   0  0  0  0  0  0  0  0  0  0  0  0
   10.0654   12.9696   23.6078 C   0  0  0  0  0  0  0  0  0  0  0  0
   10.4362   11.7441   23.0895 C   0  0  0  0  0  0  0  0  0  0  0  0
    9.6565   10.8130   23.6490 N   0  0  0  0  0  0  0  0  0  0  0  0
    8.7428   11.4093   24.4678 C   0  0  0  0  0  0  0  0  0  0  0  0
    7.7176   10.7837   25.1440 C   0  0  0  0  0  0  0  0  0  0  0  0
    6.9075   11.5749   25.9584 C   0  0  0  0  0  0  0  0  0  0  0  0
    7.1242   12.9495   26.0400 C   0  0  0  0  0  0  0  0  0  0  0  0
    8.1591   13.5625   25.3141 C   0  0  0  0  0  0  0  0  0  0  0  0
    8.9960   12.7672   24.5123 C   0  0  0  0  0  0  0  0  0  0  0  0
    7.5937    9.3233   24.9927 C   0  0  0  0  0  0  0  0  0  0  0  0
    8.5211    8.6746   23.9426 C   0  0  0  0  0  0  0  0  0  0  0  0
    9.7622    9.3945   23.4693 C   0  0  0  0  0  0  0  0  0  0  0  0
  1  2  2  0
  2  3  1  0
  2  4  1  0
  4  5  1  0
  5  6  1  0
  6  7  2  0
  6  8  1  0
  8  9  2  0
  9 10  1  0
 10 11  1  0
 11 12  2  0
 12 13  1  0
 13 14  2  0
 14 15  1  0
 15 16  2  0
 12 17  1  0
 17 18  1  0
 18 19  1  0
 16  8  1  0
 19 10  1  0
 16 11  1  0
M  CHG  1   3  -1
M  END
>  <alias>  (1409) 
None

>  <rmsd(smina/fragmenstein)>  (1409) 
0.466

>  <smiles>  (1409) 
O=C([O-])CNC(=O)c1cn2c3c(cccc13)CCC2

>  <gnina_score>  (1409) 
5.267

>  <inspiration_score>  (1409) 
None

>  <energy_score>  (1409) 
-11.374277

>  <distance_score>  (1409) 
1.142529

>  <gnina_score_min>  (1409) 
5.203

>  <inchikey>  (1409) 
APZTYIAXRNTTRZ-UHFFFAOYSA-M

>  <exports>  (1409) 
['/opt/xchem-fragalysis-2/maxwin/BulkDock/OUTPUTS/openbind_a71ev2a_c2_elabs_1LOUU54.sdf', '/opt/xchem-fragalysis-2/maxwin/BulkDock/OUTPUTS/openbind_a71ev2a_c2_elabs_1LSYIDY.sdf']

>  <name>  (1409) 
P577367

>  <ref_pdb>  (1409) 
A3066a

>  <subsites>  (1409) 
None

>  <HIPPO Pose ID>  (1409) 
577367

>  <ref_mols>  (1409) 
A3066a

>  <HIPPO Compound ID>  (1409) 
351267

>  <tags>  (1409) 
openbind_a71ev2a_c2_elabs,syndirella_product,openbind_a71ev2a_c2_elabs_fragonly_scored_top80percent,openbind_a71ev2a_c2_elabs_scored,BulkDock Fragalysis export,openbind_a71ev2a_c2_elabs_scored_top80percent,openbind_a71ev2a_c2_elabs_activefrags_only_scored_5.2plus,syndirella_placed

>  <smina_score_min>  (1409) 
-6.115

$$$$
P577368
     RDKit          3D

 19 20  0  0  0  0  0  0  0  0999 V2000
    5.3295   12.0339   28.3232 C   0  0  0  0  0  0  0  0  0  0  0  0
    6.0071   12.6663   27.2443 O   0  0  0  0  0  0  0  0  0  0  0  0
    6.6910   11.8519   26.3839 C   0  0  0  0  0  0  0  0  0  0  0  0
    6.5754   10.4710   26.3129 C   0  0  0  0  0  0  0  0  0  0  0  0
    7.3536    9.7326   25.4153 C   0  0  0  0  0  0  0  0  0  0  0  0
    8.2641   10.3921   24.5917 C   0  0  0  0  0  0  0  0  0  0  0  0
    8.3578   11.7802   24.6010 C   0  0  0  0  0  0  0  0  0  0  0  0
    7.5580   12.5116   25.5093 C   0  0  0  0  0  0  0  0  0  0  0  0
    9.2972   12.1463   23.5908 C   0  0  0  0  0  0  0  0  0  0  0  0
    9.6816   13.5098   23.2579 C   0  0  0  0  0  0  0  0  0  0  0  0
    9.5054   14.3363   24.0526 O   0  0  0  0  0  0  0  0  0  0  0  0
   10.3411   13.5833   21.8823 N   0  0  0  0  0  0  0  0  0  0  0  0
   11.0117   14.6702   21.2256 C   0  0  0  0  0  0  0  0  0  0  0  0
   12.5187   14.5152   21.4081 C   0  0  2  0  0  0  0  0  0  0  0  0
   12.9678   13.6020   20.5038 F   0  0  0  0  0  0  0  0  0  0  0  0
   12.9128   13.9547   23.0590 Cl  0  0  0  0  0  0  0  0  0  0  0  0
    9.8033   10.9733   23.0683 C   0  0  0  0  0  0  0  0  0  0  0  0
    9.1730    9.9224   23.6719 N   0  0  0  0  0  0  0  0  0  0  0  0
    9.4604    8.5392   23.3699 C   0  0  0  0  0  0  0  0  0  0  0  0
  1  2  1  0
  2  3  1  0
  3  4  2  0
  4  5  1  0
  5  6  2  0
  6  7  1  0
  7  8  2  0
  7  9  1  0
  9 10  1  0
 10 11  2  0
 10 12  1  0
 12 13  1  0
 13 14  1  0
 14 15  1  6
 14 16  1  0
  9 17  2  0
 17 18  1  0
 18 19  1  0
  8  3  1  0
 18  6  1  0
M  END
>  <alias>  (1410) 
None

>  <rmsd(smina/fragmenstein)>  (1410) 
0.328

>  <smiles>  (1410) 
COc1ccc2c(c1)c(C(=O)NC[C@H](F)Cl)cn2C

>  <gnina_score>  (1410) 
5.37

>  <inspiration_score>  (1410) 
None

>  <energy_score>  (1410) 
-8.156886

>  <distance_score>  (1410) 
0.897248

>  <gnina_score_min>  (1410) 
5.468

>  <inchikey>  (1410) 
SKMOVCYRVZUCHT-LBPRGKRZSA-N

>  <exports>  (1410) 
['/opt/xchem-fragalysis-2/maxwin/BulkDock/OUTPUTS/openbind_a71ev2a_c2_elabs_1LOUU54.sdf', '/opt/xchem-fragalysis-2/maxwin/BulkDock/OUTPUTS/openbind_a71ev2a_c2_elabs_1LSYIDY.sdf']

>  <name>  (1410) 
P577368

>  <ref_pdb>  (1410) 
A3066a

>  <subsites>  (1410) 
None

>  <HIPPO Pose ID>  (1410) 
577368

>  <ref_mols>  (1410) 
A3066a

>  <HIPPO Compound ID>  (1410) 
351285

>  <tags>  (1410) 
openbind_a71ev2a_c2_elabs,syndirella_product,openbind_a71ev2a_c2_elabs_fragonly_scored_top80percent,openbind_a71ev2a_c2_elabs_scored,BulkDock Fragalysis export,openbind_a71ev2a_c2_elabs_scored_top80percent,openbind_a71ev2a_c2_elabs_activefrags_only_scored_5.2plus,syndirella_placed

>  <smina_score_min>  (1410) 
-6.693

$$$$
P577369
     RDKit          3D

 19 20  0  0  0  0  0  0  0  0999 V2000
   11.1682   14.7541   19.2162 C   0  0  0  0  0  0  0  0  0  0  0  0
   11.0890   14.7719   20.5504 C   0  0  0  0  0  0  0  0  0  0  0  0
   12.6016   14.4803   21.6042 Br  0  0  0  0  0  0  0  0  0  0  0  0
    9.8296   15.0967   21.2870 C   0  0  0  0  0  0  0  0  0  0  0  0
    9.4866   13.9836   22.1176 N   0  0  0  0  0  0  0  0  0  0  0  0
    9.9417   13.6213   23.5346 C   0  0  0  0  0  0  0  0  0  0  0  0
   10.6088   14.2077   24.2860 O   0  0  0  0  0  0  0  0  0  0  0  0
    9.4587   12.2900   23.8235 C   0  0  0  0  0  0  0  0  0  0  0  0
    9.8874   11.1428   23.1878 C   0  0  0  0  0  0  0  0  0  0  0  0
    9.2087   10.0837   23.7175 N   0  0  0  0  0  0  0  0  0  0  0  0
    9.4131    8.7078   23.3225 C   0  0  0  0  0  0  0  0  0  0  0  0
    8.2989   10.5371   24.6495 C   0  0  0  0  0  0  0  0  0  0  0  0
    7.3499    9.8619   25.4165 C   0  0  0  0  0  0  0  0  0  0  0  0
    6.5511   10.6037   26.2909 C   0  0  0  0  0  0  0  0  0  0  0  0
    6.6694   11.9877   26.3889 C   0  0  0  0  0  0  0  0  0  0  0  0
    5.8050   12.5767   27.2722 O   0  0  0  0  0  0  0  0  0  0  0  0
    5.6748   13.9922   27.1781 C   0  0  0  0  0  0  0  0  0  0  0  0
    7.6244   12.6560   25.6219 C   0  0  0  0  0  0  0  0  0  0  0  0
    8.4489   11.9212   24.7431 C   0  0  0  0  0  0  0  0  0  0  0  0
  1  2  2  0
  2  3  1  0
  2  4  1  0
  4  5  1  0
  5  6  1  0
  6  7  2  0
  6  8  1  0
  8  9  2  0
  9 10  1  0
 10 11  1  0
 10 12  1  0
 12 13  2  0
 13 14  1  0
 14 15  2  0
 15 16  1  0
 16 17  1  0
 15 18  1  0
 18 19  2  0
 19  8  1  0
 19 12  1  0
M  END
>  <alias>  (1411) 
None

>  <rmsd(smina/fragmenstein)>  (1411) 
0.319

>  <smiles>  (1411) 
C=C(Br)CNC(=O)c1cn(C)c2ccc(OC)cc12

>  <gnina_score>  (1411) 
5.32

>  <inspiration_score>  (1411) 
None

>  <energy_score>  (1411) 
-0.0973

>  <distance_score>  (1411) 
1.052848

>  <gnina_score_min>  (1411) 
5.311

>  <inchikey>  (1411) 
NJFJDGHDXLOMPK-UHFFFAOYSA-N

>  <exports>  (1411) 
['/opt/xchem-fragalysis-2/maxwin/BulkDock/OUTPUTS/openbind_a71ev2a_c2_elabs_1LOUU54.sdf', '/opt/xchem-fragalysis-2/maxwin/BulkDock/OUTPUTS/openbind_a71ev2a_c2_elabs_1LSYIDY.sdf']

>  <name>  (1411) 
P577369

>  <ref_pdb>  (1411) 
A3066a

>  <subsites>  (1411) 
None

>  <HIPPO Pose ID>  (1411) 
577369

>  <ref_mols>  (1411) 
A3066a

>  <HIPPO Compound ID>  (1411) 
351292

>  <tags>  (1411) 
openbind_a71ev2a_c2_elabs,syndirella_product,openbind_a71ev2a_c2_elabs_fragonly_scored_top80percent,openbind_a71ev2a_c2_elabs_scored,BulkDock Fragalysis export,openbind_a71ev2a_c2_elabs_scored_top80percent,openbind_a71ev2a_c2_elabs_activefrags_only_scored_5.2plus,syndirella_placed

>  <smina_score_min>  (1411) 
-6.546

$$$$
P577370
     RDKit          3D

 19 20  0  0  0  0  0  0  0  0999 V2000
    5.2976   12.3228   28.3468 C   0  0  0  0  0  0  0  0  0  0  0  0
    6.1533   12.9159   27.3786 O   0  0  0  0  0  0  0  0  0  0  0  0
    6.7896   12.0721   26.5092 C   0  0  0  0  0  0  0  0  0  0  0  0
    6.5506   10.7078   26.3783 C   0  0  0  0  0  0  0  0  0  0  0  0
    7.2812    9.9302   25.4722 C   0  0  0  0  0  0  0  0  0  0  0  0
    8.2719   10.5458   24.7042 C   0  0  0  0  0  0  0  0  0  0  0  0
    8.5190   11.9180   24.8060 C   0  0  0  0  0  0  0  0  0  0  0  0
    7.7583   12.6864   25.7090 C   0  0  0  0  0  0  0  0  0  0  0  0
    9.5404   12.2253   23.8756 C   0  0  0  0  0  0  0  0  0  0  0  0
   10.1376   13.5050   23.5564 C   0  0  0  0  0  0  0  0  0  0  0  0
   10.7934   14.1003   24.3094 O   0  0  0  0  0  0  0  0  0  0  0  0
    9.8076   13.7864   22.0892 N   0  0  0  0  0  0  0  0  0  0  0  0
   10.2863   14.8041   21.2084 C   0  0  0  0  0  0  0  0  0  0  0  0
   11.7370   14.5501   20.8585 C   0  0  0  0  0  0  0  0  0  0  0  0
   12.6574   14.9567   21.9783 C   0  0  0  0  0  0  0  0  0  0  0  0
   13.8231   15.3688   21.4272 F   0  0  0  0  0  0  0  0  0  0  0  0
    9.8752   11.0527   23.2265 C   0  0  0  0  0  0  0  0  0  0  0  0
    9.1477   10.0365   23.7694 N   0  0  0  0  0  0  0  0  0  0  0  0
    9.3026    8.6495   23.3924 C   0  0  0  0  0  0  0  0  0  0  0  0
  1  2  1  0
  2  3  1  0
  3  4  2  0
  4  5  1  0
  5  6  2  0
  6  7  1  0
  7  8  2  0
  7  9  1  0
  9 10  1  0
 10 11  2  0
 10 12  1  0
 12 13  1  0
 13 14  1  0
 14 15  1  0
 15 16  1  0
  9 17  2  0
 17 18  1  0
 18 19  1  0
  8  3  1  0
 18  6  1  0
M  END
>  <alias>  (1412) 
None

>  <rmsd(smina/fragmenstein)>  (1412) 
0.28

>  <smiles>  (1412) 
COc1ccc2c(c1)c(C(=O)NCCCF)cn2C

>  <gnina_score>  (1412) 
5.192

>  <inspiration_score>  (1412) 
None

>  <energy_score>  (1412) 
-4.30805

>  <distance_score>  (1412) 
0.896543

>  <gnina_score_min>  (1412) 
5.226

>  <inchikey>  (1412) 
VQQRYWUBIIFMRH-UHFFFAOYSA-N

>  <exports>  (1412) 
['/opt/xchem-fragalysis-2/maxwin/BulkDock/OUTPUTS/openbind_a71ev2a_c2_elabs_1LOUU54.sdf', '/opt/xchem-fragalysis-2/maxwin/BulkDock/OUTPUTS/openbind_a71ev2a_c2_elabs_1LSYIDY.sdf']

>  <name>  (1412) 
P577370

>  <ref_pdb>  (1412) 
A3066a

>  <subsites>  (1412) 
None

>  <HIPPO Pose ID>  (1412) 
577370

>  <ref_mols>  (1412) 
A3066a

>  <HIPPO Compound ID>  (1412) 
351293

>  <tags>  (1412) 
openbind_a71ev2a_c2_elabs,syndirella_product,openbind_a71ev2a_c2_elabs_fragonly_scored_top80percent,openbind_a71ev2a_c2_elabs_scored,BulkDock Fragalysis export,openbind_a71ev2a_c2_elabs_scored_top80percent,openbind_a71ev2a_c2_elabs_activefrags_only_scored_5.2plus,syndirella_placed

>  <smina_score_min>  (1412) 
-6.444

$$$$
P577371
     RDKit          3D

 19 21  0  0  0  0  0  0  0  0999 V2000
    5.4392   12.4753   28.1668 C   0  0  0  0  0  0  0  0  0  0  0  0
    6.3918   13.0280   27.2682 O   0  0  0  0  0  0  0  0  0  0  0  0
    6.9918   12.1691   26.3878 C   0  0  0  0  0  0  0  0  0  0  0  0
    6.7060   10.8146   26.2461 C   0  0  0  0  0  0  0  0  0  0  0  0
    7.4144   10.0201   25.3367 C   0  0  0  0  0  0  0  0  0  0  0  0
    8.4165   10.6167   24.5638 C   0  0  0  0  0  0  0  0  0  0  0  0
    8.7262   11.9747   24.6838 C   0  0  0  0  0  0  0  0  0  0  0  0
    7.9904   12.7547   25.6000 C   0  0  0  0  0  0  0  0  0  0  0  0
    9.7937   12.2551   23.7781 C   0  0  0  0  0  0  0  0  0  0  0  0
   10.5297   13.5045   23.6052 C   0  0  0  0  0  0  0  0  0  0  0  0
   10.8118   14.1659   24.5381 O   0  0  0  0  0  0  0  0  0  0  0  0
   10.7755   13.7342   22.1400 N   0  0  0  0  0  0  0  0  0  0  0  0
   11.5426   14.8259   21.4271 C   0  0  0  0  0  0  0  0  0  0  0  0
   10.4994   14.8793   20.3441 C   0  0  0  0  0  0  0  0  0  0  0  0
   10.2239   16.0687   19.7644 F   0  0  0  0  0  0  0  0  0  0  0  0
    9.6027   14.5061   21.4820 C   0  0  0  0  0  0  0  0  0  0  0  0
   10.0244   11.0909   23.0754 C   0  0  0  0  0  0  0  0  0  0  0  0
    9.2626   10.0940   23.6112 N   0  0  0  0  0  0  0  0  0  0  0  0
    9.3571    8.7066   23.2172 C   0  0  0  0  0  0  0  0  0  0  0  0
  1  2  1  0
  2  3  1  0
  3  4  2  0
  4  5  1  0
  5  6  2  0
  6  7  1  0
  7  8  2  0
  7  9  1  0
  9 10  1  0
 10 11  2  0
 10 12  1  0
 12 13  1  0
 13 14  1  0
 14 15  1  0
 14 16  1  0
  9 17  2  0
 17 18  1  0
 18 19  1  0
  8  3  1  0
 16 12  1  0
 18  6  1  0
M  END
>  <alias>  (1413) 
None

>  <rmsd(smina/fragmenstein)>  (1413) 
0.33

>  <smiles>  (1413) 
COc1ccc2c(c1)c(C(=O)N1CC(F)C1)cn2C

>  <gnina_score>  (1413) 
5.297

>  <inspiration_score>  (1413) 
None

>  <energy_score>  (1413) 
-7.739567

>  <distance_score>  (1413) 
0.455785

>  <gnina_score_min>  (1413) 
5.258

>  <inchikey>  (1413) 
IBNPYISQANNHJJ-UHFFFAOYSA-N

>  <exports>  (1413) 
['/opt/xchem-fragalysis-2/maxwin/BulkDock/OUTPUTS/openbind_a71ev2a_c2_elabs_1LOUU54.sdf', '/opt/xchem-fragalysis-2/maxwin/BulkDock/OUTPUTS/openbind_a71ev2a_c2_elabs_1LSYIDY.sdf']

>  <name>  (1413) 
P577371

>  <ref_pdb>  (1413) 
A3066a

>  <subsites>  (1413) 
None

>  <HIPPO Pose ID>  (1413) 
577371

>  <ref_mols>  (1413) 
A3066a

>  <HIPPO Compound ID>  (1413) 
351294

>  <tags>  (1413) 
openbind_a71ev2a_c2_elabs,syndirella_product,openbind_a71ev2a_c2_elabs_fragonly_scored_top80percent,openbind_a71ev2a_c2_elabs_scored,BulkDock Fragalysis export,openbind_a71ev2a_c2_elabs_scored_top80percent,openbind_a71ev2a_c2_elabs_activefrags_only_scored_5.2plus,syndirella_placed

>  <smina_score_min>  (1413) 
-7.742

$$$$
P577372
     RDKit          3D

 19 20  0  0  0  0  0  0  0  0999 V2000
    5.3860   12.4954   28.1717 C   0  0  0  0  0  0  0  0  0  0  0  0
    6.3166   12.9960   27.2219 O   0  0  0  0  0  0  0  0  0  0  0  0
    6.9032   12.0880   26.3833 C   0  0  0  0  0  0  0  0  0  0  0  0
    6.6010   10.7336   26.3080 C   0  0  0  0  0  0  0  0  0  0  0  0
    7.2941    9.8885   25.4333 C   0  0  0  0  0  0  0  0  0  0  0  0
    8.3128   10.4225   24.6397 C   0  0  0  0  0  0  0  0  0  0  0  0
    8.6267   11.7810   24.6828 C   0  0  0  0  0  0  0  0  0  0  0  0
    7.8989   12.6182   25.5569 C   0  0  0  0  0  0  0  0  0  0  0  0
    9.6824   12.0061   23.7472 C   0  0  0  0  0  0  0  0  0  0  0  0
   10.3418   13.2744   23.4722 C   0  0  0  0  0  0  0  0  0  0  0  0
   10.3743   14.0940   24.2954 O   0  0  0  0  0  0  0  0  0  0  0  0
   10.8122   13.3109   22.0172 N   0  0  0  0  0  0  0  0  0  0  0  0
   11.3370   14.3923   21.2336 C   0  0  2  0  0  0  0  0  0  0  0  0
   12.4840   15.0274   21.9870 C   0  0  0  0  0  0  0  0  0  0  0  0
   10.1780   15.3271   20.8840 C   0  0  0  0  0  0  0  0  0  0  0  0
    9.1627   14.5896   20.3396 F   0  0  0  0  0  0  0  0  0  0  0  0
    9.9410   10.7955   23.1434 C   0  0  0  0  0  0  0  0  0  0  0  0
    9.1660    9.8424   23.7306 N   0  0  0  0  0  0  0  0  0  0  0  0
    9.2979    8.4400   23.4263 C   0  0  0  0  0  0  0  0  0  0  0  0
  1  2  1  0
  2  3  1  0
  3  4  2  0
  4  5  1  0
  5  6  2  0
  6  7  1  0
  7  8  2  0
  7  9  1  0
  9 10  1  0
 10 11  2  0
 10 12  1  0
 12 13  1  0
 13 14  1  1
 13 15  1  0
 15 16  1  0
  9 17  2  0
 17 18  1  0
 18 19  1  0
  8  3  1  0
 18  6  1  0
M  END
>  <alias>  (1414) 
None

>  <rmsd(smina/fragmenstein)>  (1414) 
0.258

>  <smiles>  (1414) 
COc1ccc2c(c1)c(C(=O)N[C@H](C)CF)cn2C

>  <gnina_score>  (1414) 
5.488

>  <inspiration_score>  (1414) 
None

>  <energy_score>  (1414) 
-10.889598

>  <distance_score>  (1414) 
0.57559

>  <gnina_score_min>  (1414) 
5.505

>  <inchikey>  (1414) 
LVTNENMIWLCVFV-SECBINFHSA-N

>  <exports>  (1414) 
['/opt/xchem-fragalysis-2/maxwin/BulkDock/OUTPUTS/openbind_a71ev2a_c2_elabs_1LOUU54.sdf', '/opt/xchem-fragalysis-2/maxwin/BulkDock/OUTPUTS/openbind_a71ev2a_c2_elabs_1LSYIDY.sdf']

>  <name>  (1414) 
P577372

>  <ref_pdb>  (1414) 
A3066a

>  <subsites>  (1414) 
None

>  <HIPPO Pose ID>  (1414) 
577372

>  <ref_mols>  (1414) 
A3066a

>  <HIPPO Compound ID>  (1414) 
351295

>  <tags>  (1414) 
openbind_a71ev2a_c2_elabs,syndirella_product,openbind_a71ev2a_c2_elabs_fragonly_scored_top80percent,BulkDock Fragalysis export,openbind_a71ev2a_c2_elabs_scored,openbind_a71ev2a_c2_elabs_scored_top80percent,openbind_a71ev2a_c2_elabs_activefrags_only_scored_5.2plus,openbind_a71ev2a_c2_elabs_activefrags_only_scored_5.5plus,syndirella_placed

>  <smina_score_min>  (1414) 
-6.929

$$$$
P577374
     RDKit          3D

 19 20  0  0  0  0  0  0  0  0999 V2000
    5.4730   13.9261   27.4480 C   0  0  0  0  0  0  0  0  0  0  0  0
    5.5520   12.5064   27.5330 O   0  0  0  0  0  0  0  0  0  0  0  0
    6.3639   11.8867   26.6235 C   0  0  0  0  0  0  0  0  0  0  0  0
    6.2352   10.5051   26.5677 C   0  0  0  0  0  0  0  0  0  0  0  0
    6.9803    9.7369   25.6698 C   0  0  0  0  0  0  0  0  0  0  0  0
    7.9209   10.3598   24.8609 C   0  0  0  0  0  0  0  0  0  0  0  0
    8.0498   11.7446   24.8903 C   0  0  0  0  0  0  0  0  0  0  0  0
    7.2689   12.5172   25.7777 C   0  0  0  0  0  0  0  0  0  0  0  0
    9.0271   12.0759   23.9349 C   0  0  0  0  0  0  0  0  0  0  0  0
    9.5644   13.3843   23.6902 C   0  0  0  0  0  0  0  0  0  0  0  0
    9.5849   14.1861   24.5271 O   0  0  0  0  0  0  0  0  0  0  0  0
   10.1291   13.4165   22.2797 N   0  0  0  0  0  0  0  0  0  0  0  0
   10.9146   14.3904   21.6283 C   0  0  0  0  0  0  0  0  0  0  0  0
   12.3449   13.9580   21.9375 C   0  0  2  0  0  0  0  0  0  0  0  0
   12.6021   13.6702   23.4190 C   0  0  0  0  0  0  0  0  0  0  0  0
   13.4002   15.2188   21.4152 Cl  0  0  0  0  0  0  0  0  0  0  0  0
    9.5202   10.9023   23.3982 C   0  0  0  0  0  0  0  0  0  0  0  0
    8.8387    9.8706   23.9602 N   0  0  0  0  0  0  0  0  0  0  0  0
    9.1559    8.4988   23.6539 C   0  0  0  0  0  0  0  0  0  0  0  0
  1  2  1  0
  2  3  1  0
  3  4  2  0
  4  5  1  0
  5  6  2  0
  6  7  1  0
  7  8  2  0
  7  9  1  0
  9 10  1  0
 10 11  2  0
 10 12  1  0
 12 13  1  0
 13 14  1  0
 14 15  1  1
 14 16  1  0
  9 17  2  0
 17 18  1  0
 18 19  1  0
  8  3  1  0
 18  6  1  0
M  END
>  <alias>  (1415) 
None

>  <rmsd(smina/fragmenstein)>  (1415) 
0.272

>  <smiles>  (1415) 
COc1ccc2c(c1)c(C(=O)NC[C@H](C)Cl)cn2C

>  <gnina_score>  (1415) 
5.245

>  <inspiration_score>  (1415) 
None

>  <energy_score>  (1415) 
-13.548621

>  <distance_score>  (1415) 
1.064249

>  <gnina_score_min>  (1415) 
5.33

>  <inchikey>  (1415) 
IEWGDIVYKFCCGA-VIFPVBQESA-N

>  <exports>  (1415) 
['/opt/xchem-fragalysis-2/maxwin/BulkDock/OUTPUTS/openbind_a71ev2a_c2_elabs_1LOUU54.sdf', '/opt/xchem-fragalysis-2/maxwin/BulkDock/OUTPUTS/openbind_a71ev2a_c2_elabs_1LSYIDY.sdf']

>  <name>  (1415) 
P577374

>  <ref_pdb>  (1415) 
A3066a

>  <subsites>  (1415) 
None

>  <HIPPO Pose ID>  (1415) 
577374

>  <ref_mols>  (1415) 
A3066a

>  <HIPPO Compound ID>  (1415) 
351296

>  <tags>  (1415) 
openbind_a71ev2a_c2_elabs,syndirella_product,openbind_a71ev2a_c2_elabs_fragonly_scored_top80percent,openbind_a71ev2a_c2_elabs_scored,BulkDock Fragalysis export,openbind_a71ev2a_c2_elabs_scored_top80percent,openbind_a71ev2a_c2_elabs_activefrags_only_scored_5.2plus,syndirella_placed

>  <smina_score_min>  (1415) 
-5.776

$$$$
P577375
     RDKit          3D

 19 20  0  0  0  0  0  0  0  0999 V2000
   10.9537    7.8500   23.4210 C   0  0  0  0  0  0  0  0  0  0  0  0
    9.8663    8.2808   23.6286 C   0  0  0  0  0  0  0  0  0  0  0  0
    8.6187    8.9640   23.7913 C   0  0  0  0  0  0  0  0  0  0  0  0
    8.8227   10.3758   24.0412 N   0  0  0  0  0  0  0  0  0  0  0  0
    9.7545   11.1641   23.4207 C   0  0  0  0  0  0  0  0  0  0  0  0
    9.7284   12.4168   24.0017 C   0  0  0  0  0  0  0  0  0  0  0  0
   10.5956   13.5454   23.6400 C   0  0  0  0  0  0  0  0  0  0  0  0
   11.0419   14.2517   24.4513 O   0  0  0  0  0  0  0  0  0  0  0  0
   10.6645   13.6187   22.1152 N   0  0  0  0  0  0  0  0  0  0  0  0
   11.2225   14.6390   21.2412 C   0  0  0  0  0  0  0  0  0  0  0  0
   10.1586   14.9984   20.1500 C   0  0  0  0  0  0  0  0  0  0  0  0
    8.9605   14.7568   20.4987 O   0  0  0  0  0  0  0  0  0  0  0  0
   10.5722   15.4076   19.0248 O   0  0  0  0  0  0  0  0  0  0  0  0
    8.6491   12.3974   24.9418 C   0  0  0  0  0  0  0  0  0  0  0  0
    8.0552   13.3743   25.7640 C   0  0  0  0  0  0  0  0  0  0  0  0
    6.9850   13.0257   26.5947 C   0  0  0  0  0  0  0  0  0  0  0  0
    6.4960   11.7249   26.6176 C   0  0  0  0  0  0  0  0  0  0  0  0
    7.0464   10.7418   25.7985 C   0  0  0  0  0  0  0  0  0  0  0  0
    8.1143   11.1061   24.9631 C   0  0  0  0  0  0  0  0  0  0  0  0
  1  2  3  0
  2  3  1  0
  3  4  1  0
  4  5  1  0
  5  6  2  0
  6  7  1  0
  7  8  2  0
  7  9  1  0
  9 10  1  0
 10 11  1  0
 11 12  2  0
 11 13  1  0
  6 14  1  0
 14 15  2  0
 15 16  1  0
 16 17  2  0
 17 18  1  0
 18 19  2  0
 19  4  1  0
 19 14  1  0
M  CHG  1  13  -1
M  END
>  <alias>  (1416) 
None

>  <rmsd(smina/fragmenstein)>  (1416) 
0.777

>  <smiles>  (1416) 
C#CCn1cc(C(=O)NCC(=O)[O-])c2ccccc21

>  <gnina_score>  (1416) 
5.229

>  <inspiration_score>  (1416) 
None

>  <energy_score>  (1416) 
-13.522385

>  <distance_score>  (1416) 
0.903224

>  <gnina_score_min>  (1416) 
5.306

>  <inchikey>  (1416) 
HKOUEOHRSSQOQM-UHFFFAOYSA-M

>  <exports>  (1416) 
['/opt/xchem-fragalysis-2/maxwin/BulkDock/OUTPUTS/openbind_a71ev2a_c2_elabs_1LOUU54.sdf', '/opt/xchem-fragalysis-2/maxwin/BulkDock/OUTPUTS/openbind_a71ev2a_c2_elabs_1LSYIDY.sdf']

>  <name>  (1416) 
P577375

>  <ref_pdb>  (1416) 
A3066a

>  <subsites>  (1416) 
None

>  <HIPPO Pose ID>  (1416) 
577375

>  <ref_mols>  (1416) 
A3066a

>  <HIPPO Compound ID>  (1416) 
351297

>  <tags>  (1416) 
openbind_a71ev2a_c2_elabs,syndirella_product,openbind_a71ev2a_c2_elabs_fragonly_scored_top80percent,openbind_a71ev2a_c2_elabs_scored,BulkDock Fragalysis export,openbind_a71ev2a_c2_elabs_scored_top80percent,openbind_a71ev2a_c2_elabs_activefrags_only_scored_5.2plus,syndirella_placed

>  <smina_score_min>  (1416) 
-6.631

$$$$
P577376
     RDKit          3D

 19 20  0  0  0  0  0  0  0  0999 V2000
    5.2032   11.7757   28.4553 C   0  0  0  0  0  0  0  0  0  0  0  0
    5.8680   12.4682   27.4051 O   0  0  0  0  0  0  0  0  0  0  0  0
    6.5755   11.7050   26.5179 C   0  0  0  0  0  0  0  0  0  0  0  0
    6.4761   10.3292   26.3763 C   0  0  0  0  0  0  0  0  0  0  0  0
    7.2724    9.6445   25.4519 C   0  0  0  0  0  0  0  0  0  0  0  0
    8.1866   10.3447   24.6737 C   0  0  0  0  0  0  0  0  0  0  0  0
    8.2666   11.7273   24.7643 C   0  0  0  0  0  0  0  0  0  0  0  0
    7.4494   12.4119   25.6920 C   0  0  0  0  0  0  0  0  0  0  0  0
    9.2138   12.1453   23.7963 C   0  0  0  0  0  0  0  0  0  0  0  0
    9.5796   13.5206   23.5569 C   0  0  0  0  0  0  0  0  0  0  0  0
    9.5421   14.2736   24.4382 O   0  0  0  0  0  0  0  0  0  0  0  0
   10.0140   13.7145   22.1087 N   0  0  0  0  0  0  0  0  0  0  0  0
   10.5843   14.8487   21.4547 C   0  0  0  0  0  0  0  0  0  0  0  0
   12.1091   14.8240   21.5630 C   0  0  0  0  0  0  0  0  0  0  0  0
   12.7387   14.0066   20.1343 Cl  0  0  0  0  0  0  0  0  0  0  0  0
   12.7165   14.0028   23.0313 Cl  0  0  0  0  0  0  0  0  0  0  0  0
    9.7349   11.0152   23.1993 C   0  0  0  0  0  0  0  0  0  0  0  0
    9.1085    9.9287   23.7394 N   0  0  0  0  0  0  0  0  0  0  0  0
    9.4052    8.5650   23.3654 C   0  0  0  0  0  0  0  0  0  0  0  0
  1  2  1  0
  2  3  1  0
  3  4  2  0
  4  5  1  0
  5  6  2  0
  6  7  1  0
  7  8  2  0
  7  9  1  0
  9 10  1  0
 10 11  2  0
 10 12  1  0
 12 13  1  0
 13 14  1  0
 14 15  1  0
 14 16  1  0
  9 17  2  0
 17 18  1  0
 18 19  1  0
  8  3  1  0
 18  6  1  0
M  END
>  <alias>  (1417) 
None

>  <rmsd(smina/fragmenstein)>  (1417) 
0.601

>  <smiles>  (1417) 
COc1ccc2c(c1)c(C(=O)NCC(Cl)Cl)cn2C

>  <gnina_score>  (1417) 
5.464

>  <inspiration_score>  (1417) 
None

>  <energy_score>  (1417) 
-5.709081

>  <distance_score>  (1417) 
1.014196

>  <gnina_score_min>  (1417) 
5.536

>  <inchikey>  (1417) 
ZHHWEWIREJGDPM-UHFFFAOYSA-N

>  <exports>  (1417) 
['/opt/xchem-fragalysis-2/maxwin/BulkDock/OUTPUTS/openbind_a71ev2a_c2_elabs_1LOUU54.sdf', '/opt/xchem-fragalysis-2/maxwin/BulkDock/OUTPUTS/openbind_a71ev2a_c2_elabs_1LSYIDY.sdf']

>  <name>  (1417) 
P577376

>  <ref_pdb>  (1417) 
A3066a

>  <subsites>  (1417) 
None

>  <HIPPO Pose ID>  (1417) 
577376

>  <ref_mols>  (1417) 
A3066a

>  <HIPPO Compound ID>  (1417) 
351298

>  <tags>  (1417) 
openbind_a71ev2a_c2_elabs,syndirella_product,openbind_a71ev2a_c2_elabs_fragonly_scored_top80percent,BulkDock Fragalysis export,openbind_a71ev2a_c2_elabs_scored,openbind_a71ev2a_c2_elabs_scored_top80percent,openbind_a71ev2a_c2_elabs_activefrags_only_scored_5.2plus,openbind_a71ev2a_c2_elabs_activefrags_only_scored_5.5plus,syndirella_placed

>  <smina_score_min>  (1417) 
-6.368

$$$$
P577379
     RDKit          3D

 19 20  0  0  0  0  0  0  0  0999 V2000
   11.5590   14.4624   18.9465 C   0  0  0  0  0  0  0  0  0  0  0  0
   11.4002   14.5559   20.1296 C   0  0  0  0  0  0  0  0  0  0  0  0
   11.3319   14.7253   21.5708 C   0  0  2  0  0  0  0  0  0  0  0  0
   12.7244   14.8372   22.1419 C   0  0  0  0  0  0  0  0  0  0  0  0
   10.6995   13.6154   22.1996 N   0  0  0  0  0  0  0  0  0  0  0  0
   10.2784   13.4052   23.6523 C   0  0  0  0  0  0  0  0  0  0  0  0
   10.4468   14.0709   24.5894 O   0  0  0  0  0  0  0  0  0  0  0  0
    9.5982   12.1296   23.7993 C   0  0  0  0  0  0  0  0  0  0  0  0
    9.9009   10.9628   23.1298 C   0  0  0  0  0  0  0  0  0  0  0  0
    9.1609    9.9519   23.6705 N   0  0  0  0  0  0  0  0  0  0  0  0
    9.3258    8.5629   23.3119 C   0  0  0  0  0  0  0  0  0  0  0  0
    8.2914   10.4600   24.6095 C   0  0  0  0  0  0  0  0  0  0  0  0
    7.3089    9.8488   25.3909 C   0  0  0  0  0  0  0  0  0  0  0  0
    6.5869   10.6248   26.3049 C   0  0  0  0  0  0  0  0  0  0  0  0
    6.8332   11.9862   26.4382 C   0  0  0  0  0  0  0  0  0  0  0  0
    6.2129   12.8289   27.3198 O   0  0  0  0  0  0  0  0  0  0  0  0
    5.3785   12.2321   28.3041 C   0  0  0  0  0  0  0  0  0  0  0  0
    7.7997   12.5940   25.6309 C   0  0  0  0  0  0  0  0  0  0  0  0
    8.5477   11.8264   24.7121 C   0  0  0  0  0  0  0  0  0  0  0  0
  1  2  3  0
  2  3  1  0
  3  4  1  1
  3  5  1  0
  5  6  1  0
  6  7  2  0
  6  8  1  0
  8  9  2  0
  9 10  1  0
 10 11  1  0
 10 12  1  0
 12 13  2  0
 13 14  1  0
 14 15  2  0
 15 16  1  0
 16 17  1  0
 15 18  1  0
 18 19  2  0
 19  8  1  0
 19 12  1  0
M  END
>  <alias>  (1418) 
None

>  <rmsd(smina/fragmenstein)>  (1418) 
0.709

>  <smiles>  (1418) 
C#C[C@H](C)NC(=O)c1cn(C)c2ccc(OC)cc12

>  <gnina_score>  (1418) 
5.282

>  <inspiration_score>  (1418) 
None

>  <energy_score>  (1418) 
-25.161813

>  <distance_score>  (1418) 
0.564641

>  <gnina_score_min>  (1418) 
5.484

>  <inchikey>  (1418) 
IZLLNWXHDBIIKK-JTQLQIEISA-N

>  <exports>  (1418) 
['/opt/xchem-fragalysis-2/maxwin/BulkDock/OUTPUTS/openbind_a71ev2a_c2_elabs_1LOUU54.sdf', '/opt/xchem-fragalysis-2/maxwin/BulkDock/OUTPUTS/openbind_a71ev2a_c2_elabs_1LSYIDY.sdf']

>  <name>  (1418) 
P577379

>  <ref_pdb>  (1418) 
A3066a

>  <subsites>  (1418) 
None

>  <HIPPO Pose ID>  (1418) 
577379

>  <ref_mols>  (1418) 
A3066a

>  <HIPPO Compound ID>  (1418) 
351305

>  <tags>  (1418) 
openbind_a71ev2a_c2_elabs,syndirella_product,openbind_a71ev2a_c2_elabs_fragonly_scored_top80percent,openbind_a71ev2a_c2_elabs_scored,BulkDock Fragalysis export,openbind_a71ev2a_c2_elabs_scored_top80percent,openbind_a71ev2a_c2_elabs_activefrags_only_scored_5.2plus,syndirella_placed

>  <smina_score_min>  (1418) 
-7.27

$$$$
P577380
     RDKit          3D

 19 20  0  0  0  0  0  0  0  0999 V2000
    5.3696   12.5095   28.1524 C   0  0  0  0  0  0  0  0  0  0  0  0
    6.3355   13.0093   27.2371 O   0  0  0  0  0  0  0  0  0  0  0  0
    6.9127   12.1069   26.3858 C   0  0  0  0  0  0  0  0  0  0  0  0
    6.6133   10.7523   26.3041 C   0  0  0  0  0  0  0  0  0  0  0  0
    7.3039    9.9137   25.4207 C   0  0  0  0  0  0  0  0  0  0  0  0
    8.3134   10.4570   24.6212 C   0  0  0  0  0  0  0  0  0  0  0  0
    8.6192   11.8167   24.6662 C   0  0  0  0  0  0  0  0  0  0  0  0
    7.8998   12.6453   25.5545 C   0  0  0  0  0  0  0  0  0  0  0  0
    9.6629   12.0524   23.7208 C   0  0  0  0  0  0  0  0  0  0  0  0
   10.3267   13.3214   23.4690 C   0  0  0  0  0  0  0  0  0  0  0  0
   10.4440   14.0853   24.3391 O   0  0  0  0  0  0  0  0  0  0  0  0
   10.7337   13.4244   21.9939 N   0  0  0  0  0  0  0  0  0  0  0  0
   11.2854   14.5233   21.2529 C   0  0  2  0  0  0  0  0  0  0  0  0
   12.5365   14.9686   21.9901 C   0  0  0  0  0  0  0  0  0  0  0  0
   10.2358   15.6355   21.1379 C   0  0  0  0  0  0  0  0  0  0  0  0
    9.4321   15.6515   19.5571 Cl  0  0  0  0  0  0  0  0  0  0  0  0
    9.9277   10.8457   23.1112 C   0  0  0  0  0  0  0  0  0  0  0  0
    9.1632    9.8840   23.7039 N   0  0  0  0  0  0  0  0  0  0  0  0
    9.2977    8.4794   23.4050 C   0  0  0  0  0  0  0  0  0  0  0  0
  1  2  1  0
  2  3  1  0
  3  4  2  0
  4  5  1  0
  5  6  2  0
  6  7  1  0
  7  8  2  0
  7  9  1  0
  9 10  1  0
 10 11  2  0
 10 12  1  0
 12 13  1  0
 13 14  1  1
 13 15  1  0
 15 16  1  0
  9 17  2  0
 17 18  1  0
 18 19  1  0
  8  3  1  0
 18  6  1  0
M  END
>  <alias>  (1419) 
None

>  <rmsd(smina/fragmenstein)>  (1419) 
0.271

>  <smiles>  (1419) 
COc1ccc2c(c1)c(C(=O)N[C@H](C)CCl)cn2C

>  <gnina_score>  (1419) 
5.594

>  <inspiration_score>  (1419) 
None

>  <energy_score>  (1419) 
-13.286584

>  <distance_score>  (1419) 
0.575013

>  <gnina_score_min>  (1419) 
5.612

>  <inchikey>  (1419) 
JFKJLCJRGFEIQO-SECBINFHSA-N

>  <exports>  (1419) 
['/opt/xchem-fragalysis-2/maxwin/BulkDock/OUTPUTS/openbind_a71ev2a_c2_elabs_1LOUU54.sdf', '/opt/xchem-fragalysis-2/maxwin/BulkDock/OUTPUTS/openbind_a71ev2a_c2_elabs_1LSYIDY.sdf']

>  <name>  (1419) 
P577380

>  <ref_pdb>  (1419) 
A3066a

>  <subsites>  (1419) 
None

>  <HIPPO Pose ID>  (1419) 
577380

>  <ref_mols>  (1419) 
A3066a

>  <HIPPO Compound ID>  (1419) 
351307

>  <tags>  (1419) 
openbind_a71ev2a_c2_elabs,syndirella_product,openbind_a71ev2a_c2_elabs_fragonly_scored_top80percent,BulkDock Fragalysis export,openbind_a71ev2a_c2_elabs_scored,openbind_a71ev2a_c2_elabs_scored_top80percent,openbind_a71ev2a_c2_elabs_activefrags_only_scored_5.2plus,openbind_a71ev2a_c2_elabs_activefrags_only_scored_5.5plus,syndirella_placed

>  <smina_score_min>  (1419) 
-6.864

$$$$
P577382
     RDKit          3D

 19 20  0  0  0  0  0  0  0  0999 V2000
    5.3542   12.9465   27.9466 C   0  0  0  0  0  0  0  0  0  0  0  0
    6.4268   13.3009   27.0847 O   0  0  0  0  0  0  0  0  0  0  0  0
    6.9539   12.3098   26.3023 C   0  0  0  0  0  0  0  0  0  0  0  0
    6.5926   10.9672   26.3307 C   0  0  0  0  0  0  0  0  0  0  0  0
    7.2274   10.0308   25.5059 C   0  0  0  0  0  0  0  0  0  0  0  0
    8.2515   10.4676   24.6588 C   0  0  0  0  0  0  0  0  0  0  0  0
    8.6239   11.8134   24.5946 C   0  0  0  0  0  0  0  0  0  0  0  0
    7.9576   12.7377   25.4270 C   0  0  0  0  0  0  0  0  0  0  0  0
    9.6742   11.9245   23.6309 C   0  0  0  0  0  0  0  0  0  0  0  0
   10.4369   13.1121   23.2665 C   0  0  0  0  0  0  0  0  0  0  0  0
   10.4526   14.0379   23.9768 O   0  0  0  0  0  0  0  0  0  0  0  0
   11.1421   12.8766   21.9141 N   0  0  0  0  0  0  0  0  0  0  0  0
   12.0885   13.6915   21.1979 C   0  0  0  0  0  0  0  0  0  0  0  0
   12.8847   14.6170   22.0510 C   0  0  1  0  0  0  0  0  0  0  0  0
   11.9884   15.7342   22.4421 C   0  0  0  0  0  0  0  0  0  0  0  0
   13.3404   13.9432   23.2201 O   0  0  0  0  0  0  0  0  0  0  0  0
    9.8800   10.6579   23.1320 C   0  0  0  0  0  0  0  0  0  0  0  0
    9.0692    9.7914   23.7884 N   0  0  0  0  0  0  0  0  0  0  0  0
    9.1754    8.3741   23.5791 C   0  0  0  0  0  0  0  0  0  0  0  0
  1  2  1  0
  2  3  1  0
  3  4  2  0
  4  5  1  0
  5  6  2  0
  6  7  1  0
  7  8  2  0
  7  9  1  0
  9 10  1  0
 10 11  2  0
 10 12  1  0
 12 13  1  0
 13 14  1  0
 14 15  1  1
 14 16  1  0
  9 17  2  0
 17 18  1  0
 18 19  1  0
  8  3  1  0
 18  6  1  0
M  END
>  <alias>  (1420) 
None

>  <rmsd(smina/fragmenstein)>  (1420) 
0.881

>  <smiles>  (1420) 
COc1ccc2c(c1)c(C(=O)NC[C@@H](C)O)cn2C

>  <gnina_score>  (1420) 
5.068

>  <inspiration_score>  (1420) 
None

>  <energy_score>  (1420) 
-8.276631

>  <distance_score>  (1420) 
0.598137

>  <gnina_score_min>  (1420) 
5.431

>  <inchikey>  (1420) 
VTIIRMWZDGEGBZ-SECBINFHSA-N

>  <exports>  (1420) 
['/opt/xchem-fragalysis-2/maxwin/BulkDock/OUTPUTS/openbind_a71ev2a_c2_elabs_1LOUU54.sdf', '/opt/xchem-fragalysis-2/maxwin/BulkDock/OUTPUTS/openbind_a71ev2a_c2_elabs_1LSYIDY.sdf']

>  <name>  (1420) 
P577382

>  <ref_pdb>  (1420) 
A3066a

>  <subsites>  (1420) 
None

>  <HIPPO Pose ID>  (1420) 
577382

>  <ref_mols>  (1420) 
A3066a

>  <HIPPO Compound ID>  (1420) 
351308

>  <tags>  (1420) 
openbind_a71ev2a_c2_elabs,syndirella_product,openbind_a71ev2a_c2_elabs_fragonly_scored_top80percent,openbind_a71ev2a_c2_elabs_scored,BulkDock Fragalysis export,openbind_a71ev2a_c2_elabs_scored_top80percent,openbind_a71ev2a_c2_elabs_activefrags_only_scored_5.2plus,syndirella_placed

>  <smina_score_min>  (1420) 
-6.402

$$$$
P577383
     RDKit          3D

 19 20  0  0  0  0  0  0  0  0999 V2000
   11.5295   14.5387   19.2977 C   0  0  0  0  0  0  0  0  0  0  0  0
   11.3714   14.6996   20.6144 C   0  0  0  0  0  0  0  0  0  0  0  0
   12.7396   14.5768   21.6609 Cl  0  0  0  0  0  0  0  0  0  0  0  0
   10.0780   15.0442   21.2699 C   0  0  0  0  0  0  0  0  0  0  0  0
    9.6931   13.9455   22.0961 N   0  0  0  0  0  0  0  0  0  0  0  0
   10.0959   13.5896   23.5289 C   0  0  0  0  0  0  0  0  0  0  0  0
   10.7459   14.1728   24.2967 O   0  0  0  0  0  0  0  0  0  0  0  0
    9.5577   12.2774   23.8192 C   0  0  0  0  0  0  0  0  0  0  0  0
    9.9312   11.1174   23.1729 C   0  0  0  0  0  0  0  0  0  0  0  0
    9.2187   10.0818   23.7037 N   0  0  0  0  0  0  0  0  0  0  0  0
    9.3713    8.7026   23.2980 C   0  0  0  0  0  0  0  0  0  0  0  0
    8.3301   10.5634   24.6417 C   0  0  0  0  0  0  0  0  0  0  0  0
    7.3592    9.9187   25.4100 C   0  0  0  0  0  0  0  0  0  0  0  0
    6.5837   10.6885   26.2816 C   0  0  0  0  0  0  0  0  0  0  0  0
    6.7474   12.0681   26.3762 C   0  0  0  0  0  0  0  0  0  0  0  0
    5.9042   12.6917   27.2571 O   0  0  0  0  0  0  0  0  0  0  0  0
    5.7687   14.1008   27.0980 C   0  0  0  0  0  0  0  0  0  0  0  0
    7.7288   12.7036   25.6130 C   0  0  0  0  0  0  0  0  0  0  0  0
    8.5309   11.9421   24.7362 C   0  0  0  0  0  0  0  0  0  0  0  0
  1  2  2  0
  2  3  1  0
  2  4  1  0
  4  5  1  0
  5  6  1  0
  6  7  2  0
  6  8  1  0
  8  9  2  0
  9 10  1  0
 10 11  1  0
 10 12  1  0
 12 13  2  0
 13 14  1  0
 14 15  2  0
 15 16  1  0
 16 17  1  0
 15 18  1  0
 18 19  2  0
 19  8  1  0
 19 12  1  0
M  END
>  <alias>  (1421) 
None

>  <rmsd(smina/fragmenstein)>  (1421) 
0.346

>  <smiles>  (1421) 
C=C(Cl)CNC(=O)c1cn(C)c2ccc(OC)cc12

>  <gnina_score>  (1421) 
5.397

>  <inspiration_score>  (1421) 
None

>  <energy_score>  (1421) 
-4.253946

>  <distance_score>  (1421) 
0.944949

>  <gnina_score_min>  (1421) 
5.444

>  <inchikey>  (1421) 
KAKNMQAAXNEHNG-UHFFFAOYSA-N

>  <exports>  (1421) 
['/opt/xchem-fragalysis-2/maxwin/BulkDock/OUTPUTS/openbind_a71ev2a_c2_elabs_1LOUU54.sdf', '/opt/xchem-fragalysis-2/maxwin/BulkDock/OUTPUTS/openbind_a71ev2a_c2_elabs_1LSYIDY.sdf']

>  <name>  (1421) 
P577383

>  <ref_pdb>  (1421) 
A3066a

>  <subsites>  (1421) 
None

>  <HIPPO Pose ID>  (1421) 
577383

>  <ref_mols>  (1421) 
A3066a

>  <HIPPO Compound ID>  (1421) 
351309

>  <tags>  (1421) 
openbind_a71ev2a_c2_elabs,syndirella_product,openbind_a71ev2a_c2_elabs_fragonly_scored_top80percent,openbind_a71ev2a_c2_elabs_scored,BulkDock Fragalysis export,openbind_a71ev2a_c2_elabs_scored_top80percent,openbind_a71ev2a_c2_elabs_activefrags_only_scored_5.2plus,syndirella_placed

>  <smina_score_min>  (1421) 
-6.664

$$$$
P577385
     RDKit          3D

 19 20  0  0  0  0  0  0  0  0999 V2000
   12.8845   14.3631   22.3070 C   0  0  0  0  0  0  0  0  0  0  0  0
   11.9534   15.1501   21.7567 C   0  0  0  0  0  0  0  0  0  0  0  0
   10.7877   14.6231   20.9832 C   0  0  2  0  0  0  0  0  0  0  0  0
    9.6798   15.6228   20.6917 C   0  0  0  0  0  0  0  0  0  0  0  0
   10.3027   13.5240   21.7543 N   0  0  0  0  0  0  0  0  0  0  0  0
    9.6719   13.4885   23.1460 C   0  0  0  0  0  0  0  0  0  0  0  0
    9.3740   14.3543   23.8598 O   0  0  0  0  0  0  0  0  0  0  0  0
    9.3534   12.1253   23.5529 C   0  0  0  0  0  0  0  0  0  0  0  0
    9.8674   10.9419   23.0655 C   0  0  0  0  0  0  0  0  0  0  0  0
    9.2319    9.9027   23.6852 N   0  0  0  0  0  0  0  0  0  0  0  0
    9.5047    8.5146   23.3911 C   0  0  0  0  0  0  0  0  0  0  0  0
    8.3130   10.3894   24.5857 C   0  0  0  0  0  0  0  0  0  0  0  0
    7.3914    9.7454   25.4093 C   0  0  0  0  0  0  0  0  0  0  0  0
    6.5794   10.5102   26.2498 C   0  0  0  0  0  0  0  0  0  0  0  0
    6.6509   11.8970   26.2534 C   0  0  0  0  0  0  0  0  0  0  0  0
    5.7843   12.5195   27.1104 O   0  0  0  0  0  0  0  0  0  0  0  0
    5.5784   13.9121   26.8898 C   0  0  0  0  0  0  0  0  0  0  0  0
    7.5603   12.5367   25.4118 C   0  0  0  0  0  0  0  0  0  0  0  0
    8.4004   11.7779   24.5602 C   0  0  0  0  0  0  0  0  0  0  0  0
  1  2  2  0
  2  3  1  0
  3  4  1  1
  3  5  1  0
  5  6  1  0
  6  7  2  0
  6  8  1  0
  8  9  2  0
  9 10  1  0
 10 11  1  0
 10 12  1  0
 12 13  2  0
 13 14  1  0
 14 15  2  0
 15 16  1  0
 16 17  1  0
 15 18  1  0
 18 19  2  0
 19  8  1  0
 19 12  1  0
M  END
>  <alias>  (1422) 
None

>  <rmsd(smina/fragmenstein)>  (1422) 
0.244

>  <smiles>  (1422) 
C=C[C@H](C)NC(=O)c1cn(C)c2ccc(OC)cc12

>  <gnina_score>  (1422) 
5.485

>  <inspiration_score>  (1422) 
None

>  <energy_score>  (1422) 
-18.415933

>  <distance_score>  (1422) 
0.965836

>  <gnina_score_min>  (1422) 
5.503

>  <inchikey>  (1422) 
KLHZBASSUUOVOY-JTQLQIEISA-N

>  <exports>  (1422) 
['/opt/xchem-fragalysis-2/maxwin/BulkDock/OUTPUTS/openbind_a71ev2a_c2_elabs_1LOUU54.sdf', '/opt/xchem-fragalysis-2/maxwin/BulkDock/OUTPUTS/openbind_a71ev2a_c2_elabs_1LSYIDY.sdf']

>  <name>  (1422) 
P577385

>  <ref_pdb>  (1422) 
A3066a

>  <subsites>  (1422) 
None

>  <HIPPO Pose ID>  (1422) 
577385

>  <ref_mols>  (1422) 
A3066a

>  <HIPPO Compound ID>  (1422) 
351310

>  <tags>  (1422) 
openbind_a71ev2a_c2_elabs,syndirella_product,openbind_a71ev2a_c2_elabs_fragonly_scored_top80percent,BulkDock Fragalysis export,openbind_a71ev2a_c2_elabs_scored,openbind_a71ev2a_c2_elabs_scored_top80percent,openbind_a71ev2a_c2_elabs_activefrags_only_scored_5.2plus,openbind_a71ev2a_c2_elabs_activefrags_only_scored_5.5plus,syndirella_placed

>  <smina_score_min>  (1422) 
-6.669

$$$$
P577386
     RDKit          3D

 19 21  0  0  0  0  0  0  0  0999 V2000
    5.7864   14.1237   26.8962 C   0  0  0  0  0  0  0  0  0  0  0  0
    5.9529   12.7397   27.1945 O   0  0  0  0  0  0  0  0  0  0  0  0
    6.7708   12.0490   26.3412 C   0  0  0  0  0  0  0  0  0  0  0  0
    6.5455   10.6786   26.2806 C   0  0  0  0  0  0  0  0  0  0  0  0
    7.2891    9.8562   25.4303 C   0  0  0  0  0  0  0  0  0  0  0  0
    8.2999   10.4308   24.6586 C   0  0  0  0  0  0  0  0  0  0  0  0
    8.5732   11.7956   24.7315 C   0  0  0  0  0  0  0  0  0  0  0  0
    7.7936   12.6149   25.5795 C   0  0  0  0  0  0  0  0  0  0  0  0
    9.6505   12.0576   23.8394 C   0  0  0  0  0  0  0  0  0  0  0  0
   10.2850   13.3431   23.6227 C   0  0  0  0  0  0  0  0  0  0  0  0
   10.4170   14.0890   24.5078 O   0  0  0  0  0  0  0  0  0  0  0  0
   10.5944   13.5072   22.1279 N   0  0  0  0  0  0  0  0  0  0  0  0
   11.2040   14.5620   21.4343 C   0  0  0  0  0  0  0  0  0  0  0  0
   12.5055   14.9883   22.0332 C   0  0  0  0  0  0  0  0  0  0  0  0
   10.2398   15.5782   20.8507 C   0  0  0  0  0  0  0  0  0  0  0  0
   11.0435   14.6992   19.9460 C   0  0  0  0  0  0  0  0  0  0  0  0
    9.9431   10.8745   23.1974 C   0  0  0  0  0  0  0  0  0  0  0  0
    9.1760    9.8895   23.7457 N   0  0  0  0  0  0  0  0  0  0  0  0
    9.3135    8.4963   23.3991 C   0  0  0  0  0  0  0  0  0  0  0  0
  1  2  1  0
  2  3  1  0
  3  4  2  0
  4  5  1  0
  5  6  2  0
  6  7  1  0
  7  8  2  0
  7  9  1  0
  9 10  1  0
 10 11  2  0
 10 12  1  0
 12 13  1  0
 13 14  1  0
 13 15  1  0
 15 16  1  0
  9 17  2  0
 17 18  1  0
 18 19  1  0
  8  3  1  0
 16 13  1  0
 18  6  1  0
M  END
>  <alias>  (1423) 
None

>  <rmsd(smina/fragmenstein)>  (1423) 
0.374

>  <smiles>  (1423) 
COc1ccc2c(c1)c(C(=O)NC1(C)CC1)cn2C

>  <gnina_score>  (1423) 
5.501

>  <inspiration_score>  (1423) 
None

>  <energy_score>  (1423) 
-8.740992

>  <distance_score>  (1423) 
0.604092

>  <gnina_score_min>  (1423) 
5.533

>  <inchikey>  (1423) 
NPGBHOLAGQWUAW-UHFFFAOYSA-N

>  <exports>  (1423) 
['/opt/xchem-fragalysis-2/maxwin/BulkDock/OUTPUTS/openbind_a71ev2a_c2_elabs_1LOUU54.sdf', '/opt/xchem-fragalysis-2/maxwin/BulkDock/OUTPUTS/openbind_a71ev2a_c2_elabs_1LSYIDY.sdf']

>  <name>  (1423) 
P577386

>  <ref_pdb>  (1423) 
A3066a

>  <subsites>  (1423) 
None

>  <HIPPO Pose ID>  (1423) 
577386

>  <ref_mols>  (1423) 
A3066a

>  <HIPPO Compound ID>  (1423) 
351315

>  <tags>  (1423) 
openbind_a71ev2a_c2_elabs,syndirella_product,openbind_a71ev2a_c2_elabs_fragonly_scored_top80percent,BulkDock Fragalysis export,openbind_a71ev2a_c2_elabs_scored,openbind_a71ev2a_c2_elabs_scored_top80percent,openbind_a71ev2a_c2_elabs_activefrags_only_scored_5.2plus,openbind_a71ev2a_c2_elabs_activefrags_only_scored_5.5plus,syndirella_placed

>  <smina_score_min>  (1423) 
-7.607

$$$$
P577388
     RDKit          3D

 19 20  0  0  0  0  0  0  0  0999 V2000
    5.3617   12.6401   28.1072 C   0  0  0  0  0  0  0  0  0  0  0  0
    6.3516   13.1041   27.1990 O   0  0  0  0  0  0  0  0  0  0  0  0
    6.9248   12.1790   26.3703 C   0  0  0  0  0  0  0  0  0  0  0  0
    6.6090   10.8267   26.3116 C   0  0  0  0  0  0  0  0  0  0  0  0
    7.2926    9.9640   25.4464 C   0  0  0  0  0  0  0  0  0  0  0  0
    8.3154   10.4825   24.6457 C   0  0  0  0  0  0  0  0  0  0  0  0
    8.6442   11.8394   24.6725 C   0  0  0  0  0  0  0  0  0  0  0  0
    7.9266   12.6912   25.5393 C   0  0  0  0  0  0  0  0  0  0  0  0
    9.7048   12.0454   23.7366 C   0  0  0  0  0  0  0  0  0  0  0  0
   10.3941   13.3004   23.4518 C   0  0  0  0  0  0  0  0  0  0  0  0
   10.4329   14.1358   24.2594 O   0  0  0  0  0  0  0  0  0  0  0  0
   10.8845   13.2981   22.0017 N   0  0  0  0  0  0  0  0  0  0  0  0
   11.4427   14.3538   21.2030 C   0  0  2  0  0  0  0  0  0  0  0  0
   12.5700   15.0136   21.9653 C   0  0  0  0  0  0  0  0  0  0  0  0
   10.3347   15.3104   20.7235 C   0  0  0  0  0  0  0  0  0  0  0  0
    9.0655   14.6539   20.6206 O   0  0  0  0  0  0  0  0  0  0  0  0
    9.9481   10.8227   23.1474 C   0  0  0  0  0  0  0  0  0  0  0  0
    9.1654    9.8827   23.7472 N   0  0  0  0  0  0  0  0  0  0  0  0
    9.2930    8.4730   23.4731 C   0  0  0  0  0  0  0  0  0  0  0  0
  1  2  1  0
  2  3  1  0
  3  4  2  0
  4  5  1  0
  5  6  2  0
  6  7  1  0
  7  8  2  0
  7  9  1  0
  9 10  1  0
 10 11  2  0
 10 12  1  0
 12 13  1  0
 13 14  1  1
 13 15  1  0
 15 16  1  0
  9 17  2  0
 17 18  1  0
 18 19  1  0
  8  3  1  0
 18  6  1  0
M  END
>  <alias>  (1424) 
None

>  <rmsd(smina/fragmenstein)>  (1424) 
0.247

>  <smiles>  (1424) 
COc1ccc2c(c1)c(C(=O)N[C@H](C)CO)cn2C

>  <gnina_score>  (1424) 
5.336

>  <inspiration_score>  (1424) 
None

>  <energy_score>  (1424) 
-7.681765

>  <distance_score>  (1424) 
0.549634

>  <gnina_score_min>  (1424) 
5.343

>  <inchikey>  (1424) 
QTQQEYUINIKZFD-SECBINFHSA-N

>  <exports>  (1424) 
['/opt/xchem-fragalysis-2/maxwin/BulkDock/OUTPUTS/openbind_a71ev2a_c2_elabs_1LOUU54.sdf', '/opt/xchem-fragalysis-2/maxwin/BulkDock/OUTPUTS/openbind_a71ev2a_c2_elabs_1LSYIDY.sdf']

>  <name>  (1424) 
P577388

>  <ref_pdb>  (1424) 
A3066a

>  <subsites>  (1424) 
None

>  <HIPPO Pose ID>  (1424) 
577388

>  <ref_mols>  (1424) 
A3066a

>  <HIPPO Compound ID>  (1424) 
351316

>  <tags>  (1424) 
openbind_a71ev2a_c2_elabs,syndirella_product,openbind_a71ev2a_c2_elabs_fragonly_scored_top80percent,openbind_a71ev2a_c2_elabs_scored,BulkDock Fragalysis export,openbind_a71ev2a_c2_elabs_scored_top80percent,openbind_a71ev2a_c2_elabs_activefrags_only_scored_5.2plus,syndirella_placed

>  <smina_score_min>  (1424) 
-6.893

$$$$
P577389
     RDKit          3D

 19 20  0  0  0  0  0  0  0  0999 V2000
    7.7657   14.9114   21.8938 C   0  0  0  0  0  0  0  0  0  0  0  0
    8.8041   15.1176   21.3249 C   0  0  0  0  0  0  0  0  0  0  0  0
   10.1112   15.3458   20.6684 C   0  0  0  0  0  0  0  0  0  0  0  0
   11.2914   14.7243   21.4438 C   0  0  0  0  0  0  0  0  0  0  0  0
   10.8247   13.5649   22.1473 N   0  0  0  0  0  0  0  0  0  0  0  0
   10.4924   13.3665   23.6290 C   0  0  0  0  0  0  0  0  0  0  0  0
   10.6165   14.0883   24.5335 O   0  0  0  0  0  0  0  0  0  0  0  0
    9.8380   12.0760   23.8213 C   0  0  0  0  0  0  0  0  0  0  0  0
   10.0593   10.9077   23.1270 C   0  0  0  0  0  0  0  0  0  0  0  0
    9.2731    9.9268   23.6576 N   0  0  0  0  0  0  0  0  0  0  0  0
    9.3496    8.5420   23.2586 C   0  0  0  0  0  0  0  0  0  0  0  0
    8.4196   10.4641   24.5932 C   0  0  0  0  0  0  0  0  0  0  0  0
    7.3881    9.8949   25.3460 C   0  0  0  0  0  0  0  0  0  0  0  0
    6.6732   10.7052   26.2362 C   0  0  0  0  0  0  0  0  0  0  0  0
    6.9715   12.0565   26.3691 C   0  0  0  0  0  0  0  0  0  0  0  0
    6.3612   12.9317   27.2254 O   0  0  0  0  0  0  0  0  0  0  0  0
    5.4590   12.3848   28.1772 C   0  0  0  0  0  0  0  0  0  0  0  0
    7.9899   12.6187   25.5918 C   0  0  0  0  0  0  0  0  0  0  0  0
    8.7460   11.8151   24.7100 C   0  0  0  0  0  0  0  0  0  0  0  0
  1  2  3  0
  2  3  1  0
  3  4  1  0
  4  5  1  0
  5  6  1  0
  6  7  2  0
  6  8  1  0
  8  9  2  0
  9 10  1  0
 10 11  1  0
 10 12  1  0
 12 13  2  0
 13 14  1  0
 14 15  2  0
 15 16  1  0
 16 17  1  0
 15 18  1  0
 18 19  2  0
 19  8  1  0
 19 12  1  0
M  END
>  <alias>  (1425) 
None

>  <rmsd(smina/fragmenstein)>  (1425) 
0.493

>  <smiles>  (1425) 
C#CCCNC(=O)c1cn(C)c2ccc(OC)cc12

>  <gnina_score>  (1425) 
5.438

>  <inspiration_score>  (1425) 
None

>  <energy_score>  (1425) 
-3.966448

>  <distance_score>  (1425) 
0.478965

>  <gnina_score_min>  (1425) 
5.446

>  <inchikey>  (1425) 
PAIIIFFFCNJBHC-UHFFFAOYSA-N

>  <exports>  (1425) 
['/opt/xchem-fragalysis-2/maxwin/BulkDock/OUTPUTS/openbind_a71ev2a_c2_elabs_1LOUU54.sdf', '/opt/xchem-fragalysis-2/maxwin/BulkDock/OUTPUTS/openbind_a71ev2a_c2_elabs_1LSYIDY.sdf']

>  <name>  (1425) 
P577389

>  <ref_pdb>  (1425) 
A3066a

>  <subsites>  (1425) 
None

>  <HIPPO Pose ID>  (1425) 
577389

>  <ref_mols>  (1425) 
A3066a

>  <HIPPO Compound ID>  (1425) 
351317

>  <tags>  (1425) 
openbind_a71ev2a_c2_elabs,syndirella_product,openbind_a71ev2a_c2_elabs_fragonly_scored_top80percent,openbind_a71ev2a_c2_elabs_scored,BulkDock Fragalysis export,openbind_a71ev2a_c2_elabs_scored_top80percent,openbind_a71ev2a_c2_elabs_activefrags_only_scored_5.2plus,syndirella_placed

>  <smina_score_min>  (1425) 
-6.683

$$$$
P577390
     RDKit          3D

 19 20  0  0  0  0  0  0  0  0999 V2000
    5.4584   12.4516   28.1314 C   0  0  0  0  0  0  0  0  0  0  0  0
    6.3490   12.9703   27.1526 O   0  0  0  0  0  0  0  0  0  0  0  0
    6.9430   12.0716   26.3097 C   0  0  0  0  0  0  0  0  0  0  0  0
    6.6717   10.7106   26.2448 C   0  0  0  0  0  0  0  0  0  0  0  0
    7.3778    9.8781   25.3680 C   0  0  0  0  0  0  0  0  0  0  0  0
    8.3701   10.4339   24.5547 C   0  0  0  0  0  0  0  0  0  0  0  0
    8.6463   11.7998   24.5803 C   0  0  0  0  0  0  0  0  0  0  0  0
    7.9130   12.6214   25.4652 C   0  0  0  0  0  0  0  0  0  0  0  0
    9.6829   12.0480   23.6248 C   0  0  0  0  0  0  0  0  0  0  0  0
   10.3185   13.3339   23.3696 C   0  0  0  0  0  0  0  0  0  0  0  0
   10.3533   14.1113   24.2362 O   0  0  0  0  0  0  0  0  0  0  0  0
   10.7579   13.4580   21.9006 N   0  0  0  0  0  0  0  0  0  0  0  0
   11.2471   14.5989   21.1601 C   0  0  0  0  0  0  0  0  0  0  0  0
   12.4001   15.1519   21.9889 C   0  0  0  0  0  0  0  0  0  0  0  0
   11.7703   14.2454   19.7685 C   0  0  0  0  0  0  0  0  0  0  0  0
   10.0564   15.5508   20.9884 C   0  0  0  0  0  0  0  0  0  0  0  0
    9.9636   10.8411   23.0253 C   0  0  0  0  0  0  0  0  0  0  0  0
    9.2309    9.8686   23.6426 N   0  0  0  0  0  0  0  0  0  0  0  0
    9.4041    8.4614   23.3769 C   0  0  0  0  0  0  0  0  0  0  0  0
  1  2  1  0
  2  3  1  0
  3  4  2  0
  4  5  1  0
  5  6  2  0
  6  7  1  0
  7  8  2  0
  7  9  1  0
  9 10  1  0
 10 11  2  0
 10 12  1  0
 12 13  1  0
 13 14  1  0
 13 15  1  0
 13 16  1  0
  9 17  2  0
 17 18  1  0
 18 19  1  0
  8  3  1  0
 18  6  1  0
M  END
>  <alias>  (1426) 
None

>  <rmsd(smina/fragmenstein)>  (1426) 
0.477

>  <smiles>  (1426) 
COc1ccc2c(c1)c(C(=O)NC(C)(C)C)cn2C

>  <gnina_score>  (1426) 
5.505

>  <inspiration_score>  (1426) 
None

>  <energy_score>  (1426) 
-15.156254

>  <distance_score>  (1426) 
0.585873

>  <gnina_score_min>  (1426) 
5.533

>  <inchikey>  (1426) 
CMKJBURBUHUUBX-UHFFFAOYSA-N

>  <exports>  (1426) 
['/opt/xchem-fragalysis-2/maxwin/BulkDock/OUTPUTS/openbind_a71ev2a_c2_elabs_1LOUU54.sdf', '/opt/xchem-fragalysis-2/maxwin/BulkDock/OUTPUTS/openbind_a71ev2a_c2_elabs_1LSYIDY.sdf']

>  <name>  (1426) 
P577390

>  <ref_pdb>  (1426) 
A3066a

>  <subsites>  (1426) 
None

>  <HIPPO Pose ID>  (1426) 
577390

>  <ref_mols>  (1426) 
A3066a

>  <HIPPO Compound ID>  (1426) 
351319

>  <tags>  (1426) 
openbind_a71ev2a_c2_elabs,syndirella_product,openbind_a71ev2a_c2_elabs_fragonly_scored_top80percent,BulkDock Fragalysis export,openbind_a71ev2a_c2_elabs_scored,openbind_a71ev2a_c2_elabs_scored_top80percent,openbind_a71ev2a_c2_elabs_activefrags_only_scored_5.2plus,openbind_a71ev2a_c2_elabs_activefrags_only_scored_5.5plus,syndirella_placed

>  <smina_score_min>  (1426) 
-6.81

$$$$
P577391
     RDKit          3D

 19 20  0  0  0  0  0  0  0  0999 V2000
    5.3198   12.1571   28.3002 C   0  0  0  0  0  0  0  0  0  0  0  0
    6.0249   12.7556   27.2198 O   0  0  0  0  0  0  0  0  0  0  0  0
    6.6988   11.9147   26.3779 C   0  0  0  0  0  0  0  0  0  0  0  0
    6.5655   10.5346   26.3333 C   0  0  0  0  0  0  0  0  0  0  0  0
    7.3343    9.7693   25.4502 C   0  0  0  0  0  0  0  0  0  0  0  0
    8.2576   10.4017   24.6181 C   0  0  0  0  0  0  0  0  0  0  0  0
    8.3663   11.7893   24.5979 C   0  0  0  0  0  0  0  0  0  0  0  0
    7.5739   12.5467   25.4910 C   0  0  0  0  0  0  0  0  0  0  0  0
    9.3004   12.1269   23.5712 C   0  0  0  0  0  0  0  0  0  0  0  0
    9.6633   13.4840   23.1791 C   0  0  0  0  0  0  0  0  0  0  0  0
    9.4208   14.3551   23.9053 O   0  0  0  0  0  0  0  0  0  0  0  0
   10.3608   13.4930   21.8183 N   0  0  0  0  0  0  0  0  0  0  0  0
   10.9906   14.5575   21.1058 C   0  0  0  0  0  0  0  0  0  0  0  0
   12.4894   14.3922   21.2584 C   0  0  0  0  0  0  0  0  0  0  0  0
   12.8981   14.4327   22.7199 C   0  0  0  0  0  0  0  0  0  0  0  0
   12.8345   13.1594   23.3561 O   0  0  0  0  0  0  0  0  0  0  0  0
    9.7996   10.9364   23.0798 C   0  0  0  0  0  0  0  0  0  0  0  0
    9.1675    9.9047   23.7152 N   0  0  0  0  0  0  0  0  0  0  0  0
    9.4631    8.5153   23.4528 C   0  0  0  0  0  0  0  0  0  0  0  0
  1  2  1  0
  2  3  1  0
  3  4  2  0
  4  5  1  0
  5  6  2  0
  6  7  1  0
  7  8  2  0
  7  9  1  0
  9 10  1  0
 10 11  2  0
 10 12  1  0
 12 13  1  0
 13 14  1  0
 14 15  1  0
 15 16  1  0
  9 17  2  0
 17 18  1  0
 18 19  1  0
  8  3  1  0
 18  6  1  0
M  END
>  <alias>  (1427) 
None

>  <rmsd(smina/fragmenstein)>  (1427) 
0.571

>  <smiles>  (1427) 
COc1ccc2c(c1)c(C(=O)NCCCO)cn2C

>  <gnina_score>  (1427) 
5.264

>  <inspiration_score>  (1427) 
None

>  <energy_score>  (1427) 
-4.367372

>  <distance_score>  (1427) 
0.927381

>  <gnina_score_min>  (1427) 
5.245

>  <inchikey>  (1427) 
ODVUUZUSBZVZGW-UHFFFAOYSA-N

>  <exports>  (1427) 
['/opt/xchem-fragalysis-2/maxwin/BulkDock/OUTPUTS/openbind_a71ev2a_c2_elabs_1LOUU54.sdf', '/opt/xchem-fragalysis-2/maxwin/BulkDock/OUTPUTS/openbind_a71ev2a_c2_elabs_1LSYIDY.sdf']

>  <name>  (1427) 
P577391

>  <ref_pdb>  (1427) 
A3066a

>  <subsites>  (1427) 
None

>  <HIPPO Pose ID>  (1427) 
577391

>  <ref_mols>  (1427) 
A3066a

>  <HIPPO Compound ID>  (1427) 
351320

>  <tags>  (1427) 
openbind_a71ev2a_c2_elabs,syndirella_product,openbind_a71ev2a_c2_elabs_fragonly_scored_top80percent,openbind_a71ev2a_c2_elabs_scored,BulkDock Fragalysis export,openbind_a71ev2a_c2_elabs_scored_top80percent,openbind_a71ev2a_c2_elabs_activefrags_only_scored_5.2plus,syndirella_placed

>  <smina_score_min>  (1427) 
-6.458

$$$$
P577392
     RDKit          3D

 19 21  0  0  0  0  0  0  0  0999 V2000
   11.4049   14.6566   23.6949 O   0  0  0  0  0  0  0  0  0  0  0  0
   10.5736   14.1065   23.0955 C   0  0  0  0  0  0  0  0  0  0  0  0
   10.0211   14.3703   21.6909 N   0  0  0  0  0  0  0  0  0  0  0  0
   10.4344   15.3010   20.6918 C   0  0  0  0  0  0  0  0  0  0  0  0
   11.4090   14.6607   19.6916 C   0  0  0  0  0  0  0  0  0  0  0  0
   12.5757   13.9825   20.2618 N   0  0  0  0  0  0  0  0  0  0  0  0
   13.2002   14.9086   21.1892 O   0  0  0  0  0  0  0  0  0  0  0  0
    9.8887   12.9410   23.5870 C   0  0  0  0  0  0  0  0  0  0  0  0
   10.1093   11.6790   23.0620 C   0  0  0  0  0  0  0  0  0  0  0  0
    9.2207   10.8483   23.6416 N   0  0  0  0  0  0  0  0  0  0  0  0
    8.4441   11.5348   24.5403 C   0  0  0  0  0  0  0  0  0  0  0  0
    7.4413   11.0099   25.3517 C   0  0  0  0  0  0  0  0  0  0  0  0
    6.7592   11.8924   26.1837 C   0  0  0  0  0  0  0  0  0  0  0  0
    7.1043   13.2407   26.1992 C   0  0  0  0  0  0  0  0  0  0  0  0
    8.1414   13.7349   25.3894 C   0  0  0  0  0  0  0  0  0  0  0  0
    8.8389   12.8551   24.5429 C   0  0  0  0  0  0  0  0  0  0  0  0
    7.1802    9.5506   25.2899 C   0  0  0  0  0  0  0  0  0  0  0  0
    8.4144    8.8620   24.6955 C   0  0  0  0  0  0  0  0  0  0  0  0
    9.1022    9.4206   23.4778 C   0  0  0  0  0  0  0  0  0  0  0  0
  1  2  2  0
  2  3  1  0
  3  4  1  0
  4  5  1  0
  5  6  1  0
  6  7  1  0
  2  8  1  0
  8  9  2  0
  9 10  1  0
 10 11  1  0
 11 12  2  0
 12 13  1  0
 13 14  2  0
 14 15  1  0
 15 16  2  0
 12 17  1  0
 17 18  1  0
 18 19  1  0
 16  8  1  0
 19 10  1  0
 16 11  1  0
M  END
>  <alias>  (1428) 
None

>  <rmsd(smina/fragmenstein)>  (1428) 
0.363

>  <smiles>  (1428) 
O=C(NCCNO)c1cn2c3c(cccc13)CCC2

>  <gnina_score>  (1428) 
5.452

>  <inspiration_score>  (1428) 
None

>  <energy_score>  (1428) 
-3.472086

>  <distance_score>  (1428) 
1.253413

>  <gnina_score_min>  (1428) 
5.346

>  <inchikey>  (1428) 
PTCNMXRINLVWPL-UHFFFAOYSA-N

>  <exports>  (1428) 
['/opt/xchem-fragalysis-2/maxwin/BulkDock/OUTPUTS/openbind_a71ev2a_c2_elabs_1LOUU54.sdf', '/opt/xchem-fragalysis-2/maxwin/BulkDock/OUTPUTS/openbind_a71ev2a_c2_elabs_1LSYIDY.sdf']

>  <name>  (1428) 
P577392

>  <ref_pdb>  (1428) 
A3066a

>  <subsites>  (1428) 
None

>  <HIPPO Pose ID>  (1428) 
577392

>  <ref_mols>  (1428) 
A3066a

>  <HIPPO Compound ID>  (1428) 
351325

>  <tags>  (1428) 
openbind_a71ev2a_c2_elabs,syndirella_product,openbind_a71ev2a_c2_elabs_fragonly_scored_top80percent,openbind_a71ev2a_c2_elabs_scored,BulkDock Fragalysis export,openbind_a71ev2a_c2_elabs_scored_top80percent,openbind_a71ev2a_c2_elabs_activefrags_only_scored_5.2plus,syndirella_placed

>  <smina_score_min>  (1428) 
-5.581

$$$$
P577393
     RDKit          3D

 19 21  0  0  0  0  0  0  0  0999 V2000
   11.4329   14.7158   24.1496 O   0  0  0  0  0  0  0  0  0  0  0  0
   10.7942   14.1270   23.3780 C   0  0  0  0  0  0  0  0  0  0  0  0
   10.4660   14.4386   21.9208 N   0  0  0  0  0  0  0  0  0  0  0  0
   10.9170   15.4676   21.0871 C   0  0  0  0  0  0  0  0  0  0  0  0
    9.8048   16.3093   20.6787 C   0  0  0  0  0  0  0  0  0  0  0  0
    8.9890   17.1363   20.3860 C   0  0  0  0  0  0  0  0  0  0  0  0
    7.8769   18.6006   19.9224 Br  0  0  0  0  0  0  0  0  0  0  0  0
   10.2197   12.8454   23.6282 C   0  0  0  0  0  0  0  0  0  0  0  0
   10.6524   11.7669   22.8823 C   0  0  0  0  0  0  0  0  0  0  0  0
    9.9002   10.7138   23.2105 N   0  0  0  0  0  0  0  0  0  0  0  0
    9.0145   11.0890   24.1869 C   0  0  0  0  0  0  0  0  0  0  0  0
    8.1402   10.2389   24.8248 C   0  0  0  0  0  0  0  0  0  0  0  0
    7.2258   10.8138   25.7050 C   0  0  0  0  0  0  0  0  0  0  0  0
    7.2626   12.1914   25.9499 C   0  0  0  0  0  0  0  0  0  0  0  0
    8.2233   13.0186   25.3354 C   0  0  0  0  0  0  0  0  0  0  0  0
    9.1382   12.4365   24.4411 C   0  0  0  0  0  0  0  0  0  0  0  0
    8.2532    8.8180   24.4215 C   0  0  0  0  0  0  0  0  0  0  0  0
    9.6207    8.4312   23.8507 C   0  0  0  0  0  0  0  0  0  0  0  0
    9.9846    9.3545   22.7291 C   0  0  0  0  0  0  0  0  0  0  0  0
  1  2  2  0
  2  3  1  0
  3  4  1  0
  4  5  1  0
  5  6  3  0
  6  7  1  0
  2  8  1  0
  8  9  2  0
  9 10  1  0
 10 11  1  0
 11 12  2  0
 12 13  1  0
 13 14  2  0
 14 15  1  0
 15 16  2  0
 12 17  1  0
 17 18  1  0
 18 19  1  0
 16  8  1  0
 19 10  1  0
 16 11  1  0
M  END
>  <alias>  (1429) 
None

>  <rmsd(smina/fragmenstein)>  (1429) 
0.672

>  <smiles>  (1429) 
O=C(NCC#CBr)c1cn2c3c(cccc13)CCC2

>  <gnina_score>  (1429) 
5.447

>  <inspiration_score>  (1429) 
None

>  <energy_score>  (1429) 
-0.139419

>  <distance_score>  (1429) 
0.98154

>  <gnina_score_min>  (1429) 
5.433

>  <inchikey>  (1429) 
OTOAJCDSFZEXQE-UHFFFAOYSA-N

>  <exports>  (1429) 
['/opt/xchem-fragalysis-2/maxwin/BulkDock/OUTPUTS/openbind_a71ev2a_c2_elabs_1LOUU54.sdf', '/opt/xchem-fragalysis-2/maxwin/BulkDock/OUTPUTS/openbind_a71ev2a_c2_elabs_1LSYIDY.sdf']

>  <name>  (1429) 
P577393

>  <ref_pdb>  (1429) 
A3066a

>  <subsites>  (1429) 
None

>  <HIPPO Pose ID>  (1429) 
577393

>  <ref_mols>  (1429) 
A3066a

>  <HIPPO Compound ID>  (1429) 
351326

>  <tags>  (1429) 
openbind_a71ev2a_c2_elabs,syndirella_product,openbind_a71ev2a_c2_elabs_fragonly_scored_top80percent,openbind_a71ev2a_c2_elabs_scored,BulkDock Fragalysis export,openbind_a71ev2a_c2_elabs_scored_top80percent,openbind_a71ev2a_c2_elabs_activefrags_only_scored_5.2plus,syndirella_placed

>  <smina_score_min>  (1429) 
-5.627

$$$$
P577394
     RDKit          3D

 19 21  0  0  0  0  0  0  0  0999 V2000
   12.5516   14.2078   20.4987 C   0  0  0  0  0  0  0  0  0  0  0  0
   11.2437   14.7484   19.9403 C   0  0  0  0  0  0  0  0  0  0  0  0
   10.5140   15.4671   20.9967 N   0  0  0  0  0  0  0  0  0  0  0  0
    9.3835   16.1966   20.4378 C   0  0  0  0  0  0  0  0  0  0  0  0
   10.0894   14.5428   21.9188 N   0  0  0  0  0  0  0  0  0  0  0  0
   10.6443   14.1923   23.3149 C   0  0  0  0  0  0  0  0  0  0  0  0
   11.5019   14.6857   23.9344 O   0  0  0  0  0  0  0  0  0  0  0  0
    9.9361   13.0133   23.7371 C   0  0  0  0  0  0  0  0  0  0  0  0
   10.1580   11.7777   23.1513 C   0  0  0  0  0  0  0  0  0  0  0  0
    9.2698   10.9187   23.6888 N   0  0  0  0  0  0  0  0  0  0  0  0
    8.4757   11.5668   24.5996 C   0  0  0  0  0  0  0  0  0  0  0  0
    7.4647   11.0076   25.3746 C   0  0  0  0  0  0  0  0  0  0  0  0
    6.7567   11.8588   26.2183 C   0  0  0  0  0  0  0  0  0  0  0  0
    7.0856   13.2101   26.2811 C   0  0  0  0  0  0  0  0  0  0  0  0
    8.1353   13.7390   25.5111 C   0  0  0  0  0  0  0  0  0  0  0  0
    8.8591   12.8901   24.6554 C   0  0  0  0  0  0  0  0  0  0  0  0
    7.2161    9.5504   25.2614 C   0  0  0  0  0  0  0  0  0  0  0  0
    8.4450    8.8763   24.6377 C   0  0  0  0  0  0  0  0  0  0  0  0
    9.1650    9.4981   23.4677 C   0  0  0  0  0  0  0  0  0  0  0  0
  1  2  1  0
  2  3  1  0
  3  4  1  0
  3  5  1  0
  5  6  1  0
  6  7  2  0
  6  8  1  0
  8  9  2  0
  9 10  1  0
 10 11  1  0
 11 12  2  0
 12 13  1  0
 13 14  2  0
 14 15  1  0
 15 16  2  0
 12 17  1  0
 17 18  1  0
 18 19  1  0
 16  8  1  0
 19 10  1  0
 16 11  1  0
M  END
>  <alias>  (1430) 
None

>  <rmsd(smina/fragmenstein)>  (1430) 
0.657

>  <smiles>  (1430) 
CCN(C)NC(=O)c1cn2c3c(cccc13)CCC2

>  <gnina_score>  (1430) 
5.602

>  <inspiration_score>  (1430) 
None

>  <energy_score>  (1430) 
-2.344044

>  <distance_score>  (1430) 
1.23581

>  <gnina_score_min>  (1430) 
5.547

>  <inchikey>  (1430) 
WZRSXGUALJJYPL-UHFFFAOYSA-N

>  <exports>  (1430) 
['/opt/xchem-fragalysis-2/maxwin/BulkDock/OUTPUTS/openbind_a71ev2a_c2_elabs_1LOUU54.sdf', '/opt/xchem-fragalysis-2/maxwin/BulkDock/OUTPUTS/openbind_a71ev2a_c2_elabs_1LSYIDY.sdf']

>  <name>  (1430) 
P577394

>  <ref_pdb>  (1430) 
A3066a

>  <subsites>  (1430) 
None

>  <HIPPO Pose ID>  (1430) 
577394

>  <ref_mols>  (1430) 
A3066a

>  <HIPPO Compound ID>  (1430) 
351332

>  <tags>  (1430) 
openbind_a71ev2a_c2_elabs,syndirella_product,openbind_a71ev2a_c2_elabs_fragonly_scored_top80percent,BulkDock Fragalysis export,openbind_a71ev2a_c2_elabs_scored,openbind_a71ev2a_c2_elabs_scored_top80percent,openbind_a71ev2a_c2_elabs_activefrags_only_scored_5.2plus,openbind_a71ev2a_c2_elabs_activefrags_only_scored_5.5plus,syndirella_placed

>  <smina_score_min>  (1430) 
-5.728

$$$$
P577395
     RDKit          3D

 19 20  0  0  0  0  0  0  0  0999 V2000
    5.1426   12.0056   28.5074 C   0  0  0  0  0  0  0  0  0  0  0  0
    5.9005   12.6694   27.5027 O   0  0  0  0  0  0  0  0  0  0  0  0
    6.5788   11.8795   26.6156 C   0  0  0  0  0  0  0  0  0  0  0  0
    6.4370   10.5038   26.4808 C   0  0  0  0  0  0  0  0  0  0  0  0
    7.2009    9.7873   25.5527 C   0  0  0  0  0  0  0  0  0  0  0  0
    8.1317   10.4654   24.7705 C   0  0  0  0  0  0  0  0  0  0  0  0
    8.2548   11.8503   24.8583 C   0  0  0  0  0  0  0  0  0  0  0  0
    7.4698   12.5630   25.7859 C   0  0  0  0  0  0  0  0  0  0  0  0
    9.1836   12.2377   23.8707 C   0  0  0  0  0  0  0  0  0  0  0  0
    9.5569   13.5853   23.5243 C   0  0  0  0  0  0  0  0  0  0  0  0
   10.2536   14.2185   24.2081 O   0  0  0  0  0  0  0  0  0  0  0  0
    8.9657   13.8983   22.1419 N   0  0  0  0  0  0  0  0  0  0  0  0
    9.1823   15.0185   21.2637 C   0  0  0  0  0  0  0  0  0  0  0  0
   10.5224   14.9780   20.5388 C   0  0  0  0  0  0  0  0  0  0  0  0
   11.9479   15.1324   21.6727 S   0  0  0  0  0  0  0  0  0  0  0  0
   12.3741   13.4082   21.8411 C   0  0  0  0  0  0  0  0  0  0  0  0
    9.6554   11.0949   23.2565 C   0  0  0  0  0  0  0  0  0  0  0  0
    9.0345   10.0225   23.8284 N   0  0  0  0  0  0  0  0  0  0  0  0
    9.3069    8.6510   23.4605 C   0  0  0  0  0  0  0  0  0  0  0  0
  1  2  1  0
  2  3  1  0
  3  4  2  0
  4  5  1  0
  5  6  2  0
  6  7  1  0
  7  8  2  0
  7  9  1  0
  9 10  1  0
 10 11  2  0
 10 12  1  0
 12 13  1  0
 13 14  1  0
 14 15  1  0
 15 16  1  0
  9 17  2  0
 17 18  1  0
 18 19  1  0
  8  3  1  0
 18  6  1  0
M  END
>  <alias>  (1431) 
None

>  <rmsd(smina/fragmenstein)>  (1431) 
0.328

>  <smiles>  (1431) 
COc1ccc2c(c1)c(C(=O)NCCSC)cn2C

>  <gnina_score>  (1431) 
5.351

>  <inspiration_score>  (1431) 
None

>  <energy_score>  (1431) 
-4.068099

>  <distance_score>  (1431) 
1.341102

>  <gnina_score_min>  (1431) 
5.44

>  <inchikey>  (1431) 
NFWIIQWEUAOIJA-UHFFFAOYSA-N

>  <exports>  (1431) 
['/opt/xchem-fragalysis-2/maxwin/BulkDock/OUTPUTS/openbind_a71ev2a_c2_elabs_1LOUU54.sdf', '/opt/xchem-fragalysis-2/maxwin/BulkDock/OUTPUTS/openbind_a71ev2a_c2_elabs_1LSYIDY.sdf']

>  <name>  (1431) 
P577395

>  <ref_pdb>  (1431) 
A3066a

>  <subsites>  (1431) 
None

>  <HIPPO Pose ID>  (1431) 
577395

>  <ref_mols>  (1431) 
A3066a

>  <HIPPO Compound ID>  (1431) 
351336

>  <tags>  (1431) 
openbind_a71ev2a_c2_elabs,syndirella_product,openbind_a71ev2a_c2_elabs_fragonly_scored_top80percent,openbind_a71ev2a_c2_elabs_scored,BulkDock Fragalysis export,openbind_a71ev2a_c2_elabs_scored_top80percent,openbind_a71ev2a_c2_elabs_activefrags_only_scored_5.2plus,syndirella_placed

>  <smina_score_min>  (1431) 
-5.368

$$$$
P577396
     RDKit          3D

 19 21  0  0  0  0  0  0  0  0999 V2000
    5.3867   12.6469   28.0790 C   0  0  0  0  0  0  0  0  0  0  0  0
    6.4283   13.1024   27.2267 O   0  0  0  0  0  0  0  0  0  0  0  0
    6.9897   12.1873   26.3787 C   0  0  0  0  0  0  0  0  0  0  0  0
    6.6359   10.8467   26.2714 C   0  0  0  0  0  0  0  0  0  0  0  0
    7.3079    9.9917   25.3894 C   0  0  0  0  0  0  0  0  0  0  0  0
    8.3553   10.5087   24.6193 C   0  0  0  0  0  0  0  0  0  0  0  0
    8.7412   11.8479   24.7129 C   0  0  0  0  0  0  0  0  0  0  0  0
    8.0299   12.6931   25.5912 C   0  0  0  0  0  0  0  0  0  0  0  0
    9.8592   12.0406   23.8395 C   0  0  0  0  0  0  0  0  0  0  0  0
   10.6714   13.2507   23.6959 C   0  0  0  0  0  0  0  0  0  0  0  0
   10.7566   13.9967   24.5852 O   0  0  0  0  0  0  0  0  0  0  0  0
   11.2104   13.3448   22.2659 N   0  0  0  0  0  0  0  0  0  0  0  0
   11.8806   14.4049   21.6002 C   0  0  0  0  0  0  0  0  0  0  0  0
   10.8328   15.3637   21.1348 C   0  0  0  0  0  0  0  0  0  0  0  0
   10.2948   15.2821   19.7338 C   0  0  0  0  0  0  0  0  0  0  0  0
    9.3853   14.9926   20.8875 C   0  0  0  0  0  0  0  0  0  0  0  0
   10.0164   10.8547   23.1536 C   0  0  0  0  0  0  0  0  0  0  0  0
    9.1878    9.9192   23.6979 N   0  0  0  0  0  0  0  0  0  0  0  0
    9.2484    8.5198   23.3536 C   0  0  0  0  0  0  0  0  0  0  0  0
  1  2  1  0
  2  3  1  0
  3  4  2  0
  4  5  1  0
  5  6  2  0
  6  7  1  0
  7  8  2  0
  7  9  1  0
  9 10  1  0
 10 11  2  0
 10 12  1  0
 12 13  1  0
 13 14  1  0
 14 15  1  0
 15 16  1  0
  9 17  2  0
 17 18  1  0
 18 19  1  0
  8  3  1  0
 16 14  1  0
 18  6  1  0
M  END
>  <alias>  (1432) 
None

>  <rmsd(smina/fragmenstein)>  (1432) 
0.217

>  <smiles>  (1432) 
COc1ccc2c(c1)c(C(=O)NCC1CC1)cn2C

>  <gnina_score>  (1432) 
5.508

>  <inspiration_score>  (1432) 
None

>  <energy_score>  (1432) 
-11.785157

>  <distance_score>  (1432) 
0.342291

>  <gnina_score_min>  (1432) 
5.523

>  <inchikey>  (1432) 
QJYOJPVFQWUEAA-UHFFFAOYSA-N

>  <exports>  (1432) 
['/opt/xchem-fragalysis-2/maxwin/BulkDock/OUTPUTS/openbind_a71ev2a_c2_elabs_1LOUU54.sdf', '/opt/xchem-fragalysis-2/maxwin/BulkDock/OUTPUTS/openbind_a71ev2a_c2_elabs_1LSYIDY.sdf']

>  <name>  (1432) 
P577396

>  <ref_pdb>  (1432) 
A3066a

>  <subsites>  (1432) 
None

>  <HIPPO Pose ID>  (1432) 
577396

>  <ref_mols>  (1432) 
A3066a

>  <HIPPO Compound ID>  (1432) 
351337

>  <tags>  (1432) 
openbind_a71ev2a_c2_elabs,syndirella_product,openbind_a71ev2a_c2_elabs_fragonly_scored_top80percent,BulkDock Fragalysis export,openbind_a71ev2a_c2_elabs_scored,openbind_a71ev2a_c2_elabs_scored_top80percent,openbind_a71ev2a_c2_elabs_activefrags_only_scored_5.2plus,openbind_a71ev2a_c2_elabs_activefrags_only_scored_5.5plus,syndirella_placed

>  <smina_score_min>  (1432) 
-7.226

$$$$
P577397
     RDKit          3D

 19 20  0  0  0  0  0  0  0  0999 V2000
    5.4045   12.1895   28.2341 C   0  0  0  0  0  0  0  0  0  0  0  0
    6.1537   12.7870   27.1833 O   0  0  0  0  0  0  0  0  0  0  0  0
    6.8028   11.9396   26.3276 C   0  0  0  0  0  0  0  0  0  0  0  0
    6.6366   10.5632   26.2661 C   0  0  0  0  0  0  0  0  0  0  0  0
    7.3911    9.7899   25.3774 C   0  0  0  0  0  0  0  0  0  0  0  0
    8.3246   10.4147   24.5486 C   0  0  0  0  0  0  0  0  0  0  0  0
    8.4736   11.7986   24.5490 C   0  0  0  0  0  0  0  0  0  0  0  0
    7.6983   12.5620   25.4527 C   0  0  0  0  0  0  0  0  0  0  0  0
    9.4377   12.1260   23.5417 C   0  0  0  0  0  0  0  0  0  0  0  0
    9.8891   13.4738   23.2178 C   0  0  0  0  0  0  0  0  0  0  0  0
    9.7172   14.3005   24.0126 O   0  0  0  0  0  0  0  0  0  0  0  0
   10.5478   13.5450   21.8417 N   0  0  0  0  0  0  0  0  0  0  0  0
   11.2209   14.6272   21.1867 C   0  0  2  0  0  0  0  0  0  0  0  0
   11.5185   14.3759   19.7242 C   0  0  0  0  0  0  0  0  0  0  0  0
   12.4598   14.7857   21.9381 C   0  0  0  0  0  0  0  0  0  0  0  0
   13.3797   14.7613   22.6363 N   0  0  0  0  0  0  0  0  0  0  0  0
    9.8757   10.9316   23.0101 C   0  0  0  0  0  0  0  0  0  0  0  0
    9.2149    9.9083   23.6310 N   0  0  0  0  0  0  0  0  0  0  0  0
    9.4611    8.5128   23.3518 C   0  0  0  0  0  0  0  0  0  0  0  0
  1  2  1  0
  2  3  1  0
  3  4  2  0
  4  5  1  0
  5  6  2  0
  6  7  1  0
  7  8  2  0
  7  9  1  0
  9 10  1  0
 10 11  2  0
 10 12  1  0
 12 13  1  0
 13 14  1  6
 13 15  1  0
 15 16  3  0
  9 17  2  0
 17 18  1  0
 18 19  1  0
  8  3  1  0
 18  6  1  0
M  END
>  <alias>  (1433) 
None

>  <rmsd(smina/fragmenstein)>  (1433) 
0.657

>  <smiles>  (1433) 
COc1ccc2c(c1)c(C(=O)N[C@H](C)C#N)cn2C

>  <gnina_score>  (1433) 
5.391

>  <inspiration_score>  (1433) 
None

>  <energy_score>  (1433) 
-7.930058

>  <distance_score>  (1433) 
0.774015

>  <gnina_score_min>  (1433) 
5.633

>  <inchikey>  (1433) 
VSGQMGOYPJDBGI-SECBINFHSA-N

>  <exports>  (1433) 
['/opt/xchem-fragalysis-2/maxwin/BulkDock/OUTPUTS/openbind_a71ev2a_c2_elabs_1LOUU54.sdf', '/opt/xchem-fragalysis-2/maxwin/BulkDock/OUTPUTS/openbind_a71ev2a_c2_elabs_1LSYIDY.sdf']

>  <name>  (1433) 
P577397

>  <ref_pdb>  (1433) 
A3066a

>  <subsites>  (1433) 
None

>  <HIPPO Pose ID>  (1433) 
577397

>  <ref_mols>  (1433) 
A3066a

>  <HIPPO Compound ID>  (1433) 
351339

>  <tags>  (1433) 
openbind_a71ev2a_c2_elabs,syndirella_product,openbind_a71ev2a_c2_elabs_fragonly_scored_top80percent,BulkDock Fragalysis export,openbind_a71ev2a_c2_elabs_scored,openbind_a71ev2a_c2_elabs_scored_top80percent,openbind_a71ev2a_c2_elabs_activefrags_only_scored_5.2plus,openbind_a71ev2a_c2_elabs_activefrags_only_scored_5.5plus,syndirella_placed

>  <smina_score_min>  (1433) 
-6.944

$$$$
P577399
     RDKit          3D

 19 21  0  0  0  0  0  0  0  0999 V2000
    5.3115   12.3149   28.3003 C   0  0  0  0  0  0  0  0  0  0  0  0
    6.2264   12.8741   27.3664 O   0  0  0  0  0  0  0  0  0  0  0  0
    6.8178   12.0131   26.4830 C   0  0  0  0  0  0  0  0  0  0  0  0
    6.5144   10.6665   26.3295 C   0  0  0  0  0  0  0  0  0  0  0  0
    7.2101    9.8718   25.4114 C   0  0  0  0  0  0  0  0  0  0  0  0
    8.2334   10.4464   24.6544 C   0  0  0  0  0  0  0  0  0  0  0  0
    8.5669   11.7925   24.7957 C   0  0  0  0  0  0  0  0  0  0  0  0
    7.8309   12.5822   25.7063 C   0  0  0  0  0  0  0  0  0  0  0  0
    9.7060   12.0376   23.9694 C   0  0  0  0  0  0  0  0  0  0  0  0
   10.5479   13.2299   23.9959 C   0  0  0  0  0  0  0  0  0  0  0  0
   10.4997   13.9365   24.9211 O   0  0  0  0  0  0  0  0  0  0  0  0
   11.4415   13.2832   22.7480 N   0  0  0  0  0  0  0  0  0  0  0  0
   12.3677   14.2353   22.3412 C   0  0  2  0  0  0  0  0  0  0  0  0
   11.8010   15.5345   21.8736 C   0  0  0  0  0  0  0  0  0  0  0  0
   12.6133   14.7029   20.9467 C   0  0  2  0  0  0  0  0  0  0  0  0
   11.9306   14.2538   19.7185 C   0  0  0  0  0  0  0  0  0  0  0  0
    9.9086   10.8901   23.2299 C   0  0  0  0  0  0  0  0  0  0  0  0
    9.0928    9.9134   23.7231 N   0  0  0  0  0  0  0  0  0  0  0  0
    9.2166    8.5247   23.3504 C   0  0  0  0  0  0  0  0  0  0  0  0
  1  2  1  0
  2  3  1  0
  3  4  2  0
  4  5  1  0
  5  6  2  0
  6  7  1  0
  7  8  2  0
  7  9  1  0
  9 10  1  0
 10 11  2  0
 10 12  1  0
 13 12  1  6
 13 14  1  0
 14 15  1  0
 15 16  1  6
  9 17  2  0
 17 18  1  0
 18 19  1  0
  8  3  1  0
 15 13  1  0
 18  6  1  0
M  END
>  <alias>  (1434) 
None

>  <rmsd(smina/fragmenstein)>  (1434) 
0.501

>  <smiles>  (1434) 
COc1ccc2c(c1)c(C(=O)N[C@@H]1C[C@@H]1C)cn2C

>  <gnina_score>  (1434) 
5.253

>  <inspiration_score>  (1434) 
None

>  <energy_score>  (1434) 
-3.648193

>  <distance_score>  (1434) 
0.461803

>  <gnina_score_min>  (1434) 
5.318

>  <inchikey>  (1434) 
RUORPSDIUYGFBA-TVQRCGJNSA-N

>  <exports>  (1434) 
['/opt/xchem-fragalysis-2/maxwin/BulkDock/OUTPUTS/openbind_a71ev2a_c2_elabs_1LOUU54.sdf', '/opt/xchem-fragalysis-2/maxwin/BulkDock/OUTPUTS/openbind_a71ev2a_c2_elabs_1LSYIDY.sdf']

>  <name>  (1434) 
P577399

>  <ref_pdb>  (1434) 
A3066a

>  <subsites>  (1434) 
None

>  <HIPPO Pose ID>  (1434) 
577399

>  <ref_mols>  (1434) 
A3066a

>  <HIPPO Compound ID>  (1434) 
351340

>  <tags>  (1434) 
openbind_a71ev2a_c2_elabs,syndirella_product,openbind_a71ev2a_c2_elabs_fragonly_scored_top80percent,openbind_a71ev2a_c2_elabs_scored,BulkDock Fragalysis export,openbind_a71ev2a_c2_elabs_scored_top80percent,openbind_a71ev2a_c2_elabs_activefrags_only_scored_5.2plus,syndirella_placed

>  <smina_score_min>  (1434) 
-6.369

$$$$
P577401
     RDKit          3D

 19 20  0  0  0  0  0  0  0  0999 V2000
    5.2228   12.7315   28.1200 C   0  0  0  0  0  0  0  0  0  0  0  0
    6.3332   13.1214   27.3233 O   0  0  0  0  0  0  0  0  0  0  0  0
    6.8579   12.1787   26.4817 C   0  0  0  0  0  0  0  0  0  0  0  0
    6.4648   10.8483   26.3971 C   0  0  0  0  0  0  0  0  0  0  0  0
    7.0961    9.9609   25.5172 C   0  0  0  0  0  0  0  0  0  0  0  0
    8.1572   10.4281   24.7375 C   0  0  0  0  0  0  0  0  0  0  0  0
    8.5784   11.7568   24.8088 C   0  0  0  0  0  0  0  0  0  0  0  0
    7.9049   12.6392   25.6791 C   0  0  0  0  0  0  0  0  0  0  0  0
    9.7091   11.8868   23.9524 C   0  0  0  0  0  0  0  0  0  0  0  0
   10.6102   13.0192   23.8415 C   0  0  0  0  0  0  0  0  0  0  0  0
   10.6666   13.8159   24.6863 O   0  0  0  0  0  0  0  0  0  0  0  0
   11.3661   12.9240   22.5171 N   0  0  0  0  0  0  0  0  0  0  0  0
   12.4058   13.7228   21.9949 C   0  0  0  0  0  0  0  0  0  0  0  0
   11.9100   15.1283   21.8369 C   0  0  2  0  0  0  0  0  0  0  0  0
   10.7406   15.2339   20.8638 C   0  0  0  0  0  0  0  0  0  0  0  0
   12.9703   15.8450   21.4104 F   0  0  0  0  0  0  0  0  0  0  0  0
    9.8502   10.6859   23.2924 C   0  0  0  0  0  0  0  0  0  0  0  0
    8.9821    9.7984   23.8388 N   0  0  0  0  0  0  0  0  0  0  0  0
    9.0737    8.3952   23.5463 C   0  0  0  0  0  0  0  0  0  0  0  0
  1  2  1  0
  2  3  1  0
  3  4  2  0
  4  5  1  0
  5  6  2  0
  6  7  1  0
  7  8  2  0
  7  9  1  0
  9 10  1  0
 10 11  2  0
 10 12  1  0
 12 13  1  0
 13 14  1  0
 14 15  1  6
 14 16  1  0
  9 17  2  0
 17 18  1  0
 18 19  1  0
  8  3  1  0
 18  6  1  0
M  END
>  <alias>  (1435) 
None

>  <rmsd(smina/fragmenstein)>  (1435) 
0.282

>  <smiles>  (1435) 
COc1ccc2c(c1)c(C(=O)NC[C@H](C)F)cn2C

>  <gnina_score>  (1435) 
5.297

>  <inspiration_score>  (1435) 
None

>  <energy_score>  (1435) 
-18.43974

>  <distance_score>  (1435) 
0.538807

>  <gnina_score_min>  (1435) 
5.35

>  <inchikey>  (1435) 
UFBLIEOMNVCQMG-VIFPVBQESA-N

>  <exports>  (1435) 
['/opt/xchem-fragalysis-2/maxwin/BulkDock/OUTPUTS/openbind_a71ev2a_c2_elabs_1LOUU54.sdf', '/opt/xchem-fragalysis-2/maxwin/BulkDock/OUTPUTS/openbind_a71ev2a_c2_elabs_1LSYIDY.sdf']

>  <name>  (1435) 
P577401

>  <ref_pdb>  (1435) 
A3066a

>  <subsites>  (1435) 
None

>  <HIPPO Pose ID>  (1435) 
577401

>  <ref_mols>  (1435) 
A3066a

>  <HIPPO Compound ID>  (1435) 
351341

>  <tags>  (1435) 
openbind_a71ev2a_c2_elabs,syndirella_product,openbind_a71ev2a_c2_elabs_fragonly_scored_top80percent,openbind_a71ev2a_c2_elabs_scored,BulkDock Fragalysis export,openbind_a71ev2a_c2_elabs_scored_top80percent,openbind_a71ev2a_c2_elabs_activefrags_only_scored_5.2plus,syndirella_placed

>  <smina_score_min>  (1435) 
-6.184

$$$$
P577404
     RDKit          3D

 19 20  0  0  0  0  0  0  0  0999 V2000
    9.7300   15.4479   19.9168 C   0  0  0  0  0  0  0  0  0  0  0  0
   10.4702   15.5234   21.2261 C   0  0  0  0  0  0  0  0  0  0  0  0
   11.5081   14.4154   21.3867 C   0  0  1  0  0  0  0  0  0  0  0  0
   12.7176   14.8860   22.1600 C   0  0  0  0  0  0  0  0  0  0  0  0
   10.9047   13.3389   22.1100 N   0  0  0  0  0  0  0  0  0  0  0  0
   10.4252   13.2608   23.5653 C   0  0  0  0  0  0  0  0  0  0  0  0
   10.5135   14.0336   24.4318 O   0  0  0  0  0  0  0  0  0  0  0  0
    9.7026   12.0176   23.7817 C   0  0  0  0  0  0  0  0  0  0  0  0
    9.9327   10.8160   23.1487 C   0  0  0  0  0  0  0  0  0  0  0  0
    9.1424    9.8668   23.7232 N   0  0  0  0  0  0  0  0  0  0  0  0
    9.2591    8.4643   23.4129 C   0  0  0  0  0  0  0  0  0  0  0  0
    8.2976   10.4480   24.6398 C   0  0  0  0  0  0  0  0  0  0  0  0
    7.2721    9.9186   25.4282 C   0  0  0  0  0  0  0  0  0  0  0  0
    6.5915   10.7647   26.3123 C   0  0  0  0  0  0  0  0  0  0  0  0
    6.9140   12.1135   26.4038 C   0  0  0  0  0  0  0  0  0  0  0  0
    6.3461   13.0214   27.2555 O   0  0  0  0  0  0  0  0  0  0  0  0
    5.3495   12.5388   28.1463 C   0  0  0  0  0  0  0  0  0  0  0  0
    7.9201   12.6376   25.5865 C   0  0  0  0  0  0  0  0  0  0  0  0
    8.6332   11.8005   24.7014 C   0  0  0  0  0  0  0  0  0  0  0  0
  1  2  1  0
  2  3  1  0
  3  4  1  1
  3  5  1  0
  5  6  1  0
  6  7  2  0
  6  8  1  0
  8  9  2  0
  9 10  1  0
 10 11  1  0
 10 12  1  0
 12 13  2  0
 13 14  1  0
 14 15  2  0
 15 16  1  0
 16 17  1  0
 15 18  1  0
 18 19  2  0
 19  8  1  0
 19 12  1  0
M  END
>  <alias>  (1436) 
None

>  <rmsd(smina/fragmenstein)>  (1436) 
0.465

>  <smiles>  (1436) 
CC[C@@H](C)NC(=O)c1cn(C)c2ccc(OC)cc12

>  <gnina_score>  (1436) 
5.563

>  <inspiration_score>  (1436) 
None

>  <energy_score>  (1436) 
-8.472739

>  <distance_score>  (1436) 
0.50473

>  <gnina_score_min>  (1436) 
5.629

>  <inchikey>  (1436) 
BBLMDIXOXYCQMH-SNVBAGLBSA-N

>  <exports>  (1436) 
['/opt/xchem-fragalysis-2/maxwin/BulkDock/OUTPUTS/openbind_a71ev2a_c2_elabs_1LOUU54.sdf', '/opt/xchem-fragalysis-2/maxwin/BulkDock/OUTPUTS/openbind_a71ev2a_c2_elabs_1LSYIDY.sdf']

>  <name>  (1436) 
P577404

>  <ref_pdb>  (1436) 
A3066a

>  <subsites>  (1436) 
None

>  <HIPPO Pose ID>  (1436) 
577404

>  <ref_mols>  (1436) 
A3066a

>  <HIPPO Compound ID>  (1436) 
351346

>  <tags>  (1436) 
openbind_a71ev2a_c2_elabs,syndirella_product,openbind_a71ev2a_c2_elabs_fragonly_scored_top80percent,BulkDock Fragalysis export,openbind_a71ev2a_c2_elabs_scored,openbind_a71ev2a_c2_elabs_scored_top80percent,openbind_a71ev2a_c2_elabs_activefrags_only_scored_5.2plus,openbind_a71ev2a_c2_elabs_activefrags_only_scored_5.5plus,syndirella_placed

>  <smina_score_min>  (1436) 
-7.175

$$$$
P577405
     RDKit          3D

 19 21  0  0  0  0  0  0  0  0999 V2000
    5.4402   12.4510   28.2046 C   0  0  0  0  0  0  0  0  0  0  0  0
    6.3648   13.0055   27.2783 O   0  0  0  0  0  0  0  0  0  0  0  0
    6.9633   12.1410   26.4019 C   0  0  0  0  0  0  0  0  0  0  0  0
    6.6763   10.7858   26.2700 C   0  0  0  0  0  0  0  0  0  0  0  0
    7.3796    9.9849   25.3626 C   0  0  0  0  0  0  0  0  0  0  0  0
    8.3798   10.5742   24.5825 C   0  0  0  0  0  0  0  0  0  0  0  0
    8.6863   11.9335   24.6900 C   0  0  0  0  0  0  0  0  0  0  0  0
    7.9574   12.7214   25.6049 C   0  0  0  0  0  0  0  0  0  0  0  0
    9.7406   12.2068   23.7710 C   0  0  0  0  0  0  0  0  0  0  0  0
   10.4605   13.4550   23.5668 C   0  0  0  0  0  0  0  0  0  0  0  0
   10.8297   14.0954   24.4809 O   0  0  0  0  0  0  0  0  0  0  0  0
   10.5782   13.7085   22.0932 N   0  0  0  0  0  0  0  0  0  0  0  0
    9.3139   14.5310   21.5367 C   0  0  0  0  0  0  0  0  0  0  0  0
   10.1172   15.2441   20.5365 C   0  0  0  0  0  0  0  0  0  0  0  0
    9.8685   15.9088   19.5576 O   0  0  0  0  0  0  0  0  0  0  0  0
   11.3088   14.8329   21.3161 C   0  0  0  0  0  0  0  0  0  0  0  0
    9.9798   11.0364   23.0828 C   0  0  0  0  0  0  0  0  0  0  0  0
    9.2240   10.0438   23.6324 N   0  0  0  0  0  0  0  0  0  0  0  0
    9.3240    8.6538   23.2513 C   0  0  0  0  0  0  0  0  0  0  0  0
  1  2  1  0
  2  3  1  0
  3  4  2  0
  4  5  1  0
  5  6  2  0
  6  7  1  0
  7  8  2  0
  7  9  1  0
  9 10  1  0
 10 11  2  0
 10 12  1  0
 12 13  1  0
 13 14  1  0
 14 15  2  0
 14 16  1  0
  9 17  2  0
 17 18  1  0
 18 19  1  0
  8  3  1  0
 16 12  1  0
 18  6  1  0
M  END
>  <alias>  (1437) 
None

>  <rmsd(smina/fragmenstein)>  (1437) 
0.222

>  <smiles>  (1437) 
COc1ccc2c(c1)c(C(=O)N1CC(=O)C1)cn2C

>  <gnina_score>  (1437) 
5.321

>  <inspiration_score>  (1437) 
None

>  <energy_score>  (1437) 
-4.295338

>  <distance_score>  (1437) 
0.534225

>  <gnina_score_min>  (1437) 
5.334

>  <inchikey>  (1437) 
AGGHDDYXKZMYLY-UHFFFAOYSA-N

>  <exports>  (1437) 
['/opt/xchem-fragalysis-2/maxwin/BulkDock/OUTPUTS/openbind_a71ev2a_c2_elabs_1LOUU54.sdf', '/opt/xchem-fragalysis-2/maxwin/BulkDock/OUTPUTS/openbind_a71ev2a_c2_elabs_1LSYIDY.sdf']

>  <name>  (1437) 
P577405

>  <ref_pdb>  (1437) 
A3066a

>  <subsites>  (1437) 
None

>  <HIPPO Pose ID>  (1437) 
577405

>  <ref_mols>  (1437) 
A3066a

>  <HIPPO Compound ID>  (1437) 
351347

>  <tags>  (1437) 
openbind_a71ev2a_c2_elabs,syndirella_product,openbind_a71ev2a_c2_elabs_fragonly_scored_top80percent,openbind_a71ev2a_c2_elabs_scored,BulkDock Fragalysis export,openbind_a71ev2a_c2_elabs_scored_top80percent,openbind_a71ev2a_c2_elabs_activefrags_only_scored_5.2plus,syndirella_placed

>  <smina_score_min>  (1437) 
-7.802

$$$$
P577406
     RDKit          3D

 19 21  0  0  0  0  0  0  0  0999 V2000
    5.8294   14.0815   27.1544 C   0  0  0  0  0  0  0  0  0  0  0  0
    5.9279   12.6675   27.3019 O   0  0  0  0  0  0  0  0  0  0  0  0
    6.7618   12.0343   26.4194 C   0  0  0  0  0  0  0  0  0  0  0  0
    6.5463   10.6661   26.2826 C   0  0  0  0  0  0  0  0  0  0  0  0
    7.3044    9.8924   25.3996 C   0  0  0  0  0  0  0  0  0  0  0  0
    8.3132   10.5179   24.6659 C   0  0  0  0  0  0  0  0  0  0  0  0
    8.5799   11.8788   24.8198 C   0  0  0  0  0  0  0  0  0  0  0  0
    7.7888   12.6478   25.7009 C   0  0  0  0  0  0  0  0  0  0  0  0
    9.6723   12.1901   23.9701 C   0  0  0  0  0  0  0  0  0  0  0  0
   10.3455   13.4683   23.8419 C   0  0  0  0  0  0  0  0  0  0  0  0
   10.7660   14.0361   24.7697 O   0  0  0  0  0  0  0  0  0  0  0  0
   10.3435   13.8542   22.3524 N   0  0  0  0  0  0  0  0  0  0  0  0
   10.9158   14.9265   21.7053 N   0  0  0  0  0  0  0  0  0  0  0  0
   12.3919   14.9114   21.8618 C   0  0  0  0  0  0  0  0  0  0  0  0
   12.4975   14.0422   20.6152 C   0  0  0  0  0  0  0  0  0  0  0  0
   11.1053   14.5954   20.2687 C   0  0  0  0  0  0  0  0  0  0  0  0
    9.9670   11.0513   23.2485 C   0  0  0  0  0  0  0  0  0  0  0  0
    9.1956   10.0313   23.7262 N   0  0  0  0  0  0  0  0  0  0  0  0
    9.3141    8.6590   23.2886 C   0  0  0  0  0  0  0  0  0  0  0  0
  1  2  1  0
  2  3  1  0
  3  4  2  0
  4  5  1  0
  5  6  2  0
  6  7  1  0
  7  8  2  0
  7  9  1  0
  9 10  1  0
 10 11  2  0
 10 12  1  0
 12 13  1  0
 13 14  1  0
 14 15  1  0
 15 16  1  0
  9 17  2  0
 17 18  1  0
 18 19  1  0
  8  3  1  0
 16 13  1  0
 18  6  1  0
M  END
>  <alias>  (1438) 
None

>  <rmsd(smina/fragmenstein)>  (1438) 
0.211

>  <smiles>  (1438) 
COc1ccc2c(c1)c(C(=O)NN1CCC1)cn2C

>  <gnina_score>  (1438) 
5.647

>  <inspiration_score>  (1438) 
None

>  <energy_score>  (1438) 
-33.006384

>  <distance_score>  (1438) 
0.668119

>  <gnina_score_min>  (1438) 
5.704

>  <inchikey>  (1438) 
JSFNIXHYLCMZQJ-UHFFFAOYSA-N

>  <exports>  (1438) 
['/opt/xchem-fragalysis-2/maxwin/BulkDock/OUTPUTS/openbind_a71ev2a_c2_elabs_1LOUU54.sdf', '/opt/xchem-fragalysis-2/maxwin/BulkDock/OUTPUTS/openbind_a71ev2a_c2_elabs_1LSYIDY.sdf']

>  <name>  (1438) 
P577406

>  <ref_pdb>  (1438) 
A3066a

>  <subsites>  (1438) 
None

>  <HIPPO Pose ID>  (1438) 
577406

>  <ref_mols>  (1438) 
A3066a

>  <HIPPO Compound ID>  (1438) 
351348

>  <tags>  (1438) 
openbind_a71ev2a_c2_elabs,syndirella_product,openbind_a71ev2a_c2_elabs_fragonly_scored_top80percent,BulkDock Fragalysis export,openbind_a71ev2a_c2_elabs_scored,openbind_a71ev2a_c2_elabs_scored_top80percent,openbind_a71ev2a_c2_elabs_activefrags_only_scored_5.2plus,openbind_a71ev2a_c2_elabs_activefrags_only_scored_5.5plus,syndirella_placed

>  <smina_score_min>  (1438) 
-7.037

$$$$
P577407
     RDKit          3D

 19 21  0  0  0  0  0  0  0  0999 V2000
    5.4414   12.0868   28.3093 C   0  0  0  0  0  0  0  0  0  0  0  0
    6.2522   12.7456   27.3449 O   0  0  0  0  0  0  0  0  0  0  0  0
    6.8966   11.9547   26.4328 C   0  0  0  0  0  0  0  0  0  0  0  0
    6.6659   10.5993   26.2277 C   0  0  0  0  0  0  0  0  0  0  0  0
    7.4131    9.8774   25.2903 C   0  0  0  0  0  0  0  0  0  0  0  0
    8.3966   10.5421   24.5523 C   0  0  0  0  0  0  0  0  0  0  0  0
    8.6547   11.8995   24.7396 C   0  0  0  0  0  0  0  0  0  0  0  0
    7.8770   12.6107   25.6802 C   0  0  0  0  0  0  0  0  0  0  0  0
    9.7478   12.2545   23.8858 C   0  0  0  0  0  0  0  0  0  0  0  0
   10.4594   13.5322   23.8852 C   0  0  0  0  0  0  0  0  0  0  0  0
   10.5253   14.1377   24.8924 O   0  0  0  0  0  0  0  0  0  0  0  0
   10.9172   13.8957   22.5001 N   0  0  0  0  0  0  0  0  0  0  0  0
   12.3763   13.4413   22.2478 C   0  0  0  0  0  0  0  0  0  0  0  0
   12.4981   14.4328   21.1327 C   0  0  0  0  0  0  0  0  0  0  0  0
   12.1296   14.0402   19.7976 O   0  0  0  0  0  0  0  0  0  0  0  0
   11.5031   15.1734   21.9639 C   0  0  0  0  0  0  0  0  0  0  0  0
   10.0093   11.1436   23.1116 C   0  0  0  0  0  0  0  0  0  0  0  0
    9.2681   10.0963   23.5854 N   0  0  0  0  0  0  0  0  0  0  0  0
    9.4130    8.7311   23.1296 C   0  0  0  0  0  0  0  0  0  0  0  0
  1  2  1  0
  2  3  1  0
  3  4  2  0
  4  5  1  0
  5  6  2  0
  6  7  1  0
  7  8  2  0
  7  9  1  0
  9 10  1  0
 10 11  2  0
 10 12  1  0
 12 13  1  0
 13 14  1  0
 14 15  1  0
 14 16  1  0
  9 17  2  0
 17 18  1  0
 18 19  1  0
  8  3  1  0
 16 12  1  0
 18  6  1  0
M  END
>  <alias>  (1439) 
None

>  <rmsd(smina/fragmenstein)>  (1439) 
0.251

>  <smiles>  (1439) 
COc1ccc2c(c1)c(C(=O)N1CC(O)C1)cn2C

>  <gnina_score>  (1439) 
5.415

>  <inspiration_score>  (1439) 
None

>  <energy_score>  (1439) 
-5.632058

>  <distance_score>  (1439) 
0.508974

>  <gnina_score_min>  (1439) 
5.447

>  <inchikey>  (1439) 
LAJFDZFLEHFHJO-UHFFFAOYSA-N

>  <exports>  (1439) 
['/opt/xchem-fragalysis-2/maxwin/BulkDock/OUTPUTS/openbind_a71ev2a_c2_elabs_1LOUU54.sdf', '/opt/xchem-fragalysis-2/maxwin/BulkDock/OUTPUTS/openbind_a71ev2a_c2_elabs_1LSYIDY.sdf']

>  <name>  (1439) 
P577407

>  <ref_pdb>  (1439) 
A3066a

>  <subsites>  (1439) 
None

>  <HIPPO Pose ID>  (1439) 
577407

>  <ref_mols>  (1439) 
A3066a

>  <HIPPO Compound ID>  (1439) 
351352

>  <tags>  (1439) 
openbind_a71ev2a_c2_elabs,syndirella_product,openbind_a71ev2a_c2_elabs_fragonly_scored_top80percent,openbind_a71ev2a_c2_elabs_scored,BulkDock Fragalysis export,openbind_a71ev2a_c2_elabs_scored_top80percent,openbind_a71ev2a_c2_elabs_activefrags_only_scored_5.2plus,syndirella_placed

>  <smina_score_min>  (1439) 
-6.871

$$$$
P577408
     RDKit          3D

 19 21  0  0  0  0  0  0  0  0999 V2000
   11.4846   14.8104   23.9346 O   0  0  0  0  0  0  0  0  0  0  0  0
   10.7551   14.2080   23.2588 C   0  0  0  0  0  0  0  0  0  0  0  0
   10.2931   14.4628   21.8244 N   0  0  0  0  0  0  0  0  0  0  0  0
   10.6931   15.4434   20.8933 C   0  0  0  0  0  0  0  0  0  0  0  0
    9.5514   16.0430   20.0936 C   0  0  0  0  0  0  0  0  0  0  0  0
    8.8000   17.1383   20.8362 C   0  0  0  0  0  0  0  0  0  0  0  0
    8.0374   18.3224   19.7400 Cl  0  0  0  0  0  0  0  0  0  0  0  0
   10.1373   12.9821   23.6614 C   0  0  0  0  0  0  0  0  0  0  0  0
   10.4846   11.7869   23.0663 C   0  0  0  0  0  0  0  0  0  0  0  0
    9.7016   10.8314   23.5947 N   0  0  0  0  0  0  0  0  0  0  0  0
    8.7859   11.3994   24.4319 C   0  0  0  0  0  0  0  0  0  0  0  0
    7.7668   10.7514   25.0954 C   0  0  0  0  0  0  0  0  0  0  0  0
    6.9472   11.5163   25.9255 C   0  0  0  0  0  0  0  0  0  0  0  0
    7.1554   12.8885   26.0450 C   0  0  0  0  0  0  0  0  0  0  0  0
    8.1973   13.5228   25.3492 C   0  0  0  0  0  0  0  0  0  0  0  0
    9.0409   12.7520   24.5291 C   0  0  0  0  0  0  0  0  0  0  0  0
    7.6681    9.2901   24.9351 C   0  0  0  0  0  0  0  0  0  0  0  0
    8.5855    8.6665   23.8642 C   0  0  0  0  0  0  0  0  0  0  0  0
    9.8138    9.4132   23.3913 C   0  0  0  0  0  0  0  0  0  0  0  0
  1  2  2  0
  2  3  1  0
  3  4  1  0
  4  5  1  0
  5  6  1  0
  6  7  1  0
  2  8  1  0
  8  9  2  0
  9 10  1  0
 10 11  1  0
 11 12  2  0
 12 13  1  0
 13 14  2  0
 14 15  1  0
 15 16  2  0
 12 17  1  0
 17 18  1  0
 18 19  1  0
 16  8  1  0
 19 10  1  0
 16 11  1  0
M  END
>  <alias>  (1440) 
None

>  <rmsd(smina/fragmenstein)>  (1440) 
0.761

>  <smiles>  (1440) 
O=C(NCCCCl)c1cn2c3c(cccc13)CCC2

>  <gnina_score>  (1440) 
5.426

>  <inspiration_score>  (1440) 
None

>  <energy_score>  (1440) 
-4.62604

>  <distance_score>  (1440) 
1.12448

>  <gnina_score_min>  (1440) 
5.343

>  <inchikey>  (1440) 
JFIOOXNILFBYPP-UHFFFAOYSA-N

>  <exports>  (1440) 
['/opt/xchem-fragalysis-2/maxwin/BulkDock/OUTPUTS/openbind_a71ev2a_c2_elabs_1LOUU54.sdf', '/opt/xchem-fragalysis-2/maxwin/BulkDock/OUTPUTS/openbind_a71ev2a_c2_elabs_1LSYIDY.sdf']

>  <name>  (1440) 
P577408

>  <ref_pdb>  (1440) 
A3066a

>  <subsites>  (1440) 
None

>  <HIPPO Pose ID>  (1440) 
577408

>  <ref_mols>  (1440) 
A3066a

>  <HIPPO Compound ID>  (1440) 
351363

>  <tags>  (1440) 
openbind_a71ev2a_c2_elabs,syndirella_product,openbind_a71ev2a_c2_elabs_fragonly_scored_top80percent,openbind_a71ev2a_c2_elabs_scored,BulkDock Fragalysis export,openbind_a71ev2a_c2_elabs_scored_top80percent,openbind_a71ev2a_c2_elabs_activefrags_only_scored_5.2plus,syndirella_placed

>  <smina_score_min>  (1440) 
-6.879

$$$$
P577409
     RDKit          3D

 19 21  0  0  0  0  0  0  0  0999 V2000
    9.9591   15.3683   19.8339 C   0  0  0  0  0  0  0  0  0  0  0  0
   11.3630   14.8790   19.5028 C   0  0  2  0  0  0  0  0  0  0  0  0
   11.3312   13.7502   18.6523 O   0  0  0  0  0  0  0  0  0  0  0  0
   12.1929   14.5709   20.7694 C   0  0  0  0  0  0  0  0  0  0  0  0
   11.4650   13.6868   21.6376 N   0  0  0  0  0  0  0  0  0  0  0  0
   11.1103   13.8183   23.1265 C   0  0  0  0  0  0  0  0  0  0  0  0
   11.4162   14.6260   23.9063 O   0  0  0  0  0  0  0  0  0  0  0  0
   10.1767   12.7485   23.4917 C   0  0  0  0  0  0  0  0  0  0  0  0
   10.2124   11.4642   22.9705 C   0  0  0  0  0  0  0  0  0  0  0  0
    9.2424   10.7395   23.5604 N   0  0  0  0  0  0  0  0  0  0  0  0
    8.5393   11.5114   24.4426 C   0  0  0  0  0  0  0  0  0  0  0  0
    7.5079   11.0875   25.2846 C   0  0  0  0  0  0  0  0  0  0  0  0
    6.9061   12.0414   26.0958 C   0  0  0  0  0  0  0  0  0  0  0  0
    7.3809   13.3475   26.0878 C   0  0  0  0  0  0  0  0  0  0  0  0
    8.4731   13.7192   25.2812 C   0  0  0  0  0  0  0  0  0  0  0  0
    9.0807   12.7804   24.4270 C   0  0  0  0  0  0  0  0  0  0  0  0
    7.1581    9.6431   25.3018 C   0  0  0  0  0  0  0  0  0  0  0  0
    8.3550    8.8711   24.7412 C   0  0  0  0  0  0  0  0  0  0  0  0
    9.0316    9.3171   23.4739 C   0  0  0  0  0  0  0  0  0  0  0  0
  2  1  1  1
  2  3  1  0
  2  4  1  0
  4  5  1  0
  5  6  1  0
  6  7  2  0
  6  8  1  0
  8  9  2  0
  9 10  1  0
 10 11  1  0
 11 12  2  0
 12 13  1  0
 13 14  2  0
 14 15  1  0
 15 16  2  0
 12 17  1  0
 17 18  1  0
 18 19  1  0
 16  8  1  0
 19 10  1  0
 16 11  1  0
M  END
>  <alias>  (1441) 
None

>  <rmsd(smina/fragmenstein)>  (1441) 
1.32

>  <smiles>  (1441) 
C[C@H](O)CNC(=O)c1cn2c3c(cccc13)CCC2

>  <gnina_score>  (1441) 
5.585

>  <inspiration_score>  (1441) 
None

>  <energy_score>  (1441) 
-1.219222

>  <distance_score>  (1441) 
0.979301

>  <gnina_score_min>  (1441) 
5.294

>  <inchikey>  (1441) 
JREDGJXHMJZNQF-JTQLQIEISA-N

>  <exports>  (1441) 
['/opt/xchem-fragalysis-2/maxwin/BulkDock/OUTPUTS/openbind_a71ev2a_c2_elabs_1LOUU54.sdf', '/opt/xchem-fragalysis-2/maxwin/BulkDock/OUTPUTS/openbind_a71ev2a_c2_elabs_1LSYIDY.sdf']

>  <name>  (1441) 
P577409

>  <ref_pdb>  (1441) 
A3066a

>  <subsites>  (1441) 
None

>  <HIPPO Pose ID>  (1441) 
577409

>  <ref_mols>  (1441) 
A3066a

>  <HIPPO Compound ID>  (1441) 
351365

>  <tags>  (1441) 
openbind_a71ev2a_c2_elabs,syndirella_product,openbind_a71ev2a_c2_elabs_fragonly_scored_top80percent,openbind_a71ev2a_c2_elabs_scored,BulkDock Fragalysis export,openbind_a71ev2a_c2_elabs_scored_top80percent,openbind_a71ev2a_c2_elabs_activefrags_only_scored_5.2plus,syndirella_placed

>  <smina_score_min>  (1441) 
-7.192

$$$$
P577410
     RDKit          3D

 19 21  0  0  0  0  0  0  0  0999 V2000
   12.0624   14.2562   19.2556 C   0  0  0  0  0  0  0  0  0  0  0  0
   11.3772   14.9331   20.1741 C   0  0  0  0  0  0  0  0  0  0  0  0
    9.8271   15.6118   19.8275 Cl  0  0  0  0  0  0  0  0  0  0  0  0
   11.9234   15.1349   21.5514 C   0  0  0  0  0  0  0  0  0  0  0  0
   11.2491   14.1725   22.3210 N   0  0  0  0  0  0  0  0  0  0  0  0
   11.0743   14.0557   23.8256 C   0  0  0  0  0  0  0  0  0  0  0  0
   11.5215   14.6913   24.6875 O   0  0  0  0  0  0  0  0  0  0  0  0
   10.2415   12.9006   24.0250 C   0  0  0  0  0  0  0  0  0  0  0  0
   10.4901   11.7182   23.3514 C   0  0  0  0  0  0  0  0  0  0  0  0
    9.6004   10.8117   23.7755 N   0  0  0  0  0  0  0  0  0  0  0  0
    8.6992   11.4048   24.6044 C   0  0  0  0  0  0  0  0  0  0  0  0
    7.6260   10.7958   25.2163 C   0  0  0  0  0  0  0  0  0  0  0  0
    6.8270   11.5857   26.0421 C   0  0  0  0  0  0  0  0  0  0  0  0
    7.1165   12.9379   26.2170 C   0  0  0  0  0  0  0  0  0  0  0  0
    8.2317   13.5243   25.5971 C   0  0  0  0  0  0  0  0  0  0  0  0
    9.0558   12.7276   24.7829 C   0  0  0  0  0  0  0  0  0  0  0  0
    7.4613    9.3433   25.0267 C   0  0  0  0  0  0  0  0  0  0  0  0
    8.4201    8.6899   24.0048 C   0  0  0  0  0  0  0  0  0  0  0  0
    9.6601    9.4022   23.5275 C   0  0  0  0  0  0  0  0  0  0  0  0
  1  2  2  0
  2  3  1  0
  2  4  1  0
  4  5  1  0
  5  6  1  0
  6  7  2  0
  6  8  1  0
  8  9  2  0
  9 10  1  0
 10 11  1  0
 11 12  2  0
 12 13  1  0
 13 14  2  0
 14 15  1  0
 15 16  2  0
 12 17  1  0
 17 18  1  0
 18 19  1  0
 16  8  1  0
 19 10  1  0
 16 11  1  0
M  END
>  <alias>  (1442) 
None

>  <rmsd(smina/fragmenstein)>  (1442) 
0.678

>  <smiles>  (1442) 
C=C(Cl)CNC(=O)c1cn2c3c(cccc13)CCC2

>  <gnina_score>  (1442) 
5.438

>  <inspiration_score>  (1442) 
None

>  <energy_score>  (1442) 
-5.285472

>  <distance_score>  (1442) 
0.873135

>  <gnina_score_min>  (1442) 
5.409

>  <inchikey>  (1442) 
BJJVYYZJKPSQBN-UHFFFAOYSA-N

>  <exports>  (1442) 
['/opt/xchem-fragalysis-2/maxwin/BulkDock/OUTPUTS/openbind_a71ev2a_c2_elabs_1LOUU54.sdf', '/opt/xchem-fragalysis-2/maxwin/BulkDock/OUTPUTS/openbind_a71ev2a_c2_elabs_1LSYIDY.sdf']

>  <name>  (1442) 
P577410

>  <ref_pdb>  (1442) 
A3066a

>  <subsites>  (1442) 
None

>  <HIPPO Pose ID>  (1442) 
577410

>  <ref_mols>  (1442) 
A3066a

>  <HIPPO Compound ID>  (1442) 
351366

>  <tags>  (1442) 
openbind_a71ev2a_c2_elabs,syndirella_product,openbind_a71ev2a_c2_elabs_fragonly_scored_top80percent,openbind_a71ev2a_c2_elabs_scored,BulkDock Fragalysis export,openbind_a71ev2a_c2_elabs_scored_top80percent,openbind_a71ev2a_c2_elabs_activefrags_only_scored_5.2plus,syndirella_placed

>  <smina_score_min>  (1442) 
-6.288

$$$$
P577412
     RDKit          3D

 19 20  0  0  0  0  0  0  0  0999 V2000
   10.9910    8.0765   23.3792 C   0  0  0  0  0  0  0  0  0  0  0  0
    9.7400    8.1907   22.9478 C   0  0  0  0  0  0  0  0  0  0  0  0
    8.6774    8.7967   23.7567 C   0  0  0  0  0  0  0  0  0  0  0  0
    8.8096   10.2209   23.9729 N   0  0  0  0  0  0  0  0  0  0  0  0
    9.7084   11.0447   23.3621 C   0  0  0  0  0  0  0  0  0  0  0  0
    9.6848   12.2590   24.0098 C   0  0  0  0  0  0  0  0  0  0  0  0
   10.6840   13.3122   23.8713 C   0  0  0  0  0  0  0  0  0  0  0  0
   10.9027   14.0031   24.7842 O   0  0  0  0  0  0  0  0  0  0  0  0
   11.3574   13.2418   22.4909 N   0  0  0  0  0  0  0  0  0  0  0  0
   12.3726   14.0636   21.9098 C   0  0  1  0  0  0  0  0  0  0  0  0
   12.6174   13.8083   20.4437 C   0  0  0  0  0  0  0  0  0  0  0  0
   11.9792   15.4984   22.0826 C   0  0  0  0  0  0  0  0  0  0  0  0
   10.7999   15.7327   21.4486 F   0  0  0  0  0  0  0  0  0  0  0  0
    8.5656   12.2201   24.9011 C   0  0  0  0  0  0  0  0  0  0  0  0
    7.9608   13.1595   25.7590 C   0  0  0  0  0  0  0  0  0  0  0  0
    6.8991   12.7643   26.5791 C   0  0  0  0  0  0  0  0  0  0  0  0
    6.4402   11.4519   26.5642 C   0  0  0  0  0  0  0  0  0  0  0  0
    7.0083   10.5047   25.7144 C   0  0  0  0  0  0  0  0  0  0  0  0
    8.0614   10.9195   24.8874 C   0  0  0  0  0  0  0  0  0  0  0  0
  1  2  2  0
  2  3  1  0
  3  4  1  0
  4  5  1  0
  5  6  2  0
  6  7  1  0
  7  8  2  0
  7  9  1  0
  9 10  1  0
 10 11  1  6
 10 12  1  0
 12 13  1  0
  6 14  1  0
 14 15  2  0
 15 16  1  0
 16 17  2  0
 17 18  1  0
 18 19  2  0
 19  4  1  0
 19 14  1  0
M  END
>  <alias>  (1443) 
None

>  <rmsd(smina/fragmenstein)>  (1443) 
1.056

>  <smiles>  (1443) 
C=CCn1cc(C(=O)N[C@@H](C)CF)c2ccccc21

>  <gnina_score>  (1443) 
5.296

>  <inspiration_score>  (1443) 
None

>  <energy_score>  (1443) 
-8.00537

>  <distance_score>  (1443) 
0.690938

>  <gnina_score_min>  (1443) 
5.319

>  <inchikey>  (1443) 
CTDZDVMQMBPKSE-NSHDSACASA-N

>  <exports>  (1443) 
['/opt/xchem-fragalysis-2/maxwin/BulkDock/OUTPUTS/openbind_a71ev2a_c2_elabs_1LOUU54.sdf', '/opt/xchem-fragalysis-2/maxwin/BulkDock/OUTPUTS/openbind_a71ev2a_c2_elabs_1LSYIDY.sdf']

>  <name>  (1443) 
P577412

>  <ref_pdb>  (1443) 
A3066a

>  <subsites>  (1443) 
None

>  <HIPPO Pose ID>  (1443) 
577412

>  <ref_mols>  (1443) 
A3066a

>  <HIPPO Compound ID>  (1443) 
351369

>  <tags>  (1443) 
openbind_a71ev2a_c2_elabs,syndirella_product,openbind_a71ev2a_c2_elabs_fragonly_scored_top80percent,openbind_a71ev2a_c2_elabs_scored,BulkDock Fragalysis export,openbind_a71ev2a_c2_elabs_scored_top80percent,openbind_a71ev2a_c2_elabs_activefrags_only_scored_5.2plus,syndirella_placed

>  <smina_score_min>  (1443) 
-5.863

$$$$
P577413
     RDKit          3D

 19 20  0  0  0  0  0  0  0  0999 V2000
   11.0347    7.8426   23.4781 C   0  0  0  0  0  0  0  0  0  0  0  0
    9.7759    8.0656   23.8133 C   0  0  0  0  0  0  0  0  0  0  0  0
    8.9320    8.9313   23.0051 C   0  0  0  0  0  0  0  0  0  0  0  0
    8.9497   10.2615   23.5675 N   0  0  0  0  0  0  0  0  0  0  0  0
    9.8168   11.2138   23.1274 C   0  0  0  0  0  0  0  0  0  0  0  0
    9.5885   12.3650   23.8407 C   0  0  0  0  0  0  0  0  0  0  0  0
   10.3716   13.5730   23.6935 C   0  0  0  0  0  0  0  0  0  0  0  0
   10.6648   14.1952   24.6320 O   0  0  0  0  0  0  0  0  0  0  0  0
   10.7072   13.7891   22.2118 N   0  0  0  0  0  0  0  0  0  0  0  0
   11.5450   14.7536   21.5845 C   0  0  1  0  0  0  0  0  0  0  0  0
   12.8288   14.8632   22.3566 C   0  0  0  0  0  0  0  0  0  0  0  0
   11.8465   14.3058   20.2022 C   0  0  0  0  0  0  0  0  0  0  0  0
   11.2160   14.7400   19.1099 C   0  0  0  0  0  0  0  0  0  0  0  0
    8.5331   12.0896   24.7575 C   0  0  0  0  0  0  0  0  0  0  0  0
    7.8483   12.8600   25.7181 C   0  0  0  0  0  0  0  0  0  0  0  0
    6.8631   12.2621   26.5087 C   0  0  0  0  0  0  0  0  0  0  0  0
    6.5605   10.9131   26.3601 C   0  0  0  0  0  0  0  0  0  0  0  0
    7.2122   10.1332   25.4032 C   0  0  0  0  0  0  0  0  0  0  0  0
    8.1823   10.7462   24.5998 C   0  0  0  0  0  0  0  0  0  0  0  0
  1  2  2  0
  2  3  1  0
  3  4  1  0
  4  5  1  0
  5  6  2  0
  6  7  1  0
  7  8  2  0
  7  9  1  0
  9 10  1  0
 10 11  1  1
 10 12  1  0
 12 13  2  0
  6 14  1  0
 14 15  2  0
 15 16  1  0
 16 17  2  0
 17 18  1  0
 18 19  2  0
 19  4  1  0
 19 14  1  0
M  END
>  <alias>  (1444) 
None

>  <rmsd(smina/fragmenstein)>  (1444) 
1.137

>  <smiles>  (1444) 
C=CCn1cc(C(=O)N[C@@H](C)C=C)c2ccccc21

>  <gnina_score>  (1444) 
5.355

>  <inspiration_score>  (1444) 
None

>  <energy_score>  (1444) 
-10.623668

>  <distance_score>  (1444) 
0.599227

>  <gnina_score_min>  (1444) 
5.444

>  <inchikey>  (1444) 
IJBSQFMGRNKYKR-LBPRGKRZSA-N

>  <exports>  (1444) 
['/opt/xchem-fragalysis-2/maxwin/BulkDock/OUTPUTS/openbind_a71ev2a_c2_elabs_1LOUU54.sdf', '/opt/xchem-fragalysis-2/maxwin/BulkDock/OUTPUTS/openbind_a71ev2a_c2_elabs_1LSYIDY.sdf']

>  <name>  (1444) 
P577413

>  <ref_pdb>  (1444) 
A3066a

>  <subsites>  (1444) 
None

>  <HIPPO Pose ID>  (1444) 
577413

>  <ref_mols>  (1444) 
A3066a

>  <HIPPO Compound ID>  (1444) 
351372

>  <tags>  (1444) 
openbind_a71ev2a_c2_elabs,syndirella_product,openbind_a71ev2a_c2_elabs_fragonly_scored_top80percent,openbind_a71ev2a_c2_elabs_scored,BulkDock Fragalysis export,openbind_a71ev2a_c2_elabs_scored_top80percent,openbind_a71ev2a_c2_elabs_activefrags_only_scored_5.2plus,syndirella_placed

>  <smina_score_min>  (1444) 
-6.434

$$$$
P577416
     RDKit          3D

 19 20  0  0  0  0  0  0  0  0999 V2000
   10.2619    8.8104   21.9678 C   0  0  0  0  0  0  0  0  0  0  0  0
    9.5608    8.7137   22.9241 C   0  0  0  0  0  0  0  0  0  0  0  0
    8.7525    9.0440   24.0571 C   0  0  0  0  0  0  0  0  0  0  0  0
    8.7668   10.4821   24.2972 N   0  0  0  0  0  0  0  0  0  0  0  0
    9.5826   11.3954   23.6916 C   0  0  0  0  0  0  0  0  0  0  0  0
    9.2158   12.6528   24.0990 C   0  0  0  0  0  0  0  0  0  0  0  0
    9.8469   13.8214   23.5343 C   0  0  0  0  0  0  0  0  0  0  0  0
   10.8215   14.2662   23.9900 O   0  0  0  0  0  0  0  0  0  0  0  0
    9.0691   14.2146   22.2697 N   0  0  0  0  0  0  0  0  0  0  0  0
    9.3775   15.1816   21.2393 C   0  0  0  0  0  0  0  0  0  0  0  0
   10.6697   14.8426   20.4902 C   0  0  0  0  0  0  0  0  0  0  0  0
   11.8758   14.9759   21.3173 N   0  0  0  0  0  0  0  0  0  0  0  0
   12.8977   14.2228   20.6083 O   0  0  0  0  0  0  0  0  0  0  0  0
    8.1878   12.4970   25.0597 C   0  0  0  0  0  0  0  0  0  0  0  0
    7.4476   13.3909   25.8499 C   0  0  0  0  0  0  0  0  0  0  0  0
    6.4796   12.8869   26.7235 C   0  0  0  0  0  0  0  0  0  0  0  0
    6.2268   11.5208   26.8021 C   0  0  0  0  0  0  0  0  0  0  0  0
    6.9249   10.6148   26.0079 C   0  0  0  0  0  0  0  0  0  0  0  0
    7.9140   11.1272   25.1604 C   0  0  0  0  0  0  0  0  0  0  0  0
  1  2  3  0
  2  3  1  0
  3  4  1  0
  4  5  1  0
  5  6  2  0
  6  7  1  0
  7  8  2  0
  7  9  1  0
  9 10  1  0
 10 11  1  0
 11 12  1  0
 12 13  1  0
  6 14  1  0
 14 15  2  0
 15 16  1  0
 16 17  2  0
 17 18  1  0
 18 19  2  0
 19  4  1  0
 19 14  1  0
M  END
>  <alias>  (1445) 
None

>  <rmsd(smina/fragmenstein)>  (1445) 
0.61

>  <smiles>  (1445) 
C#CCn1cc(C(=O)NCCNO)c2ccccc21

>  <gnina_score>  (1445) 
5.374

>  <inspiration_score>  (1445) 
None

>  <energy_score>  (1445) 
-9.503879

>  <distance_score>  (1445) 
1.506611

>  <gnina_score_min>  (1445) 
5.444

>  <inchikey>  (1445) 
YEGBBDDAWICMAA-UHFFFAOYSA-N

>  <exports>  (1445) 
['/opt/xchem-fragalysis-2/maxwin/BulkDock/OUTPUTS/openbind_a71ev2a_c2_elabs_1LOUU54.sdf', '/opt/xchem-fragalysis-2/maxwin/BulkDock/OUTPUTS/openbind_a71ev2a_c2_elabs_1LSYIDY.sdf']

>  <name>  (1445) 
P577416

>  <ref_pdb>  (1445) 
A3066a

>  <subsites>  (1445) 
None

>  <HIPPO Pose ID>  (1445) 
577416

>  <ref_mols>  (1445) 
A3066a

>  <HIPPO Compound ID>  (1445) 
351390

>  <tags>  (1445) 
openbind_a71ev2a_c2_elabs,syndirella_product,openbind_a71ev2a_c2_elabs_fragonly_scored_top80percent,openbind_a71ev2a_c2_elabs_scored,BulkDock Fragalysis export,openbind_a71ev2a_c2_elabs_scored_top80percent,openbind_a71ev2a_c2_elabs_activefrags_only_scored_5.2plus,syndirella_placed

>  <smina_score_min>  (1445) 
-6.071

$$$$
P577419
     RDKit          3D

 19 20  0  0  0  0  0  0  0  0999 V2000
   10.9584    7.8842   23.3911 C   0  0  0  0  0  0  0  0  0  0  0  0
    9.8528    8.2512   23.6255 C   0  0  0  0  0  0  0  0  0  0  0  0
    8.5640    8.8376   23.8473 C   0  0  0  0  0  0  0  0  0  0  0  0
    8.6699   10.2446   24.1679 N   0  0  0  0  0  0  0  0  0  0  0  0
    9.5880   11.0979   23.6272 C   0  0  0  0  0  0  0  0  0  0  0  0
    9.5009   12.2997   24.2988 C   0  0  0  0  0  0  0  0  0  0  0  0
   10.3709   13.4402   24.0669 C   0  0  0  0  0  0  0  0  0  0  0  0
   10.7578   14.1201   24.9245 O   0  0  0  0  0  0  0  0  0  0  0  0
   10.5349   13.5635   22.5577 N   0  0  0  0  0  0  0  0  0  0  0  0
   11.2886   14.4959   21.7768 C   0  0  0  0  0  0  0  0  0  0  0  0
   10.4719   14.7634   20.5165 C   0  0  1  0  0  0  0  0  0  0  0  0
    9.6961   16.0622   20.5310 C   0  0  0  0  0  0  0  0  0  0  0  0
   11.6044   14.5804   18.9668 Br  0  0  0  0  0  0  0  0  0  0  0  0
    8.3911   12.2021   25.1809 C   0  0  0  0  0  0  0  0  0  0  0  0
    7.7575   13.1114   26.0478 C   0  0  0  0  0  0  0  0  0  0  0  0
    6.6962   12.6748   26.8424 C   0  0  0  0  0  0  0  0  0  0  0  0
    6.2577   11.3574   26.7778 C   0  0  0  0  0  0  0  0  0  0  0  0
    6.8410   10.4466   25.8980 C   0  0  0  0  0  0  0  0  0  0  0  0
    7.9046   10.8954   25.1041 C   0  0  0  0  0  0  0  0  0  0  0  0
  1  2  3  0
  2  3  1  0
  3  4  1  0
  4  5  1  0
  5  6  2  0
  6  7  1  0
  7  8  2  0
  7  9  1  0
  9 10  1  0
 10 11  1  0
 11 12  1  1
 11 13  1  0
  6 14  1  0
 14 15  2  0
 15 16  1  0
 16 17  2  0
 17 18  1  0
 18 19  2  0
 19  4  1  0
 19 14  1  0
M  END
>  <alias>  (1446) 
None

>  <rmsd(smina/fragmenstein)>  (1446) 
0.892

>  <smiles>  (1446) 
C#CCn1cc(C(=O)NC[C@@H](C)Br)c2ccccc21

>  <gnina_score>  (1446) 
5.37

>  <inspiration_score>  (1446) 
None

>  <energy_score>  (1446) 
-3.367362

>  <distance_score>  (1446) 
0.966148

>  <gnina_score_min>  (1446) 
5.296

>  <inchikey>  (1446) 
AHQONQMWTBPXNK-LLVKDONJSA-N

>  <exports>  (1446) 
['/opt/xchem-fragalysis-2/maxwin/BulkDock/OUTPUTS/openbind_a71ev2a_c2_elabs_1LOUU54.sdf', '/opt/xchem-fragalysis-2/maxwin/BulkDock/OUTPUTS/openbind_a71ev2a_c2_elabs_1LSYIDY.sdf']

>  <name>  (1446) 
P577419

>  <ref_pdb>  (1446) 
A3066a

>  <subsites>  (1446) 
None

>  <HIPPO Pose ID>  (1446) 
577419

>  <ref_mols>  (1446) 
A3066a

>  <HIPPO Compound ID>  (1446) 
351401

>  <tags>  (1446) 
openbind_a71ev2a_c2_elabs,syndirella_product,openbind_a71ev2a_c2_elabs_fragonly_scored_top80percent,openbind_a71ev2a_c2_elabs_scored,BulkDock Fragalysis export,openbind_a71ev2a_c2_elabs_scored_top80percent,openbind_a71ev2a_c2_elabs_activefrags_only_scored_5.2plus,syndirella_placed

>  <smina_score_min>  (1446) 
-5.566

$$$$
P577420
     RDKit          3D

 19 20  0  0  0  0  0  0  0  0999 V2000
    8.7741    7.5087   21.9841 C   0  0  0  0  0  0  0  0  0  0  0  0
    9.3055    8.1419   22.8356 C   0  0  0  0  0  0  0  0  0  0  0  0
    9.7284    8.8216   24.0038 C   0  0  0  0  0  0  0  0  0  0  0  0
    9.2376   10.1787   24.0395 N   0  0  0  0  0  0  0  0  0  0  0  0
    9.9003   11.2041   23.4393 C   0  0  0  0  0  0  0  0  0  0  0  0
    9.5364   12.3479   24.1107 C   0  0  0  0  0  0  0  0  0  0  0  0
   10.2233   13.5976   23.9631 C   0  0  0  0  0  0  0  0  0  0  0  0
   10.6233   14.1923   24.8830 O   0  0  0  0  0  0  0  0  0  0  0  0
   10.3090   13.9105   22.4565 N   0  0  0  0  0  0  0  0  0  0  0  0
   10.9538   14.9201   21.7931 N   0  0  0  0  0  0  0  0  0  0  0  0
   12.2540   15.1542   22.4025 C   0  0  0  0  0  0  0  0  0  0  0  0
   11.0312   14.6525   20.3554 C   0  0  0  0  0  0  0  0  0  0  0  0
   12.3473   14.0706   19.8697 C   0  0  0  0  0  0  0  0  0  0  0  0
    8.4411   12.0387   24.9507 C   0  0  0  0  0  0  0  0  0  0  0  0
    7.6154   12.7978   25.8005 C   0  0  0  0  0  0  0  0  0  0  0  0
    6.6124   12.1561   26.5293 C   0  0  0  0  0  0  0  0  0  0  0  0
    6.4239   10.7833   26.4129 C   0  0  0  0  0  0  0  0  0  0  0  0
    7.2240   10.0171   25.5645 C   0  0  0  0  0  0  0  0  0  0  0  0
    8.2391   10.6634   24.8538 C   0  0  0  0  0  0  0  0  0  0  0  0
  1  2  3  0
  2  3  1  0
  3  4  1  0
  4  5  1  0
  5  6  2  0
  6  7  1  0
  7  8  2  0
  7  9  1  0
  9 10  1  0
 10 11  1  0
 10 12  1  0
 12 13  1  0
  6 14  1  0
 14 15  2  0
 15 16  1  0
 16 17  2  0
 17 18  1  0
 18 19  2  0
 19  4  1  0
 19 14  1  0
M  END
>  <alias>  (1447) 
None

>  <rmsd(smina/fragmenstein)>  (1447) 
1.404

>  <smiles>  (1447) 
C#CCn1cc(C(=O)NN(C)CC)c2ccccc21

>  <gnina_score>  (1447) 
5.484

>  <inspiration_score>  (1447) 
None

>  <energy_score>  (1447) 
-8.298544

>  <distance_score>  (1447) 
0.827777

>  <gnina_score_min>  (1447) 
5.636

>  <inchikey>  (1447) 
FBSSCKWQFRKCPB-UHFFFAOYSA-N

>  <exports>  (1447) 
['/opt/xchem-fragalysis-2/maxwin/BulkDock/OUTPUTS/openbind_a71ev2a_c2_elabs_1LOUU54.sdf', '/opt/xchem-fragalysis-2/maxwin/BulkDock/OUTPUTS/openbind_a71ev2a_c2_elabs_1LSYIDY.sdf']

>  <name>  (1447) 
P577420

>  <ref_pdb>  (1447) 
A3066a

>  <subsites>  (1447) 
None

>  <HIPPO Pose ID>  (1447) 
577420

>  <ref_mols>  (1447) 
A3066a

>  <HIPPO Compound ID>  (1447) 
351418

>  <tags>  (1447) 
openbind_a71ev2a_c2_elabs,syndirella_product,openbind_a71ev2a_c2_elabs_fragonly_scored_top80percent,BulkDock Fragalysis export,openbind_a71ev2a_c2_elabs_scored,openbind_a71ev2a_c2_elabs_scored_top80percent,openbind_a71ev2a_c2_elabs_activefrags_only_scored_5.2plus,openbind_a71ev2a_c2_elabs_activefrags_only_scored_5.5plus,syndirella_placed

>  <smina_score_min>  (1447) 
-6.21

$$$$
P577421
     RDKit          3D

 19 20  0  0  0  0  0  0  0  0999 V2000
    9.6238   15.6612   19.8904 C   0  0  0  0  0  0  0  0  0  0  0  0
   10.3859   15.3080   20.7484 C   0  0  0  0  0  0  0  0  0  0  0  0
   11.2518   14.8438   21.8353 C   0  0  2  0  0  0  0  0  0  0  0  0
   12.5658   14.2684   21.3612 C   0  0  0  0  0  0  0  0  0  0  0  0
   10.5118   13.8769   22.5760 N   0  0  0  0  0  0  0  0  0  0  0  0
   10.4174   13.6392   24.0812 C   0  0  0  0  0  0  0  0  0  0  0  0
   10.8665   14.2399   24.9689 O   0  0  0  0  0  0  0  0  0  0  0  0
    9.5883   12.4745   24.2976 C   0  0  0  0  0  0  0  0  0  0  0  0
    9.8501   11.2631   23.7088 C   0  0  0  0  0  0  0  0  0  0  0  0
    9.0238   10.3299   24.2671 N   0  0  0  0  0  0  0  0  0  0  0  0
    9.2485    8.9014   24.1574 C   0  0  0  0  0  0  0  0  0  0  0  0
    9.0206    8.4376   22.7971 C   0  0  0  0  0  0  0  0  0  0  0  0
    9.9008    8.6724   21.8364 C   0  0  0  0  0  0  0  0  0  0  0  0
    8.0985   10.9427   25.0746 C   0  0  0  0  0  0  0  0  0  0  0  0
    7.0245   10.4194   25.8045 C   0  0  0  0  0  0  0  0  0  0  0  0
    6.3085   11.2939   26.6205 C   0  0  0  0  0  0  0  0  0  0  0  0
    6.6252   12.6469   26.6765 C   0  0  0  0  0  0  0  0  0  0  0  0
    7.6859   13.1633   25.9289 C   0  0  0  0  0  0  0  0  0  0  0  0
    8.4457   12.2978   25.1218 C   0  0  0  0  0  0  0  0  0  0  0  0
  1  2  3  0
  2  3  1  0
  3  4  1  6
  3  5  1  0
  5  6  1  0
  6  7  2  0
  6  8  1  0
  8  9  2  0
  9 10  1  0
 10 11  1  0
 11 12  1  0
 12 13  2  0
 10 14  1  0
 14 15  2  0
 15 16  1  0
 16 17  2  0
 17 18  1  0
 18 19  2  0
 19  8  1  0
 19 14  1  0
M  END
>  <alias>  (1448) 
None

>  <rmsd(smina/fragmenstein)>  (1448) 
0.677

>  <smiles>  (1448) 
C#C[C@H](C)NC(=O)c1cn(CC=C)c2ccccc12

>  <gnina_score>  (1448) 
5.401

>  <inspiration_score>  (1448) 
None

>  <energy_score>  (1448) 
-2.685146

>  <distance_score>  (1448) 
0.928119

>  <gnina_score_min>  (1448) 
5.438

>  <inchikey>  (1448) 
DADSQGJWAPBYEB-LBPRGKRZSA-N

>  <exports>  (1448) 
['/opt/xchem-fragalysis-2/maxwin/BulkDock/OUTPUTS/openbind_a71ev2a_c2_elabs_1LOUU54.sdf', '/opt/xchem-fragalysis-2/maxwin/BulkDock/OUTPUTS/openbind_a71ev2a_c2_elabs_1LSYIDY.sdf']

>  <name>  (1448) 
P577421

>  <ref_pdb>  (1448) 
A3066a

>  <subsites>  (1448) 
None

>  <HIPPO Pose ID>  (1448) 
577421

>  <ref_mols>  (1448) 
A3066a

>  <HIPPO Compound ID>  (1448) 
351422

>  <tags>  (1448) 
openbind_a71ev2a_c2_elabs,syndirella_product,openbind_a71ev2a_c2_elabs_fragonly_scored_top80percent,openbind_a71ev2a_c2_elabs_scored,BulkDock Fragalysis export,openbind_a71ev2a_c2_elabs_scored_top80percent,openbind_a71ev2a_c2_elabs_activefrags_only_scored_5.2plus,syndirella_placed

>  <smina_score_min>  (1448) 
-6.306

$$$$
P577423
     RDKit          3D

 20 21  0  0  0  0  0  0  0  0999 V2000
   10.1349    9.1028   21.9811 C   0  0  0  0  0  0  0  0  0  0  0  0
   10.0831    8.8529   23.4609 C   0  0  0  0  0  0  0  0  0  0  0  0
   10.3433    7.3985   23.6410 C   0  0  0  0  0  0  0  0  0  0  0  0
    8.7236    9.1659   24.0404 C   0  0  0  0  0  0  0  0  0  0  0  0
    8.4831   10.5601   24.3186 N   0  0  0  0  0  0  0  0  0  0  0  0
    9.0684   11.5947   23.6752 C   0  0  0  0  0  0  0  0  0  0  0  0
    8.2952   12.7188   23.8787 C   0  0  0  0  0  0  0  0  0  0  0  0
    8.3979   13.8944   23.0273 C   0  0  0  0  0  0  0  0  0  0  0  0
    7.4773   14.4936   22.6558 O   0  0  0  0  0  0  0  0  0  0  0  0
    9.8703   14.0478   22.6982 N   0  0  0  0  0  0  0  0  0  0  0  0
   10.5321   14.9113   21.7664 C   0  0  0  0  0  0  0  0  0  0  0  0
   11.9640   15.1172   22.3111 C   0  0  0  0  0  0  0  0  0  0  0  0
   12.0861   14.9146   23.5645 O   0  0  0  0  0  0  0  0  0  0  0  0
   12.8333   15.4115   21.4612 O   0  0  0  0  0  0  0  0  0  0  0  0
    7.4909   12.4295   25.0006 C   0  0  0  0  0  0  0  0  0  0  0  0
    6.6543   13.2025   25.8184 C   0  0  0  0  0  0  0  0  0  0  0  0
    5.9495   12.5802   26.8489 C   0  0  0  0  0  0  0  0  0  0  0  0
    6.0115   11.2013   27.0221 C   0  0  0  0  0  0  0  0  0  0  0  0
    6.7918   10.4062   26.1854 C   0  0  0  0  0  0  0  0  0  0  0  0
    7.5773   11.0495   25.2258 C   0  0  0  0  0  0  0  0  0  0  0  0
  1  2  1  0
  2  3  1  0
  2  4  1  0
  4  5  1  0
  5  6  1  0
  6  7  2  0
  7  8  1  0
  8  9  2  0
  8 10  1  0
 10 11  1  0
 11 12  1  0
 12 13  2  0
 12 14  1  0
  7 15  1  0
 15 16  2  0
 16 17  1  0
 17 18  2  0
 18 19  1  0
 19 20  2  0
 20  5  1  0
 20 15  1  0
M  CHG  1  14  -1
M  END
>  <alias>  (1449) 
None

>  <rmsd(smina/fragmenstein)>  (1449) 
0.467

>  <smiles>  (1449) 
CC(C)Cn1cc(C(=O)NCC(=O)[O-])c2ccccc21

>  <gnina_score>  (1449) 
5.256

>  <inspiration_score>  (1449) 
None

>  <energy_score>  (1449) 
-20.710121

>  <distance_score>  (1449) 
1.934124

>  <gnina_score_min>  (1449) 
5.244

>  <inchikey>  (1449) 
XWIQOLIERKGPOI-UHFFFAOYSA-M

>  <exports>  (1449) 
['/opt/xchem-fragalysis-2/maxwin/BulkDock/OUTPUTS/openbind_a71ev2a_c2_elabs_1LOUU54.sdf', '/opt/xchem-fragalysis-2/maxwin/BulkDock/OUTPUTS/openbind_a71ev2a_c2_elabs_1LSYIDY.sdf']

>  <name>  (1449) 
P577423

>  <ref_pdb>  (1449) 
A3066a

>  <subsites>  (1449) 
None

>  <HIPPO Pose ID>  (1449) 
577423

>  <ref_mols>  (1449) 
A3066a

>  <HIPPO Compound ID>  (1449) 
351435

>  <tags>  (1449) 
openbind_a71ev2a_c2_elabs,syndirella_product,openbind_a71ev2a_c2_elabs_fragonly_scored_top80percent,openbind_a71ev2a_c2_elabs_scored,BulkDock Fragalysis export,openbind_a71ev2a_c2_elabs_scored_top80percent,openbind_a71ev2a_c2_elabs_activefrags_only_scored_5.2plus,syndirella_placed

>  <smina_score_min>  (1449) 
-4.836

$$$$
P577424
     RDKit          3D

 20 21  0  0  0  0  0  0  0  0999 V2000
   10.9332    8.0963   23.4387 C   0  0  0  0  0  0  0  0  0  0  0  0
    9.6712    8.6591   22.8392 C   0  0  0  0  0  0  0  0  0  0  0  0
    8.9469    7.6103   22.0643 C   0  0  0  0  0  0  0  0  0  0  0  0
    8.7805    9.1537   23.9445 C   0  0  0  0  0  0  0  0  0  0  0  0
    8.9328   10.5538   24.2470 N   0  0  0  0  0  0  0  0  0  0  0  0
    9.8921   11.3832   23.7639 C   0  0  0  0  0  0  0  0  0  0  0  0
    9.7546   12.6057   24.3765 C   0  0  0  0  0  0  0  0  0  0  0  0
   10.6878   13.6990   24.1814 C   0  0  0  0  0  0  0  0  0  0  0  0
   11.0870   14.3265   25.0748 O   0  0  0  0  0  0  0  0  0  0  0  0
   10.9242   13.8514   22.6783 N   0  0  0  0  0  0  0  0  0  0  0  0
   11.6176   14.8531   21.9504 C   0  0  0  0  0  0  0  0  0  0  0  0
   10.5795   15.3683   21.0073 C   0  0  0  0  0  0  0  0  0  0  0  0
   10.5497   15.1739   19.6887 C   0  0  0  0  0  0  0  0  0  0  0  0
   11.7595   14.3426   18.8241 Cl  0  0  0  0  0  0  0  0  0  0  0  0
    8.5820   12.5348   25.1810 C   0  0  0  0  0  0  0  0  0  0  0  0
    7.8911   13.4533   25.9909 C   0  0  0  0  0  0  0  0  0  0  0  0
    6.7817   13.0211   26.7251 C   0  0  0  0  0  0  0  0  0  0  0  0
    6.3526   11.6991   26.6630 C   0  0  0  0  0  0  0  0  0  0  0  0
    6.9992   10.7755   25.8459 C   0  0  0  0  0  0  0  0  0  0  0  0
    8.1058   11.2245   25.1118 C   0  0  0  0  0  0  0  0  0  0  0  0
  1  2  1  0
  2  3  1  0
  2  4  1  0
  4  5  1  0
  5  6  1  0
  6  7  2  0
  7  8  1  0
  8  9  2  0
  8 10  1  0
 10 11  1  0
 11 12  1  0
 12 13  2  0
 13 14  1  0
  7 15  1  0
 15 16  2  0
 16 17  1  0
 17 18  2  0
 18 19  1  0
 19 20  2  0
 20  5  1  0
 20 15  1  0
M  END
>  <alias>  (1450) 
None

>  <rmsd(smina/fragmenstein)>  (1450) 
0.186

>  <smiles>  (1450) 
CC(C)Cn1cc(C(=O)NC/C=C\Cl)c2ccccc21

>  <gnina_score>  (1450) 
5.542

>  <inspiration_score>  (1450) 
None

>  <energy_score>  (1450) 
-3.121494

>  <distance_score>  (1450) 
0.993065

>  <gnina_score_min>  (1450) 
5.58

>  <inchikey>  (1450) 
CQVQWQNNTVHMCF-YVMONPNESA-N

>  <exports>  (1450) 
['/opt/xchem-fragalysis-2/maxwin/BulkDock/OUTPUTS/openbind_a71ev2a_c2_elabs_1LOUU54.sdf', '/opt/xchem-fragalysis-2/maxwin/BulkDock/OUTPUTS/openbind_a71ev2a_c2_elabs_1LSYIDY.sdf']

>  <name>  (1450) 
P577424

>  <ref_pdb>  (1450) 
A3066a

>  <subsites>  (1450) 
None

>  <HIPPO Pose ID>  (1450) 
577424

>  <ref_mols>  (1450) 
A3066a

>  <HIPPO Compound ID>  (1450) 
351437

>  <tags>  (1450) 
openbind_a71ev2a_c2_elabs,syndirella_product,openbind_a71ev2a_c2_elabs_fragonly_scored_top80percent,BulkDock Fragalysis export,openbind_a71ev2a_c2_elabs_scored,openbind_a71ev2a_c2_elabs_scored_top80percent,openbind_a71ev2a_c2_elabs_activefrags_only_scored_5.2plus,openbind_a71ev2a_c2_elabs_activefrags_only_scored_5.5plus,syndirella_placed

>  <smina_score_min>  (1450) 
-3.787

$$$$
P577425
     RDKit          3D

 20 21  0  0  0  0  0  0  0  0999 V2000
   10.9674    8.1375   23.5269 C   0  0  0  0  0  0  0  0  0  0  0  0
    9.4822    8.2986   23.4926 C   0  0  0  0  0  0  0  0  0  0  0  0
    8.9688    7.5604   22.2835 C   0  0  0  0  0  0  0  0  0  0  0  0
    9.0374    9.6857   23.2029 C   0  0  0  0  0  0  0  0  0  0  0  0
    9.4070   10.7864   24.0211 N   0  0  0  0  0  0  0  0  0  0  0  0
   10.3520   11.6571   23.5878 C   0  0  0  0  0  0  0  0  0  0  0  0
   10.0723   12.8862   24.1268 C   0  0  0  0  0  0  0  0  0  0  0  0
   10.7804   14.0553   23.6604 C   0  0  0  0  0  0  0  0  0  0  0  0
   11.4487   14.7065   24.3547 O   0  0  0  0  0  0  0  0  0  0  0  0
   10.4966   14.1720   22.1583 N   0  0  0  0  0  0  0  0  0  0  0  0
   10.8984   15.1692   21.2082 C   0  0  2  0  0  0  0  0  0  0  0  0
    9.6578   15.8435   20.6290 C   0  0  0  0  0  0  0  0  0  0  0  0
   11.6809   14.5540   20.1208 C   0  0  0  0  0  0  0  0  0  0  0  0
   12.2839   14.0936   19.2437 N   0  0  0  0  0  0  0  0  0  0  0  0
    8.9433   12.7249   24.9868 C   0  0  0  0  0  0  0  0  0  0  0  0
    8.1499   13.5920   25.7606 C   0  0  0  0  0  0  0  0  0  0  0  0
    7.0506   13.0808   26.4663 C   0  0  0  0  0  0  0  0  0  0  0  0
    6.7191   11.7305   26.4036 C   0  0  0  0  0  0  0  0  0  0  0  0
    7.4663   10.8531   25.6234 C   0  0  0  0  0  0  0  0  0  0  0  0
    8.5685   11.3777   24.9305 C   0  0  0  0  0  0  0  0  0  0  0  0
  1  2  1  0
  2  3  1  0
  2  4  1  0
  4  5  1  0
  5  6  1  0
  6  7  2  0
  7  8  1  0
  8  9  2  0
  8 10  1  0
 10 11  1  0
 11 12  1  6
 11 13  1  0
 13 14  3  0
  7 15  1  0
 15 16  2  0
 16 17  1  0
 17 18  2  0
 18 19  1  0
 19 20  2  0
 20  5  1  0
 20 15  1  0
M  END
>  <alias>  (1451) 
None

>  <rmsd(smina/fragmenstein)>  (1451) 
0.479

>  <smiles>  (1451) 
CC(C)Cn1cc(C(=O)N[C@H](C)C#N)c2ccccc21

>  <gnina_score>  (1451) 
5.763

>  <inspiration_score>  (1451) 
None

>  <energy_score>  (1451) 
-3.321939

>  <distance_score>  (1451) 
1.075436

>  <gnina_score_min>  (1451) 
5.772

>  <inchikey>  (1451) 
KMIDKJXLLFIHBE-GFCCVEGCSA-N

>  <exports>  (1451) 
['/opt/xchem-fragalysis-2/maxwin/BulkDock/OUTPUTS/openbind_a71ev2a_c2_elabs_1LOUU54.sdf', '/opt/xchem-fragalysis-2/maxwin/BulkDock/OUTPUTS/openbind_a71ev2a_c2_elabs_1LSYIDY.sdf']

>  <name>  (1451) 
P577425

>  <ref_pdb>  (1451) 
A3066a

>  <subsites>  (1451) 
None

>  <HIPPO Pose ID>  (1451) 
577425

>  <ref_mols>  (1451) 
A3066a

>  <HIPPO Compound ID>  (1451) 
351468

>  <tags>  (1451) 
openbind_a71ev2a_c2_elabs,syndirella_product,openbind_a71ev2a_c2_elabs_fragonly_scored_top80percent,BulkDock Fragalysis export,openbind_a71ev2a_c2_elabs_scored,openbind_a71ev2a_c2_elabs_scored_top80percent,openbind_a71ev2a_c2_elabs_activefrags_only_scored_5.2plus,openbind_a71ev2a_c2_elabs_activefrags_only_scored_5.5plus,syndirella_placed

>  <smina_score_min>  (1451) 
-3.156

$$$$
P577426
     RDKit          3D

 20 21  0  0  0  0  0  0  0  0999 V2000
    8.4439    8.1920   23.0275 C   0  0  0  0  0  0  0  0  0  0  0  0
    9.8895    8.4199   22.9387 C   0  0  0  0  0  0  0  0  0  0  0  0
   10.1877    8.9979   21.6126 C   0  0  0  0  0  0  0  0  0  0  0  0
   10.1824    9.3721   24.0290 C   0  0  0  0  0  0  0  0  0  0  0  0
    9.5342   10.6657   24.0184 N   0  0  0  0  0  0  0  0  0  0  0  0
   10.0293   11.7096   23.3086 C   0  0  0  0  0  0  0  0  0  0  0  0
    9.1923   12.7919   23.4692 C   0  0  0  0  0  0  0  0  0  0  0  0
    9.2827   14.0075   22.6744 C   0  0  0  0  0  0  0  0  0  0  0  0
    8.3397   14.6157   22.3770 O   0  0  0  0  0  0  0  0  0  0  0  0
   10.7465   14.1957   22.2831 N   0  0  0  0  0  0  0  0  0  0  0  0
   11.3553   15.1144   21.3669 C   0  0  1  0  0  0  0  0  0  0  0  0
   12.8488   14.8916   21.5549 C   0  0  0  0  0  0  0  0  0  0  0  0
   10.8325   14.9065   19.9347 C   0  0  0  0  0  0  0  0  0  0  0  0
   11.6734   14.0358   19.1940 O   0  0  0  0  0  0  0  0  0  0  0  0
    8.2624   12.4352   24.4822 C   0  0  0  0  0  0  0  0  0  0  0  0
    7.2489   13.1338   25.1640 C   0  0  0  0  0  0  0  0  0  0  0  0
    6.4404   12.4602   26.0834 C   0  0  0  0  0  0  0  0  0  0  0  0
    6.5898   11.0947   26.2854 C   0  0  0  0  0  0  0  0  0  0  0  0
    7.5765   10.3797   25.6075 C   0  0  0  0  0  0  0  0  0  0  0  0
    8.4434   11.0750   24.7533 C   0  0  0  0  0  0  0  0  0  0  0  0
  1  2  1  0
  2  3  1  0
  2  4  1  0
  4  5  1  0
  5  6  1  0
  6  7  2  0
  7  8  1  0
  8  9  2  0
  8 10  1  0
 10 11  1  0
 11 12  1  6
 11 13  1  0
 13 14  1  0
  7 15  1  0
 15 16  2  0
 16 17  1  0
 17 18  2  0
 18 19  1  0
 19 20  2  0
 20  5  1  0
 20 15  1  0
M  END
>  <alias>  (1452) 
None

>  <rmsd(smina/fragmenstein)>  (1452) 
0.472

>  <smiles>  (1452) 
CC(C)Cn1cc(C(=O)N[C@@H](C)CO)c2ccccc21

>  <gnina_score>  (1452) 
5.451

>  <inspiration_score>  (1452) 
None

>  <energy_score>  (1452) 
-0.648585

>  <distance_score>  (1452) 
1.406856

>  <gnina_score_min>  (1452) 
5.506

>  <inchikey>  (1452) 
FVJIKEVCRYBVLB-LBPRGKRZSA-N

>  <exports>  (1452) 
['/opt/xchem-fragalysis-2/maxwin/BulkDock/OUTPUTS/openbind_a71ev2a_c2_elabs_1LOUU54.sdf', '/opt/xchem-fragalysis-2/maxwin/BulkDock/OUTPUTS/openbind_a71ev2a_c2_elabs_1LSYIDY.sdf']

>  <name>  (1452) 
P577426

>  <ref_pdb>  (1452) 
A3066a

>  <subsites>  (1452) 
None

>  <HIPPO Pose ID>  (1452) 
577426

>  <ref_mols>  (1452) 
A3066a

>  <HIPPO Compound ID>  (1452) 
351472

>  <tags>  (1452) 
openbind_a71ev2a_c2_elabs,syndirella_product,openbind_a71ev2a_c2_elabs_fragonly_scored_top80percent,BulkDock Fragalysis export,openbind_a71ev2a_c2_elabs_scored,openbind_a71ev2a_c2_elabs_scored_top80percent,openbind_a71ev2a_c2_elabs_activefrags_only_scored_5.2plus,openbind_a71ev2a_c2_elabs_activefrags_only_scored_5.5plus,syndirella_placed

>  <smina_score_min>  (1452) 
-3.216

$$$$
P577427
     RDKit          3D

 20 21  0  0  0  0  0  0  0  0999 V2000
   11.5925   14.5439   19.5118 C   0  0  0  0  0  0  0  0  0  0  0  0
   11.1082   14.9662   20.6830 C   0  0  0  0  0  0  0  0  0  0  0  0
    9.9206   15.6158   20.6685 F   0  0  0  0  0  0  0  0  0  0  0  0
   11.7908   14.7577   21.9973 C   0  0  0  0  0  0  0  0  0  0  0  0
   10.9320   13.8965   22.7413 N   0  0  0  0  0  0  0  0  0  0  0  0
   10.6415   13.8356   24.2461 C   0  0  0  0  0  0  0  0  0  0  0  0
   11.1138   14.4273   25.1310 O   0  0  0  0  0  0  0  0  0  0  0  0
    9.6590   12.7821   24.4473 C   0  0  0  0  0  0  0  0  0  0  0  0
    9.8089   11.5727   23.8188 C   0  0  0  0  0  0  0  0  0  0  0  0
    8.8565   10.7099   24.2539 N   0  0  0  0  0  0  0  0  0  0  0  0
    8.8310    9.2860   23.9865 C   0  0  0  0  0  0  0  0  0  0  0  0
   10.1355    8.8010   23.4059 C   0  0  0  0  0  0  0  0  0  0  0  0
   10.2823    7.3420   23.6050 C   0  0  0  0  0  0  0  0  0  0  0  0
   10.1562    9.0847   21.9317 C   0  0  0  0  0  0  0  0  0  0  0  0
    8.0256   11.3495   25.1359 C   0  0  0  0  0  0  0  0  0  0  0  0
    6.9282   10.8641   25.8579 C   0  0  0  0  0  0  0  0  0  0  0  0
    6.2853   11.7483   26.7192 C   0  0  0  0  0  0  0  0  0  0  0  0
    6.7068   13.0695   26.8337 C   0  0  0  0  0  0  0  0  0  0  0  0
    7.8046   13.5431   26.1075 C   0  0  0  0  0  0  0  0  0  0  0  0
    8.4945   12.6667   25.2532 C   0  0  0  0  0  0  0  0  0  0  0  0
  1  2  2  0
  2  3  1  0
  2  4  1  0
  4  5  1  0
  5  6  1  0
  6  7  2  0
  6  8  1  0
  8  9  2  0
  9 10  1  0
 10 11  1  0
 11 12  1  0
 12 13  1  0
 12 14  1  0
 10 15  1  0
 15 16  2  0
 16 17  1  0
 17 18  2  0
 18 19  1  0
 19 20  2  0
 20  8  1  0
 20 15  1  0
M  END
>  <alias>  (1453) 
None

>  <rmsd(smina/fragmenstein)>  (1453) 
0.52

>  <smiles>  (1453) 
C=C(F)CNC(=O)c1cn(CC(C)C)c2ccccc12

>  <gnina_score>  (1453) 
5.401

>  <inspiration_score>  (1453) 
None

>  <energy_score>  (1453) 
-2.093209

>  <distance_score>  (1453) 
1.101771

>  <gnina_score_min>  (1453) 
5.563

>  <inchikey>  (1453) 
VQYWALKXACAJKS-UHFFFAOYSA-N

>  <exports>  (1453) 
['/opt/xchem-fragalysis-2/maxwin/BulkDock/OUTPUTS/openbind_a71ev2a_c2_elabs_1LOUU54.sdf', '/opt/xchem-fragalysis-2/maxwin/BulkDock/OUTPUTS/openbind_a71ev2a_c2_elabs_1LSYIDY.sdf']

>  <name>  (1453) 
P577427

>  <ref_pdb>  (1453) 
A3066a

>  <subsites>  (1453) 
None

>  <HIPPO Pose ID>  (1453) 
577427

>  <ref_mols>  (1453) 
A3066a

>  <HIPPO Compound ID>  (1453) 
351491

>  <tags>  (1453) 
openbind_a71ev2a_c2_elabs,syndirella_product,openbind_a71ev2a_c2_elabs_fragonly_scored_top80percent,BulkDock Fragalysis export,openbind_a71ev2a_c2_elabs_scored,openbind_a71ev2a_c2_elabs_scored_top80percent,openbind_a71ev2a_c2_elabs_activefrags_only_scored_5.2plus,openbind_a71ev2a_c2_elabs_activefrags_only_scored_5.5plus,syndirella_placed

>  <smina_score_min>  (1453) 
-4.946

$$$$
P577428
     RDKit          3D

 20 21  0  0  0  0  0  0  0  0999 V2000
   12.4901   14.1053   20.7673 C   0  0  0  0  0  0  0  0  0  0  0  0
   12.0426   15.0044   21.8957 C   0  0  0  0  0  0  0  0  0  0  0  0
   10.6070   15.1174   22.0827 N   0  0  0  0  0  0  0  0  0  0  0  0
    9.8116   15.4729   20.9183 C   0  0  0  0  0  0  0  0  0  0  0  0
   10.0610   14.1034   22.8009 N   0  0  0  0  0  0  0  0  0  0  0  0
   10.1290   13.7946   24.3176 C   0  0  0  0  0  0  0  0  0  0  0  0
   10.7282   14.3208   25.1718 O   0  0  0  0  0  0  0  0  0  0  0  0
    9.3079   12.6409   24.5415 C   0  0  0  0  0  0  0  0  0  0  0  0
    9.5651   11.4779   23.8737 C   0  0  0  0  0  0  0  0  0  0  0  0
    8.6931   10.5337   24.3015 N   0  0  0  0  0  0  0  0  0  0  0  0
    8.7637    9.1324   23.9653 C   0  0  0  0  0  0  0  0  0  0  0  0
   10.1128    8.7577   23.4094 C   0  0  0  0  0  0  0  0  0  0  0  0
   10.1504    9.0611   21.9393 C   0  0  0  0  0  0  0  0  0  0  0  0
   10.3274    7.3080   23.6008 C   0  0  0  0  0  0  0  0  0  0  0  0
    7.8381   11.0692   25.2310 C   0  0  0  0  0  0  0  0  0  0  0  0
    6.8049   10.4809   25.9682 C   0  0  0  0  0  0  0  0  0  0  0  0
    6.1351   11.2845   26.8887 C   0  0  0  0  0  0  0  0  0  0  0  0
    6.4537   12.6310   27.0348 C   0  0  0  0  0  0  0  0  0  0  0  0
    7.4782   13.2111   26.2844 C   0  0  0  0  0  0  0  0  0  0  0  0
    8.1990   12.4118   25.3838 C   0  0  0  0  0  0  0  0  0  0  0  0
  1  2  1  0
  2  3  1  0
  3  4  1  0
  3  5  1  0
  5  6  1  0
  6  7  2  0
  6  8  1  0
  8  9  2  0
  9 10  1  0
 10 11  1  0
 11 12  1  0
 12 13  1  0
 12 14  1  0
 10 15  1  0
 15 16  2  0
 16 17  1  0
 17 18  2  0
 18 19  1  0
 19 20  2  0
 20  8  1  0
 20 15  1  0
M  END
>  <alias>  (1454) 
None

>  <rmsd(smina/fragmenstein)>  (1454) 
0.327

>  <smiles>  (1454) 
CCN(C)NC(=O)c1cn(CC(C)C)c2ccccc12

>  <gnina_score>  (1454) 
5.745

>  <inspiration_score>  (1454) 
None

>  <energy_score>  (1454) 
-6.749584

>  <distance_score>  (1454) 
1.288253

>  <gnina_score_min>  (1454) 
5.859

>  <inchikey>  (1454) 
ZCKQEYJTXJNQRR-UHFFFAOYSA-N

>  <exports>  (1454) 
['/opt/xchem-fragalysis-2/maxwin/BulkDock/OUTPUTS/openbind_a71ev2a_c2_elabs_1LOUU54.sdf', '/opt/xchem-fragalysis-2/maxwin/BulkDock/OUTPUTS/openbind_a71ev2a_c2_elabs_1LSYIDY.sdf']

>  <name>  (1454) 
P577428

>  <ref_pdb>  (1454) 
A3066a

>  <subsites>  (1454) 
None

>  <HIPPO Pose ID>  (1454) 
577428

>  <ref_mols>  (1454) 
A3066a

>  <HIPPO Compound ID>  (1454) 
351502

>  <tags>  (1454) 
openbind_a71ev2a_c2_elabs,syndirella_product,openbind_a71ev2a_c2_elabs_fragonly_scored_top80percent,BulkDock Fragalysis export,openbind_a71ev2a_c2_elabs_scored,openbind_a71ev2a_c2_elabs_scored_top80percent,openbind_a71ev2a_c2_elabs_activefrags_only_scored_5.2plus,openbind_a71ev2a_c2_elabs_activefrags_only_scored_5.5plus,syndirella_placed

>  <smina_score_min>  (1454) 
-4.636

$$$$
P577429
     RDKit          3D

 20 21  0  0  0  0  0  0  0  0999 V2000
    9.2341    8.1970   22.6860 C   0  0  0  0  0  0  0  0  0  0  0  0
    9.3990    8.9103   23.9901 C   0  0  0  0  0  0  0  0  0  0  0  0
    8.8519   10.2492   24.0677 N   0  0  0  0  0  0  0  0  0  0  0  0
    9.4304   11.3483   23.5074 C   0  0  0  0  0  0  0  0  0  0  0  0
   10.6318   11.3490   22.6702 C   0  0  0  0  0  0  0  0  0  0  0  0
    8.8210   12.4772   24.0002 C   0  0  0  0  0  0  0  0  0  0  0  0
    9.3241   13.7673   23.6177 C   0  0  0  0  0  0  0  0  0  0  0  0
   10.0286   14.3594   24.3262 O   0  0  0  0  0  0  0  0  0  0  0  0
    8.8587   14.0787   22.1893 N   0  0  0  0  0  0  0  0  0  0  0  0
    9.2374   15.1395   21.2923 C   0  0  0  0  0  0  0  0  0  0  0  0
   10.5630   14.8793   20.5821 C   0  0  0  0  0  0  0  0  0  0  0  0
   12.0012   14.8073   21.6976 S   0  0  0  0  0  0  0  0  0  0  0  0
    7.9010   12.0742   24.9764 C   0  0  0  0  0  0  0  0  0  0  0  0
    7.0957   12.7673   25.8962 C   0  0  0  0  0  0  0  0  0  0  0  0
    6.2687   12.0555   26.7669 C   0  0  0  0  0  0  0  0  0  0  0  0
    5.5555   12.8319   27.6401 O   0  0  0  0  0  0  0  0  0  0  0  0
    4.7853   12.1561   28.6260 C   0  0  0  0  0  0  0  0  0  0  0  0
    6.2106   10.6684   26.6818 C   0  0  0  0  0  0  0  0  0  0  0  0
    6.9908    9.9657   25.7592 C   0  0  0  0  0  0  0  0  0  0  0  0
    7.8733   10.6759   24.9476 C   0  0  0  0  0  0  0  0  0  0  0  0
  1  2  1  0
  2  3  1  0
  3  4  1  0
  4  5  1  0
  4  6  2  0
  6  7  1  0
  7  8  2  0
  7  9  1  0
  9 10  1  0
 10 11  1  0
 11 12  1  0
  6 13  1  0
 13 14  2  0
 14 15  1  0
 15 16  1  0
 16 17  1  0
 15 18  2  0
 18 19  1  0
 19 20  2  0
 20  3  1  0
 20 13  1  0
M  END
>  <alias>  (1455) 
None

>  <rmsd(smina/fragmenstein)>  (1455) 
0.432

>  <smiles>  (1455) 
CCn1c(C)c(C(=O)NCCS)c2cc(OC)ccc21

>  <gnina_score>  (1455) 
5.684

>  <inspiration_score>  (1455) 
None

>  <energy_score>  (1455) 
-3.456958

>  <distance_score>  (1455) 
1.535438

>  <gnina_score_min>  (1455) 
5.716

>  <inchikey>  (1455) 
NQTKMAWILVMFSQ-UHFFFAOYSA-N

>  <exports>  (1455) 
['/opt/xchem-fragalysis-2/maxwin/BulkDock/OUTPUTS/openbind_a71ev2a_c2_elabs_1LOUU54.sdf', '/opt/xchem-fragalysis-2/maxwin/BulkDock/OUTPUTS/openbind_a71ev2a_c2_elabs_1LSYIDY.sdf']

>  <name>  (1455) 
P577429

>  <ref_pdb>  (1455) 
A3066a

>  <subsites>  (1455) 
None

>  <HIPPO Pose ID>  (1455) 
577429

>  <ref_mols>  (1455) 
A3066a

>  <HIPPO Compound ID>  (1455) 
351553

>  <tags>  (1455) 
openbind_a71ev2a_c2_elabs,syndirella_product,openbind_a71ev2a_c2_elabs_fragonly_scored_top80percent,BulkDock Fragalysis export,openbind_a71ev2a_c2_elabs_scored,openbind_a71ev2a_c2_elabs_scored_top80percent,openbind_a71ev2a_c2_elabs_activefrags_only_scored_5.2plus,openbind_a71ev2a_c2_elabs_activefrags_only_scored_5.5plus,syndirella_placed

>  <smina_score_min>  (1455) 
-4.873

$$$$
P577430
     RDKit          3D

 20 21  0  0  0  0  0  0  0  0999 V2000
   10.9917   14.8112   19.4662 C   0  0  0  0  0  0  0  0  0  0  0  0
   11.4030   14.5334   20.7093 C   0  0  0  0  0  0  0  0  0  0  0  0
   10.7675   15.0722   21.9417 C   0  0  0  0  0  0  0  0  0  0  0  0
   10.0894   13.9935   22.5837 N   0  0  0  0  0  0  0  0  0  0  0  0
    9.9894   13.6217   24.0686 C   0  0  0  0  0  0  0  0  0  0  0  0
   10.5064   14.0901   25.0006 O   0  0  0  0  0  0  0  0  0  0  0  0
    9.1640   12.4234   24.2135 C   0  0  0  0  0  0  0  0  0  0  0  0
    9.4020   11.2437   23.5399 C   0  0  0  0  0  0  0  0  0  0  0  0
   10.4581   10.9728   22.5806 C   0  0  0  0  0  0  0  0  0  0  0  0
    8.6671   10.2369   24.1013 N   0  0  0  0  0  0  0  0  0  0  0  0
    8.7702    8.8135   23.8040 C   0  0  0  0  0  0  0  0  0  0  0  0
   10.1428    8.2106   23.5600 C   0  0  0  0  0  0  0  0  0  0  0  0
    7.8262   10.7888   25.0488 C   0  0  0  0  0  0  0  0  0  0  0  0
    6.8492   10.2075   25.8619 C   0  0  0  0  0  0  0  0  0  0  0  0
    6.2013   11.0230   26.7914 C   0  0  0  0  0  0  0  0  0  0  0  0
    6.4758   12.3845   26.8904 C   0  0  0  0  0  0  0  0  0  0  0  0
    5.7417   13.0490   27.8367 O   0  0  0  0  0  0  0  0  0  0  0  0
    5.7917   14.4720   27.7905 C   0  0  0  0  0  0  0  0  0  0  0  0
    7.4465   12.9576   26.0710 C   0  0  0  0  0  0  0  0  0  0  0  0
    8.1291   12.1534   25.1372 C   0  0  0  0  0  0  0  0  0  0  0  0
  1  2  2  0
  2  3  1  0
  3  4  1  0
  4  5  1  0
  5  6  2  0
  5  7  1  0
  7  8  2  0
  8  9  1  0
  8 10  1  0
 10 11  1  0
 11 12  1  0
 10 13  1  0
 13 14  2  0
 14 15  1  0
 15 16  2  0
 16 17  1  0
 17 18  1  0
 16 19  1  0
 19 20  2  0
 20  7  1  0
 20 13  1  0
M  END
>  <alias>  (1456) 
None

>  <rmsd(smina/fragmenstein)>  (1456) 
1.272

>  <smiles>  (1456) 
C=CCNC(=O)c1c(C)n(CC)c2ccc(OC)cc12

>  <gnina_score>  (1456) 
5.348

>  <inspiration_score>  (1456) 
None

>  <energy_score>  (1456) 
-10.844159

>  <distance_score>  (1456) 
1.116731

>  <gnina_score_min>  (1456) 
5.328

>  <inchikey>  (1456) 
MMRLQQIAJANPER-UHFFFAOYSA-N

>  <exports>  (1456) 
['/opt/xchem-fragalysis-2/maxwin/BulkDock/OUTPUTS/openbind_a71ev2a_c2_elabs_1LOUU54.sdf', '/opt/xchem-fragalysis-2/maxwin/BulkDock/OUTPUTS/openbind_a71ev2a_c2_elabs_1LSYIDY.sdf']

>  <name>  (1456) 
P577430

>  <ref_pdb>  (1456) 
A3066a

>  <subsites>  (1456) 
None

>  <HIPPO Pose ID>  (1456) 
577430

>  <ref_mols>  (1456) 
A3066a

>  <HIPPO Compound ID>  (1456) 
351557

>  <tags>  (1456) 
openbind_a71ev2a_c2_elabs,syndirella_product,openbind_a71ev2a_c2_elabs_fragonly_scored_top80percent,openbind_a71ev2a_c2_elabs_scored,BulkDock Fragalysis export,openbind_a71ev2a_c2_elabs_scored_top80percent,openbind_a71ev2a_c2_elabs_activefrags_only_scored_5.2plus,syndirella_placed

>  <smina_score_min>  (1456) 
-6.096

$$$$
P577431
     RDKit          3D

 20 21  0  0  0  0  0  0  0  0999 V2000
    9.1457    8.1665   22.7421 C   0  0  0  0  0  0  0  0  0  0  0  0
    8.9875    8.8232   24.0888 C   0  0  0  0  0  0  0  0  0  0  0  0
    8.6601   10.2344   24.1565 N   0  0  0  0  0  0  0  0  0  0  0  0
    9.4604   11.2146   23.6453 C   0  0  0  0  0  0  0  0  0  0  0  0
   10.6204   10.9137   22.8241 C   0  0  0  0  0  0  0  0  0  0  0  0
    9.1190   12.4301   24.1849 C   0  0  0  0  0  0  0  0  0  0  0  0
    9.9067   13.6287   23.9472 C   0  0  0  0  0  0  0  0  0  0  0  0
   10.4106   14.1956   24.8303 O   0  0  0  0  0  0  0  0  0  0  0  0
    9.9936   13.8666   22.4312 N   0  0  0  0  0  0  0  0  0  0  0  0
   10.7946   14.7940   21.6735 C   0  0  0  0  0  0  0  0  0  0  0  0
   12.2606   14.3830   21.6936 C   0  0  0  0  0  0  0  0  0  0  0  0
   10.2414   14.9321   20.2649 C   0  0  0  0  0  0  0  0  0  0  0  0
    8.0619   12.1858   25.0875 C   0  0  0  0  0  0  0  0  0  0  0  0
    7.3473   13.0175   25.9708 C   0  0  0  0  0  0  0  0  0  0  0  0
    6.3873   12.4583   26.8125 C   0  0  0  0  0  0  0  0  0  0  0  0
    5.6308   13.1485   27.7226 O   0  0  0  0  0  0  0  0  0  0  0  0
    5.6416   14.5679   27.6044 C   0  0  0  0  0  0  0  0  0  0  0  0
    6.1497   11.0864   26.7783 C   0  0  0  0  0  0  0  0  0  0  0  0
    6.8181   10.2446   25.8877 C   0  0  0  0  0  0  0  0  0  0  0  0
    7.7856   10.8114   25.0548 C   0  0  0  0  0  0  0  0  0  0  0  0
  1  2  1  0
  2  3  1  0
  3  4  1  0
  4  5  1  0
  4  6  2  0
  6  7  1  0
  7  8  2  0
  7  9  1  0
  9 10  1  0
 10 11  1  0
 10 12  1  0
  6 13  1  0
 13 14  2  0
 14 15  1  0
 15 16  1  0
 16 17  1  0
 15 18  2  0
 18 19  1  0
 19 20  2  0
 20  3  1  0
 20 13  1  0
M  END
>  <alias>  (1457) 
None

>  <rmsd(smina/fragmenstein)>  (1457) 
1.229

>  <smiles>  (1457) 
CCn1c(C)c(C(=O)NC(C)C)c2cc(OC)ccc21

>  <gnina_score>  (1457) 
5.487

>  <inspiration_score>  (1457) 
None

>  <energy_score>  (1457) 
-0.701637

>  <distance_score>  (1457) 
1.145885

>  <gnina_score_min>  (1457) 
5.316

>  <inchikey>  (1457) 
VBYKSIIWTGZUJS-UHFFFAOYSA-N

>  <exports>  (1457) 
['/opt/xchem-fragalysis-2/maxwin/BulkDock/OUTPUTS/openbind_a71ev2a_c2_elabs_1LOUU54.sdf', '/opt/xchem-fragalysis-2/maxwin/BulkDock/OUTPUTS/openbind_a71ev2a_c2_elabs_1LSYIDY.sdf']

>  <name>  (1457) 
P577431

>  <ref_pdb>  (1457) 
A3066a

>  <subsites>  (1457) 
None

>  <HIPPO Pose ID>  (1457) 
577431

>  <ref_mols>  (1457) 
A3066a

>  <HIPPO Compound ID>  (1457) 
351558

>  <tags>  (1457) 
openbind_a71ev2a_c2_elabs,syndirella_product,openbind_a71ev2a_c2_elabs_fragonly_scored_top80percent,openbind_a71ev2a_c2_elabs_scored,BulkDock Fragalysis export,openbind_a71ev2a_c2_elabs_scored_top80percent,openbind_a71ev2a_c2_elabs_activefrags_only_scored_5.2plus,syndirella_placed

>  <smina_score_min>  (1457) 
-6.341

$$$$
P577432
     RDKit          3D

 20 22  0  0  0  0  0  0  0  0999 V2000
   10.2922    8.2749   23.4978 C   0  0  0  0  0  0  0  0  0  0  0  0
    8.8905    8.7929   23.7405 C   0  0  0  0  0  0  0  0  0  0  0  0
    8.7208   10.1963   24.0830 N   0  0  0  0  0  0  0  0  0  0  0  0
    9.3929   11.2671   23.5682 C   0  0  0  0  0  0  0  0  0  0  0  0
   10.4990   11.2112   22.6110 C   0  0  0  0  0  0  0  0  0  0  0  0
    8.9854   12.4116   24.2232 C   0  0  0  0  0  0  0  0  0  0  0  0
    9.6292   13.6814   23.9739 C   0  0  0  0  0  0  0  0  0  0  0  0
   10.2867   14.1954   24.7898 O   0  0  0  0  0  0  0  0  0  0  0  0
    9.3588   14.0824   22.5060 N   0  0  0  0  0  0  0  0  0  0  0  0
    9.9013   15.1180   21.7291 C   0  0  0  0  0  0  0  0  0  0  0  0
   11.4009   15.1333   21.5897 C   0  0  0  0  0  0  0  0  0  0  0  0
   10.5332   14.8999   20.3915 C   0  0  0  0  0  0  0  0  0  0  0  0
    8.0214   12.0437   25.1704 C   0  0  0  0  0  0  0  0  0  0  0  0
    7.2933   12.7602   26.1357 C   0  0  0  0  0  0  0  0  0  0  0  0
    6.3818   12.0934   26.9547 C   0  0  0  0  0  0  0  0  0  0  0  0
    5.7581   12.8893   27.8762 O   0  0  0  0  0  0  0  0  0  0  0  0
    4.8173   12.2666   28.7423 C   0  0  0  0  0  0  0  0  0  0  0  0
    6.1773   10.7290   26.7866 C   0  0  0  0  0  0  0  0  0  0  0  0
    6.8754   10.0051   25.8148 C   0  0  0  0  0  0  0  0  0  0  0  0
    7.8284   10.6660   25.0370 C   0  0  0  0  0  0  0  0  0  0  0  0
  1  2  1  0
  2  3  1  0
  3  4  1  0
  4  5  1  0
  4  6  2  0
  6  7  1  0
  7  8  2  0
  7  9  1  0
  9 10  1  0
 10 11  1  0
 11 12  1  0
  6 13  1  0
 13 14  2  0
 14 15  1  0
 15 16  1  0
 16 17  1  0
 15 18  2  0
 18 19  1  0
 19 20  2  0
 20  3  1  0
 12 10  1  0
 20 13  1  0
M  END
>  <alias>  (1458) 
None

>  <rmsd(smina/fragmenstein)>  (1458) 
0.454

>  <smiles>  (1458) 
CCn1c(C)c(C(=O)NC2CC2)c2cc(OC)ccc21

>  <gnina_score>  (1458) 
5.494

>  <inspiration_score>  (1458) 
None

>  <energy_score>  (1458) 
-2.468228

>  <distance_score>  (1458) 
1.342272

>  <gnina_score_min>  (1458) 
5.491

>  <inchikey>  (1458) 
ZPWKVFQDLHCEIK-UHFFFAOYSA-N

>  <exports>  (1458) 
['/opt/xchem-fragalysis-2/maxwin/BulkDock/OUTPUTS/openbind_a71ev2a_c2_elabs_1LOUU54.sdf', '/opt/xchem-fragalysis-2/maxwin/BulkDock/OUTPUTS/openbind_a71ev2a_c2_elabs_1LSYIDY.sdf']

>  <name>  (1458) 
P577432

>  <ref_pdb>  (1458) 
A3066a

>  <subsites>  (1458) 
None

>  <HIPPO Pose ID>  (1458) 
577432

>  <ref_mols>  (1458) 
A3066a

>  <HIPPO Compound ID>  (1458) 
351566

>  <tags>  (1458) 
openbind_a71ev2a_c2_elabs,syndirella_product,openbind_a71ev2a_c2_elabs_fragonly_scored_top80percent,openbind_a71ev2a_c2_elabs_scored,BulkDock Fragalysis export,openbind_a71ev2a_c2_elabs_scored_top80percent,openbind_a71ev2a_c2_elabs_activefrags_only_scored_5.2plus,syndirella_placed

>  <smina_score_min>  (1458) 
-5.262

$$$$
P577433
     RDKit          3D

 20 21  0  0  0  0  0  0  0  0999 V2000
   11.3040    7.8065   23.4987 C   0  0  0  0  0  0  0  0  0  0  0  0
   10.4259    8.9268   23.3376 N   0  0  0  0  0  0  0  0  0  0  0  0
    9.9999    8.9713   21.9713 C   0  0  0  0  0  0  0  0  0  0  0  0
    9.3646    8.7392   24.2978 C   0  0  0  0  0  0  0  0  0  0  0  0
    8.0494    9.3414   24.0209 C   0  0  0  0  0  0  0  0  0  0  0  0
    8.0231   10.7392   24.3538 N   0  0  0  0  0  0  0  0  0  0  0  0
    8.8548   11.6735   23.8231 C   0  0  0  0  0  0  0  0  0  0  0  0
    8.7947   12.7945   24.6163 C   0  0  0  0  0  0  0  0  0  0  0  0
    9.8015   13.8287   24.5813 C   0  0  0  0  0  0  0  0  0  0  0  0
   10.1806   14.3025   25.5767 O   0  0  0  0  0  0  0  0  0  0  0  0
   10.2717   14.0441   23.1300 N   0  0  0  0  0  0  0  0  0  0  0  0
   11.3640   14.8110   22.6101 C   0  0  0  0  0  0  0  0  0  0  0  0
   12.5626   13.9077   22.3725 C   0  0  0  0  0  0  0  0  0  0  0  0
   13.0307   12.8166   24.1988 I   0  0  0  0  0  0  0  0  0  0  0  0
    7.7919   12.5671   25.5881 C   0  0  0  0  0  0  0  0  0  0  0  0
    7.2915   13.3289   26.6555 C   0  0  0  0  0  0  0  0  0  0  0  0
    6.3647   12.7557   27.5259 C   0  0  0  0  0  0  0  0  0  0  0  0
    5.9489   11.4402   27.3576 C   0  0  0  0  0  0  0  0  0  0  0  0
    6.4322   10.6632   26.3083 C   0  0  0  0  0  0  0  0  0  0  0  0
    7.3480   11.2547   25.4304 C   0  0  0  0  0  0  0  0  0  0  0  0
  1  2  1  0
  2  3  1  0
  2  4  1  0
  4  5  1  0
  5  6  1  0
  6  7  1  0
  7  8  2  0
  8  9  1  0
  9 10  2  0
  9 11  1  0
 11 12  1  0
 12 13  1  0
 13 14  1  0
  8 15  1  0
 15 16  2  0
 16 17  1  0
 17 18  2  0
 18 19  1  0
 19 20  2  0
 20  6  1  0
 20 15  1  0
M  END
>  <alias>  (1459) 
None

>  <rmsd(smina/fragmenstein)>  (1459) 
1.081

>  <smiles>  (1459) 
CN(C)CCn1cc(C(=O)NCCI)c2ccccc21

>  <gnina_score>  (1459) 
5.369

>  <inspiration_score>  (1459) 
None

>  <energy_score>  (1459) 
-4.044905

>  <distance_score>  (1459) 
1.655556

>  <gnina_score_min>  (1459) 
5.351

>  <inchikey>  (1459) 
DJFVILCAZPDZKW-UHFFFAOYSA-N

>  <exports>  (1459) 
['/opt/xchem-fragalysis-2/maxwin/BulkDock/OUTPUTS/openbind_a71ev2a_c2_elabs_1LOUU54.sdf', '/opt/xchem-fragalysis-2/maxwin/BulkDock/OUTPUTS/openbind_a71ev2a_c2_elabs_1LSYIDY.sdf']

>  <name>  (1459) 
P577433

>  <ref_pdb>  (1459) 
A3066a

>  <subsites>  (1459) 
None

>  <HIPPO Pose ID>  (1459) 
577433

>  <ref_mols>  (1459) 
A3066a

>  <HIPPO Compound ID>  (1459) 
351592

>  <tags>  (1459) 
openbind_a71ev2a_c2_elabs,syndirella_product,openbind_a71ev2a_c2_elabs_fragonly_scored_top80percent,openbind_a71ev2a_c2_elabs_scored,BulkDock Fragalysis export,openbind_a71ev2a_c2_elabs_scored_top80percent,openbind_a71ev2a_c2_elabs_activefrags_only_scored_5.2plus,syndirella_placed

>  <smina_score_min>  (1459) 
-1.96

$$$$
P577437
     RDKit          3D

 20 21  0  0  0  0  0  0  0  0999 V2000
    5.9984   14.9434   27.1849 C   0  0  0  0  0  0  0  0  0  0  0  0
    5.9185   13.5552   27.5020 O   0  0  0  0  0  0  0  0  0  0  0  0
    6.6105   12.7095   26.6754 C   0  0  0  0  0  0  0  0  0  0  0  0
    6.2402   11.3698   26.7630 C   0  0  0  0  0  0  0  0  0  0  0  0
    6.8307   10.3914   25.9615 C   0  0  0  0  0  0  0  0  0  0  0  0
    7.8449   10.7944   25.0879 C   0  0  0  0  0  0  0  0  0  0  0  0
    8.2632   12.1234   25.0001 C   0  0  0  0  0  0  0  0  0  0  0  0
    7.6308   13.0936   25.8053 C   0  0  0  0  0  0  0  0  0  0  0  0
    9.3263   12.1903   24.0487 C   0  0  0  0  0  0  0  0  0  0  0  0
   10.1328   13.3737   23.7473 C   0  0  0  0  0  0  0  0  0  0  0  0
   10.4817   14.0635   24.6168 O   0  0  0  0  0  0  0  0  0  0  0  0
   10.3198   13.5126   22.2321 N   0  0  0  0  0  0  0  0  0  0  0  0
   11.0615   14.4855   21.4625 C   0  0  2  0  0  0  0  0  0  0  0  0
   12.3582   14.8404   22.1717 C   0  0  0  0  0  0  0  0  0  0  0  0
   10.1761   15.6980   21.1752 C   0  0  0  0  0  0  0  0  0  0  0  0
    9.6044   15.7203   19.4981 Cl  0  0  0  0  0  0  0  0  0  0  0  0
    9.4693   10.9135   23.5423 C   0  0  0  0  0  0  0  0  0  0  0  0
   10.3901   10.3151   22.5787 C   0  0  0  0  0  0  0  0  0  0  0  0
    8.6217   10.0847   24.2139 N   0  0  0  0  0  0  0  0  0  0  0  0
    8.6338    8.6555   24.0302 C   0  0  0  0  0  0  0  0  0  0  0  0
  1  2  1  0
  2  3  1  0
  3  4  2  0
  4  5  1  0
  5  6  2  0
  6  7  1  0
  7  8  2  0
  7  9  1  0
  9 10  1  0
 10 11  2  0
 10 12  1  0
 12 13  1  0
 13 14  1  1
 13 15  1  0
 15 16  1  0
  9 17  2  0
 17 18  1  0
 17 19  1  0
 19 20  1  0
  8  3  1  0
 19  6  1  0
M  END
>  <alias>  (1460) 
None

>  <rmsd(smina/fragmenstein)>  (1460) 
1.578

>  <smiles>  (1460) 
COc1ccc2c(c1)c(C(=O)N[C@H](C)CCl)c(C)n2C

>  <gnina_score>  (1460) 
5.527

>  <inspiration_score>  (1460) 
None

>  <energy_score>  (1460) 
-4.438619

>  <distance_score>  (1460) 
1.016131

>  <gnina_score_min>  (1460) 
5.312

>  <inchikey>  (1460) 
UIYQHQXPRRCAPN-SECBINFHSA-N

>  <exports>  (1460) 
['/opt/xchem-fragalysis-2/maxwin/BulkDock/OUTPUTS/openbind_a71ev2a_c2_elabs_1LOUU54.sdf', '/opt/xchem-fragalysis-2/maxwin/BulkDock/OUTPUTS/openbind_a71ev2a_c2_elabs_1LSYIDY.sdf']

>  <name>  (1460) 
P577437

>  <ref_pdb>  (1460) 
A3066a

>  <subsites>  (1460) 
None

>  <HIPPO Pose ID>  (1460) 
577437

>  <ref_mols>  (1460) 
A3066a

>  <HIPPO Compound ID>  (1460) 
351646

>  <tags>  (1460) 
openbind_a71ev2a_c2_elabs,syndirella_product,openbind_a71ev2a_c2_elabs_fragonly_scored_top80percent,openbind_a71ev2a_c2_elabs_scored,BulkDock Fragalysis export,openbind_a71ev2a_c2_elabs_scored_top80percent,openbind_a71ev2a_c2_elabs_activefrags_only_scored_5.2plus,syndirella_placed

>  <smina_score_min>  (1460) 
-6.449

$$$$
P577438
     RDKit          3D

 20 21  0  0  0  0  0  0  0  0999 V2000
    4.8238   12.7123   28.6878 C   0  0  0  0  0  0  0  0  0  0  0  0
    5.8559   13.1959   27.8375 O   0  0  0  0  0  0  0  0  0  0  0  0
    6.4243   12.2996   26.9737 C   0  0  0  0  0  0  0  0  0  0  0  0
    6.1238   10.9442   26.8936 C   0  0  0  0  0  0  0  0  0  0  0  0
    6.7643   10.1109   25.9718 C   0  0  0  0  0  0  0  0  0  0  0  0
    7.7590   10.6593   25.1616 C   0  0  0  0  0  0  0  0  0  0  0  0
    8.0728   12.0193   25.2171 C   0  0  0  0  0  0  0  0  0  0  0  0
    7.3891   12.8464   26.1259 C   0  0  0  0  0  0  0  0  0  0  0  0
    9.0852   12.2585   24.2611 C   0  0  0  0  0  0  0  0  0  0  0  0
    9.7462   13.5073   23.9530 C   0  0  0  0  0  0  0  0  0  0  0  0
   10.3352   14.1085   24.7569 O   0  0  0  0  0  0  0  0  0  0  0  0
    9.5025   13.8055   22.4691 N   0  0  0  0  0  0  0  0  0  0  0  0
   10.0071   14.8533   21.6364 C   0  0  0  0  0  0  0  0  0  0  0  0
   11.5091   15.0404   21.7752 C   0  0  0  0  0  0  0  0  0  0  0  0
   12.3467   14.2388   20.7948 C   0  0  0  0  0  0  0  0  0  0  0  0
   11.8050   14.4222   19.1035 Cl  0  0  0  0  0  0  0  0  0  0  0  0
    9.3717   11.0515   23.6637 C   0  0  0  0  0  0  0  0  0  0  0  0
   10.3936   10.6802   22.6884 C   0  0  0  0  0  0  0  0  0  0  0  0
    8.6004   10.0876   24.2400 N   0  0  0  0  0  0  0  0  0  0  0  0
    8.7548    8.6807   23.9498 C   0  0  0  0  0  0  0  0  0  0  0  0
  1  2  1  0
  2  3  1  0
  3  4  2  0
  4  5  1  0
  5  6  2  0
  6  7  1  0
  7  8  2  0
  7  9  1  0
  9 10  1  0
 10 11  2  0
 10 12  1  0
 12 13  1  0
 13 14  1  0
 14 15  1  0
 15 16  1  0
  9 17  2  0
 17 18  1  0
 17 19  1  0
 19 20  1  0
  8  3  1  0
 19  6  1  0
M  END
>  <alias>  (1461) 
None

>  <rmsd(smina/fragmenstein)>  (1461) 
0.367

>  <smiles>  (1461) 
COc1ccc2c(c1)c(C(=O)NCCCCl)c(C)n2C

>  <gnina_score>  (1461) 
5.202

>  <inspiration_score>  (1461) 
None

>  <energy_score>  (1461) 
-11.623539

>  <distance_score>  (1461) 
1.320801

>  <gnina_score_min>  (1461) 
5.221

>  <inchikey>  (1461) 
PDPXFVMSYAOWHT-UHFFFAOYSA-N

>  <exports>  (1461) 
['/opt/xchem-fragalysis-2/maxwin/BulkDock/OUTPUTS/openbind_a71ev2a_c2_elabs_1LOUU54.sdf', '/opt/xchem-fragalysis-2/maxwin/BulkDock/OUTPUTS/openbind_a71ev2a_c2_elabs_1LSYIDY.sdf']

>  <name>  (1461) 
P577438

>  <ref_pdb>  (1461) 
A3066a

>  <subsites>  (1461) 
None

>  <HIPPO Pose ID>  (1461) 
577438

>  <ref_mols>  (1461) 
A3066a

>  <HIPPO Compound ID>  (1461) 
351647

>  <tags>  (1461) 
openbind_a71ev2a_c2_elabs,syndirella_product,openbind_a71ev2a_c2_elabs_fragonly_scored_top80percent,openbind_a71ev2a_c2_elabs_scored,BulkDock Fragalysis export,openbind_a71ev2a_c2_elabs_scored_top80percent,openbind_a71ev2a_c2_elabs_activefrags_only_scored_5.2plus,syndirella_placed

>  <smina_score_min>  (1461) 
-4.863

$$$$
P577441
     RDKit          3D

 20 21  0  0  0  0  0  0  0  0999 V2000
   12.0144   14.9618   21.9225 C   0  0  0  0  0  0  0  0  0  0  0  0
   10.9949   15.2284   21.3450 C   0  0  0  0  0  0  0  0  0  0  0  0
    9.7914   15.5306   20.5498 C   0  0  0  0  0  0  0  0  0  0  0  0
    8.4670   15.2708   21.2703 C   0  0  0  0  0  0  0  0  0  0  0  0
    8.4981   14.0945   22.1008 N   0  0  0  0  0  0  0  0  0  0  0  0
    8.4096   13.9478   23.6264 C   0  0  0  0  0  0  0  0  0  0  0  0
    8.2206   14.7460   24.4511 O   0  0  0  0  0  0  0  0  0  0  0  0
    8.5402   12.5467   23.9941 C   0  0  0  0  0  0  0  0  0  0  0  0
    9.4148   11.5837   23.5129 C   0  0  0  0  0  0  0  0  0  0  0  0
   10.6450   11.7330   22.7171 C   0  0  0  0  0  0  0  0  0  0  0  0
    8.9711   10.3581   23.9625 N   0  0  0  0  0  0  0  0  0  0  0  0
    9.5058    9.0684   23.5566 C   0  0  0  0  0  0  0  0  0  0  0  0
    7.9728   10.5628   24.8866 C   0  0  0  0  0  0  0  0  0  0  0  0
    7.1929    9.6789   25.6190 C   0  0  0  0  0  0  0  0  0  0  0  0
    6.3087   10.1753   26.5823 C   0  0  0  0  0  0  0  0  0  0  0  0
    6.1734   11.5392   26.7924 C   0  0  0  0  0  0  0  0  0  0  0  0
    5.3558   12.1267   27.7182 O   0  0  0  0  0  0  0  0  0  0  0  0
    4.7659   11.2693   28.6897 C   0  0  0  0  0  0  0  0  0  0  0  0
    6.8766   12.4226   25.9779 C   0  0  0  0  0  0  0  0  0  0  0  0
    7.7810   11.9312   25.0144 C   0  0  0  0  0  0  0  0  0  0  0  0
  1  2  3  0
  2  3  1  0
  3  4  1  0
  4  5  1  0
  5  6  1  0
  6  7  2  0
  6  8  1  0
  8  9  2  0
  9 10  1  0
  9 11  1  0
 11 12  1  0
 11 13  1  0
 13 14  2  0
 14 15  1  0
 15 16  2  0
 16 17  1  0
 17 18  1  0
 16 19  1  0
 19 20  2  0
 20  8  1  0
 20 13  1  0
M  END
>  <alias>  (1462) 
None

>  <rmsd(smina/fragmenstein)>  (1462) 
0.403

>  <smiles>  (1462) 
C#CCCNC(=O)c1c(C)n(C)c2ccc(OC)cc12

>  <gnina_score>  (1462) 
5.272

>  <inspiration_score>  (1462) 
None

>  <energy_score>  (1462) 
-16.465495

>  <distance_score>  (1462) 
1.959665

>  <gnina_score_min>  (1462) 
5.285

>  <inchikey>  (1462) 
UAPUODKWBJWMFJ-UHFFFAOYSA-N

>  <exports>  (1462) 
['/opt/xchem-fragalysis-2/maxwin/BulkDock/OUTPUTS/openbind_a71ev2a_c2_elabs_1LOUU54.sdf', '/opt/xchem-fragalysis-2/maxwin/BulkDock/OUTPUTS/openbind_a71ev2a_c2_elabs_1LSYIDY.sdf']

>  <name>  (1462) 
P577441

>  <ref_pdb>  (1462) 
A3066a

>  <subsites>  (1462) 
None

>  <HIPPO Pose ID>  (1462) 
577441

>  <ref_mols>  (1462) 
A3066a

>  <HIPPO Compound ID>  (1462) 
351650

>  <tags>  (1462) 
openbind_a71ev2a_c2_elabs,syndirella_product,openbind_a71ev2a_c2_elabs_fragonly_scored_top80percent,openbind_a71ev2a_c2_elabs_scored,BulkDock Fragalysis export,openbind_a71ev2a_c2_elabs_scored_top80percent,openbind_a71ev2a_c2_elabs_activefrags_only_scored_5.2plus,syndirella_placed

>  <smina_score_min>  (1462) 
-5.88

$$$$
P577445
     RDKit          3D

 20 21  0  0  0  0  0  0  0  0999 V2000
    5.0548   13.4030   28.3176 C   0  0  0  0  0  0  0  0  0  0  0  0
    6.1979   13.6828   27.5200 O   0  0  0  0  0  0  0  0  0  0  0  0
    6.6787   12.6625   26.7442 C   0  0  0  0  0  0  0  0  0  0  0  0
    6.2563   11.3381   26.7909 C   0  0  0  0  0  0  0  0  0  0  0  0
    6.8222   10.3682   25.9594 C   0  0  0  0  0  0  0  0  0  0  0  0
    7.8507   10.7603   25.0966 C   0  0  0  0  0  0  0  0  0  0  0  0
    8.3022   12.0781   25.0285 C   0  0  0  0  0  0  0  0  0  0  0  0
    7.6963   13.0383   25.8623 C   0  0  0  0  0  0  0  0  0  0  0  0
    9.3615   12.1334   24.0688 C   0  0  0  0  0  0  0  0  0  0  0  0
   10.1851   13.3069   23.7684 C   0  0  0  0  0  0  0  0  0  0  0  0
   10.4830   14.0380   24.6237 O   0  0  0  0  0  0  0  0  0  0  0  0
   10.4751   13.3659   22.2634 N   0  0  0  0  0  0  0  0  0  0  0  0
   11.1145   14.3886   21.4708 C   0  0  1  0  0  0  0  0  0  0  0  0
   10.0649   15.4268   21.1072 C   0  0  0  0  0  0  0  0  0  0  0  0
   12.3961   14.8919   22.1191 C   0  0  0  0  0  0  0  0  0  0  0  0
   12.1330   15.6275   23.2263 F   0  0  0  0  0  0  0  0  0  0  0  0
    9.4762   10.8568   23.5480 C   0  0  0  0  0  0  0  0  0  0  0  0
   10.3691   10.2297   22.5716 C   0  0  0  0  0  0  0  0  0  0  0  0
    8.6190   10.0429   24.2236 N   0  0  0  0  0  0  0  0  0  0  0  0
    8.6191    8.6143   24.0464 C   0  0  0  0  0  0  0  0  0  0  0  0
  1  2  1  0
  2  3  1  0
  3  4  2  0
  4  5  1  0
  5  6  2  0
  6  7  1  0
  7  8  2  0
  7  9  1  0
  9 10  1  0
 10 11  2  0
 10 12  1  0
 12 13  1  0
 13 14  1  1
 13 15  1  0
 15 16  1  0
  9 17  2  0
 17 18  1  0
 17 19  1  0
 19 20  1  0
  8  3  1  0
 19  6  1  0
M  END
>  <alias>  (1463) 
None

>  <rmsd(smina/fragmenstein)>  (1463) 
1.476

>  <smiles>  (1463) 
COc1ccc2c(c1)c(C(=O)N[C@@H](C)CF)c(C)n2C

>  <gnina_score>  (1463) 
5.402

>  <inspiration_score>  (1463) 
None

>  <energy_score>  (1463) 
-3.225735

>  <distance_score>  (1463) 
0.989629

>  <gnina_score_min>  (1463) 
5.228

>  <inchikey>  (1463) 
BJRDWBYKFAABOF-VIFPVBQESA-N

>  <exports>  (1463) 
['/opt/xchem-fragalysis-2/maxwin/BulkDock/OUTPUTS/openbind_a71ev2a_c2_elabs_1LOUU54.sdf', '/opt/xchem-fragalysis-2/maxwin/BulkDock/OUTPUTS/openbind_a71ev2a_c2_elabs_1LSYIDY.sdf']

>  <name>  (1463) 
P577445

>  <ref_pdb>  (1463) 
A3066a

>  <subsites>  (1463) 
None

>  <HIPPO Pose ID>  (1463) 
577445

>  <ref_mols>  (1463) 
A3066a

>  <HIPPO Compound ID>  (1463) 
351657

>  <tags>  (1463) 
openbind_a71ev2a_c2_elabs,syndirella_product,openbind_a71ev2a_c2_elabs_fragonly_scored_top80percent,openbind_a71ev2a_c2_elabs_scored,BulkDock Fragalysis export,openbind_a71ev2a_c2_elabs_scored_top80percent,openbind_a71ev2a_c2_elabs_activefrags_only_scored_5.2plus,syndirella_placed

>  <smina_score_min>  (1463) 
-6.214

$$$$
P577446
     RDKit          3D

 20 21  0  0  0  0  0  0  0  0999 V2000
    4.8890   12.9306   28.6077 C   0  0  0  0  0  0  0  0  0  0  0  0
    5.8893   13.3898   27.7086 O   0  0  0  0  0  0  0  0  0  0  0  0
    6.4563   12.4615   26.8772 C   0  0  0  0  0  0  0  0  0  0  0  0
    6.1771   11.0982   26.8728 C   0  0  0  0  0  0  0  0  0  0  0  0
    6.8145   10.2295   25.9829 C   0  0  0  0  0  0  0  0  0  0  0  0
    7.7763   10.7579   25.1193 C   0  0  0  0  0  0  0  0  0  0  0  0
    8.0643   12.1270   25.0903 C   0  0  0  0  0  0  0  0  0  0  0  0
    7.3907   12.9837   25.9792 C   0  0  0  0  0  0  0  0  0  0  0  0
    9.0422   12.3398   24.0866 C   0  0  0  0  0  0  0  0  0  0  0  0
    9.6662   13.5885   23.6781 C   0  0  0  0  0  0  0  0  0  0  0  0
   10.4162   14.1492   24.3696 O   0  0  0  0  0  0  0  0  0  0  0  0
    9.1576   13.9362   22.2702 N   0  0  0  0  0  0  0  0  0  0  0  0
    9.5350   14.9961   21.3768 C   0  0  0  0  0  0  0  0  0  0  0  0
   10.7645   14.7120   20.5371 C   0  0  0  0  0  0  0  0  0  0  0  0
   12.0602   14.6238   21.3278 C   0  0  0  0  0  0  0  0  0  0  0  0
   12.0882   13.5004   22.0854 F   0  0  0  0  0  0  0  0  0  0  0  0
    9.3516   11.1006   23.5729 C   0  0  0  0  0  0  0  0  0  0  0  0
   10.3833   10.6909   22.6276 C   0  0  0  0  0  0  0  0  0  0  0  0
    8.6031   10.1541   24.2063 N   0  0  0  0  0  0  0  0  0  0  0  0
    8.7590    8.7364   23.9674 C   0  0  0  0  0  0  0  0  0  0  0  0
  1  2  1  0
  2  3  1  0
  3  4  2  0
  4  5  1  0
  5  6  2  0
  6  7  1  0
  7  8  2  0
  7  9  1  0
  9 10  1  0
 10 11  2  0
 10 12  1  0
 12 13  1  0
 13 14  1  0
 14 15  1  0
 15 16  1  0
  9 17  2  0
 17 18  1  0
 17 19  1  0
 19 20  1  0
  8  3  1  0
 19  6  1  0
M  END
>  <alias>  (1464) 
None

>  <rmsd(smina/fragmenstein)>  (1464) 
0.539

>  <smiles>  (1464) 
COc1ccc2c(c1)c(C(=O)NCCCF)c(C)n2C

>  <gnina_score>  (1464) 
5.192

>  <inspiration_score>  (1464) 
None

>  <energy_score>  (1464) 
-1.940013

>  <distance_score>  (1464) 
1.422659

>  <gnina_score_min>  (1464) 
5.257

>  <inchikey>  (1464) 
WPOFXGGHTVSVHJ-UHFFFAOYSA-N

>  <exports>  (1464) 
['/opt/xchem-fragalysis-2/maxwin/BulkDock/OUTPUTS/openbind_a71ev2a_c2_elabs_1LOUU54.sdf', '/opt/xchem-fragalysis-2/maxwin/BulkDock/OUTPUTS/openbind_a71ev2a_c2_elabs_1LSYIDY.sdf']

>  <name>  (1464) 
P577446

>  <ref_pdb>  (1464) 
A3066a

>  <subsites>  (1464) 
None

>  <HIPPO Pose ID>  (1464) 
577446

>  <ref_mols>  (1464) 
A3066a

>  <HIPPO Compound ID>  (1464) 
351659

>  <tags>  (1464) 
openbind_a71ev2a_c2_elabs,syndirella_product,openbind_a71ev2a_c2_elabs_fragonly_scored_top80percent,openbind_a71ev2a_c2_elabs_scored,BulkDock Fragalysis export,openbind_a71ev2a_c2_elabs_scored_top80percent,openbind_a71ev2a_c2_elabs_activefrags_only_scored_5.2plus,syndirella_placed

>  <smina_score_min>  (1464) 
-5.41

$$$$
P577447
     RDKit          3D

 20 21  0  0  0  0  0  0  0  0999 V2000
   12.1622   14.7754   21.9232 C   0  0  0  0  0  0  0  0  0  0  0  0
   11.1384   14.7701   21.0570 C   0  0  0  0  0  0  0  0  0  0  0  0
   11.4581   14.5328   19.2302 Br  0  0  0  0  0  0  0  0  0  0  0  0
    9.7055   15.0336   21.4194 C   0  0  0  0  0  0  0  0  0  0  0  0
    9.1969   13.9938   22.2742 N   0  0  0  0  0  0  0  0  0  0  0  0
    9.4929   13.6799   23.7487 C   0  0  0  0  0  0  0  0  0  0  0  0
   10.1351   14.2563   24.5282 O   0  0  0  0  0  0  0  0  0  0  0  0
    8.9044   12.4008   24.0812 C   0  0  0  0  0  0  0  0  0  0  0  0
    9.3723   11.2297   23.5317 C   0  0  0  0  0  0  0  0  0  0  0  0
   10.5272   11.0994   22.6494 C   0  0  0  0  0  0  0  0  0  0  0  0
    8.7104   10.1749   24.0832 N   0  0  0  0  0  0  0  0  0  0  0  0
    9.0213    8.7877   23.8052 C   0  0  0  0  0  0  0  0  0  0  0  0
    7.8107   10.6575   25.0091 C   0  0  0  0  0  0  0  0  0  0  0  0
    6.8921   10.0049   25.8296 C   0  0  0  0  0  0  0  0  0  0  0  0
    6.1820   10.7551   26.7715 C   0  0  0  0  0  0  0  0  0  0  0  0
    6.3431   12.1332   26.8668 C   0  0  0  0  0  0  0  0  0  0  0  0
    5.6994   12.9532   27.7537 O   0  0  0  0  0  0  0  0  0  0  0  0
    4.8338   12.3360   28.6978 C   0  0  0  0  0  0  0  0  0  0  0  0
    7.2193   12.7889   26.0001 C   0  0  0  0  0  0  0  0  0  0  0  0
    7.9597   12.0486   25.0619 C   0  0  0  0  0  0  0  0  0  0  0  0
  1  2  2  0
  2  3  1  0
  2  4  1  0
  4  5  1  0
  5  6  1  0
  6  7  2  0
  6  8  1  0
  8  9  2  0
  9 10  1  0
  9 11  1  0
 11 12  1  0
 11 13  1  0
 13 14  2  0
 14 15  1  0
 15 16  2  0
 16 17  1  0
 17 18  1  0
 16 19  1  0
 19 20  2  0
 20  8  1  0
 20 13  1  0
M  END
>  <alias>  (1465) 
None

>  <rmsd(smina/fragmenstein)>  (1465) 
0.273

>  <smiles>  (1465) 
C=C(Br)CNC(=O)c1c(C)n(C)c2ccc(OC)cc12

>  <gnina_score>  (1465) 
5.384

>  <inspiration_score>  (1465) 
None

>  <energy_score>  (1465) 
-6.000566

>  <distance_score>  (1465) 
1.397972

>  <gnina_score_min>  (1465) 
5.431

>  <inchikey>  (1465) 
HROORBAXJKNZRV-UHFFFAOYSA-N

>  <exports>  (1465) 
['/opt/xchem-fragalysis-2/maxwin/BulkDock/OUTPUTS/openbind_a71ev2a_c2_elabs_1LOUU54.sdf', '/opt/xchem-fragalysis-2/maxwin/BulkDock/OUTPUTS/openbind_a71ev2a_c2_elabs_1LSYIDY.sdf']

>  <name>  (1465) 
P577447

>  <ref_pdb>  (1465) 
A3066a

>  <subsites>  (1465) 
None

>  <HIPPO Pose ID>  (1465) 
577447

>  <ref_mols>  (1465) 
A3066a

>  <HIPPO Compound ID>  (1465) 
351660

>  <tags>  (1465) 
openbind_a71ev2a_c2_elabs,syndirella_product,openbind_a71ev2a_c2_elabs_fragonly_scored_top80percent,openbind_a71ev2a_c2_elabs_scored,BulkDock Fragalysis export,openbind_a71ev2a_c2_elabs_scored_top80percent,openbind_a71ev2a_c2_elabs_activefrags_only_scored_5.2plus,syndirella_placed

>  <smina_score_min>  (1465) 
-5.04

$$$$
P577448
     RDKit          3D

 20 22  0  0  0  0  0  0  0  0999 V2000
    4.9077   12.9436   28.5425 C   0  0  0  0  0  0  0  0  0  0  0  0
    5.9792   13.3648   27.7085 O   0  0  0  0  0  0  0  0  0  0  0  0
    6.5164   12.4301   26.8651 C   0  0  0  0  0  0  0  0  0  0  0  0
    6.1816   11.0813   26.8267 C   0  0  0  0  0  0  0  0  0  0  0  0
    6.7971   10.2073   25.9265 C   0  0  0  0  0  0  0  0  0  0  0  0
    7.7939   10.7137   25.0884 C   0  0  0  0  0  0  0  0  0  0  0  0
    8.1514   12.0625   25.1015 C   0  0  0  0  0  0  0  0  0  0  0  0
    7.4936   12.9263   25.9993 C   0  0  0  0  0  0  0  0  0  0  0  0
    9.1995   12.2511   24.1513 C   0  0  0  0  0  0  0  0  0  0  0  0
    9.9643   13.4808   23.9488 C   0  0  0  0  0  0  0  0  0  0  0  0
   10.1856   14.1661   24.8809 O   0  0  0  0  0  0  0  0  0  0  0  0
   10.3369   13.6559   22.5014 N   0  0  0  0  0  0  0  0  0  0  0  0
    9.2364   14.4381   21.7186 C   0  0  0  0  0  0  0  0  0  0  0  0
   10.2434   14.7715   20.6638 C   0  0  0  0  0  0  0  0  0  0  0  0
   11.1897   14.7055   21.8215 C   0  0  2  0  0  0  0  0  0  0  0  0
   12.5829   14.1790   21.5822 C   0  0  0  0  0  0  0  0  0  0  0  0
    9.4144   11.0193   23.5696 C   0  0  0  0  0  0  0  0  0  0  0  0
   10.3991   10.5493   22.6015 C   0  0  0  0  0  0  0  0  0  0  0  0
    8.6105   10.0985   24.1770 N   0  0  0  0  0  0  0  0  0  0  0  0
    8.7248    8.6778   23.9391 C   0  0  0  0  0  0  0  0  0  0  0  0
  1  2  1  0
  2  3  1  0
  3  4  2  0
  4  5  1  0
  5  6  2  0
  6  7  1  0
  7  8  2  0
  7  9  1  0
  9 10  1  0
 10 11  2  0
 10 12  1  0
 12 13  1  0
 13 14  1  0
 14 15  1  0
 15 16  1  6
  9 17  2  0
 17 18  1  0
 17 19  1  0
 19 20  1  0
  8  3  1  0
 15 12  1  0
 19  6  1  0
M  END
>  <alias>  (1466) 
None

>  <rmsd(smina/fragmenstein)>  (1466) 
0.453

>  <smiles>  (1466) 
COc1ccc2c(c1)c(C(=O)N1CC[C@@H]1C)c(C)n2C

>  <gnina_score>  (1466) 
5.326

>  <inspiration_score>  (1466) 
None

>  <energy_score>  (1466) 
-5.76871

>  <distance_score>  (1466) 
1.047287

>  <gnina_score_min>  (1466) 
5.399

>  <inchikey>  (1466) 
GCQQQTWZYHAJQC-JTQLQIEISA-N

>  <exports>  (1466) 
['/opt/xchem-fragalysis-2/maxwin/BulkDock/OUTPUTS/openbind_a71ev2a_c2_elabs_1LOUU54.sdf', '/opt/xchem-fragalysis-2/maxwin/BulkDock/OUTPUTS/openbind_a71ev2a_c2_elabs_1LSYIDY.sdf']

>  <name>  (1466) 
P577448

>  <ref_pdb>  (1466) 
A3066a

>  <subsites>  (1466) 
None

>  <HIPPO Pose ID>  (1466) 
577448

>  <ref_mols>  (1466) 
A3066a

>  <HIPPO Compound ID>  (1466) 
351661

>  <tags>  (1466) 
openbind_a71ev2a_c2_elabs,syndirella_product,openbind_a71ev2a_c2_elabs_fragonly_scored_top80percent,openbind_a71ev2a_c2_elabs_scored,BulkDock Fragalysis export,openbind_a71ev2a_c2_elabs_scored_top80percent,openbind_a71ev2a_c2_elabs_activefrags_only_scored_5.2plus,syndirella_placed

>  <smina_score_min>  (1466) 
-6.142

$$$$
P577452
     RDKit          3D

 20 21  0  0  0  0  0  0  0  0999 V2000
    4.8877   12.7923   28.6532 C   0  0  0  0  0  0  0  0  0  0  0  0
    5.8976   13.2659   27.7712 O   0  0  0  0  0  0  0  0  0  0  0  0
    6.4533   12.3538   26.9148 C   0  0  0  0  0  0  0  0  0  0  0  0
    6.1461   10.9987   26.8595 C   0  0  0  0  0  0  0  0  0  0  0  0
    6.7741   10.1485   25.9451 C   0  0  0  0  0  0  0  0  0  0  0  0
    7.7584   10.6826   25.1116 C   0  0  0  0  0  0  0  0  0  0  0  0
    8.0799   12.0405   25.1391 C   0  0  0  0  0  0  0  0  0  0  0  0
    7.4124   12.8823   26.0484 C   0  0  0  0  0  0  0  0  0  0  0  0
    9.1010   12.2607   24.1791 C   0  0  0  0  0  0  0  0  0  0  0  0
    9.8165   13.5007   23.9331 C   0  0  0  0  0  0  0  0  0  0  0  0
   10.2694   14.0972   24.8212 O   0  0  0  0  0  0  0  0  0  0  0  0
    9.8845   13.7596   22.4273 N   0  0  0  0  0  0  0  0  0  0  0  0
   10.4440   14.8587   21.6948 C   0  0  2  0  0  0  0  0  0  0  0  0
   10.0565   14.8670   20.2334 C   0  0  0  0  0  0  0  0  0  0  0  0
   11.8984   14.8639   21.8728 C   0  0  0  0  0  0  0  0  0  0  0  0
   13.0416   14.8434   22.0552 N   0  0  0  0  0  0  0  0  0  0  0  0
    9.3762   11.0382   23.6043 C   0  0  0  0  0  0  0  0  0  0  0  0
   10.4126   10.6170   22.6653 C   0  0  0  0  0  0  0  0  0  0  0  0
    8.5908   10.0922   24.1954 N   0  0  0  0  0  0  0  0  0  0  0  0
    8.7388    8.6772   23.9428 C   0  0  0  0  0  0  0  0  0  0  0  0
  1  2  1  0
  2  3  1  0
  3  4  2  0
  4  5  1  0
  5  6  2  0
  6  7  1  0
  7  8  2  0
  7  9  1  0
  9 10  1  0
 10 11  2  0
 10 12  1  0
 12 13  1  0
 13 14  1  6
 13 15  1  0
 15 16  3  0
  9 17  2  0
 17 18  1  0
 17 19  1  0
 19 20  1  0
  8  3  1  0
 19  6  1  0
M  END
>  <alias>  (1467) 
None

>  <rmsd(smina/fragmenstein)>  (1467) 
0.404

>  <smiles>  (1467) 
COc1ccc2c(c1)c(C(=O)N[C@H](C)C#N)c(C)n2C

>  <gnina_score>  (1467) 
5.427

>  <inspiration_score>  (1467) 
None

>  <energy_score>  (1467) 
-0.921587

>  <distance_score>  (1467) 
1.202828

>  <gnina_score_min>  (1467) 
5.516

>  <inchikey>  (1467) 
AFWWUAGVAVSRGK-SECBINFHSA-N

>  <exports>  (1467) 
['/opt/xchem-fragalysis-2/maxwin/BulkDock/OUTPUTS/openbind_a71ev2a_c2_elabs_1LOUU54.sdf', '/opt/xchem-fragalysis-2/maxwin/BulkDock/OUTPUTS/openbind_a71ev2a_c2_elabs_1LSYIDY.sdf']

>  <name>  (1467) 
P577452

>  <ref_pdb>  (1467) 
A3066a

>  <subsites>  (1467) 
None

>  <HIPPO Pose ID>  (1467) 
577452

>  <ref_mols>  (1467) 
A3066a

>  <HIPPO Compound ID>  (1467) 
351681

>  <tags>  (1467) 
openbind_a71ev2a_c2_elabs,syndirella_product,openbind_a71ev2a_c2_elabs_fragonly_scored_top80percent,BulkDock Fragalysis export,openbind_a71ev2a_c2_elabs_scored,openbind_a71ev2a_c2_elabs_scored_top80percent,openbind_a71ev2a_c2_elabs_activefrags_only_scored_5.2plus,openbind_a71ev2a_c2_elabs_activefrags_only_scored_5.5plus,syndirella_placed

>  <smina_score_min>  (1467) 
-5.535

$$$$
P577455
     RDKit          3D

 20 22  0  0  0  0  0  0  0  0999 V2000
    4.7982   12.7692   28.5561 C   0  0  0  0  0  0  0  0  0  0  0  0
    5.6999   13.2754   27.5810 O   0  0  0  0  0  0  0  0  0  0  0  0
    6.3302   12.3632   26.7788 C   0  0  0  0  0  0  0  0  0  0  0  0
    6.1949   10.9840   26.8574 C   0  0  0  0  0  0  0  0  0  0  0  0
    6.8927   10.1429   25.9889 C   0  0  0  0  0  0  0  0  0  0  0  0
    7.7795   10.7113   25.0725 C   0  0  0  0  0  0  0  0  0  0  0  0
    7.8962   12.0926   24.9272 C   0  0  0  0  0  0  0  0  0  0  0  0
    7.1580   12.9200   25.8008 C   0  0  0  0  0  0  0  0  0  0  0  0
    8.7594   12.3534   23.8088 C   0  0  0  0  0  0  0  0  0  0  0  0
    8.9432   13.6820   23.1905 C   0  0  0  0  0  0  0  0  0  0  0  0
    8.1839   14.5278   23.4867 O   0  0  0  0  0  0  0  0  0  0  0  0
   10.0833   13.6997   22.2168 N   0  0  0  0  0  0  0  0  0  0  0  0
   10.5410   14.7741   21.2479 C   0  0  0  0  0  0  0  0  0  0  0  0
   11.9807   14.4843   21.5601 C   0  0  0  0  0  0  0  0  0  0  0  0
   12.6377   13.4494   20.8080 O   0  0  0  0  0  0  0  0  0  0  0  0
   11.4149   14.1393   22.9037 C   0  0  0  0  0  0  0  0  0  0  0  0
    9.3079   11.1249   23.4836 C   0  0  0  0  0  0  0  0  0  0  0  0
   10.3848   10.6976   22.5969 C   0  0  0  0  0  0  0  0  0  0  0  0
    8.6393   10.1453   24.1724 N   0  0  0  0  0  0  0  0  0  0  0  0
    8.8515    8.7288   23.9524 C   0  0  0  0  0  0  0  0  0  0  0  0
  1  2  1  0
  2  3  1  0
  3  4  2  0
  4  5  1  0
  5  6  2  0
  6  7  1  0
  7  8  2  0
  7  9  1  0
  9 10  1  0
 10 11  2  0
 10 12  1  0
 12 13  1  0
 13 14  1  0
 14 15  1  0
 14 16  1  0
  9 17  2  0
 17 18  1  0
 17 19  1  0
 19 20  1  0
  8  3  1  0
 16 12  1  0
 19  6  1  0
M  END
>  <alias>  (1468) 
None

>  <rmsd(smina/fragmenstein)>  (1468) 
0.238

>  <smiles>  (1468) 
COc1ccc2c(c1)c(C(=O)N1CC(O)C1)c(C)n2C

>  <gnina_score>  (1468) 
5.241

>  <inspiration_score>  (1468) 
None

>  <energy_score>  (1468) 
-4.06051

>  <distance_score>  (1468) 
1.50674

>  <gnina_score_min>  (1468) 
5.229

>  <inchikey>  (1468) 
SZMMHYZWDJPPOA-UHFFFAOYSA-N

>  <exports>  (1468) 
['/opt/xchem-fragalysis-2/maxwin/BulkDock/OUTPUTS/openbind_a71ev2a_c2_elabs_1LOUU54.sdf', '/opt/xchem-fragalysis-2/maxwin/BulkDock/OUTPUTS/openbind_a71ev2a_c2_elabs_1LSYIDY.sdf']

>  <name>  (1468) 
P577455

>  <ref_pdb>  (1468) 
A3066a

>  <subsites>  (1468) 
None

>  <HIPPO Pose ID>  (1468) 
577455

>  <ref_mols>  (1468) 
A3066a

>  <HIPPO Compound ID>  (1468) 
351683

>  <tags>  (1468) 
openbind_a71ev2a_c2_elabs,syndirella_product,openbind_a71ev2a_c2_elabs_fragonly_scored_top80percent,openbind_a71ev2a_c2_elabs_scored,BulkDock Fragalysis export,openbind_a71ev2a_c2_elabs_scored_top80percent,openbind_a71ev2a_c2_elabs_activefrags_only_scored_5.2plus,syndirella_placed

>  <smina_score_min>  (1468) 
-6.058

$$$$
P577456
     RDKit          3D

 20 21  0  0  0  0  0  0  0  0999 V2000
    5.0757   13.6525   28.2193 C   0  0  0  0  0  0  0  0  0  0  0  0
    6.2905   13.8620   27.5110 O   0  0  0  0  0  0  0  0  0  0  0  0
    6.7470   12.8217   26.7465 C   0  0  0  0  0  0  0  0  0  0  0  0
    6.2817   11.5113   26.8001 C   0  0  0  0  0  0  0  0  0  0  0  0
    6.8271   10.5168   25.9848 C   0  0  0  0  0  0  0  0  0  0  0  0
    7.8743   10.8726   25.1280 C   0  0  0  0  0  0  0  0  0  0  0  0
    8.3728   12.1758   25.0573 C   0  0  0  0  0  0  0  0  0  0  0  0
    7.7893   13.1596   25.8776 C   0  0  0  0  0  0  0  0  0  0  0  0
    9.4423   12.1919   24.1090 C   0  0  0  0  0  0  0  0  0  0  0  0
   10.3225   13.3268   23.7883 C   0  0  0  0  0  0  0  0  0  0  0  0
   10.7236   14.0326   24.6233 O   0  0  0  0  0  0  0  0  0  0  0  0
   10.5426   13.3555   22.2734 N   0  0  0  0  0  0  0  0  0  0  0  0
   11.3821   14.2038   21.4635 C   0  0  2  0  0  0  0  0  0  0  0  0
   12.4264   14.9569   22.2497 C   0  0  0  0  0  0  0  0  0  0  0  0
   10.4896   15.0300   20.5262 C   0  0  0  0  0  0  0  0  0  0  0  0
    9.7395   16.0498   21.1673 O   0  0  0  0  0  0  0  0  0  0  0  0
    9.5048   10.9078   23.5868 C   0  0  0  0  0  0  0  0  0  0  0  0
   10.3668   10.2485   22.6006 C   0  0  0  0  0  0  0  0  0  0  0  0
    8.6189   10.1236   24.2612 N   0  0  0  0  0  0  0  0  0  0  0  0
    8.5651    8.6938   24.0860 C   0  0  0  0  0  0  0  0  0  0  0  0
  1  2  1  0
  2  3  1  0
  3  4  2  0
  4  5  1  0
  5  6  2  0
  6  7  1  0
  7  8  2  0
  7  9  1  0
  9 10  1  0
 10 11  2  0
 10 12  1  0
 12 13  1  0
 13 14  1  1
 13 15  1  0
 15 16  1  0
  9 17  2  0
 17 18  1  0
 17 19  1  0
 19 20  1  0
  8  3  1  0
 19  6  1  0
M  END
>  <alias>  (1469) 
None

>  <rmsd(smina/fragmenstein)>  (1469) 
1.427

>  <smiles>  (1469) 
COc1ccc2c(c1)c(C(=O)N[C@H](C)CO)c(C)n2C

>  <gnina_score>  (1469) 
5.292

>  <inspiration_score>  (1469) 
None

>  <energy_score>  (1469) 
-9.315932

>  <distance_score>  (1469) 
0.981132

>  <gnina_score_min>  (1469) 
5.216

>  <inchikey>  (1469) 
FUJKABYFIJZYOC-SECBINFHSA-N

>  <exports>  (1469) 
['/opt/xchem-fragalysis-2/maxwin/BulkDock/OUTPUTS/openbind_a71ev2a_c2_elabs_1LOUU54.sdf', '/opt/xchem-fragalysis-2/maxwin/BulkDock/OUTPUTS/openbind_a71ev2a_c2_elabs_1LSYIDY.sdf']

>  <name>  (1469) 
P577456

>  <ref_pdb>  (1469) 
A3066a

>  <subsites>  (1469) 
None

>  <HIPPO Pose ID>  (1469) 
577456

>  <ref_mols>  (1469) 
A3066a

>  <HIPPO Compound ID>  (1469) 
351685

>  <tags>  (1469) 
openbind_a71ev2a_c2_elabs,syndirella_product,openbind_a71ev2a_c2_elabs_fragonly_scored_top80percent,openbind_a71ev2a_c2_elabs_scored,BulkDock Fragalysis export,openbind_a71ev2a_c2_elabs_scored_top80percent,openbind_a71ev2a_c2_elabs_activefrags_only_scored_5.2plus,syndirella_placed

>  <smina_score_min>  (1469) 
-6.725

$$$$
P577460
     RDKit          3D

 20 21  0  0  0  0  0  0  0  0999 V2000
    8.9605    7.6116   21.9008 C   0  0  0  0  0  0  0  0  0  0  0  0
    9.9582    8.4892   22.3659 O   0  0  0  0  0  0  0  0  0  0  0  0
   10.0235    8.4011   23.7720 C   0  0  0  0  0  0  0  0  0  0  0  0
    8.7879    9.0601   24.3413 C   0  0  0  0  0  0  0  0  0  0  0  0
    8.8465   10.4974   24.4008 N   0  0  0  0  0  0  0  0  0  0  0  0
    9.7549   11.2898   23.7813 C   0  0  0  0  0  0  0  0  0  0  0  0
    9.6836   12.5372   24.3650 C   0  0  0  0  0  0  0  0  0  0  0  0
   10.6056   13.6193   24.0737 C   0  0  0  0  0  0  0  0  0  0  0  0
   10.9942   14.3507   24.8882 O   0  0  0  0  0  0  0  0  0  0  0  0
   10.8207   13.6146   22.5652 N   0  0  0  0  0  0  0  0  0  0  0  0
   11.4802   14.5579   21.7172 C   0  0  0  0  0  0  0  0  0  0  0  0
   10.5712   14.7511   20.5052 C   0  0  1  0  0  0  0  0  0  0  0  0
    9.7327   16.0108   20.5315 C   0  0  0  0  0  0  0  0  0  0  0  0
   11.6191   14.5755   18.9001 Br  0  0  0  0  0  0  0  0  0  0  0  0
    8.5314   12.5363   25.2017 C   0  0  0  0  0  0  0  0  0  0  0  0
    7.8734   13.5120   25.9703 C   0  0  0  0  0  0  0  0  0  0  0  0
    6.7548   13.1481   26.7270 C   0  0  0  0  0  0  0  0  0  0  0  0
    6.2836   11.8391   26.7257 C   0  0  0  0  0  0  0  0  0  0  0  0
    6.9015   10.8583   25.9557 C   0  0  0  0  0  0  0  0  0  0  0  0
    8.0210   11.2392   25.2045 C   0  0  0  0  0  0  0  0  0  0  0  0
  1  2  1  0
  2  3  1  0
  3  4  1  0
  4  5  1  0
  5  6  1  0
  6  7  2  0
  7  8  1  0
  8  9  2  0
  8 10  1  0
 10 11  1  0
 11 12  1  0
 12 13  1  1
 12 14  1  0
  7 15  1  0
 15 16  2  0
 16 17  1  0
 17 18  2  0
 18 19  1  0
 19 20  2  0
 20  5  1  0
 20 15  1  0
M  END
>  <alias>  (1470) 
None

>  <rmsd(smina/fragmenstein)>  (1470) 
0.315

>  <smiles>  (1470) 
COCCn1cc(C(=O)NC[C@@H](C)Br)c2ccccc21

>  <gnina_score>  (1470) 
5.235

>  <inspiration_score>  (1470) 
None

>  <energy_score>  (1470) 
-1.877603

>  <distance_score>  (1470) 
1.076172

>  <gnina_score_min>  (1470) 
5.281

>  <inchikey>  (1470) 
IITSSJNTFDOFIG-LLVKDONJSA-N

>  <exports>  (1470) 
['/opt/xchem-fragalysis-2/maxwin/BulkDock/OUTPUTS/openbind_a71ev2a_c2_elabs_1LOUU54.sdf', '/opt/xchem-fragalysis-2/maxwin/BulkDock/OUTPUTS/openbind_a71ev2a_c2_elabs_1LSYIDY.sdf']

>  <name>  (1470) 
P577460

>  <ref_pdb>  (1470) 
A3066a

>  <subsites>  (1470) 
None

>  <HIPPO Pose ID>  (1470) 
577460

>  <ref_mols>  (1470) 
A3066a

>  <HIPPO Compound ID>  (1470) 
351702

>  <tags>  (1470) 
openbind_a71ev2a_c2_elabs,syndirella_product,openbind_a71ev2a_c2_elabs_fragonly_scored_top80percent,openbind_a71ev2a_c2_elabs_scored,BulkDock Fragalysis export,openbind_a71ev2a_c2_elabs_scored_top80percent,openbind_a71ev2a_c2_elabs_activefrags_only_scored_5.2plus,syndirella_placed

>  <smina_score_min>  (1470) 
-3.557

$$$$
P577461
     RDKit          3D

 20 21  0  0  0  0  0  0  0  0999 V2000
    8.6193    7.1708   21.8001 C   0  0  0  0  0  0  0  0  0  0  0  0
    9.4736    7.6620   22.7826 O   0  0  0  0  0  0  0  0  0  0  0  0
    9.2379    9.0217   22.8515 C   0  0  0  0  0  0  0  0  0  0  0  0
    9.5984    9.3808   24.2158 C   0  0  0  0  0  0  0  0  0  0  0  0
    9.3759   10.7867   24.3465 N   0  0  0  0  0  0  0  0  0  0  0  0
   10.1838   11.6880   23.7459 C   0  0  0  0  0  0  0  0  0  0  0  0
    9.8650   12.9247   24.2447 C   0  0  0  0  0  0  0  0  0  0  0  0
   10.6905   14.0402   23.8661 C   0  0  0  0  0  0  0  0  0  0  0  0
   11.3566   14.6247   24.6196 O   0  0  0  0  0  0  0  0  0  0  0  0
   10.5601   14.1714   22.3482 N   0  0  0  0  0  0  0  0  0  0  0  0
   11.2894   14.9846   21.4150 C   0  0  1  0  0  0  0  0  0  0  0  0
   12.6885   14.4006   21.3263 C   0  0  0  0  0  0  0  0  0  0  0  0
   10.5881   14.9908   20.0523 C   0  0  0  0  0  0  0  0  0  0  0  0
    8.9616   15.8214   20.1259 S   0  0  0  0  0  0  0  0  0  0  0  0
    8.6967   12.7702   25.0409 C   0  0  0  0  0  0  0  0  0  0  0  0
    7.8588   13.6445   25.7528 C   0  0  0  0  0  0  0  0  0  0  0  0
    6.7616   13.1261   26.4528 C   0  0  0  0  0  0  0  0  0  0  0  0
    6.4814   11.7628   26.4461 C   0  0  0  0  0  0  0  0  0  0  0  0
    7.2815   10.8736   25.7349 C   0  0  0  0  0  0  0  0  0  0  0  0
    8.3869   11.4035   25.0566 C   0  0  0  0  0  0  0  0  0  0  0  0
  1  2  1  0
  2  3  1  0
  3  4  1  0
  4  5  1  0
  5  6  1  0
  6  7  2  0
  7  8  1  0
  8  9  2  0
  8 10  1  0
 10 11  1  0
 11 12  1  6
 11 13  1  0
 13 14  1  0
  7 15  1  0
 15 16  2  0
 16 17  1  0
 17 18  2  0
 18 19  1  0
 19 20  2  0
 20  5  1  0
 20 15  1  0
M  END
>  <alias>  (1471) 
None

>  <rmsd(smina/fragmenstein)>  (1471) 
1.031

>  <smiles>  (1471) 
COCCn1cc(C(=O)N[C@@H](C)CS)c2ccccc21

>  <gnina_score>  (1471) 
5.477

>  <inspiration_score>  (1471) 
None

>  <energy_score>  (1471) 
-2.097154

>  <distance_score>  (1471) 
1.106388

>  <gnina_score_min>  (1471) 
5.494

>  <inchikey>  (1471) 
GXRAZNMYOWLZKP-NSHDSACASA-N

>  <exports>  (1471) 
['/opt/xchem-fragalysis-2/maxwin/BulkDock/OUTPUTS/openbind_a71ev2a_c2_elabs_1LOUU54.sdf', '/opt/xchem-fragalysis-2/maxwin/BulkDock/OUTPUTS/openbind_a71ev2a_c2_elabs_1LSYIDY.sdf']

>  <name>  (1471) 
P577461

>  <ref_pdb>  (1471) 
A3066a

>  <subsites>  (1471) 
None

>  <HIPPO Pose ID>  (1471) 
577461

>  <ref_mols>  (1471) 
A3066a

>  <HIPPO Compound ID>  (1471) 
351713

>  <tags>  (1471) 
openbind_a71ev2a_c2_elabs,syndirella_product,openbind_a71ev2a_c2_elabs_fragonly_scored_top80percent,openbind_a71ev2a_c2_elabs_scored,BulkDock Fragalysis export,openbind_a71ev2a_c2_elabs_scored_top80percent,openbind_a71ev2a_c2_elabs_activefrags_only_scored_5.2plus,syndirella_placed

>  <smina_score_min>  (1471) 
-5.286

$$$$
P577464
     RDKit          3D

 20 21  0  0  0  0  0  0  0  0999 V2000
   10.0515    8.8538   21.6564 C   0  0  0  0  0  0  0  0  0  0  0  0
   10.8690    8.5371   22.7309 O   0  0  0  0  0  0  0  0  0  0  0  0
   10.1727    8.2893   23.9069 C   0  0  0  0  0  0  0  0  0  0  0  0
    8.8100    8.9188   24.0887 C   0  0  0  0  0  0  0  0  0  0  0  0
    8.7985   10.3507   24.3307 N   0  0  0  0  0  0  0  0  0  0  0  0
    9.5774   11.2938   23.7122 C   0  0  0  0  0  0  0  0  0  0  0  0
    8.9554   12.5161   23.8512 C   0  0  0  0  0  0  0  0  0  0  0  0
    9.1841   13.7322   23.0667 C   0  0  0  0  0  0  0  0  0  0  0  0
    8.3436   14.5317   23.0281 O   0  0  0  0  0  0  0  0  0  0  0  0
   10.5512   13.6981   22.3841 N   0  0  0  0  0  0  0  0  0  0  0  0
   11.2242   14.6930   21.5747 C   0  0  1  0  0  0  0  0  0  0  0  0
   12.6866   14.3256   21.4493 C   0  0  0  0  0  0  0  0  0  0  0  0
   10.4472   14.9923   20.2774 C   0  0  0  0  0  0  0  0  0  0  0  0
   11.3085   14.6295   18.7565 Cl  0  0  0  0  0  0  0  0  0  0  0  0
    7.9974   12.3429   24.8948 C   0  0  0  0  0  0  0  0  0  0  0  0
    7.1659   13.2283   25.6055 C   0  0  0  0  0  0  0  0  0  0  0  0
    6.2832   12.7283   26.5637 C   0  0  0  0  0  0  0  0  0  0  0  0
    6.1745   11.3611   26.7783 C   0  0  0  0  0  0  0  0  0  0  0  0
    6.9428   10.4592   26.0461 C   0  0  0  0  0  0  0  0  0  0  0  0
    7.8868   10.9751   25.1484 C   0  0  0  0  0  0  0  0  0  0  0  0
  1  2  1  0
  2  3  1  0
  3  4  1  0
  4  5  1  0
  5  6  1  0
  6  7  2  0
  7  8  1  0
  8  9  2  0
  8 10  1  0
 10 11  1  0
 11 12  1  6
 11 13  1  0
 13 14  1  0
  7 15  1  0
 15 16  2  0
 16 17  1  0
 17 18  2  0
 18 19  1  0
 19 20  2  0
 20  5  1  0
 20 15  1  0
M  END
>  <alias>  (1472) 
None

>  <rmsd(smina/fragmenstein)>  (1472) 
0.367

>  <smiles>  (1472) 
COCCn1cc(C(=O)N[C@@H](C)CCl)c2ccccc21

>  <gnina_score>  (1472) 
5.181

>  <inspiration_score>  (1472) 
None

>  <energy_score>  (1472) 
-0.319039

>  <distance_score>  (1472) 
1.425915

>  <gnina_score_min>  (1472) 
5.231

>  <inchikey>  (1472) 
RSGLUXGUJVKONV-NSHDSACASA-N

>  <exports>  (1472) 
['/opt/xchem-fragalysis-2/maxwin/BulkDock/OUTPUTS/openbind_a71ev2a_c2_elabs_1LOUU54.sdf', '/opt/xchem-fragalysis-2/maxwin/BulkDock/OUTPUTS/openbind_a71ev2a_c2_elabs_1LSYIDY.sdf']

>  <name>  (1472) 
P577464

>  <ref_pdb>  (1472) 
A3066a

>  <subsites>  (1472) 
None

>  <HIPPO Pose ID>  (1472) 
577464

>  <ref_mols>  (1472) 
A3066a

>  <HIPPO Compound ID>  (1472) 
351767

>  <tags>  (1472) 
openbind_a71ev2a_c2_elabs,syndirella_product,openbind_a71ev2a_c2_elabs_fragonly_scored_top80percent,openbind_a71ev2a_c2_elabs_scored,BulkDock Fragalysis export,openbind_a71ev2a_c2_elabs_scored_top80percent,openbind_a71ev2a_c2_elabs_activefrags_only_scored_5.2plus,syndirella_placed

>  <smina_score_min>  (1472) 
-3.666

$$$$
P577465
     RDKit          3D

 20 22  0  0  0  0  0  0  0  0999 V2000
   11.1651    7.8064   23.5796 C   0  0  0  0  0  0  0  0  0  0  0  0
   10.6024    8.7321   22.7136 O   0  0  0  0  0  0  0  0  0  0  0  0
    9.2118    8.6132   22.6806 C   0  0  0  0  0  0  0  0  0  0  0  0
    8.5604    8.9294   23.9980 C   0  0  0  0  0  0  0  0  0  0  0  0
    8.5088   10.3349   24.3179 N   0  0  0  0  0  0  0  0  0  0  0  0
    9.3258   11.2840   23.8047 C   0  0  0  0  0  0  0  0  0  0  0  0
    9.0365   12.4734   24.4331 C   0  0  0  0  0  0  0  0  0  0  0  0
    9.9052   13.6123   24.3217 C   0  0  0  0  0  0  0  0  0  0  0  0
   10.1818   14.2398   25.2636 O   0  0  0  0  0  0  0  0  0  0  0  0
   10.4058   13.7178   22.8691 N   0  0  0  0  0  0  0  0  0  0  0  0
   11.3947   14.5320   22.3052 C   0  0  2  0  0  0  0  0  0  0  0  0
   12.4191   13.8698   21.4277 C   0  0  0  0  0  0  0  0  0  0  0  0
   12.7974   14.3058   22.8063 C   0  0  2  0  0  0  0  0  0  0  0  0
   12.9862   13.3457   23.9442 C   0  0  0  0  0  0  0  0  0  0  0  0
    7.9753   12.2386   25.3329 C   0  0  0  0  0  0  0  0  0  0  0  0
    7.2966   13.0445   26.2610 C   0  0  0  0  0  0  0  0  0  0  0  0
    6.3350   12.4651   27.0876 C   0  0  0  0  0  0  0  0  0  0  0  0
    6.0451   11.1083   26.9954 C   0  0  0  0  0  0  0  0  0  0  0  0
    6.6894   10.2942   26.0650 C   0  0  0  0  0  0  0  0  0  0  0  0
    7.6655   10.8813   25.2540 C   0  0  0  0  0  0  0  0  0  0  0  0
  1  2  1  0
  2  3  1  0
  3  4  1  0
  4  5  1  0
  5  6  1  0
  6  7  2  0
  7  8  1  0
  8  9  2  0
  8 10  1  0
 11 10  1  1
 11 12  1  0
 12 13  1  0
 13 14  1  1
  7 15  1  0
 15 16  2  0
 16 17  1  0
 17 18  2  0
 18 19  1  0
 19 20  2  0
 20  5  1  0
 13 11  1  0
 20 15  1  0
M  END
>  <alias>  (1473) 
None

>  <rmsd(smina/fragmenstein)>  (1473) 
0.726

>  <smiles>  (1473) 
COCCn1cc(C(=O)N[C@@H]2C[C@@H]2C)c2ccccc21

>  <gnina_score>  (1473) 
5.171

>  <inspiration_score>  (1473) 
None

>  <energy_score>  (1473) 
-2.801505

>  <distance_score>  (1473) 
1.254134

>  <gnina_score_min>  (1473) 
5.258

>  <inchikey>  (1473) 
DOSIDKCPDUTXSZ-SMDDNHRTSA-N

>  <exports>  (1473) 
['/opt/xchem-fragalysis-2/maxwin/BulkDock/OUTPUTS/openbind_a71ev2a_c2_elabs_1LOUU54.sdf', '/opt/xchem-fragalysis-2/maxwin/BulkDock/OUTPUTS/openbind_a71ev2a_c2_elabs_1LSYIDY.sdf']

>  <name>  (1473) 
P577465

>  <ref_pdb>  (1473) 
A3066a

>  <subsites>  (1473) 
None

>  <HIPPO Pose ID>  (1473) 
577465

>  <ref_mols>  (1473) 
A3066a

>  <HIPPO Compound ID>  (1473) 
351779

>  <tags>  (1473) 
openbind_a71ev2a_c2_elabs,syndirella_product,openbind_a71ev2a_c2_elabs_fragonly_scored_top80percent,openbind_a71ev2a_c2_elabs_scored,BulkDock Fragalysis export,openbind_a71ev2a_c2_elabs_scored_top80percent,openbind_a71ev2a_c2_elabs_activefrags_only_scored_5.2plus,syndirella_placed

>  <smina_score_min>  (1473) 
-4.088

$$$$
P577466
     RDKit          3D

 20 21  0  0  0  0  0  0  0  0999 V2000
    5.0675   13.3256   28.2854 C   0  0  0  0  0  0  0  0  0  0  0  0
    6.1864   13.6297   27.4634 O   0  0  0  0  0  0  0  0  0  0  0  0
    6.6780   12.6187   26.6823 C   0  0  0  0  0  0  0  0  0  0  0  0
    6.2846   11.2863   26.7365 C   0  0  0  0  0  0  0  0  0  0  0  0
    6.8617   10.3282   25.8994 C   0  0  0  0  0  0  0  0  0  0  0  0
    7.8710   10.7395   25.0223 C   0  0  0  0  0  0  0  0  0  0  0  0
    8.2895   12.0667   24.9393 C   0  0  0  0  0  0  0  0  0  0  0  0
    7.6740   13.0136   25.7839 C   0  0  0  0  0  0  0  0  0  0  0  0
    9.3382   12.1467   23.9602 C   0  0  0  0  0  0  0  0  0  0  0  0
   10.1310   13.3499   23.6783 C   0  0  0  0  0  0  0  0  0  0  0  0
   10.3345   14.0735   24.5691 O   0  0  0  0  0  0  0  0  0  0  0  0
   10.4760   13.4859   22.1816 N   0  0  0  0  0  0  0  0  0  0  0  0
   11.0636   14.5920   21.4454 C   0  0  0  0  0  0  0  0  0  0  0  0
    9.9239   15.5614   21.1098 C   0  0  0  0  0  0  0  0  0  0  0  0
   12.1712   15.1906   22.2985 C   0  0  0  0  0  0  0  0  0  0  0  0
   11.7190   14.1913   20.1237 C   0  0  0  0  0  0  0  0  0  0  0  0
    9.4800   10.8694   23.4583 C   0  0  0  0  0  0  0  0  0  0  0  0
   10.3929   10.2618   22.4978 C   0  0  0  0  0  0  0  0  0  0  0  0
    8.6484   10.0361   24.1462 N   0  0  0  0  0  0  0  0  0  0  0  0
    8.6849    8.6044   23.9873 C   0  0  0  0  0  0  0  0  0  0  0  0
  1  2  1  0
  2  3  1  0
  3  4  2  0
  4  5  1  0
  5  6  2  0
  6  7  1  0
  7  8  2  0
  7  9  1  0
  9 10  1  0
 10 11  2  0
 10 12  1  0
 12 13  1  0
 13 14  1  0
 13 15  1  0
 13 16  1  0
  9 17  2  0
 17 18  1  0
 17 19  1  0
 19 20  1  0
  8  3  1  0
 19  6  1  0
M  END
>  <alias>  (1474) 
None

>  <rmsd(smina/fragmenstein)>  (1474) 
1.542

>  <smiles>  (1474) 
COc1ccc2c(c1)c(C(=O)NC(C)(C)C)c(C)n2C

>  <gnina_score>  (1474) 
5.381

>  <inspiration_score>  (1474) 
None

>  <energy_score>  (1474) 
-17.206457

>  <distance_score>  (1474) 
0.960213

>  <gnina_score_min>  (1474) 
5.249

>  <inchikey>  (1474) 
RUOGYDFALFCXRO-UHFFFAOYSA-N

>  <exports>  (1474) 
['/opt/xchem-fragalysis-2/maxwin/BulkDock/OUTPUTS/openbind_a71ev2a_c2_elabs_1LOUU54.sdf', '/opt/xchem-fragalysis-2/maxwin/BulkDock/OUTPUTS/openbind_a71ev2a_c2_elabs_1LSYIDY.sdf']

>  <name>  (1474) 
P577466

>  <ref_pdb>  (1474) 
A3066a

>  <subsites>  (1474) 
None

>  <HIPPO Pose ID>  (1474) 
577466

>  <ref_mols>  (1474) 
A3066a

>  <HIPPO Compound ID>  (1474) 
351787

>  <tags>  (1474) 
openbind_a71ev2a_c2_elabs,syndirella_product,openbind_a71ev2a_c2_elabs_fragonly_scored_top80percent,openbind_a71ev2a_c2_elabs_scored,BulkDock Fragalysis export,openbind_a71ev2a_c2_elabs_scored_top80percent,openbind_a71ev2a_c2_elabs_activefrags_only_scored_5.2plus,syndirella_placed

>  <smina_score_min>  (1474) 
-6.174

$$$$
P577468
     RDKit          3D

 20 22  0  0  0  0  0  0  0  0999 V2000
   10.7338    8.7079   23.1825 C   0  0  0  0  0  0  0  0  0  0  0  0
   10.1981   10.0545   22.6986 C   0  0  0  0  0  0  0  0  0  0  0  0
    9.4441   10.8539   23.7030 C   0  0  0  0  0  0  0  0  0  0  0  0
    9.5417   12.1739   24.1393 C   0  0  0  0  0  0  0  0  0  0  0  0
   10.5176   13.2245   23.8054 C   0  0  0  0  0  0  0  0  0  0  0  0
   11.0170   13.8281   24.6846 O   0  0  0  0  0  0  0  0  0  0  0  0
   10.6291   13.4020   22.3208 N   0  0  0  0  0  0  0  0  0  0  0  0
   11.4952   14.3452   21.4941 C   0  0  0  0  0  0  0  0  0  0  0  0
   10.3548   14.5591   20.5380 C   0  0  0  0  0  0  0  0  0  0  0  0
   10.2013   15.8147   19.8540 O   0  0  0  0  0  0  0  0  0  0  0  0
    9.5442   14.3660   21.7819 C   0  0  0  0  0  0  0  0  0  0  0  0
    8.4706   12.3766   25.0746 C   0  0  0  0  0  0  0  0  0  0  0  0
    8.0159   13.4907   25.8071 C   0  0  0  0  0  0  0  0  0  0  0  0
    6.9483   13.3348   26.6925 C   0  0  0  0  0  0  0  0  0  0  0  0
    6.4153   14.6893   27.6133 Cl  0  0  0  0  0  0  0  0  0  0  0  0
    6.3258   12.1052   26.8642 C   0  0  0  0  0  0  0  0  0  0  0  0
    6.7495   10.9938   26.1429 C   0  0  0  0  0  0  0  0  0  0  0  0
    7.8170   11.1643   25.2498 C   0  0  0  0  0  0  0  0  0  0  0  0
    8.4324   10.2750   24.4163 N   0  0  0  0  0  0  0  0  0  0  0  0
    8.0520    8.8993   24.3174 C   0  0  0  0  0  0  0  0  0  0  0  0
  1  2  1  0
  2  3  1  0
  3  4  2  0
  4  5  1  0
  5  6  2  0
  5  7  1  0
  7  8  1  0
  8  9  1  0
  9 10  1  0
  9 11  1  0
  4 12  1  0
 12 13  2  0
 13 14  1  0
 14 15  1  0
 14 16  2  0
 16 17  1  0
 17 18  2  0
 18 19  1  0
 19 20  1  0
 19  3  1  0
 11  7  1  0
 18 12  1  0
M  END
>  <alias>  (1475) 
None

>  <rmsd(smina/fragmenstein)>  (1475) 
0.751

>  <smiles>  (1475) 
CCc1c(C(=O)N2CC(O)C2)c2cc(Cl)ccc2n1C

>  <gnina_score>  (1475) 
5.387

>  <inspiration_score>  (1475) 
None

>  <energy_score>  (1475) 
-3.102108

>  <distance_score>  (1475) 
1.172915

>  <gnina_score_min>  (1475) 
5.418

>  <inchikey>  (1475) 
GEFAQMZVJMUGLD-UHFFFAOYSA-N

>  <exports>  (1475) 
['/opt/xchem-fragalysis-2/maxwin/BulkDock/OUTPUTS/openbind_a71ev2a_c2_elabs_1LOUU54.sdf', '/opt/xchem-fragalysis-2/maxwin/BulkDock/OUTPUTS/openbind_a71ev2a_c2_elabs_1LSYIDY.sdf']

>  <name>  (1475) 
P577468

>  <ref_pdb>  (1475) 
A3066a

>  <subsites>  (1475) 
None

>  <HIPPO Pose ID>  (1475) 
577468

>  <ref_mols>  (1475) 
A3066a

>  <HIPPO Compound ID>  (1475) 
351790

>  <tags>  (1475) 
openbind_a71ev2a_c2_elabs,syndirella_product,openbind_a71ev2a_c2_elabs_fragonly_scored_top80percent,openbind_a71ev2a_c2_elabs_scored,BulkDock Fragalysis export,openbind_a71ev2a_c2_elabs_scored_top80percent,openbind_a71ev2a_c2_elabs_activefrags_only_scored_5.2plus,syndirella_placed

>  <smina_score_min>  (1475) 
-7.064

$$$$
P577469
     RDKit          3D

 20 21  0  0  0  0  0  0  0  0999 V2000
   10.6185   14.9245   19.6669 C   0  0  0  0  0  0  0  0  0  0  0  0
   10.9960   15.0295   20.9447 C   0  0  0  0  0  0  0  0  0  0  0  0
   12.2537   14.4203   21.4949 C   0  0  0  0  0  0  0  0  0  0  0  0
   12.2182   14.2357   23.0100 C   0  0  0  0  0  0  0  0  0  0  0  0
   11.2329   13.2927   23.4521 N   0  0  0  0  0  0  0  0  0  0  0  0
    9.7164   13.4361   23.6038 C   0  0  0  0  0  0  0  0  0  0  0  0
    9.0307   14.3632   23.4684 O   0  0  0  0  0  0  0  0  0  0  0  0
    9.1347   12.1766   24.0410 C   0  0  0  0  0  0  0  0  0  0  0  0
    9.4089   10.9133   23.5613 C   0  0  0  0  0  0  0  0  0  0  0  0
   10.3191   10.4043   22.5370 C   0  0  0  0  0  0  0  0  0  0  0  0
    8.6332   10.0201   24.2360 N   0  0  0  0  0  0  0  0  0  0  0  0
    8.7192    8.6002   24.0071 C   0  0  0  0  0  0  0  0  0  0  0  0
    7.8143   10.6683   25.1204 C   0  0  0  0  0  0  0  0  0  0  0  0
    6.8251   10.1961   25.9860 C   0  0  0  0  0  0  0  0  0  0  0  0
    6.1951   11.1104   26.8347 C   0  0  0  0  0  0  0  0  0  0  0  0
    6.5006   12.4658   26.7876 C   0  0  0  0  0  0  0  0  0  0  0  0
    5.9518   13.4361   27.5819 O   0  0  0  0  0  0  0  0  0  0  0  0
    4.8238   13.0655   28.3636 C   0  0  0  0  0  0  0  0  0  0  0  0
    7.4542   12.9301   25.8791 C   0  0  0  0  0  0  0  0  0  0  0  0
    8.1261   12.0245   25.0351 C   0  0  0  0  0  0  0  0  0  0  0  0
  1  2  2  0
  2  3  1  0
  3  4  1  0
  4  5  1  0
  5  6  1  0
  6  7  2  0
  6  8  1  0
  8  9  2  0
  9 10  1  0
  9 11  1  0
 11 12  1  0
 11 13  1  0
 13 14  2  0
 14 15  1  0
 15 16  2  0
 16 17  1  0
 17 18  1  0
 16 19  1  0
 19 20  2  0
 20  8  1  0
 20 13  1  0
M  END
>  <alias>  (1476) 
None

>  <rmsd(smina/fragmenstein)>  (1476) 
0.308

>  <smiles>  (1476) 
C=CCCNC(=O)c1c(C)n(C)c2ccc(OC)cc12

>  <gnina_score>  (1476) 
5.318

>  <inspiration_score>  (1476) 
None

>  <energy_score>  (1476) 
-10.254793

>  <distance_score>  (1476) 
1.168462

>  <gnina_score_min>  (1476) 
5.324

>  <inchikey>  (1476) 
LUIFHYSXPWMDAR-UHFFFAOYSA-N

>  <exports>  (1476) 
['/opt/xchem-fragalysis-2/maxwin/BulkDock/OUTPUTS/openbind_a71ev2a_c2_elabs_1LOUU54.sdf', '/opt/xchem-fragalysis-2/maxwin/BulkDock/OUTPUTS/openbind_a71ev2a_c2_elabs_1LSYIDY.sdf']

>  <name>  (1476) 
P577469

>  <ref_pdb>  (1476) 
A3066a

>  <subsites>  (1476) 
None

>  <HIPPO Pose ID>  (1476) 
577469

>  <ref_mols>  (1476) 
A3066a

>  <HIPPO Compound ID>  (1476) 
351792

>  <tags>  (1476) 
openbind_a71ev2a_c2_elabs,syndirella_product,openbind_a71ev2a_c2_elabs_fragonly_scored_top80percent,openbind_a71ev2a_c2_elabs_scored,BulkDock Fragalysis export,openbind_a71ev2a_c2_elabs_scored_top80percent,openbind_a71ev2a_c2_elabs_activefrags_only_scored_5.2plus,syndirella_placed

>  <smina_score_min>  (1476) 
-5.103

$$$$
P577470
     RDKit          3D

 20 21  0  0  0  0  0  0  0  0999 V2000
   10.3359    9.0875   22.4622 C   0  0  0  0  0  0  0  0  0  0  0  0
   10.2890   10.5529   22.8109 C   0  0  0  0  0  0  0  0  0  0  0  0
    9.3288   11.0908   23.7942 C   0  0  0  0  0  0  0  0  0  0  0  0
    9.2948   12.3831   24.3237 C   0  0  0  0  0  0  0  0  0  0  0  0
   10.2865   13.4595   24.1073 C   0  0  0  0  0  0  0  0  0  0  0  0
   10.7478   14.0004   25.0288 O   0  0  0  0  0  0  0  0  0  0  0  0
   10.6024   13.5956   22.6160 N   0  0  0  0  0  0  0  0  0  0  0  0
   11.6193   14.3567   21.9414 C   0  0  0  0  0  0  0  0  0  0  0  0
   11.2282   14.6551   20.5064 C   0  0  0  0  0  0  0  0  0  0  0  0
    9.8738   15.2745   20.2730 C   0  0  0  0  0  0  0  0  0  0  0  0
   12.0301   14.5021   19.5843 O   0  0  0  0  0  0  0  0  0  0  0  0
    8.2057   12.4159   25.2388 C   0  0  0  0  0  0  0  0  0  0  0  0
    7.6594   13.4250   26.0521 C   0  0  0  0  0  0  0  0  0  0  0  0
    6.6126   13.1056   26.9153 C   0  0  0  0  0  0  0  0  0  0  0  0
    5.9612   14.3291   27.9374 Cl  0  0  0  0  0  0  0  0  0  0  0  0
    6.1013   11.8164   26.9837 C   0  0  0  0  0  0  0  0  0  0  0  0
    6.6172   10.8044   26.1787 C   0  0  0  0  0  0  0  0  0  0  0  0
    7.6729   11.1293   25.3157 C   0  0  0  0  0  0  0  0  0  0  0  0
    8.4053   10.3403   24.4642 N   0  0  0  0  0  0  0  0  0  0  0  0
    8.2643    8.9119   24.3905 C   0  0  0  0  0  0  0  0  0  0  0  0
  1  2  1  0
  2  3  1  0
  3  4  2  0
  4  5  1  0
  5  6  2  0
  5  7  1  0
  7  8  1  0
  8  9  1  0
  9 10  1  0
  9 11  2  0
  4 12  1  0
 12 13  2  0
 13 14  1  0
 14 15  1  0
 14 16  2  0
 16 17  1  0
 17 18  2  0
 18 19  1  0
 19 20  1  0
 19  3  1  0
 18 12  1  0
M  END
>  <alias>  (1477) 
None

>  <rmsd(smina/fragmenstein)>  (1477) 
1.06

>  <smiles>  (1477) 
CCc1c(C(=O)NCC(C)=O)c2cc(Cl)ccc2n1C

>  <gnina_score>  (1477) 
5.434

>  <inspiration_score>  (1477) 
None

>  <energy_score>  (1477) 
-10.656335

>  <distance_score>  (1477) 
1.24034

>  <gnina_score_min>  (1477) 
5.386

>  <inchikey>  (1477) 
QKYYRICSYJEXMT-UHFFFAOYSA-N

>  <exports>  (1477) 
['/opt/xchem-fragalysis-2/maxwin/BulkDock/OUTPUTS/openbind_a71ev2a_c2_elabs_1LOUU54.sdf', '/opt/xchem-fragalysis-2/maxwin/BulkDock/OUTPUTS/openbind_a71ev2a_c2_elabs_1LSYIDY.sdf']

>  <name>  (1477) 
P577470

>  <ref_pdb>  (1477) 
A3066a

>  <subsites>  (1477) 
None

>  <HIPPO Pose ID>  (1477) 
577470

>  <ref_mols>  (1477) 
A3066a

>  <HIPPO Compound ID>  (1477) 
351795

>  <tags>  (1477) 
openbind_a71ev2a_c2_elabs,syndirella_product,openbind_a71ev2a_c2_elabs_fragonly_scored_top80percent,openbind_a71ev2a_c2_elabs_scored,BulkDock Fragalysis export,openbind_a71ev2a_c2_elabs_scored_top80percent,openbind_a71ev2a_c2_elabs_activefrags_only_scored_5.2plus,syndirella_placed

>  <smina_score_min>  (1477) 
-6.795

$$$$
P577471
     RDKit          3D

 20 22  0  0  0  0  0  0  0  0999 V2000
   10.8088    8.5164   23.3029 C   0  0  0  0  0  0  0  0  0  0  0  0
   10.1727    9.7524   22.6849 C   0  0  0  0  0  0  0  0  0  0  0  0
    9.5035   10.6785   23.6529 C   0  0  0  0  0  0  0  0  0  0  0  0
    9.7094   11.9912   24.0838 C   0  0  0  0  0  0  0  0  0  0  0  0
   10.8146   12.9121   23.7876 C   0  0  0  0  0  0  0  0  0  0  0  0
   11.3162   13.5133   24.6501 O   0  0  0  0  0  0  0  0  0  0  0  0
   11.1011   12.9063   22.2849 N   0  0  0  0  0  0  0  0  0  0  0  0
   11.9777   13.6857   21.5232 C   0  0  2  0  0  0  0  0  0  0  0  0
   12.3703   15.0834   21.8288 C   0  0  0  0  0  0  0  0  0  0  0  0
   11.4015   14.8082   20.7066 C   0  0  2  0  0  0  0  0  0  0  0  0
    9.9797   15.2399   20.8399 C   0  0  0  0  0  0  0  0  0  0  0  0
    8.6270   12.3128   24.9719 C   0  0  0  0  0  0  0  0  0  0  0  0
    8.2392   13.4779   25.6606 C   0  0  0  0  0  0  0  0  0  0  0  0
    7.1459   13.4280   26.5281 C   0  0  0  0  0  0  0  0  0  0  0  0
    6.7061   14.8452   27.4023 Cl  0  0  0  0  0  0  0  0  0  0  0  0
    6.4330   12.2526   26.7248 C   0  0  0  0  0  0  0  0  0  0  0  0
    6.7895   11.0922   26.0459 C   0  0  0  0  0  0  0  0  0  0  0  0
    7.8808   11.1599   25.1682 C   0  0  0  0  0  0  0  0  0  0  0  0
    8.4479   10.2054   24.3783 N   0  0  0  0  0  0  0  0  0  0  0  0
    8.0120    8.8469   24.3406 C   0  0  0  0  0  0  0  0  0  0  0  0
  1  2  1  0
  2  3  1  0
  3  4  2  0
  4  5  1  0
  5  6  2  0
  5  7  1  0
  8  7  1  1
  8  9  1  0
  9 10  1  0
 10 11  1  1
  4 12  1  0
 12 13  2  0
 13 14  1  0
 14 15  1  0
 14 16  2  0
 16 17  1  0
 17 18  2  0
 18 19  1  0
 19 20  1  0
 19  3  1  0
 10  8  1  0
 18 12  1  0
M  END
>  <alias>  (1478) 
None

>  <rmsd(smina/fragmenstein)>  (1478) 
0.692

>  <smiles>  (1478) 
CCc1c(C(=O)N[C@@H]2C[C@@H]2C)c2cc(Cl)ccc2n1C

>  <gnina_score>  (1478) 
5.644

>  <inspiration_score>  (1478) 
None

>  <energy_score>  (1478) 
-1.196203

>  <distance_score>  (1478) 
1.148392

>  <gnina_score_min>  (1478) 
5.669

>  <inchikey>  (1478) 
KFMPENXTGPKRFC-JOYOIKCWSA-N

>  <exports>  (1478) 
['/opt/xchem-fragalysis-2/maxwin/BulkDock/OUTPUTS/openbind_a71ev2a_c2_elabs_1LOUU54.sdf', '/opt/xchem-fragalysis-2/maxwin/BulkDock/OUTPUTS/openbind_a71ev2a_c2_elabs_1LSYIDY.sdf']

>  <name>  (1478) 
P577471

>  <ref_pdb>  (1478) 
A3066a

>  <subsites>  (1478) 
None

>  <HIPPO Pose ID>  (1478) 
577471

>  <ref_mols>  (1478) 
A3066a

>  <HIPPO Compound ID>  (1478) 
351810

>  <tags>  (1478) 
openbind_a71ev2a_c2_elabs,syndirella_product,openbind_a71ev2a_c2_elabs_fragonly_scored_top80percent,BulkDock Fragalysis export,openbind_a71ev2a_c2_elabs_scored,openbind_a71ev2a_c2_elabs_scored_top80percent,openbind_a71ev2a_c2_elabs_activefrags_only_scored_5.2plus,openbind_a71ev2a_c2_elabs_activefrags_only_scored_5.5plus,syndirella_placed

>  <smina_score_min>  (1478) 
-6.617

$$$$
P577474
     RDKit          3D

 20 21  0  0  0  0  0  0  0  0999 V2000
   11.8188   14.6483   24.4357 C   0  0  0  0  0  0  0  0  0  0  0  0
   12.6971   13.9762   23.3782 C   0  0  1  0  0  0  0  0  0  0  0  0
   13.2872   12.5020   24.2825 S   0  0  0  0  0  0  0  0  0  0  0  0
   11.9118   13.6859   22.0870 C   0  0  0  0  0  0  0  0  0  0  0  0
   10.8569   12.8498   22.5294 N   0  0  0  0  0  0  0  0  0  0  0  0
    9.4368   13.1915   22.9598 C   0  0  0  0  0  0  0  0  0  0  0  0
    8.8706   14.2040   22.9502 O   0  0  0  0  0  0  0  0  0  0  0  0
    8.8412   12.0047   23.5329 C   0  0  0  0  0  0  0  0  0  0  0  0
    9.1926   10.7018   23.3273 C   0  0  0  0  0  0  0  0  0  0  0  0
   10.2560    9.9279   22.2733 Cl  0  0  0  0  0  0  0  0  0  0  0  0
    8.5221    9.8996   24.1706 N   0  0  0  0  0  0  0  0  0  0  0  0
    8.6648    8.4751   24.1325 C   0  0  0  0  0  0  0  0  0  0  0  0
    7.7371   10.6507   25.0055 C   0  0  0  0  0  0  0  0  0  0  0  0
    6.8726   10.2896   26.0439 C   0  0  0  0  0  0  0  0  0  0  0  0
    6.3045   11.3079   26.8156 C   0  0  0  0  0  0  0  0  0  0  0  0
    5.3755   10.8245   28.1939 Cl  0  0  0  0  0  0  0  0  0  0  0  0
    6.5273   12.6483   26.5048 C   0  0  0  0  0  0  0  0  0  0  0  0
    5.8573   13.9366   27.4425 Cl  0  0  0  0  0  0  0  0  0  0  0  0
    7.3283   12.9966   25.4136 C   0  0  0  0  0  0  0  0  0  0  0  0
    7.9450   11.9859   24.6485 C   0  0  0  0  0  0  0  0  0  0  0  0
  2  1  1  1
  2  3  1  0
  2  4  1  0
  4  5  1  0
  5  6  1  0
  6  7  2  0
  6  8  1  0
  8  9  2  0
  9 10  1  0
  9 11  1  0
 11 12  1  0
 11 13  1  0
 13 14  2  0
 14 15  1  0
 15 16  1  0
 15 17  2  0
 17 18  1  0
 17 19  1  0
 19 20  2  0
 20  8  1  0
 20 13  1  0
M  END
>  <alias>  (1479) 
None

>  <rmsd(smina/fragmenstein)>  (1479) 
0.893

>  <smiles>  (1479) 
C[C@@H](S)CNC(=O)c1c(Cl)n(C)c2cc(Cl)c(Cl)cc12

>  <gnina_score>  (1479) 
5.805

>  <inspiration_score>  (1479) 
None

>  <energy_score>  (1479) 
-3.035073

>  <distance_score>  (1479) 
1.281317

>  <gnina_score_min>  (1479) 
5.771

>  <inchikey>  (1479) 
UBEOHGFNHIQZDA-ZCFIWIBFSA-N

>  <exports>  (1479) 
['/opt/xchem-fragalysis-2/maxwin/BulkDock/OUTPUTS/openbind_a71ev2a_c2_elabs_1LOUU54.sdf', '/opt/xchem-fragalysis-2/maxwin/BulkDock/OUTPUTS/openbind_a71ev2a_c2_elabs_1LSYIDY.sdf']

>  <name>  (1479) 
P577474

>  <ref_pdb>  (1479) 
A3066a

>  <subsites>  (1479) 
None

>  <HIPPO Pose ID>  (1479) 
577474

>  <ref_mols>  (1479) 
A3066a

>  <HIPPO Compound ID>  (1479) 
351815

>  <tags>  (1479) 
openbind_a71ev2a_c2_elabs,syndirella_product,openbind_a71ev2a_c2_elabs_fragonly_scored_top80percent,BulkDock Fragalysis export,openbind_a71ev2a_c2_elabs_scored,openbind_a71ev2a_c2_elabs_scored_top80percent,openbind_a71ev2a_c2_elabs_activefrags_only_scored_5.2plus,openbind_a71ev2a_c2_elabs_activefrags_only_scored_5.5plus,syndirella_placed

>  <smina_score_min>  (1479) 
-3.803

$$$$
P577477
     RDKit          3D

 20 22  0  0  0  0  0  0  0  0999 V2000
    8.7043    8.6507   23.9950 C   0  0  0  0  0  0  0  0  0  0  0  0
    8.6272   10.0666   24.2558 N   0  0  0  0  0  0  0  0  0  0  0  0
    9.4172   10.9820   23.6548 C   0  0  0  0  0  0  0  0  0  0  0  0
   10.3611   10.4383   22.3930 Cl  0  0  0  0  0  0  0  0  0  0  0  0
    9.3116   12.1916   24.2740 C   0  0  0  0  0  0  0  0  0  0  0  0
   10.1163   13.3753   24.0364 C   0  0  0  0  0  0  0  0  0  0  0  0
   10.4180   14.0680   24.9374 O   0  0  0  0  0  0  0  0  0  0  0  0
   10.3446   13.5436   22.5655 N   0  0  0  0  0  0  0  0  0  0  0  0
   11.1202   14.6031   21.7956 C   0  0  0  0  0  0  0  0  0  0  0  0
   10.0602   14.6333   20.7448 C   0  0  0  0  0  0  0  0  0  0  0  0
    9.6572   16.2489   20.0551 S   0  0  0  0  0  0  0  0  0  0  0  0
    9.1726   14.3034   21.8929 C   0  0  0  0  0  0  0  0  0  0  0  0
    8.2480   12.0413   25.2090 C   0  0  0  0  0  0  0  0  0  0  0  0
    7.6107   12.9351   26.0908 C   0  0  0  0  0  0  0  0  0  0  0  0
    6.6350   12.4575   26.9688 C   0  0  0  0  0  0  0  0  0  0  0  0
    5.9591   13.5848   28.0922 Cl  0  0  0  0  0  0  0  0  0  0  0  0
    6.2666   11.1120   26.9510 C   0  0  0  0  0  0  0  0  0  0  0  0
    5.1781   10.4458   28.1215 Cl  0  0  0  0  0  0  0  0  0  0  0  0
    6.8248   10.2255   26.0230 C   0  0  0  0  0  0  0  0  0  0  0  0
    7.8359   10.7029   25.1817 C   0  0  0  0  0  0  0  0  0  0  0  0
  1  2  1  0
  2  3  1  0
  3  4  1  0
  3  5  2  0
  5  6  1  0
  6  7  2  0
  6  8  1  0
  8  9  1  0
  9 10  1  0
 10 11  1  0
 10 12  1  0
  5 13  1  0
 13 14  2  0
 14 15  1  0
 15 16  1  0
 15 17  2  0
 17 18  1  0
 17 19  1  0
 19 20  2  0
 20  2  1  0
 12  8  1  0
 20 13  1  0
M  END
>  <alias>  (1480) 
None

>  <rmsd(smina/fragmenstein)>  (1480) 
0.307

>  <smiles>  (1480) 
Cn1c(Cl)c(C(=O)N2CC(S)C2)c2cc(Cl)c(Cl)cc21

>  <gnina_score>  (1480) 
5.819

>  <inspiration_score>  (1480) 
None

>  <energy_score>  (1480) 
-9.394149

>  <distance_score>  (1480) 
1.051157

>  <gnina_score_min>  (1480) 
5.919

>  <inchikey>  (1480) 
ALHJOZOFDXHGFS-UHFFFAOYSA-N

>  <exports>  (1480) 
['/opt/xchem-fragalysis-2/maxwin/BulkDock/OUTPUTS/openbind_a71ev2a_c2_elabs_1LOUU54.sdf', '/opt/xchem-fragalysis-2/maxwin/BulkDock/OUTPUTS/openbind_a71ev2a_c2_elabs_1LSYIDY.sdf']

>  <name>  (1480) 
P577477

>  <ref_pdb>  (1480) 
A3066a

>  <subsites>  (1480) 
None

>  <HIPPO Pose ID>  (1480) 
577477

>  <ref_mols>  (1480) 
A3066a

>  <HIPPO Compound ID>  (1480) 
351819

>  <tags>  (1480) 
openbind_a71ev2a_c2_elabs,syndirella_product,openbind_a71ev2a_c2_elabs_fragonly_scored_top80percent,BulkDock Fragalysis export,openbind_a71ev2a_c2_elabs_scored,openbind_a71ev2a_c2_elabs_scored_top80percent,openbind_a71ev2a_c2_elabs_activefrags_only_scored_5.2plus,openbind_a71ev2a_c2_elabs_activefrags_only_scored_5.5plus,syndirella_placed

>  <smina_score_min>  (1480) 
-6.248

$$$$
P577478
     RDKit          3D

 20 21  0  0  0  0  0  0  0  0999 V2000
    8.5509    8.6327   24.1092 C   0  0  0  0  0  0  0  0  0  0  0  0
    8.6107   10.0633   24.2433 N   0  0  0  0  0  0  0  0  0  0  0  0
    9.4708   10.8339   23.5450 C   0  0  0  0  0  0  0  0  0  0  0  0
   10.3005   10.0340   22.3233 Cl  0  0  0  0  0  0  0  0  0  0  0  0
    9.5106   12.0980   24.0690 C   0  0  0  0  0  0  0  0  0  0  0  0
   10.4928   13.1572   23.8252 C   0  0  0  0  0  0  0  0  0  0  0  0
   10.6076   13.9998   24.6168 O   0  0  0  0  0  0  0  0  0  0  0  0
   11.2803   12.8871   22.5455 N   0  0  0  0  0  0  0  0  0  0  0  0
   12.3125   13.6431   21.9150 C   0  0  0  0  0  0  0  0  0  0  0  0
   11.7753   14.8415   21.1554 C   0  0  0  0  0  0  0  0  0  0  0  0
   10.9408   14.5018   19.9880 N   0  0  0  0  0  0  0  0  0  0  0  0
   11.8373   14.4708   18.8333 O   0  0  0  0  0  0  0  0  0  0  0  0
    8.4199   12.1357   25.0031 C   0  0  0  0  0  0  0  0  0  0  0  0
    7.8693   13.1532   25.8082 C   0  0  0  0  0  0  0  0  0  0  0  0
    6.8680   12.8421   26.7335 C   0  0  0  0  0  0  0  0  0  0  0  0
    6.3006   14.1243   27.7462 Cl  0  0  0  0  0  0  0  0  0  0  0  0
    6.3954   11.5348   26.8526 C   0  0  0  0  0  0  0  0  0  0  0  0
    5.2676   11.0803   28.0848 Cl  0  0  0  0  0  0  0  0  0  0  0  0
    6.8743   10.5195   26.0180 C   0  0  0  0  0  0  0  0  0  0  0  0
    7.8960   10.8422   25.1144 C   0  0  0  0  0  0  0  0  0  0  0  0
  1  2  1  0
  2  3  1  0
  3  4  1  0
  3  5  2  0
  5  6  1  0
  6  7  2  0
  6  8  1  0
  8  9  1  0
  9 10  1  0
 10 11  1  0
 11 12  1  0
  5 13  1  0
 13 14  2  0
 14 15  1  0
 15 16  1  0
 15 17  2  0
 17 18  1  0
 17 19  1  0
 19 20  2  0
 20  2  1  0
 20 13  1  0
M  END
>  <alias>  (1481) 
None

>  <rmsd(smina/fragmenstein)>  (1481) 
1.218

>  <smiles>  (1481) 
Cn1c(Cl)c(C(=O)NCCNO)c2cc(Cl)c(Cl)cc21

>  <gnina_score>  (1481) 
5.899

>  <inspiration_score>  (1481) 
None

>  <energy_score>  (1481) 
-5.098522

>  <distance_score>  (1481) 
0.914366

>  <gnina_score_min>  (1481) 
5.972

>  <inchikey>  (1481) 
GYMKVVSIIXNJFQ-UHFFFAOYSA-N

>  <exports>  (1481) 
['/opt/xchem-fragalysis-2/maxwin/BulkDock/OUTPUTS/openbind_a71ev2a_c2_elabs_1LOUU54.sdf', '/opt/xchem-fragalysis-2/maxwin/BulkDock/OUTPUTS/openbind_a71ev2a_c2_elabs_1LSYIDY.sdf']

>  <name>  (1481) 
P577478

>  <ref_pdb>  (1481) 
A3066a

>  <subsites>  (1481) 
None

>  <HIPPO Pose ID>  (1481) 
577478

>  <ref_mols>  (1481) 
A3066a

>  <HIPPO Compound ID>  (1481) 
351822

>  <tags>  (1481) 
openbind_a71ev2a_c2_elabs,syndirella_product,openbind_a71ev2a_c2_elabs_fragonly_scored_top80percent,BulkDock Fragalysis export,openbind_a71ev2a_c2_elabs_scored,openbind_a71ev2a_c2_elabs_scored_top80percent,openbind_a71ev2a_c2_elabs_activefrags_only_scored_5.2plus,openbind_a71ev2a_c2_elabs_activefrags_only_scored_5.5plus,syndirella_placed

>  <smina_score_min>  (1481) 
-7.041

$$$$
P577479
     RDKit          3D

 20 21  0  0  0  0  0  0  0  0999 V2000
    8.5598    8.6032   24.1070 C   0  0  0  0  0  0  0  0  0  0  0  0
    8.5940   10.0326   24.2541 N   0  0  0  0  0  0  0  0  0  0  0  0
    9.4401   10.8211   23.5614 C   0  0  0  0  0  0  0  0  0  0  0  0
   10.2922   10.0432   22.3391 Cl  0  0  0  0  0  0  0  0  0  0  0  0
    9.4512   12.0846   24.0878 C   0  0  0  0  0  0  0  0  0  0  0  0
   10.4030   13.1644   23.8341 C   0  0  0  0  0  0  0  0  0  0  0  0
   10.5032   14.0157   24.6180 O   0  0  0  0  0  0  0  0  0  0  0  0
   11.1779   12.9108   22.5447 N   0  0  0  0  0  0  0  0  0  0  0  0
   12.3019   13.5917   21.9888 C   0  0  0  0  0  0  0  0  0  0  0  0
   11.9456   14.9499   21.4590 C   0  0  0  0  0  0  0  0  0  0  0  0
   13.0822   15.6793   21.4129 F   0  0  0  0  0  0  0  0  0  0  0  0
   11.4680   14.8613   20.1924 F   0  0  0  0  0  0  0  0  0  0  0  0
    8.3675   12.0967   25.0282 C   0  0  0  0  0  0  0  0  0  0  0  0
    7.8020   13.0984   25.8423 C   0  0  0  0  0  0  0  0  0  0  0  0
    6.8109   12.7629   26.7703 C   0  0  0  0  0  0  0  0  0  0  0  0
    6.2302   14.0273   27.7965 Cl  0  0  0  0  0  0  0  0  0  0  0  0
    6.3601   11.4477   26.8794 C   0  0  0  0  0  0  0  0  0  0  0  0
    5.2471   10.9614   28.1123 Cl  0  0  0  0  0  0  0  0  0  0  0  0
    6.8516   10.4488   26.0326 C   0  0  0  0  0  0  0  0  0  0  0  0
    7.8673   10.7936   25.1310 C   0  0  0  0  0  0  0  0  0  0  0  0
  1  2  1  0
  2  3  1  0
  3  4  1  0
  3  5  2  0
  5  6  1  0
  6  7  2  0
  6  8  1  0
  8  9  1  0
  9 10  1  0
 10 11  1  0
 10 12  1  0
  5 13  1  0
 13 14  2  0
 14 15  1  0
 15 16  1  0
 15 17  2  0
 17 18  1  0
 17 19  1  0
 19 20  2  0
 20  2  1  0
 20 13  1  0
M  END
>  <alias>  (1482) 
None

>  <rmsd(smina/fragmenstein)>  (1482) 
1.481

>  <smiles>  (1482) 
Cn1c(Cl)c(C(=O)NCC(F)F)c2cc(Cl)c(Cl)cc21

>  <gnina_score>  (1482) 
5.578

>  <inspiration_score>  (1482) 
None

>  <energy_score>  (1482) 
-2.492883

>  <distance_score>  (1482) 
0.933246

>  <gnina_score_min>  (1482) 
5.289

>  <inchikey>  (1482) 
ZOXCXZUGSBKYNL-UHFFFAOYSA-N

>  <exports>  (1482) 
['/opt/xchem-fragalysis-2/maxwin/BulkDock/OUTPUTS/openbind_a71ev2a_c2_elabs_1LOUU54.sdf', '/opt/xchem-fragalysis-2/maxwin/BulkDock/OUTPUTS/openbind_a71ev2a_c2_elabs_1LSYIDY.sdf']

>  <name>  (1482) 
P577479

>  <ref_pdb>  (1482) 
A3066a

>  <subsites>  (1482) 
None

>  <HIPPO Pose ID>  (1482) 
577479

>  <ref_mols>  (1482) 
A3066a

>  <HIPPO Compound ID>  (1482) 
351825

>  <tags>  (1482) 
openbind_a71ev2a_c2_elabs,syndirella_product,openbind_a71ev2a_c2_elabs_fragonly_scored_top80percent,openbind_a71ev2a_c2_elabs_scored,BulkDock Fragalysis export,openbind_a71ev2a_c2_elabs_scored_top80percent,openbind_a71ev2a_c2_elabs_activefrags_only_scored_5.2plus,syndirella_placed

>  <smina_score_min>  (1482) 
-6.757

$$$$
P577480
     RDKit          3D

 20 21  0  0  0  0  0  0  0  0999 V2000
    9.4239   15.8580   20.5893 C   0  0  0  0  0  0  0  0  0  0  0  0
   10.5700   14.8597   20.6016 C   0  0  0  0  0  0  0  0  0  0  0  0
   11.0873   14.6657   21.9680 N   0  0  0  0  0  0  0  0  0  0  0  0
   12.4888   14.2442   21.9137 C   0  0  0  0  0  0  0  0  0  0  0  0
   10.3382   13.6917   22.6128 N   0  0  0  0  0  0  0  0  0  0  0  0
   10.0509   13.4779   24.1165 C   0  0  0  0  0  0  0  0  0  0  0  0
   10.3351   14.1308   25.0414 O   0  0  0  0  0  0  0  0  0  0  0  0
    9.2510   12.2761   24.3103 C   0  0  0  0  0  0  0  0  0  0  0  0
    9.4014   11.0772   23.6794 C   0  0  0  0  0  0  0  0  0  0  0  0
   10.3973   10.6116   22.4299 Cl  0  0  0  0  0  0  0  0  0  0  0  0
    8.6332   10.1213   24.2469 N   0  0  0  0  0  0  0  0  0  0  0  0
    8.7539    8.7093   23.9613 C   0  0  0  0  0  0  0  0  0  0  0  0
    7.8197   10.7196   25.1810 C   0  0  0  0  0  0  0  0  0  0  0  0
    6.8247   10.1965   26.0137 C   0  0  0  0  0  0  0  0  0  0  0  0
    6.2407   11.0469   26.9597 C   0  0  0  0  0  0  0  0  0  0  0  0
    5.1639   10.3271   28.1085 Cl  0  0  0  0  0  0  0  0  0  0  0  0
    6.5699   12.4017   27.0068 C   0  0  0  0  0  0  0  0  0  0  0  0
    5.8566   13.4860   28.1489 Cl  0  0  0  0  0  0  0  0  0  0  0  0
    7.5312   12.9256   26.1401 C   0  0  0  0  0  0  0  0  0  0  0  0
    8.1905   12.0712   25.2364 C   0  0  0  0  0  0  0  0  0  0  0  0
  1  2  1  0
  2  3  1  0
  3  4  1  0
  3  5  1  0
  5  6  1  0
  6  7  2  0
  6  8  1  0
  8  9  2  0
  9 10  1  0
  9 11  1  0
 11 12  1  0
 11 13  1  0
 13 14  2  0
 14 15  1  0
 15 16  1  0
 15 17  2  0
 17 18  1  0
 17 19  1  0
 19 20  2  0
 20  8  1  0
 20 13  1  0
M  END
>  <alias>  (1483) 
None

>  <rmsd(smina/fragmenstein)>  (1483) 
0.337

>  <smiles>  (1483) 
CCN(C)NC(=O)c1c(Cl)n(C)c2cc(Cl)c(Cl)cc12

>  <gnina_score>  (1483) 
6.143

>  <inspiration_score>  (1483) 
None

>  <energy_score>  (1483) 
-10.518983

>  <distance_score>  (1483) 
1.087291

>  <gnina_score_min>  (1483) 
6.152

>  <inchikey>  (1483) 
PLWZLLHCEKYHRR-UHFFFAOYSA-N

>  <exports>  (1483) 
['/opt/xchem-fragalysis-2/maxwin/BulkDock/OUTPUTS/openbind_a71ev2a_c2_elabs_1LOUU54.sdf', '/opt/xchem-fragalysis-2/maxwin/BulkDock/OUTPUTS/openbind_a71ev2a_c2_elabs_1LSYIDY.sdf']

>  <name>  (1483) 
P577480

>  <ref_pdb>  (1483) 
A3066a

>  <subsites>  (1483) 
None

>  <HIPPO Pose ID>  (1483) 
577480

>  <ref_mols>  (1483) 
A3066a

>  <HIPPO Compound ID>  (1483) 
351829

>  <tags>  (1483) 
openbind_a71ev2a_c2_elabs,syndirella_product,openbind_a71ev2a_c2_elabs_fragonly_scored_top80percent,BulkDock Fragalysis export,openbind_a71ev2a_c2_elabs_fragonly_scored_6plus,openbind_a71ev2a_c2_elabs_scored,openbind_a71ev2a_c2_elabs_scored_top80percent,openbind_a71ev2a_c2_elabs_activefrags_only_scored_5.2plus,openbind_a71ev2a_c2_elabs_activefrags_only_scored_5.5plus,openbind_a71ev2a_c2_elabs_scored_6plus,syndirella_placed

>  <smina_score_min>  (1483) 
-6.442

$$$$
P577481
     RDKit          3D

 20 21  0  0  0  0  0  0  0  0999 V2000
   10.8122    8.5182   23.2952 C   0  0  0  0  0  0  0  0  0  0  0  0
   10.1680    9.7598   22.6978 C   0  0  0  0  0  0  0  0  0  0  0  0
    9.4775   10.6486   23.6796 C   0  0  0  0  0  0  0  0  0  0  0  0
    9.6934   11.9337   24.1655 C   0  0  0  0  0  0  0  0  0  0  0  0
   10.8521   12.8026   23.9820 C   0  0  0  0  0  0  0  0  0  0  0  0
   11.3014   13.3410   24.9070 O   0  0  0  0  0  0  0  0  0  0  0  0
   11.2230   12.8924   22.5149 N   0  0  0  0  0  0  0  0  0  0  0  0
   12.1677   13.7360   21.8413 C   0  0  0  0  0  0  0  0  0  0  0  0
   11.5329   15.0964   21.5523 C   0  0  0  0  0  0  0  0  0  0  0  0
   12.1950   16.0668   22.0075 O   0  0  0  0  0  0  0  0  0  0  0  0
   10.4168   15.0817   20.9526 O   0  0  0  0  0  0  0  0  0  0  0  0
    8.5826   12.2614   25.0126 C   0  0  0  0  0  0  0  0  0  0  0  0
    8.1915   13.4208   25.7103 C   0  0  0  0  0  0  0  0  0  0  0  0
    7.0853   13.3618   26.5588 C   0  0  0  0  0  0  0  0  0  0  0  0
    6.6309   14.7623   27.4542 Cl  0  0  0  0  0  0  0  0  0  0  0  0
    6.3667   12.1839   26.7281 C   0  0  0  0  0  0  0  0  0  0  0  0
    6.7269   11.0311   26.0373 C   0  0  0  0  0  0  0  0  0  0  0  0
    7.8291   11.1093   25.1755 C   0  0  0  0  0  0  0  0  0  0  0  0
    8.4135   10.1689   24.3805 N   0  0  0  0  0  0  0  0  0  0  0  0
    8.0058    8.8069   24.3313 C   0  0  0  0  0  0  0  0  0  0  0  0
  1  2  1  0
  2  3  1  0
  3  4  2  0
  4  5  1  0
  5  6  2  0
  5  7  1  0
  7  8  1  0
  8  9  1  0
  9 10  2  0
  9 11  1  0
  4 12  1  0
 12 13  2  0
 13 14  1  0
 14 15  1  0
 14 16  2  0
 16 17  1  0
 17 18  2  0
 18 19  1  0
 19 20  1  0
 19  3  1  0
 18 12  1  0
M  CHG  1  11  -1
M  END
>  <alias>  (1484) 
None

>  <rmsd(smina/fragmenstein)>  (1484) 
0.909

>  <smiles>  (1484) 
CCc1c(C(=O)NCC(=O)[O-])c2cc(Cl)ccc2n1C

>  <gnina_score>  (1484) 
5.387

>  <inspiration_score>  (1484) 
None

>  <energy_score>  (1484) 
-19.301413

>  <distance_score>  (1484) 
1.145496

>  <gnina_score_min>  (1484) 
5.361

>  <inchikey>  (1484) 
MGVHRTFZMXECAB-UHFFFAOYSA-M

>  <exports>  (1484) 
['/opt/xchem-fragalysis-2/maxwin/BulkDock/OUTPUTS/openbind_a71ev2a_c2_elabs_1LOUU54.sdf', '/opt/xchem-fragalysis-2/maxwin/BulkDock/OUTPUTS/openbind_a71ev2a_c2_elabs_1LSYIDY.sdf']

>  <name>  (1484) 
P577481

>  <ref_pdb>  (1484) 
A3066a

>  <subsites>  (1484) 
None

>  <HIPPO Pose ID>  (1484) 
577481

>  <ref_mols>  (1484) 
A3066a

>  <HIPPO Compound ID>  (1484) 
351838

>  <tags>  (1484) 
openbind_a71ev2a_c2_elabs,syndirella_product,openbind_a71ev2a_c2_elabs_fragonly_scored_top80percent,openbind_a71ev2a_c2_elabs_scored,BulkDock Fragalysis export,openbind_a71ev2a_c2_elabs_scored_top80percent,openbind_a71ev2a_c2_elabs_activefrags_only_scored_5.2plus,syndirella_placed

>  <smina_score_min>  (1484) 
-5.149

$$$$
P577484
     RDKit          3D

 20 21  0  0  0  0  0  0  0  0999 V2000
   10.7981    8.5515   23.2871 C   0  0  0  0  0  0  0  0  0  0  0  0
   10.1840    9.8283   22.7297 C   0  0  0  0  0  0  0  0  0  0  0  0
    9.4973   10.7004   23.7292 C   0  0  0  0  0  0  0  0  0  0  0  0
    9.6785   11.9985   24.2062 C   0  0  0  0  0  0  0  0  0  0  0  0
   10.7416   12.9760   23.9497 C   0  0  0  0  0  0  0  0  0  0  0  0
   11.1770   13.5953   24.8307 O   0  0  0  0  0  0  0  0  0  0  0  0
   11.0173   13.0557   22.4579 N   0  0  0  0  0  0  0  0  0  0  0  0
   11.8129   13.9708   21.7103 C   0  0  0  0  0  0  0  0  0  0  0  0
   10.9168   14.9508   20.9302 C   0  0  1  0  0  0  0  0  0  0  0  0
   11.1512   14.8310   19.4323 C   0  0  0  0  0  0  0  0  0  0  0  0
    9.1036   14.8280   21.2415 S   0  0  0  0  0  0  0  0  0  0  0  0
    8.5655   12.2837   25.0701 C   0  0  0  0  0  0  0  0  0  0  0  0
    8.1331   13.4332   25.7600 C   0  0  0  0  0  0  0  0  0  0  0  0
    7.0257   13.3463   26.6049 C   0  0  0  0  0  0  0  0  0  0  0  0
    6.5277   14.7440   27.4794 Cl  0  0  0  0  0  0  0  0  0  0  0  0
    6.3427   12.1497   26.7776 C   0  0  0  0  0  0  0  0  0  0  0  0
    6.7394   11.0066   26.0906 C   0  0  0  0  0  0  0  0  0  0  0  0
    7.8426   11.1128   25.2320 C   0  0  0  0  0  0  0  0  0  0  0  0
    8.4407   10.1899   24.4271 N   0  0  0  0  0  0  0  0  0  0  0  0
    8.0170    8.8311   24.3383 C   0  0  0  0  0  0  0  0  0  0  0  0
  1  2  1  0
  2  3  1  0
  3  4  2  0
  4  5  1  0
  5  6  2  0
  5  7  1  0
  7  8  1  0
  8  9  1  0
  9 10  1  6
  9 11  1  0
  4 12  1  0
 12 13  2  0
 13 14  1  0
 14 15  1  0
 14 16  2  0
 16 17  1  0
 17 18  2  0
 18 19  1  0
 19 20  1  0
 19  3  1  0
 18 12  1  0
M  END
>  <alias>  (1485) 
None

>  <rmsd(smina/fragmenstein)>  (1485) 
0.892

>  <smiles>  (1485) 
CCc1c(C(=O)NC[C@@H](C)S)c2cc(Cl)ccc2n1C

>  <gnina_score>  (1485) 
5.744

>  <inspiration_score>  (1485) 
None

>  <energy_score>  (1485) 
-2.954441

>  <distance_score>  (1485) 
1.139857

>  <gnina_score_min>  (1485) 
5.791

>  <inchikey>  (1485) 
KINLBALZAUPWGB-SECBINFHSA-N

>  <exports>  (1485) 
['/opt/xchem-fragalysis-2/maxwin/BulkDock/OUTPUTS/openbind_a71ev2a_c2_elabs_1LOUU54.sdf', '/opt/xchem-fragalysis-2/maxwin/BulkDock/OUTPUTS/openbind_a71ev2a_c2_elabs_1LSYIDY.sdf']

>  <name>  (1485) 
P577484

>  <ref_pdb>  (1485) 
A3066a

>  <subsites>  (1485) 
None

>  <HIPPO Pose ID>  (1485) 
577484

>  <ref_mols>  (1485) 
A3066a

>  <HIPPO Compound ID>  (1485) 
351844

>  <tags>  (1485) 
openbind_a71ev2a_c2_elabs,syndirella_product,openbind_a71ev2a_c2_elabs_fragonly_scored_top80percent,BulkDock Fragalysis export,openbind_a71ev2a_c2_elabs_scored,openbind_a71ev2a_c2_elabs_scored_top80percent,openbind_a71ev2a_c2_elabs_activefrags_only_scored_5.2plus,openbind_a71ev2a_c2_elabs_activefrags_only_scored_5.5plus,syndirella_placed

>  <smina_score_min>  (1485) 
-5.699

$$$$
P577485
     RDKit          3D

 20 21  0  0  0  0  0  0  0  0999 V2000
   10.3251    9.2353   22.3340 C   0  0  0  0  0  0  0  0  0  0  0  0
   10.2972   10.6623   22.8312 C   0  0  0  0  0  0  0  0  0  0  0  0
    9.2840   11.0859   23.8236 C   0  0  0  0  0  0  0  0  0  0  0  0
    9.1646   12.3460   24.4054 C   0  0  0  0  0  0  0  0  0  0  0  0
   10.0664   13.4771   24.1807 C   0  0  0  0  0  0  0  0  0  0  0  0
   10.6174   13.9856   25.0692 O   0  0  0  0  0  0  0  0  0  0  0  0
   10.1611   13.7352   22.6770 N   0  0  0  0  0  0  0  0  0  0  0  0
   11.0286   14.6145   21.9280 C   0  0  2  0  0  0  0  0  0  0  0  0
   10.3921   14.9017   20.5807 C   0  0  0  0  0  0  0  0  0  0  0  0
   12.4302   14.0275   21.7959 C   0  0  0  0  0  0  0  0  0  0  0  0
   12.9595   13.8532   23.0410 F   0  0  0  0  0  0  0  0  0  0  0  0
    8.0913   12.2870   25.3257 C   0  0  0  0  0  0  0  0  0  0  0  0
    7.5004   13.2364   26.1774 C   0  0  0  0  0  0  0  0  0  0  0  0
    6.4786   12.8287   27.0309 C   0  0  0  0  0  0  0  0  0  0  0  0
    5.7656   13.9718   28.1034 Cl  0  0  0  0  0  0  0  0  0  0  0  0
    6.0364   11.5120   27.0469 C   0  0  0  0  0  0  0  0  0  0  0  0
    6.5940   10.5606   26.1949 C   0  0  0  0  0  0  0  0  0  0  0  0
    7.6301   10.9716   25.3461 C   0  0  0  0  0  0  0  0  0  0  0  0
    8.4085   10.2583   24.4646 N   0  0  0  0  0  0  0  0  0  0  0  0
    8.3605    8.8283   24.3419 C   0  0  0  0  0  0  0  0  0  0  0  0
  1  2  1  0
  2  3  1  0
  3  4  2  0
  4  5  1  0
  5  6  2  0
  5  7  1  0
  7  8  1  0
  8  9  1  6
  8 10  1  0
 10 11  1  0
  4 12  1  0
 12 13  2  0
 13 14  1  0
 14 15  1  0
 14 16  2  0
 16 17  1  0
 17 18  2  0
 18 19  1  0
 19 20  1  0
 19  3  1  0
 18 12  1  0
M  END
>  <alias>  (1486) 
None

>  <rmsd(smina/fragmenstein)>  (1486) 
1.265

>  <smiles>  (1486) 
CCc1c(C(=O)N[C@H](C)CF)c2cc(Cl)ccc2n1C

>  <gnina_score>  (1486) 
5.457

>  <inspiration_score>  (1486) 
None

>  <energy_score>  (1486) 
-1.505411

>  <distance_score>  (1486) 
1.309508

>  <gnina_score_min>  (1486) 
5.507

>  <inchikey>  (1486) 
QQOPIDSYWMVDQC-SECBINFHSA-N

>  <exports>  (1486) 
['/opt/xchem-fragalysis-2/maxwin/BulkDock/OUTPUTS/openbind_a71ev2a_c2_elabs_1LOUU54.sdf', '/opt/xchem-fragalysis-2/maxwin/BulkDock/OUTPUTS/openbind_a71ev2a_c2_elabs_1LSYIDY.sdf']

>  <name>  (1486) 
P577485

>  <ref_pdb>  (1486) 
A3066a

>  <subsites>  (1486) 
None

>  <HIPPO Pose ID>  (1486) 
577485

>  <ref_mols>  (1486) 
A3066a

>  <HIPPO Compound ID>  (1486) 
351859

>  <tags>  (1486) 
openbind_a71ev2a_c2_elabs,syndirella_product,openbind_a71ev2a_c2_elabs_fragonly_scored_top80percent,BulkDock Fragalysis export,openbind_a71ev2a_c2_elabs_scored,openbind_a71ev2a_c2_elabs_scored_top80percent,openbind_a71ev2a_c2_elabs_activefrags_only_scored_5.2plus,openbind_a71ev2a_c2_elabs_activefrags_only_scored_5.5plus,syndirella_placed

>  <smina_score_min>  (1486) 
-6.835

$$$$
P577486
     RDKit          3D

 20 21  0  0  0  0  0  0  0  0999 V2000
   11.5843   14.5344   19.3154 C   0  0  0  0  0  0  0  0  0  0  0  0
   11.1176   14.6666   20.5611 C   0  0  0  0  0  0  0  0  0  0  0  0
    9.5018   15.5430   20.8814 Br  0  0  0  0  0  0  0  0  0  0  0  0
   11.8491   14.1470   21.7572 C   0  0  0  0  0  0  0  0  0  0  0  0
   11.0178   13.2073   22.4424 N   0  0  0  0  0  0  0  0  0  0  0  0
   10.7678   13.0081   23.9293 C   0  0  0  0  0  0  0  0  0  0  0  0
   11.2532   13.5227   24.8503 O   0  0  0  0  0  0  0  0  0  0  0  0
    9.6671   12.0598   24.1512 C   0  0  0  0  0  0  0  0  0  0  0  0
    9.4879   10.7595   23.6805 C   0  0  0  0  0  0  0  0  0  0  0  0
   10.1948    9.8963   22.6915 C   0  0  0  0  0  0  0  0  0  0  0  0
   10.7835    8.6050   23.2486 C   0  0  0  0  0  0  0  0  0  0  0  0
    8.4371   10.2398   24.3827 N   0  0  0  0  0  0  0  0  0  0  0  0
    8.0312    8.8713   24.3183 C   0  0  0  0  0  0  0  0  0  0  0  0
    7.8424   11.1633   25.1909 C   0  0  0  0  0  0  0  0  0  0  0  0
    6.7497   11.0505   26.0620 C   0  0  0  0  0  0  0  0  0  0  0  0
    6.3640   12.1867   26.7657 C   0  0  0  0  0  0  0  0  0  0  0  0
    7.0500   13.3830   26.6007 C   0  0  0  0  0  0  0  0  0  0  0  0
    6.5669   14.7683   27.5035 Cl  0  0  0  0  0  0  0  0  0  0  0  0
    8.1474   13.4781   25.7430 C   0  0  0  0  0  0  0  0  0  0  0  0
    8.5634   12.3376   25.0285 C   0  0  0  0  0  0  0  0  0  0  0  0
  1  2  2  0
  2  3  1  0
  2  4  1  0
  4  5  1  0
  5  6  1  0
  6  7  2  0
  6  8  1  0
  8  9  2  0
  9 10  1  0
 10 11  1  0
  9 12  1  0
 12 13  1  0
 12 14  1  0
 14 15  2  0
 15 16  1  0
 16 17  2  0
 17 18  1  0
 17 19  1  0
 19 20  2  0
 20  8  1  0
 20 14  1  0
M  END
>  <alias>  (1487) 
None

>  <rmsd(smina/fragmenstein)>  (1487) 
0.865

>  <smiles>  (1487) 
C=C(Br)CNC(=O)c1c(CC)n(C)c2ccc(Cl)cc12

>  <gnina_score>  (1487) 
5.658

>  <inspiration_score>  (1487) 
None

>  <energy_score>  (1487) 
-5.32647

>  <distance_score>  (1487) 
1.130716

>  <gnina_score_min>  (1487) 
5.65

>  <inchikey>  (1487) 
CNTNYNFAJWSWOH-UHFFFAOYSA-N

>  <exports>  (1487) 
['/opt/xchem-fragalysis-2/maxwin/BulkDock/OUTPUTS/openbind_a71ev2a_c2_elabs_1LOUU54.sdf', '/opt/xchem-fragalysis-2/maxwin/BulkDock/OUTPUTS/openbind_a71ev2a_c2_elabs_1LSYIDY.sdf']

>  <name>  (1487) 
P577486

>  <ref_pdb>  (1487) 
A3066a

>  <subsites>  (1487) 
None

>  <HIPPO Pose ID>  (1487) 
577486

>  <ref_mols>  (1487) 
A3066a

>  <HIPPO Compound ID>  (1487) 
351863

>  <tags>  (1487) 
openbind_a71ev2a_c2_elabs,syndirella_product,openbind_a71ev2a_c2_elabs_fragonly_scored_top80percent,BulkDock Fragalysis export,openbind_a71ev2a_c2_elabs_scored,openbind_a71ev2a_c2_elabs_scored_top80percent,openbind_a71ev2a_c2_elabs_activefrags_only_scored_5.2plus,openbind_a71ev2a_c2_elabs_activefrags_only_scored_5.5plus,syndirella_placed

>  <smina_score_min>  (1487) 
-5.888

$$$$
P577487
     RDKit          3D

 20 22  0  0  0  0  0  0  0  0999 V2000
   10.3440    9.2180   22.2547 C   0  0  0  0  0  0  0  0  0  0  0  0
   10.3003   10.6375   22.7665 C   0  0  0  0  0  0  0  0  0  0  0  0
    9.2736   11.0355   23.7451 C   0  0  0  0  0  0  0  0  0  0  0  0
    9.1038   12.2992   24.2895 C   0  0  0  0  0  0  0  0  0  0  0  0
    9.9328   13.4834   24.0622 C   0  0  0  0  0  0  0  0  0  0  0  0
   10.1636   14.1804   24.9817 O   0  0  0  0  0  0  0  0  0  0  0  0
   10.3064   13.6296   22.6118 N   0  0  0  0  0  0  0  0  0  0  0  0
    9.2155   14.4129   21.8170 C   0  0  0  0  0  0  0  0  0  0  0  0
   10.2228   14.7320   20.7605 C   0  0  0  0  0  0  0  0  0  0  0  0
   11.1729   14.6577   21.9135 C   0  0  2  0  0  0  0  0  0  0  0  0
   12.5561   14.1098   21.6666 C   0  0  0  0  0  0  0  0  0  0  0  0
    8.0430   12.2104   25.2318 C   0  0  0  0  0  0  0  0  0  0  0  0
    7.4229   13.1500   26.0772 C   0  0  0  0  0  0  0  0  0  0  0  0
    6.4327   12.7192   26.9554 C   0  0  0  0  0  0  0  0  0  0  0  0
    5.6884   13.8534   28.0158 Cl  0  0  0  0  0  0  0  0  0  0  0  0
    6.0453   11.3872   27.0007 C   0  0  0  0  0  0  0  0  0  0  0  0
    6.6262   10.4457   26.1528 C   0  0  0  0  0  0  0  0  0  0  0  0
    7.6364   10.8805   25.2843 C   0  0  0  0  0  0  0  0  0  0  0  0
    8.4321   10.1874   24.4033 N   0  0  0  0  0  0  0  0  0  0  0  0
    8.4256    8.7576   24.2879 C   0  0  0  0  0  0  0  0  0  0  0  0
  1  2  1  0
  2  3  1  0
  3  4  2  0
  4  5  1  0
  5  6  2  0
  5  7  1  0
  7  8  1  0
  8  9  1  0
  9 10  1  0
 10 11  1  6
  4 12  1  0
 12 13  2  0
 13 14  1  0
 14 15  1  0
 14 16  2  0
 16 17  1  0
 17 18  2  0
 18 19  1  0
 19 20  1  0
 19  3  1  0
 10  7  1  0
 18 12  1  0
M  END
>  <alias>  (1488) 
None

>  <rmsd(smina/fragmenstein)>  (1488) 
1.065

>  <smiles>  (1488) 
CCc1c(C(=O)N2CC[C@@H]2C)c2cc(Cl)ccc2n1C

>  <gnina_score>  (1488) 
5.426

>  <inspiration_score>  (1488) 
None

>  <energy_score>  (1488) 
-7.100605

>  <distance_score>  (1488) 
1.25328

>  <gnina_score_min>  (1488) 
5.439

>  <inchikey>  (1488) 
WOSMCVFYXNJRBB-JTQLQIEISA-N

>  <exports>  (1488) 
['/opt/xchem-fragalysis-2/maxwin/BulkDock/OUTPUTS/openbind_a71ev2a_c2_elabs_1LOUU54.sdf', '/opt/xchem-fragalysis-2/maxwin/BulkDock/OUTPUTS/openbind_a71ev2a_c2_elabs_1LSYIDY.sdf']

>  <name>  (1488) 
P577487

>  <ref_pdb>  (1488) 
A3066a

>  <subsites>  (1488) 
None

>  <HIPPO Pose ID>  (1488) 
577487

>  <ref_mols>  (1488) 
A3066a

>  <HIPPO Compound ID>  (1488) 
351864

>  <tags>  (1488) 
openbind_a71ev2a_c2_elabs,syndirella_product,openbind_a71ev2a_c2_elabs_fragonly_scored_top80percent,openbind_a71ev2a_c2_elabs_scored,BulkDock Fragalysis export,openbind_a71ev2a_c2_elabs_scored_top80percent,openbind_a71ev2a_c2_elabs_activefrags_only_scored_5.2plus,syndirella_placed

>  <smina_score_min>  (1488) 
-5.95

$$$$
P577488
     RDKit          3D

 20 21  0  0  0  0  0  0  0  0999 V2000
   10.3002    9.1019   22.2472 C   0  0  0  0  0  0  0  0  0  0  0  0
   10.3759   10.4971   22.8055 C   0  0  0  0  0  0  0  0  0  0  0  0
    9.2934   11.0401   23.6331 C   0  0  0  0  0  0  0  0  0  0  0  0
    9.1519   12.3536   24.0560 C   0  0  0  0  0  0  0  0  0  0  0  0
   10.0375   13.4858   23.7494 C   0  0  0  0  0  0  0  0  0  0  0  0
   10.4491   14.1112   24.6447 O   0  0  0  0  0  0  0  0  0  0  0  0
   10.2408   13.6615   22.2286 N   0  0  0  0  0  0  0  0  0  0  0  0
   10.9214   14.7094   21.4796 C   0  0  0  0  0  0  0  0  0  0  0  0
   11.5461   14.2351   20.1664 C   0  0  0  0  0  0  0  0  0  0  0  0
   12.0940   15.2173   22.3088 C   0  0  0  0  0  0  0  0  0  0  0  0
    9.8607   15.7498   21.0980 C   0  0  0  0  0  0  0  0  0  0  0  0
    8.1118   12.3573   25.0317 C   0  0  0  0  0  0  0  0  0  0  0  0
    7.5462   13.3644   25.8356 C   0  0  0  0  0  0  0  0  0  0  0  0
    6.5656   13.0195   26.7644 C   0  0  0  0  0  0  0  0  0  0  0  0
    5.8943   14.2418   27.7749 Cl  0  0  0  0  0  0  0  0  0  0  0  0
    6.1335   11.7071   26.9023 C   0  0  0  0  0  0  0  0  0  0  0  0
    6.6683   10.6958   26.1081 C   0  0  0  0  0  0  0  0  0  0  0  0
    7.6677   11.0457   25.1896 C   0  0  0  0  0  0  0  0  0  0  0  0
    8.4151   10.2700   24.3402 N   0  0  0  0  0  0  0  0  0  0  0  0
    8.3606    8.8349   24.3181 C   0  0  0  0  0  0  0  0  0  0  0  0
  1  2  1  0
  2  3  1  0
  3  4  2  0
  4  5  1  0
  5  6  2  0
  5  7  1  0
  7  8  1  0
  8  9  1  0
  8 10  1  0
  8 11  1  0
  4 12  1  0
 12 13  2  0
 13 14  1  0
 14 15  1  0
 14 16  2  0
 16 17  1  0
 17 18  2  0
 18 19  1  0
 19 20  1  0
 19  3  1  0
 18 12  1  0
M  END
>  <alias>  (1489) 
None

>  <rmsd(smina/fragmenstein)>  (1489) 
1.348

>  <smiles>  (1489) 
CCc1c(C(=O)NC(C)(C)C)c2cc(Cl)ccc2n1C

>  <gnina_score>  (1489) 
5.525

>  <inspiration_score>  (1489) 
None

>  <energy_score>  (1489) 
-1.552138

>  <distance_score>  (1489) 
1.244383

>  <gnina_score_min>  (1489) 
5.603

>  <inchikey>  (1489) 
CYYVTMVYEDRZIB-UHFFFAOYSA-N

>  <exports>  (1489) 
['/opt/xchem-fragalysis-2/maxwin/BulkDock/OUTPUTS/openbind_a71ev2a_c2_elabs_1LOUU54.sdf', '/opt/xchem-fragalysis-2/maxwin/BulkDock/OUTPUTS/openbind_a71ev2a_c2_elabs_1LSYIDY.sdf']

>  <name>  (1489) 
P577488

>  <ref_pdb>  (1489) 
A3066a

>  <subsites>  (1489) 
None

>  <HIPPO Pose ID>  (1489) 
577488

>  <ref_mols>  (1489) 
A3066a

>  <HIPPO Compound ID>  (1489) 
351869

>  <tags>  (1489) 
openbind_a71ev2a_c2_elabs,syndirella_product,openbind_a71ev2a_c2_elabs_fragonly_scored_top80percent,BulkDock Fragalysis export,openbind_a71ev2a_c2_elabs_scored,openbind_a71ev2a_c2_elabs_scored_top80percent,openbind_a71ev2a_c2_elabs_activefrags_only_scored_5.2plus,openbind_a71ev2a_c2_elabs_activefrags_only_scored_5.5plus,syndirella_placed

>  <smina_score_min>  (1489) 
-6.487

$$$$
P577489
     RDKit          3D

 20 22  0  0  0  0  0  0  0  0999 V2000
   10.3360    9.3199   22.2876 C   0  0  0  0  0  0  0  0  0  0  0  0
   10.3059   10.7370   22.8164 C   0  0  0  0  0  0  0  0  0  0  0  0
    9.2927   11.1043   23.8283 C   0  0  0  0  0  0  0  0  0  0  0  0
    9.1421   12.3479   24.4274 C   0  0  0  0  0  0  0  0  0  0  0  0
    9.9865   13.5135   24.1967 C   0  0  0  0  0  0  0  0  0  0  0  0
   10.6006   13.9885   25.0686 O   0  0  0  0  0  0  0  0  0  0  0  0
    9.8474   13.9434   22.7203 N   0  0  0  0  0  0  0  0  0  0  0  0
   10.4804   14.9470   22.0154 N   0  0  0  0  0  0  0  0  0  0  0  0
   10.7554   14.5460   20.6172 C   0  0  0  0  0  0  0  0  0  0  0  0
   12.1558   14.0796   21.0475 C   0  0  0  0  0  0  0  0  0  0  0  0
   11.9447   14.9874   22.2525 C   0  0  0  0  0  0  0  0  0  0  0  0
    8.0752   12.2537   25.3497 C   0  0  0  0  0  0  0  0  0  0  0  0
    7.4642   13.1802   26.2124 C   0  0  0  0  0  0  0  0  0  0  0  0
    6.4481   12.7408   27.0569 C   0  0  0  0  0  0  0  0  0  0  0  0
    5.7133   13.8540   28.1460 Cl  0  0  0  0  0  0  0  0  0  0  0  0
    6.0286   11.4170   27.0485 C   0  0  0  0  0  0  0  0  0  0  0  0
    6.6036   10.4902   26.1807 C   0  0  0  0  0  0  0  0  0  0  0  0
    7.6390   10.9308   25.3464 C   0  0  0  0  0  0  0  0  0  0  0  0
    8.4320   10.2465   24.4532 N   0  0  0  0  0  0  0  0  0  0  0  0
    8.4009    8.8178   24.3053 C   0  0  0  0  0  0  0  0  0  0  0  0
  1  2  1  0
  2  3  1  0
  3  4  2  0
  4  5  1  0
  5  6  2  0
  5  7  1  0
  7  8  1  0
  8  9  1  0
  9 10  1  0
 10 11  1  0
  4 12  1  0
 12 13  2  0
 13 14  1  0
 14 15  1  0
 14 16  2  0
 16 17  1  0
 17 18  2  0
 18 19  1  0
 19 20  1  0
 19  3  1  0
 11  8  1  0
 18 12  1  0
M  END
>  <alias>  (1490) 
None

>  <rmsd(smina/fragmenstein)>  (1490) 
1.552

>  <smiles>  (1490) 
CCc1c(C(=O)NN2CCC2)c2cc(Cl)ccc2n1C

>  <gnina_score>  (1490) 
5.605

>  <inspiration_score>  (1490) 
None

>  <energy_score>  (1490) 
-6.748778

>  <distance_score>  (1490) 
1.3845

>  <gnina_score_min>  (1490) 
5.679

>  <inchikey>  (1490) 
FXOBYENERHVNBW-UHFFFAOYSA-N

>  <exports>  (1490) 
['/opt/xchem-fragalysis-2/maxwin/BulkDock/OUTPUTS/openbind_a71ev2a_c2_elabs_1LOUU54.sdf', '/opt/xchem-fragalysis-2/maxwin/BulkDock/OUTPUTS/openbind_a71ev2a_c2_elabs_1LSYIDY.sdf']

>  <name>  (1490) 
P577489

>  <ref_pdb>  (1490) 
A3066a

>  <subsites>  (1490) 
None

>  <HIPPO Pose ID>  (1490) 
577489

>  <ref_mols>  (1490) 
A3066a

>  <HIPPO Compound ID>  (1490) 
351873

>  <tags>  (1490) 
openbind_a71ev2a_c2_elabs,syndirella_product,openbind_a71ev2a_c2_elabs_fragonly_scored_top80percent,BulkDock Fragalysis export,openbind_a71ev2a_c2_elabs_scored,openbind_a71ev2a_c2_elabs_scored_top80percent,openbind_a71ev2a_c2_elabs_activefrags_only_scored_5.2plus,openbind_a71ev2a_c2_elabs_activefrags_only_scored_5.5plus,syndirella_placed

>  <smina_score_min>  (1490) 
-6.375

$$$$
P577490
     RDKit          3D

 20 21  0  0  0  0  0  0  0  0999 V2000
   10.8189    8.5349   23.2707 C   0  0  0  0  0  0  0  0  0  0  0  0
   10.1984    9.7886   22.6686 C   0  0  0  0  0  0  0  0  0  0  0  0
    9.5359   10.6966   23.6509 C   0  0  0  0  0  0  0  0  0  0  0  0
    9.7532   11.9955   24.1130 C   0  0  0  0  0  0  0  0  0  0  0  0
   10.8572   12.9416   23.8711 C   0  0  0  0  0  0  0  0  0  0  0  0
   11.2514   13.5750   24.7627 O   0  0  0  0  0  0  0  0  0  0  0  0
   11.2269   12.9777   22.3941 N   0  0  0  0  0  0  0  0  0  0  0  0
   12.0879   13.8584   21.6747 C   0  0  0  0  0  0  0  0  0  0  0  0
   11.1588   14.9341   21.2531 C   0  0  0  0  0  0  0  0  0  0  0  0
   10.6030   15.0516   20.0475 C   0  0  0  0  0  0  0  0  0  0  0  0
    9.4126   16.2439   19.7539 Cl  0  0  0  0  0  0  0  0  0  0  0  0
    8.6470   12.3082   24.9839 C   0  0  0  0  0  0  0  0  0  0  0  0
    8.2447   13.4666   25.6783 C   0  0  0  0  0  0  0  0  0  0  0  0
    7.1366   13.4095   26.5263 C   0  0  0  0  0  0  0  0  0  0  0  0
    6.6816   14.8192   27.4049 Cl  0  0  0  0  0  0  0  0  0  0  0  0
    6.4209   12.2328   26.6991 C   0  0  0  0  0  0  0  0  0  0  0  0
    6.7894   11.0801   26.0137 C   0  0  0  0  0  0  0  0  0  0  0  0
    7.8954   11.1559   25.1549 C   0  0  0  0  0  0  0  0  0  0  0  0
    8.4718   10.2115   24.3600 N   0  0  0  0  0  0  0  0  0  0  0  0
    8.0332    8.8529   24.3073 C   0  0  0  0  0  0  0  0  0  0  0  0
  1  2  1  0
  2  3  1  0
  3  4  2  0
  4  5  1  0
  5  6  2  0
  5  7  1  0
  7  8  1  0
  8  9  1  0
  9 10  2  0
 10 11  1  0
  4 12  1  0
 12 13  2  0
 13 14  1  0
 14 15  1  0
 14 16  2  0
 16 17  1  0
 17 18  2  0
 18 19  1  0
 19 20  1  0
 19  3  1  0
 18 12  1  0
M  END
>  <alias>  (1491) 
None

>  <rmsd(smina/fragmenstein)>  (1491) 
0.929

>  <smiles>  (1491) 
CCc1c(C(=O)NC/C=C/Cl)c2cc(Cl)ccc2n1C

>  <gnina_score>  (1491) 
5.76

>  <inspiration_score>  (1491) 
None

>  <energy_score>  (1491) 
-4.307205

>  <distance_score>  (1491) 
1.108834

>  <gnina_score_min>  (1491) 
5.682

>  <inchikey>  (1491) 
DOJIWOSUJIYPBE-QPJJXVBHSA-N

>  <exports>  (1491) 
['/opt/xchem-fragalysis-2/maxwin/BulkDock/OUTPUTS/openbind_a71ev2a_c2_elabs_1LOUU54.sdf', '/opt/xchem-fragalysis-2/maxwin/BulkDock/OUTPUTS/openbind_a71ev2a_c2_elabs_1LSYIDY.sdf']

>  <name>  (1491) 
P577490

>  <ref_pdb>  (1491) 
A3066a

>  <subsites>  (1491) 
None

>  <HIPPO Pose ID>  (1491) 
577490

>  <ref_mols>  (1491) 
A3066a

>  <HIPPO Compound ID>  (1491) 
351879

>  <tags>  (1491) 
openbind_a71ev2a_c2_elabs,syndirella_product,openbind_a71ev2a_c2_elabs_fragonly_scored_top80percent,BulkDock Fragalysis export,openbind_a71ev2a_c2_elabs_scored,openbind_a71ev2a_c2_elabs_scored_top80percent,openbind_a71ev2a_c2_elabs_activefrags_only_scored_5.2plus,openbind_a71ev2a_c2_elabs_activefrags_only_scored_5.5plus,syndirella_placed

>  <smina_score_min>  (1491) 
-6.186

$$$$
P577493
     RDKit          3D

 20 21  0  0  0  0  0  0  0  0999 V2000
   12.6625   14.7814   22.3373 C   0  0  0  0  0  0  0  0  0  0  0  0
   11.5730   14.0940   21.5463 C   0  0  2  0  0  0  0  0  0  0  0  0
   10.6064   15.1045   20.8953 C   0  0  0  0  0  0  0  0  0  0  0  0
    8.8727   14.7333   21.1350 Cl  0  0  0  0  0  0  0  0  0  0  0  0
   10.8708   13.1348   22.3558 N   0  0  0  0  0  0  0  0  0  0  0  0
   10.3158   13.2493   23.7781 C   0  0  0  0  0  0  0  0  0  0  0  0
   10.4034   14.1108   24.5547 O   0  0  0  0  0  0  0  0  0  0  0  0
    9.4781   12.0973   24.1057 C   0  0  0  0  0  0  0  0  0  0  0  0
    9.4987   10.8396   23.5736 C   0  0  0  0  0  0  0  0  0  0  0  0
   10.3293   10.1230   22.3104 Cl  0  0  0  0  0  0  0  0  0  0  0  0
    8.6704   10.0187   24.2512 N   0  0  0  0  0  0  0  0  0  0  0  0
    8.6414    8.5932   24.0574 C   0  0  0  0  0  0  0  0  0  0  0  0
    7.9256   10.7528   25.1371 C   0  0  0  0  0  0  0  0  0  0  0  0
    6.9014   10.3806   26.0174 C   0  0  0  0  0  0  0  0  0  0  0  0
    6.3802   11.3600   26.8692 C   0  0  0  0  0  0  0  0  0  0  0  0
    5.2648   10.8360   28.0849 Cl  0  0  0  0  0  0  0  0  0  0  0  0
    6.8039   12.6855   26.7786 C   0  0  0  0  0  0  0  0  0  0  0  0
    6.1779   13.9275   27.8057 Cl  0  0  0  0  0  0  0  0  0  0  0  0
    7.7990   13.0500   25.8668 C   0  0  0  0  0  0  0  0  0  0  0  0
    8.4029   12.0664   25.0571 C   0  0  0  0  0  0  0  0  0  0  0  0
  2  1  1  1
  2  3  1  0
  3  4  1  0
  2  5  1  0
  5  6  1  0
  6  7  2  0
  6  8  1  0
  8  9  2  0
  9 10  1  0
  9 11  1  0
 11 12  1  0
 11 13  1  0
 13 14  2  0
 14 15  1  0
 15 16  1  0
 15 17  2  0
 17 18  1  0
 17 19  1  0
 19 20  2  0
 20  8  1  0
 20 13  1  0
M  END
>  <alias>  (1492) 
None

>  <rmsd(smina/fragmenstein)>  (1492) 
1.373

>  <smiles>  (1492) 
C[C@H](CCl)NC(=O)c1c(Cl)n(C)c2cc(Cl)c(Cl)cc12

>  <gnina_score>  (1492) 
5.921

>  <inspiration_score>  (1492) 
None

>  <energy_score>  (1492) 
-7.922547

>  <distance_score>  (1492) 
0.91601

>  <gnina_score_min>  (1492) 
5.883

>  <inchikey>  (1492) 
HHZRIHOGFKCUFV-ZCFIWIBFSA-N

>  <exports>  (1492) 
['/opt/xchem-fragalysis-2/maxwin/BulkDock/OUTPUTS/openbind_a71ev2a_c2_elabs_1LOUU54.sdf', '/opt/xchem-fragalysis-2/maxwin/BulkDock/OUTPUTS/openbind_a71ev2a_c2_elabs_1LSYIDY.sdf']

>  <name>  (1492) 
P577493

>  <ref_pdb>  (1492) 
A3066a

>  <subsites>  (1492) 
None

>  <HIPPO Pose ID>  (1492) 
577493

>  <ref_mols>  (1492) 
A3066a

>  <HIPPO Compound ID>  (1492) 
351890

>  <tags>  (1492) 
openbind_a71ev2a_c2_elabs,syndirella_product,openbind_a71ev2a_c2_elabs_fragonly_scored_top80percent,BulkDock Fragalysis export,openbind_a71ev2a_c2_elabs_scored,openbind_a71ev2a_c2_elabs_scored_top80percent,openbind_a71ev2a_c2_elabs_activefrags_only_scored_5.2plus,openbind_a71ev2a_c2_elabs_activefrags_only_scored_5.5plus,syndirella_placed

>  <smina_score_min>  (1492) 
-6.655

$$$$
P577494
     RDKit          3D

 20 21  0  0  0  0  0  0  0  0999 V2000
   10.7497   15.1425   21.0067 C   0  0  0  0  0  0  0  0  0  0  0  0
   12.0867   14.9207   21.7139 C   0  0  1  0  0  0  0  0  0  0  0  0
   12.1085   15.5937   22.9684 O   0  0  0  0  0  0  0  0  0  0  0  0
   12.3890   13.4604   21.9772 C   0  0  0  0  0  0  0  0  0  0  0  0
   11.2778   12.7662   22.5468 N   0  0  0  0  0  0  0  0  0  0  0  0
   10.4414   13.0782   23.7864 C   0  0  0  0  0  0  0  0  0  0  0  0
   10.4697   13.9922   24.5045 O   0  0  0  0  0  0  0  0  0  0  0  0
    9.4846   12.0121   24.0533 C   0  0  0  0  0  0  0  0  0  0  0  0
    9.4591   10.7473   23.5351 C   0  0  0  0  0  0  0  0  0  0  0  0
   10.2893    9.9471   22.3104 Cl  0  0  0  0  0  0  0  0  0  0  0  0
    8.6080    9.9777   24.2395 N   0  0  0  0  0  0  0  0  0  0  0  0
    8.5643    8.5502   24.1021 C   0  0  0  0  0  0  0  0  0  0  0  0
    7.8860   10.7524   25.1077 C   0  0  0  0  0  0  0  0  0  0  0  0
    6.8668   10.4261   26.0121 C   0  0  0  0  0  0  0  0  0  0  0  0
    6.3814   11.4387   26.8460 C   0  0  0  0  0  0  0  0  0  0  0  0
    5.2656   10.9755   28.0853 Cl  0  0  0  0  0  0  0  0  0  0  0  0
    6.8406   12.7494   26.7199 C   0  0  0  0  0  0  0  0  0  0  0  0
    6.2656   14.0313   27.7275 Cl  0  0  0  0  0  0  0  0  0  0  0  0
    7.8358   13.0654   25.7895 C   0  0  0  0  0  0  0  0  0  0  0  0
    8.3969   12.0489   24.9899 C   0  0  0  0  0  0  0  0  0  0  0  0
  2  1  1  1
  2  3  1  0
  2  4  1  0
  4  5  1  0
  5  6  1  0
  6  7  2  0
  6  8  1  0
  8  9  2  0
  9 10  1  0
  9 11  1  0
 11 12  1  0
 11 13  1  0
 13 14  2  0
 14 15  1  0
 15 16  1  0
 15 17  2  0
 17 18  1  0
 17 19  1  0
 19 20  2  0
 20  8  1  0
 20 13  1  0
M  END
>  <alias>  (1493) 
None

>  <rmsd(smina/fragmenstein)>  (1493) 
1.425

>  <smiles>  (1493) 
C[C@@H](O)CNC(=O)c1c(Cl)n(C)c2cc(Cl)c(Cl)cc12

>  <gnina_score>  (1493) 
5.632

>  <inspiration_score>  (1493) 
None

>  <energy_score>  (1493) 
-7.135583

>  <distance_score>  (1493) 
0.921317

>  <gnina_score_min>  (1493) 
5.535

>  <inchikey>  (1493) 
YYFGOTBQFFFUQT-ZCFIWIBFSA-N

>  <exports>  (1493) 
['/opt/xchem-fragalysis-2/maxwin/BulkDock/OUTPUTS/openbind_a71ev2a_c2_elabs_1LOUU54.sdf', '/opt/xchem-fragalysis-2/maxwin/BulkDock/OUTPUTS/openbind_a71ev2a_c2_elabs_1LSYIDY.sdf']

>  <name>  (1493) 
P577494

>  <ref_pdb>  (1493) 
A3066a

>  <subsites>  (1493) 
None

>  <HIPPO Pose ID>  (1493) 
577494

>  <ref_mols>  (1493) 
A3066a

>  <HIPPO Compound ID>  (1493) 
351891

>  <tags>  (1493) 
openbind_a71ev2a_c2_elabs,syndirella_product,openbind_a71ev2a_c2_elabs_fragonly_scored_top80percent,BulkDock Fragalysis export,openbind_a71ev2a_c2_elabs_scored,openbind_a71ev2a_c2_elabs_scored_top80percent,openbind_a71ev2a_c2_elabs_activefrags_only_scored_5.2plus,openbind_a71ev2a_c2_elabs_activefrags_only_scored_5.5plus,syndirella_placed

>  <smina_score_min>  (1493) 
-6.539

$$$$
P577495
     RDKit          3D

 20 21  0  0  0  0  0  0  0  0999 V2000
   12.2721   14.2562   20.0241 C   0  0  0  0  0  0  0  0  0  0  0  0
   11.9748   14.2814   21.3256 C   0  0  0  0  0  0  0  0  0  0  0  0
   10.7335   14.8263   21.9381 C   0  0  1  0  0  0  0  0  0  0  0  0
    9.7304   15.4929   21.0013 C   0  0  0  0  0  0  0  0  0  0  0  0
   10.0868   13.7518   22.6237 N   0  0  0  0  0  0  0  0  0  0  0  0
    9.9150   13.4876   24.1214 C   0  0  0  0  0  0  0  0  0  0  0  0
   10.2045   14.1392   25.0405 O   0  0  0  0  0  0  0  0  0  0  0  0
    9.1867   12.2513   24.3279 C   0  0  0  0  0  0  0  0  0  0  0  0
    9.3875   11.0660   23.6898 C   0  0  0  0  0  0  0  0  0  0  0  0
   10.4105   10.6640   22.4418 Cl  0  0  0  0  0  0  0  0  0  0  0  0
    8.6432   10.0812   24.2369 N   0  0  0  0  0  0  0  0  0  0  0  0
    8.8021    8.6793   23.9246 C   0  0  0  0  0  0  0  0  0  0  0  0
    7.8082   10.6446   25.1754 C   0  0  0  0  0  0  0  0  0  0  0  0
    6.8168   10.0896   25.9888 C   0  0  0  0  0  0  0  0  0  0  0  0
    6.2103   10.9075   26.9492 C   0  0  0  0  0  0  0  0  0  0  0  0
    5.1430   10.1394   28.0758 Cl  0  0  0  0  0  0  0  0  0  0  0  0
    6.5080   12.2678   27.0239 C   0  0  0  0  0  0  0  0  0  0  0  0
    5.7646   13.3133   28.1820 Cl  0  0  0  0  0  0  0  0  0  0  0  0
    7.4579   12.8284   26.1691 C   0  0  0  0  0  0  0  0  0  0  0  0
    8.1415   12.0035   25.2559 C   0  0  0  0  0  0  0  0  0  0  0  0
  1  2  2  0
  2  3  1  0
  3  4  1  6
  3  5  1  0
  5  6  1  0
  6  7  2  0
  6  8  1  0
  8  9  2  0
  9 10  1  0
  9 11  1  0
 11 12  1  0
 11 13  1  0
 13 14  2  0
 14 15  1  0
 15 16  1  0
 15 17  2  0
 17 18  1  0
 17 19  1  0
 19 20  2  0
 20  8  1  0
 20 13  1  0
M  END
>  <alias>  (1494) 
None

>  <rmsd(smina/fragmenstein)>  (1494) 
0.394

>  <smiles>  (1494) 
C=C[C@@H](C)NC(=O)c1c(Cl)n(C)c2cc(Cl)c(Cl)cc12

>  <gnina_score>  (1494) 
5.658

>  <inspiration_score>  (1494) 
None

>  <energy_score>  (1494) 
-1.660801

>  <distance_score>  (1494) 
1.163093

>  <gnina_score_min>  (1494) 
5.811

>  <inchikey>  (1494) 
KBIOPDUTZKKSSN-SSDOTTSWSA-N

>  <exports>  (1494) 
['/opt/xchem-fragalysis-2/maxwin/BulkDock/OUTPUTS/openbind_a71ev2a_c2_elabs_1LOUU54.sdf', '/opt/xchem-fragalysis-2/maxwin/BulkDock/OUTPUTS/openbind_a71ev2a_c2_elabs_1LSYIDY.sdf']

>  <name>  (1494) 
P577495

>  <ref_pdb>  (1494) 
A3066a

>  <subsites>  (1494) 
None

>  <HIPPO Pose ID>  (1494) 
577495

>  <ref_mols>  (1494) 
A3066a

>  <HIPPO Compound ID>  (1494) 
351893

>  <tags>  (1494) 
openbind_a71ev2a_c2_elabs,syndirella_product,openbind_a71ev2a_c2_elabs_fragonly_scored_top80percent,BulkDock Fragalysis export,openbind_a71ev2a_c2_elabs_scored,openbind_a71ev2a_c2_elabs_scored_top80percent,openbind_a71ev2a_c2_elabs_activefrags_only_scored_5.2plus,openbind_a71ev2a_c2_elabs_activefrags_only_scored_5.5plus,syndirella_placed

>  <smina_score_min>  (1494) 
-5.532

$$$$
P577496
     RDKit          3D

 20 21  0  0  0  0  0  0  0  0999 V2000
   10.0962   15.6580   19.5544 C   0  0  0  0  0  0  0  0  0  0  0  0
    9.8268   14.7520   20.7085 C   0  0  0  0  0  0  0  0  0  0  0  0
    8.6819   14.3202   20.8953 O   0  0  0  0  0  0  0  0  0  0  0  0
   11.0078   14.4169   21.6215 C   0  0  0  0  0  0  0  0  0  0  0  0
   10.4579   13.3796   22.4343 N   0  0  0  0  0  0  0  0  0  0  0  0
   10.1863   13.3340   23.9315 C   0  0  0  0  0  0  0  0  0  0  0  0
   10.4348   14.1019   24.7656 O   0  0  0  0  0  0  0  0  0  0  0  0
    9.4090   12.1439   24.2479 C   0  0  0  0  0  0  0  0  0  0  0  0
    9.4711   10.9112   23.6668 C   0  0  0  0  0  0  0  0  0  0  0  0
   10.3433   10.3010   22.3794 Cl  0  0  0  0  0  0  0  0  0  0  0  0
    8.6525   10.0416   24.2929 N   0  0  0  0  0  0  0  0  0  0  0  0
    8.6561    8.6253   24.0368 C   0  0  0  0  0  0  0  0  0  0  0  0
    7.8845   10.7240   25.2028 C   0  0  0  0  0  0  0  0  0  0  0  0
    6.8540   10.3006   26.0511 C   0  0  0  0  0  0  0  0  0  0  0  0
    6.3099   11.2346   26.9400 C   0  0  0  0  0  0  0  0  0  0  0  0
    5.1959   10.6413   28.1261 Cl  0  0  0  0  0  0  0  0  0  0  0  0
    6.7108   12.5706   26.9109 C   0  0  0  0  0  0  0  0  0  0  0  0
    6.0523   13.7562   27.9842 Cl  0  0  0  0  0  0  0  0  0  0  0  0
    7.7072   12.9908   26.0264 C   0  0  0  0  0  0  0  0  0  0  0  0
    8.3368   12.0494   25.1883 C   0  0  0  0  0  0  0  0  0  0  0  0
  1  2  1  0
  2  3  2  0
  2  4  1  0
  4  5  1  0
  5  6  1  0
  6  7  2  0
  6  8  1  0
  8  9  2  0
  9 10  1  0
  9 11  1  0
 11 12  1  0
 11 13  1  0
 13 14  2  0
 14 15  1  0
 15 16  1  0
 15 17  2  0
 17 18  1  0
 17 19  1  0
 19 20  2  0
 20  8  1  0
 20 13  1  0
M  END
>  <alias>  (1495) 
None

>  <rmsd(smina/fragmenstein)>  (1495) 
0.462

>  <smiles>  (1495) 
CC(=O)CNC(=O)c1c(Cl)n(C)c2cc(Cl)c(Cl)cc12

>  <gnina_score>  (1495) 
5.696

>  <inspiration_score>  (1495) 
None

>  <energy_score>  (1495) 
-0.062445

>  <distance_score>  (1495) 
1.030524

>  <gnina_score_min>  (1495) 
5.79

>  <inchikey>  (1495) 
LTAGMLKTKZCUKL-UHFFFAOYSA-N

>  <exports>  (1495) 
['/opt/xchem-fragalysis-2/maxwin/BulkDock/OUTPUTS/openbind_a71ev2a_c2_elabs_1LOUU54.sdf', '/opt/xchem-fragalysis-2/maxwin/BulkDock/OUTPUTS/openbind_a71ev2a_c2_elabs_1LSYIDY.sdf']

>  <name>  (1495) 
P577496

>  <ref_pdb>  (1495) 
A3066a

>  <subsites>  (1495) 
None

>  <HIPPO Pose ID>  (1495) 
577496

>  <ref_mols>  (1495) 
A3066a

>  <HIPPO Compound ID>  (1495) 
351896

>  <tags>  (1495) 
openbind_a71ev2a_c2_elabs,syndirella_product,openbind_a71ev2a_c2_elabs_fragonly_scored_top80percent,BulkDock Fragalysis export,openbind_a71ev2a_c2_elabs_scored,openbind_a71ev2a_c2_elabs_scored_top80percent,openbind_a71ev2a_c2_elabs_activefrags_only_scored_5.2plus,openbind_a71ev2a_c2_elabs_activefrags_only_scored_5.5plus,syndirella_placed

>  <smina_score_min>  (1495) 
-5.949

$$$$
P577497
     RDKit          3D

 20 21  0  0  0  0  0  0  0  0999 V2000
   11.8019   15.3581   22.5118 C   0  0  0  0  0  0  0  0  0  0  0  0
   12.1864   13.9226   22.3222 C   0  0  2  0  0  0  0  0  0  0  0  0
   12.4005   13.6829   20.8447 C   0  0  0  0  0  0  0  0  0  0  0  0
   13.3037   14.5917   20.2845 O   0  0  0  0  0  0  0  0  0  0  0  0
   11.1291   13.1056   22.8411 N   0  0  0  0  0  0  0  0  0  0  0  0
   10.3658   13.1887   24.1656 C   0  0  0  0  0  0  0  0  0  0  0  0
   10.4177   13.9791   25.0178 O   0  0  0  0  0  0  0  0  0  0  0  0
    9.4176   12.0866   24.2871 C   0  0  0  0  0  0  0  0  0  0  0  0
    9.4344   10.8819   23.6435 C   0  0  0  0  0  0  0  0  0  0  0  0
   10.3236   10.2587   22.3705 Cl  0  0  0  0  0  0  0  0  0  0  0  0
    8.6016   10.0123   24.2501 N   0  0  0  0  0  0  0  0  0  0  0  0
    8.6442    8.5921   24.0173 C   0  0  0  0  0  0  0  0  0  0  0  0
    7.8302   10.6876   25.1613 C   0  0  0  0  0  0  0  0  0  0  0  0
    6.8049   10.2545   26.0101 C   0  0  0  0  0  0  0  0  0  0  0  0
    6.2749   11.1723   26.9236 C   0  0  0  0  0  0  0  0  0  0  0  0
    5.1704   10.5588   28.1074 Cl  0  0  0  0  0  0  0  0  0  0  0  0
    6.6838   12.5053   26.9178 C   0  0  0  0  0  0  0  0  0  0  0  0
    6.0419   13.6730   28.0190 Cl  0  0  0  0  0  0  0  0  0  0  0  0
    7.6820   12.9343   26.0393 C   0  0  0  0  0  0  0  0  0  0  0  0
    8.2981   12.0070   25.1751 C   0  0  0  0  0  0  0  0  0  0  0  0
  2  1  1  6
  2  3  1  0
  3  4  1  0
  2  5  1  0
  5  6  1  0
  6  7  2  0
  6  8  1  0
  8  9  2  0
  9 10  1  0
  9 11  1  0
 11 12  1  0
 11 13  1  0
 13 14  2  0
 14 15  1  0
 15 16  1  0
 15 17  2  0
 17 18  1  0
 17 19  1  0
 19 20  2  0
 20  8  1  0
 20 13  1  0
M  END
>  <alias>  (1496) 
None

>  <rmsd(smina/fragmenstein)>  (1496) 
1.64

>  <smiles>  (1496) 
C[C@H](CO)NC(=O)c1c(Cl)n(C)c2cc(Cl)c(Cl)cc12

>  <gnina_score>  (1496) 
5.482

>  <inspiration_score>  (1496) 
None

>  <energy_score>  (1496) 
-1.328316

>  <distance_score>  (1496) 
0.95533

>  <gnina_score_min>  (1496) 
5.699

>  <inchikey>  (1496) 
AROYKGURCQPSHN-ZCFIWIBFSA-N

>  <exports>  (1496) 
['/opt/xchem-fragalysis-2/maxwin/BulkDock/OUTPUTS/openbind_a71ev2a_c2_elabs_1LOUU54.sdf', '/opt/xchem-fragalysis-2/maxwin/BulkDock/OUTPUTS/openbind_a71ev2a_c2_elabs_1LSYIDY.sdf']

>  <name>  (1496) 
P577497

>  <ref_pdb>  (1496) 
A3066a

>  <subsites>  (1496) 
None

>  <HIPPO Pose ID>  (1496) 
577497

>  <ref_mols>  (1496) 
A3066a

>  <HIPPO Compound ID>  (1496) 
351899

>  <tags>  (1496) 
openbind_a71ev2a_c2_elabs,syndirella_product,openbind_a71ev2a_c2_elabs_fragonly_scored_top80percent,BulkDock Fragalysis export,openbind_a71ev2a_c2_elabs_scored,openbind_a71ev2a_c2_elabs_scored_top80percent,openbind_a71ev2a_c2_elabs_activefrags_only_scored_5.2plus,openbind_a71ev2a_c2_elabs_activefrags_only_scored_5.5plus,syndirella_placed

>  <smina_score_min>  (1496) 
-6.769

$$$$
P577498
     RDKit          3D

 20 22  0  0  0  0  0  0  0  0999 V2000
   12.9526   15.0548   21.7026 C   0  0  0  0  0  0  0  0  0  0  0  0
   11.8034   14.2219   21.3447 C   0  0  2  0  0  0  0  0  0  0  0  0
   10.7428   14.6045   20.3557 C   0  0  0  0  0  0  0  0  0  0  0  0
   10.4559   14.6866   21.8146 C   0  0  1  0  0  0  0  0  0  0  0  0
    9.7563   13.7493   22.5709 N   0  0  0  0  0  0  0  0  0  0  0  0
    9.7512   13.4921   24.0847 C   0  0  0  0  0  0  0  0  0  0  0  0
   10.2710   14.0714   24.9509 O   0  0  0  0  0  0  0  0  0  0  0  0
    9.0355   12.2693   24.3432 C   0  0  0  0  0  0  0  0  0  0  0  0
    9.2914   11.0773   23.7333 C   0  0  0  0  0  0  0  0  0  0  0  0
   10.3722   10.6847   22.5209 Cl  0  0  0  0  0  0  0  0  0  0  0  0
    8.5609   10.0876   24.2870 N   0  0  0  0  0  0  0  0  0  0  0  0
    8.7417    8.6889   23.9796 C   0  0  0  0  0  0  0  0  0  0  0  0
    7.7227   10.6462   25.2281 C   0  0  0  0  0  0  0  0  0  0  0  0
    6.7476   10.0837   26.0555 C   0  0  0  0  0  0  0  0  0  0  0  0
    6.1448   10.8981   27.0220 C   0  0  0  0  0  0  0  0  0  0  0  0
    5.0902   10.1273   28.1585 Cl  0  0  0  0  0  0  0  0  0  0  0  0
    6.4313   12.2614   27.0923 C   0  0  0  0  0  0  0  0  0  0  0  0
    5.6964   13.3023   28.2610 Cl  0  0  0  0  0  0  0  0  0  0  0  0
    7.3580   12.8325   26.2202 C   0  0  0  0  0  0  0  0  0  0  0  0
    8.0284   12.0125   25.2961 C   0  0  0  0  0  0  0  0  0  0  0  0
  2  1  1  1
  2  3  1  0
  3  4  1  0
  4  5  1  6
  5  6  1  0
  6  7  2  0
  6  8  1  0
  8  9  2  0
  9 10  1  0
  9 11  1  0
 11 12  1  0
 11 13  1  0
 13 14  2  0
 14 15  1  0
 15 16  1  0
 15 17  2  0
 17 18  1  0
 17 19  1  0
 19 20  2  0
  4  2  1  0
 20  8  1  0
 20 13  1  0
M  END
>  <alias>  (1497) 
None

>  <rmsd(smina/fragmenstein)>  (1497) 
0.238

>  <smiles>  (1497) 
C[C@@H]1C[C@H]1NC(=O)c1c(Cl)n(C)c2cc(Cl)c(Cl)cc12

>  <gnina_score>  (1497) 
5.659

>  <inspiration_score>  (1497) 
None

>  <energy_score>  (1497) 
-10.772965

>  <distance_score>  (1497) 
1.292402

>  <gnina_score_min>  (1497) 
5.739

>  <inchikey>  (1497) 
HMGHDCKINCVEHM-LHLIQPBNSA-N

>  <exports>  (1497) 
['/opt/xchem-fragalysis-2/maxwin/BulkDock/OUTPUTS/openbind_a71ev2a_c2_elabs_1LOUU54.sdf', '/opt/xchem-fragalysis-2/maxwin/BulkDock/OUTPUTS/openbind_a71ev2a_c2_elabs_1LSYIDY.sdf']

>  <name>  (1497) 
P577498

>  <ref_pdb>  (1497) 
A3066a

>  <subsites>  (1497) 
None

>  <HIPPO Pose ID>  (1497) 
577498

>  <ref_mols>  (1497) 
A3066a

>  <HIPPO Compound ID>  (1497) 
351902

>  <tags>  (1497) 
openbind_a71ev2a_c2_elabs,syndirella_product,openbind_a71ev2a_c2_elabs_fragonly_scored_top80percent,BulkDock Fragalysis export,openbind_a71ev2a_c2_elabs_scored,openbind_a71ev2a_c2_elabs_scored_top80percent,openbind_a71ev2a_c2_elabs_activefrags_only_scored_5.2plus,openbind_a71ev2a_c2_elabs_activefrags_only_scored_5.5plus,syndirella_placed

>  <smina_score_min>  (1497) 
-5.99

$$$$
P577499
     RDKit          3D

 20 21  0  0  0  0  0  0  0  0999 V2000
    8.7646    8.5549   23.9633 C   0  0  0  0  0  0  0  0  0  0  0  0
    8.6759    9.9768   24.1760 N   0  0  0  0  0  0  0  0  0  0  0  0
    9.4349   10.8768   23.5148 C   0  0  0  0  0  0  0  0  0  0  0  0
   10.3665   10.2686   22.2794 Cl  0  0  0  0  0  0  0  0  0  0  0  0
    9.2853   12.1223   24.0388 C   0  0  0  0  0  0  0  0  0  0  0  0
    9.9978   13.3533   23.7335 C   0  0  0  0  0  0  0  0  0  0  0  0
    9.9874   14.1659   24.5672 O   0  0  0  0  0  0  0  0  0  0  0  0
   10.5619   13.4000   22.3016 N   0  0  0  0  0  0  0  0  0  0  0  0
   11.1517   14.4965   21.5565 C   0  0  0  0  0  0  0  0  0  0  0  0
    9.9915   15.3927   21.0994 C   0  0  0  0  0  0  0  0  0  0  0  0
   12.1384   15.2115   22.4637 C   0  0  0  0  0  0  0  0  0  0  0  0
   11.9567   14.0843   20.3276 C   0  0  0  0  0  0  0  0  0  0  0  0
    8.2484   11.9817   25.0234 C   0  0  0  0  0  0  0  0  0  0  0  0
    7.5948   12.8952   25.8781 C   0  0  0  0  0  0  0  0  0  0  0  0
    6.6517   12.4356   26.8006 C   0  0  0  0  0  0  0  0  0  0  0  0
    5.9617   13.5970   27.8793 Cl  0  0  0  0  0  0  0  0  0  0  0  0
    6.3224   11.0830   26.8531 C   0  0  0  0  0  0  0  0  0  0  0  0
    5.2689   10.4409   28.0678 Cl  0  0  0  0  0  0  0  0  0  0  0  0
    6.8938   10.1724   25.9585 C   0  0  0  0  0  0  0  0  0  0  0  0
    7.8807   10.6343   25.0801 C   0  0  0  0  0  0  0  0  0  0  0  0
  1  2  1  0
  2  3  1  0
  3  4  1  0
  3  5  2  0
  5  6  1  0
  6  7  2  0
  6  8  1  0
  8  9  1  0
  9 10  1  0
  9 11  1  0
  9 12  1  0
  5 13  1  0
 13 14  2  0
 14 15  1  0
 15 16  1  0
 15 17  2  0
 17 18  1  0
 17 19  1  0
 19 20  2  0
 20  2  1  0
 20 13  1  0
M  END
>  <alias>  (1498) 
None

>  <rmsd(smina/fragmenstein)>  (1498) 
1.551

>  <smiles>  (1498) 
Cn1c(Cl)c(C(=O)NC(C)(C)C)c2cc(Cl)c(Cl)cc21

>  <gnina_score>  (1498) 
5.785

>  <inspiration_score>  (1498) 
None

>  <energy_score>  (1498) 
-20.097578

>  <distance_score>  (1498) 
0.981628

>  <gnina_score_min>  (1498) 
5.67

>  <inchikey>  (1498) 
ITXPFLLNLXZJBO-UHFFFAOYSA-N

>  <exports>  (1498) 
['/opt/xchem-fragalysis-2/maxwin/BulkDock/OUTPUTS/openbind_a71ev2a_c2_elabs_1LOUU54.sdf', '/opt/xchem-fragalysis-2/maxwin/BulkDock/OUTPUTS/openbind_a71ev2a_c2_elabs_1LSYIDY.sdf']

>  <name>  (1498) 
P577499

>  <ref_pdb>  (1498) 
A3066a

>  <subsites>  (1498) 
None

>  <HIPPO Pose ID>  (1498) 
577499

>  <ref_mols>  (1498) 
A3066a

>  <HIPPO Compound ID>  (1498) 
351911

>  <tags>  (1498) 
openbind_a71ev2a_c2_elabs,syndirella_product,openbind_a71ev2a_c2_elabs_fragonly_scored_top80percent,BulkDock Fragalysis export,openbind_a71ev2a_c2_elabs_scored,openbind_a71ev2a_c2_elabs_scored_top80percent,openbind_a71ev2a_c2_elabs_activefrags_only_scored_5.2plus,openbind_a71ev2a_c2_elabs_activefrags_only_scored_5.5plus,syndirella_placed

>  <smina_score_min>  (1498) 
-6.378

$$$$
P577500
     RDKit          3D

 20 21  0  0  0  0  0  0  0  0999 V2000
    8.8145    8.6366   24.0241 C   0  0  0  0  0  0  0  0  0  0  0  0
    8.6047   10.0486   24.2457 N   0  0  0  0  0  0  0  0  0  0  0  0
    9.2384   11.0185   23.5501 C   0  0  0  0  0  0  0  0  0  0  0  0
   10.3488   10.4943   22.4160 Cl  0  0  0  0  0  0  0  0  0  0  0  0
    8.7839   12.2593   23.8992 C   0  0  0  0  0  0  0  0  0  0  0  0
    9.0952   13.5647   23.3187 C   0  0  0  0  0  0  0  0  0  0  0  0
    8.6235   14.5015   23.8134 O   0  0  0  0  0  0  0  0  0  0  0  0
   10.0077   13.4421   22.1004 N   0  0  0  0  0  0  0  0  0  0  0  0
   10.6111   14.4495   21.2871 C   0  0  0  0  0  0  0  0  0  0  0  0
   12.1223   14.2712   21.3110 C   0  0  0  0  0  0  0  0  0  0  0  0
   12.7161   14.6117   22.6556 C   0  0  0  0  0  0  0  0  0  0  0  0
   12.5865   13.1667   23.9614 Br  0  0  0  0  0  0  0  0  0  0  0  0
    7.9036   12.0233   25.0017 C   0  0  0  0  0  0  0  0  0  0  0  0
    7.1834   12.8779   25.8631 C   0  0  0  0  0  0  0  0  0  0  0  0
    6.3590   12.3396   26.8516 C   0  0  0  0  0  0  0  0  0  0  0  0
    5.5587   13.4423   27.9145 Cl  0  0  0  0  0  0  0  0  0  0  0  0
    6.2007   10.9610   26.9540 C   0  0  0  0  0  0  0  0  0  0  0  0
    5.2348   10.2326   28.1914 Cl  0  0  0  0  0  0  0  0  0  0  0  0
    6.8556   10.0994   26.0692 C   0  0  0  0  0  0  0  0  0  0  0  0
    7.7519   10.6402   25.1446 C   0  0  0  0  0  0  0  0  0  0  0  0
  1  2  1  0
  2  3  1  0
  3  4  1  0
  3  5  2  0
  5  6  1  0
  6  7  2  0
  6  8  1  0
  8  9  1  0
  9 10  1  0
 10 11  1  0
 11 12  1  0
  5 13  1  0
 13 14  2  0
 14 15  1  0
 15 16  1  0
 15 17  2  0
 17 18  1  0
 17 19  1  0
 19 20  2  0
 20  2  1  0
 20 13  1  0
M  END
>  <alias>  (1499) 
None

>  <rmsd(smina/fragmenstein)>  (1499) 
0.336

>  <smiles>  (1499) 
Cn1c(Cl)c(C(=O)NCCCBr)c2cc(Cl)c(Cl)cc21

>  <gnina_score>  (1499) 
5.877

>  <inspiration_score>  (1499) 
None

>  <energy_score>  (1499) 
-10.728727

>  <distance_score>  (1499) 
1.436185

>  <gnina_score_min>  (1499) 
5.963

>  <inchikey>  (1499) 
LAJQSBWWVBGZJB-UHFFFAOYSA-N

>  <exports>  (1499) 
['/opt/xchem-fragalysis-2/maxwin/BulkDock/OUTPUTS/openbind_a71ev2a_c2_elabs_1LOUU54.sdf', '/opt/xchem-fragalysis-2/maxwin/BulkDock/OUTPUTS/openbind_a71ev2a_c2_elabs_1LSYIDY.sdf']

>  <name>  (1499) 
P577500

>  <ref_pdb>  (1499) 
A3066a

>  <subsites>  (1499) 
None

>  <HIPPO Pose ID>  (1499) 
577500

>  <ref_mols>  (1499) 
A3066a

>  <HIPPO Compound ID>  (1499) 
351913

>  <tags>  (1499) 
openbind_a71ev2a_c2_elabs,syndirella_product,openbind_a71ev2a_c2_elabs_fragonly_scored_top80percent,BulkDock Fragalysis export,openbind_a71ev2a_c2_elabs_scored,openbind_a71ev2a_c2_elabs_scored_top80percent,openbind_a71ev2a_c2_elabs_activefrags_only_scored_5.2plus,openbind_a71ev2a_c2_elabs_activefrags_only_scored_5.5plus,syndirella_placed

>  <smina_score_min>  (1499) 
-5.284

$$$$
P577501
     RDKit          3D

 20 21  0  0  0  0  0  0  0  0999 V2000
   11.0796   14.7137   20.5501 C   0  0  0  0  0  0  0  0  0  0  0  0
   11.8283   13.8489   21.5483 C   0  0  1  0  0  0  0  0  0  0  0  0
   12.7261   14.6523   22.4651 C   0  0  0  0  0  0  0  0  0  0  0  0
   13.2319   13.8331   23.4321 F   0  0  0  0  0  0  0  0  0  0  0  0
   10.8833   13.0408   22.2726 N   0  0  0  0  0  0  0  0  0  0  0  0
   10.2196   13.2650   23.6308 C   0  0  0  0  0  0  0  0  0  0  0  0
   10.2683   14.1746   24.3521 O   0  0  0  0  0  0  0  0  0  0  0  0
    9.3888   12.1216   24.0057 C   0  0  0  0  0  0  0  0  0  0  0  0
    9.4392   10.8372   23.5385 C   0  0  0  0  0  0  0  0  0  0  0  0
   10.3050   10.0641   22.3260 Cl  0  0  0  0  0  0  0  0  0  0  0  0
    8.6204   10.0370   24.2516 N   0  0  0  0  0  0  0  0  0  0  0  0
    8.5904    8.6073   24.1006 C   0  0  0  0  0  0  0  0  0  0  0  0
    7.8858   10.7931   25.1269 C   0  0  0  0  0  0  0  0  0  0  0  0
    6.8834   10.4377   26.0398 C   0  0  0  0  0  0  0  0  0  0  0  0
    6.3731   11.4362   26.8753 C   0  0  0  0  0  0  0  0  0  0  0  0
    5.2761   10.9440   28.1204 Cl  0  0  0  0  0  0  0  0  0  0  0  0
    6.7919   12.7598   26.7441 C   0  0  0  0  0  0  0  0  0  0  0  0
    6.1874   14.0260   27.7555 Cl  0  0  0  0  0  0  0  0  0  0  0  0
    7.7622   13.1066   25.7988 C   0  0  0  0  0  0  0  0  0  0  0  0
    8.3455   12.1082   24.9927 C   0  0  0  0  0  0  0  0  0  0  0  0
  2  1  1  6
  2  3  1  0
  3  4  1  0
  2  5  1  0
  5  6  1  0
  6  7  2  0
  6  8  1  0
  8  9  2  0
  9 10  1  0
  9 11  1  0
 11 12  1  0
 11 13  1  0
 13 14  2  0
 14 15  1  0
 15 16  1  0
 15 17  2  0
 17 18  1  0
 17 19  1  0
 19 20  2  0
 20  8  1  0
 20 13  1  0
M  END
>  <alias>  (1500) 
None

>  <rmsd(smina/fragmenstein)>  (1500) 
1.447

>  <smiles>  (1500) 
C[C@@H](CF)NC(=O)c1c(Cl)n(C)c2cc(Cl)c(Cl)cc12

>  <gnina_score>  (1500) 
5.749

>  <inspiration_score>  (1500) 
None

>  <energy_score>  (1500) 
-13.638439

>  <distance_score>  (1500) 
0.953787

>  <gnina_score_min>  (1500) 
5.515

>  <inchikey>  (1500) 
BINZVVHBYXTANL-LURJTMIESA-N

>  <exports>  (1500) 
['/opt/xchem-fragalysis-2/maxwin/BulkDock/OUTPUTS/openbind_a71ev2a_c2_elabs_1LOUU54.sdf', '/opt/xchem-fragalysis-2/maxwin/BulkDock/OUTPUTS/openbind_a71ev2a_c2_elabs_1LSYIDY.sdf']

>  <name>  (1500) 
P577501

>  <ref_pdb>  (1500) 
A3066a

>  <subsites>  (1500) 
None

>  <HIPPO Pose ID>  (1500) 
577501

>  <ref_mols>  (1500) 
A3066a

>  <HIPPO Compound ID>  (1500) 
351920

>  <tags>  (1500) 
openbind_a71ev2a_c2_elabs,syndirella_product,openbind_a71ev2a_c2_elabs_fragonly_scored_top80percent,BulkDock Fragalysis export,openbind_a71ev2a_c2_elabs_scored,openbind_a71ev2a_c2_elabs_scored_top80percent,openbind_a71ev2a_c2_elabs_activefrags_only_scored_5.2plus,openbind_a71ev2a_c2_elabs_activefrags_only_scored_5.5plus,syndirella_placed

>  <smina_score_min>  (1500) 
-6.423

$$$$
P577503
     RDKit          3D

 20 21  0  0  0  0  0  0  0  0999 V2000
   13.3423   15.1861   21.4295 C   0  0  0  0  0  0  0  0  0  0  0  0
   12.0362   14.7974   22.0350 C   0  0  1  0  0  0  0  0  0  0  0  0
   10.6897   14.9664   20.8742 Cl  0  0  0  0  0  0  0  0  0  0  0  0
   12.2580   13.3714   22.4446 C   0  0  0  0  0  0  0  0  0  0  0  0
   11.0871   12.7763   22.9207 N   0  0  0  0  0  0  0  0  0  0  0  0
   10.2640   13.0709   24.1610 C   0  0  0  0  0  0  0  0  0  0  0  0
   10.3754   13.9074   24.9574 O   0  0  0  0  0  0  0  0  0  0  0  0
    9.2740   12.0221   24.3103 C   0  0  0  0  0  0  0  0  0  0  0  0
    9.2898   10.7923   23.7049 C   0  0  0  0  0  0  0  0  0  0  0  0
   10.2152   10.0724   22.4814 Cl  0  0  0  0  0  0  0  0  0  0  0  0
    8.4475    9.9680   24.3460 N   0  0  0  0  0  0  0  0  0  0  0  0
    8.4881    8.5494   24.1518 C   0  0  0  0  0  0  0  0  0  0  0  0
    7.6952   10.6771   25.2461 C   0  0  0  0  0  0  0  0  0  0  0  0
    6.6823   10.2807   26.1262 C   0  0  0  0  0  0  0  0  0  0  0  0
    6.1797   11.2329   27.0202 C   0  0  0  0  0  0  0  0  0  0  0  0
    5.0705   10.6739   28.2270 Cl  0  0  0  0  0  0  0  0  0  0  0  0
    6.6091   12.5592   26.9727 C   0  0  0  0  0  0  0  0  0  0  0  0
    6.0046   13.7654   28.0538 Cl  0  0  0  0  0  0  0  0  0  0  0  0
    7.5957   12.9503   26.0653 C   0  0  0  0  0  0  0  0  0  0  0  0
    8.1732   11.9911   25.2123 C   0  0  0  0  0  0  0  0  0  0  0  0
  2  1  1  6
  2  3  1  0
  2  4  1  0
  4  5  1  0
  5  6  1  0
  6  7  2  0
  6  8  1  0
  8  9  2  0
  9 10  1  0
  9 11  1  0
 11 12  1  0
 11 13  1  0
 13 14  2  0
 14 15  1  0
 15 16  1  0
 15 17  2  0
 17 18  1  0
 17 19  1  0
 19 20  2  0
 20  8  1  0
 20 13  1  0
M  END
>  <alias>  (1501) 
None

>  <rmsd(smina/fragmenstein)>  (1501) 
1.967

>  <smiles>  (1501) 
C[C@@H](Cl)CNC(=O)c1c(Cl)n(C)c2cc(Cl)c(Cl)cc12

>  <gnina_score>  (1501) 
5.702

>  <inspiration_score>  (1501) 
None

>  <energy_score>  (1501) 
-2.402539

>  <distance_score>  (1501) 
1.121972

>  <gnina_score_min>  (1501) 
5.21

>  <inchikey>  (1501) 
HCSLQSYHLBBCSC-ZCFIWIBFSA-N

>  <exports>  (1501) 
['/opt/xchem-fragalysis-2/maxwin/BulkDock/OUTPUTS/openbind_a71ev2a_c2_elabs_1LOUU54.sdf', '/opt/xchem-fragalysis-2/maxwin/BulkDock/OUTPUTS/openbind_a71ev2a_c2_elabs_1LSYIDY.sdf']

>  <name>  (1501) 
P577503

>  <ref_pdb>  (1501) 
A3066a

>  <subsites>  (1501) 
None

>  <HIPPO Pose ID>  (1501) 
577503

>  <ref_mols>  (1501) 
A3066a

>  <HIPPO Compound ID>  (1501) 
351921

>  <tags>  (1501) 
openbind_a71ev2a_c2_elabs,syndirella_product,openbind_a71ev2a_c2_elabs_fragonly_scored_top80percent,openbind_a71ev2a_c2_elabs_scored,BulkDock Fragalysis export,openbind_a71ev2a_c2_elabs_scored_top80percent,openbind_a71ev2a_c2_elabs_activefrags_only_scored_5.2plus,syndirella_placed

>  <smina_score_min>  (1501) 
-6.029

$$$$
P577504
     RDKit          3D

 20 21  0  0  0  0  0  0  0  0999 V2000
    8.4533    8.6259   24.1739 C   0  0  0  0  0  0  0  0  0  0  0  0
    8.5716   10.0534   24.2483 N   0  0  0  0  0  0  0  0  0  0  0  0
    9.4582   10.7477   23.5094 C   0  0  0  0  0  0  0  0  0  0  0  0
   10.2690    9.8439   22.3361 Cl  0  0  0  0  0  0  0  0  0  0  0  0
    9.5473   12.0329   23.9772 C   0  0  0  0  0  0  0  0  0  0  0  0
   10.6043   12.9955   23.6900 C   0  0  0  0  0  0  0  0  0  0  0  0
   10.8653   13.8148   24.4739 O   0  0  0  0  0  0  0  0  0  0  0  0
   11.2693   12.6508   22.3567 N   0  0  0  0  0  0  0  0  0  0  0  0
   12.4488   13.1724   21.7459 C   0  0  0  0  0  0  0  0  0  0  0  0
   12.3521   14.4856   21.0225 C   0  0  0  0  0  0  0  0  0  0  0  0
   11.0907   14.5846   19.7781 Cl  0  0  0  0  0  0  0  0  0  0  0  0
   12.0437   15.6761   22.2437 Cl  0  0  0  0  0  0  0  0  0  0  0  0
    8.4765   12.1615   24.9202 C   0  0  0  0  0  0  0  0  0  0  0  0
    7.9865   13.2315   25.6930 C   0  0  0  0  0  0  0  0  0  0  0  0
    6.9786   13.0019   26.6360 C   0  0  0  0  0  0  0  0  0  0  0  0
    6.4844   14.3484   27.6023 Cl  0  0  0  0  0  0  0  0  0  0  0  0
    6.4448   11.7240   26.8080 C   0  0  0  0  0  0  0  0  0  0  0  0
    5.2934   11.3748   28.0518 Cl  0  0  0  0  0  0  0  0  0  0  0  0
    6.8753   10.6548   26.0161 C   0  0  0  0  0  0  0  0  0  0  0  0
    7.8994   10.8977   25.0908 C   0  0  0  0  0  0  0  0  0  0  0  0
  1  2  1  0
  2  3  1  0
  3  4  1  0
  3  5  2  0
  5  6  1  0
  6  7  2  0
  6  8  1  0
  8  9  1  0
  9 10  1  0
 10 11  1  0
 10 12  1  0
  5 13  1  0
 13 14  2  0
 14 15  1  0
 15 16  1  0
 15 17  2  0
 17 18  1  0
 17 19  1  0
 19 20  2  0
 20  2  1  0
 20 13  1  0
M  END
>  <alias>  (1502) 
None

>  <rmsd(smina/fragmenstein)>  (1502) 
1.686

>  <smiles>  (1502) 
Cn1c(Cl)c(C(=O)NCC(Cl)Cl)c2cc(Cl)c(Cl)cc21

>  <gnina_score>  (1502) 
5.633

>  <inspiration_score>  (1502) 
None

>  <energy_score>  (1502) 
-11.137261

>  <distance_score>  (1502) 
0.984565

>  <gnina_score_min>  (1502) 
5.459

>  <inchikey>  (1502) 
DEXLCCOQFBMMSK-UHFFFAOYSA-N

>  <exports>  (1502) 
['/opt/xchem-fragalysis-2/maxwin/BulkDock/OUTPUTS/openbind_a71ev2a_c2_elabs_1LOUU54.sdf', '/opt/xchem-fragalysis-2/maxwin/BulkDock/OUTPUTS/openbind_a71ev2a_c2_elabs_1LSYIDY.sdf']

>  <name>  (1502) 
P577504

>  <ref_pdb>  (1502) 
A3066a

>  <subsites>  (1502) 
None

>  <HIPPO Pose ID>  (1502) 
577504

>  <ref_mols>  (1502) 
A3066a

>  <HIPPO Compound ID>  (1502) 
351922

>  <tags>  (1502) 
openbind_a71ev2a_c2_elabs,syndirella_product,openbind_a71ev2a_c2_elabs_fragonly_scored_top80percent,openbind_a71ev2a_c2_elabs_scored,BulkDock Fragalysis export,openbind_a71ev2a_c2_elabs_scored_top80percent,openbind_a71ev2a_c2_elabs_activefrags_only_scored_5.2plus,syndirella_placed

>  <smina_score_min>  (1502) 
-6.088

$$$$
P577505
     RDKit          3D

 20 22  0  0  0  0  0  0  0  0999 V2000
    9.3604   14.1373   21.3743 C   0  0  0  0  0  0  0  0  0  0  0  0
   10.5993   14.4961   22.1365 C   0  0  2  0  0  0  0  0  0  0  0  0
   11.9322   14.3711   21.4265 C   0  0  0  0  0  0  0  0  0  0  0  0
   12.4163   14.2310   22.8351 C   0  0  0  0  0  0  0  0  0  0  0  0
   11.1770   13.4614   23.1609 N   0  0  0  0  0  0  0  0  0  0  0  0
   10.3556   13.4122   24.4173 C   0  0  0  0  0  0  0  0  0  0  0  0
   10.4523   14.0303   25.4156 O   0  0  0  0  0  0  0  0  0  0  0  0
    9.3484   12.3414   24.3729 C   0  0  0  0  0  0  0  0  0  0  0  0
    9.4174   11.1652   23.6756 C   0  0  0  0  0  0  0  0  0  0  0  0
   10.4041   10.6441   22.4381 Cl  0  0  0  0  0  0  0  0  0  0  0  0
    8.6033   10.2274   24.2199 N   0  0  0  0  0  0  0  0  0  0  0  0
    8.7067    8.8059   23.9587 C   0  0  0  0  0  0  0  0  0  0  0  0
    7.8023   10.8373   25.1558 C   0  0  0  0  0  0  0  0  0  0  0  0
    6.8026   10.3219   25.9902 C   0  0  0  0  0  0  0  0  0  0  0  0
    6.2437   11.1741   26.9487 C   0  0  0  0  0  0  0  0  0  0  0  0
    5.1682   10.4647   28.1061 Cl  0  0  0  0  0  0  0  0  0  0  0  0
    6.6022   12.5210   27.0078 C   0  0  0  0  0  0  0  0  0  0  0  0
    5.9203   13.6079   28.1671 Cl  0  0  0  0  0  0  0  0  0  0  0  0
    7.5797   13.0314   26.1508 C   0  0  0  0  0  0  0  0  0  0  0  0
    8.2173   12.1757   25.2320 C   0  0  0  0  0  0  0  0  0  0  0  0
  2  1  1  6
  2  3  1  0
  3  4  1  0
  4  5  1  0
  5  6  1  0
  6  7  2  0
  6  8  1  0
  8  9  2  0
  9 10  1  0
  9 11  1  0
 11 12  1  0
 11 13  1  0
 13 14  2  0
 14 15  1  0
 15 16  1  0
 15 17  2  0
 17 18  1  0
 17 19  1  0
 19 20  2  0
  5  2  1  0
 20  8  1  0
 20 13  1  0
M  END
>  <alias>  (1503) 
None

>  <rmsd(smina/fragmenstein)>  (1503) 
0.14

>  <smiles>  (1503) 
C[C@@H]1CCN1C(=O)c1c(Cl)n(C)c2cc(Cl)c(Cl)cc12

>  <gnina_score>  (1503) 
5.688

>  <inspiration_score>  (1503) 
None

>  <energy_score>  (1503) 
-0.252804

>  <distance_score>  (1503) 
1.049279

>  <gnina_score_min>  (1503) 
5.705

>  <inchikey>  (1503) 
DZXBSAYFUOOYEO-SSDOTTSWSA-N

>  <exports>  (1503) 
['/opt/xchem-fragalysis-2/maxwin/BulkDock/OUTPUTS/openbind_a71ev2a_c2_elabs_1LOUU54.sdf', '/opt/xchem-fragalysis-2/maxwin/BulkDock/OUTPUTS/openbind_a71ev2a_c2_elabs_1LSYIDY.sdf']

>  <name>  (1503) 
P577505

>  <ref_pdb>  (1503) 
A3066a

>  <subsites>  (1503) 
None

>  <HIPPO Pose ID>  (1503) 
577505

>  <ref_mols>  (1503) 
A3066a

>  <HIPPO Compound ID>  (1503) 
351925

>  <tags>  (1503) 
openbind_a71ev2a_c2_elabs,syndirella_product,openbind_a71ev2a_c2_elabs_fragonly_scored_top80percent,BulkDock Fragalysis export,openbind_a71ev2a_c2_elabs_scored,openbind_a71ev2a_c2_elabs_scored_top80percent,openbind_a71ev2a_c2_elabs_activefrags_only_scored_5.2plus,openbind_a71ev2a_c2_elabs_activefrags_only_scored_5.5plus,syndirella_placed

>  <smina_score_min>  (1503) 
-6.69

$$$$
P577506
     RDKit          3D

 20 22  0  0  0  0  0  0  0  0999 V2000
    8.7026    8.6690   24.0308 C   0  0  0  0  0  0  0  0  0  0  0  0
    8.5350   10.0685   24.3370 N   0  0  0  0  0  0  0  0  0  0  0  0
    9.2679   11.0430   23.7661 C   0  0  0  0  0  0  0  0  0  0  0  0
   10.3351   10.6126   22.5483 Cl  0  0  0  0  0  0  0  0  0  0  0  0
    9.0074   12.2490   24.3508 C   0  0  0  0  0  0  0  0  0  0  0  0
    9.7121   13.4537   24.0091 C   0  0  0  0  0  0  0  0  0  0  0  0
   10.3198   14.0580   24.7928 O   0  0  0  0  0  0  0  0  0  0  0  0
    9.5662   13.6509   22.5033 N   0  0  0  0  0  0  0  0  0  0  0  0
   10.2023   14.5646   21.6290 C   0  0  0  0  0  0  0  0  0  0  0  0
   11.6034   14.0670   21.5014 C   0  0  0  0  0  0  0  0  0  0  0  0
   12.3874   14.3895   20.2730 C   0  0  0  0  0  0  0  0  0  0  0  0
   12.7293   15.0358   21.5903 C   0  0  0  0  0  0  0  0  0  0  0  0
    8.0130   12.0138   25.3175 C   0  0  0  0  0  0  0  0  0  0  0  0
    7.3476   12.8512   26.2288 C   0  0  0  0  0  0  0  0  0  0  0  0
    6.4197   12.2964   27.1103 C   0  0  0  0  0  0  0  0  0  0  0  0
    5.6844   13.3563   28.2608 Cl  0  0  0  0  0  0  0  0  0  0  0  0
    6.1269   10.9332   27.0602 C   0  0  0  0  0  0  0  0  0  0  0  0
    5.0611   10.1823   28.1998 Cl  0  0  0  0  0  0  0  0  0  0  0  0
    6.7260   10.1009   26.1073 C   0  0  0  0  0  0  0  0  0  0  0  0
    7.7022   10.6463   25.2710 C   0  0  0  0  0  0  0  0  0  0  0  0
  1  2  1  0
  2  3  1  0
  3  4  1  0
  3  5  2  0
  5  6  1  0
  6  7  2  0
  6  8  1  0
  8  9  1  0
  9 10  1  0
 10 11  1  0
 11 12  1  0
  5 13  1  0
 13 14  2  0
 14 15  1  0
 15 16  1  0
 15 17  2  0
 17 18  1  0
 17 19  1  0
 19 20  2  0
 20  2  1  0
 12 10  1  0
 20 13  1  0
M  END
>  <alias>  (1504) 
None

>  <rmsd(smina/fragmenstein)>  (1504) 
0.266

>  <smiles>  (1504) 
Cn1c(Cl)c(C(=O)NCC2CC2)c2cc(Cl)c(Cl)cc21

>  <gnina_score>  (1504) 
5.606

>  <inspiration_score>  (1504) 
None

>  <energy_score>  (1504) 
-8.347743

>  <distance_score>  (1504) 
1.360463

>  <gnina_score_min>  (1504) 
5.641

>  <inchikey>  (1504) 
CTBZRZASPZAFDP-UHFFFAOYSA-N

>  <exports>  (1504) 
['/opt/xchem-fragalysis-2/maxwin/BulkDock/OUTPUTS/openbind_a71ev2a_c2_elabs_1LOUU54.sdf', '/opt/xchem-fragalysis-2/maxwin/BulkDock/OUTPUTS/openbind_a71ev2a_c2_elabs_1LSYIDY.sdf']

>  <name>  (1504) 
P577506

>  <ref_pdb>  (1504) 
A3066a

>  <subsites>  (1504) 
None

>  <HIPPO Pose ID>  (1504) 
577506

>  <ref_mols>  (1504) 
A3066a

>  <HIPPO Compound ID>  (1504) 
351927

>  <tags>  (1504) 
openbind_a71ev2a_c2_elabs,syndirella_product,openbind_a71ev2a_c2_elabs_fragonly_scored_top80percent,BulkDock Fragalysis export,openbind_a71ev2a_c2_elabs_scored,openbind_a71ev2a_c2_elabs_scored_top80percent,openbind_a71ev2a_c2_elabs_activefrags_only_scored_5.2plus,openbind_a71ev2a_c2_elabs_activefrags_only_scored_5.5plus,syndirella_placed

>  <smina_score_min>  (1504) 
-5.721

$$$$
P577509
     RDKit          3D

 20 21  0  0  0  0  0  0  0  0999 V2000
    4.8062   12.6503   28.6946 C   0  0  0  0  0  0  0  0  0  0  0  0
    5.7985   13.1459   27.8049 O   0  0  0  0  0  0  0  0  0  0  0  0
    6.3641   12.2496   26.9395 C   0  0  0  0  0  0  0  0  0  0  0  0
    6.0915   10.8883   26.8854 C   0  0  0  0  0  0  0  0  0  0  0  0
    6.7274   10.0577   25.9585 C   0  0  0  0  0  0  0  0  0  0  0  0
    7.6936   10.6118   25.1190 C   0  0  0  0  0  0  0  0  0  0  0  0
    7.9715   11.9767   25.1394 C   0  0  0  0  0  0  0  0  0  0  0  0
    7.2930   12.8016   26.0570 C   0  0  0  0  0  0  0  0  0  0  0  0
    8.9736   12.2245   24.1671 C   0  0  0  0  0  0  0  0  0  0  0  0
    9.6419   13.4922   23.9430 C   0  0  0  0  0  0  0  0  0  0  0  0
    9.9420   14.1509   24.8541 O   0  0  0  0  0  0  0  0  0  0  0  0
    9.9215   13.6776   22.4481 N   0  0  0  0  0  0  0  0  0  0  0  0
   10.7121   14.6635   21.7599 C   0  0  2  0  0  0  0  0  0  0  0  0
   10.1527   14.9349   20.3757 C   0  0  0  0  0  0  0  0  0  0  0  0
   12.2035   14.2784   21.7348 C   0  0  0  0  0  0  0  0  0  0  0  0
   12.7870   13.6055   23.3352 S   0  0  0  0  0  0  0  0  0  0  0  0
    9.3081   11.0041   23.6118 C   0  0  0  0  0  0  0  0  0  0  0  0
   10.3716   10.5798   22.6965 C   0  0  0  0  0  0  0  0  0  0  0  0
    8.5404   10.0432   24.2027 N   0  0  0  0  0  0  0  0  0  0  0  0
    8.7274    8.6340   23.9494 C   0  0  0  0  0  0  0  0  0  0  0  0
  1  2  1  0
  2  3  1  0
  3  4  2  0
  4  5  1  0
  5  6  2  0
  6  7  1  0
  7  8  2  0
  7  9  1  0
  9 10  1  0
 10 11  2  0
 10 12  1  0
 12 13  1  0
 13 14  1  6
 13 15  1  0
 15 16  1  0
  9 17  2  0
 17 18  1  0
 17 19  1  0
 19 20  1  0
  8  3  1  0
 19  6  1  0
M  END
>  <alias>  (1505) 
None

>  <rmsd(smina/fragmenstein)>  (1505) 
0.701

>  <smiles>  (1505) 
COc1ccc2c(c1)c(C(=O)N[C@H](C)CS)c(C)n2C

>  <gnina_score>  (1505) 
5.562

>  <inspiration_score>  (1505) 
None

>  <energy_score>  (1505) 
-13.843354

>  <distance_score>  (1505) 
1.232849

>  <gnina_score_min>  (1505) 
5.542

>  <inchikey>  (1505) 
HPRIMAWHCBVPST-SECBINFHSA-N

>  <exports>  (1505) 
['/opt/xchem-fragalysis-2/maxwin/BulkDock/OUTPUTS/openbind_a71ev2a_c2_elabs_1LOUU54.sdf', '/opt/xchem-fragalysis-2/maxwin/BulkDock/OUTPUTS/openbind_a71ev2a_c2_elabs_1LSYIDY.sdf']

>  <name>  (1505) 
P577509

>  <ref_pdb>  (1505) 
A3066a

>  <subsites>  (1505) 
None

>  <HIPPO Pose ID>  (1505) 
577509

>  <ref_mols>  (1505) 
A3066a

>  <HIPPO Compound ID>  (1505) 
351934

>  <tags>  (1505) 
openbind_a71ev2a_c2_elabs,syndirella_product,openbind_a71ev2a_c2_elabs_fragonly_scored_top80percent,BulkDock Fragalysis export,openbind_a71ev2a_c2_elabs_scored,openbind_a71ev2a_c2_elabs_scored_top80percent,openbind_a71ev2a_c2_elabs_activefrags_only_scored_5.2plus,openbind_a71ev2a_c2_elabs_activefrags_only_scored_5.5plus,syndirella_placed

>  <smina_score_min>  (1505) 
-4.89

$$$$
P577516
     RDKit          3D

 20 22  0  0  0  0  0  0  0  0999 V2000
    4.8761   12.9399   28.5837 C   0  0  0  0  0  0  0  0  0  0  0  0
    5.9896   13.3513   27.8010 O   0  0  0  0  0  0  0  0  0  0  0  0
    6.5214   12.4290   26.9409 C   0  0  0  0  0  0  0  0  0  0  0  0
    6.1520   11.0914   26.8532 C   0  0  0  0  0  0  0  0  0  0  0  0
    6.7623   10.2284   25.9388 C   0  0  0  0  0  0  0  0  0  0  0  0
    7.7908   10.7337   25.1392 C   0  0  0  0  0  0  0  0  0  0  0  0
    8.1921   12.0686   25.2133 C   0  0  0  0  0  0  0  0  0  0  0  0
    7.5356   12.9240   26.1183 C   0  0  0  0  0  0  0  0  0  0  0  0
    9.2821   12.2496   24.3150 C   0  0  0  0  0  0  0  0  0  0  0  0
   10.1166   13.4450   24.1916 C   0  0  0  0  0  0  0  0  0  0  0  0
   10.4618   14.0184   25.1443 O   0  0  0  0  0  0  0  0  0  0  0  0
   10.3972   13.7198   22.7104 N   0  0  0  0  0  0  0  0  0  0  0  0
   11.0932   14.8273   22.0677 C   0  0  0  0  0  0  0  0  0  0  0  0
   10.1756   15.6080   21.0870 C   0  0  0  0  0  0  0  0  0  0  0  0
   10.8905   14.7376   19.6781 S   0  0  0  0  0  0  0  0  0  0  0  0
   12.1026   14.4050   20.9810 C   0  0  0  0  0  0  0  0  0  0  0  0
    9.4507   11.0418   23.6635 C   0  0  0  0  0  0  0  0  0  0  0  0
   10.4216   10.5742   22.6760 C   0  0  0  0  0  0  0  0  0  0  0  0
    8.6078   10.1249   24.2238 N   0  0  0  0  0  0  0  0  0  0  0  0
    8.6920    8.7079   23.9510 C   0  0  0  0  0  0  0  0  0  0  0  0
  1  2  1  0
  2  3  1  0
  3  4  2  0
  4  5  1  0
  5  6  2  0
  6  7  1  0
  7  8  2  0
  7  9  1  0
  9 10  1  0
 10 11  2  0
 10 12  1  0
 12 13  1  0
 13 14  1  0
 14 15  1  0
 15 16  1  0
  9 17  2  0
 17 18  1  0
 17 19  1  0
 19 20  1  0
  8  3  1  0
 16 13  1  0
 19  6  1  0
M  END
>  <alias>  (1506) 
None

>  <rmsd(smina/fragmenstein)>  (1506) 
0.526

>  <smiles>  (1506) 
COc1ccc2c(c1)c(C(=O)NC1CSC1)c(C)n2C

>  <gnina_score>  (1506) 
5.394

>  <inspiration_score>  (1506) 
None

>  <energy_score>  (1506) 
-11.331459

>  <distance_score>  (1506) 
1.074768

>  <gnina_score_min>  (1506) 
5.495

>  <inchikey>  (1506) 
AQRYUFJSZUZQHH-UHFFFAOYSA-N

>  <exports>  (1506) 
['/opt/xchem-fragalysis-2/maxwin/BulkDock/OUTPUTS/openbind_a71ev2a_c2_elabs_1LOUU54.sdf', '/opt/xchem-fragalysis-2/maxwin/BulkDock/OUTPUTS/openbind_a71ev2a_c2_elabs_1LSYIDY.sdf']

>  <name>  (1506) 
P577516

>  <ref_pdb>  (1506) 
A3066a

>  <subsites>  (1506) 
None

>  <HIPPO Pose ID>  (1506) 
577516

>  <ref_mols>  (1506) 
A3066a

>  <HIPPO Compound ID>  (1506) 
351941

>  <tags>  (1506) 
openbind_a71ev2a_c2_elabs,syndirella_product,openbind_a71ev2a_c2_elabs_fragonly_scored_top80percent,openbind_a71ev2a_c2_elabs_scored,BulkDock Fragalysis export,openbind_a71ev2a_c2_elabs_scored_top80percent,openbind_a71ev2a_c2_elabs_activefrags_only_scored_5.2plus,syndirella_placed

>  <smina_score_min>  (1506) 
-4.964

$$$$
P577517
     RDKit          3D

 20 21  0  0  0  0  0  0  0  0999 V2000
   11.4349   14.6696   19.3421 C   0  0  0  0  0  0  0  0  0  0  0  0
   11.0883   14.6147   20.8215 C   0  0  0  0  0  0  0  0  0  0  0  0
    9.5762   14.6619   21.0436 C   0  0  2  0  0  0  0  0  0  0  0  0
    8.9831   16.0555   21.0312 C   0  0  0  0  0  0  0  0  0  0  0  0
    9.1801   13.7877   22.1196 N   0  0  0  0  0  0  0  0  0  0  0  0
    9.7640   13.6112   23.5277 C   0  0  0  0  0  0  0  0  0  0  0  0
   10.6096   14.1969   24.0735 O   0  0  0  0  0  0  0  0  0  0  0  0
    9.1104   12.4364   24.0927 C   0  0  0  0  0  0  0  0  0  0  0  0
    9.3904   11.1617   23.6360 C   0  0  0  0  0  0  0  0  0  0  0  0
   10.3907   10.6905   22.6784 C   0  0  0  0  0  0  0  0  0  0  0  0
    8.6031   10.2636   24.2884 N   0  0  0  0  0  0  0  0  0  0  0  0
    8.6715    8.8366   24.0585 C   0  0  0  0  0  0  0  0  0  0  0  0
    7.8032   10.9273   25.1829 C   0  0  0  0  0  0  0  0  0  0  0  0
    6.8233   10.4525   26.0590 C   0  0  0  0  0  0  0  0  0  0  0  0
    6.1969   11.3723   26.9030 C   0  0  0  0  0  0  0  0  0  0  0  0
    6.5077   12.7284   26.8520 C   0  0  0  0  0  0  0  0  0  0  0  0
    5.9544   13.7040   27.6384 O   0  0  0  0  0  0  0  0  0  0  0  0
    4.8574   13.3244   28.4595 C   0  0  0  0  0  0  0  0  0  0  0  0
    7.4658   13.1951   25.9466 C   0  0  0  0  0  0  0  0  0  0  0  0
    8.1298   12.2902   25.1020 C   0  0  0  0  0  0  0  0  0  0  0  0
  1  2  1  0
  2  3  1  0
  3  4  1  1
  3  5  1  0
  5  6  1  0
  6  7  2  0
  6  8  1  0
  8  9  2  0
  9 10  1  0
  9 11  1  0
 11 12  1  0
 11 13  1  0
 13 14  2  0
 14 15  1  0
 15 16  2  0
 16 17  1  0
 17 18  1  0
 16 19  1  0
 19 20  2  0
 20  8  1  0
 20 13  1  0
M  END
>  <alias>  (1507) 
None

>  <rmsd(smina/fragmenstein)>  (1507) 
0.338

>  <smiles>  (1507) 
CC[C@H](C)NC(=O)c1c(C)n(C)c2ccc(OC)cc12

>  <gnina_score>  (1507) 
5.241

>  <inspiration_score>  (1507) 
None

>  <energy_score>  (1507) 
-2.415936

>  <distance_score>  (1507) 
1.449926

>  <gnina_score_min>  (1507) 
5.357

>  <inchikey>  (1507) 
WZYVFGZTSYLRND-JTQLQIEISA-N

>  <exports>  (1507) 
['/opt/xchem-fragalysis-2/maxwin/BulkDock/OUTPUTS/openbind_a71ev2a_c2_elabs_1LOUU54.sdf', '/opt/xchem-fragalysis-2/maxwin/BulkDock/OUTPUTS/openbind_a71ev2a_c2_elabs_1LSYIDY.sdf']

>  <name>  (1507) 
P577517

>  <ref_pdb>  (1507) 
A3066a

>  <subsites>  (1507) 
None

>  <HIPPO Pose ID>  (1507) 
577517

>  <ref_mols>  (1507) 
A3066a

>  <HIPPO Compound ID>  (1507) 
351943

>  <tags>  (1507) 
openbind_a71ev2a_c2_elabs,syndirella_product,openbind_a71ev2a_c2_elabs_fragonly_scored_top80percent,openbind_a71ev2a_c2_elabs_scored,BulkDock Fragalysis export,openbind_a71ev2a_c2_elabs_scored_top80percent,openbind_a71ev2a_c2_elabs_activefrags_only_scored_5.2plus,syndirella_placed

>  <smina_score_min>  (1507) 
-5.286

$$$$
P577518
     RDKit          3D

 20 22  0  0  0  0  0  0  0  0999 V2000
    4.7880   13.0846   28.4620 C   0  0  0  0  0  0  0  0  0  0  0  0
    5.8897   13.4496   27.6406 O   0  0  0  0  0  0  0  0  0  0  0  0
    6.4348   12.4676   26.8586 C   0  0  0  0  0  0  0  0  0  0  0  0
    6.1224   11.1136   26.9192 C   0  0  0  0  0  0  0  0  0  0  0  0
    6.7425   10.1861   26.0767 C   0  0  0  0  0  0  0  0  0  0  0  0
    7.7336   10.6428   25.2066 C   0  0  0  0  0  0  0  0  0  0  0  0
    8.0556   11.9975   25.1181 C   0  0  0  0  0  0  0  0  0  0  0  0
    7.3910   12.9182   25.9471 C   0  0  0  0  0  0  0  0  0  0  0  0
    9.0692   12.1228   24.1419 C   0  0  0  0  0  0  0  0  0  0  0  0
    9.7048   13.3282   23.6677 C   0  0  0  0  0  0  0  0  0  0  0  0
    9.0831   14.2528   23.3256 O   0  0  0  0  0  0  0  0  0  0  0  0
   11.2270   13.0743   23.6252 N   0  0  0  0  0  0  0  0  0  0  0  0
   12.2370   13.8248   23.0944 N   0  0  0  0  0  0  0  0  0  0  0  0
   12.2579   13.4491   21.6444 C   0  0  0  0  0  0  0  0  0  0  0  0
   12.7071   14.8558   21.3440 C   0  0  0  0  0  0  0  0  0  0  0  0
   11.8618   15.1753   22.5841 C   0  0  0  0  0  0  0  0  0  0  0  0
    9.3270   10.8589   23.6445 C   0  0  0  0  0  0  0  0  0  0  0  0
   10.2347   10.3359   22.6103 C   0  0  0  0  0  0  0  0  0  0  0  0
    8.5481    9.9826   24.3259 N   0  0  0  0  0  0  0  0  0  0  0  0
    8.6379    8.5677   24.0931 C   0  0  0  0  0  0  0  0  0  0  0  0
  1  2  1  0
  2  3  1  0
  3  4  2  0
  4  5  1  0
  5  6  2  0
  6  7  1  0
  7  8  2  0
  7  9  1  0
  9 10  1  0
 10 11  2  0
 10 12  1  0
 12 13  1  0
 13 14  1  0
 14 15  1  0
 15 16  1  0
  9 17  2  0
 17 18  1  0
 17 19  1  0
 19 20  1  0
  8  3  1  0
 16 13  1  0
 19  6  1  0
M  END
>  <alias>  (1508) 
None

>  <rmsd(smina/fragmenstein)>  (1508) 
0.439

>  <smiles>  (1508) 
COc1ccc2c(c1)c(C(=O)NN1CCC1)c(C)n2C

>  <gnina_score>  (1508) 
5.286

>  <inspiration_score>  (1508) 
None

>  <energy_score>  (1508) 
-2.99876

>  <distance_score>  (1508) 
1.270449

>  <gnina_score_min>  (1508) 
5.383

>  <inchikey>  (1508) 
DBKFHJGSOYEEEJ-UHFFFAOYSA-N

>  <exports>  (1508) 
['/opt/xchem-fragalysis-2/maxwin/BulkDock/OUTPUTS/openbind_a71ev2a_c2_elabs_1LOUU54.sdf', '/opt/xchem-fragalysis-2/maxwin/BulkDock/OUTPUTS/openbind_a71ev2a_c2_elabs_1LSYIDY.sdf']

>  <name>  (1508) 
P577518

>  <ref_pdb>  (1508) 
A3066a

>  <subsites>  (1508) 
None

>  <HIPPO Pose ID>  (1508) 
577518

>  <ref_mols>  (1508) 
A3066a

>  <HIPPO Compound ID>  (1508) 
351945

>  <tags>  (1508) 
openbind_a71ev2a_c2_elabs,syndirella_product,openbind_a71ev2a_c2_elabs_fragonly_scored_top80percent,openbind_a71ev2a_c2_elabs_scored,BulkDock Fragalysis export,openbind_a71ev2a_c2_elabs_scored_top80percent,openbind_a71ev2a_c2_elabs_activefrags_only_scored_5.2plus,syndirella_placed

>  <smina_score_min>  (1508) 
-4.616

$$$$
P577520
     RDKit          3D

 20 21  0  0  0  0  0  0  0  0999 V2000
    4.8270   12.7907   28.6071 C   0  0  0  0  0  0  0  0  0  0  0  0
    5.8837   13.2486   27.7728 O   0  0  0  0  0  0  0  0  0  0  0  0
    6.4379   12.3356   26.9167 C   0  0  0  0  0  0  0  0  0  0  0  0
    6.1388   10.9789   26.8709 C   0  0  0  0  0  0  0  0  0  0  0  0
    6.7678   10.1278   25.9582 C   0  0  0  0  0  0  0  0  0  0  0  0
    7.7478   10.6610   25.1197 C   0  0  0  0  0  0  0  0  0  0  0  0
    8.0554   12.0211   25.1320 C   0  0  0  0  0  0  0  0  0  0  0  0
    7.3868   12.8644   26.0397 C   0  0  0  0  0  0  0  0  0  0  0  0
    9.0564   12.2445   24.1506 C   0  0  0  0  0  0  0  0  0  0  0  0
    9.7230   13.5029   23.8699 C   0  0  0  0  0  0  0  0  0  0  0  0
   10.0604   14.1890   24.7466 O   0  0  0  0  0  0  0  0  0  0  0  0
    9.8667   13.6836   22.3539 N   0  0  0  0  0  0  0  0  0  0  0  0
   10.5407   14.7020   21.5934 C   0  0  0  0  0  0  0  0  0  0  0  0
   12.0659   14.6308   21.6405 C   0  0  1  0  0  0  0  0  0  0  0  0
   12.6477   14.1236   22.9352 C   0  0  0  0  0  0  0  0  0  0  0  0
   12.5118   13.8413   20.6268 F   0  0  0  0  0  0  0  0  0  0  0  0
    9.3552   11.0161   23.5989 C   0  0  0  0  0  0  0  0  0  0  0  0
   10.3866   10.5846   22.6573 C   0  0  0  0  0  0  0  0  0  0  0  0
    8.5790   10.0711   24.2034 N   0  0  0  0  0  0  0  0  0  0  0  0
    8.7280    8.6571   23.9523 C   0  0  0  0  0  0  0  0  0  0  0  0
  1  2  1  0
  2  3  1  0
  3  4  2  0
  4  5  1  0
  5  6  2  0
  6  7  1  0
  7  8  2  0
  7  9  1  0
  9 10  1  0
 10 11  2  0
 10 12  1  0
 12 13  1  0
 13 14  1  0
 14 15  1  1
 14 16  1  0
  9 17  2  0
 17 18  1  0
 17 19  1  0
 19 20  1  0
  8  3  1  0
 19  6  1  0
M  END
>  <alias>  (1509) 
None

>  <rmsd(smina/fragmenstein)>  (1509) 
0.367

>  <smiles>  (1509) 
COc1ccc2c(c1)c(C(=O)NC[C@@H](C)F)c(C)n2C

>  <gnina_score>  (1509) 
5.262

>  <inspiration_score>  (1509) 
None

>  <energy_score>  (1509) 
-1.893651

>  <distance_score>  (1509) 
1.215932

>  <gnina_score_min>  (1509) 
5.368

>  <inchikey>  (1509) 
NCPDBMVFZDHABA-SECBINFHSA-N

>  <exports>  (1509) 
['/opt/xchem-fragalysis-2/maxwin/BulkDock/OUTPUTS/openbind_a71ev2a_c2_elabs_1LOUU54.sdf', '/opt/xchem-fragalysis-2/maxwin/BulkDock/OUTPUTS/openbind_a71ev2a_c2_elabs_1LSYIDY.sdf']

>  <name>  (1509) 
P577520

>  <ref_pdb>  (1509) 
A3066a

>  <subsites>  (1509) 
None

>  <HIPPO Pose ID>  (1509) 
577520

>  <ref_mols>  (1509) 
A3066a

>  <HIPPO Compound ID>  (1509) 
351947

>  <tags>  (1509) 
openbind_a71ev2a_c2_elabs,syndirella_product,openbind_a71ev2a_c2_elabs_fragonly_scored_top80percent,openbind_a71ev2a_c2_elabs_scored,BulkDock Fragalysis export,openbind_a71ev2a_c2_elabs_scored_top80percent,openbind_a71ev2a_c2_elabs_activefrags_only_scored_5.2plus,syndirella_placed

>  <smina_score_min>  (1509) 
-5.523

$$$$
P577522
     RDKit          3D

 20 21  0  0  0  0  0  0  0  0999 V2000
    5.0939   13.6725   28.1413 C   0  0  0  0  0  0  0  0  0  0  0  0
    6.3558   13.8416   27.5094 O   0  0  0  0  0  0  0  0  0  0  0  0
    6.8055   12.7996   26.7434 C   0  0  0  0  0  0  0  0  0  0  0  0
    6.2969   11.5047   26.7593 C   0  0  0  0  0  0  0  0  0  0  0  0
    6.8370   10.5067   25.9449 C   0  0  0  0  0  0  0  0  0  0  0  0
    7.9243   10.8425   25.1307 C   0  0  0  0  0  0  0  0  0  0  0  0
    8.4796   12.1221   25.1115 C   0  0  0  0  0  0  0  0  0  0  0  0
    7.8933   13.1134   25.9230 C   0  0  0  0  0  0  0  0  0  0  0  0
    9.6024   12.1117   24.2168 C   0  0  0  0  0  0  0  0  0  0  0  0
   10.5337   13.2386   23.9958 C   0  0  0  0  0  0  0  0  0  0  0  0
   10.8705   13.9099   24.8853 O   0  0  0  0  0  0  0  0  0  0  0  0
   10.8183   13.3604   22.4975 N   0  0  0  0  0  0  0  0  0  0  0  0
   11.4967   14.3823   21.7588 C   0  0  0  0  0  0  0  0  0  0  0  0
   10.6257   14.7721   20.5647 C   0  0  0  0  0  0  0  0  0  0  0  0
    9.4103   15.6323   20.8989 C   0  0  0  0  0  0  0  0  0  0  0  0
    7.8368   14.5258   21.9344 I   0  0  0  0  0  0  0  0  0  0  0  0
    9.5841   10.8604   23.6160 C   0  0  0  0  0  0  0  0  0  0  0  0
   10.3780   10.1958   22.5793 C   0  0  0  0  0  0  0  0  0  0  0  0
    8.6674   10.0901   24.2680 N   0  0  0  0  0  0  0  0  0  0  0  0
    8.5772    8.6658   24.0714 C   0  0  0  0  0  0  0  0  0  0  0  0
  1  2  1  0
  2  3  1  0
  3  4  2  0
  4  5  1  0
  5  6  2  0
  6  7  1  0
  7  8  2  0
  7  9  1  0
  9 10  1  0
 10 11  2  0
 10 12  1  0
 12 13  1  0
 13 14  1  0
 14 15  1  0
 15 16  1  0
  9 17  2  0
 17 18  1  0
 17 19  1  0
 19 20  1  0
  8  3  1  0
 19  6  1  0
M  END
>  <alias>  (1510) 
None

>  <rmsd(smina/fragmenstein)>  (1510) 
1.31

>  <smiles>  (1510) 
COc1ccc2c(c1)c(C(=O)NCCCI)c(C)n2C

>  <gnina_score>  (1510) 
5.505

>  <inspiration_score>  (1510) 
None

>  <energy_score>  (1510) 
-9.978929

>  <distance_score>  (1510) 
0.912474

>  <gnina_score_min>  (1510) 
5.56

>  <inchikey>  (1510) 
NDBCUXARFLXESR-UHFFFAOYSA-N

>  <exports>  (1510) 
['/opt/xchem-fragalysis-2/maxwin/BulkDock/OUTPUTS/openbind_a71ev2a_c2_elabs_1LOUU54.sdf', '/opt/xchem-fragalysis-2/maxwin/BulkDock/OUTPUTS/openbind_a71ev2a_c2_elabs_1LSYIDY.sdf']

>  <name>  (1510) 
P577522

>  <ref_pdb>  (1510) 
A3066a

>  <subsites>  (1510) 
None

>  <HIPPO Pose ID>  (1510) 
577522

>  <ref_mols>  (1510) 
A3066a

>  <HIPPO Compound ID>  (1510) 
351955

>  <tags>  (1510) 
openbind_a71ev2a_c2_elabs,syndirella_product,openbind_a71ev2a_c2_elabs_fragonly_scored_top80percent,BulkDock Fragalysis export,openbind_a71ev2a_c2_elabs_scored,openbind_a71ev2a_c2_elabs_scored_top80percent,openbind_a71ev2a_c2_elabs_activefrags_only_scored_5.2plus,openbind_a71ev2a_c2_elabs_activefrags_only_scored_5.5plus,syndirella_placed

>  <smina_score_min>  (1510) 
-5.888

$$$$
P577525
     RDKit          3D

 20 21  0  0  0  0  0  0  0  0999 V2000
   12.5541   13.9970   20.2274 C   0  0  0  0  0  0  0  0  0  0  0  0
   11.1979   14.5443   20.5886 C   0  0  0  0  0  0  0  0  0  0  0  0
   11.2503   15.3004   21.8935 C   0  0  0  0  0  0  0  0  0  0  0  0
   11.7678   14.5394   23.1003 C   0  0  0  0  0  0  0  0  0  0  0  0
   10.8752   13.5204   23.5339 N   0  0  0  0  0  0  0  0  0  0  0  0
    9.3505   13.5145   23.6392 C   0  0  0  0  0  0  0  0  0  0  0  0
    8.5805   14.3649   23.4622 O   0  0  0  0  0  0  0  0  0  0  0  0
    8.9037   12.2102   24.0743 C   0  0  0  0  0  0  0  0  0  0  0  0
    9.3070   10.9848   23.5896 C   0  0  0  0  0  0  0  0  0  0  0  0
   10.3008   10.5827   22.5946 C   0  0  0  0  0  0  0  0  0  0  0  0
    8.5905   10.0192   24.2325 N   0  0  0  0  0  0  0  0  0  0  0  0
    8.7749    8.6138   23.9670 C   0  0  0  0  0  0  0  0  0  0  0  0
    7.7347   10.5897   25.1382 C   0  0  0  0  0  0  0  0  0  0  0  0
    6.7819   10.0397   25.9940 C   0  0  0  0  0  0  0  0  0  0  0  0
    6.1155   10.8835   26.8870 C   0  0  0  0  0  0  0  0  0  0  0  0
    6.3382   12.2550   26.8850 C   0  0  0  0  0  0  0  0  0  0  0  0
    5.7431   13.1639   27.7174 O   0  0  0  0  0  0  0  0  0  0  0  0
    4.7309   12.6743   28.5880 C   0  0  0  0  0  0  0  0  0  0  0  0
    7.2369   12.8039   25.9701 C   0  0  0  0  0  0  0  0  0  0  0  0
    7.9460   11.9650   25.0889 C   0  0  0  0  0  0  0  0  0  0  0  0
  1  2  1  0
  2  3  1  0
  3  4  1  0
  4  5  1  0
  5  6  1  0
  6  7  2  0
  6  8  1  0
  8  9  2  0
  9 10  1  0
  9 11  1  0
 11 12  1  0
 11 13  1  0
 13 14  2  0
 14 15  1  0
 15 16  2  0
 16 17  1  0
 17 18  1  0
 16 19  1  0
 19 20  2  0
 20  8  1  0
 20 13  1  0
M  END
>  <alias>  (1511) 
None

>  <rmsd(smina/fragmenstein)>  (1511) 
1.159

>  <smiles>  (1511) 
CCCCNC(=O)c1c(C)n(C)c2ccc(OC)cc12

>  <gnina_score>  (1511) 
5.157

>  <inspiration_score>  (1511) 
None

>  <energy_score>  (1511) 
-9.140849

>  <distance_score>  (1511) 
1.338331

>  <gnina_score_min>  (1511) 
5.406

>  <inchikey>  (1511) 
PWDLMGPUMOSQJX-UHFFFAOYSA-N

>  <exports>  (1511) 
['/opt/xchem-fragalysis-2/maxwin/BulkDock/OUTPUTS/openbind_a71ev2a_c2_elabs_1LOUU54.sdf', '/opt/xchem-fragalysis-2/maxwin/BulkDock/OUTPUTS/openbind_a71ev2a_c2_elabs_1LSYIDY.sdf']

>  <name>  (1511) 
P577525

>  <ref_pdb>  (1511) 
A3066a

>  <subsites>  (1511) 
None

>  <HIPPO Pose ID>  (1511) 
577525

>  <ref_mols>  (1511) 
A3066a

>  <HIPPO Compound ID>  (1511) 
351959

>  <tags>  (1511) 
openbind_a71ev2a_c2_elabs,syndirella_product,openbind_a71ev2a_c2_elabs_fragonly_scored_top80percent,openbind_a71ev2a_c2_elabs_scored,BulkDock Fragalysis export,openbind_a71ev2a_c2_elabs_scored_top80percent,openbind_a71ev2a_c2_elabs_activefrags_only_scored_5.2plus,syndirella_placed

>  <smina_score_min>  (1511) 
-5.54

$$$$
P577526
     RDKit          3D

 20 21  0  0  0  0  0  0  0  0999 V2000
    4.9559   13.2839   28.3034 C   0  0  0  0  0  0  0  0  0  0  0  0
    6.0728   13.5857   27.4769 O   0  0  0  0  0  0  0  0  0  0  0  0
    6.5634   12.5698   26.7018 C   0  0  0  0  0  0  0  0  0  0  0  0
    6.2077   11.2286   26.8009 C   0  0  0  0  0  0  0  0  0  0  0  0
    6.7833   10.2620   25.9711 C   0  0  0  0  0  0  0  0  0  0  0  0
    7.7607   10.6724   25.0611 C   0  0  0  0  0  0  0  0  0  0  0  0
    8.1257   12.0126   24.9282 C   0  0  0  0  0  0  0  0  0  0  0  0
    7.5182   12.9686   25.7632 C   0  0  0  0  0  0  0  0  0  0  0  0
    9.1631   12.0751   23.9588 C   0  0  0  0  0  0  0  0  0  0  0  0
    9.9898   13.2261   23.6493 C   0  0  0  0  0  0  0  0  0  0  0  0
    9.5493   14.2863   23.4918 O   0  0  0  0  0  0  0  0  0  0  0  0
   11.4358   12.7540   23.6902 N   0  0  0  0  0  0  0  0  0  0  0  0
   12.6398   13.4845   23.6412 C   0  0  0  0  0  0  0  0  0  0  0  0
   13.5446   12.8456   24.6007 C   0  0  0  0  0  0  0  0  0  0  0  0
   14.3350   12.3033   25.3274 C   0  0  0  0  0  0  0  0  0  0  0  0
   15.7351   11.5264   26.3789 Br  0  0  0  0  0  0  0  0  0  0  0  0
    9.3454   10.7942   23.4770 C   0  0  0  0  0  0  0  0  0  0  0  0
   10.2594   10.2071   22.4871 C   0  0  0  0  0  0  0  0  0  0  0  0
    8.5461    9.9650   24.1923 N   0  0  0  0  0  0  0  0  0  0  0  0
    8.6351    8.5394   24.0470 C   0  0  0  0  0  0  0  0  0  0  0  0
  1  2  1  0
  2  3  1  0
  3  4  2  0
  4  5  1  0
  5  6  2  0
  6  7  1  0
  7  8  2  0
  7  9  1  0
  9 10  1  0
 10 11  2  0
 10 12  1  0
 12 13  1  0
 13 14  1  0
 14 15  3  0
 15 16  1  0
  9 17  2  0
 17 18  1  0
 17 19  1  0
 19 20  1  0
  8  3  1  0
 19  6  1  0
M  END
>  <alias>  (1512) 
None

>  <rmsd(smina/fragmenstein)>  (1512) 
0.601

>  <smiles>  (1512) 
COc1ccc2c(c1)c(C(=O)NCC#CBr)c(C)n2C

>  <gnina_score>  (1512) 
5.147

>  <inspiration_score>  (1512) 
None

>  <energy_score>  (1512) 
-3.425579

>  <distance_score>  (1512) 
1.199094

>  <gnina_score_min>  (1512) 
5.29

>  <inchikey>  (1512) 
NLHOPOCIENYVMR-UHFFFAOYSA-N

>  <exports>  (1512) 
['/opt/xchem-fragalysis-2/maxwin/BulkDock/OUTPUTS/openbind_a71ev2a_c2_elabs_1LOUU54.sdf', '/opt/xchem-fragalysis-2/maxwin/BulkDock/OUTPUTS/openbind_a71ev2a_c2_elabs_1LSYIDY.sdf']

>  <name>  (1512) 
P577526

>  <ref_pdb>  (1512) 
A3066a

>  <subsites>  (1512) 
None

>  <HIPPO Pose ID>  (1512) 
577526

>  <ref_mols>  (1512) 
A3066a

>  <HIPPO Compound ID>  (1512) 
351960

>  <tags>  (1512) 
openbind_a71ev2a_c2_elabs,syndirella_product,openbind_a71ev2a_c2_elabs_fragonly_scored_top80percent,openbind_a71ev2a_c2_elabs_scored,BulkDock Fragalysis export,openbind_a71ev2a_c2_elabs_scored_top80percent,openbind_a71ev2a_c2_elabs_activefrags_only_scored_5.2plus,syndirella_placed

>  <smina_score_min>  (1512) 
-3.118

$$$$
P577528
     RDKit          3D

 20 22  0  0  0  0  0  0  0  0999 V2000
    5.9567   14.7739   27.4508 C   0  0  0  0  0  0  0  0  0  0  0  0
    5.8535   13.3680   27.6556 O   0  0  0  0  0  0  0  0  0  0  0  0
    6.5618   12.5752   26.7918 C   0  0  0  0  0  0  0  0  0  0  0  0
    6.1987   11.2312   26.8011 C   0  0  0  0  0  0  0  0  0  0  0  0
    6.8051   10.3001   25.9566 C   0  0  0  0  0  0  0  0  0  0  0  0
    7.8325   10.7513   25.1244 C   0  0  0  0  0  0  0  0  0  0  0  0
    8.2465   12.0847   25.1181 C   0  0  0  0  0  0  0  0  0  0  0  0
    7.5920   13.0100   25.9585 C   0  0  0  0  0  0  0  0  0  0  0  0
    9.3323   12.2017   24.2007 C   0  0  0  0  0  0  0  0  0  0  0  0
   10.1449   13.3944   23.9742 C   0  0  0  0  0  0  0  0  0  0  0  0
   10.4462   14.0790   24.8833 O   0  0  0  0  0  0  0  0  0  0  0  0
   10.3771   13.5765   22.5022 N   0  0  0  0  0  0  0  0  0  0  0  0
   11.1561   14.6423   21.7440 C   0  0  0  0  0  0  0  0  0  0  0  0
   10.0871   14.7366   20.7021 C   0  0  0  0  0  0  0  0  0  0  0  0
    9.6825   16.2768   19.9304 Cl  0  0  0  0  0  0  0  0  0  0  0  0
    9.2089   14.3435   21.8352 C   0  0  0  0  0  0  0  0  0  0  0  0
    9.4684   10.9649   23.6064 C   0  0  0  0  0  0  0  0  0  0  0  0
   10.3886   10.4487   22.5984 C   0  0  0  0  0  0  0  0  0  0  0  0
    8.6306   10.0894   24.2305 N   0  0  0  0  0  0  0  0  0  0  0  0
    8.6774    8.6664   23.9972 C   0  0  0  0  0  0  0  0  0  0  0  0
  1  2  1  0
  2  3  1  0
  3  4  2  0
  4  5  1  0
  5  6  2  0
  6  7  1  0
  7  8  2  0
  7  9  1  0
  9 10  1  0
 10 11  2  0
 10 12  1  0
 12 13  1  0
 13 14  1  0
 14 15  1  0
 14 16  1  0
  9 17  2  0
 17 18  1  0
 17 19  1  0
 19 20  1  0
  8  3  1  0
 16 12  1  0
 19  6  1  0
M  END
>  <alias>  (1513) 
None

>  <rmsd(smina/fragmenstein)>  (1513) 
0.256

>  <smiles>  (1513) 
COc1ccc2c(c1)c(C(=O)N1CC(Cl)C1)c(C)n2C

>  <gnina_score>  (1513) 
5.286

>  <inspiration_score>  (1513) 
None

>  <energy_score>  (1513) 
-8.038378

>  <distance_score>  (1513) 
1.016843

>  <gnina_score_min>  (1513) 
5.304

>  <inchikey>  (1513) 
VTUIKBWHXMVBDL-UHFFFAOYSA-N

>  <exports>  (1513) 
['/opt/xchem-fragalysis-2/maxwin/BulkDock/OUTPUTS/openbind_a71ev2a_c2_elabs_1LOUU54.sdf', '/opt/xchem-fragalysis-2/maxwin/BulkDock/OUTPUTS/openbind_a71ev2a_c2_elabs_1LSYIDY.sdf']

>  <name>  (1513) 
P577528

>  <ref_pdb>  (1513) 
A3066a

>  <subsites>  (1513) 
None

>  <HIPPO Pose ID>  (1513) 
577528

>  <ref_mols>  (1513) 
A3066a

>  <HIPPO Compound ID>  (1513) 
351962

>  <tags>  (1513) 
openbind_a71ev2a_c2_elabs,syndirella_product,openbind_a71ev2a_c2_elabs_fragonly_scored_top80percent,openbind_a71ev2a_c2_elabs_scored,BulkDock Fragalysis export,openbind_a71ev2a_c2_elabs_scored_top80percent,openbind_a71ev2a_c2_elabs_activefrags_only_scored_5.2plus,syndirella_placed

>  <smina_score_min>  (1513) 
-6.242

$$$$
P577529
     RDKit          3D

 20 22  0  0  0  0  0  0  0  0999 V2000
    4.9091   13.0162   28.4885 C   0  0  0  0  0  0  0  0  0  0  0  0
    6.0502   13.3887   27.7267 O   0  0  0  0  0  0  0  0  0  0  0  0
    6.5720   12.4388   26.8898 C   0  0  0  0  0  0  0  0  0  0  0  0
    6.1821   11.1050   26.8321 C   0  0  0  0  0  0  0  0  0  0  0  0
    6.7819   10.2109   25.9412 C   0  0  0  0  0  0  0  0  0  0  0  0
    7.8201   10.6813   25.1337 C   0  0  0  0  0  0  0  0  0  0  0  0
    8.2403   12.0106   25.1747 C   0  0  0  0  0  0  0  0  0  0  0  0
    7.5954   12.8986   26.0575 C   0  0  0  0  0  0  0  0  0  0  0  0
    9.3140   12.1555   24.2496 C   0  0  0  0  0  0  0  0  0  0  0  0
   10.1061   13.3580   24.0311 C   0  0  0  0  0  0  0  0  0  0  0  0
   10.4175   14.0353   24.9411 O   0  0  0  0  0  0  0  0  0  0  0  0
   10.3069   13.5589   22.5577 N   0  0  0  0  0  0  0  0  0  0  0  0
   11.0590   14.6418   21.7964 C   0  0  0  0  0  0  0  0  0  0  0  0
    9.9677   14.7754   20.7947 C   0  0  0  0  0  0  0  0  0  0  0  0
    9.5343   16.4657   20.3094 S   0  0  0  0  0  0  0  0  0  0  0  0
    9.1149   14.3210   21.9216 C   0  0  0  0  0  0  0  0  0  0  0  0
    9.4586   10.9352   23.6254 C   0  0  0  0  0  0  0  0  0  0  0  0
   10.3828   10.4493   22.6062 C   0  0  0  0  0  0  0  0  0  0  0  0
    8.6241   10.0439   24.2279 N   0  0  0  0  0  0  0  0  0  0  0  0
    8.6878    8.6272   23.9721 C   0  0  0  0  0  0  0  0  0  0  0  0
  1  2  1  0
  2  3  1  0
  3  4  2  0
  4  5  1  0
  5  6  2  0
  6  7  1  0
  7  8  2  0
  7  9  1  0
  9 10  1  0
 10 11  2  0
 10 12  1  0
 12 13  1  0
 13 14  1  0
 14 15  1  0
 14 16  1  0
  9 17  2  0
 17 18  1  0
 17 19  1  0
 19 20  1  0
  8  3  1  0
 16 12  1  0
 19  6  1  0
M  END
>  <alias>  (1514) 
None

>  <rmsd(smina/fragmenstein)>  (1514) 
0.408

>  <smiles>  (1514) 
COc1ccc2c(c1)c(C(=O)N1CC(S)C1)c(C)n2C

>  <gnina_score>  (1514) 
5.433

>  <inspiration_score>  (1514) 
None

>  <energy_score>  (1514) 
-4.828094

>  <distance_score>  (1514) 
1.040191

>  <gnina_score_min>  (1514) 
5.524

>  <inchikey>  (1514) 
SYVNPPAXGRFNFG-UHFFFAOYSA-N

>  <exports>  (1514) 
['/opt/xchem-fragalysis-2/maxwin/BulkDock/OUTPUTS/openbind_a71ev2a_c2_elabs_1LOUU54.sdf', '/opt/xchem-fragalysis-2/maxwin/BulkDock/OUTPUTS/openbind_a71ev2a_c2_elabs_1LSYIDY.sdf']

>  <name>  (1514) 
P577529

>  <ref_pdb>  (1514) 
A3066a

>  <subsites>  (1514) 
None

>  <HIPPO Pose ID>  (1514) 
577529

>  <ref_mols>  (1514) 
A3066a

>  <HIPPO Compound ID>  (1514) 
351964

>  <tags>  (1514) 
openbind_a71ev2a_c2_elabs,syndirella_product,openbind_a71ev2a_c2_elabs_fragonly_scored_top80percent,BulkDock Fragalysis export,openbind_a71ev2a_c2_elabs_scored,openbind_a71ev2a_c2_elabs_scored_top80percent,openbind_a71ev2a_c2_elabs_activefrags_only_scored_5.2plus,openbind_a71ev2a_c2_elabs_activefrags_only_scored_5.5plus,syndirella_placed

>  <smina_score_min>  (1514) 
-5.939

$$$$
P577530
     RDKit          3D

 20 21  0  0  0  0  0  0  0  0999 V2000
   12.1679   14.4489   21.2287 C   0  0  0  0  0  0  0  0  0  0  0  0
   10.9972   14.6524   20.6123 C   0  0  0  0  0  0  0  0  0  0  0  0
   10.9982   14.6130   19.2577 F   0  0  0  0  0  0  0  0  0  0  0  0
    9.7147   15.0011   21.2952 C   0  0  0  0  0  0  0  0  0  0  0  0
    9.2872   13.9676   22.1987 N   0  0  0  0  0  0  0  0  0  0  0  0
    9.7846   13.6028   23.6029 C   0  0  0  0  0  0  0  0  0  0  0  0
   10.5676   14.1269   24.2860 O   0  0  0  0  0  0  0  0  0  0  0  0
    9.1119   12.3827   24.0273 C   0  0  0  0  0  0  0  0  0  0  0  0
    9.3943   11.1226   23.5516 C   0  0  0  0  0  0  0  0  0  0  0  0
   10.4131   10.6682   22.6150 C   0  0  0  0  0  0  0  0  0  0  0  0
    8.6204   10.2098   24.2062 N   0  0  0  0  0  0  0  0  0  0  0  0
    8.7289    8.7823   23.9963 C   0  0  0  0  0  0  0  0  0  0  0  0
    7.8064   10.8563   25.1014 C   0  0  0  0  0  0  0  0  0  0  0  0
    6.8440   10.3687   25.9889 C   0  0  0  0  0  0  0  0  0  0  0  0
    6.2033   11.2896   26.8193 C   0  0  0  0  0  0  0  0  0  0  0  0
    6.4705   12.6552   26.7455 C   0  0  0  0  0  0  0  0  0  0  0  0
    5.7389   13.4305   27.6066 O   0  0  0  0  0  0  0  0  0  0  0  0
    5.7548   14.8339   27.3609 C   0  0  0  0  0  0  0  0  0  0  0  0
    7.4281   13.1307   25.8493 C   0  0  0  0  0  0  0  0  0  0  0  0
    8.1081   12.2214   25.0162 C   0  0  0  0  0  0  0  0  0  0  0  0
  1  2  2  0
  2  3  1  0
  2  4  1  0
  4  5  1  0
  5  6  1  0
  6  7  2  0
  6  8  1  0
  8  9  2  0
  9 10  1  0
  9 11  1  0
 11 12  1  0
 11 13  1  0
 13 14  2  0
 14 15  1  0
 15 16  2  0
 16 17  1  0
 17 18  1  0
 16 19  1  0
 19 20  2  0
 20  8  1  0
 20 13  1  0
M  END
>  <alias>  (1515) 
None

>  <rmsd(smina/fragmenstein)>  (1515) 
0.336

>  <smiles>  (1515) 
C=C(F)CNC(=O)c1c(C)n(C)c2ccc(OC)cc12

>  <gnina_score>  (1515) 
5.164

>  <inspiration_score>  (1515) 
None

>  <energy_score>  (1515) 
-7.833851

>  <distance_score>  (1515) 
1.369219

>  <gnina_score_min>  (1515) 
5.252

>  <inchikey>  (1515) 
LNGKTTYVCSBTKV-UHFFFAOYSA-N

>  <exports>  (1515) 
['/opt/xchem-fragalysis-2/maxwin/BulkDock/OUTPUTS/openbind_a71ev2a_c2_elabs_1LOUU54.sdf', '/opt/xchem-fragalysis-2/maxwin/BulkDock/OUTPUTS/openbind_a71ev2a_c2_elabs_1LSYIDY.sdf']

>  <name>  (1515) 
P577530

>  <ref_pdb>  (1515) 
A3066a

>  <subsites>  (1515) 
None

>  <HIPPO Pose ID>  (1515) 
577530

>  <ref_mols>  (1515) 
A3066a

>  <HIPPO Compound ID>  (1515) 
351965

>  <tags>  (1515) 
openbind_a71ev2a_c2_elabs,syndirella_product,openbind_a71ev2a_c2_elabs_fragonly_scored_top80percent,openbind_a71ev2a_c2_elabs_scored,BulkDock Fragalysis export,openbind_a71ev2a_c2_elabs_scored_top80percent,openbind_a71ev2a_c2_elabs_activefrags_only_scored_5.2plus,syndirella_placed

>  <smina_score_min>  (1515) 
-5.671

$$$$
P577531
     RDKit          3D

 20 21  0  0  0  0  0  0  0  0999 V2000
    4.8213   12.9053   28.6576 C   0  0  0  0  0  0  0  0  0  0  0  0
    5.8716   13.3512   27.8089 O   0  0  0  0  0  0  0  0  0  0  0  0
    6.4332   12.4253   26.9717 C   0  0  0  0  0  0  0  0  0  0  0  0
    6.1193   11.0707   26.9298 C   0  0  0  0  0  0  0  0  0  0  0  0
    6.7522   10.2049   26.0335 C   0  0  0  0  0  0  0  0  0  0  0  0
    7.7516   10.7238   25.2084 C   0  0  0  0  0  0  0  0  0  0  0  0
    8.0828   12.0830   25.2285 C   0  0  0  0  0  0  0  0  0  0  0  0
    7.4058   12.9405   26.1123 C   0  0  0  0  0  0  0  0  0  0  0  0
    9.0983   12.2838   24.2687 C   0  0  0  0  0  0  0  0  0  0  0  0
    9.7810   13.5028   23.8867 C   0  0  0  0  0  0  0  0  0  0  0  0
   10.4950   14.0768   24.6030 O   0  0  0  0  0  0  0  0  0  0  0  0
    9.4412   13.7506   22.4159 N   0  0  0  0  0  0  0  0  0  0  0  0
    9.9770   14.6992   21.4818 C   0  0  0  0  0  0  0  0  0  0  0  0
   11.4100   14.3123   21.1295 C   0  0  2  0  0  0  0  0  0  0  0  0
   12.4479   15.0850   21.9058 C   0  0  0  0  0  0  0  0  0  0  0  0
   11.6605   14.5162   19.2126 Br  0  0  0  0  0  0  0  0  0  0  0  0
    9.3738   11.0527   23.7082 C   0  0  0  0  0  0  0  0  0  0  0  0
   10.3848   10.6366   22.7355 C   0  0  0  0  0  0  0  0  0  0  0  0
    8.5807   10.1181   24.2983 N   0  0  0  0  0  0  0  0  0  0  0  0
    8.6945    8.7064   24.0156 C   0  0  0  0  0  0  0  0  0  0  0  0
  1  2  1  0
  2  3  1  0
  3  4  2  0
  4  5  1  0
  5  6  2  0
  6  7  1  0
  7  8  2  0
  7  9  1  0
  9 10  1  0
 10 11  2  0
 10 12  1  0
 12 13  1  0
 13 14  1  0
 14 15  1  1
 14 16  1  0
  9 17  2  0
 17 18  1  0
 17 19  1  0
 19 20  1  0
  8  3  1  0
 19  6  1  0
M  END
>  <alias>  (1516) 
None

>  <rmsd(smina/fragmenstein)>  (1516) 
0.277

>  <smiles>  (1516) 
COc1ccc2c(c1)c(C(=O)NC[C@H](C)Br)c(C)n2C

>  <gnina_score>  (1516) 
5.279

>  <inspiration_score>  (1516) 
None

>  <energy_score>  (1516) 
-3.549271

>  <distance_score>  (1516) 
1.344467

>  <gnina_score_min>  (1516) 
5.298

>  <inchikey>  (1516) 
CSBAKTOSKLETQH-VIFPVBQESA-N

>  <exports>  (1516) 
['/opt/xchem-fragalysis-2/maxwin/BulkDock/OUTPUTS/openbind_a71ev2a_c2_elabs_1LOUU54.sdf', '/opt/xchem-fragalysis-2/maxwin/BulkDock/OUTPUTS/openbind_a71ev2a_c2_elabs_1LSYIDY.sdf']

>  <name>  (1516) 
P577531

>  <ref_pdb>  (1516) 
A3066a

>  <subsites>  (1516) 
None

>  <HIPPO Pose ID>  (1516) 
577531

>  <ref_mols>  (1516) 
A3066a

>  <HIPPO Compound ID>  (1516) 
351966

>  <tags>  (1516) 
openbind_a71ev2a_c2_elabs,syndirella_product,openbind_a71ev2a_c2_elabs_fragonly_scored_top80percent,openbind_a71ev2a_c2_elabs_scored,BulkDock Fragalysis export,openbind_a71ev2a_c2_elabs_scored_top80percent,openbind_a71ev2a_c2_elabs_activefrags_only_scored_5.2plus,syndirella_placed

>  <smina_score_min>  (1516) 
-5.0

$$$$
P577533
     RDKit          3D

 20 22  0  0  0  0  0  0  0  0999 V2000
   10.8547   14.9093   19.4222 C   0  0  0  0  0  0  0  0  0  0  0  0
   10.7679   14.6433   20.7208 C   0  0  0  0  0  0  0  0  0  0  0  0
    9.7019   14.4759   21.7031 C   0  0  0  0  0  0  0  0  0  0  0  0
   10.6717   13.5180   22.5161 N   0  0  0  0  0  0  0  0  0  0  0  0
   10.2655   13.4206   23.9553 C   0  0  0  0  0  0  0  0  0  0  0  0
   10.5869   14.0701   24.8834 O   0  0  0  0  0  0  0  0  0  0  0  0
    9.3771   12.2656   24.1584 C   0  0  0  0  0  0  0  0  0  0  0  0
    9.4743   11.0135   23.5773 C   0  0  0  0  0  0  0  0  0  0  0  0
   10.3818   10.4432   22.5849 C   0  0  0  0  0  0  0  0  0  0  0  0
    8.6146   10.1656   24.2126 N   0  0  0  0  0  0  0  0  0  0  0  0
    8.6314    8.7354   24.0114 C   0  0  0  0  0  0  0  0  0  0  0  0
    7.8421   10.8548   25.1060 C   0  0  0  0  0  0  0  0  0  0  0  0
    6.8081   10.4298   25.9464 C   0  0  0  0  0  0  0  0  0  0  0  0
    6.2363   11.3680   26.8089 C   0  0  0  0  0  0  0  0  0  0  0  0
    6.6610   12.6927   26.8162 C   0  0  0  0  0  0  0  0  0  0  0  0
    6.1739   13.6812   27.6292 O   0  0  0  0  0  0  0  0  0  0  0  0
    4.9634   13.4009   28.3207 C   0  0  0  0  0  0  0  0  0  0  0  0
    7.6904   13.1010   25.9631 C   0  0  0  0  0  0  0  0  0  0  0  0
    8.2985   12.1751   25.0936 C   0  0  0  0  0  0  0  0  0  0  0  0
   11.6991   14.4175   21.8280 C   0  0  0  0  0  0  0  0  0  0  0  0
  1  2  2  0
  2  3  1  0
  3  4  1  0
  4  5  1  0
  5  6  2  0
  5  7  1  0
  7  8  2  0
  8  9  1  0
  8 10  1  0
 10 11  1  0
 10 12  1  0
 12 13  2  0
 13 14  1  0
 14 15  2  0
 15 16  1  0
 16 17  1  0
 15 18  1  0
 18 19  2  0
  4 20  1  0
 20  2  1  0
 19  7  1  0
 19 12  1  0
M  END
>  <alias>  (1517) 
None

>  <rmsd(smina/fragmenstein)>  (1517) 
0.484

>  <smiles>  (1517) 
C=C1CN(C(=O)c2c(C)n(C)c3ccc(OC)cc23)C1

>  <gnina_score>  (1517) 
5.304

>  <inspiration_score>  (1517) 
None

>  <energy_score>  (1517) 
-0.762428

>  <distance_score>  (1517) 
0.950027

>  <gnina_score_min>  (1517) 
5.371

>  <inchikey>  (1517) 
JUINLIOXLKSXKU-UHFFFAOYSA-N

>  <exports>  (1517) 
['/opt/xchem-fragalysis-2/maxwin/BulkDock/OUTPUTS/openbind_a71ev2a_c2_elabs_1LOUU54.sdf', '/opt/xchem-fragalysis-2/maxwin/BulkDock/OUTPUTS/openbind_a71ev2a_c2_elabs_1LSYIDY.sdf']

>  <name>  (1517) 
P577533

>  <ref_pdb>  (1517) 
A3066a

>  <subsites>  (1517) 
None

>  <HIPPO Pose ID>  (1517) 
577533

>  <ref_mols>  (1517) 
A3066a

>  <HIPPO Compound ID>  (1517) 
351968

>  <tags>  (1517) 
openbind_a71ev2a_c2_elabs,syndirella_product,openbind_a71ev2a_c2_elabs_fragonly_scored_top80percent,openbind_a71ev2a_c2_elabs_scored,BulkDock Fragalysis export,openbind_a71ev2a_c2_elabs_scored_top80percent,openbind_a71ev2a_c2_elabs_activefrags_only_scored_5.2plus,syndirella_placed

>  <smina_score_min>  (1517) 
-6.259

$$$$
P577534
     RDKit          3D

 20 21  0  0  0  0  0  0  0  0999 V2000
   11.1932   14.7914   19.2403 C   0  0  0  0  0  0  0  0  0  0  0  0
   10.7680   14.7733   20.6949 C   0  0  0  0  0  0  0  0  0  0  0  0
   11.7255   13.9293   21.5382 C   0  0  1  0  0  0  0  0  0  0  0  0
   12.6767   14.7627   22.3638 C   0  0  0  0  0  0  0  0  0  0  0  0
   10.9482   13.0320   22.3415 N   0  0  0  0  0  0  0  0  0  0  0  0
   10.3056   13.2300   23.7151 C   0  0  0  0  0  0  0  0  0  0  0  0
   10.3660   14.1260   24.4536 O   0  0  0  0  0  0  0  0  0  0  0  0
    9.4500   12.0947   24.0580 C   0  0  0  0  0  0  0  0  0  0  0  0
    9.4718   10.8232   23.5555 C   0  0  0  0  0  0  0  0  0  0  0  0
   10.3126   10.0650   22.3181 Cl  0  0  0  0  0  0  0  0  0  0  0  0
    8.6426   10.0205   24.2525 N   0  0  0  0  0  0  0  0  0  0  0  0
    8.6075    8.5927   24.0841 C   0  0  0  0  0  0  0  0  0  0  0  0
    7.9069   10.7723   25.1306 C   0  0  0  0  0  0  0  0  0  0  0  0
    6.8913   10.4163   26.0277 C   0  0  0  0  0  0  0  0  0  0  0  0
    6.3809   11.4105   26.8686 C   0  0  0  0  0  0  0  0  0  0  0  0
    5.2687   10.9112   28.0973 Cl  0  0  0  0  0  0  0  0  0  0  0  0
    6.8109   12.7323   26.7556 C   0  0  0  0  0  0  0  0  0  0  0  0
    6.2008   13.9920   27.7707 Cl  0  0  0  0  0  0  0  0  0  0  0  0
    7.7981   13.0796   25.8282 C   0  0  0  0  0  0  0  0  0  0  0  0
    8.3857   12.0833   25.0222 C   0  0  0  0  0  0  0  0  0  0  0  0
  1  2  1  0
  2  3  1  0
  3  4  1  1
  3  5  1  0
  5  6  1  0
  6  7  2  0
  6  8  1  0
  8  9  2  0
  9 10  1  0
  9 11  1  0
 11 12  1  0
 11 13  1  0
 13 14  2  0
 14 15  1  0
 15 16  1  0
 15 17  2  0
 17 18  1  0
 17 19  1  0
 19 20  2  0
 20  8  1  0
 20 13  1  0
M  END
>  <alias>  (1518) 
None

>  <rmsd(smina/fragmenstein)>  (1518) 
1.361

>  <smiles>  (1518) 
CC[C@@H](C)NC(=O)c1c(Cl)n(C)c2cc(Cl)c(Cl)cc12

>  <gnina_score>  (1518) 
5.771

>  <inspiration_score>  (1518) 
None

>  <energy_score>  (1518) 
-11.430174

>  <distance_score>  (1518) 
0.927436

>  <gnina_score_min>  (1518) 
5.684

>  <inchikey>  (1518) 
JEMUOJGLIULQDL-SSDOTTSWSA-N

>  <exports>  (1518) 
['/opt/xchem-fragalysis-2/maxwin/BulkDock/OUTPUTS/openbind_a71ev2a_c2_elabs_1LOUU54.sdf', '/opt/xchem-fragalysis-2/maxwin/BulkDock/OUTPUTS/openbind_a71ev2a_c2_elabs_1LSYIDY.sdf']

>  <name>  (1518) 
P577534

>  <ref_pdb>  (1518) 
A3066a

>  <subsites>  (1518) 
None

>  <HIPPO Pose ID>  (1518) 
577534

>  <ref_mols>  (1518) 
A3066a

>  <HIPPO Compound ID>  (1518) 
351969

>  <tags>  (1518) 
openbind_a71ev2a_c2_elabs,syndirella_product,openbind_a71ev2a_c2_elabs_fragonly_scored_top80percent,BulkDock Fragalysis export,openbind_a71ev2a_c2_elabs_scored,openbind_a71ev2a_c2_elabs_scored_top80percent,openbind_a71ev2a_c2_elabs_activefrags_only_scored_5.2plus,openbind_a71ev2a_c2_elabs_activefrags_only_scored_5.5plus,syndirella_placed

>  <smina_score_min>  (1518) 
-6.9

$$$$
P577535
     RDKit          3D

 20 22  0  0  0  0  0  0  0  0999 V2000
    8.7461    8.6446   23.9722 C   0  0  0  0  0  0  0  0  0  0  0  0
    8.5168   10.0350   24.2828 N   0  0  0  0  0  0  0  0  0  0  0  0
    9.2331   11.0454   23.7483 C   0  0  0  0  0  0  0  0  0  0  0  0
   10.3498   10.6711   22.5562 Cl  0  0  0  0  0  0  0  0  0  0  0  0
    8.9447   12.2227   24.3763 C   0  0  0  0  0  0  0  0  0  0  0  0
    9.6531   13.4643   24.2082 C   0  0  0  0  0  0  0  0  0  0  0  0
    9.9063   14.1185   25.1357 O   0  0  0  0  0  0  0  0  0  0  0  0
   10.0390   13.6360   22.7374 N   0  0  0  0  0  0  0  0  0  0  0  0
   10.8994   14.5980   22.1033 C   0  0  0  0  0  0  0  0  0  0  0  0
   11.8186   13.9955   21.0110 C   0  0  0  0  0  0  0  0  0  0  0  0
   13.1322   15.0766   21.5578 S   0  0  0  0  0  0  0  0  0  0  0  0
   12.1270   14.8582   23.0161 C   0  0  0  0  0  0  0  0  0  0  0  0
    7.9329   11.9314   25.3145 C   0  0  0  0  0  0  0  0  0  0  0  0
    7.2489   12.7221   26.2559 C   0  0  0  0  0  0  0  0  0  0  0  0
    6.3373   12.1205   27.1211 C   0  0  0  0  0  0  0  0  0  0  0  0
    5.5862   13.1240   28.3100 Cl  0  0  0  0  0  0  0  0  0  0  0  0
    6.0757   10.7556   27.0227 C   0  0  0  0  0  0  0  0  0  0  0  0
    5.0299    9.9408   28.1358 Cl  0  0  0  0  0  0  0  0  0  0  0  0
    6.6897    9.9744   26.0360 C   0  0  0  0  0  0  0  0  0  0  0  0
    7.6579   10.5631   25.2223 C   0  0  0  0  0  0  0  0  0  0  0  0
  1  2  1  0
  2  3  1  0
  3  4  1  0
  3  5  2  0
  5  6  1  0
  6  7  2  0
  6  8  1  0
  8  9  1  0
  9 10  1  0
 10 11  1  0
 11 12  1  0
  5 13  1  0
 13 14  2  0
 14 15  1  0
 15 16  1  0
 15 17  2  0
 17 18  1  0
 17 19  1  0
 19 20  2  0
 20  2  1  0
 12  9  1  0
 20 13  1  0
M  END
>  <alias>  (1519) 
None

>  <rmsd(smina/fragmenstein)>  (1519) 
0.518

>  <smiles>  (1519) 
Cn1c(Cl)c(C(=O)NC2CSC2)c2cc(Cl)c(Cl)cc21

>  <gnina_score>  (1519) 
5.602

>  <inspiration_score>  (1519) 
None

>  <energy_score>  (1519) 
-8.25121

>  <distance_score>  (1519) 
1.292454

>  <gnina_score_min>  (1519) 
5.765

>  <inchikey>  (1519) 
KPIBBOGWYWLMOE-UHFFFAOYSA-N

>  <exports>  (1519) 
['/opt/xchem-fragalysis-2/maxwin/BulkDock/OUTPUTS/openbind_a71ev2a_c2_elabs_1LOUU54.sdf', '/opt/xchem-fragalysis-2/maxwin/BulkDock/OUTPUTS/openbind_a71ev2a_c2_elabs_1LSYIDY.sdf']

>  <name>  (1519) 
P577535

>  <ref_pdb>  (1519) 
A3066a

>  <subsites>  (1519) 
None

>  <HIPPO Pose ID>  (1519) 
577535

>  <ref_mols>  (1519) 
A3066a

>  <HIPPO Compound ID>  (1519) 
351972

>  <tags>  (1519) 
openbind_a71ev2a_c2_elabs,syndirella_product,openbind_a71ev2a_c2_elabs_fragonly_scored_top80percent,BulkDock Fragalysis export,openbind_a71ev2a_c2_elabs_scored,openbind_a71ev2a_c2_elabs_scored_top80percent,openbind_a71ev2a_c2_elabs_activefrags_only_scored_5.2plus,openbind_a71ev2a_c2_elabs_activefrags_only_scored_5.5plus,syndirella_placed

>  <smina_score_min>  (1519) 
-4.962

$$$$
P577537
     RDKit          3D

 20 21  0  0  0  0  0  0  0  0999 V2000
    8.5612    8.5823   24.0903 C   0  0  0  0  0  0  0  0  0  0  0  0
    8.5842   10.0089   24.2587 N   0  0  0  0  0  0  0  0  0  0  0  0
    9.4375   10.8071   23.5890 C   0  0  0  0  0  0  0  0  0  0  0  0
   10.2874   10.0536   22.3495 Cl  0  0  0  0  0  0  0  0  0  0  0  0
    9.4610   12.0529   24.1545 C   0  0  0  0  0  0  0  0  0  0  0  0
   10.4376   13.1185   23.9493 C   0  0  0  0  0  0  0  0  0  0  0  0
   10.4819   13.9966   24.7084 O   0  0  0  0  0  0  0  0  0  0  0  0
   11.3077   12.8176   22.7334 N   0  0  0  0  0  0  0  0  0  0  0  0
   12.3541   13.5737   22.1347 C   0  0  0  0  0  0  0  0  0  0  0  0
   11.9239   14.9723   21.7818 C   0  0  1  0  0  0  0  0  0  0  0  0
   13.0126   15.6204   21.3095 F   0  0  0  0  0  0  0  0  0  0  0  0
   10.6052   14.9883   20.5873 Cl  0  0  0  0  0  0  0  0  0  0  0  0
    8.3573   12.0586   25.0701 C   0  0  0  0  0  0  0  0  0  0  0  0
    7.7846   13.0487   25.8933 C   0  0  0  0  0  0  0  0  0  0  0  0
    6.7859   12.6994   26.8075 C   0  0  0  0  0  0  0  0  0  0  0  0
    6.1992   13.9466   27.8513 Cl  0  0  0  0  0  0  0  0  0  0  0  0
    6.3346   11.3827   26.8928 C   0  0  0  0  0  0  0  0  0  0  0  0
    5.2191   10.8755   28.1154 Cl  0  0  0  0  0  0  0  0  0  0  0  0
    6.8284   10.3980   26.0308 C   0  0  0  0  0  0  0  0  0  0  0  0
    7.8513   10.7557   25.1431 C   0  0  0  0  0  0  0  0  0  0  0  0
  1  2  1  0
  2  3  1  0
  3  4  1  0
  3  5  2  0
  5  6  1  0
  6  7  2  0
  6  8  1  0
  8  9  1  0
  9 10  1  0
 10 11  1  6
 10 12  1  0
  5 13  1  0
 13 14  2  0
 14 15  1  0
 15 16  1  0
 15 17  2  0
 17 18  1  0
 17 19  1  0
 19 20  2  0
 20  2  1  0
 20 13  1  0
M  END
>  <alias>  (1520) 
None

>  <rmsd(smina/fragmenstein)>  (1520) 
1.486

>  <smiles>  (1520) 
Cn1c(Cl)c(C(=O)NC[C@@H](F)Cl)c2cc(Cl)c(Cl)cc21

>  <gnina_score>  (1520) 
5.723

>  <inspiration_score>  (1520) 
None

>  <energy_score>  (1520) 
-3.297536

>  <distance_score>  (1520) 
0.946925

>  <gnina_score_min>  (1520) 
5.429

>  <inchikey>  (1520) 
COZDRDQWJJPROP-SECBINFHSA-N

>  <exports>  (1520) 
['/opt/xchem-fragalysis-2/maxwin/BulkDock/OUTPUTS/openbind_a71ev2a_c2_elabs_1LOUU54.sdf', '/opt/xchem-fragalysis-2/maxwin/BulkDock/OUTPUTS/openbind_a71ev2a_c2_elabs_1LSYIDY.sdf']

>  <name>  (1520) 
P577537

>  <ref_pdb>  (1520) 
A3066a

>  <subsites>  (1520) 
None

>  <HIPPO Pose ID>  (1520) 
577537

>  <ref_mols>  (1520) 
A3066a

>  <HIPPO Compound ID>  (1520) 
351976

>  <tags>  (1520) 
openbind_a71ev2a_c2_elabs,syndirella_product,openbind_a71ev2a_c2_elabs_fragonly_scored_top80percent,openbind_a71ev2a_c2_elabs_scored,BulkDock Fragalysis export,openbind_a71ev2a_c2_elabs_scored_top80percent,openbind_a71ev2a_c2_elabs_activefrags_only_scored_5.2plus,syndirella_placed

>  <smina_score_min>  (1520) 
-6.864

$$$$
P577538
     RDKit          3D

 20 21  0  0  0  0  0  0  0  0999 V2000
    8.8571    8.7039   24.0160 C   0  0  0  0  0  0  0  0  0  0  0  0
    8.5731   10.1007   24.2547 N   0  0  0  0  0  0  0  0  0  0  0  0
    9.1603   11.1164   23.5806 C   0  0  0  0  0  0  0  0  0  0  0  0
   10.3694   10.6963   22.5019 Cl  0  0  0  0  0  0  0  0  0  0  0  0
    8.5847   12.3164   23.8998 C   0  0  0  0  0  0  0  0  0  0  0  0
    8.7754   13.6356   23.2985 C   0  0  0  0  0  0  0  0  0  0  0  0
    8.0891   14.5062   23.6406 O   0  0  0  0  0  0  0  0  0  0  0  0
    9.9632   13.6304   22.3485 N   0  0  0  0  0  0  0  0  0  0  0  0
   10.6308   14.7144   21.6804 C   0  0  0  0  0  0  0  0  0  0  0  0
   11.9742   15.0024   22.3872 C   0  0  0  0  0  0  0  0  0  0  0  0
   11.9597   14.9270   23.6572 O   0  0  0  0  0  0  0  0  0  0  0  0
   12.9411   15.2223   21.6116 O   0  0  0  0  0  0  0  0  0  0  0  0
    7.7477   12.0268   25.0167 C   0  0  0  0  0  0  0  0  0  0  0  0
    7.0007   12.8399   25.8942 C   0  0  0  0  0  0  0  0  0  0  0  0
    6.2257   12.2543   26.8930 C   0  0  0  0  0  0  0  0  0  0  0  0
    5.3768   13.3022   27.9741 Cl  0  0  0  0  0  0  0  0  0  0  0  0
    6.1413   10.8681   26.9849 C   0  0  0  0  0  0  0  0  0  0  0  0
    5.2182   10.0796   28.2198 Cl  0  0  0  0  0  0  0  0  0  0  0  0
    6.8299   10.0475   26.0864 C   0  0  0  0  0  0  0  0  0  0  0  0
    7.6876   10.6372   25.1585 C   0  0  0  0  0  0  0  0  0  0  0  0
  1  2  1  0
  2  3  1  0
  3  4  1  0
  3  5  2  0
  5  6  1  0
  6  7  2  0
  6  8  1  0
  8  9  1  0
  9 10  1  0
 10 11  2  0
 10 12  1  0
  5 13  1  0
 13 14  2  0
 14 15  1  0
 15 16  1  0
 15 17  2  0
 17 18  1  0
 17 19  1  0
 19 20  2  0
 20  2  1  0
 20 13  1  0
M  CHG  1  12  -1
M  END
>  <alias>  (1521) 
None

>  <rmsd(smina/fragmenstein)>  (1521) 
0.902

>  <smiles>  (1521) 
Cn1c(Cl)c(C(=O)NCC(=O)[O-])c2cc(Cl)c(Cl)cc21

>  <gnina_score>  (1521) 
5.473

>  <inspiration_score>  (1521) 
None

>  <energy_score>  (1521) 
-35.365105

>  <distance_score>  (1521) 
1.581483

>  <gnina_score_min>  (1521) 
5.719

>  <inchikey>  (1521) 
ZCZHZLQDCQYTBW-UHFFFAOYSA-M

>  <exports>  (1521) 
['/opt/xchem-fragalysis-2/maxwin/BulkDock/OUTPUTS/openbind_a71ev2a_c2_elabs_1LOUU54.sdf', '/opt/xchem-fragalysis-2/maxwin/BulkDock/OUTPUTS/openbind_a71ev2a_c2_elabs_1LSYIDY.sdf']

>  <name>  (1521) 
P577538

>  <ref_pdb>  (1521) 
A3066a

>  <subsites>  (1521) 
None

>  <HIPPO Pose ID>  (1521) 
577538

>  <ref_mols>  (1521) 
A3066a

>  <HIPPO Compound ID>  (1521) 
351979

>  <tags>  (1521) 
openbind_a71ev2a_c2_elabs,syndirella_product,openbind_a71ev2a_c2_elabs_fragonly_scored_top80percent,BulkDock Fragalysis export,openbind_a71ev2a_c2_elabs_scored,openbind_a71ev2a_c2_elabs_scored_top80percent,openbind_a71ev2a_c2_elabs_activefrags_only_scored_5.2plus,openbind_a71ev2a_c2_elabs_activefrags_only_scored_5.5plus,syndirella_placed

>  <smina_score_min>  (1521) 
-5.821

$$$$
P577540
     RDKit          3D

 20 21  0  0  0  0  0  0  0  0999 V2000
   12.9790   13.9070   23.1857 C   0  0  0  0  0  0  0  0  0  0  0  0
   12.0210   13.6761   22.0415 C   0  0  2  0  0  0  0  0  0  0  0  0
   11.6476   15.0026   21.4188 C   0  0  0  0  0  0  0  0  0  0  0  0
   10.1957   14.9644   20.3402 S   0  0  0  0  0  0  0  0  0  0  0  0
   10.9213   12.9476   22.5706 N   0  0  0  0  0  0  0  0  0  0  0  0
   10.0712   13.1974   23.8141 C   0  0  0  0  0  0  0  0  0  0  0  0
   10.0805   14.0814   24.5679 O   0  0  0  0  0  0  0  0  0  0  0  0
    9.2065   12.0626   24.0757 C   0  0  0  0  0  0  0  0  0  0  0  0
    9.3167   10.7990   23.5673 C   0  0  0  0  0  0  0  0  0  0  0  0
   10.2717   10.0852   22.3782 Cl  0  0  0  0  0  0  0  0  0  0  0  0
    8.5261    9.9543   24.2527 N   0  0  0  0  0  0  0  0  0  0  0  0
    8.5989    8.5314   24.0848 C   0  0  0  0  0  0  0  0  0  0  0  0
    7.7566   10.6577   25.1431 C   0  0  0  0  0  0  0  0  0  0  0  0
    6.7791   10.2446   26.0550 C   0  0  0  0  0  0  0  0  0  0  0  0
    6.2484   11.1981   26.9306 C   0  0  0  0  0  0  0  0  0  0  0  0
    5.1882   10.6217   28.1722 Cl  0  0  0  0  0  0  0  0  0  0  0  0
    6.6142   12.5398   26.8351 C   0  0  0  0  0  0  0  0  0  0  0  0
    5.9761   13.7481   27.8936 Cl  0  0  0  0  0  0  0  0  0  0  0  0
    7.5548   12.9482   25.8869 C   0  0  0  0  0  0  0  0  0  0  0  0
    8.1579   11.9934   25.0438 C   0  0  0  0  0  0  0  0  0  0  0  0
  2  1  1  1
  2  3  1  0
  3  4  1  0
  2  5  1  0
  5  6  1  0
  6  7  2  0
  6  8  1  0
  8  9  2  0
  9 10  1  0
  9 11  1  0
 11 12  1  0
 11 13  1  0
 13 14  2  0
 14 15  1  0
 15 16  1  0
 15 17  2  0
 17 18  1  0
 17 19  1  0
 19 20  2  0
 20  8  1  0
 20 13  1  0
M  END
>  <alias>  (1522) 
None

>  <rmsd(smina/fragmenstein)>  (1522) 
1.678

>  <smiles>  (1522) 
C[C@H](CS)NC(=O)c1c(Cl)n(C)c2cc(Cl)c(Cl)cc12

>  <gnina_score>  (1522) 
5.967

>  <inspiration_score>  (1522) 
None

>  <energy_score>  (1522) 
-2.5437

>  <distance_score>  (1522) 
1.019168

>  <gnina_score_min>  (1522) 
5.96

>  <inchikey>  (1522) 
KPMBENHFLGTZOU-ZCFIWIBFSA-N

>  <exports>  (1522) 
['/opt/xchem-fragalysis-2/maxwin/BulkDock/OUTPUTS/openbind_a71ev2a_c2_elabs_1LOUU54.sdf', '/opt/xchem-fragalysis-2/maxwin/BulkDock/OUTPUTS/openbind_a71ev2a_c2_elabs_1LSYIDY.sdf']

>  <name>  (1522) 
P577540

>  <ref_pdb>  (1522) 
A3066a

>  <subsites>  (1522) 
None

>  <HIPPO Pose ID>  (1522) 
577540

>  <ref_mols>  (1522) 
A3066a

>  <HIPPO Compound ID>  (1522) 
351981

>  <tags>  (1522) 
openbind_a71ev2a_c2_elabs,syndirella_product,openbind_a71ev2a_c2_elabs_fragonly_scored_top80percent,BulkDock Fragalysis export,openbind_a71ev2a_c2_elabs_scored,openbind_a71ev2a_c2_elabs_scored_top80percent,openbind_a71ev2a_c2_elabs_activefrags_only_scored_5.2plus,openbind_a71ev2a_c2_elabs_activefrags_only_scored_5.5plus,syndirella_placed

>  <smina_score_min>  (1522) 
-6.501

$$$$
P577541
     RDKit          3D

 20 22  0  0  0  0  0  0  0  0999 V2000
    8.7997    8.5596   23.9964 C   0  0  0  0  0  0  0  0  0  0  0  0
    8.6387    9.9759   24.2121 N   0  0  0  0  0  0  0  0  0  0  0  0
    9.3231   10.9139   23.5241 C   0  0  0  0  0  0  0  0  0  0  0  0
   10.3518   10.3389   22.3438 Cl  0  0  0  0  0  0  0  0  0  0  0  0
    8.9937   12.1698   23.9372 C   0  0  0  0  0  0  0  0  0  0  0  0
    9.4646   13.4613   23.4552 C   0  0  0  0  0  0  0  0  0  0  0  0
    9.1224   14.3951   24.0548 O   0  0  0  0  0  0  0  0  0  0  0  0
   10.3430   13.3514   22.2027 N   0  0  0  0  0  0  0  0  0  0  0  0
   11.0709   14.3691   21.4705 C   0  0  0  0  0  0  0  0  0  0  0  0
   12.4396   13.9310   20.9134 C   0  0  0  0  0  0  0  0  0  0  0  0
   13.0800   14.4730   22.1875 C   0  0  0  0  0  0  0  0  0  0  0  0
   11.8472   15.3195   22.3907 C   0  0  0  0  0  0  0  0  0  0  0  0
    8.0496   11.9704   24.9986 C   0  0  0  0  0  0  0  0  0  0  0  0
    7.3576   12.8505   25.8594 C   0  0  0  0  0  0  0  0  0  0  0  0
    6.4818   12.3449   26.8215 C   0  0  0  0  0  0  0  0  0  0  0  0
    5.7260   13.4741   27.8891 Cl  0  0  0  0  0  0  0  0  0  0  0  0
    6.2499   10.9753   26.9030 C   0  0  0  0  0  0  0  0  0  0  0  0
    5.2425   10.2816   28.1276 Cl  0  0  0  0  0  0  0  0  0  0  0  0
    6.8708   10.0920   26.0148 C   0  0  0  0  0  0  0  0  0  0  0  0
    7.8078   10.5982   25.1098 C   0  0  0  0  0  0  0  0  0  0  0  0
  1  2  1  0
  2  3  1  0
  3  4  1  0
  3  5  2  0
  5  6  1  0
  6  7  2  0
  6  8  1  0
  8  9  1  0
  9 10  1  0
 10 11  1  0
 11 12  1  0
  5 13  1  0
 13 14  2  0
 14 15  1  0
 15 16  1  0
 15 17  2  0
 17 18  1  0
 17 19  1  0
 19 20  2  0
 20  2  1  0
 12  9  1  0
 20 13  1  0
M  END
>  <alias>  (1523) 
None

>  <rmsd(smina/fragmenstein)>  (1523) 
0.888

>  <smiles>  (1523) 
Cn1c(Cl)c(C(=O)NC2CCC2)c2cc(Cl)c(Cl)cc21

>  <gnina_score>  (1523) 
5.683

>  <inspiration_score>  (1523) 
None

>  <energy_score>  (1523) 
-0.590376

>  <distance_score>  (1523) 
1.205708

>  <gnina_score_min>  (1523) 
5.83

>  <inchikey>  (1523) 
UIXVCNQAMXEDIU-UHFFFAOYSA-N

>  <exports>  (1523) 
['/opt/xchem-fragalysis-2/maxwin/BulkDock/OUTPUTS/openbind_a71ev2a_c2_elabs_1LOUU54.sdf', '/opt/xchem-fragalysis-2/maxwin/BulkDock/OUTPUTS/openbind_a71ev2a_c2_elabs_1LSYIDY.sdf']

>  <name>  (1523) 
P577541

>  <ref_pdb>  (1523) 
A3066a

>  <subsites>  (1523) 
None

>  <HIPPO Pose ID>  (1523) 
577541

>  <ref_mols>  (1523) 
A3066a

>  <HIPPO Compound ID>  (1523) 
351982

>  <tags>  (1523) 
openbind_a71ev2a_c2_elabs,syndirella_product,openbind_a71ev2a_c2_elabs_fragonly_scored_top80percent,BulkDock Fragalysis export,openbind_a71ev2a_c2_elabs_scored,openbind_a71ev2a_c2_elabs_scored_top80percent,openbind_a71ev2a_c2_elabs_activefrags_only_scored_5.2plus,openbind_a71ev2a_c2_elabs_activefrags_only_scored_5.5plus,syndirella_placed

>  <smina_score_min>  (1523) 
-5.876

$$$$
P577542
     RDKit          3D

 21 23  0  0  0  0  0  0  0  0999 V2000
   12.4940   13.8894   20.7285 C   0  0  0  0  0  0  0  0  0  0  0  0
   12.7904   14.5870   22.0272 C   0  0  0  0  0  0  0  0  0  0  0  0
   11.5518   15.0975   22.7209 C   0  0  0  0  0  0  0  0  0  0  0  0
   10.7499   14.0900   23.3495 N   0  0  0  0  0  0  0  0  0  0  0  0
    9.2266   13.8710   23.3339 C   0  0  0  0  0  0  0  0  0  0  0  0
    8.3769   14.5172   22.8725 O   0  0  0  0  0  0  0  0  0  0  0  0
    8.9101   12.5807   23.9357 C   0  0  0  0  0  0  0  0  0  0  0  0
    9.4951   11.3950   23.5365 C   0  0  0  0  0  0  0  0  0  0  0  0
   10.6080   11.3071   22.6026 C   0  0  0  0  0  0  0  0  0  0  0  0
    8.8303   10.3622   24.1271 N   0  0  0  0  0  0  0  0  0  0  0  0
    8.9941    8.9070   23.8779 C   0  0  0  0  0  0  0  0  0  0  0  0
    9.3154    8.2985   22.5433 C   0  0  0  0  0  0  0  0  0  0  0  0
   10.2938    8.1880   23.6586 C   0  0  0  0  0  0  0  0  0  0  0  0
    7.9065   10.8653   25.0216 C   0  0  0  0  0  0  0  0  0  0  0  0
    7.0110   10.2353   25.8917 C   0  0  0  0  0  0  0  0  0  0  0  0
    6.2129   11.0367   26.7093 C   0  0  0  0  0  0  0  0  0  0  0  0
    6.2336   12.4254   26.6154 C   0  0  0  0  0  0  0  0  0  0  0  0
    5.3605   13.0703   27.4504 O   0  0  0  0  0  0  0  0  0  0  0  0
    5.1167   14.4457   27.1661 C   0  0  0  0  0  0  0  0  0  0  0  0
    7.0944   13.0463   25.7125 C   0  0  0  0  0  0  0  0  0  0  0  0
    7.9494   12.2597   24.9173 C   0  0  0  0  0  0  0  0  0  0  0  0
  1  2  1  0
  2  3  1  0
  3  4  1  0
  4  5  1  0
  5  6  2  0
  5  7  1  0
  7  8  2  0
  8  9  1  0
  8 10  1  0
 10 11  1  0
 11 12  1  0
 12 13  1  0
 10 14  1  0
 14 15  2  0
 15 16  1  0
 16 17  2  0
 17 18  1  0
 18 19  1  0
 17 20  1  0
 20 21  2  0
 21  7  1  0
 13 11  1  0
 21 14  1  0
M  END
>  <alias>  (1524) 
None

>  <rmsd(smina/fragmenstein)>  (1524) 
0.574

>  <smiles>  (1524) 
CCCNC(=O)c1c(C)n(C2CC2)c2ccc(OC)cc12

>  <gnina_score>  (1524) 
5.455

>  <inspiration_score>  (1524) 
None

>  <energy_score>  (1524) 
-6.05253

>  <distance_score>  (1524) 
1.395689

>  <gnina_score_min>  (1524) 
5.613

>  <inchikey>  (1524) 
QTYOTAJLUACGDU-UHFFFAOYSA-N

>  <exports>  (1524) 
['/opt/xchem-fragalysis-2/maxwin/BulkDock/OUTPUTS/openbind_a71ev2a_c2_elabs_1LOUU54.sdf', '/opt/xchem-fragalysis-2/maxwin/BulkDock/OUTPUTS/openbind_a71ev2a_c2_elabs_1LSYIDY.sdf']

>  <name>  (1524) 
P577542

>  <ref_pdb>  (1524) 
A3066a

>  <subsites>  (1524) 
None

>  <HIPPO Pose ID>  (1524) 
577542

>  <ref_mols>  (1524) 
A3066a

>  <HIPPO Compound ID>  (1524) 
352040

>  <tags>  (1524) 
openbind_a71ev2a_c2_elabs,syndirella_product,openbind_a71ev2a_c2_elabs_fragonly_scored_top80percent,BulkDock Fragalysis export,openbind_a71ev2a_c2_elabs_scored,openbind_a71ev2a_c2_elabs_scored_top80percent,openbind_a71ev2a_c2_elabs_activefrags_only_scored_5.2plus,openbind_a71ev2a_c2_elabs_activefrags_only_scored_5.5plus,syndirella_placed

>  <smina_score_min>  (1524) 
-4.292

$$$$
P577543
     RDKit          3D

 21 22  0  0  0  0  0  0  0  0999 V2000
   10.1486    8.1906   23.5555 C   0  0  0  0  0  0  0  0  0  0  0  0
    8.7740    8.7882   23.7998 C   0  0  0  0  0  0  0  0  0  0  0  0
    8.6636   10.2103   24.1019 N   0  0  0  0  0  0  0  0  0  0  0  0
    9.4007   11.2234   23.5523 C   0  0  0  0  0  0  0  0  0  0  0  0
   10.4543   10.9519   22.5910 C   0  0  0  0  0  0  0  0  0  0  0  0
    9.1635   12.3926   24.2452 C   0  0  0  0  0  0  0  0  0  0  0  0
    9.9809   13.5972   24.1293 C   0  0  0  0  0  0  0  0  0  0  0  0
   10.4826   14.0500   25.0785 O   0  0  0  0  0  0  0  0  0  0  0  0
   10.0991   14.0011   22.6509 N   0  0  0  0  0  0  0  0  0  0  0  0
   10.9345   14.9893   22.0131 C   0  0  1  0  0  0  0  0  0  0  0  0
   12.1454   14.3602   21.3366 C   0  0  0  0  0  0  0  0  0  0  0  0
   10.0754   15.9454   21.1724 C   0  0  0  0  0  0  0  0  0  0  0  0
    9.7398   15.5025   19.4695 S   0  0  0  0  0  0  0  0  0  0  0  0
    8.1329   12.1079   25.1713 C   0  0  0  0  0  0  0  0  0  0  0  0
    7.4619   12.8829   26.1350 C   0  0  0  0  0  0  0  0  0  0  0  0
    6.4950   12.2969   26.9545 C   0  0  0  0  0  0  0  0  0  0  0  0
    5.9356   13.1473   27.8699 O   0  0  0  0  0  0  0  0  0  0  0  0
    4.8559   12.6414   28.6446 C   0  0  0  0  0  0  0  0  0  0  0  0
    6.1910   10.9481   26.8071 C   0  0  0  0  0  0  0  0  0  0  0  0
    6.8312   10.1607   25.8460 C   0  0  0  0  0  0  0  0  0  0  0  0
    7.8192   10.7503   25.0520 C   0  0  0  0  0  0  0  0  0  0  0  0
  1  2  1  0
  2  3  1  0
  3  4  1  0
  4  5  1  0
  4  6  2  0
  6  7  1  0
  7  8  2  0
  7  9  1  0
  9 10  1  0
 10 11  1  6
 10 12  1  0
 12 13  1  0
  6 14  1  0
 14 15  2  0
 15 16  1  0
 16 17  1  0
 17 18  1  0
 16 19  2  0
 19 20  1  0
 20 21  2  0
 21  3  1  0
 21 14  1  0
M  END
>  <alias>  (1525) 
None

>  <rmsd(smina/fragmenstein)>  (1525) 
0.77

>  <smiles>  (1525) 
CCn1c(C)c(C(=O)N[C@@H](C)CS)c2cc(OC)ccc21

>  <gnina_score>  (1525) 
5.746

>  <inspiration_score>  (1525) 
None

>  <energy_score>  (1525) 
-6.649038

>  <distance_score>  (1525) 
1.104489

>  <gnina_score_min>  (1525) 
5.634

>  <inchikey>  (1525) 
RMJDYLRTMOKCHR-JTQLQIEISA-N

>  <exports>  (1525) 
['/opt/xchem-fragalysis-2/maxwin/BulkDock/OUTPUTS/openbind_a71ev2a_c2_elabs_1LOUU54.sdf', '/opt/xchem-fragalysis-2/maxwin/BulkDock/OUTPUTS/openbind_a71ev2a_c2_elabs_1LSYIDY.sdf']

>  <name>  (1525) 
P577543

>  <ref_pdb>  (1525) 
A3066a

>  <subsites>  (1525) 
None

>  <HIPPO Pose ID>  (1525) 
577543

>  <ref_mols>  (1525) 
A3066a

>  <HIPPO Compound ID>  (1525) 
352074

>  <tags>  (1525) 
openbind_a71ev2a_c2_elabs,syndirella_product,openbind_a71ev2a_c2_elabs_fragonly_scored_top80percent,BulkDock Fragalysis export,openbind_a71ev2a_c2_elabs_scored,openbind_a71ev2a_c2_elabs_scored_top80percent,openbind_a71ev2a_c2_elabs_activefrags_only_scored_5.2plus,openbind_a71ev2a_c2_elabs_activefrags_only_scored_5.5plus,syndirella_placed

>  <smina_score_min>  (1525) 
-5.043

$$$$
P577544
     RDKit          3D

 21 23  0  0  0  0  0  0  0  0999 V2000
   10.2701    8.2483   23.5205 C   0  0  0  0  0  0  0  0  0  0  0  0
    8.8803    8.8052   23.7518 C   0  0  0  0  0  0  0  0  0  0  0  0
    8.7541   10.2071   24.1220 N   0  0  0  0  0  0  0  0  0  0  0  0
    9.4710   11.2636   23.6390 C   0  0  0  0  0  0  0  0  0  0  0  0
   10.5070   11.1883   22.6118 C   0  0  0  0  0  0  0  0  0  0  0  0
    9.1612   12.3958   24.3713 C   0  0  0  0  0  0  0  0  0  0  0  0
    9.8886   13.6470   24.2147 C   0  0  0  0  0  0  0  0  0  0  0  0
   10.4961   14.1184   25.0956 O   0  0  0  0  0  0  0  0  0  0  0  0
    9.7638   14.0843   22.7334 N   0  0  0  0  0  0  0  0  0  0  0  0
   10.4036   15.0868   22.0403 N   0  0  0  0  0  0  0  0  0  0  0  0
   10.6401   14.6943   20.6281 C   0  0  0  0  0  0  0  0  0  0  0  0
   12.0599   14.2414   21.0022 C   0  0  0  0  0  0  0  0  0  0  0  0
   11.8716   15.0899   22.2500 C   0  0  0  0  0  0  0  0  0  0  0  0
    8.1338   12.0472   25.2634 C   0  0  0  0  0  0  0  0  0  0  0  0
    7.4060   12.7690   26.2257 C   0  0  0  0  0  0  0  0  0  0  0  0
    6.4385   12.1229   26.9963 C   0  0  0  0  0  0  0  0  0  0  0  0
    5.8262   12.9209   27.9238 O   0  0  0  0  0  0  0  0  0  0  0  0
    4.8220   12.3230   28.7342 C   0  0  0  0  0  0  0  0  0  0  0  0
    6.1804   10.7733   26.7865 C   0  0  0  0  0  0  0  0  0  0  0  0
    6.8700   10.0452   25.8120 C   0  0  0  0  0  0  0  0  0  0  0  0
    7.8690   10.6872   25.0754 C   0  0  0  0  0  0  0  0  0  0  0  0
  1  2  1  0
  2  3  1  0
  3  4  1  0
  4  5  1  0
  4  6  2  0
  6  7  1  0
  7  8  2  0
  7  9  1  0
  9 10  1  0
 10 11  1  0
 11 12  1  0
 12 13  1  0
  6 14  1  0
 14 15  2  0
 15 16  1  0
 16 17  1  0
 17 18  1  0
 16 19  2  0
 19 20  1  0
 20 21  2  0
 21  3  1  0
 13 10  1  0
 21 14  1  0
M  END
>  <alias>  (1526) 
None

>  <rmsd(smina/fragmenstein)>  (1526) 
1.073

>  <smiles>  (1526) 
CCn1c(C)c(C(=O)NN2CCC2)c2cc(OC)ccc21

>  <gnina_score>  (1526) 
5.77

>  <inspiration_score>  (1526) 
None

>  <energy_score>  (1526) 
-3.263533

>  <distance_score>  (1526) 
1.213601

>  <gnina_score_min>  (1526) 
5.714

>  <inchikey>  (1526) 
WPSDJMUXVDKNOT-UHFFFAOYSA-N

>  <exports>  (1526) 
['/opt/xchem-fragalysis-2/maxwin/BulkDock/OUTPUTS/openbind_a71ev2a_c2_elabs_1LOUU54.sdf', '/opt/xchem-fragalysis-2/maxwin/BulkDock/OUTPUTS/openbind_a71ev2a_c2_elabs_1LSYIDY.sdf']

>  <name>  (1526) 
P577544

>  <ref_pdb>  (1526) 
A3066a

>  <subsites>  (1526) 
None

>  <HIPPO Pose ID>  (1526) 
577544

>  <ref_mols>  (1526) 
A3066a

>  <HIPPO Compound ID>  (1526) 
352077

>  <tags>  (1526) 
openbind_a71ev2a_c2_elabs,syndirella_product,openbind_a71ev2a_c2_elabs_fragonly_scored_top80percent,BulkDock Fragalysis export,openbind_a71ev2a_c2_elabs_scored,openbind_a71ev2a_c2_elabs_scored_top80percent,openbind_a71ev2a_c2_elabs_activefrags_only_scored_5.2plus,openbind_a71ev2a_c2_elabs_activefrags_only_scored_5.5plus,syndirella_placed

>  <smina_score_min>  (1526) 
-5.857

$$$$
P577545
     RDKit          3D

 21 22  0  0  0  0  0  0  0  0999 V2000
   12.0722   14.8165   22.3310 C   0  0  0  0  0  0  0  0  0  0  0  0
   11.7296   14.7621   21.0397 C   0  0  0  0  0  0  0  0  0  0  0  0
   10.3800   14.9952   20.4079 C   0  0  0  0  0  0  0  0  0  0  0  0
    9.1371   15.1857   21.2854 C   0  0  0  0  0  0  0  0  0  0  0  0
    8.9100   14.0278   22.1064 N   0  0  0  0  0  0  0  0  0  0  0  0
    8.6153   13.9122   23.6039 C   0  0  0  0  0  0  0  0  0  0  0  0
    8.4325   14.7365   24.4016 O   0  0  0  0  0  0  0  0  0  0  0  0
    8.5894   12.5169   23.9915 C   0  0  0  0  0  0  0  0  0  0  0  0
    9.4179   11.4928   23.5667 C   0  0  0  0  0  0  0  0  0  0  0  0
   10.6713   11.5620   22.7999 C   0  0  0  0  0  0  0  0  0  0  0  0
    8.9313   10.3163   24.0873 N   0  0  0  0  0  0  0  0  0  0  0  0
    9.5521    9.0115   23.9520 C   0  0  0  0  0  0  0  0  0  0  0  0
    9.2912    8.2942   22.6687 C   0  0  0  0  0  0  0  0  0  0  0  0
    7.9002   10.6074   24.9555 C   0  0  0  0  0  0  0  0  0  0  0  0
    7.0777    9.7931   25.7242 C   0  0  0  0  0  0  0  0  0  0  0  0
    6.2129   10.3854   26.6461 C   0  0  0  0  0  0  0  0  0  0  0  0
    6.1072   11.7663   26.7580 C   0  0  0  0  0  0  0  0  0  0  0  0
    5.2188   12.2025   27.7030 O   0  0  0  0  0  0  0  0  0  0  0  0
    4.9451   13.5996   27.7206 C   0  0  0  0  0  0  0  0  0  0  0  0
    6.8560   12.5747   25.9112 C   0  0  0  0  0  0  0  0  0  0  0  0
    7.7592   11.9865   25.0008 C   0  0  0  0  0  0  0  0  0  0  0  0
  1  2  2  0
  2  3  1  0
  3  4  1  0
  4  5  1  0
  5  6  1  0
  6  7  2  0
  6  8  1  0
  8  9  2  0
  9 10  1  0
  9 11  1  0
 11 12  1  0
 12 13  1  0
 11 14  1  0
 14 15  2  0
 15 16  1  0
 16 17  2  0
 17 18  1  0
 18 19  1  0
 17 20  1  0
 20 21  2  0
 21  8  1  0
 21 14  1  0
M  END
>  <alias>  (1527) 
None

>  <rmsd(smina/fragmenstein)>  (1527) 
0.513

>  <smiles>  (1527) 
C=CCCNC(=O)c1c(C)n(CC)c2ccc(OC)cc12

>  <gnina_score>  (1527) 
5.564

>  <inspiration_score>  (1527) 
None

>  <energy_score>  (1527) 
-5.738383

>  <distance_score>  (1527) 
1.786797

>  <gnina_score_min>  (1527) 
5.477

>  <inchikey>  (1527) 
OWWHCJNGYLGREB-UHFFFAOYSA-N

>  <exports>  (1527) 
['/opt/xchem-fragalysis-2/maxwin/BulkDock/OUTPUTS/openbind_a71ev2a_c2_elabs_1LOUU54.sdf', '/opt/xchem-fragalysis-2/maxwin/BulkDock/OUTPUTS/openbind_a71ev2a_c2_elabs_1LSYIDY.sdf']

>  <name>  (1527) 
P577545

>  <ref_pdb>  (1527) 
A3066a

>  <subsites>  (1527) 
None

>  <HIPPO Pose ID>  (1527) 
577545

>  <ref_mols>  (1527) 
A3066a

>  <HIPPO Compound ID>  (1527) 
352080

>  <tags>  (1527) 
openbind_a71ev2a_c2_elabs,syndirella_product,openbind_a71ev2a_c2_elabs_fragonly_scored_top80percent,openbind_a71ev2a_c2_elabs_scored,BulkDock Fragalysis export,openbind_a71ev2a_c2_elabs_scored_top80percent,openbind_a71ev2a_c2_elabs_activefrags_only_scored_5.2plus,syndirella_placed

>  <smina_score_min>  (1527) 
-5.271

$$$$
P577546
     RDKit          3D

 21 22  0  0  0  0  0  0  0  0999 V2000
   10.1037    8.1063   23.5974 C   0  0  0  0  0  0  0  0  0  0  0  0
    8.7419    8.7439   23.8119 C   0  0  0  0  0  0  0  0  0  0  0  0
    8.6668   10.1766   24.0623 N   0  0  0  0  0  0  0  0  0  0  0  0
    9.4078   11.1426   23.4429 C   0  0  0  0  0  0  0  0  0  0  0  0
   10.4754   10.7907   22.5305 C   0  0  0  0  0  0  0  0  0  0  0  0
    9.1327   12.3716   23.9931 C   0  0  0  0  0  0  0  0  0  0  0  0
    9.8937   13.5884   23.7278 C   0  0  0  0  0  0  0  0  0  0  0  0
   10.2881   14.2119   24.6317 O   0  0  0  0  0  0  0  0  0  0  0  0
   10.1219   13.7700   22.2097 N   0  0  0  0  0  0  0  0  0  0  0  0
   10.8107   14.8207   21.4769 C   0  0  0  0  0  0  0  0  0  0  0  0
   11.4159   14.3108   20.1640 C   0  0  0  0  0  0  0  0  0  0  0  0
    9.7736   15.8773   21.0803 C   0  0  0  0  0  0  0  0  0  0  0  0
   12.0066   15.2872   22.2993 C   0  0  0  0  0  0  0  0  0  0  0  0
    8.1302   12.1516   24.9717 C   0  0  0  0  0  0  0  0  0  0  0  0
    7.4563   13.0104   25.8636 C   0  0  0  0  0  0  0  0  0  0  0  0
    6.5088   12.4857   26.7417 C   0  0  0  0  0  0  0  0  0  0  0  0
    5.7885   13.2112   27.6532 O   0  0  0  0  0  0  0  0  0  0  0  0
    5.7389   14.6186   27.4355 C   0  0  0  0  0  0  0  0  0  0  0  0
    6.2473   11.1186   26.7431 C   0  0  0  0  0  0  0  0  0  0  0  0
    6.8865   10.2483   25.8586 C   0  0  0  0  0  0  0  0  0  0  0  0
    7.8442   10.7814   24.9905 C   0  0  0  0  0  0  0  0  0  0  0  0
  1  2  1  0
  2  3  1  0
  3  4  1  0
  4  5  1  0
  4  6  2  0
  6  7  1  0
  7  8  2  0
  7  9  1  0
  9 10  1  0
 10 11  1  0
 10 12  1  0
 10 13  1  0
  6 14  1  0
 14 15  2  0
 15 16  1  0
 16 17  1  0
 17 18  1  0
 16 19  2  0
 19 20  1  0
 20 21  2  0
 21  3  1  0
 21 14  1  0
M  END
>  <alias>  (1528) 
None

>  <rmsd(smina/fragmenstein)>  (1528) 
0.974

>  <smiles>  (1528) 
CCn1c(C)c(C(=O)NC(C)(C)C)c2cc(OC)ccc21

>  <gnina_score>  (1528) 
5.621

>  <inspiration_score>  (1528) 
None

>  <energy_score>  (1528) 
-2.184652

>  <distance_score>  (1528) 
1.070973

>  <gnina_score_min>  (1528) 
5.477

>  <inchikey>  (1528) 
UAZKCAPGSBOGMF-UHFFFAOYSA-N

>  <exports>  (1528) 
['/opt/xchem-fragalysis-2/maxwin/BulkDock/OUTPUTS/openbind_a71ev2a_c2_elabs_1LOUU54.sdf', '/opt/xchem-fragalysis-2/maxwin/BulkDock/OUTPUTS/openbind_a71ev2a_c2_elabs_1LSYIDY.sdf']

>  <name>  (1528) 
P577546

>  <ref_pdb>  (1528) 
A3066a

>  <subsites>  (1528) 
None

>  <HIPPO Pose ID>  (1528) 
577546

>  <ref_mols>  (1528) 
A3066a

>  <HIPPO Compound ID>  (1528) 
352081

>  <tags>  (1528) 
openbind_a71ev2a_c2_elabs,syndirella_product,openbind_a71ev2a_c2_elabs_fragonly_scored_top80percent,openbind_a71ev2a_c2_elabs_scored,BulkDock Fragalysis export,openbind_a71ev2a_c2_elabs_scored_top80percent,openbind_a71ev2a_c2_elabs_activefrags_only_scored_5.2plus,syndirella_placed

>  <smina_score_min>  (1528) 
-5.759

$$$$
P577547
     RDKit          3D

 21 22  0  0  0  0  0  0  0  0999 V2000
   10.1897    8.1678   23.5626 C   0  0  0  0  0  0  0  0  0  0  0  0
    8.7706    8.6317   23.8419 C   0  0  0  0  0  0  0  0  0  0  0  0
    8.5874   10.0077   24.2574 N   0  0  0  0  0  0  0  0  0  0  0  0
    9.2533   11.0672   23.7366 C   0  0  0  0  0  0  0  0  0  0  0  0
   10.1320   10.9669   22.5677 C   0  0  0  0  0  0  0  0  0  0  0  0
    8.9734   12.1761   24.5120 C   0  0  0  0  0  0  0  0  0  0  0  0
    9.5774   13.4489   24.2484 C   0  0  0  0  0  0  0  0  0  0  0  0
    8.9469   14.4092   24.0981 O   0  0  0  0  0  0  0  0  0  0  0  0
   11.0813   13.2217   24.1196 N   0  0  0  0  0  0  0  0  0  0  0  0
   12.1071   14.0921   23.6916 C   0  0  0  0  0  0  0  0  0  0  0  0
   12.1728   13.8965   22.1867 C   0  0  0  0  0  0  0  0  0  0  0  0
   12.9453   14.9866   21.5373 C   0  0  0  0  0  0  0  0  0  0  0  0
   12.3044   16.1429   21.8430 F   0  0  0  0  0  0  0  0  0  0  0  0
    7.9615   11.8314   25.4100 C   0  0  0  0  0  0  0  0  0  0  0  0
    7.2385   12.5569   26.3721 C   0  0  0  0  0  0  0  0  0  0  0  0
    6.2783   11.9097   27.1456 C   0  0  0  0  0  0  0  0  0  0  0  0
    5.6739   12.6989   28.0856 O   0  0  0  0  0  0  0  0  0  0  0  0
    4.6220   12.1113   28.8418 C   0  0  0  0  0  0  0  0  0  0  0  0
    6.0131   10.5651   26.9185 C   0  0  0  0  0  0  0  0  0  0  0  0
    6.6890    9.8468   25.9265 C   0  0  0  0  0  0  0  0  0  0  0  0
    7.7054   10.4742   25.2132 C   0  0  0  0  0  0  0  0  0  0  0  0
  1  2  1  0
  2  3  1  0
  3  4  1  0
  4  5  1  0
  4  6  2  0
  6  7  1  0
  7  8  2  0
  7  9  1  0
  9 10  1  0
 10 11  1  0
 11 12  1  0
 12 13  1  0
  6 14  1  0
 14 15  2  0
 15 16  1  0
 16 17  1  0
 17 18  1  0
 16 19  2  0
 19 20  1  0
 20 21  2  0
 21  3  1  0
 21 14  1  0
M  END
>  <alias>  (1529) 
None

>  <rmsd(smina/fragmenstein)>  (1529) 
0.809

>  <smiles>  (1529) 
CCn1c(C)c(C(=O)NCCCF)c2cc(OC)ccc21

>  <gnina_score>  (1529) 
5.415

>  <inspiration_score>  (1529) 
None

>  <energy_score>  (1529) 
-0.412678

>  <distance_score>  (1529) 
1.412324

>  <gnina_score_min>  (1529) 
5.374

>  <inchikey>  (1529) 
KIJMGWXJGFMXOT-UHFFFAOYSA-N

>  <exports>  (1529) 
['/opt/xchem-fragalysis-2/maxwin/BulkDock/OUTPUTS/openbind_a71ev2a_c2_elabs_1LOUU54.sdf', '/opt/xchem-fragalysis-2/maxwin/BulkDock/OUTPUTS/openbind_a71ev2a_c2_elabs_1LSYIDY.sdf']

>  <name>  (1529) 
P577547

>  <ref_pdb>  (1529) 
A3066a

>  <subsites>  (1529) 
None

>  <HIPPO Pose ID>  (1529) 
577547

>  <ref_mols>  (1529) 
A3066a

>  <HIPPO Compound ID>  (1529) 
352088

>  <tags>  (1529) 
openbind_a71ev2a_c2_elabs,syndirella_product,openbind_a71ev2a_c2_elabs_fragonly_scored_top80percent,openbind_a71ev2a_c2_elabs_scored,BulkDock Fragalysis export,openbind_a71ev2a_c2_elabs_scored_top80percent,openbind_a71ev2a_c2_elabs_activefrags_only_scored_5.2plus,syndirella_placed

>  <smina_score_min>  (1529) 
-5.206

$$$$
P577548
     RDKit          3D

 21 22  0  0  0  0  0  0  0  0999 V2000
    9.1398    8.1865   22.7523 C   0  0  0  0  0  0  0  0  0  0  0  0
    8.9829    8.8464   24.0981 C   0  0  0  0  0  0  0  0  0  0  0  0
    8.6714   10.2620   24.1686 N   0  0  0  0  0  0  0  0  0  0  0  0
    9.4800   11.2364   23.6591 C   0  0  0  0  0  0  0  0  0  0  0  0
   10.6274   10.9252   22.8251 C   0  0  0  0  0  0  0  0  0  0  0  0
    9.1532   12.4557   24.2013 C   0  0  0  0  0  0  0  0  0  0  0  0
    9.9531   13.6461   23.9518 C   0  0  0  0  0  0  0  0  0  0  0  0
   10.4865   14.2080   24.8215 O   0  0  0  0  0  0  0  0  0  0  0  0
   10.0050   13.8806   22.4347 N   0  0  0  0  0  0  0  0  0  0  0  0
   10.8009   14.7993   21.6531 C   0  0  1  0  0  0  0  0  0  0  0  0
   12.2785   14.4439   21.7331 C   0  0  0  0  0  0  0  0  0  0  0  0
   10.2984   14.8742   20.2151 C   0  0  0  0  0  0  0  0  0  0  0  0
    8.9365   14.8002   20.2214 F   0  0  0  0  0  0  0  0  0  0  0  0
    8.0864   12.2211   25.0954 C   0  0  0  0  0  0  0  0  0  0  0  0
    7.3653   13.0599   25.9659 C   0  0  0  0  0  0  0  0  0  0  0  0
    6.3950   12.5078   26.8008 C   0  0  0  0  0  0  0  0  0  0  0  0
    5.6340   13.2104   27.6976 O   0  0  0  0  0  0  0  0  0  0  0  0
    5.5512   14.6163   27.4799 C   0  0  0  0  0  0  0  0  0  0  0  0
    6.1570   11.1360   26.7788 C   0  0  0  0  0  0  0  0  0  0  0  0
    6.8285   10.2870   25.8977 C   0  0  0  0  0  0  0  0  0  0  0  0
    7.8015   10.8473   25.0659 C   0  0  0  0  0  0  0  0  0  0  0  0
  1  2  1  0
  2  3  1  0
  3  4  1  0
  4  5  1  0
  4  6  2  0
  6  7  1  0
  7  8  2  0
  7  9  1  0
  9 10  1  0
 10 11  1  6
 10 12  1  0
 12 13  1  0
  6 14  1  0
 14 15  2  0
 15 16  1  0
 16 17  1  0
 17 18  1  0
 16 19  2  0
 19 20  1  0
 20 21  2  0
 21  3  1  0
 21 14  1  0
M  END
>  <alias>  (1530) 
None

>  <rmsd(smina/fragmenstein)>  (1530) 
1.187

>  <smiles>  (1530) 
CCn1c(C)c(C(=O)N[C@@H](C)CF)c2cc(OC)ccc21

>  <gnina_score>  (1530) 
5.607

>  <inspiration_score>  (1530) 
None

>  <energy_score>  (1530) 
-7.736973

>  <distance_score>  (1530) 
1.1423

>  <gnina_score_min>  (1530) 
5.464

>  <inchikey>  (1530) 
ZHOHZQCSRZLUOU-JTQLQIEISA-N

>  <exports>  (1530) 
['/opt/xchem-fragalysis-2/maxwin/BulkDock/OUTPUTS/openbind_a71ev2a_c2_elabs_1LOUU54.sdf', '/opt/xchem-fragalysis-2/maxwin/BulkDock/OUTPUTS/openbind_a71ev2a_c2_elabs_1LSYIDY.sdf']

>  <name>  (1530) 
P577548

>  <ref_pdb>  (1530) 
A3066a

>  <subsites>  (1530) 
None

>  <HIPPO Pose ID>  (1530) 
577548

>  <ref_mols>  (1530) 
A3066a

>  <HIPPO Compound ID>  (1530) 
352090

>  <tags>  (1530) 
openbind_a71ev2a_c2_elabs,syndirella_product,openbind_a71ev2a_c2_elabs_fragonly_scored_top80percent,openbind_a71ev2a_c2_elabs_scored,BulkDock Fragalysis export,openbind_a71ev2a_c2_elabs_scored_top80percent,openbind_a71ev2a_c2_elabs_activefrags_only_scored_5.2plus,syndirella_placed

>  <smina_score_min>  (1530) 
-6.333

$$$$
P577549
     RDKit          3D

 21 22  0  0  0  0  0  0  0  0999 V2000
    9.1793    8.0854   22.7165 C   0  0  0  0  0  0  0  0  0  0  0  0
    9.0681    8.7311   24.0687 C   0  0  0  0  0  0  0  0  0  0  0  0
    8.6237   10.1066   24.1511 N   0  0  0  0  0  0  0  0  0  0  0  0
    9.3253   11.1511   23.6169 C   0  0  0  0  0  0  0  0  0  0  0  0
   10.4897   10.9247   22.7696 C   0  0  0  0  0  0  0  0  0  0  0  0
    8.8541   12.3235   24.1560 C   0  0  0  0  0  0  0  0  0  0  0  0
    9.4124   13.6243   23.8939 C   0  0  0  0  0  0  0  0  0  0  0  0
    9.7093   14.3201   24.7756 O   0  0  0  0  0  0  0  0  0  0  0  0
    9.5489   13.8243   22.3804 N   0  0  0  0  0  0  0  0  0  0  0  0
   10.1649   14.8804   21.6322 C   0  0  0  0  0  0  0  0  0  0  0  0
   11.6908   14.9640   21.7328 C   0  0  1  0  0  0  0  0  0  0  0  0
   12.3510   14.4356   22.9860 C   0  0  0  0  0  0  0  0  0  0  0  0
   12.4380   14.1784   20.3211 Cl  0  0  0  0  0  0  0  0  0  0  0  0
    7.8852   11.9832   25.1203 C   0  0  0  0  0  0  0  0  0  0  0  0
    7.1517   12.7355   26.0563 C   0  0  0  0  0  0  0  0  0  0  0  0
    6.2690   12.0956   26.9257 C   0  0  0  0  0  0  0  0  0  0  0  0
    5.6443   12.9244   27.8171 O   0  0  0  0  0  0  0  0  0  0  0  0
    4.7094   12.3299   28.7088 C   0  0  0  0  0  0  0  0  0  0  0  0
    6.0897   10.7215   26.8292 C   0  0  0  0  0  0  0  0  0  0  0  0
    6.7825    9.9648   25.8798 C   0  0  0  0  0  0  0  0  0  0  0  0
    7.7135   10.6012   25.0615 C   0  0  0  0  0  0  0  0  0  0  0  0
  1  2  1  0
  2  3  1  0
  3  4  1  0
  4  5  1  0
  4  6  2  0
  6  7  1  0
  7  8  2  0
  7  9  1  0
  9 10  1  0
 10 11  1  0
 11 12  1  1
 11 13  1  0
  6 14  1  0
 14 15  2  0
 15 16  1  0
 16 17  1  0
 17 18  1  0
 16 19  2  0
 19 20  1  0
 20 21  2  0
 21  3  1  0
 21 14  1  0
M  END
>  <alias>  (1531) 
None

>  <rmsd(smina/fragmenstein)>  (1531) 
0.534

>  <smiles>  (1531) 
CCn1c(C)c(C(=O)NC[C@@H](C)Cl)c2cc(OC)ccc21

>  <gnina_score>  (1531) 
5.622

>  <inspiration_score>  (1531) 
None

>  <energy_score>  (1531) 
-5.068489

>  <distance_score>  (1531) 
1.375199

>  <gnina_score_min>  (1531) 
5.695

>  <inchikey>  (1531) 
OVZKYECRGCPADW-SNVBAGLBSA-N

>  <exports>  (1531) 
['/opt/xchem-fragalysis-2/maxwin/BulkDock/OUTPUTS/openbind_a71ev2a_c2_elabs_1LOUU54.sdf', '/opt/xchem-fragalysis-2/maxwin/BulkDock/OUTPUTS/openbind_a71ev2a_c2_elabs_1LSYIDY.sdf']

>  <name>  (1531) 
P577549

>  <ref_pdb>  (1531) 
A3066a

>  <subsites>  (1531) 
None

>  <HIPPO Pose ID>  (1531) 
577549

>  <ref_mols>  (1531) 
A3066a

>  <HIPPO Compound ID>  (1531) 
352091

>  <tags>  (1531) 
openbind_a71ev2a_c2_elabs,syndirella_product,openbind_a71ev2a_c2_elabs_fragonly_scored_top80percent,BulkDock Fragalysis export,openbind_a71ev2a_c2_elabs_scored,openbind_a71ev2a_c2_elabs_scored_top80percent,openbind_a71ev2a_c2_elabs_activefrags_only_scored_5.2plus,openbind_a71ev2a_c2_elabs_activefrags_only_scored_5.5plus,syndirella_placed

>  <smina_score_min>  (1531) 
-4.708

$$$$
P577550
     RDKit          3D

 21 22  0  0  0  0  0  0  0  0999 V2000
    9.5019   16.0393   20.4983 C   0  0  0  0  0  0  0  0  0  0  0  0
   10.5563   14.9477   20.5089 C   0  0  0  0  0  0  0  0  0  0  0  0
   11.1058   14.7058   21.9131 C   0  0  2  0  0  0  0  0  0  0  0  0
   12.5048   14.1123   21.8608 C   0  0  0  0  0  0  0  0  0  0  0  0
   10.2245   13.8190   22.6282 N   0  0  0  0  0  0  0  0  0  0  0  0
   10.0226   13.6149   24.1380 C   0  0  0  0  0  0  0  0  0  0  0  0
   10.4802   14.1848   25.0451 O   0  0  0  0  0  0  0  0  0  0  0  0
    9.1767   12.4382   24.3169 C   0  0  0  0  0  0  0  0  0  0  0  0
    9.4789   11.2321   23.7221 C   0  0  0  0  0  0  0  0  0  0  0  0
   10.6312   10.9214   22.8886 C   0  0  0  0  0  0  0  0  0  0  0  0
    8.6496   10.2545   24.1903 N   0  0  0  0  0  0  0  0  0  0  0  0
    8.9564    8.8384   24.0986 C   0  0  0  0  0  0  0  0  0  0  0  0
    9.1242    8.1986   22.7445 C   0  0  0  0  0  0  0  0  0  0  0  0
    7.7793   10.8239   25.0969 C   0  0  0  0  0  0  0  0  0  0  0  0
    6.7843   10.2503   25.8934 C   0  0  0  0  0  0  0  0  0  0  0  0
    6.1319   11.0622   26.8251 C   0  0  0  0  0  0  0  0  0  0  0  0
    6.4239   12.4178   26.9340 C   0  0  0  0  0  0  0  0  0  0  0  0
    5.8451   13.2915   27.8149 O   0  0  0  0  0  0  0  0  0  0  0  0
    4.7565   12.8031   28.5885 C   0  0  0  0  0  0  0  0  0  0  0  0
    7.4012   12.9870   26.1148 C   0  0  0  0  0  0  0  0  0  0  0  0
    8.0994   12.1863   25.1945 C   0  0  0  0  0  0  0  0  0  0  0  0
  1  2  1  0
  2  3  1  0
  3  4  1  6
  3  5  1  0
  5  6  1  0
  6  7  2  0
  6  8  1  0
  8  9  2  0
  9 10  1  0
  9 11  1  0
 11 12  1  0
 12 13  1  0
 11 14  1  0
 14 15  2  0
 15 16  1  0
 16 17  2  0
 17 18  1  0
 18 19  1  0
 17 20  1  0
 20 21  2  0
 21  8  1  0
 21 14  1  0
M  END
>  <alias>  (1532) 
None

>  <rmsd(smina/fragmenstein)>  (1532) 
1.234

>  <smiles>  (1532) 
CC[C@H](C)NC(=O)c1c(C)n(CC)c2ccc(OC)cc12

>  <gnina_score>  (1532) 
5.636

>  <inspiration_score>  (1532) 
None

>  <energy_score>  (1532) 
-1.073359

>  <distance_score>  (1532) 
1.115802

>  <gnina_score_min>  (1532) 
5.467

>  <inchikey>  (1532) 
XZIGUQYLGHQDMS-NSHDSACASA-N

>  <exports>  (1532) 
['/opt/xchem-fragalysis-2/maxwin/BulkDock/OUTPUTS/openbind_a71ev2a_c2_elabs_1LOUU54.sdf', '/opt/xchem-fragalysis-2/maxwin/BulkDock/OUTPUTS/openbind_a71ev2a_c2_elabs_1LSYIDY.sdf']

>  <name>  (1532) 
P577550

>  <ref_pdb>  (1532) 
A3066a

>  <subsites>  (1532) 
None

>  <HIPPO Pose ID>  (1532) 
577550

>  <ref_mols>  (1532) 
A3066a

>  <HIPPO Compound ID>  (1532) 
352099

>  <tags>  (1532) 
openbind_a71ev2a_c2_elabs,syndirella_product,openbind_a71ev2a_c2_elabs_fragonly_scored_top80percent,openbind_a71ev2a_c2_elabs_scored,BulkDock Fragalysis export,openbind_a71ev2a_c2_elabs_scored_top80percent,openbind_a71ev2a_c2_elabs_activefrags_only_scored_5.2plus,syndirella_placed

>  <smina_score_min>  (1532) 
-6.481

$$$$
P577551
     RDKit          3D

 21 22  0  0  0  0  0  0  0  0999 V2000
   11.5283   14.3922   19.2977 C   0  0  0  0  0  0  0  0  0  0  0  0
   11.1381   14.5618   20.4187 C   0  0  0  0  0  0  0  0  0  0  0  0
   10.8970   14.8467   21.8304 C   0  0  2  0  0  0  0  0  0  0  0  0
   12.2421   14.8729   22.5348 C   0  0  0  0  0  0  0  0  0  0  0  0
   10.0484   13.8851   22.4659 N   0  0  0  0  0  0  0  0  0  0  0  0
    9.7424   13.6522   23.9545 C   0  0  0  0  0  0  0  0  0  0  0  0
   10.0712   14.2534   24.8958 O   0  0  0  0  0  0  0  0  0  0  0  0
    9.0004   12.4195   24.1315 C   0  0  0  0  0  0  0  0  0  0  0  0
    9.4106   11.2157   23.6150 C   0  0  0  0  0  0  0  0  0  0  0  0
   10.6084   10.9435   22.8351 C   0  0  0  0  0  0  0  0  0  0  0  0
    8.6374   10.2089   24.1244 N   0  0  0  0  0  0  0  0  0  0  0  0
    9.0087    8.8083   24.0662 C   0  0  0  0  0  0  0  0  0  0  0  0
    9.1772    8.1520   22.7229 C   0  0  0  0  0  0  0  0  0  0  0  0
    7.7424   10.7550   25.0223 C   0  0  0  0  0  0  0  0  0  0  0  0
    6.8066   10.1566   25.8683 C   0  0  0  0  0  0  0  0  0  0  0  0
    6.1198   10.9720   26.7689 C   0  0  0  0  0  0  0  0  0  0  0  0
    6.3003   12.3516   26.7932 C   0  0  0  0  0  0  0  0  0  0  0  0
    5.5328   13.0158   27.7128 O   0  0  0  0  0  0  0  0  0  0  0  0
    5.4484   14.4290   27.5594 C   0  0  0  0  0  0  0  0  0  0  0  0
    7.2208   12.9439   25.9315 C   0  0  0  0  0  0  0  0  0  0  0  0
    7.9565   12.1370   25.0408 C   0  0  0  0  0  0  0  0  0  0  0  0
  1  2  3  0
  2  3  1  0
  3  4  1  1
  3  5  1  0
  5  6  1  0
  6  7  2  0
  6  8  1  0
  8  9  2  0
  9 10  1  0
  9 11  1  0
 11 12  1  0
 12 13  1  0
 11 14  1  0
 14 15  2  0
 15 16  1  0
 16 17  2  0
 17 18  1  0
 18 19  1  0
 17 20  1  0
 20 21  2  0
 21  8  1  0
 21 14  1  0
M  END
>  <alias>  (1533) 
None

>  <rmsd(smina/fragmenstein)>  (1533) 
0.97

>  <smiles>  (1533) 
C#C[C@H](C)NC(=O)c1c(C)n(CC)c2ccc(OC)cc12

>  <gnina_score>  (1533) 
5.449

>  <inspiration_score>  (1533) 
None

>  <energy_score>  (1533) 
-0.478122

>  <distance_score>  (1533) 
1.17164

>  <gnina_score_min>  (1533) 
5.507

>  <inchikey>  (1533) 
MGHWTDSUBPPLNH-NSHDSACASA-N

>  <exports>  (1533) 
['/opt/xchem-fragalysis-2/maxwin/BulkDock/OUTPUTS/openbind_a71ev2a_c2_elabs_1LOUU54.sdf', '/opt/xchem-fragalysis-2/maxwin/BulkDock/OUTPUTS/openbind_a71ev2a_c2_elabs_1LSYIDY.sdf']

>  <name>  (1533) 
P577551

>  <ref_pdb>  (1533) 
A3066a

>  <subsites>  (1533) 
None

>  <HIPPO Pose ID>  (1533) 
577551

>  <ref_mols>  (1533) 
A3066a

>  <HIPPO Compound ID>  (1533) 
352100

>  <tags>  (1533) 
openbind_a71ev2a_c2_elabs,syndirella_product,openbind_a71ev2a_c2_elabs_fragonly_scored_top80percent,BulkDock Fragalysis export,openbind_a71ev2a_c2_elabs_scored,openbind_a71ev2a_c2_elabs_scored_top80percent,openbind_a71ev2a_c2_elabs_activefrags_only_scored_5.2plus,openbind_a71ev2a_c2_elabs_activefrags_only_scored_5.5plus,syndirella_placed

>  <smina_score_min>  (1533) 
-6.022

$$$$
P577552
     RDKit          3D

 21 23  0  0  0  0  0  0  0  0999 V2000
    9.1611    8.1351   22.7280 C   0  0  0  0  0  0  0  0  0  0  0  0
    9.2809    8.8473   24.0436 C   0  0  0  0  0  0  0  0  0  0  0  0
    8.7519   10.1931   24.1407 N   0  0  0  0  0  0  0  0  0  0  0  0
    9.3241   11.2724   23.5426 C   0  0  0  0  0  0  0  0  0  0  0  0
   10.4531   11.1779   22.6089 C   0  0  0  0  0  0  0  0  0  0  0  0
    8.7222   12.4289   24.0141 C   0  0  0  0  0  0  0  0  0  0  0  0
    9.0918   13.7139   23.4623 C   0  0  0  0  0  0  0  0  0  0  0  0
    8.3280   14.4457   22.9807 O   0  0  0  0  0  0  0  0  0  0  0  0
   10.6208   13.7991   23.5689 N   0  0  0  0  0  0  0  0  0  0  0  0
   11.5384   14.7509   23.0245 C   0  0  0  0  0  0  0  0  0  0  0  0
   12.8101   14.0153   22.5676 C   0  0  0  0  0  0  0  0  0  0  0  0
   12.7521   14.7877   21.2582 C   0  0  0  0  0  0  0  0  0  0  0  0
   11.2661   15.0532   21.5338 C   0  0  0  0  0  0  0  0  0  0  0  0
    7.8064   12.0503   25.0018 C   0  0  0  0  0  0  0  0  0  0  0  0
    6.9862   12.7707   25.8863 C   0  0  0  0  0  0  0  0  0  0  0  0
    6.1831   12.0866   26.7995 C   0  0  0  0  0  0  0  0  0  0  0  0
    5.4663   12.8906   27.6439 O   0  0  0  0  0  0  0  0  0  0  0  0
    4.6715   12.2469   28.6325 C   0  0  0  0  0  0  0  0  0  0  0  0
    6.1498   10.6970   26.7787 C   0  0  0  0  0  0  0  0  0  0  0  0
    6.9267    9.9676   25.8745 C   0  0  0  0  0  0  0  0  0  0  0  0
    7.7990   10.6500   25.0307 C   0  0  0  0  0  0  0  0  0  0  0  0
  1  2  1  0
  2  3  1  0
  3  4  1  0
  4  5  1  0
  4  6  2  0
  6  7  1  0
  7  8  2  0
  7  9  1  0
  9 10  1  0
 10 11  1  0
 11 12  1  0
 12 13  1  0
  6 14  1  0
 14 15  2  0
 15 16  1  0
 16 17  1  0
 17 18  1  0
 16 19  2  0
 19 20  1  0
 20 21  2  0
 21  3  1  0
 13 10  1  0
 21 14  1  0
M  END
>  <alias>  (1534) 
None

>  <rmsd(smina/fragmenstein)>  (1534) 
0.423

>  <smiles>  (1534) 
CCn1c(C)c(C(=O)NC2CCC2)c2cc(OC)ccc21

>  <gnina_score>  (1534) 
5.421

>  <inspiration_score>  (1534) 
None

>  <energy_score>  (1534) 
-2.618161

>  <distance_score>  (1534) 
1.455486

>  <gnina_score_min>  (1534) 
5.48

>  <inchikey>  (1534) 
WWXJVSSLTBZBKY-UHFFFAOYSA-N

>  <exports>  (1534) 
['/opt/xchem-fragalysis-2/maxwin/BulkDock/OUTPUTS/openbind_a71ev2a_c2_elabs_1LOUU54.sdf', '/opt/xchem-fragalysis-2/maxwin/BulkDock/OUTPUTS/openbind_a71ev2a_c2_elabs_1LSYIDY.sdf']

>  <name>  (1534) 
P577552

>  <ref_pdb>  (1534) 
A3066a

>  <subsites>  (1534) 
None

>  <HIPPO Pose ID>  (1534) 
577552

>  <ref_mols>  (1534) 
A3066a

>  <HIPPO Compound ID>  (1534) 
352103

>  <tags>  (1534) 
openbind_a71ev2a_c2_elabs,syndirella_product,openbind_a71ev2a_c2_elabs_fragonly_scored_top80percent,openbind_a71ev2a_c2_elabs_scored,BulkDock Fragalysis export,openbind_a71ev2a_c2_elabs_scored_top80percent,openbind_a71ev2a_c2_elabs_activefrags_only_scored_5.2plus,syndirella_placed

>  <smina_score_min>  (1534) 
-5.109

$$$$
P577553
     RDKit          3D

 21 22  0  0  0  0  0  0  0  0999 V2000
   11.0784   14.5528   19.7384 C   0  0  0  0  0  0  0  0  0  0  0  0
   10.0530   15.6564   19.6375 C   0  0  0  0  0  0  0  0  0  0  0  0
    9.5617   16.0575   21.0180 C   0  0  0  0  0  0  0  0  0  0  0  0
    8.3689   15.2452   21.4747 C   0  0  0  0  0  0  0  0  0  0  0  0
    8.6432   14.1532   22.3407 N   0  0  0  0  0  0  0  0  0  0  0  0
    8.4453   14.0076   23.8512 C   0  0  0  0  0  0  0  0  0  0  0  0
    8.0980   14.7833   24.6442 O   0  0  0  0  0  0  0  0  0  0  0  0
    8.6688   12.6246   24.2138 C   0  0  0  0  0  0  0  0  0  0  0  0
    9.6001   11.7209   23.7263 C   0  0  0  0  0  0  0  0  0  0  0  0
   10.8556   11.9800   22.9882 C   0  0  0  0  0  0  0  0  0  0  0  0
    9.1610   10.4643   24.0873 N   0  0  0  0  0  0  0  0  0  0  0  0
    9.8278    9.2012   23.8328 C   0  0  0  0  0  0  0  0  0  0  0  0
    9.3675    8.4534   22.6285 C   0  0  0  0  0  0  0  0  0  0  0  0
    8.0812   10.5945   24.9381 C   0  0  0  0  0  0  0  0  0  0  0  0
    7.2657    9.6507   25.5488 C   0  0  0  0  0  0  0  0  0  0  0  0
    6.3195   10.0735   26.4891 C   0  0  0  0  0  0  0  0  0  0  0  0
    6.1610   11.4175   26.7930 C   0  0  0  0  0  0  0  0  0  0  0  0
    5.2941   11.9273   27.7208 O   0  0  0  0  0  0  0  0  0  0  0  0
    4.7193   10.9988   28.6346 C   0  0  0  0  0  0  0  0  0  0  0  0
    6.8927   12.3617   26.0806 C   0  0  0  0  0  0  0  0  0  0  0  0
    7.8646   11.9445   25.1499 C   0  0  0  0  0  0  0  0  0  0  0  0
  1  2  1  0
  2  3  1  0
  3  4  1  0
  4  5  1  0
  5  6  1  0
  6  7  2  0
  6  8  1  0
  8  9  2  0
  9 10  1  0
  9 11  1  0
 11 12  1  0
 12 13  1  0
 11 14  1  0
 14 15  2  0
 15 16  1  0
 16 17  2  0
 17 18  1  0
 18 19  1  0
 17 20  1  0
 20 21  2  0
 21  8  1  0
 21 14  1  0
M  END
>  <alias>  (1535) 
None

>  <rmsd(smina/fragmenstein)>  (1535) 
0.561

>  <smiles>  (1535) 
CCCCNC(=O)c1c(C)n(CC)c2ccc(OC)cc12

>  <gnina_score>  (1535) 
5.482

>  <inspiration_score>  (1535) 
None

>  <energy_score>  (1535) 
-3.751866

>  <distance_score>  (1535) 
1.984481

>  <gnina_score_min>  (1535) 
5.435

>  <inchikey>  (1535) 
MXOFETKYEAOHNN-UHFFFAOYSA-N

>  <exports>  (1535) 
['/opt/xchem-fragalysis-2/maxwin/BulkDock/OUTPUTS/openbind_a71ev2a_c2_elabs_1LOUU54.sdf', '/opt/xchem-fragalysis-2/maxwin/BulkDock/OUTPUTS/openbind_a71ev2a_c2_elabs_1LSYIDY.sdf']

>  <name>  (1535) 
P577553

>  <ref_pdb>  (1535) 
A3066a

>  <subsites>  (1535) 
None

>  <HIPPO Pose ID>  (1535) 
577553

>  <ref_mols>  (1535) 
A3066a

>  <HIPPO Compound ID>  (1535) 
352110

>  <tags>  (1535) 
openbind_a71ev2a_c2_elabs,syndirella_product,openbind_a71ev2a_c2_elabs_fragonly_scored_top80percent,openbind_a71ev2a_c2_elabs_scored,BulkDock Fragalysis export,openbind_a71ev2a_c2_elabs_scored_top80percent,openbind_a71ev2a_c2_elabs_activefrags_only_scored_5.2plus,syndirella_placed

>  <smina_score_min>  (1535) 
-5.501

$$$$
P577554
     RDKit          3D

 21 22  0  0  0  0  0  0  0  0999 V2000
    9.4680    8.3315   22.7642 C   0  0  0  0  0  0  0  0  0  0  0  0
    8.6706    8.9241   23.9095 C   0  0  0  0  0  0  0  0  0  0  0  0
    8.6590   10.3441   24.2219 N   0  0  0  0  0  0  0  0  0  0  0  0
    9.5539   11.3005   23.8500 C   0  0  0  0  0  0  0  0  0  0  0  0
   10.7046   10.9747   23.0251 C   0  0  0  0  0  0  0  0  0  0  0  0
    9.3124   12.4791   24.5406 C   0  0  0  0  0  0  0  0  0  0  0  0
   10.2770   13.5920   24.5791 C   0  0  0  0  0  0  0  0  0  0  0  0
   10.5854   14.0894   25.5841 O   0  0  0  0  0  0  0  0  0  0  0  0
   10.7924   13.8251   23.1575 N   0  0  0  0  0  0  0  0  0  0  0  0
   11.8614   14.6493   22.6778 C   0  0  0  0  0  0  0  0  0  0  0  0
   11.9981   14.4557   21.1706 C   0  0  0  0  0  0  0  0  0  0  0  0
   10.6903   14.5256   20.4914 N   0  0  0  0  0  0  0  0  0  0  0  0
   10.2433   15.9012   20.5477 O   0  0  0  0  0  0  0  0  0  0  0  0
    8.1657   12.2371   25.3332 C   0  0  0  0  0  0  0  0  0  0  0  0
    7.4602   13.0135   26.2696 C   0  0  0  0  0  0  0  0  0  0  0  0
    6.4372   12.4369   27.0261 C   0  0  0  0  0  0  0  0  0  0  0  0
    5.8546   13.2848   27.9300 O   0  0  0  0  0  0  0  0  0  0  0  0
    4.7334   12.7881   28.6502 C   0  0  0  0  0  0  0  0  0  0  0  0
    6.1137   11.0960   26.8469 C   0  0  0  0  0  0  0  0  0  0  0  0
    6.7693   10.3116   25.8952 C   0  0  0  0  0  0  0  0  0  0  0  0
    7.7993   10.8981   25.1526 C   0  0  0  0  0  0  0  0  0  0  0  0
  1  2  1  0
  2  3  1  0
  3  4  1  0
  4  5  1  0
  4  6  2  0
  6  7  1  0
  7  8  2  0
  7  9  1  0
  9 10  1  0
 10 11  1  0
 11 12  1  0
 12 13  1  0
  6 14  1  0
 14 15  2  0
 15 16  1  0
 16 17  1  0
 17 18  1  0
 16 19  2  0
 19 20  1  0
 20 21  2  0
 21  3  1  0
 21 14  1  0
M  END
>  <alias>  (1536) 
None

>  <rmsd(smina/fragmenstein)>  (1536) 
1.26

>  <smiles>  (1536) 
CCn1c(C)c(C(=O)NCCNO)c2cc(OC)ccc21

>  <gnina_score>  (1536) 
5.6

>  <inspiration_score>  (1536) 
None

>  <energy_score>  (1536) 
-1.667841

>  <distance_score>  (1536) 
1.130123

>  <gnina_score_min>  (1536) 
5.573

>  <inchikey>  (1536) 
QCNLKOSYWXHNLY-UHFFFAOYSA-N

>  <exports>  (1536) 
['/opt/xchem-fragalysis-2/maxwin/BulkDock/OUTPUTS/openbind_a71ev2a_c2_elabs_1LOUU54.sdf', '/opt/xchem-fragalysis-2/maxwin/BulkDock/OUTPUTS/openbind_a71ev2a_c2_elabs_1LSYIDY.sdf']

>  <name>  (1536) 
P577554

>  <ref_pdb>  (1536) 
A3066a

>  <subsites>  (1536) 
None

>  <HIPPO Pose ID>  (1536) 
577554

>  <ref_mols>  (1536) 
A3066a

>  <HIPPO Compound ID>  (1536) 
352119

>  <tags>  (1536) 
openbind_a71ev2a_c2_elabs,syndirella_product,openbind_a71ev2a_c2_elabs_fragonly_scored_top80percent,BulkDock Fragalysis export,openbind_a71ev2a_c2_elabs_scored,openbind_a71ev2a_c2_elabs_scored_top80percent,openbind_a71ev2a_c2_elabs_activefrags_only_scored_5.2plus,openbind_a71ev2a_c2_elabs_activefrags_only_scored_5.5plus,syndirella_placed

>  <smina_score_min>  (1536) 
-6.042

$$$$
P577555
     RDKit          3D

 21 22  0  0  0  0  0  0  0  0999 V2000
   10.2852    8.3088   23.4935 C   0  0  0  0  0  0  0  0  0  0  0  0
    8.8950    8.8394   23.7704 C   0  0  0  0  0  0  0  0  0  0  0  0
    8.7391   10.2507   24.0890 N   0  0  0  0  0  0  0  0  0  0  0  0
    9.3891   11.3119   23.5296 C   0  0  0  0  0  0  0  0  0  0  0  0
   10.5199   11.2539   22.6048 C   0  0  0  0  0  0  0  0  0  0  0  0
    8.8958   12.4829   24.0625 C   0  0  0  0  0  0  0  0  0  0  0  0
    9.4256   13.7526   23.6244 C   0  0  0  0  0  0  0  0  0  0  0  0
   10.2382   14.3120   24.2405 O   0  0  0  0  0  0  0  0  0  0  0  0
    8.8090   14.0831   22.2564 N   0  0  0  0  0  0  0  0  0  0  0  0
    9.1319   15.1276   21.3064 C   0  0  0  0  0  0  0  0  0  0  0  0
   10.3970   14.8207   20.5016 C   0  0  1  0  0  0  0  0  0  0  0  0
   10.4936   15.7046   19.4700 F   0  0  0  0  0  0  0  0  0  0  0  0
   11.8789   14.8418   21.4801 Cl  0  0  0  0  0  0  0  0  0  0  0  0
    7.9643   12.1427   25.0501 C   0  0  0  0  0  0  0  0  0  0  0  0
    7.1980   12.9044   25.9519 C   0  0  0  0  0  0  0  0  0  0  0  0
    6.3166   12.2560   26.8138 C   0  0  0  0  0  0  0  0  0  0  0  0
    5.5181   12.8666   27.7433 O   0  0  0  0  0  0  0  0  0  0  0  0
    5.4068   14.2832   27.6545 C   0  0  0  0  0  0  0  0  0  0  0  0
    6.1954   10.8702   26.7639 C   0  0  0  0  0  0  0  0  0  0  0  0
    6.9241   10.1006   25.8553 C   0  0  0  0  0  0  0  0  0  0  0  0
    7.8416   10.7481   25.0256 C   0  0  0  0  0  0  0  0  0  0  0  0
  1  2  1  0
  2  3  1  0
  3  4  1  0
  4  5  1  0
  4  6  2  0
  6  7  1  0
  7  8  2  0
  7  9  1  0
  9 10  1  0
 10 11  1  0
 11 12  1  6
 11 13  1  0
  6 14  1  0
 14 15  2  0
 15 16  1  0
 16 17  1  0
 17 18  1  0
 16 19  2  0
 19 20  1  0
 20 21  2  0
 21  3  1  0
 21 14  1  0
M  END
>  <alias>  (1537) 
None

>  <rmsd(smina/fragmenstein)>  (1537) 
0.284

>  <smiles>  (1537) 
CCn1c(C)c(C(=O)NC[C@@H](F)Cl)c2cc(OC)ccc21

>  <gnina_score>  (1537) 
5.642

>  <inspiration_score>  (1537) 
None

>  <energy_score>  (1537) 
-3.300976

>  <distance_score>  (1537) 
1.545462

>  <gnina_score_min>  (1537) 
5.598

>  <inchikey>  (1537) 
YKQSSHBOYOOLJV-CYBMUJFWSA-N

>  <exports>  (1537) 
['/opt/xchem-fragalysis-2/maxwin/BulkDock/OUTPUTS/openbind_a71ev2a_c2_elabs_1LOUU54.sdf', '/opt/xchem-fragalysis-2/maxwin/BulkDock/OUTPUTS/openbind_a71ev2a_c2_elabs_1LSYIDY.sdf']

>  <name>  (1537) 
P577555

>  <ref_pdb>  (1537) 
A3066a

>  <subsites>  (1537) 
None

>  <HIPPO Pose ID>  (1537) 
577555

>  <ref_mols>  (1537) 
A3066a

>  <HIPPO Compound ID>  (1537) 
352122

>  <tags>  (1537) 
openbind_a71ev2a_c2_elabs,syndirella_product,openbind_a71ev2a_c2_elabs_fragonly_scored_top80percent,BulkDock Fragalysis export,openbind_a71ev2a_c2_elabs_scored,openbind_a71ev2a_c2_elabs_scored_top80percent,openbind_a71ev2a_c2_elabs_activefrags_only_scored_5.2plus,openbind_a71ev2a_c2_elabs_activefrags_only_scored_5.5plus,syndirella_placed

>  <smina_score_min>  (1537) 
-5.818

$$$$
P577556
     RDKit          3D

 21 22  0  0  0  0  0  0  0  0999 V2000
   10.1641    8.2114   23.5894 C   0  0  0  0  0  0  0  0  0  0  0  0
    8.7655    8.7599   23.8132 C   0  0  0  0  0  0  0  0  0  0  0  0
    8.6137   10.1611   24.1740 N   0  0  0  0  0  0  0  0  0  0  0  0
    9.3367   11.2070   23.6824 C   0  0  0  0  0  0  0  0  0  0  0  0
   10.3753   11.0557   22.6598 C   0  0  0  0  0  0  0  0  0  0  0  0
    9.0795   12.3281   24.4623 C   0  0  0  0  0  0  0  0  0  0  0  0
    9.9388   13.5021   24.4404 C   0  0  0  0  0  0  0  0  0  0  0  0
   10.4424   13.9087   25.4052 O   0  0  0  0  0  0  0  0  0  0  0  0
   10.0835   13.9422   22.9898 N   0  0  0  0  0  0  0  0  0  0  0  0
   10.9415   14.9060   22.3992 C   0  0  0  0  0  0  0  0  0  0  0  0
   11.9953   14.1800   21.5763 C   0  0  1  0  0  0  0  0  0  0  0  0
   13.2321   15.0008   21.4882 C   0  0  0  0  0  0  0  0  0  0  0  0
   12.3667   13.0261   22.2044 F   0  0  0  0  0  0  0  0  0  0  0  0
    8.0260   12.0011   25.3288 C   0  0  0  0  0  0  0  0  0  0  0  0
    7.3231   12.7393   26.3002 C   0  0  0  0  0  0  0  0  0  0  0  0
    6.3450   12.1065   27.0611 C   0  0  0  0  0  0  0  0  0  0  0  0
    5.5934   12.6944   28.0423 O   0  0  0  0  0  0  0  0  0  0  0  0
    5.6540   14.1146   28.1243 C   0  0  0  0  0  0  0  0  0  0  0  0
    6.0812   10.7556   26.8570 C   0  0  0  0  0  0  0  0  0  0  0  0
    6.7440   10.0147   25.8766 C   0  0  0  0  0  0  0  0  0  0  0  0
    7.7388   10.6471   25.1308 C   0  0  0  0  0  0  0  0  0  0  0  0
  1  2  1  0
  2  3  1  0
  3  4  1  0
  4  5  1  0
  4  6  2  0
  6  7  1  0
  7  8  2  0
  7  9  1  0
  9 10  1  0
 10 11  1  0
 11 12  1  1
 11 13  1  0
  6 14  1  0
 14 15  2  0
 15 16  1  0
 16 17  1  0
 17 18  1  0
 16 19  2  0
 19 20  1  0
 20 21  2  0
 21  3  1  0
 21 14  1  0
M  END
>  <alias>  (1538) 
None

>  <rmsd(smina/fragmenstein)>  (1538) 
0.396

>  <smiles>  (1538) 
CCn1c(C)c(C(=O)NC[C@@H](C)F)c2cc(OC)ccc21

>  <gnina_score>  (1538) 
5.342

>  <inspiration_score>  (1538) 
None

>  <energy_score>  (1538) 
-1.499037

>  <distance_score>  (1538) 
1.224016

>  <gnina_score_min>  (1538) 
5.375

>  <inchikey>  (1538) 
CISIJUBSZSJHMT-SNVBAGLBSA-N

>  <exports>  (1538) 
['/opt/xchem-fragalysis-2/maxwin/BulkDock/OUTPUTS/openbind_a71ev2a_c2_elabs_1LOUU54.sdf', '/opt/xchem-fragalysis-2/maxwin/BulkDock/OUTPUTS/openbind_a71ev2a_c2_elabs_1LSYIDY.sdf']

>  <name>  (1538) 
P577556

>  <ref_pdb>  (1538) 
A3066a

>  <subsites>  (1538) 
None

>  <HIPPO Pose ID>  (1538) 
577556

>  <ref_mols>  (1538) 
A3066a

>  <HIPPO Compound ID>  (1538) 
352124

>  <tags>  (1538) 
openbind_a71ev2a_c2_elabs,syndirella_product,openbind_a71ev2a_c2_elabs_fragonly_scored_top80percent,openbind_a71ev2a_c2_elabs_scored,BulkDock Fragalysis export,openbind_a71ev2a_c2_elabs_scored_top80percent,openbind_a71ev2a_c2_elabs_activefrags_only_scored_5.2plus,syndirella_placed

>  <smina_score_min>  (1538) 
-5.025

$$$$
P577557
     RDKit          3D

 21 22  0  0  0  0  0  0  0  0999 V2000
   12.1740   14.2904   20.1610 C   0  0  0  0  0  0  0  0  0  0  0  0
   12.3074   14.4098   21.4850 C   0  0  0  0  0  0  0  0  0  0  0  0
   11.4134   15.2306   22.3316 C   0  0  0  0  0  0  0  0  0  0  0  0
   10.4920   14.3458   22.9582 N   0  0  0  0  0  0  0  0  0  0  0  0
   10.3803   13.8932   24.4227 C   0  0  0  0  0  0  0  0  0  0  0  0
   10.9762   14.2312   25.3657 O   0  0  0  0  0  0  0  0  0  0  0  0
    9.4057   12.8069   24.4880 C   0  0  0  0  0  0  0  0  0  0  0  0
    9.5497   11.6746   23.7081 C   0  0  0  0  0  0  0  0  0  0  0  0
   10.5917   11.4223   22.7032 C   0  0  0  0  0  0  0  0  0  0  0  0
    8.6392   10.7473   24.1169 N   0  0  0  0  0  0  0  0  0  0  0  0
    8.5653    9.3972   23.6150 C   0  0  0  0  0  0  0  0  0  0  0  0
    9.6397    8.5365   24.1577 C   0  0  0  0  0  0  0  0  0  0  0  0
   10.3054    7.7514   23.0996 C   0  0  0  0  0  0  0  0  0  0  0  0
    7.8712   11.2573   25.1318 C   0  0  0  0  0  0  0  0  0  0  0  0
    6.8539   10.6674   25.8911 C   0  0  0  0  0  0  0  0  0  0  0  0
    6.2477   11.4402   26.8823 C   0  0  0  0  0  0  0  0  0  0  0  0
    6.6321   12.7603   27.1002 C   0  0  0  0  0  0  0  0  0  0  0  0
    6.1059   13.5938   28.0520 O   0  0  0  0  0  0  0  0  0  0  0  0
    4.8960   13.1732   28.6706 C   0  0  0  0  0  0  0  0  0  0  0  0
    7.6623   13.3290   26.3426 C   0  0  0  0  0  0  0  0  0  0  0  0
    8.3043   12.5699   25.3495 C   0  0  0  0  0  0  0  0  0  0  0  0
  1  2  2  0
  2  3  1  0
  3  4  1  0
  4  5  1  0
  5  6  2  0
  5  7  1  0
  7  8  2  0
  8  9  1  0
  8 10  1  0
 10 11  1  0
 11 12  1  0
 12 13  1  0
 10 14  1  0
 14 15  2  0
 15 16  1  0
 16 17  2  0
 17 18  1  0
 18 19  1  0
 17 20  1  0
 20 21  2  0
 21  7  1  0
 21 14  1  0
M  END
>  <alias>  (1539) 
None

>  <rmsd(smina/fragmenstein)>  (1539) 
1.215

>  <smiles>  (1539) 
C=CCNC(=O)c1c(C)n(CCC)c2ccc(OC)cc12

>  <gnina_score>  (1539) 
5.393

>  <inspiration_score>  (1539) 
None

>  <energy_score>  (1539) 
-7.646105

>  <distance_score>  (1539) 
1.231794

>  <gnina_score_min>  (1539) 
5.671

>  <inchikey>  (1539) 
DCLMNLDFMQAVCG-UHFFFAOYSA-N

>  <exports>  (1539) 
['/opt/xchem-fragalysis-2/maxwin/BulkDock/OUTPUTS/openbind_a71ev2a_c2_elabs_1LOUU54.sdf', '/opt/xchem-fragalysis-2/maxwin/BulkDock/OUTPUTS/openbind_a71ev2a_c2_elabs_1LSYIDY.sdf']

>  <name>  (1539) 
P577557

>  <ref_pdb>  (1539) 
A3066a

>  <subsites>  (1539) 
None

>  <HIPPO Pose ID>  (1539) 
577557

>  <ref_mols>  (1539) 
A3066a

>  <HIPPO Compound ID>  (1539) 
352131

>  <tags>  (1539) 
openbind_a71ev2a_c2_elabs,syndirella_product,openbind_a71ev2a_c2_elabs_fragonly_scored_top80percent,BulkDock Fragalysis export,openbind_a71ev2a_c2_elabs_scored,openbind_a71ev2a_c2_elabs_scored_top80percent,openbind_a71ev2a_c2_elabs_activefrags_only_scored_5.2plus,openbind_a71ev2a_c2_elabs_activefrags_only_scored_5.5plus,syndirella_placed

>  <smina_score_min>  (1539) 
-5.385

$$$$
P577558
     RDKit          3D

 21 22  0  0  0  0  0  0  0  0999 V2000
   10.9984   14.6612   20.3199 C   0  0  0  0  0  0  0  0  0  0  0  0
   12.2221   14.3401   21.1653 C   0  0  0  0  0  0  0  0  0  0  0  0
   12.0550   14.6762   22.6389 C   0  0  0  0  0  0  0  0  0  0  0  0
   11.0600   13.8775   23.2967 N   0  0  0  0  0  0  0  0  0  0  0  0
    9.5242   13.9193   23.2058 C   0  0  0  0  0  0  0  0  0  0  0  0
    8.8219   14.6567   22.6436 O   0  0  0  0  0  0  0  0  0  0  0  0
    8.9730   12.7602   23.8885 C   0  0  0  0  0  0  0  0  0  0  0  0
    9.3054   11.4746   23.5324 C   0  0  0  0  0  0  0  0  0  0  0  0
   10.3246   11.0207   22.5928 C   0  0  0  0  0  0  0  0  0  0  0  0
    8.4910   10.6113   24.1991 N   0  0  0  0  0  0  0  0  0  0  0  0
    8.3661    9.2038   23.9006 C   0  0  0  0  0  0  0  0  0  0  0  0
    9.5959    8.4312   24.1964 C   0  0  0  0  0  0  0  0  0  0  0  0
   10.2402    7.8082   23.0216 C   0  0  0  0  0  0  0  0  0  0  0  0
    7.7539   11.2951   25.1312 C   0  0  0  0  0  0  0  0  0  0  0  0
    6.8569   10.8413   26.1038 C   0  0  0  0  0  0  0  0  0  0  0  0
    6.2110   11.8036   26.8783 C   0  0  0  0  0  0  0  0  0  0  0  0
    6.4124   13.1672   26.6667 C   0  0  0  0  0  0  0  0  0  0  0  0
    5.6771   13.9907   27.4805 O   0  0  0  0  0  0  0  0  0  0  0  0
    5.5831   15.3543   27.0708 C   0  0  0  0  0  0  0  0  0  0  0  0
    7.3128   13.6033   25.6921 C   0  0  0  0  0  0  0  0  0  0  0  0
    8.0050   12.6557   24.9184 C   0  0  0  0  0  0  0  0  0  0  0  0
  1  2  1  0
  2  3  1  0
  3  4  1  0
  4  5  1  0
  5  6  2  0
  5  7  1  0
  7  8  2  0
  8  9  1  0
  8 10  1  0
 10 11  1  0
 11 12  1  0
 12 13  1  0
 10 14  1  0
 14 15  2  0
 15 16  1  0
 16 17  2  0
 17 18  1  0
 18 19  1  0
 17 20  1  0
 20 21  2  0
 21  7  1  0
 21 14  1  0
M  END
>  <alias>  (1540) 
None

>  <rmsd(smina/fragmenstein)>  (1540) 
0.381

>  <smiles>  (1540) 
CCCNC(=O)c1c(C)n(CCC)c2ccc(OC)cc12

>  <gnina_score>  (1540) 
5.419

>  <inspiration_score>  (1540) 
None

>  <energy_score>  (1540) 
-4.703464

>  <distance_score>  (1540) 
1.481072

>  <gnina_score_min>  (1540) 
5.494

>  <inchikey>  (1540) 
QSAUJCFZGCZCGQ-UHFFFAOYSA-N

>  <exports>  (1540) 
['/opt/xchem-fragalysis-2/maxwin/BulkDock/OUTPUTS/openbind_a71ev2a_c2_elabs_1LOUU54.sdf', '/opt/xchem-fragalysis-2/maxwin/BulkDock/OUTPUTS/openbind_a71ev2a_c2_elabs_1LSYIDY.sdf']

>  <name>  (1540) 
P577558

>  <ref_pdb>  (1540) 
A3066a

>  <subsites>  (1540) 
None

>  <HIPPO Pose ID>  (1540) 
577558

>  <ref_mols>  (1540) 
A3066a

>  <HIPPO Compound ID>  (1540) 
352134

>  <tags>  (1540) 
openbind_a71ev2a_c2_elabs,syndirella_product,openbind_a71ev2a_c2_elabs_fragonly_scored_top80percent,openbind_a71ev2a_c2_elabs_scored,BulkDock Fragalysis export,openbind_a71ev2a_c2_elabs_scored_top80percent,openbind_a71ev2a_c2_elabs_activefrags_only_scored_5.2plus,syndirella_placed

>  <smina_score_min>  (1540) 
-4.931

$$$$
P577560
     RDKit          3D

 21 22  0  0  0  0  0  0  0  0999 V2000
    9.5066    8.3277   22.7764 C   0  0  0  0  0  0  0  0  0  0  0  0
    8.6659    8.8779   23.9106 C   0  0  0  0  0  0  0  0  0  0  0  0
    8.6380   10.2819   24.2795 N   0  0  0  0  0  0  0  0  0  0  0  0
    9.5158   11.2627   23.9387 C   0  0  0  0  0  0  0  0  0  0  0  0
   10.6832   10.9928   23.1055 C   0  0  0  0  0  0  0  0  0  0  0  0
    9.2253   12.4233   24.6458 C   0  0  0  0  0  0  0  0  0  0  0  0
   10.1366   13.5702   24.6534 C   0  0  0  0  0  0  0  0  0  0  0  0
   10.4974   14.0883   25.6288 O   0  0  0  0  0  0  0  0  0  0  0  0
   10.5330   13.8097   23.2028 N   0  0  0  0  0  0  0  0  0  0  0  0
   11.5175   14.6627   22.6451 C   0  0  0  0  0  0  0  0  0  0  0  0
   11.2508   14.7994   21.1461 C   0  0  1  0  0  0  0  0  0  0  0  0
   12.4922   14.3935   20.3763 C   0  0  0  0  0  0  0  0  0  0  0  0
   10.1563   13.9621   20.7329 O   0  0  0  0  0  0  0  0  0  0  0  0
    8.0902   12.1407   25.4295 C   0  0  0  0  0  0  0  0  0  0  0  0
    7.3606   12.8861   26.3711 C   0  0  0  0  0  0  0  0  0  0  0  0
    6.3461   12.2729   27.1078 C   0  0  0  0  0  0  0  0  0  0  0  0
    5.7404   13.0879   28.0263 O   0  0  0  0  0  0  0  0  0  0  0  0
    4.6321   12.5492   28.7358 C   0  0  0  0  0  0  0  0  0  0  0  0
    6.0503   10.9308   26.8934 C   0  0  0  0  0  0  0  0  0  0  0  0
    6.7253   10.1823   25.9259 C   0  0  0  0  0  0  0  0  0  0  0  0
    7.7565   10.7992   25.2130 C   0  0  0  0  0  0  0  0  0  0  0  0
  1  2  1  0
  2  3  1  0
  3  4  1  0
  4  5  1  0
  4  6  2  0
  6  7  1  0
  7  8  2  0
  7  9  1  0
  9 10  1  0
 10 11  1  0
 11 12  1  6
 11 13  1  0
  6 14  1  0
 14 15  2  0
 15 16  1  0
 16 17  1  0
 17 18  1  0
 16 19  2  0
 19 20  1  0
 20 21  2  0
 21  3  1  0
 21 14  1  0
M  END
>  <alias>  (1541) 
None

>  <rmsd(smina/fragmenstein)>  (1541) 
0.425

>  <smiles>  (1541) 
CCn1c(C)c(C(=O)NC[C@@H](C)O)c2cc(OC)ccc21

>  <gnina_score>  (1541) 
5.323

>  <inspiration_score>  (1541) 
None

>  <energy_score>  (1541) 
-4.139386

>  <distance_score>  (1541) 
1.219831

>  <gnina_score_min>  (1541) 
5.257

>  <inchikey>  (1541) 
SHQCPEAPMCXTNV-SNVBAGLBSA-N

>  <exports>  (1541) 
['/opt/xchem-fragalysis-2/maxwin/BulkDock/OUTPUTS/openbind_a71ev2a_c2_elabs_1LOUU54.sdf', '/opt/xchem-fragalysis-2/maxwin/BulkDock/OUTPUTS/openbind_a71ev2a_c2_elabs_1LSYIDY.sdf']

>  <name>  (1541) 
P577560

>  <ref_pdb>  (1541) 
A3066a

>  <subsites>  (1541) 
None

>  <HIPPO Pose ID>  (1541) 
577560

>  <ref_mols>  (1541) 
A3066a

>  <HIPPO Compound ID>  (1541) 
352150

>  <tags>  (1541) 
openbind_a71ev2a_c2_elabs,syndirella_product,openbind_a71ev2a_c2_elabs_fragonly_scored_top80percent,openbind_a71ev2a_c2_elabs_scored,BulkDock Fragalysis export,openbind_a71ev2a_c2_elabs_scored_top80percent,openbind_a71ev2a_c2_elabs_activefrags_only_scored_5.2plus,syndirella_placed

>  <smina_score_min>  (1541) 
-5.655

$$$$
P577561
     RDKit          3D

 21 22  0  0  0  0  0  0  0  0999 V2000
    8.7923   15.7859   20.6396 C   0  0  0  0  0  0  0  0  0  0  0  0
   10.1264   15.0491   20.6531 C   0  0  0  0  0  0  0  0  0  0  0  0
   10.6656   14.9078   22.0192 N   0  0  0  0  0  0  0  0  0  0  0  0
   12.0725   14.4894   21.9534 C   0  0  0  0  0  0  0  0  0  0  0  0
    9.9291   13.9618   22.7171 N   0  0  0  0  0  0  0  0  0  0  0  0
    9.8635   13.6572   24.2348 C   0  0  0  0  0  0  0  0  0  0  0  0
   10.3600   14.2054   25.1398 O   0  0  0  0  0  0  0  0  0  0  0  0
    9.1110   12.4267   24.3991 C   0  0  0  0  0  0  0  0  0  0  0  0
    9.4720   11.2589   23.7668 C   0  0  0  0  0  0  0  0  0  0  0  0
   10.6235   11.0433   22.8989 C   0  0  0  0  0  0  0  0  0  0  0  0
    8.6896   10.2325   24.2164 N   0  0  0  0  0  0  0  0  0  0  0  0
    9.0578    8.8339   24.0964 C   0  0  0  0  0  0  0  0  0  0  0  0
    9.1500    8.2205   22.7278 C   0  0  0  0  0  0  0  0  0  0  0  0
    7.7808   10.7430   25.1211 C   0  0  0  0  0  0  0  0  0  0  0  0
    6.7894   10.1169   25.8787 C   0  0  0  0  0  0  0  0  0  0  0  0
    6.1000   10.8748   26.8293 C   0  0  0  0  0  0  0  0  0  0  0  0
    6.3456   12.2344   26.9880 C   0  0  0  0  0  0  0  0  0  0  0  0
    5.7265   13.0598   27.8876 O   0  0  0  0  0  0  0  0  0  0  0  0
    4.6968   12.4902   28.6863 C   0  0  0  0  0  0  0  0  0  0  0  0
    7.3090   12.8612   26.1963 C   0  0  0  0  0  0  0  0  0  0  0  0
    8.0463   12.1104   25.2647 C   0  0  0  0  0  0  0  0  0  0  0  0
  1  2  1  0
  2  3  1  0
  3  4  1  0
  3  5  1  0
  5  6  1  0
  6  7  2  0
  6  8  1  0
  8  9  2  0
  9 10  1  0
  9 11  1  0
 11 12  1  0
 12 13  1  0
 11 14  1  0
 14 15  2  0
 15 16  1  0
 16 17  2  0
 17 18  1  0
 18 19  1  0
 17 20  1  0
 20 21  2  0
 21  8  1  0
 21 14  1  0
M  END
>  <alias>  (1542) 
None

>  <rmsd(smina/fragmenstein)>  (1542) 
1.372

>  <smiles>  (1542) 
CCN(C)NC(=O)c1c(C)n(CC)c2ccc(OC)cc12

>  <gnina_score>  (1542) 
5.894

>  <inspiration_score>  (1542) 
None

>  <energy_score>  (1542) 
-10.947042

>  <distance_score>  (1542) 
1.229732

>  <gnina_score_min>  (1542) 
5.847

>  <inchikey>  (1542) 
YLFBOGWETTZLBK-UHFFFAOYSA-N

>  <exports>  (1542) 
['/opt/xchem-fragalysis-2/maxwin/BulkDock/OUTPUTS/openbind_a71ev2a_c2_elabs_1LOUU54.sdf', '/opt/xchem-fragalysis-2/maxwin/BulkDock/OUTPUTS/openbind_a71ev2a_c2_elabs_1LSYIDY.sdf']

>  <name>  (1542) 
P577561

>  <ref_pdb>  (1542) 
A3066a

>  <subsites>  (1542) 
None

>  <HIPPO Pose ID>  (1542) 
577561

>  <ref_mols>  (1542) 
A3066a

>  <HIPPO Compound ID>  (1542) 
352171

>  <tags>  (1542) 
openbind_a71ev2a_c2_elabs,syndirella_product,openbind_a71ev2a_c2_elabs_fragonly_scored_top80percent,BulkDock Fragalysis export,openbind_a71ev2a_c2_elabs_scored,openbind_a71ev2a_c2_elabs_scored_top80percent,openbind_a71ev2a_c2_elabs_activefrags_only_scored_5.2plus,openbind_a71ev2a_c2_elabs_activefrags_only_scored_5.5plus,syndirella_placed

>  <smina_score_min>  (1542) 
-6.619

$$$$
P577562
     RDKit          3D

 21 22  0  0  0  0  0  0  0  0999 V2000
    9.9290    5.0743   23.0391 C   0  0  0  0  0  0  0  0  0  0  0  0
   10.1938    6.7010   23.5019 C   0  0  0  0  0  0  0  0  0  0  0  0
    9.6383    7.7943   22.5905 C   0  0  0  0  0  0  0  0  0  0  0  0
    8.7279    8.8418   23.1509 C   0  0  0  0  0  0  0  0  0  0  0  0
    8.9496    9.3036   24.5432 C   0  0  0  0  0  0  0  0  0  0  0  0
    8.8930   10.7439   24.6287 N   0  0  0  0  0  0  0  0  0  0  0  0
    9.8160   11.5061   23.9860 C   0  0  0  0  0  0  0  0  0  0  0  0
    9.6011   12.8165   24.3213 C   0  0  0  0  0  0  0  0  0  0  0  0
   10.4116   13.8431   23.7116 C   0  0  0  0  0  0  0  0  0  0  0  0
   11.2052   14.4858   24.3371 O   0  0  0  0  0  0  0  0  0  0  0  0
   10.1163   13.8232   22.3064 N   0  0  0  0  0  0  0  0  0  0  0  0
   10.7092   14.4607   21.2598 N   0  0  0  0  0  0  0  0  0  0  0  0
   12.1637   14.4549   21.3082 C   0  0  0  0  0  0  0  0  0  0  0  0
   10.1043   15.7534   21.0064 C   0  0  0  0  0  0  0  0  0  0  0  0
    9.8641   15.9253   19.5323 C   0  0  0  0  0  0  0  0  0  0  0  0
    8.4637   12.8555   25.1750 C   0  0  0  0  0  0  0  0  0  0  0  0
    7.7383   13.8853   25.8032 C   0  0  0  0  0  0  0  0  0  0  0  0
    6.6254   13.5650   26.5877 C   0  0  0  0  0  0  0  0  0  0  0  0
    6.2208   12.2429   26.7440 C   0  0  0  0  0  0  0  0  0  0  0  0
    6.9063   11.2014   26.1164 C   0  0  0  0  0  0  0  0  0  0  0  0
    8.0268   11.5303   25.3405 C   0  0  0  0  0  0  0  0  0  0  0  0
  1  2  1  0
  2  3  1  0
  3  4  1  0
  4  5  1  0
  5  6  1  0
  6  7  1  0
  7  8  2  0
  8  9  1  0
  9 10  2  0
  9 11  1  0
 11 12  1  0
 12 13  1  0
 12 14  1  0
 14 15  1  0
  8 16  1  0
 16 17  2  0
 17 18  1  0
 18 19  2  0
 19 20  1  0
 20 21  2  0
 21  6  1  0
 21 16  1  0
M  END
>  <alias>  (1543) 
None

>  <rmsd(smina/fragmenstein)>  (1543) 
0.527

>  <smiles>  (1543) 
CCCCCn1cc(C(=O)NN(C)CC)c2ccccc21

>  <gnina_score>  (1543) 
5.934

>  <inspiration_score>  (1543) 
None

>  <energy_score>  (1543) 
-1.761592

>  <distance_score>  (1543) 
1.409101

>  <gnina_score_min>  (1543) 
6.012

>  <inchikey>  (1543) 
QTPZMMSPWZIOBL-UHFFFAOYSA-N

>  <exports>  (1543) 
['/opt/xchem-fragalysis-2/maxwin/BulkDock/OUTPUTS/openbind_a71ev2a_c2_elabs_1LOUU54.sdf', '/opt/xchem-fragalysis-2/maxwin/BulkDock/OUTPUTS/openbind_a71ev2a_c2_elabs_1LSYIDY.sdf']

>  <name>  (1543) 
P577562

>  <ref_pdb>  (1543) 
A3066a

>  <subsites>  (1543) 
None

>  <HIPPO Pose ID>  (1543) 
577562

>  <ref_mols>  (1543) 
A3066a

>  <HIPPO Compound ID>  (1543) 
352175

>  <tags>  (1543) 
openbind_a71ev2a_c2_elabs,syndirella_product,openbind_a71ev2a_c2_elabs_fragonly_scored_top80percent,BulkDock Fragalysis export,openbind_a71ev2a_c2_elabs_fragonly_scored_6plus,openbind_a71ev2a_c2_elabs_scored,openbind_a71ev2a_c2_elabs_scored_top80percent,openbind_a71ev2a_c2_elabs_activefrags_only_scored_5.2plus,openbind_a71ev2a_c2_elabs_activefrags_only_scored_5.5plus,openbind_a71ev2a_c2_elabs_scored_6plus,syndirella_placed

>  <smina_score_min>  (1543) 
-2.997

$$$$
P577563
     RDKit          3D

 21 22  0  0  0  0  0  0  0  0999 V2000
   10.4922    7.4930   23.5540 C   0  0  0  0  0  0  0  0  0  0  0  0
    9.9082    8.7990   23.4670 N   0  0  0  0  0  0  0  0  0  0  0  0
   10.0274    9.2052   22.0788 C   0  0  0  0  0  0  0  0  0  0  0  0
    8.5025    8.6746   23.8129 C   0  0  0  0  0  0  0  0  0  0  0  0
    7.8908    9.5800   24.8371 C   0  0  0  0  0  0  0  0  0  0  0  0
    8.2050   10.9672   24.8194 N   0  0  0  0  0  0  0  0  0  0  0  0
    9.3607   11.4897   24.4036 C   0  0  0  0  0  0  0  0  0  0  0  0
    9.4188   12.8250   24.6934 C   0  0  0  0  0  0  0  0  0  0  0  0
   10.6092   13.5516   24.3060 C   0  0  0  0  0  0  0  0  0  0  0  0
   11.1166   14.3594   24.9758 O   0  0  0  0  0  0  0  0  0  0  0  0
   11.0484   12.9542   22.9550 N   0  0  0  0  0  0  0  0  0  0  0  0
   12.1335   13.2862   22.1142 C   0  0  0  0  0  0  0  0  0  0  0  0
   11.7344   14.4977   21.3089 C   0  0  0  0  0  0  0  0  0  0  0  0
   12.4069   15.5693   22.0037 N   0  0  0  0  0  0  0  0  0  0  0  0
   13.7048   15.5609   21.3555 O   0  0  0  0  0  0  0  0  0  0  0  0
    8.2569   13.0987   25.4541 C   0  0  0  0  0  0  0  0  0  0  0  0
    7.7592   14.2184   26.1317 C   0  0  0  0  0  0  0  0  0  0  0  0
    6.5907   14.0932   26.8918 C   0  0  0  0  0  0  0  0  0  0  0  0
    5.9208   12.8787   26.9981 C   0  0  0  0  0  0  0  0  0  0  0  0
    6.3842   11.7555   26.3317 C   0  0  0  0  0  0  0  0  0  0  0  0
    7.5342   11.9017   25.5536 C   0  0  0  0  0  0  0  0  0  0  0  0
  1  2  1  0
  2  3  1  0
  2  4  1  0
  4  5  1  0
  5  6  1  0
  6  7  1  0
  7  8  2  0
  8  9  1  0
  9 10  2  0
  9 11  1  0
 11 12  1  0
 12 13  1  0
 13 14  1  0
 14 15  1  0
  8 16  1  0
 16 17  2  0
 17 18  1  0
 18 19  2  0
 19 20  1  0
 20 21  2  0
 21  6  1  0
 21 16  1  0
M  END
>  <alias>  (1544) 
None

>  <rmsd(smina/fragmenstein)>  (1544) 
0.689

>  <smiles>  (1544) 
CN(C)CCn1cc(C(=O)NCCNO)c2ccccc21

>  <gnina_score>  (1544) 
5.419

>  <inspiration_score>  (1544) 
None

>  <energy_score>  (1544) 
-6.815705

>  <distance_score>  (1544) 
1.804868

>  <gnina_score_min>  (1544) 
5.303

>  <inchikey>  (1544) 
HMCKDXYTSQZKJY-UHFFFAOYSA-N

>  <exports>  (1544) 
['/opt/xchem-fragalysis-2/maxwin/BulkDock/OUTPUTS/openbind_a71ev2a_c2_elabs_1LOUU54.sdf', '/opt/xchem-fragalysis-2/maxwin/BulkDock/OUTPUTS/openbind_a71ev2a_c2_elabs_1LSYIDY.sdf']

>  <name>  (1544) 
P577563

>  <ref_pdb>  (1544) 
A3066a

>  <subsites>  (1544) 
None

>  <HIPPO Pose ID>  (1544) 
577563

>  <ref_mols>  (1544) 
A3066a

>  <HIPPO Compound ID>  (1544) 
352192

>  <tags>  (1544) 
openbind_a71ev2a_c2_elabs,syndirella_product,openbind_a71ev2a_c2_elabs_fragonly_scored_top80percent,openbind_a71ev2a_c2_elabs_scored,BulkDock Fragalysis export,openbind_a71ev2a_c2_elabs_scored_top80percent,openbind_a71ev2a_c2_elabs_activefrags_only_scored_5.2plus,syndirella_placed

>  <smina_score_min>  (1544) 
-4.037

$$$$
P577564
     RDKit          3D

 21 22  0  0  0  0  0  0  0  0999 V2000
   12.7749   15.1174   21.7665 C   0  0  0  0  0  0  0  0  0  0  0  0
   11.9758   14.3882   20.7190 C   0  0  0  0  0  0  0  0  0  0  0  0
   10.4592   14.5925   20.7433 C   0  0  2  0  0  0  0  0  0  0  0  0
    9.9150   15.9800   20.4564 C   0  0  0  0  0  0  0  0  0  0  0  0
    9.7817   13.9872   21.8557 N   0  0  0  0  0  0  0  0  0  0  0  0
   10.1267   13.9807   23.3468 C   0  0  0  0  0  0  0  0  0  0  0  0
   10.9722   14.5275   23.9277 O   0  0  0  0  0  0  0  0  0  0  0  0
    9.2312   13.0396   23.9709 C   0  0  0  0  0  0  0  0  0  0  0  0
    9.3168   11.7032   23.6526 C   0  0  0  0  0  0  0  0  0  0  0  0
    8.4528   11.0483   24.4650 N   0  0  0  0  0  0  0  0  0  0  0  0
    8.6954    9.7382   24.9567 C   0  0  0  0  0  0  0  0  0  0  0  0
    8.5401    8.6171   24.0357 C   0  0  0  0  0  0  0  0  0  0  0  0
    9.4604    8.6208   22.9301 N   0  0  0  0  0  0  0  0  0  0  0  0
   10.7982    8.2351   23.3612 C   0  0  0  0  0  0  0  0  0  0  0  0
    8.9617    7.6317   22.0163 C   0  0  0  0  0  0  0  0  0  0  0  0
    7.6703   11.9169   25.1690 C   0  0  0  0  0  0  0  0  0  0  0  0
    6.6179   11.6538   26.0563 C   0  0  0  0  0  0  0  0  0  0  0  0
    6.0841   12.7283   26.7492 C   0  0  0  0  0  0  0  0  0  0  0  0
    6.5867   14.0086   26.5527 C   0  0  0  0  0  0  0  0  0  0  0  0
    7.6332   14.2519   25.6522 C   0  0  0  0  0  0  0  0  0  0  0  0
    8.1967   13.1852   24.9379 C   0  0  0  0  0  0  0  0  0  0  0  0
  1  2  1  0
  2  3  1  0
  3  4  1  1
  3  5  1  0
  5  6  1  0
  6  7  2  0
  6  8  1  0
  8  9  2  0
  9 10  1  0
 10 11  1  0
 11 12  1  0
 12 13  1  0
 13 14  1  0
 13 15  1  0
 10 16  1  0
 16 17  2  0
 17 18  1  0
 18 19  2  0
 19 20  1  0
 20 21  2  0
 21  8  1  0
 21 16  1  0
M  END
>  <alias>  (1545) 
None

>  <rmsd(smina/fragmenstein)>  (1545) 
0.985

>  <smiles>  (1545) 
CC[C@H](C)NC(=O)c1cn(CCN(C)C)c2ccccc12

>  <gnina_score>  (1545) 
5.417

>  <inspiration_score>  (1545) 
None

>  <energy_score>  (1545) 
-15.552598

>  <distance_score>  (1545) 
1.782641

>  <gnina_score_min>  (1545) 
5.333

>  <inchikey>  (1545) 
ZOELGPKYINSFSA-ZDUSSCGKSA-N

>  <exports>  (1545) 
['/opt/xchem-fragalysis-2/maxwin/BulkDock/OUTPUTS/openbind_a71ev2a_c2_elabs_1LOUU54.sdf', '/opt/xchem-fragalysis-2/maxwin/BulkDock/OUTPUTS/openbind_a71ev2a_c2_elabs_1LSYIDY.sdf']

>  <name>  (1545) 
P577564

>  <ref_pdb>  (1545) 
A3066a

>  <subsites>  (1545) 
None

>  <HIPPO Pose ID>  (1545) 
577564

>  <ref_mols>  (1545) 
A3066a

>  <HIPPO Compound ID>  (1545) 
352274

>  <tags>  (1545) 
openbind_a71ev2a_c2_elabs,syndirella_product,openbind_a71ev2a_c2_elabs_fragonly_scored_top80percent,openbind_a71ev2a_c2_elabs_scored,BulkDock Fragalysis export,openbind_a71ev2a_c2_elabs_scored_top80percent,openbind_a71ev2a_c2_elabs_activefrags_only_scored_5.2plus,syndirella_placed

>  <smina_score_min>  (1545) 
-4.416

$$$$
P577565
     RDKit          3D

 22 24  0  0  0  0  0  0  0  0999 V2000
   13.1243   13.1842   24.5128 C   0  0  0  0  0  0  0  0  0  0  0  0
   12.8148   13.8941   23.1906 C   0  0  0  0  0  0  0  0  0  0  0  0
   11.5396   14.6523   23.2373 N   0  0  0  0  0  0  0  0  0  0  0  0
   11.2895   15.1091   21.8566 C   0  0  0  0  0  0  0  0  0  0  0  0
   10.5595   13.7797   23.6527 N   0  0  0  0  0  0  0  0  0  0  0  0
    9.0621   13.7074   23.2887 C   0  0  0  0  0  0  0  0  0  0  0  0
    8.4066   14.4207   22.6413 O   0  0  0  0  0  0  0  0  0  0  0  0
    8.6208   12.4542   23.8615 C   0  0  0  0  0  0  0  0  0  0  0  0
    9.2369   11.2726   23.4680 C   0  0  0  0  0  0  0  0  0  0  0  0
   10.4118   11.1621   22.5962 C   0  0  0  0  0  0  0  0  0  0  0  0
    8.6241   10.2449   24.1053 N   0  0  0  0  0  0  0  0  0  0  0  0
    8.8821    8.8015   23.8978 C   0  0  0  0  0  0  0  0  0  0  0  0
    9.2294    8.1888   22.5668 C   0  0  0  0  0  0  0  0  0  0  0  0
   10.2185    8.1496   23.6760 C   0  0  0  0  0  0  0  0  0  0  0  0
    7.7283   10.7488   25.0268 C   0  0  0  0  0  0  0  0  0  0  0  0
    6.8854   10.1213   25.9460 C   0  0  0  0  0  0  0  0  0  0  0  0
    6.1569   10.9133   26.8382 C   0  0  0  0  0  0  0  0  0  0  0  0
    6.2136   12.3016   26.7826 C   0  0  0  0  0  0  0  0  0  0  0  0
    5.5483   13.1622   27.6128 O   0  0  0  0  0  0  0  0  0  0  0  0
    4.6712   12.5907   28.5749 C   0  0  0  0  0  0  0  0  0  0  0  0
    6.9927   12.9243   25.8057 C   0  0  0  0  0  0  0  0  0  0  0  0
    7.7507   12.1451   24.9162 C   0  0  0  0  0  0  0  0  0  0  0  0
  1  2  1  0
  2  3  1  0
  3  4  1  0
  3  5  1  0
  5  6  1  0
  6  7  2  0
  6  8  1  0
  8  9  2  0
  9 10  1  0
  9 11  1  0
 11 12  1  0
 12 13  1  0
 13 14  1  0
 11 15  1  0
 15 16  2  0
 16 17  1  0
 17 18  2  0
 18 19  1  0
 19 20  1  0
 18 21  1  0
 21 22  2  0
 22  8  1  0
 14 12  1  0
 22 15  1  0
M  END
>  <alias>  (1546) 
None

>  <rmsd(smina/fragmenstein)>  (1546) 
0.323

>  <smiles>  (1546) 
CCN(C)NC(=O)c1c(C)n(C2CC2)c2ccc(OC)cc12

>  <gnina_score>  (1546) 
5.925

>  <inspiration_score>  (1546) 
None

>  <energy_score>  (1546) 
-1.637643

>  <distance_score>  (1546) 
1.513338

>  <gnina_score_min>  (1546) 
5.983

>  <inchikey>  (1546) 
KLWDKPMIEAFNQJ-UHFFFAOYSA-N

>  <exports>  (1546) 
['/opt/xchem-fragalysis-2/maxwin/BulkDock/OUTPUTS/openbind_a71ev2a_c2_elabs_1LOUU54.sdf', '/opt/xchem-fragalysis-2/maxwin/BulkDock/OUTPUTS/openbind_a71ev2a_c2_elabs_1LSYIDY.sdf']

>  <name>  (1546) 
P577565

>  <ref_pdb>  (1546) 
A3066a

>  <subsites>  (1546) 
None

>  <HIPPO Pose ID>  (1546) 
577565

>  <ref_mols>  (1546) 
A3066a

>  <HIPPO Compound ID>  (1546) 
352412

>  <tags>  (1546) 
openbind_a71ev2a_c2_elabs,syndirella_product,openbind_a71ev2a_c2_elabs_fragonly_scored_top80percent,BulkDock Fragalysis export,openbind_a71ev2a_c2_elabs_scored,openbind_a71ev2a_c2_elabs_scored_top80percent,openbind_a71ev2a_c2_elabs_activefrags_only_scored_5.2plus,openbind_a71ev2a_c2_elabs_activefrags_only_scored_5.5plus,syndirella_placed

>  <smina_score_min>  (1546) 
-4.641

$$$$
P577566
     RDKit          3D

 22 24  0  0  0  0  0  0  0  0999 V2000
    5.0925   12.2198   28.5680 C   0  0  0  0  0  0  0  0  0  0  0  0
    6.0630   12.9354   27.8147 O   0  0  0  0  0  0  0  0  0  0  0  0
    6.7141   12.2541   26.8215 C   0  0  0  0  0  0  0  0  0  0  0  0
    6.4761   10.9334   26.4507 C   0  0  0  0  0  0  0  0  0  0  0  0
    7.2168   10.3213   25.4343 C   0  0  0  0  0  0  0  0  0  0  0  0
    8.2223   11.0641   24.8057 C   0  0  0  0  0  0  0  0  0  0  0  0
    8.4912   12.4018   25.1659 C   0  0  0  0  0  0  0  0  0  0  0  0
    7.7117   12.9941   26.1762 C   0  0  0  0  0  0  0  0  0  0  0  0
    9.6055   12.8390   24.4023 C   0  0  0  0  0  0  0  0  0  0  0  0
   10.5656   13.9359   24.4725 C   0  0  0  0  0  0  0  0  0  0  0  0
   11.0821   14.2406   25.4714 O   0  0  0  0  0  0  0  0  0  0  0  0
   10.7824   14.4528   23.0387 N   0  0  0  0  0  0  0  0  0  0  0  0
   11.7440   15.3824   22.5178 C   0  0  0  0  0  0  0  0  0  0  0  0
   12.9344   14.6420   21.9334 C   0  0  0  0  0  0  0  0  0  0  0  0
   13.3829   13.7766   22.8805 F   0  0  0  0  0  0  0  0  0  0  0  0
   12.5505   13.9028   20.8643 F   0  0  0  0  0  0  0  0  0  0  0  0
    9.8871   11.8152   23.5206 C   0  0  0  0  0  0  0  0  0  0  0  0
   10.9345   11.7708   22.4939 C   0  0  0  0  0  0  0  0  0  0  0  0
    9.1293   10.7453   23.8310 N   0  0  0  0  0  0  0  0  0  0  0  0
    9.3608    9.4957   23.1127 C   0  0  0  0  0  0  0  0  0  0  0  0
   10.4907    8.5588   23.4511 C   0  0  0  0  0  0  0  0  0  0  0  0
    9.0732    8.1344   23.5541 C   0  0  0  0  0  0  0  0  0  0  0  0
  1  2  1  0
  2  3  1  0
  3  4  2  0
  4  5  1  0
  5  6  2  0
  6  7  1  0
  7  8  2  0
  7  9  1  0
  9 10  1  0
 10 11  2  0
 10 12  1  0
 12 13  1  0
 13 14  1  0
 14 15  1  0
 14 16  1  0
  9 17  2  0
 17 18  1  0
 17 19  1  0
 19 20  1  0
 20 21  1  0
 21 22  1  0
  8  3  1  0
 22 20  1  0
 19  6  1  0
M  END
>  <alias>  (1547) 
None

>  <rmsd(smina/fragmenstein)>  (1547) 
0.459

>  <smiles>  (1547) 
COc1ccc2c(c1)c(C(=O)NCC(F)F)c(C)n2C1CC1

>  <gnina_score>  (1547) 
5.553

>  <inspiration_score>  (1547) 
None

>  <energy_score>  (1547) 
-1.149934

>  <distance_score>  (1547) 
0.979858

>  <gnina_score_min>  (1547) 
5.673

>  <inchikey>  (1547) 
QUPTVZZZZXWHOW-UHFFFAOYSA-N

>  <exports>  (1547) 
['/opt/xchem-fragalysis-2/maxwin/BulkDock/OUTPUTS/openbind_a71ev2a_c2_elabs_1LOUU54.sdf', '/opt/xchem-fragalysis-2/maxwin/BulkDock/OUTPUTS/openbind_a71ev2a_c2_elabs_1LSYIDY.sdf']

>  <name>  (1547) 
P577566

>  <ref_pdb>  (1547) 
A3066a

>  <subsites>  (1547) 
None

>  <HIPPO Pose ID>  (1547) 
577566

>  <ref_mols>  (1547) 
A3066a

>  <HIPPO Compound ID>  (1547) 
352416

>  <tags>  (1547) 
openbind_a71ev2a_c2_elabs,syndirella_product,openbind_a71ev2a_c2_elabs_fragonly_scored_top80percent,BulkDock Fragalysis export,openbind_a71ev2a_c2_elabs_scored,openbind_a71ev2a_c2_elabs_scored_top80percent,openbind_a71ev2a_c2_elabs_activefrags_only_scored_5.2plus,openbind_a71ev2a_c2_elabs_activefrags_only_scored_5.5plus,syndirella_placed

>  <smina_score_min>  (1547) 
-3.772

$$$$
P577567
     RDKit          3D

 22 24  0  0  0  0  0  0  0  0999 V2000
    4.7621   12.3095   28.7303 C   0  0  0  0  0  0  0  0  0  0  0  0
    5.6608   12.9392   27.8255 O   0  0  0  0  0  0  0  0  0  0  0  0
    6.3083   12.1363   26.9267 C   0  0  0  0  0  0  0  0  0  0  0  0
    6.1468   10.7618   26.8005 C   0  0  0  0  0  0  0  0  0  0  0  0
    6.8633   10.0321   25.8472 C   0  0  0  0  0  0  0  0  0  0  0  0
    7.7944   10.7005   25.0480 C   0  0  0  0  0  0  0  0  0  0  0  0
    7.9440   12.0849   25.1383 C   0  0  0  0  0  0  0  0  0  0  0  0
    7.1951   12.8067   26.0838 C   0  0  0  0  0  0  0  0  0  0  0  0
    8.9148   12.4524   24.1929 C   0  0  0  0  0  0  0  0  0  0  0  0
    9.5418   13.7292   23.9677 C   0  0  0  0  0  0  0  0  0  0  0  0
   10.0769   14.2748   24.8468 O   0  0  0  0  0  0  0  0  0  0  0  0
    9.4495   14.0943   22.4736 N   0  0  0  0  0  0  0  0  0  0  0  0
   10.0792   15.1628   21.7256 C   0  0  2  0  0  0  0  0  0  0  0  0
    9.9056   14.9920   20.2270 C   0  0  0  0  0  0  0  0  0  0  0  0
   11.5413   15.3235   22.1619 C   0  0  0  0  0  0  0  0  0  0  0  0
   12.6160   13.9729   21.6960 S   0  0  0  0  0  0  0  0  0  0  0  0
    9.4032   11.3016   23.6089 C   0  0  0  0  0  0  0  0  0  0  0  0
   10.5822   11.2524   22.7463 C   0  0  0  0  0  0  0  0  0  0  0  0
    8.7107   10.2475   24.1179 N   0  0  0  0  0  0  0  0  0  0  0  0
    8.9306    8.8110   23.8453 C   0  0  0  0  0  0  0  0  0  0  0  0
    9.3063    8.2459   22.5086 C   0  0  0  0  0  0  0  0  0  0  0  0
   10.2556    8.1320   23.6508 C   0  0  0  0  0  0  0  0  0  0  0  0
  1  2  1  0
  2  3  1  0
  3  4  2  0
  4  5  1  0
  5  6  2  0
  6  7  1  0
  7  8  2  0
  7  9  1  0
  9 10  1  0
 10 11  2  0
 10 12  1  0
 12 13  1  0
 13 14  1  6
 13 15  1  0
 15 16  1  0
  9 17  2  0
 17 18  1  0
 17 19  1  0
 19 20  1  0
 20 21  1  0
 21 22  1  0
  8  3  1  0
 22 20  1  0
 19  6  1  0
M  END
>  <alias>  (1548) 
None

>  <rmsd(smina/fragmenstein)>  (1548) 
0.556

>  <smiles>  (1548) 
COc1ccc2c(c1)c(C(=O)N[C@H](C)CS)c(C)n2C1CC1

>  <gnina_score>  (1548) 
5.94

>  <inspiration_score>  (1548) 
None

>  <energy_score>  (1548) 
-15.812533

>  <distance_score>  (1548) 
1.354129

>  <gnina_score_min>  (1548) 
6.021

>  <inchikey>  (1548) 
NUAHDALAACZNBS-SNVBAGLBSA-N

>  <exports>  (1548) 
['/opt/xchem-fragalysis-2/maxwin/BulkDock/OUTPUTS/openbind_a71ev2a_c2_elabs_1LOUU54.sdf', '/opt/xchem-fragalysis-2/maxwin/BulkDock/OUTPUTS/openbind_a71ev2a_c2_elabs_1LSYIDY.sdf']

>  <name>  (1548) 
P577567

>  <ref_pdb>  (1548) 
A3066a

>  <subsites>  (1548) 
None

>  <HIPPO Pose ID>  (1548) 
577567

>  <ref_mols>  (1548) 
A3066a

>  <HIPPO Compound ID>  (1548) 
352422

>  <tags>  (1548) 
openbind_a71ev2a_c2_elabs,syndirella_product,openbind_a71ev2a_c2_elabs_fragonly_scored_top80percent,BulkDock Fragalysis export,openbind_a71ev2a_c2_elabs_fragonly_scored_6plus,openbind_a71ev2a_c2_elabs_scored,openbind_a71ev2a_c2_elabs_scored_top80percent,openbind_a71ev2a_c2_elabs_activefrags_only_scored_5.2plus,openbind_a71ev2a_c2_elabs_activefrags_only_scored_5.5plus,openbind_a71ev2a_c2_elabs_scored_6plus,syndirella_placed

>  <smina_score_min>  (1548) 
-3.748

$$$$
P577568
     RDKit          3D

 22 24  0  0  0  0  0  0  0  0999 V2000
    5.5039   14.6757   27.1364 C   0  0  0  0  0  0  0  0  0  0  0  0
    5.7072   13.2792   27.3433 O   0  0  0  0  0  0  0  0  0  0  0  0
    6.5770   12.6702   26.4750 C   0  0  0  0  0  0  0  0  0  0  0  0
    6.4875   11.2804   26.4349 C   0  0  0  0  0  0  0  0  0  0  0  0
    7.2926   10.5170   25.5859 C   0  0  0  0  0  0  0  0  0  0  0  0
    8.2275   11.1851   24.7864 C   0  0  0  0  0  0  0  0  0  0  0  0
    8.3340   12.5978   24.8063 C   0  0  0  0  0  0  0  0  0  0  0  0
    7.5075   13.3357   25.6738 C   0  0  0  0  0  0  0  0  0  0  0  0
    9.3469   12.9643   23.8930 C   0  0  0  0  0  0  0  0  0  0  0  0
   10.1221   14.1326   23.5223 C   0  0  0  0  0  0  0  0  0  0  0  0
   10.9428   14.5402   24.2437 O   0  0  0  0  0  0  0  0  0  0  0  0
    9.7360   14.5732   22.0987 N   0  0  0  0  0  0  0  0  0  0  0  0
   10.3458   15.5547   21.2151 C   0  0  0  0  0  0  0  0  0  0  0  0
    9.4316   16.3949   20.3084 C   0  0  0  0  0  0  0  0  0  0  0  0
    8.8425   17.3898   20.8133 O   0  0  0  0  0  0  0  0  0  0  0  0
    9.3839   15.9878   19.1104 O   0  0  0  0  0  0  0  0  0  0  0  0
    9.8126   11.7998   23.3493 C   0  0  0  0  0  0  0  0  0  0  0  0
   10.9662   11.7253   22.4567 C   0  0  0  0  0  0  0  0  0  0  0  0
    9.1892   10.7422   23.9084 N   0  0  0  0  0  0  0  0  0  0  0  0
    9.7411    9.3995   23.6708 C   0  0  0  0  0  0  0  0  0  0  0  0
    9.0275    8.4371   22.7787 C   0  0  0  0  0  0  0  0  0  0  0  0
    9.3153    8.0876   24.1805 C   0  0  0  0  0  0  0  0  0  0  0  0
  1  2  1  0
  2  3  1  0
  3  4  2  0
  4  5  1  0
  5  6  2  0
  6  7  1  0
  7  8  2  0
  7  9  1  0
  9 10  1  0
 10 11  2  0
 10 12  1  0
 12 13  1  0
 13 14  1  0
 14 15  2  0
 14 16  1  0
  9 17  2  0
 17 18  1  0
 17 19  1  0
 19 20  1  0
 20 21  1  0
 21 22  1  0
  8  3  1  0
 22 20  1  0
 19  6  1  0
M  CHG  1  16  -1
M  END
>  <alias>  (1549) 
None

>  <rmsd(smina/fragmenstein)>  (1549) 
0.53

>  <smiles>  (1549) 
COc1ccc2c(c1)c(C(=O)NCC(=O)[O-])c(C)n2C1CC1

>  <gnina_score>  (1549) 
5.562

>  <inspiration_score>  (1549) 
None

>  <energy_score>  (1549) 
-11.243686

>  <distance_score>  (1549) 
1.223666

>  <gnina_score_min>  (1549) 
5.744

>  <inchikey>  (1549) 
MUWXMNOLLGBVBM-UHFFFAOYSA-M

>  <exports>  (1549) 
['/opt/xchem-fragalysis-2/maxwin/BulkDock/OUTPUTS/openbind_a71ev2a_c2_elabs_1LOUU54.sdf', '/opt/xchem-fragalysis-2/maxwin/BulkDock/OUTPUTS/openbind_a71ev2a_c2_elabs_1LSYIDY.sdf']

>  <name>  (1549) 
P577568

>  <ref_pdb>  (1549) 
A3066a

>  <subsites>  (1549) 
None

>  <HIPPO Pose ID>  (1549) 
577568

>  <ref_mols>  (1549) 
A3066a

>  <HIPPO Compound ID>  (1549) 
352425

>  <tags>  (1549) 
openbind_a71ev2a_c2_elabs,syndirella_product,openbind_a71ev2a_c2_elabs_fragonly_scored_top80percent,BulkDock Fragalysis export,openbind_a71ev2a_c2_elabs_scored,openbind_a71ev2a_c2_elabs_scored_top80percent,openbind_a71ev2a_c2_elabs_activefrags_only_scored_5.2plus,openbind_a71ev2a_c2_elabs_activefrags_only_scored_5.5plus,syndirella_placed

>  <smina_score_min>  (1549) 
-4.582

$$$$
P577569
     RDKit          3D

 22 24  0  0  0  0  0  0  0  0999 V2000
    4.7466   12.5887   28.5792 C   0  0  0  0  0  0  0  0  0  0  0  0
    5.7003   13.1803   27.7056 O   0  0  0  0  0  0  0  0  0  0  0  0
    6.3685   12.3444   26.8521 C   0  0  0  0  0  0  0  0  0  0  0  0
    6.2131   10.9644   26.7782 C   0  0  0  0  0  0  0  0  0  0  0  0
    6.9518   10.1987   25.8715 C   0  0  0  0  0  0  0  0  0  0  0  0
    7.8965   10.8434   25.0656 C   0  0  0  0  0  0  0  0  0  0  0  0
    8.0487   12.2359   25.1082 C   0  0  0  0  0  0  0  0  0  0  0  0
    7.2717   12.9889   26.0035 C   0  0  0  0  0  0  0  0  0  0  0  0
    9.0204   12.5671   24.1528 C   0  0  0  0  0  0  0  0  0  0  0  0
    9.5761   13.8164   23.6868 C   0  0  0  0  0  0  0  0  0  0  0  0
   10.4629   14.3367   24.2315 O   0  0  0  0  0  0  0  0  0  0  0  0
    8.8585   14.1814   22.3803 N   0  0  0  0  0  0  0  0  0  0  0  0
    9.1406   15.2121   21.4133 C   0  0  0  0  0  0  0  0  0  0  0  0
   10.2125   14.7658   20.4315 C   0  0  2  0  0  0  0  0  0  0  0  0
   11.6191   14.7671   21.0047 C   0  0  0  0  0  0  0  0  0  0  0  0
   10.0737   15.8774   18.8236 Br  0  0  0  0  0  0  0  0  0  0  0  0
    9.5037   11.3928   23.6142 C   0  0  0  0  0  0  0  0  0  0  0  0
   10.6339   11.3553   22.6891 C   0  0  0  0  0  0  0  0  0  0  0  0
    8.8067   10.3538   24.1464 N   0  0  0  0  0  0  0  0  0  0  0  0
    8.9674    8.9072   23.8617 C   0  0  0  0  0  0  0  0  0  0  0  0
    9.3287    8.3243   22.5268 C   0  0  0  0  0  0  0  0  0  0  0  0
   10.2755    8.1946   23.6667 C   0  0  0  0  0  0  0  0  0  0  0  0
  1  2  1  0
  2  3  1  0
  3  4  2  0
  4  5  1  0
  5  6  2  0
  6  7  1  0
  7  8  2  0
  7  9  1  0
  9 10  1  0
 10 11  2  0
 10 12  1  0
 12 13  1  0
 13 14  1  0
 14 15  1  1
 14 16  1  0
  9 17  2  0
 17 18  1  0
 17 19  1  0
 19 20  1  0
 20 21  1  0
 21 22  1  0
  8  3  1  0
 22 20  1  0
 19  6  1  0
M  END
>  <alias>  (1550) 
None

>  <rmsd(smina/fragmenstein)>  (1550) 
0.617

>  <smiles>  (1550) 
COc1ccc2c(c1)c(C(=O)NC[C@H](C)Br)c(C)n2C1CC1

>  <gnina_score>  (1550) 
5.805

>  <inspiration_score>  (1550) 
None

>  <energy_score>  (1550) 
-6.553963

>  <distance_score>  (1550) 
1.524521

>  <gnina_score_min>  (1550) 
5.815

>  <inchikey>  (1550) 
AWICHSIEWATMOI-JTQLQIEISA-N

>  <exports>  (1550) 
['/opt/xchem-fragalysis-2/maxwin/BulkDock/OUTPUTS/openbind_a71ev2a_c2_elabs_1LOUU54.sdf', '/opt/xchem-fragalysis-2/maxwin/BulkDock/OUTPUTS/openbind_a71ev2a_c2_elabs_1LSYIDY.sdf']

>  <name>  (1550) 
P577569

>  <ref_pdb>  (1550) 
A3066a

>  <subsites>  (1550) 
None

>  <HIPPO Pose ID>  (1550) 
577569

>  <ref_mols>  (1550) 
A3066a

>  <HIPPO Compound ID>  (1550) 
352433

>  <tags>  (1550) 
openbind_a71ev2a_c2_elabs,syndirella_product,openbind_a71ev2a_c2_elabs_fragonly_scored_top80percent,BulkDock Fragalysis export,openbind_a71ev2a_c2_elabs_scored,openbind_a71ev2a_c2_elabs_scored_top80percent,openbind_a71ev2a_c2_elabs_activefrags_only_scored_5.2plus,openbind_a71ev2a_c2_elabs_activefrags_only_scored_5.5plus,syndirella_placed

>  <smina_score_min>  (1550) 
-4.266

$$$$
P577570
     RDKit          3D

 22 24  0  0  0  0  0  0  0  0999 V2000
   12.5455   14.1675   22.6090 C   0  0  0  0  0  0  0  0  0  0  0  0
   11.8305   15.0901   21.6471 C   0  0  0  0  0  0  0  0  0  0  0  0
   10.4614   14.6314   21.1407 C   0  0  2  0  0  0  0  0  0  0  0  0
    9.5091   15.7465   20.7527 C   0  0  0  0  0  0  0  0  0  0  0  0
    9.8590   13.6129   21.9607 N   0  0  0  0  0  0  0  0  0  0  0  0
    9.0825   13.7244   23.2795 C   0  0  0  0  0  0  0  0  0  0  0  0
    8.7401   14.6592   23.8729 O   0  0  0  0  0  0  0  0  0  0  0  0
    8.7521   12.4172   23.8356 C   0  0  0  0  0  0  0  0  0  0  0  0
    9.4053   11.2318   23.6048 C   0  0  0  0  0  0  0  0  0  0  0  0
   10.6915   11.0172   22.9886 C   0  0  0  0  0  0  0  0  0  0  0  0
    8.6994   10.2225   24.1737 N   0  0  0  0  0  0  0  0  0  0  0  0
    8.8666    8.7769   23.9083 C   0  0  0  0  0  0  0  0  0  0  0  0
   10.1228    7.9672   23.7355 C   0  0  0  0  0  0  0  0  0  0  0  0
    9.2639    8.2403   22.5561 C   0  0  0  0  0  0  0  0  0  0  0  0
    7.7743   10.7461   25.0418 C   0  0  0  0  0  0  0  0  0  0  0  0
    6.8982   10.1490   25.9495 C   0  0  0  0  0  0  0  0  0  0  0  0
    6.1309   10.9794   26.7661 C   0  0  0  0  0  0  0  0  0  0  0  0
    6.1581   12.3635   26.6304 C   0  0  0  0  0  0  0  0  0  0  0  0
    5.3192   13.0394   27.4757 O   0  0  0  0  0  0  0  0  0  0  0  0
    5.1566   14.4333   27.2261 C   0  0  0  0  0  0  0  0  0  0  0  0
    6.9860   12.9457   25.6732 C   0  0  0  0  0  0  0  0  0  0  0  0
    7.8152   12.1321   24.8720 C   0  0  0  0  0  0  0  0  0  0  0  0
  1  2  1  0
  2  3  1  0
  3  4  1  1
  3  5  1  0
  5  6  1  0
  6  7  2  0
  6  8  1  0
  8  9  2  0
  9 10  1  0
  9 11  1  0
 11 12  1  0
 12 13  1  0
 13 14  1  0
 11 15  1  0
 15 16  2  0
 16 17  1  0
 17 18  2  0
 18 19  1  0
 19 20  1  0
 18 21  1  0
 21 22  2  0
 22  8  1  0
 14 12  1  0
 22 15  1  0
M  END
>  <alias>  (1551) 
None

>  <rmsd(smina/fragmenstein)>  (1551) 
0.348

>  <smiles>  (1551) 
CC[C@H](C)NC(=O)c1c(C)n(C2CC2)c2ccc(OC)cc12

>  <gnina_score>  (1551) 
5.909

>  <inspiration_score>  (1551) 
None

>  <energy_score>  (1551) 
-6.29692

>  <distance_score>  (1551) 
1.455573

>  <gnina_score_min>  (1551) 
5.857

>  <inchikey>  (1551) 
MUZXIHSADQXQKQ-NSHDSACASA-N

>  <exports>  (1551) 
['/opt/xchem-fragalysis-2/maxwin/BulkDock/OUTPUTS/openbind_a71ev2a_c2_elabs_1LOUU54.sdf', '/opt/xchem-fragalysis-2/maxwin/BulkDock/OUTPUTS/openbind_a71ev2a_c2_elabs_1LSYIDY.sdf']

>  <name>  (1551) 
P577570

>  <ref_pdb>  (1551) 
A3066a

>  <subsites>  (1551) 
None

>  <HIPPO Pose ID>  (1551) 
577570

>  <ref_mols>  (1551) 
A3066a

>  <HIPPO Compound ID>  (1551) 
352435

>  <tags>  (1551) 
openbind_a71ev2a_c2_elabs,syndirella_product,openbind_a71ev2a_c2_elabs_fragonly_scored_top80percent,BulkDock Fragalysis export,openbind_a71ev2a_c2_elabs_scored,openbind_a71ev2a_c2_elabs_scored_top80percent,openbind_a71ev2a_c2_elabs_activefrags_only_scored_5.2plus,openbind_a71ev2a_c2_elabs_activefrags_only_scored_5.5plus,syndirella_placed

>  <smina_score_min>  (1551) 
-5.12

$$$$
P577571
     RDKit          3D

 22 24  0  0  0  0  0  0  0  0999 V2000
    8.3275   17.9502   20.5781 C   0  0  0  0  0  0  0  0  0  0  0  0
    9.0933   16.8781   20.3317 C   0  0  0  0  0  0  0  0  0  0  0  0
    8.9103   15.5686   21.0208 C   0  0  0  0  0  0  0  0  0  0  0  0
   10.1559   14.9427   21.6384 C   0  0  0  0  0  0  0  0  0  0  0  0
    9.7020   13.8800   22.4927 N   0  0  0  0  0  0  0  0  0  0  0  0
    9.8943   13.6605   23.9997 C   0  0  0  0  0  0  0  0  0  0  0  0
   10.5147   14.2636   24.7764 O   0  0  0  0  0  0  0  0  0  0  0  0
    9.1978   12.4401   24.3363 C   0  0  0  0  0  0  0  0  0  0  0  0
    9.5238   11.2566   23.7234 C   0  0  0  0  0  0  0  0  0  0  0  0
   10.5897   11.0575   22.7615 C   0  0  0  0  0  0  0  0  0  0  0  0
    8.7494   10.2677   24.2308 N   0  0  0  0  0  0  0  0  0  0  0  0
    8.8266    8.8280   23.8951 C   0  0  0  0  0  0  0  0  0  0  0  0
    9.2625    8.2632   22.5693 C   0  0  0  0  0  0  0  0  0  0  0  0
   10.0794    8.0002   23.7828 C   0  0  0  0  0  0  0  0  0  0  0  0
    7.8752   10.7975   25.1550 C   0  0  0  0  0  0  0  0  0  0  0  0
    6.8697   10.2101   25.9296 C   0  0  0  0  0  0  0  0  0  0  0  0
    6.1824   11.0134   26.8442 C   0  0  0  0  0  0  0  0  0  0  0  0
    6.4508   12.3738   26.9568 C   0  0  0  0  0  0  0  0  0  0  0  0
    5.8355   13.2408   27.8186 O   0  0  0  0  0  0  0  0  0  0  0  0
    4.8002   12.7173   28.6404 C   0  0  0  0  0  0  0  0  0  0  0  0
    7.4307   12.9592   26.1514 C   0  0  0  0  0  0  0  0  0  0  0  0
    8.1614   12.1663   25.2505 C   0  0  0  0  0  0  0  0  0  0  0  0
  1  2  2  0
  2  3  1  0
  3  4  1  0
  4  5  1  0
  5  6  1  0
  6  7  2  0
  6  8  1  0
  8  9  2  0
  9 10  1  0
  9 11  1  0
 11 12  1  0
 12 13  1  0
 13 14  1  0
 11 15  1  0
 15 16  2  0
 16 17  1  0
 17 18  2  0
 18 19  1  0
 19 20  1  0
 18 21  1  0
 21 22  2  0
 22  8  1  0
 14 12  1  0
 22 15  1  0
M  END
>  <alias>  (1552) 
None

>  <rmsd(smina/fragmenstein)>  (1552) 
0.541

>  <smiles>  (1552) 
C=CCCNC(=O)c1c(C)n(C2CC2)c2ccc(OC)cc12

>  <gnina_score>  (1552) 
5.692

>  <inspiration_score>  (1552) 
None

>  <energy_score>  (1552) 
-2.443277

>  <distance_score>  (1552) 
1.251305

>  <gnina_score_min>  (1552) 
5.847

>  <inchikey>  (1552) 
UFPWBVWSDSVWNX-UHFFFAOYSA-N

>  <exports>  (1552) 
['/opt/xchem-fragalysis-2/maxwin/BulkDock/OUTPUTS/openbind_a71ev2a_c2_elabs_1LOUU54.sdf', '/opt/xchem-fragalysis-2/maxwin/BulkDock/OUTPUTS/openbind_a71ev2a_c2_elabs_1LSYIDY.sdf']

>  <name>  (1552) 
P577571

>  <ref_pdb>  (1552) 
A3066a

>  <subsites>  (1552) 
None

>  <HIPPO Pose ID>  (1552) 
577571

>  <ref_mols>  (1552) 
A3066a

>  <HIPPO Compound ID>  (1552) 
352438

>  <tags>  (1552) 
openbind_a71ev2a_c2_elabs,syndirella_product,openbind_a71ev2a_c2_elabs_fragonly_scored_top80percent,BulkDock Fragalysis export,openbind_a71ev2a_c2_elabs_scored,openbind_a71ev2a_c2_elabs_scored_top80percent,openbind_a71ev2a_c2_elabs_activefrags_only_scored_5.2plus,openbind_a71ev2a_c2_elabs_activefrags_only_scored_5.5plus,syndirella_placed

>  <smina_score_min>  (1552) 
-4.912

$$$$
P577572
     RDKit          3D

 22 25  0  0  0  0  0  0  0  0999 V2000
    4.7909   12.5049   28.6503 C   0  0  0  0  0  0  0  0  0  0  0  0
    5.8161   13.0600   27.8361 O   0  0  0  0  0  0  0  0  0  0  0  0
    6.4292   12.2187   26.9477 C   0  0  0  0  0  0  0  0  0  0  0  0
    6.1659   10.8622   26.7966 C   0  0  0  0  0  0  0  0  0  0  0  0
    6.8554   10.0881   25.8582 C   0  0  0  0  0  0  0  0  0  0  0  0
    7.8634   10.6936   25.1025 C   0  0  0  0  0  0  0  0  0  0  0  0
    8.1371   12.0574   25.2318 C   0  0  0  0  0  0  0  0  0  0  0  0
    7.4033   12.8254   26.1538 C   0  0  0  0  0  0  0  0  0  0  0  0
    9.1806   12.3584   24.3329 C   0  0  0  0  0  0  0  0  0  0  0  0
    9.8775   13.6078   24.1140 C   0  0  0  0  0  0  0  0  0  0  0  0
   10.1216   14.3264   25.0127 O   0  0  0  0  0  0  0  0  0  0  0  0
   10.1819   13.7468   22.6401 N   0  0  0  0  0  0  0  0  0  0  0  0
    9.0322   14.4726   21.8889 C   0  0  0  0  0  0  0  0  0  0  0  0
    9.9591   14.8711   20.7997 C   0  0  0  0  0  0  0  0  0  0  0  0
    9.5929   16.4031   19.9997 Cl  0  0  0  0  0  0  0  0  0  0  0  0
   10.9773   14.7973   21.8899 C   0  0  0  0  0  0  0  0  0  0  0  0
    9.5243   11.1908   23.6911 C   0  0  0  0  0  0  0  0  0  0  0  0
   10.6040   11.0696   22.7271 C   0  0  0  0  0  0  0  0  0  0  0  0
    8.7540   10.1888   24.1785 N   0  0  0  0  0  0  0  0  0  0  0  0
    8.8790    8.7522   23.8707 C   0  0  0  0  0  0  0  0  0  0  0  0
    9.2425    8.1879   22.5275 C   0  0  0  0  0  0  0  0  0  0  0  0
   10.1666    8.0008   23.6824 C   0  0  0  0  0  0  0  0  0  0  0  0
  1  2  1  0
  2  3  1  0
  3  4  2  0
  4  5  1  0
  5  6  2  0
  6  7  1  0
  7  8  2  0
  7  9  1  0
  9 10  1  0
 10 11  2  0
 10 12  1  0
 12 13  1  0
 13 14  1  0
 14 15  1  0
 14 16  1  0
  9 17  2  0
 17 18  1  0
 17 19  1  0
 19 20  1  0
 20 21  1  0
 21 22  1  0
  8  3  1  0
 16 12  1  0
 22 20  1  0
 19  6  1  0
M  END
>  <alias>  (1553) 
None

>  <rmsd(smina/fragmenstein)>  (1553) 
0.487

>  <smiles>  (1553) 
COc1ccc2c(c1)c(C(=O)N1CC(Cl)C1)c(C)n2C1CC1

>  <gnina_score>  (1553) 
5.854

>  <inspiration_score>  (1553) 
None

>  <energy_score>  (1553) 
-5.345055

>  <distance_score>  (1553) 
1.109643

>  <gnina_score_min>  (1553) 
5.882

>  <inchikey>  (1553) 
NKQCBVSNVCLPSL-UHFFFAOYSA-N

>  <exports>  (1553) 
['/opt/xchem-fragalysis-2/maxwin/BulkDock/OUTPUTS/openbind_a71ev2a_c2_elabs_1LOUU54.sdf', '/opt/xchem-fragalysis-2/maxwin/BulkDock/OUTPUTS/openbind_a71ev2a_c2_elabs_1LSYIDY.sdf']

>  <name>  (1553) 
P577572

>  <ref_pdb>  (1553) 
A3066a

>  <subsites>  (1553) 
None

>  <HIPPO Pose ID>  (1553) 
577572

>  <ref_mols>  (1553) 
A3066a

>  <HIPPO Compound ID>  (1553) 
352441

>  <tags>  (1553) 
openbind_a71ev2a_c2_elabs,syndirella_product,openbind_a71ev2a_c2_elabs_fragonly_scored_top80percent,BulkDock Fragalysis export,openbind_a71ev2a_c2_elabs_scored,openbind_a71ev2a_c2_elabs_scored_top80percent,openbind_a71ev2a_c2_elabs_activefrags_only_scored_5.2plus,openbind_a71ev2a_c2_elabs_activefrags_only_scored_5.5plus,syndirella_placed

>  <smina_score_min>  (1553) 
-5.185

$$$$
P577573
     RDKit          3D

 22 24  0  0  0  0  0  0  0  0999 V2000
    4.6041   11.2522   28.9039 C   0  0  0  0  0  0  0  0  0  0  0  0
    5.5129   12.0610   28.1649 O   0  0  0  0  0  0  0  0  0  0  0  0
    6.2010   11.4571   27.1500 C   0  0  0  0  0  0  0  0  0  0  0  0
    6.0525   10.1413   26.7346 C   0  0  0  0  0  0  0  0  0  0  0  0
    6.8190    9.6179   25.6865 C   0  0  0  0  0  0  0  0  0  0  0  0
    7.7810   10.4052   25.0820 C   0  0  0  0  0  0  0  0  0  0  0  0
    7.9212   11.7365   25.4765 C   0  0  0  0  0  0  0  0  0  0  0  0
    7.1270   12.2701   26.5059 C   0  0  0  0  0  0  0  0  0  0  0  0
    8.9548   12.2629   24.7049 C   0  0  0  0  0  0  0  0  0  0  0  0
    9.5846   13.5378   24.7833 C   0  0  0  0  0  0  0  0  0  0  0  0
    9.0002   14.5326   24.8790 O   0  0  0  0  0  0  0  0  0  0  0  0
   11.0768   13.2803   24.6136 N   0  0  0  0  0  0  0  0  0  0  0  0
   12.1445   14.1774   24.4331 C   0  0  0  0  0  0  0  0  0  0  0  0
   12.6493   14.0819   22.9786 C   0  0  0  0  0  0  0  0  0  0  0  0
   11.6779   14.5686   21.9989 N   0  0  0  0  0  0  0  0  0  0  0  0
   11.8659   15.9978   22.0023 O   0  0  0  0  0  0  0  0  0  0  0  0
    9.2899   11.3404   23.7359 C   0  0  0  0  0  0  0  0  0  0  0  0
   10.1564   11.5127   22.5496 C   0  0  0  0  0  0  0  0  0  0  0  0
    8.7019   10.1697   24.0937 N   0  0  0  0  0  0  0  0  0  0  0  0
    9.0280    8.9427   23.3552 C   0  0  0  0  0  0  0  0  0  0  0  0
   10.5336    8.7275   23.1619 C   0  0  0  0  0  0  0  0  0  0  0  0
    9.7030    7.6686   23.6856 C   0  0  0  0  0  0  0  0  0  0  0  0
  1  2  1  0
  2  3  1  0
  3  4  2  0
  4  5  1  0
  5  6  2  0
  6  7  1  0
  7  8  2  0
  7  9  1  0
  9 10  1  0
 10 11  2  0
 10 12  1  0
 12 13  1  0
 13 14  1  0
 14 15  1  0
 15 16  1  0
  9 17  2  0
 17 18  1  0
 17 19  1  0
 19 20  1  0
 20 21  1  0
 21 22  1  0
  8  3  1  0
 22 20  1  0
 19  6  1  0
M  END
>  <alias>  (1554) 
None

>  <rmsd(smina/fragmenstein)>  (1554) 
0.404

>  <smiles>  (1554) 
COc1ccc2c(c1)c(C(=O)NCCNO)c(C)n2C1CC1

>  <gnina_score>  (1554) 
5.742

>  <inspiration_score>  (1554) 
None

>  <energy_score>  (1554) 
-17.80687

>  <distance_score>  (1554) 
1.558889

>  <gnina_score_min>  (1554) 
5.648

>  <inchikey>  (1554) 
GFBYWYCKGFXINR-UHFFFAOYSA-N

>  <exports>  (1554) 
['/opt/xchem-fragalysis-2/maxwin/BulkDock/OUTPUTS/openbind_a71ev2a_c2_elabs_1LOUU54.sdf', '/opt/xchem-fragalysis-2/maxwin/BulkDock/OUTPUTS/openbind_a71ev2a_c2_elabs_1LSYIDY.sdf']

>  <name>  (1554) 
P577573

>  <ref_pdb>  (1554) 
A3066a

>  <subsites>  (1554) 
None

>  <HIPPO Pose ID>  (1554) 
577573

>  <ref_mols>  (1554) 
A3066a

>  <HIPPO Compound ID>  (1554) 
352442

>  <tags>  (1554) 
openbind_a71ev2a_c2_elabs,syndirella_product,openbind_a71ev2a_c2_elabs_fragonly_scored_top80percent,BulkDock Fragalysis export,openbind_a71ev2a_c2_elabs_scored,openbind_a71ev2a_c2_elabs_scored_top80percent,openbind_a71ev2a_c2_elabs_activefrags_only_scored_5.2plus,openbind_a71ev2a_c2_elabs_activefrags_only_scored_5.5plus,syndirella_placed

>  <smina_score_min>  (1554) 
-4.436

$$$$
P577574
     RDKit          3D

 22 23  0  0  0  0  0  0  0  0999 V2000
   10.2558    7.8618   22.9990 C   0  0  0  0  0  0  0  0  0  0  0  0
    9.5860    8.4680   24.1701 C   0  0  0  0  0  0  0  0  0  0  0  0
    8.3696    9.2448   23.8222 C   0  0  0  0  0  0  0  0  0  0  0  0
    8.4541   10.6398   24.1913 N   0  0  0  0  0  0  0  0  0  0  0  0
    9.3512   11.5341   23.6794 C   0  0  0  0  0  0  0  0  0  0  0  0
   10.3687   11.1429   22.7024 C   0  0  0  0  0  0  0  0  0  0  0  0
    9.2660   12.7018   24.4091 C   0  0  0  0  0  0  0  0  0  0  0  0
   10.2493   13.7721   24.3046 C   0  0  0  0  0  0  0  0  0  0  0  0
   10.8660   14.1058   25.2337 O   0  0  0  0  0  0  0  0  0  0  0  0
   10.3411   14.2145   22.8387 N   0  0  0  0  0  0  0  0  0  0  0  0
   11.2728   15.0911   22.1846 C   0  0  0  0  0  0  0  0  0  0  0  0
   12.0792   14.4199   21.0865 C   0  0  1  0  0  0  0  0  0  0  0  0
   11.3336   14.4661   19.7650 C   0  0  0  0  0  0  0  0  0  0  0  0
   13.2452   15.1024   20.9609 F   0  0  0  0  0  0  0  0  0  0  0  0
    8.1984   12.5341   25.3277 C   0  0  0  0  0  0  0  0  0  0  0  0
    7.6268   13.3594   26.3109 C   0  0  0  0  0  0  0  0  0  0  0  0
    6.6177   12.8615   27.1413 C   0  0  0  0  0  0  0  0  0  0  0  0
    6.1601   13.7571   28.0709 O   0  0  0  0  0  0  0  0  0  0  0  0
    5.0023   13.3869   28.8083 C   0  0  0  0  0  0  0  0  0  0  0  0
    6.1855   11.5459   27.0043 C   0  0  0  0  0  0  0  0  0  0  0  0
    6.7280   10.7061   26.0303 C   0  0  0  0  0  0  0  0  0  0  0  0
    7.7283   11.2247   25.1987 C   0  0  0  0  0  0  0  0  0  0  0  0
  1  2  1  0
  2  3  1  0
  3  4  1  0
  4  5  1  0
  5  6  1  0
  5  7  2  0
  7  8  1  0
  8  9  2  0
  8 10  1  0
 10 11  1  0
 11 12  1  0
 12 13  1  6
 12 14  1  0
  7 15  1  0
 15 16  2  0
 16 17  1  0
 17 18  1  0
 18 19  1  0
 17 20  2  0
 20 21  1  0
 21 22  2  0
 22  4  1  0
 22 15  1  0
M  END
>  <alias>  (1555) 
None

>  <rmsd(smina/fragmenstein)>  (1555) 
0.508

>  <smiles>  (1555) 
CCCn1c(C)c(C(=O)NC[C@@H](C)F)c2cc(OC)ccc21

>  <gnina_score>  (1555) 
5.524

>  <inspiration_score>  (1555) 
None

>  <energy_score>  (1555) 
-5.7144

>  <distance_score>  (1555) 
1.283134

>  <gnina_score_min>  (1555) 
5.51

>  <inchikey>  (1555) 
WCROFWZVIAIPAW-LLVKDONJSA-N

>  <exports>  (1555) 
['/opt/xchem-fragalysis-2/maxwin/BulkDock/OUTPUTS/openbind_a71ev2a_c2_elabs_1LOUU54.sdf', '/opt/xchem-fragalysis-2/maxwin/BulkDock/OUTPUTS/openbind_a71ev2a_c2_elabs_1LSYIDY.sdf']

>  <name>  (1555) 
P577574

>  <ref_pdb>  (1555) 
A3066a

>  <subsites>  (1555) 
None

>  <HIPPO Pose ID>  (1555) 
577574

>  <ref_mols>  (1555) 
A3066a

>  <HIPPO Compound ID>  (1555) 
352511

>  <tags>  (1555) 
openbind_a71ev2a_c2_elabs,syndirella_product,openbind_a71ev2a_c2_elabs_fragonly_scored_top80percent,BulkDock Fragalysis export,openbind_a71ev2a_c2_elabs_scored,openbind_a71ev2a_c2_elabs_scored_top80percent,openbind_a71ev2a_c2_elabs_activefrags_only_scored_5.2plus,openbind_a71ev2a_c2_elabs_activefrags_only_scored_5.5plus,syndirella_placed

>  <smina_score_min>  (1555) 
-4.536

$$$$
P577575
     RDKit          3D

 22 23  0  0  0  0  0  0  0  0999 V2000
   10.2373    7.8599   23.0124 C   0  0  0  0  0  0  0  0  0  0  0  0
    9.5727    8.4941   24.1739 C   0  0  0  0  0  0  0  0  0  0  0  0
    8.3808    9.3017   23.8110 C   0  0  0  0  0  0  0  0  0  0  0  0
    8.4909   10.6996   24.1674 N   0  0  0  0  0  0  0  0  0  0  0  0
    9.3990   11.5791   23.6442 C   0  0  0  0  0  0  0  0  0  0  0  0
   10.4095   11.1462   22.6812 C   0  0  0  0  0  0  0  0  0  0  0  0
    9.3296   12.7618   24.3521 C   0  0  0  0  0  0  0  0  0  0  0  0
   10.3243   13.8322   24.2586 C   0  0  0  0  0  0  0  0  0  0  0  0
   10.8646   14.2052   25.2213 O   0  0  0  0  0  0  0  0  0  0  0  0
   10.5289   14.2230   22.7866 N   0  0  0  0  0  0  0  0  0  0  0  0
   11.5086   15.0883   22.1729 C   0  0  0  0  0  0  0  0  0  0  0  0
   12.3776   14.4433   21.0975 C   0  0  1  0  0  0  0  0  0  0  0  0
   12.6876   13.1743   21.4510 F   0  0  0  0  0  0  0  0  0  0  0  0
   11.5347   14.4765   19.5280 Cl  0  0  0  0  0  0  0  0  0  0  0  0
    8.2567   12.6118   25.2752 C   0  0  0  0  0  0  0  0  0  0  0  0
    7.6923   13.4525   26.2500 C   0  0  0  0  0  0  0  0  0  0  0  0
    6.6773   12.9753   27.0862 C   0  0  0  0  0  0  0  0  0  0  0  0
    6.2308   13.8884   28.0041 O   0  0  0  0  0  0  0  0  0  0  0  0
    5.0569   13.5488   28.7317 C   0  0  0  0  0  0  0  0  0  0  0  0
    6.2309   11.6632   26.9662 C   0  0  0  0  0  0  0  0  0  0  0  0
    6.7672   10.8064   26.0044 C   0  0  0  0  0  0  0  0  0  0  0  0
    7.7727   11.3055   25.1662 C   0  0  0  0  0  0  0  0  0  0  0  0
  1  2  1  0
  2  3  1  0
  3  4  1  0
  4  5  1  0
  5  6  1  0
  5  7  2  0
  7  8  1  0
  8  9  2  0
  8 10  1  0
 10 11  1  0
 11 12  1  0
 12 13  1  1
 12 14  1  0
  7 15  1  0
 15 16  2  0
 16 17  1  0
 17 18  1  0
 18 19  1  0
 17 20  2  0
 20 21  1  0
 21 22  2  0
 22  4  1  0
 22 15  1  0
M  END
>  <alias>  (1556) 
None

>  <rmsd(smina/fragmenstein)>  (1556) 
0.711

>  <smiles>  (1556) 
CCCn1c(C)c(C(=O)NC[C@@H](F)Cl)c2cc(OC)ccc21

>  <gnina_score>  (1556) 
5.536

>  <inspiration_score>  (1556) 
None

>  <energy_score>  (1556) 
-1.535925

>  <distance_score>  (1556) 
1.251478

>  <gnina_score_min>  (1556) 
5.674

>  <inchikey>  (1556) 
VGVQREOTWNOFOY-CQSZACIVSA-N

>  <exports>  (1556) 
['/opt/xchem-fragalysis-2/maxwin/BulkDock/OUTPUTS/openbind_a71ev2a_c2_elabs_1LOUU54.sdf', '/opt/xchem-fragalysis-2/maxwin/BulkDock/OUTPUTS/openbind_a71ev2a_c2_elabs_1LSYIDY.sdf']

>  <name>  (1556) 
P577575

>  <ref_pdb>  (1556) 
A3066a

>  <subsites>  (1556) 
None

>  <HIPPO Pose ID>  (1556) 
577575

>  <ref_mols>  (1556) 
A3066a

>  <HIPPO Compound ID>  (1556) 
352513

>  <tags>  (1556) 
openbind_a71ev2a_c2_elabs,syndirella_product,openbind_a71ev2a_c2_elabs_fragonly_scored_top80percent,BulkDock Fragalysis export,openbind_a71ev2a_c2_elabs_scored,openbind_a71ev2a_c2_elabs_scored_top80percent,openbind_a71ev2a_c2_elabs_activefrags_only_scored_5.2plus,openbind_a71ev2a_c2_elabs_activefrags_only_scored_5.5plus,syndirella_placed

>  <smina_score_min>  (1556) 
-5.09

$$$$
P577576
     RDKit          3D

 22 23  0  0  0  0  0  0  0  0999 V2000
   10.1320    7.6367   23.5110 C   0  0  0  0  0  0  0  0  0  0  0  0
    9.0664    8.5673   23.0080 C   0  0  0  0  0  0  0  0  0  0  0  0
    8.4352    9.2739   24.1841 C   0  0  0  0  0  0  0  0  0  0  0  0
    8.5109   10.7073   24.3510 N   0  0  0  0  0  0  0  0  0  0  0  0
    9.5141   11.5538   23.9740 C   0  0  0  0  0  0  0  0  0  0  0  0
   10.6376   11.1342   23.1291 C   0  0  0  0  0  0  0  0  0  0  0  0
    9.3801   12.7431   24.6812 C   0  0  0  0  0  0  0  0  0  0  0  0
   10.4463   13.7468   24.7591 C   0  0  0  0  0  0  0  0  0  0  0  0
   10.8124   14.1664   25.7788 O   0  0  0  0  0  0  0  0  0  0  0  0
   10.9665   13.9876   23.3467 N   0  0  0  0  0  0  0  0  0  0  0  0
   12.1018   14.7172   22.8893 C   0  0  0  0  0  0  0  0  0  0  0  0
   12.3212   14.5071   21.4087 C   0  0  0  0  0  0  0  0  0  0  0  0
   10.7857   14.8165   20.4713 S   0  0  0  0  0  0  0  0  0  0  0  0
   11.4989   14.5926   18.8350 C   0  0  0  0  0  0  0  0  0  0  0  0
    8.1974   12.6339   25.4502 C   0  0  0  0  0  0  0  0  0  0  0  0
    7.5654   13.4797   26.3770 C   0  0  0  0  0  0  0  0  0  0  0  0
    6.4853   13.0089   27.1284 C   0  0  0  0  0  0  0  0  0  0  0  0
    5.9774   13.9166   28.0200 O   0  0  0  0  0  0  0  0  0  0  0  0
    4.7326   13.5912   28.6247 C   0  0  0  0  0  0  0  0  0  0  0  0
    6.0434   11.7001   26.9697 C   0  0  0  0  0  0  0  0  0  0  0  0
    6.6343   10.8482   26.0364 C   0  0  0  0  0  0  0  0  0  0  0  0
    7.7041   11.3420   25.2774 C   0  0  0  0  0  0  0  0  0  0  0  0
  1  2  1  0
  2  3  1  0
  3  4  1  0
  4  5  1  0
  5  6  1  0
  5  7  2  0
  7  8  1  0
  8  9  2  0
  8 10  1  0
 10 11  1  0
 11 12  1  0
 12 13  1  0
 13 14  1  0
  7 15  1  0
 15 16  2  0
 16 17  1  0
 17 18  1  0
 18 19  1  0
 17 20  2  0
 20 21  1  0
 21 22  2  0
 22  4  1  0
 22 15  1  0
M  END
>  <alias>  (1557) 
None

>  <rmsd(smina/fragmenstein)>  (1557) 
0.409

>  <smiles>  (1557) 
CCCn1c(C)c(C(=O)NCCSC)c2cc(OC)ccc21

>  <gnina_score>  (1557) 
5.689

>  <inspiration_score>  (1557) 
None

>  <energy_score>  (1557) 
-8.668291

>  <distance_score>  (1557) 
1.388186

>  <gnina_score_min>  (1557) 
5.865

>  <inchikey>  (1557) 
PDIXFOHNHDEUCK-UHFFFAOYSA-N

>  <exports>  (1557) 
['/opt/xchem-fragalysis-2/maxwin/BulkDock/OUTPUTS/openbind_a71ev2a_c2_elabs_1LOUU54.sdf', '/opt/xchem-fragalysis-2/maxwin/BulkDock/OUTPUTS/openbind_a71ev2a_c2_elabs_1LSYIDY.sdf']

>  <name>  (1557) 
P577576

>  <ref_pdb>  (1557) 
A3066a

>  <subsites>  (1557) 
None

>  <HIPPO Pose ID>  (1557) 
577576

>  <ref_mols>  (1557) 
A3066a

>  <HIPPO Compound ID>  (1557) 
352521

>  <tags>  (1557) 
openbind_a71ev2a_c2_elabs,syndirella_product,openbind_a71ev2a_c2_elabs_fragonly_scored_top80percent,BulkDock Fragalysis export,openbind_a71ev2a_c2_elabs_scored,openbind_a71ev2a_c2_elabs_scored_top80percent,openbind_a71ev2a_c2_elabs_activefrags_only_scored_5.2plus,openbind_a71ev2a_c2_elabs_activefrags_only_scored_5.5plus,syndirella_placed

>  <smina_score_min>  (1557) 
-4.888

$$$$
P577577
     RDKit          3D

 22 23  0  0  0  0  0  0  0  0999 V2000
   10.2808    7.7690   23.0795 C   0  0  0  0  0  0  0  0  0  0  0  0
    9.6117    8.5074   24.1706 C   0  0  0  0  0  0  0  0  0  0  0  0
    8.4601    9.3155   23.7043 C   0  0  0  0  0  0  0  0  0  0  0  0
    8.5003   10.6751   24.1897 N   0  0  0  0  0  0  0  0  0  0  0  0
    9.4093   11.6144   23.7892 C   0  0  0  0  0  0  0  0  0  0  0  0
   10.4294   11.3346   22.7603 C   0  0  0  0  0  0  0  0  0  0  0  0
    9.2923   12.7081   24.6425 C   0  0  0  0  0  0  0  0  0  0  0  0
   10.3383   13.7266   24.8157 C   0  0  0  0  0  0  0  0  0  0  0  0
   10.6332   14.1031   25.8740 O   0  0  0  0  0  0  0  0  0  0  0  0
   10.9391   14.0412   23.4531 N   0  0  0  0  0  0  0  0  0  0  0  0
   12.0780   14.8023   23.1043 C   0  0  0  0  0  0  0  0  0  0  0  0
   12.2011   15.1850   21.6493 C   0  0  2  0  0  0  0  0  0  0  0  0
   11.8413   14.1361   20.6366 C   0  0  0  0  0  0  0  0  0  0  0  0
   13.5479   15.5566   21.4159 O   0  0  0  0  0  0  0  0  0  0  0  0
    8.1460   12.4730   25.4478 C   0  0  0  0  0  0  0  0  0  0  0  0
    7.5009   13.2267   26.4471 C   0  0  0  0  0  0  0  0  0  0  0  0
    6.4729   12.6460   27.1899 C   0  0  0  0  0  0  0  0  0  0  0  0
    5.7733   13.2665   28.1911 O   0  0  0  0  0  0  0  0  0  0  0  0
    5.8652   14.6873   28.2362 C   0  0  0  0  0  0  0  0  0  0  0  0
    6.1165   11.3185   26.9684 C   0  0  0  0  0  0  0  0  0  0  0  0
    6.7202   10.5555   25.9701 C   0  0  0  0  0  0  0  0  0  0  0  0
    7.7237   11.1639   25.2085 C   0  0  0  0  0  0  0  0  0  0  0  0
  1  2  1  0
  2  3  1  0
  3  4  1  0
  4  5  1  0
  5  6  1  0
  5  7  2  0
  7  8  1  0
  8  9  2  0
  8 10  1  0
 10 11  1  0
 11 12  1  0
 12 13  1  6
 12 14  1  0
  7 15  1  0
 15 16  2  0
 16 17  1  0
 17 18  1  0
 18 19  1  0
 17 20  2  0
 20 21  1  0
 21 22  2  0
 22  4  1  0
 22 15  1  0
M  END
>  <alias>  (1558) 
None

>  <rmsd(smina/fragmenstein)>  (1558) 
0.76

>  <smiles>  (1558) 
CCCn1c(C)c(C(=O)NC[C@H](C)O)c2cc(OC)ccc21

>  <gnina_score>  (1558) 
5.384

>  <inspiration_score>  (1558) 
None

>  <energy_score>  (1558) 
-1.997952

>  <distance_score>  (1558) 
1.332252

>  <gnina_score_min>  (1558) 
5.665

>  <inchikey>  (1558) 
QABPUMYUXQAZOJ-NSHDSACASA-N

>  <exports>  (1558) 
['/opt/xchem-fragalysis-2/maxwin/BulkDock/OUTPUTS/openbind_a71ev2a_c2_elabs_1LOUU54.sdf', '/opt/xchem-fragalysis-2/maxwin/BulkDock/OUTPUTS/openbind_a71ev2a_c2_elabs_1LSYIDY.sdf']

>  <name>  (1558) 
P577577

>  <ref_pdb>  (1558) 
A3066a

>  <subsites>  (1558) 
None

>  <HIPPO Pose ID>  (1558) 
577577

>  <ref_mols>  (1558) 
A3066a

>  <HIPPO Compound ID>  (1558) 
352535

>  <tags>  (1558) 
openbind_a71ev2a_c2_elabs,syndirella_product,openbind_a71ev2a_c2_elabs_fragonly_scored_top80percent,BulkDock Fragalysis export,openbind_a71ev2a_c2_elabs_scored,openbind_a71ev2a_c2_elabs_scored_top80percent,openbind_a71ev2a_c2_elabs_activefrags_only_scored_5.2plus,openbind_a71ev2a_c2_elabs_activefrags_only_scored_5.5plus,syndirella_placed

>  <smina_score_min>  (1558) 
-6.001

$$$$
P577578
     RDKit          3D

 22 24  0  0  0  0  0  0  0  0999 V2000
    4.8368   12.6564   28.6337 C   0  0  0  0  0  0  0  0  0  0  0  0
    5.8823   13.1981   27.8369 O   0  0  0  0  0  0  0  0  0  0  0  0
    6.4844   12.3590   26.9388 C   0  0  0  0  0  0  0  0  0  0  0  0
    6.2129   11.0035   26.7856 C   0  0  0  0  0  0  0  0  0  0  0  0
    6.8929   10.2288   25.8411 C   0  0  0  0  0  0  0  0  0  0  0  0
    7.8889   10.8399   25.0697 C   0  0  0  0  0  0  0  0  0  0  0  0
    8.1766   12.2049   25.2065 C   0  0  0  0  0  0  0  0  0  0  0  0
    7.4604   12.9668   26.1455 C   0  0  0  0  0  0  0  0  0  0  0  0
    9.2313   12.5005   24.3213 C   0  0  0  0  0  0  0  0  0  0  0  0
   10.0633   13.6823   24.1469 C   0  0  0  0  0  0  0  0  0  0  0  0
   10.6775   14.1192   25.0347 O   0  0  0  0  0  0  0  0  0  0  0  0
   10.0249   14.0902   22.6649 N   0  0  0  0  0  0  0  0  0  0  0  0
   10.8052   15.0608   21.9406 C   0  0  1  0  0  0  0  0  0  0  0  0
   11.9690   14.3906   21.2157 C   0  0  0  0  0  0  0  0  0  0  0  0
    9.8639   15.8622   21.0285 C   0  0  0  0  0  0  0  0  0  0  0  0
    9.4362   15.0990   19.9061 O   0  0  0  0  0  0  0  0  0  0  0  0
    9.5453   11.3324   23.6521 C   0  0  0  0  0  0  0  0  0  0  0  0
   10.6482   11.2175   22.7079 C   0  0  0  0  0  0  0  0  0  0  0  0
    8.7673   10.3293   24.1344 N   0  0  0  0  0  0  0  0  0  0  0  0
    8.8870    8.8781   23.8482 C   0  0  0  0  0  0  0  0  0  0  0  0
    9.2682    8.2761   22.5271 C   0  0  0  0  0  0  0  0  0  0  0  0
   10.1794    8.1226   23.6942 C   0  0  0  0  0  0  0  0  0  0  0  0
  1  2  1  0
  2  3  1  0
  3  4  2  0
  4  5  1  0
  5  6  2  0
  6  7  1  0
  7  8  2  0
  7  9  1  0
  9 10  1  0
 10 11  2  0
 10 12  1  0
 12 13  1  0
 13 14  1  6
 13 15  1  0
 15 16  1  0
  9 17  2  0
 17 18  1  0
 17 19  1  0
 19 20  1  0
 20 21  1  0
 21 22  1  0
  8  3  1  0
 22 20  1  0
 19  6  1  0
M  END
>  <alias>  (1559) 
None

>  <rmsd(smina/fragmenstein)>  (1559) 
0.653

>  <smiles>  (1559) 
COc1ccc2c(c1)c(C(=O)N[C@@H](C)CO)c(C)n2C1CC1

>  <gnina_score>  (1559) 
5.628

>  <inspiration_score>  (1559) 
None

>  <energy_score>  (1559) 
-1.128322

>  <distance_score>  (1559) 
1.120523

>  <gnina_score_min>  (1559) 
5.867

>  <inchikey>  (1559) 
BBZDSHAEFTWEDS-JTQLQIEISA-N

>  <exports>  (1559) 
['/opt/xchem-fragalysis-2/maxwin/BulkDock/OUTPUTS/openbind_a71ev2a_c2_elabs_1LOUU54.sdf', '/opt/xchem-fragalysis-2/maxwin/BulkDock/OUTPUTS/openbind_a71ev2a_c2_elabs_1LSYIDY.sdf']

>  <name>  (1559) 
P577578

>  <ref_pdb>  (1559) 
A3066a

>  <subsites>  (1559) 
None

>  <HIPPO Pose ID>  (1559) 
577578

>  <ref_mols>  (1559) 
A3066a

>  <HIPPO Compound ID>  (1559) 
352561

>  <tags>  (1559) 
openbind_a71ev2a_c2_elabs,syndirella_product,openbind_a71ev2a_c2_elabs_fragonly_scored_top80percent,BulkDock Fragalysis export,openbind_a71ev2a_c2_elabs_scored,openbind_a71ev2a_c2_elabs_scored_top80percent,openbind_a71ev2a_c2_elabs_activefrags_only_scored_5.2plus,openbind_a71ev2a_c2_elabs_activefrags_only_scored_5.5plus,syndirella_placed

>  <smina_score_min>  (1559) 
-5.32

$$$$
P577579
     RDKit          3D

 22 25  0  0  0  0  0  0  0  0999 V2000
    4.8217   11.4093   28.5595 C   0  0  0  0  0  0  0  0  0  0  0  0
    5.3263   12.2301   27.5120 O   0  0  0  0  0  0  0  0  0  0  0  0
    6.1556   11.6282   26.6034 C   0  0  0  0  0  0  0  0  0  0  0  0
    6.3312   10.2550   26.4580 C   0  0  0  0  0  0  0  0  0  0  0  0
    7.2355    9.7357   25.5266 C   0  0  0  0  0  0  0  0  0  0  0  0
    7.9843   10.6236   24.7676 C   0  0  0  0  0  0  0  0  0  0  0  0
    7.7534   11.9963   24.8205 C   0  0  0  0  0  0  0  0  0  0  0  0
    6.8309   12.5044   25.7528 C   0  0  0  0  0  0  0  0  0  0  0  0
    8.6264   12.5905   23.8852 C   0  0  0  0  0  0  0  0  0  0  0  0
    8.8999   13.9687   23.6290 C   0  0  0  0  0  0  0  0  0  0  0  0
    8.6868   14.7738   24.4589 O   0  0  0  0  0  0  0  0  0  0  0  0
    9.5481   14.1131   22.2634 N   0  0  0  0  0  0  0  0  0  0  0  0
   10.1930   15.2898   21.6131 C   0  0  0  0  0  0  0  0  0  0  0  0
    8.8981   15.8827   21.1643 C   0  0  0  0  0  0  0  0  0  0  0  0
    8.9799   16.6023   19.9150 O   0  0  0  0  0  0  0  0  0  0  0  0
    8.4956   14.4281   21.1652 C   0  0  0  0  0  0  0  0  0  0  0  0
    9.5643   11.6341   23.5630 C   0  0  0  0  0  0  0  0  0  0  0  0
   10.9505   11.8488   23.0990 C   0  0  0  0  0  0  0  0  0  0  0  0
    9.0424   10.4343   23.9200 N   0  0  0  0  0  0  0  0  0  0  0  0
    9.7744    9.1867   23.7342 C   0  0  0  0  0  0  0  0  0  0  0  0
    9.3030    7.9897   23.0024 C   0  0  0  0  0  0  0  0  0  0  0  0
   10.3407    8.8370   22.3964 C   0  0  0  0  0  0  0  0  0  0  0  0
  1  2  1  0
  2  3  1  0
  3  4  2  0
  4  5  1  0
  5  6  2  0
  6  7  1  0
  7  8  2  0
  7  9  1  0
  9 10  1  0
 10 11  2  0
 10 12  1  0
 12 13  1  0
 13 14  1  0
 14 15  1  0
 14 16  1  0
  9 17  2  0
 17 18  1  0
 17 19  1  0
 19 20  1  0
 20 21  1  0
 21 22  1  0
  8  3  1  0
 16 12  1  0
 22 20  1  0
 19  6  1  0
M  END
>  <alias>  (1560) 
None

>  <rmsd(smina/fragmenstein)>  (1560) 
0.729

>  <smiles>  (1560) 
COc1ccc2c(c1)c(C(=O)N1CC(O)C1)c(C)n2C1CC1

>  <gnina_score>  (1560) 
5.574

>  <inspiration_score>  (1560) 
None

>  <energy_score>  (1560) 
-8.808312

>  <distance_score>  (1560) 
1.514967

>  <gnina_score_min>  (1560) 
5.77

>  <inchikey>  (1560) 
GFPYZSWHLXWYJT-UHFFFAOYSA-N

>  <exports>  (1560) 
['/opt/xchem-fragalysis-2/maxwin/BulkDock/OUTPUTS/openbind_a71ev2a_c2_elabs_1LOUU54.sdf', '/opt/xchem-fragalysis-2/maxwin/BulkDock/OUTPUTS/openbind_a71ev2a_c2_elabs_1LSYIDY.sdf']

>  <name>  (1560) 
P577579

>  <ref_pdb>  (1560) 
A3066a

>  <subsites>  (1560) 
None

>  <HIPPO Pose ID>  (1560) 
577579

>  <ref_mols>  (1560) 
A3066a

>  <HIPPO Compound ID>  (1560) 
352563

>  <tags>  (1560) 
openbind_a71ev2a_c2_elabs,syndirella_product,openbind_a71ev2a_c2_elabs_fragonly_scored_top80percent,BulkDock Fragalysis export,openbind_a71ev2a_c2_elabs_scored,openbind_a71ev2a_c2_elabs_scored_top80percent,openbind_a71ev2a_c2_elabs_activefrags_only_scored_5.2plus,openbind_a71ev2a_c2_elabs_activefrags_only_scored_5.5plus,syndirella_placed

>  <smina_score_min>  (1560) 
-4.222

$$$$
P577580
     RDKit          3D

 22 25  0  0  0  0  0  0  0  0999 V2000
    4.9888   11.3539   28.6290 C   0  0  0  0  0  0  0  0  0  0  0  0
    5.6465   12.2210   27.7112 O   0  0  0  0  0  0  0  0  0  0  0  0
    6.4260   11.6285   26.7550 C   0  0  0  0  0  0  0  0  0  0  0  0
    6.3847   10.2832   26.4015 C   0  0  0  0  0  0  0  0  0  0  0  0
    7.2361    9.7627   25.4195 C   0  0  0  0  0  0  0  0  0  0  0  0
    8.1551   10.6095   24.8091 C   0  0  0  0  0  0  0  0  0  0  0  0
    8.1928   11.9749   25.1402 C   0  0  0  0  0  0  0  0  0  0  0  0
    7.3100   12.4892   26.1034 C   0  0  0  0  0  0  0  0  0  0  0  0
    9.1850   12.5381   24.3384 C   0  0  0  0  0  0  0  0  0  0  0  0
    9.7495   13.8143   24.1017 C   0  0  0  0  0  0  0  0  0  0  0  0
   10.4438   14.3673   24.8567 O   0  0  0  0  0  0  0  0  0  0  0  0
    9.3297   14.1929   22.6641 N   0  0  0  0  0  0  0  0  0  0  0  0
    9.7385   15.2450   21.8511 C   0  0  1  0  0  0  0  0  0  0  0  0
   11.2245   15.3695   21.6202 C   0  0  0  0  0  0  0  0  0  0  0  0
   10.3227   14.9256   20.5130 C   0  0  2  0  0  0  0  0  0  0  0  0
   10.0029   15.8028   19.3766 C   0  0  0  0  0  0  0  0  0  0  0  0
    9.7635   11.5478   23.5870 C   0  0  0  0  0  0  0  0  0  0  0  0
   10.8970   11.6932   22.6551 C   0  0  0  0  0  0  0  0  0  0  0  0
    9.1277   10.3989   23.8611 N   0  0  0  0  0  0  0  0  0  0  0  0
    9.4983    9.2210   23.0929 C   0  0  0  0  0  0  0  0  0  0  0  0
   10.7723    8.4665   23.3967 C   0  0  0  0  0  0  0  0  0  0  0  0
    9.4545    7.8265   23.5121 C   0  0  0  0  0  0  0  0  0  0  0  0
  1  2  1  0
  2  3  1  0
  3  4  2  0
  4  5  1  0
  5  6  2  0
  6  7  1  0
  7  8  2  0
  7  9  1  0
  9 10  1  0
 10 11  2  0
 10 12  1  0
 13 12  1  1
 13 14  1  0
 14 15  1  0
 15 16  1  6
  9 17  2  0
 17 18  1  0
 17 19  1  0
 19 20  1  0
 20 21  1  0
 21 22  1  0
  8  3  1  0
 15 13  1  0
 22 20  1  0
 19  6  1  0
M  END
>  <alias>  (1561) 
None

>  <rmsd(smina/fragmenstein)>  (1561) 
0.335

>  <smiles>  (1561) 
COc1ccc2c(c1)c(C(=O)N[C@H]1C[C@@H]1C)c(C)n2C1CC1

>  <gnina_score>  (1561) 
5.807

>  <inspiration_score>  (1561) 
None

>  <energy_score>  (1561) 
-3.111232

>  <distance_score>  (1561) 
1.289477

>  <gnina_score_min>  (1561) 
5.879

>  <inchikey>  (1561) 
RESQYMOVTZVZTF-BONVTDFDSA-N

>  <exports>  (1561) 
['/opt/xchem-fragalysis-2/maxwin/BulkDock/OUTPUTS/openbind_a71ev2a_c2_elabs_1LOUU54.sdf', '/opt/xchem-fragalysis-2/maxwin/BulkDock/OUTPUTS/openbind_a71ev2a_c2_elabs_1LSYIDY.sdf']

>  <name>  (1561) 
P577580

>  <ref_pdb>  (1561) 
A3066a

>  <subsites>  (1561) 
None

>  <HIPPO Pose ID>  (1561) 
577580

>  <ref_mols>  (1561) 
A3066a

>  <HIPPO Compound ID>  (1561) 
352564

>  <tags>  (1561) 
openbind_a71ev2a_c2_elabs,syndirella_product,openbind_a71ev2a_c2_elabs_fragonly_scored_top80percent,BulkDock Fragalysis export,openbind_a71ev2a_c2_elabs_scored,openbind_a71ev2a_c2_elabs_scored_top80percent,openbind_a71ev2a_c2_elabs_activefrags_only_scored_5.2plus,openbind_a71ev2a_c2_elabs_activefrags_only_scored_5.5plus,syndirella_placed

>  <smina_score_min>  (1561) 
-4.452

$$$$
P577582
     RDKit          3D

 22 23  0  0  0  0  0  0  0  0999 V2000
   10.9682    8.0602   23.4425 C   0  0  0  0  0  0  0  0  0  0  0  0
    9.6211    8.1848   22.8143 C   0  0  0  0  0  0  0  0  0  0  0  0
    8.6100    8.7217   23.7884 C   0  0  0  0  0  0  0  0  0  0  0  0
    8.5768   10.0801   24.2657 N   0  0  0  0  0  0  0  0  0  0  0  0
    9.2596   11.1611   23.8127 C   0  0  0  0  0  0  0  0  0  0  0  0
   10.1677   11.2058   22.6525 C   0  0  0  0  0  0  0  0  0  0  0  0
    8.9089   12.2448   24.6080 C   0  0  0  0  0  0  0  0  0  0  0  0
    9.4064   13.5532   24.3103 C   0  0  0  0  0  0  0  0  0  0  0  0
    8.7059   14.4638   24.1666 O   0  0  0  0  0  0  0  0  0  0  0  0
   10.9145   13.4301   24.1396 N   0  0  0  0  0  0  0  0  0  0  0  0
   11.8626   14.3621   23.6700 C   0  0  0  0  0  0  0  0  0  0  0  0
   11.6695   14.3619   22.1462 C   0  0  0  0  0  0  0  0  0  0  0  0
   12.4442   15.3610   21.4684 N   0  0  0  0  0  0  0  0  0  0  0  0
   13.8046   15.0956   21.8418 O   0  0  0  0  0  0  0  0  0  0  0  0
    7.9146   11.8535   25.4972 C   0  0  0  0  0  0  0  0  0  0  0  0
    7.1636   12.5361   26.4683 C   0  0  0  0  0  0  0  0  0  0  0  0
    6.2159   11.8432   27.2167 C   0  0  0  0  0  0  0  0  0  0  0  0
    5.5814   12.5899   28.1706 O   0  0  0  0  0  0  0  0  0  0  0  0
    4.5720   11.9434   28.9360 C   0  0  0  0  0  0  0  0  0  0  0  0
    5.9871   10.4995   26.9499 C   0  0  0  0  0  0  0  0  0  0  0  0
    6.6857    9.8306   25.9398 C   0  0  0  0  0  0  0  0  0  0  0  0
    7.6921   10.5034   25.2523 C   0  0  0  0  0  0  0  0  0  0  0  0
  1  2  1  0
  2  3  1  0
  3  4  1  0
  4  5  1  0
  5  6  1  0
  5  7  2  0
  7  8  1  0
  8  9  2  0
  8 10  1  0
 10 11  1  0
 11 12  1  0
 12 13  1  0
 13 14  1  0
  7 15  1  0
 15 16  2  0
 16 17  1  0
 17 18  1  0
 18 19  1  0
 17 20  2  0
 20 21  1  0
 21 22  2  0
 22  4  1  0
 22 15  1  0
M  END
>  <alias>  (1562) 
None

>  <rmsd(smina/fragmenstein)>  (1562) 
0.711

>  <smiles>  (1562) 
CCCn1c(C)c(C(=O)NCCNO)c2cc(OC)ccc21

>  <gnina_score>  (1562) 
5.581

>  <inspiration_score>  (1562) 
None

>  <energy_score>  (1562) 
-1.113888

>  <distance_score>  (1562) 
1.501444

>  <gnina_score_min>  (1562) 
5.564

>  <inchikey>  (1562) 
WIKUKVKXHAERDT-UHFFFAOYSA-N

>  <exports>  (1562) 
['/opt/xchem-fragalysis-2/maxwin/BulkDock/OUTPUTS/openbind_a71ev2a_c2_elabs_1LOUU54.sdf', '/opt/xchem-fragalysis-2/maxwin/BulkDock/OUTPUTS/openbind_a71ev2a_c2_elabs_1LSYIDY.sdf']

>  <name>  (1562) 
P577582

>  <ref_pdb>  (1562) 
A3066a

>  <subsites>  (1562) 
None

>  <HIPPO Pose ID>  (1562) 
577582

>  <ref_mols>  (1562) 
A3066a

>  <HIPPO Compound ID>  (1562) 
352579

>  <tags>  (1562) 
openbind_a71ev2a_c2_elabs,syndirella_product,openbind_a71ev2a_c2_elabs_fragonly_scored_top80percent,BulkDock Fragalysis export,openbind_a71ev2a_c2_elabs_scored,openbind_a71ev2a_c2_elabs_scored_top80percent,openbind_a71ev2a_c2_elabs_activefrags_only_scored_5.2plus,openbind_a71ev2a_c2_elabs_activefrags_only_scored_5.5plus,syndirella_placed

>  <smina_score_min>  (1562) 
-4.466

$$$$
P577583
     RDKit          3D

 22 24  0  0  0  0  0  0  0  0999 V2000
    4.8223   12.8426   28.5905 C   0  0  0  0  0  0  0  0  0  0  0  0
    5.8905   13.3486   27.7992 O   0  0  0  0  0  0  0  0  0  0  0  0
    6.4802   12.4798   26.9208 C   0  0  0  0  0  0  0  0  0  0  0  0
    6.2138   11.1180   26.8233 C   0  0  0  0  0  0  0  0  0  0  0  0
    6.8815   10.3129   25.8967 C   0  0  0  0  0  0  0  0  0  0  0  0
    7.8549   10.9051   25.0838 C   0  0  0  0  0  0  0  0  0  0  0  0
    8.1351   12.2770   25.1568 C   0  0  0  0  0  0  0  0  0  0  0  0
    7.4360   13.0658   26.0862 C   0  0  0  0  0  0  0  0  0  0  0  0
    9.1595   12.5527   24.2231 C   0  0  0  0  0  0  0  0  0  0  0  0
    9.9396   13.7508   23.9737 C   0  0  0  0  0  0  0  0  0  0  0  0
   10.5493   14.2496   24.8317 O   0  0  0  0  0  0  0  0  0  0  0  0
    9.8662   14.0899   22.4744 N   0  0  0  0  0  0  0  0  0  0  0  0
   10.4523   15.1695   21.7333 C   0  0  0  0  0  0  0  0  0  0  0  0
   11.1201   14.7268   20.4499 C   0  0  0  0  0  0  0  0  0  0  0  0
   12.4914   14.1322   20.5981 C   0  0  0  0  0  0  0  0  0  0  0  0
   10.5990   14.9056   19.3470 O   0  0  0  0  0  0  0  0  0  0  0  0
    9.4815   11.3589   23.6238 C   0  0  0  0  0  0  0  0  0  0  0  0
   10.5975   11.1168   22.7354 C   0  0  0  0  0  0  0  0  0  0  0  0
    8.7102   10.3694   24.1467 N   0  0  0  0  0  0  0  0  0  0  0  0
    8.7984    8.9152   23.8520 C   0  0  0  0  0  0  0  0  0  0  0  0
   10.0528    8.0827   23.8019 C   0  0  0  0  0  0  0  0  0  0  0  0
    9.2707    8.3028   22.5597 C   0  0  0  0  0  0  0  0  0  0  0  0
  1  2  1  0
  2  3  1  0
  3  4  2  0
  4  5  1  0
  5  6  2  0
  6  7  1  0
  7  8  2  0
  7  9  1  0
  9 10  1  0
 10 11  2  0
 10 12  1  0
 12 13  1  0
 13 14  1  0
 14 15  1  0
 14 16  2  0
  9 17  2  0
 17 18  1  0
 17 19  1  0
 19 20  1  0
 20 21  1  0
 21 22  1  0
  8  3  1  0
 22 20  1  0
 19  6  1  0
M  END
>  <alias>  (1563) 
None

>  <rmsd(smina/fragmenstein)>  (1563) 
0.589

>  <smiles>  (1563) 
COc1ccc2c(c1)c(C(=O)NCC(C)=O)c(C)n2C1CC1

>  <gnina_score>  (1563) 
5.626

>  <inspiration_score>  (1563) 
None

>  <energy_score>  (1563) 
-3.113068

>  <distance_score>  (1563) 
1.207798

>  <gnina_score_min>  (1563) 
5.764

>  <inchikey>  (1563) 
MQYWEAXHJAXDHK-UHFFFAOYSA-N

>  <exports>  (1563) 
['/opt/xchem-fragalysis-2/maxwin/BulkDock/OUTPUTS/openbind_a71ev2a_c2_elabs_1LOUU54.sdf', '/opt/xchem-fragalysis-2/maxwin/BulkDock/OUTPUTS/openbind_a71ev2a_c2_elabs_1LSYIDY.sdf']

>  <name>  (1563) 
P577583

>  <ref_pdb>  (1563) 
A3066a

>  <subsites>  (1563) 
None

>  <HIPPO Pose ID>  (1563) 
577583

>  <ref_mols>  (1563) 
A3066a

>  <HIPPO Compound ID>  (1563) 
352582

>  <tags>  (1563) 
openbind_a71ev2a_c2_elabs,syndirella_product,openbind_a71ev2a_c2_elabs_fragonly_scored_top80percent,BulkDock Fragalysis export,openbind_a71ev2a_c2_elabs_scored,openbind_a71ev2a_c2_elabs_scored_top80percent,openbind_a71ev2a_c2_elabs_activefrags_only_scored_5.2plus,openbind_a71ev2a_c2_elabs_activefrags_only_scored_5.5plus,syndirella_placed

>  <smina_score_min>  (1563) 
-4.482

$$$$
P577584
     RDKit          3D

 22 24  0  0  0  0  0  0  0  0999 V2000
   12.5965   14.0969   21.0190 C   0  0  0  0  0  0  0  0  0  0  0  0
   11.3888   14.6604   20.9791 C   0  0  0  0  0  0  0  0  0  0  0  0
   10.5402   15.0595   19.3843 Br  0  0  0  0  0  0  0  0  0  0  0  0
   10.7077   15.1811   22.1842 C   0  0  0  0  0  0  0  0  0  0  0  0
    9.9684   14.1611   22.8456 N   0  0  0  0  0  0  0  0  0  0  0  0
    9.9784   13.7151   24.3126 C   0  0  0  0  0  0  0  0  0  0  0  0
   10.5356   14.1596   25.2331 O   0  0  0  0  0  0  0  0  0  0  0  0
    9.2096   12.4887   24.4186 C   0  0  0  0  0  0  0  0  0  0  0  0
    9.5431   11.3611   23.6902 C   0  0  0  0  0  0  0  0  0  0  0  0
   10.6289   11.3072   22.7138 C   0  0  0  0  0  0  0  0  0  0  0  0
    8.7818   10.3245   24.1406 N   0  0  0  0  0  0  0  0  0  0  0  0
    8.9304    8.8820   23.8286 C   0  0  0  0  0  0  0  0  0  0  0  0
   10.2374    8.1575   23.6644 C   0  0  0  0  0  0  0  0  0  0  0  0
    9.3182    8.3023   22.5024 C   0  0  0  0  0  0  0  0  0  0  0  0
    7.8839   10.7877   25.0836 C   0  0  0  0  0  0  0  0  0  0  0  0
    6.8826   10.1389   25.8150 C   0  0  0  0  0  0  0  0  0  0  0  0
    6.1833   10.8657   26.7833 C   0  0  0  0  0  0  0  0  0  0  0  0
    6.4366   12.2159   26.9950 C   0  0  0  0  0  0  0  0  0  0  0  0
    5.8160   13.0117   27.9196 O   0  0  0  0  0  0  0  0  0  0  0  0
    4.7723   12.4221   28.6848 C   0  0  0  0  0  0  0  0  0  0  0  0
    7.4130   12.8642   26.2367 C   0  0  0  0  0  0  0  0  0  0  0  0
    8.1510   12.1456   25.2798 C   0  0  0  0  0  0  0  0  0  0  0  0
  1  2  2  0
  2  3  1  0
  2  4  1  0
  4  5  1  0
  5  6  1  0
  6  7  2  0
  6  8  1  0
  8  9  2  0
  9 10  1  0
  9 11  1  0
 11 12  1  0
 12 13  1  0
 13 14  1  0
 11 15  1  0
 15 16  2  0
 16 17  1  0
 17 18  2  0
 18 19  1  0
 19 20  1  0
 18 21  1  0
 21 22  2  0
 22  8  1  0
 14 12  1  0
 22 15  1  0
M  END
>  <alias>  (1564) 
None

>  <rmsd(smina/fragmenstein)>  (1564) 
0.458

>  <smiles>  (1564) 
C=C(Br)CNC(=O)c1c(C)n(C2CC2)c2ccc(OC)cc12

>  <gnina_score>  (1564) 
5.783

>  <inspiration_score>  (1564) 
None

>  <energy_score>  (1564) 
-0.617742

>  <distance_score>  (1564) 
1.185292

>  <gnina_score_min>  (1564) 
5.877

>  <inchikey>  (1564) 
OABIGVZUHQHZJH-UHFFFAOYSA-N

>  <exports>  (1564) 
['/opt/xchem-fragalysis-2/maxwin/BulkDock/OUTPUTS/openbind_a71ev2a_c2_elabs_1LOUU54.sdf', '/opt/xchem-fragalysis-2/maxwin/BulkDock/OUTPUTS/openbind_a71ev2a_c2_elabs_1LSYIDY.sdf']

>  <name>  (1564) 
P577584

>  <ref_pdb>  (1564) 
A3066a

>  <subsites>  (1564) 
None

>  <HIPPO Pose ID>  (1564) 
577584

>  <ref_mols>  (1564) 
A3066a

>  <HIPPO Compound ID>  (1564) 
352586

>  <tags>  (1564) 
openbind_a71ev2a_c2_elabs,syndirella_product,openbind_a71ev2a_c2_elabs_fragonly_scored_top80percent,BulkDock Fragalysis export,openbind_a71ev2a_c2_elabs_scored,openbind_a71ev2a_c2_elabs_scored_top80percent,openbind_a71ev2a_c2_elabs_activefrags_only_scored_5.2plus,openbind_a71ev2a_c2_elabs_activefrags_only_scored_5.5plus,syndirella_placed

>  <smina_score_min>  (1564) 
-4.536

$$$$
P577585
     RDKit          3D

 22 25  0  0  0  0  0  0  0  0999 V2000
    4.8231   12.5533   28.6256 C   0  0  0  0  0  0  0  0  0  0  0  0
    5.8133   13.1108   27.7708 O   0  0  0  0  0  0  0  0  0  0  0  0
    6.4262   12.2616   26.8894 C   0  0  0  0  0  0  0  0  0  0  0  0
    6.1866   10.8971   26.7753 C   0  0  0  0  0  0  0  0  0  0  0  0
    6.8761   10.1147   25.8443 C   0  0  0  0  0  0  0  0  0  0  0  0
    7.8550   10.7232   25.0525 C   0  0  0  0  0  0  0  0  0  0  0  0
    8.0980   12.0965   25.1358 C   0  0  0  0  0  0  0  0  0  0  0  0
    7.3713   12.8692   26.0605 C   0  0  0  0  0  0  0  0  0  0  0  0
    9.1195   12.3987   24.2077 C   0  0  0  0  0  0  0  0  0  0  0  0
    9.8180   13.6506   23.9859 C   0  0  0  0  0  0  0  0  0  0  0  0
   10.0552   14.3429   24.9060 O   0  0  0  0  0  0  0  0  0  0  0  0
   10.2131   13.7861   22.5307 N   0  0  0  0  0  0  0  0  0  0  0  0
   11.1113   14.7916   21.8416 C   0  0  0  0  0  0  0  0  0  0  0  0
   10.1712   14.9234   20.6861 C   0  0  0  0  0  0  0  0  0  0  0  0
   10.0433   16.1354   20.1019 F   0  0  0  0  0  0  0  0  0  0  0  0
    9.1541   14.5906   21.7265 C   0  0  0  0  0  0  0  0  0  0  0  0
    9.4969   11.2154   23.6171 C   0  0  0  0  0  0  0  0  0  0  0  0
   10.6118   11.0838   22.6991 C   0  0  0  0  0  0  0  0  0  0  0  0
    8.7436   10.2123   24.1305 N   0  0  0  0  0  0  0  0  0  0  0  0
    8.8834    8.7696   23.8534 C   0  0  0  0  0  0  0  0  0  0  0  0
   10.1744    8.0220   23.6780 C   0  0  0  0  0  0  0  0  0  0  0  0
    9.2511    8.1870   22.5193 C   0  0  0  0  0  0  0  0  0  0  0  0
  1  2  1  0
  2  3  1  0
  3  4  2  0
  4  5  1  0
  5  6  2  0
  6  7  1  0
  7  8  2  0
  7  9  1  0
  9 10  1  0
 10 11  2  0
 10 12  1  0
 12 13  1  0
 13 14  1  0
 14 15  1  0
 14 16  1  0
  9 17  2  0
 17 18  1  0
 17 19  1  0
 19 20  1  0
 20 21  1  0
 21 22  1  0
  8  3  1  0
 16 12  1  0
 22 20  1  0
 19  6  1  0
M  END
>  <alias>  (1565) 
None

>  <rmsd(smina/fragmenstein)>  (1565) 
0.474

>  <smiles>  (1565) 
COc1ccc2c(c1)c(C(=O)N1CC(F)C1)c(C)n2C1CC1

>  <gnina_score>  (1565) 
5.783

>  <inspiration_score>  (1565) 
None

>  <energy_score>  (1565) 
-0.963812

>  <distance_score>  (1565) 
1.083585

>  <gnina_score_min>  (1565) 
5.831

>  <inchikey>  (1565) 
REODOEHGGUZKMU-UHFFFAOYSA-N

>  <exports>  (1565) 
['/opt/xchem-fragalysis-2/maxwin/BulkDock/OUTPUTS/openbind_a71ev2a_c2_elabs_1LOUU54.sdf', '/opt/xchem-fragalysis-2/maxwin/BulkDock/OUTPUTS/openbind_a71ev2a_c2_elabs_1LSYIDY.sdf']

>  <name>  (1565) 
P577585

>  <ref_pdb>  (1565) 
A3066a

>  <subsites>  (1565) 
None

>  <HIPPO Pose ID>  (1565) 
577585

>  <ref_mols>  (1565) 
A3066a

>  <HIPPO Compound ID>  (1565) 
352588

>  <tags>  (1565) 
openbind_a71ev2a_c2_elabs,syndirella_product,openbind_a71ev2a_c2_elabs_fragonly_scored_top80percent,BulkDock Fragalysis export,openbind_a71ev2a_c2_elabs_scored,openbind_a71ev2a_c2_elabs_scored_top80percent,openbind_a71ev2a_c2_elabs_activefrags_only_scored_5.2plus,openbind_a71ev2a_c2_elabs_activefrags_only_scored_5.5plus,syndirella_placed

>  <smina_score_min>  (1565) 
-5.209

$$$$
P577586
     RDKit          3D

 22 24  0  0  0  0  0  0  0  0999 V2000
    4.8278   12.8675   28.5970 C   0  0  0  0  0  0  0  0  0  0  0  0
    5.8865   13.3658   27.7888 O   0  0  0  0  0  0  0  0  0  0  0  0
    6.4810   12.4867   26.9245 C   0  0  0  0  0  0  0  0  0  0  0  0
    6.2055   11.1261   26.8327 C   0  0  0  0  0  0  0  0  0  0  0  0
    6.8769   10.3100   25.9183 C   0  0  0  0  0  0  0  0  0  0  0  0
    7.8668   10.8890   25.1161 C   0  0  0  0  0  0  0  0  0  0  0  0
    8.1608   12.2591   25.1874 C   0  0  0  0  0  0  0  0  0  0  0  0
    7.4518   13.0601   26.0986 C   0  0  0  0  0  0  0  0  0  0  0  0
    9.2021   12.5202   24.2686 C   0  0  0  0  0  0  0  0  0  0  0  0
    9.9900   13.7121   23.9995 C   0  0  0  0  0  0  0  0  0  0  0  0
   10.5462   14.2702   24.8579 O   0  0  0  0  0  0  0  0  0  0  0  0
    9.9997   13.9567   22.4789 N   0  0  0  0  0  0  0  0  0  0  0  0
   10.7727   14.8828   21.6812 C   0  0  2  0  0  0  0  0  0  0  0  0
   10.2992   14.8645   20.2378 C   0  0  0  0  0  0  0  0  0  0  0  0
   12.2732   14.6196   21.8254 C   0  0  0  0  0  0  0  0  0  0  0  0
   12.5646   13.3633   21.4022 F   0  0  0  0  0  0  0  0  0  0  0  0
    9.5198   11.3175   23.6821 C   0  0  0  0  0  0  0  0  0  0  0  0
   10.6223   11.0679   22.7765 C   0  0  0  0  0  0  0  0  0  0  0  0
    8.7269   10.3415   24.1905 N   0  0  0  0  0  0  0  0  0  0  0  0
    8.7921    8.8907   23.8802 C   0  0  0  0  0  0  0  0  0  0  0  0
   10.0336    8.0389   23.8170 C   0  0  0  0  0  0  0  0  0  0  0  0
    9.2561    8.2944   22.5769 C   0  0  0  0  0  0  0  0  0  0  0  0
  1  2  1  0
  2  3  1  0
  3  4  2  0
  4  5  1  0
  5  6  2  0
  6  7  1  0
  7  8  2  0
  7  9  1  0
  9 10  1  0
 10 11  2  0
 10 12  1  0
 12 13  1  0
 13 14  1  6
 13 15  1  0
 15 16  1  0
  9 17  2  0
 17 18  1  0
 17 19  1  0
 19 20  1  0
 20 21  1  0
 21 22  1  0
  8  3  1  0
 22 20  1  0
 19  6  1  0
M  END
>  <alias>  (1566) 
None

>  <rmsd(smina/fragmenstein)>  (1566) 
0.396

>  <smiles>  (1566) 
COc1ccc2c(c1)c(C(=O)N[C@H](C)CF)c(C)n2C1CC1

>  <gnina_score>  (1566) 
5.809

>  <inspiration_score>  (1566) 
None

>  <energy_score>  (1566) 
-11.204599

>  <distance_score>  (1566) 
1.147781

>  <gnina_score_min>  (1566) 
5.9

>  <inchikey>  (1566) 
JYOBGWFALXXHOM-SNVBAGLBSA-N

>  <exports>  (1566) 
['/opt/xchem-fragalysis-2/maxwin/BulkDock/OUTPUTS/openbind_a71ev2a_c2_elabs_1LOUU54.sdf', '/opt/xchem-fragalysis-2/maxwin/BulkDock/OUTPUTS/openbind_a71ev2a_c2_elabs_1LSYIDY.sdf']

>  <name>  (1566) 
P577586

>  <ref_pdb>  (1566) 
A3066a

>  <subsites>  (1566) 
None

>  <HIPPO Pose ID>  (1566) 
577586

>  <ref_mols>  (1566) 
A3066a

>  <HIPPO Compound ID>  (1566) 
352589

>  <tags>  (1566) 
openbind_a71ev2a_c2_elabs,syndirella_product,openbind_a71ev2a_c2_elabs_fragonly_scored_top80percent,BulkDock Fragalysis export,openbind_a71ev2a_c2_elabs_scored,openbind_a71ev2a_c2_elabs_scored_top80percent,openbind_a71ev2a_c2_elabs_activefrags_only_scored_5.2plus,openbind_a71ev2a_c2_elabs_activefrags_only_scored_5.5plus,syndirella_placed

>  <smina_score_min>  (1566) 
-4.865

$$$$
P577587
     RDKit          3D

 22 24  0  0  0  0  0  0  0  0999 V2000
    5.4342   14.4693   27.7249 C   0  0  0  0  0  0  0  0  0  0  0  0
    5.4735   13.0485   27.8063 O   0  0  0  0  0  0  0  0  0  0  0  0
    6.2806   12.4023   26.9086 C   0  0  0  0  0  0  0  0  0  0  0  0
    6.1113   11.0203   26.8677 C   0  0  0  0  0  0  0  0  0  0  0  0
    6.8336   10.2142   25.9867 C   0  0  0  0  0  0  0  0  0  0  0  0
    7.7940   10.8263   25.1789 C   0  0  0  0  0  0  0  0  0  0  0  0
    7.9870   12.2164   25.2100 C   0  0  0  0  0  0  0  0  0  0  0  0
    7.2176   13.0127   26.0770 C   0  0  0  0  0  0  0  0  0  0  0  0
    8.9924   12.5073   24.2786 C   0  0  0  0  0  0  0  0  0  0  0  0
    9.6515   13.7113   23.8544 C   0  0  0  0  0  0  0  0  0  0  0  0
   10.3846   14.2981   24.5386 O   0  0  0  0  0  0  0  0  0  0  0  0
    9.2660   13.9344   22.3879 N   0  0  0  0  0  0  0  0  0  0  0  0
    9.7741   14.8739   21.4173 C   0  0  0  0  0  0  0  0  0  0  0  0
   11.1668   14.4057   20.9692 C   0  0  0  0  0  0  0  0  0  0  0  0
   12.4589   15.0640   21.9694 Cl  0  0  0  0  0  0  0  0  0  0  0  0
   11.4116   14.6802   19.2400 Cl  0  0  0  0  0  0  0  0  0  0  0  0
    9.4384   11.3146   23.7585 C   0  0  0  0  0  0  0  0  0  0  0  0
   10.5887   11.1392   22.8857 C   0  0  0  0  0  0  0  0  0  0  0  0
    8.6943   10.3056   24.2718 N   0  0  0  0  0  0  0  0  0  0  0  0
    8.8051    8.8668   23.9317 C   0  0  0  0  0  0  0  0  0  0  0  0
    9.2603    8.3286   22.5975 C   0  0  0  0  0  0  0  0  0  0  0  0
   10.0656    8.0516   23.8130 C   0  0  0  0  0  0  0  0  0  0  0  0
  1  2  1  0
  2  3  1  0
  3  4  2  0
  4  5  1  0
  5  6  2  0
  6  7  1  0
  7  8  2  0
  7  9  1  0
  9 10  1  0
 10 11  2  0
 10 12  1  0
 12 13  1  0
 13 14  1  0
 14 15  1  0
 14 16  1  0
  9 17  2  0
 17 18  1  0
 17 19  1  0
 19 20  1  0
 20 21  1  0
 21 22  1  0
  8  3  1  0
 22 20  1  0
 19  6  1  0
M  END
>  <alias>  (1567) 
None

>  <rmsd(smina/fragmenstein)>  (1567) 
0.276

>  <smiles>  (1567) 
COc1ccc2c(c1)c(C(=O)NCC(Cl)Cl)c(C)n2C1CC1

>  <gnina_score>  (1567) 
5.933

>  <inspiration_score>  (1567) 
None

>  <energy_score>  (1567) 
-0.688239

>  <distance_score>  (1567) 
1.426617

>  <gnina_score_min>  (1567) 
5.984

>  <inchikey>  (1567) 
AVPQMTMNADRCMV-UHFFFAOYSA-N

>  <exports>  (1567) 
['/opt/xchem-fragalysis-2/maxwin/BulkDock/OUTPUTS/openbind_a71ev2a_c2_elabs_1LOUU54.sdf', '/opt/xchem-fragalysis-2/maxwin/BulkDock/OUTPUTS/openbind_a71ev2a_c2_elabs_1LSYIDY.sdf']

>  <name>  (1567) 
P577587

>  <ref_pdb>  (1567) 
A3066a

>  <subsites>  (1567) 
None

>  <HIPPO Pose ID>  (1567) 
577587

>  <ref_mols>  (1567) 
A3066a

>  <HIPPO Compound ID>  (1567) 
352591

>  <tags>  (1567) 
openbind_a71ev2a_c2_elabs,syndirella_product,openbind_a71ev2a_c2_elabs_fragonly_scored_top80percent,BulkDock Fragalysis export,openbind_a71ev2a_c2_elabs_scored,openbind_a71ev2a_c2_elabs_scored_top80percent,openbind_a71ev2a_c2_elabs_activefrags_only_scored_5.2plus,openbind_a71ev2a_c2_elabs_activefrags_only_scored_5.5plus,syndirella_placed

>  <smina_score_min>  (1567) 
-4.675

$$$$
P577588
     RDKit          3D

 22 24  0  0  0  0  0  0  0  0999 V2000
   10.2913   15.2831   19.6734 C   0  0  0  0  0  0  0  0  0  0  0  0
   10.3797   15.7141   20.9373 C   0  0  0  0  0  0  0  0  0  0  0  0
   11.3046   15.2050   22.0085 C   0  0  2  0  0  0  0  0  0  0  0  0
   12.5537   14.4624   21.5389 C   0  0  0  0  0  0  0  0  0  0  0  0
   10.4729   14.3077   22.7381 N   0  0  0  0  0  0  0  0  0  0  0  0
   10.4968   13.9062   24.2168 C   0  0  0  0  0  0  0  0  0  0  0  0
   11.1499   14.3009   25.0958 O   0  0  0  0  0  0  0  0  0  0  0  0
    9.5677   12.7929   24.3502 C   0  0  0  0  0  0  0  0  0  0  0  0
    9.7994   11.6935   23.5519 C   0  0  0  0  0  0  0  0  0  0  0  0
   10.7617   11.5627   22.4584 C   0  0  0  0  0  0  0  0  0  0  0  0
    9.1334   10.6415   24.0606 N   0  0  0  0  0  0  0  0  0  0  0  0
    9.6811    9.3135   23.7741 C   0  0  0  0  0  0  0  0  0  0  0  0
    9.2166    8.0077   24.2267 C   0  0  0  0  0  0  0  0  0  0  0  0
    9.0008    8.3933   22.8182 C   0  0  0  0  0  0  0  0  0  0  0  0
    8.2032   11.0718   24.9704 C   0  0  0  0  0  0  0  0  0  0  0  0
    7.1801   10.4164   25.6617 C   0  0  0  0  0  0  0  0  0  0  0  0
    6.4265   11.1607   26.5716 C   0  0  0  0  0  0  0  0  0  0  0  0
    6.6554   12.5198   26.7763 C   0  0  0  0  0  0  0  0  0  0  0  0
    5.8221   13.1106   27.6897 O   0  0  0  0  0  0  0  0  0  0  0  0
    5.7566   14.5333   27.6480 C   0  0  0  0  0  0  0  0  0  0  0  0
    7.6855   13.1684   26.0920 C   0  0  0  0  0  0  0  0  0  0  0  0
    8.4684   12.4466   25.1710 C   0  0  0  0  0  0  0  0  0  0  0  0
  1  2  2  0
  2  3  1  0
  3  4  1  6
  3  5  1  0
  5  6  1  0
  6  7  2  0
  6  8  1  0
  8  9  2  0
  9 10  1  0
  9 11  1  0
 11 12  1  0
 12 13  1  0
 13 14  1  0
 11 15  1  0
 15 16  2  0
 16 17  1  0
 17 18  2  0
 18 19  1  0
 19 20  1  0
 18 21  1  0
 21 22  2  0
 22  8  1  0
 14 12  1  0
 22 15  1  0
M  END
>  <alias>  (1568) 
None

>  <rmsd(smina/fragmenstein)>  (1568) 
0.578

>  <smiles>  (1568) 
C=C[C@H](C)NC(=O)c1c(C)n(C2CC2)c2ccc(OC)cc12

>  <gnina_score>  (1568) 
5.688

>  <inspiration_score>  (1568) 
None

>  <energy_score>  (1568) 
-1.584103

>  <distance_score>  (1568) 
0.993531

>  <gnina_score_min>  (1568) 
5.87

>  <inchikey>  (1568) 
YFXSFHYAEXWVCF-NSHDSACASA-N

>  <exports>  (1568) 
['/opt/xchem-fragalysis-2/maxwin/BulkDock/OUTPUTS/openbind_a71ev2a_c2_elabs_1LOUU54.sdf', '/opt/xchem-fragalysis-2/maxwin/BulkDock/OUTPUTS/openbind_a71ev2a_c2_elabs_1LSYIDY.sdf']

>  <name>  (1568) 
P577588

>  <ref_pdb>  (1568) 
A3066a

>  <subsites>  (1568) 
None

>  <HIPPO Pose ID>  (1568) 
577588

>  <ref_mols>  (1568) 
A3066a

>  <HIPPO Compound ID>  (1568) 
352603

>  <tags>  (1568) 
openbind_a71ev2a_c2_elabs,syndirella_product,openbind_a71ev2a_c2_elabs_fragonly_scored_top80percent,BulkDock Fragalysis export,openbind_a71ev2a_c2_elabs_scored,openbind_a71ev2a_c2_elabs_scored_top80percent,openbind_a71ev2a_c2_elabs_activefrags_only_scored_5.2plus,openbind_a71ev2a_c2_elabs_activefrags_only_scored_5.5plus,syndirella_placed

>  <smina_score_min>  (1568) 
-4.122

$$$$
P577589
     RDKit          3D

 22 23  0  0  0  0  0  0  0  0999 V2000
   10.3111    7.2518   23.6254 C   0  0  0  0  0  0  0  0  0  0  0  0
   10.1672    8.7019   23.4652 C   0  0  0  0  0  0  0  0  0  0  0  0
    8.7471    9.1058   23.7748 C   0  0  0  0  0  0  0  0  0  0  0  0
    8.5848   10.5096   24.0975 N   0  0  0  0  0  0  0  0  0  0  0  0
    9.3174   11.5361   23.5779 C   0  0  0  0  0  0  0  0  0  0  0  0
   10.3233   11.3651   22.5312 C   0  0  0  0  0  0  0  0  0  0  0  0
    9.1115   12.6590   24.3520 C   0  0  0  0  0  0  0  0  0  0  0  0
   10.0062   13.7994   24.2661 C   0  0  0  0  0  0  0  0  0  0  0  0
   10.6294   14.1282   25.1949 O   0  0  0  0  0  0  0  0  0  0  0  0
   10.0178   14.3251   22.8204 N   0  0  0  0  0  0  0  0  0  0  0  0
   10.8594   15.2951   22.1913 C   0  0  0  0  0  0  0  0  0  0  0  0
   11.8739   14.7924   21.1947 C   0  0  1  0  0  0  0  0  0  0  0  0
   12.6615   13.6340   21.7262 C   0  0  0  0  0  0  0  0  0  0  0  0
   11.1170   14.5899   19.5600 S   0  0  0  0  0  0  0  0  0  0  0  0
    8.0850   12.3473   25.2691 C   0  0  0  0  0  0  0  0  0  0  0  0
    7.4270   13.0860   26.2700 C   0  0  0  0  0  0  0  0  0  0  0  0
    6.4680   12.4573   27.0650 C   0  0  0  0  0  0  0  0  0  0  0  0
    5.7605   13.0594   28.0720 O   0  0  0  0  0  0  0  0  0  0  0  0
    5.7164   14.4825   28.0433 C   0  0  0  0  0  0  0  0  0  0  0  0
    6.1879   11.1047   26.8843 C   0  0  0  0  0  0  0  0  0  0  0  0
    6.8164   10.3524   25.8922 C   0  0  0  0  0  0  0  0  0  0  0  0
    7.7699   10.9949   25.0969 C   0  0  0  0  0  0  0  0  0  0  0  0
  1  2  1  0
  2  3  1  0
  3  4  1  0
  4  5  1  0
  5  6  1  0
  5  7  2  0
  7  8  1  0
  8  9  2  0
  8 10  1  0
 10 11  1  0
 11 12  1  0
 12 13  1  1
 12 14  1  0
  7 15  1  0
 15 16  2  0
 16 17  1  0
 17 18  1  0
 18 19  1  0
 17 20  2  0
 20 21  1  0
 21 22  2  0
 22  4  1  0
 22 15  1  0
M  END
>  <alias>  (1569) 
None

>  <rmsd(smina/fragmenstein)>  (1569) 
1.136

>  <smiles>  (1569) 
CCCn1c(C)c(C(=O)NC[C@@H](C)S)c2cc(OC)ccc21

>  <gnina_score>  (1569) 
5.693

>  <inspiration_score>  (1569) 
None

>  <energy_score>  (1569) 
-3.377272

>  <distance_score>  (1569) 
1.256563

>  <gnina_score_min>  (1569) 
5.751

>  <inchikey>  (1569) 
ULJKQGQENJKOSJ-LLVKDONJSA-N

>  <exports>  (1569) 
['/opt/xchem-fragalysis-2/maxwin/BulkDock/OUTPUTS/openbind_a71ev2a_c2_elabs_1LOUU54.sdf', '/opt/xchem-fragalysis-2/maxwin/BulkDock/OUTPUTS/openbind_a71ev2a_c2_elabs_1LSYIDY.sdf']

>  <name>  (1569) 
P577589

>  <ref_pdb>  (1569) 
A3066a

>  <subsites>  (1569) 
None

>  <HIPPO Pose ID>  (1569) 
577589

>  <ref_mols>  (1569) 
A3066a

>  <HIPPO Compound ID>  (1569) 
352611

>  <tags>  (1569) 
openbind_a71ev2a_c2_elabs,syndirella_product,openbind_a71ev2a_c2_elabs_fragonly_scored_top80percent,BulkDock Fragalysis export,openbind_a71ev2a_c2_elabs_scored,openbind_a71ev2a_c2_elabs_scored_top80percent,openbind_a71ev2a_c2_elabs_activefrags_only_scored_5.2plus,openbind_a71ev2a_c2_elabs_activefrags_only_scored_5.5plus,syndirella_placed

>  <smina_score_min>  (1569) 
-4.663

$$$$
P577590
     RDKit          3D

 23 24  0  0  0  0  0  0  0  0999 V2000
   10.2337    7.8563   23.8939 C   0  0  0  0  0  0  0  0  0  0  0  0
    9.4307    8.4169   22.7671 C   0  0  0  0  0  0  0  0  0  0  0  0
   10.4187    9.1188   21.8984 C   0  0  0  0  0  0  0  0  0  0  0  0
    8.6972    7.3894   21.9693 C   0  0  0  0  0  0  0  0  0  0  0  0
    8.5617    9.4484   23.1718 O   0  0  0  0  0  0  0  0  0  0  0  0
    8.0051    9.4902   24.3812 C   0  0  0  0  0  0  0  0  0  0  0  0
    7.4347    8.6228   25.0071 O   0  0  0  0  0  0  0  0  0  0  0  0
    8.1688   10.7736   24.8351 N   0  0  0  0  0  0  0  0  0  0  0  0
    9.1548   11.5859   24.3799 C   0  0  0  0  0  0  0  0  0  0  0  0
    9.0065   12.8274   24.9201 C   0  0  0  0  0  0  0  0  0  0  0  0
    9.9641   13.8315   24.5652 C   0  0  0  0  0  0  0  0  0  0  0  0
   10.5800   14.4193   25.3624 O   0  0  0  0  0  0  0  0  0  0  0  0
   10.0432   13.8524   23.0253 N   0  0  0  0  0  0  0  0  0  0  0  0
   10.9578   14.5273   22.1470 C   0  0  0  0  0  0  0  0  0  0  0  0
   12.4378   14.3167   22.4831 C   0  0  0  0  0  0  0  0  0  0  0  0
   13.1868   15.1553   21.9160 O   0  0  0  0  0  0  0  0  0  0  0  0
   12.7247   13.3835   23.2922 O   0  0  0  0  0  0  0  0  0  0  0  0
    7.9279   12.7529   25.8230 C   0  0  0  0  0  0  0  0  0  0  0  0
    7.3233   13.6675   26.6931 C   0  0  0  0  0  0  0  0  0  0  0  0
    6.2778   13.2299   27.5096 C   0  0  0  0  0  0  0  0  0  0  0  0
    5.8336   11.9107   27.4723 C   0  0  0  0  0  0  0  0  0  0  0  0
    6.4064   10.9861   26.6076 C   0  0  0  0  0  0  0  0  0  0  0  0
    7.4511   11.4354   25.7960 C   0  0  0  0  0  0  0  0  0  0  0  0
  1  2  1  0
  2  3  1  0
  2  4  1  0
  2  5  1  0
  5  6  1  0
  6  7  2  0
  6  8  1  0
  8  9  1  0
  9 10  2  0
 10 11  1  0
 11 12  2  0
 11 13  1  0
 13 14  1  0
 14 15  1  0
 15 16  2  0
 15 17  1  0
 10 18  1  0
 18 19  2  0
 19 20  1  0
 20 21  2  0
 21 22  1  0
 22 23  2  0
 23  8  1  0
 23 18  1  0
M  CHG  1  17  -1
M  END
>  <alias>  (1570) 
None

>  <rmsd(smina/fragmenstein)>  (1570) 
0.324

>  <smiles>  (1570) 
CC(C)(C)OC(=O)n1cc(C(=O)NCC(=O)[O-])c2ccccc21

>  <gnina_score>  (1570) 
5.383

>  <inspiration_score>  (1570) 
None

>  <energy_score>  (1570) 
-1.852564

>  <distance_score>  (1570) 
1.816675

>  <gnina_score_min>  (1570) 
5.44

>  <inchikey>  (1570) 
WNERANRJRIHHSY-UHFFFAOYSA-M

>  <exports>  (1570) 
['/opt/xchem-fragalysis-2/maxwin/BulkDock/OUTPUTS/openbind_a71ev2a_c2_elabs_1LOUU54.sdf', '/opt/xchem-fragalysis-2/maxwin/BulkDock/OUTPUTS/openbind_a71ev2a_c2_elabs_1LSYIDY.sdf']

>  <name>  (1570) 
P577590

>  <ref_pdb>  (1570) 
A3066a

>  <subsites>  (1570) 
None

>  <HIPPO Pose ID>  (1570) 
577590

>  <ref_mols>  (1570) 
A3066a

>  <HIPPO Compound ID>  (1570) 
352682

>  <tags>  (1570) 
openbind_a71ev2a_c2_elabs,syndirella_product,openbind_a71ev2a_c2_elabs_fragonly_scored_top80percent,openbind_a71ev2a_c2_elabs_scored,BulkDock Fragalysis export,openbind_a71ev2a_c2_elabs_scored_top80percent,openbind_a71ev2a_c2_elabs_activefrags_only_scored_5.2plus,syndirella_placed

>  <smina_score_min>  (1570) 
-1.405

$$$$
P577592
     RDKit          3D

 24 26  0  0  0  0  0  0  0  0999 V2000
    4.9874   14.3494   28.0091 C   0  0  0  0  0  0  0  0  0  0  0  0
    6.2561   14.6534   27.4433 O   0  0  0  0  0  0  0  0  0  0  0  0
    6.8593   13.6580   26.7217 C   0  0  0  0  0  0  0  0  0  0  0  0
    6.5197   12.3088   26.7648 C   0  0  0  0  0  0  0  0  0  0  0  0
    7.2214   11.3671   26.0063 C   0  0  0  0  0  0  0  0  0  0  0  0
    8.2805   11.8169   25.2020 C   0  0  0  0  0  0  0  0  0  0  0  0
    8.6224   13.1768   25.1113 C   0  0  0  0  0  0  0  0  0  0  0  0
    7.9093   14.0958   25.9030 C   0  0  0  0  0  0  0  0  0  0  0  0
    9.6590   13.2728   24.1517 C   0  0  0  0  0  0  0  0  0  0  0  0
   10.4698   14.3417   23.5793 C   0  0  0  0  0  0  0  0  0  0  0  0
   11.4383   14.7306   24.1643 O   0  0  0  0  0  0  0  0  0  0  0  0
    9.9581   14.6810   22.2901 N   0  0  0  0  0  0  0  0  0  0  0  0
   10.4986   15.5275   21.2443 C   0  0  2  0  0  0  0  0  0  0  0  0
    9.3778   16.3156   20.5895 C   0  0  0  0  0  0  0  0  0  0  0  0
   11.2300   14.6724   20.1937 C   0  0  0  0  0  0  0  0  0  0  0  0
   12.4165   14.0914   20.7301 O   0  0  0  0  0  0  0  0  0  0  0  0
    9.8433   12.0098   23.6383 C   0  0  0  0  0  0  0  0  0  0  0  0
   10.6942   11.7253   22.4826 C   0  0  0  0  0  0  0  0  0  0  0  0
    9.1775   11.1153   24.4095 N   0  0  0  0  0  0  0  0  0  0  0  0
    9.3234    9.6729   24.4106 C   0  0  0  0  0  0  0  0  0  0  0  0
   10.6174    9.0251   23.9732 C   0  0  0  0  0  0  0  0  0  0  0  0
   10.2514    7.6860   23.4653 C   0  0  0  0  0  0  0  0  0  0  0  0
    9.1325    8.0906   22.5706 C   0  0  0  0  0  0  0  0  0  0  0  0
    8.3580    9.0143   23.4909 C   0  0  0  0  0  0  0  0  0  0  0  0
  1  2  1  0
  2  3  1  0
  3  4  2  0
  4  5  1  0
  5  6  2  0
  6  7  1  0
  7  8  2  0
  7  9  1  0
  9 10  1  0
 10 11  2  0
 10 12  1  0
 12 13  1  0
 13 14  1  6
 13 15  1  0
 15 16  1  0
  9 17  2  0
 17 18  1  0
 17 19  1  0
 19 20  1  0
 20 21  1  0
 21 22  1  0
 22 23  1  0
 23 24  1  0
  8  3  1  0
 24 20  1  0
 19  6  1  0
M  END
>  <alias>  (1571) 
None

>  <rmsd(smina/fragmenstein)>  (1571) 
0.708

>  <smiles>  (1571) 
COc1ccc2c(c1)c(C(=O)N[C@H](C)CO)c(C)n2C1CCCC1

>  <gnina_score>  (1571) 
6.068

>  <inspiration_score>  (1571) 
None

>  <energy_score>  (1571) 
-1.54235

>  <distance_score>  (1571) 
1.582396

>  <gnina_score_min>  (1571) 
6.057

>  <inchikey>  (1571) 
DSQLVFZMSHBCQS-GFCCVEGCSA-N

>  <exports>  (1571) 
['/opt/xchem-fragalysis-2/maxwin/BulkDock/OUTPUTS/openbind_a71ev2a_c2_elabs_1LOUU54.sdf', '/opt/xchem-fragalysis-2/maxwin/BulkDock/OUTPUTS/openbind_a71ev2a_c2_elabs_1LSYIDY.sdf']

>  <name>  (1571) 
P577592

>  <ref_pdb>  (1571) 
A3066a

>  <subsites>  (1571) 
None

>  <HIPPO Pose ID>  (1571) 
577592

>  <ref_mols>  (1571) 
A3066a

>  <HIPPO Compound ID>  (1571) 
353088

>  <tags>  (1571) 
openbind_a71ev2a_c2_elabs,syndirella_product,openbind_a71ev2a_c2_elabs_fragonly_scored_top80percent,BulkDock Fragalysis export,openbind_a71ev2a_c2_elabs_fragonly_scored_6plus,openbind_a71ev2a_c2_elabs_scored,openbind_a71ev2a_c2_elabs_scored_top80percent,openbind_a71ev2a_c2_elabs_activefrags_only_scored_5.2plus,openbind_a71ev2a_c2_elabs_activefrags_only_scored_5.5plus,openbind_a71ev2a_c2_elabs_scored_6plus,syndirella_placed

>  <smina_score_min>  (1571) 
-2.492

$$$$
P584761
     RDKit          3D

 16 17  0  0  0  0  0  0  0  0999 V2000
   10.4458   14.7406   23.9558 O   0  0  0  0  0  0  0  0  0  0  0  0
    9.7695   14.1237   23.2387 C   0  0  0  0  0  0  0  0  0  0  0  0
    9.3740   14.3791   21.7785 N   0  0  0  0  0  0  0  0  0  0  0  0
    9.8039   15.4018   20.8559 C   0  0  0  0  0  0  0  0  0  0  0  0
   11.0263   14.9532   20.0694 C   0  0  0  0  0  0  0  0  0  0  0  0
   12.4155   14.7440   21.1553 Cl  0  0  0  0  0  0  0  0  0  0  0  0
    9.2426   12.8372   23.6803 C   0  0  0  0  0  0  0  0  0  0  0  0
    9.8327   11.6784   23.1880 C   0  0  0  0  0  0  0  0  0  0  0  0
    9.3474   10.4452   23.5789 C   0  0  0  0  0  0  0  0  0  0  0  0
   10.0851    9.0330   22.9803 Cl  0  0  0  0  0  0  0  0  0  0  0  0
    8.2906   10.3356   24.4836 C   0  0  0  0  0  0  0  0  0  0  0  0
    7.7040   11.5022   25.0016 C   0  0  0  0  0  0  0  0  0  0  0  0
    6.6511   11.7557   25.9165 C   0  0  0  0  0  0  0  0  0  0  0  0
    6.5253   13.1203   26.0393 C   0  0  0  0  0  0  0  0  0  0  0  0
    7.4572   13.7093   25.2269 N   0  0  0  0  0  0  0  0  0  0  0  0
    8.1933   12.7402   24.5890 C   0  0  0  0  0  0  0  0  0  0  0  0
  1  2  2  0
  2  3  1  0
  3  4  1  0
  4  5  1  0
  5  6  1  0
  2  7  1  0
  7  8  2  0
  8  9  1  0
  9 10  1  0
  9 11  2  0
 11 12  1  0
 12 13  1  0
 13 14  2  0
 14 15  1  0
 15 16  1  0
 16  7  1  0
 16 12  2  0
M  END
>  <alias>  (1572) 
None

>  <rmsd(smina/fragmenstein)>  (1572) 
0.46

>  <smiles>  (1572) 
O=C(NCCCl)c1cc(Cl)cc2cc[nH]c12

>  <gnina_score>  (1572) 
5.211

>  <inspiration_score>  (1572) 
None

>  <energy_score>  (1572) 
-7.723636

>  <distance_score>  (1572) 
1.398026

>  <gnina_score_min>  (1572) 
5.239

>  <inchikey>  (1572) 
WYEAJZCUNNWONS-UHFFFAOYSA-N

>  <exports>  (1572) 
['/opt/xchem-fragalysis-2/maxwin/BulkDock/OUTPUTS/openbind_a71ev2a_c2_elabs_1LOUU54.sdf', '/opt/xchem-fragalysis-2/maxwin/BulkDock/OUTPUTS/openbind_a71ev2a_c2_elabs_1LSYIDY.sdf']

>  <name>  (1572) 
P584761

>  <ref_pdb>  (1572) 
A0566a

>  <subsites>  (1572) 
None

>  <HIPPO Pose ID>  (1572) 
584761

>  <ref_mols>  (1572) 
A0566a

>  <HIPPO Compound ID>  (1572) 
438753

>  <tags>  (1572) 
openbind_a71ev2a_c2_elabs,syndirella_product,openbind_a71ev2a_c2_elabs_fragonly_scored_top80percent,openbind_a71ev2a_c2_elabs_scored,BulkDock Fragalysis export,openbind_a71ev2a_c2_elabs_scored_top80percent,openbind_a71ev2a_c2_elabs_activefrags_only_scored_5.2plus,syndirella_placed

>  <smina_score_min>  (1572) 
-5.333

$$$$
P584762
     RDKit          3D

 16 17  0  0  0  0  0  0  0  0999 V2000
    9.0676   14.9581   23.9427 O   0  0  0  0  0  0  0  0  0  0  0  0
    9.2622   14.0662   23.2201 C   0  0  0  0  0  0  0  0  0  0  0  0
    9.6736   14.0547   21.7423 N   0  0  0  0  0  0  0  0  0  0  0  0
   10.0250   15.1318   20.8648 C   0  0  0  0  0  0  0  0  0  0  0  0
   11.4613   14.9290   20.4162 C   0  0  0  0  0  0  0  0  0  0  0  0
   12.5670   15.1115   21.8473 S   0  0  0  0  0  0  0  0  0  0  0  0
    9.0177   12.6990   23.7178 C   0  0  0  0  0  0  0  0  0  0  0  0
    9.7254   11.5849   23.2691 C   0  0  0  0  0  0  0  0  0  0  0  0
    9.3252   10.3164   23.6485 C   0  0  0  0  0  0  0  0  0  0  0  0
   10.1572    8.9668   23.0285 Cl  0  0  0  0  0  0  0  0  0  0  0  0
    8.2753   10.1222   24.5443 C   0  0  0  0  0  0  0  0  0  0  0  0
    7.6198   11.2354   25.0857 C   0  0  0  0  0  0  0  0  0  0  0  0
    6.5674   11.4103   26.0202 C   0  0  0  0  0  0  0  0  0  0  0  0
    6.3357   12.7612   26.1405 C   0  0  0  0  0  0  0  0  0  0  0  0
    7.1906   13.4112   25.2945 N   0  0  0  0  0  0  0  0  0  0  0  0
    8.0020   12.4991   24.6570 C   0  0  0  0  0  0  0  0  0  0  0  0
  1  2  2  0
  2  3  1  0
  3  4  1  0
  4  5  1  0
  5  6  1  0
  2  7  1  0
  7  8  2  0
  8  9  1  0
  9 10  1  0
  9 11  2  0
 11 12  1  0
 12 13  1  0
 13 14  2  0
 14 15  1  0
 15 16  1  0
 16  7  1  0
 16 12  2  0
M  END
>  <alias>  (1573) 
None

>  <rmsd(smina/fragmenstein)>  (1573) 
0.447

>  <smiles>  (1573) 
O=C(NCCS)c1cc(Cl)cc2cc[nH]c12

>  <gnina_score>  (1573) 
5.257

>  <inspiration_score>  (1573) 
None

>  <energy_score>  (1573) 
-10.019087

>  <distance_score>  (1573) 
1.642632

>  <gnina_score_min>  (1573) 
5.299

>  <inchikey>  (1573) 
DQSOGFONXPTZII-UHFFFAOYSA-N

>  <exports>  (1573) 
['/opt/xchem-fragalysis-2/maxwin/BulkDock/OUTPUTS/openbind_a71ev2a_c2_elabs_1LOUU54.sdf', '/opt/xchem-fragalysis-2/maxwin/BulkDock/OUTPUTS/openbind_a71ev2a_c2_elabs_1LSYIDY.sdf']

>  <name>  (1573) 
P584762

>  <ref_pdb>  (1573) 
A0566a

>  <subsites>  (1573) 
None

>  <HIPPO Pose ID>  (1573) 
584762

>  <ref_mols>  (1573) 
A0566a

>  <HIPPO Compound ID>  (1573) 
438755

>  <tags>  (1573) 
openbind_a71ev2a_c2_elabs,syndirella_product,openbind_a71ev2a_c2_elabs_fragonly_scored_top80percent,openbind_a71ev2a_c2_elabs_scored,BulkDock Fragalysis export,openbind_a71ev2a_c2_elabs_scored_top80percent,openbind_a71ev2a_c2_elabs_activefrags_only_scored_5.2plus,syndirella_placed

>  <smina_score_min>  (1573) 
-5.436

$$$$
P584765
     RDKit          3D

 16 17  0  0  0  0  0  0  0  0999 V2000
   10.2307   14.6627   24.9121 O   0  0  0  0  0  0  0  0  0  0  0  0
   10.0848   14.0550   23.9309 C   0  0  0  0  0  0  0  0  0  0  0  0
   10.6270   14.2999   22.5231 N   0  0  0  0  0  0  0  0  0  0  0  0
   11.5405   15.2890   22.0367 C   0  0  0  0  0  0  0  0  0  0  0  0
   12.3868   14.7037   20.9279 C   0  0  0  0  0  0  0  0  0  0  0  0
   11.3250   14.7704   19.0941 I   0  0  0  0  0  0  0  0  0  0  0  0
    9.3516   12.7804   23.9822 C   0  0  0  0  0  0  0  0  0  0  0  0
    9.8713   11.6485   23.3537 C   0  0  0  0  0  0  0  0  0  0  0  0
    9.3158   10.4066   23.5958 C   0  0  0  0  0  0  0  0  0  0  0  0
   10.0514    9.0337   22.9109 Cl  0  0  0  0  0  0  0  0  0  0  0  0
    8.2318   10.2537   24.4572 C   0  0  0  0  0  0  0  0  0  0  0  0
    7.6584   11.3904   25.0476 C   0  0  0  0  0  0  0  0  0  0  0  0
    6.5760   11.6019   25.9388 C   0  0  0  0  0  0  0  0  0  0  0  0
    6.5042   12.9514   26.1967 C   0  0  0  0  0  0  0  0  0  0  0  0
    7.5094   13.5689   25.5037 N   0  0  0  0  0  0  0  0  0  0  0  0
    8.2287   12.6345   24.7952 C   0  0  0  0  0  0  0  0  0  0  0  0
  1  2  2  0
  2  3  1  0
  3  4  1  0
  4  5  1  0
  5  6  1  0
  2  7  1  0
  7  8  2  0
  8  9  1  0
  9 10  1  0
  9 11  2  0
 11 12  1  0
 12 13  1  0
 13 14  2  0
 14 15  1  0
 15 16  1  0
 16  7  1  0
 16 12  2  0
M  END
>  <alias>  (1574) 
None

>  <rmsd(smina/fragmenstein)>  (1574) 
0.617

>  <smiles>  (1574) 
O=C(NCCI)c1cc(Cl)cc2cc[nH]c12

>  <gnina_score>  (1574) 
5.202

>  <inspiration_score>  (1574) 
None

>  <energy_score>  (1574) 
-3.347901

>  <distance_score>  (1574) 
1.057683

>  <gnina_score_min>  (1574) 
5.348

>  <inchikey>  (1574) 
SGLMJXKRAYRDIE-UHFFFAOYSA-N

>  <exports>  (1574) 
['/opt/xchem-fragalysis-2/maxwin/BulkDock/OUTPUTS/openbind_a71ev2a_c2_elabs_1LOUU54.sdf', '/opt/xchem-fragalysis-2/maxwin/BulkDock/OUTPUTS/openbind_a71ev2a_c2_elabs_1LSYIDY.sdf']

>  <name>  (1574) 
P584765

>  <ref_pdb>  (1574) 
A0566a

>  <subsites>  (1574) 
None

>  <HIPPO Pose ID>  (1574) 
584765

>  <ref_mols>  (1574) 
A0566a

>  <HIPPO Compound ID>  (1574) 
438767

>  <tags>  (1574) 
openbind_a71ev2a_c2_elabs,syndirella_product,openbind_a71ev2a_c2_elabs_fragonly_scored_top80percent,openbind_a71ev2a_c2_elabs_scored,BulkDock Fragalysis export,openbind_a71ev2a_c2_elabs_scored_top80percent,openbind_a71ev2a_c2_elabs_activefrags_only_scored_5.2plus,syndirella_placed

>  <smina_score_min>  (1574) 
-5.412

$$$$
P584772
     RDKit          3D

 16 17  0  0  0  0  0  0  0  0999 V2000
   10.3480   14.6658   24.1115 O   0  0  0  0  0  0  0  0  0  0  0  0
   10.3710   13.8085   23.3226 C   0  0  0  0  0  0  0  0  0  0  0  0
   11.0307   13.7479   21.9360 N   0  0  0  0  0  0  0  0  0  0  0  0
   11.7238   14.7640   21.1824 C   0  0  0  0  0  0  0  0  0  0  0  0
   10.9216   15.1169   19.9334 C   0  0  0  0  0  0  0  0  0  0  0  0
    9.4973   16.0852   20.3686 Cl  0  0  0  0  0  0  0  0  0  0  0  0
    9.6074   12.5698   23.6404 C   0  0  0  0  0  0  0  0  0  0  0  0
    9.9744   11.3144   23.1626 C   0  0  0  0  0  0  0  0  0  0  0  0
    9.3240   10.1666   23.5711 C   0  0  0  0  0  0  0  0  0  0  0  0
    9.7601    8.9860   23.1239 F   0  0  0  0  0  0  0  0  0  0  0  0
    8.2648   10.2158   24.4655 C   0  0  0  0  0  0  0  0  0  0  0  0
    7.8245   11.4668   24.9213 C   0  0  0  0  0  0  0  0  0  0  0  0
    6.7791   11.8848   25.7850 C   0  0  0  0  0  0  0  0  0  0  0  0
    6.8308   13.2565   25.8687 C   0  0  0  0  0  0  0  0  0  0  0  0
    7.8712   13.6880   25.0922 N   0  0  0  0  0  0  0  0  0  0  0  0
    8.5018   12.6129   24.5035 C   0  0  0  0  0  0  0  0  0  0  0  0
  1  2  2  0
  2  3  1  0
  3  4  1  0
  4  5  1  0
  5  6  1  0
  2  7  1  0
  7  8  2  0
  8  9  1  0
  9 10  1  0
  9 11  2  0
 11 12  1  0
 12 13  1  0
 13 14  2  0
 14 15  1  0
 15 16  1  0
 16  7  1  0
 16 12  2  0
M  END
>  <alias>  (1575) 
None

>  <rmsd(smina/fragmenstein)>  (1575) 
0.558

>  <smiles>  (1575) 
O=C(NCCCl)c1cc(F)cc2cc[nH]c12

>  <gnina_score>  (1575) 
5.292

>  <inspiration_score>  (1575) 
None

>  <energy_score>  (1575) 
-8.234356

>  <distance_score>  (1575) 
0.976762

>  <gnina_score_min>  (1575) 
5.205

>  <inchikey>  (1575) 
DOFXLVAAZSWEFN-UHFFFAOYSA-N

>  <exports>  (1575) 
['/opt/xchem-fragalysis-2/maxwin/BulkDock/OUTPUTS/openbind_a71ev2a_c2_elabs_1LOUU54.sdf', '/opt/xchem-fragalysis-2/maxwin/BulkDock/OUTPUTS/openbind_a71ev2a_c2_elabs_1LSYIDY.sdf']

>  <name>  (1575) 
P584772

>  <ref_pdb>  (1575) 
A0566a

>  <subsites>  (1575) 
None

>  <HIPPO Pose ID>  (1575) 
584772

>  <ref_mols>  (1575) 
A0566a

>  <HIPPO Compound ID>  (1575) 
438802

>  <tags>  (1575) 
openbind_a71ev2a_c2_elabs,syndirella_product,openbind_a71ev2a_c2_elabs_fragonly_scored_top80percent,openbind_a71ev2a_c2_elabs_scored,BulkDock Fragalysis export,openbind_a71ev2a_c2_elabs_scored_top80percent,openbind_a71ev2a_c2_elabs_activefrags_only_scored_5.2plus,syndirella_placed

>  <smina_score_min>  (1575) 
-6.03

$$$$
P584773
     RDKit          3D

 16 17  0  0  0  0  0  0  0  0999 V2000
   11.4241   14.6361   18.5813 N   0  0  0  0  0  0  0  0  0  0  0  0
   11.6874   14.6995   19.7099 C   0  0  0  0  0  0  0  0  0  0  0  0
   11.9946   14.7481   21.1417 C   0  0  0  0  0  0  0  0  0  0  0  0
   11.1027   13.9084   21.8862 N   0  0  0  0  0  0  0  0  0  0  0  0
   10.7437   13.9114   23.3678 C   0  0  0  0  0  0  0  0  0  0  0  0
   11.0521   14.6426   24.2167 O   0  0  0  0  0  0  0  0  0  0  0  0
    9.7706   12.8456   23.6942 C   0  0  0  0  0  0  0  0  0  0  0  0
    9.9175   11.5229   23.2551 C   0  0  0  0  0  0  0  0  0  0  0  0
    9.0839   10.5123   23.7228 C   0  0  0  0  0  0  0  0  0  0  0  0
    8.0699   10.8466   24.6125 C   0  0  0  0  0  0  0  0  0  0  0  0
    7.0805    9.7251   25.4014 Cl  0  0  0  0  0  0  0  0  0  0  0  0
    7.8090   12.1687   24.9867 C   0  0  0  0  0  0  0  0  0  0  0  0
    6.8363   12.8187   25.7969 C   0  0  0  0  0  0  0  0  0  0  0  0
    7.1374   14.1579   25.8151 C   0  0  0  0  0  0  0  0  0  0  0  0
    8.2595   14.3434   25.0578 N   0  0  0  0  0  0  0  0  0  0  0  0
    8.6837   13.1465   24.5270 C   0  0  0  0  0  0  0  0  0  0  0  0
  1  2  3  0
  2  3  1  0
  3  4  1  0
  4  5  1  0
  5  6  2  0
  5  7  1  0
  7  8  2  0
  8  9  1  0
  9 10  2  0
 10 11  1  0
 10 12  1  0
 12 13  1  0
 13 14  2  0
 14 15  1  0
 15 16  1  0
 16  7  1  0
 16 12  2  0
M  END
>  <alias>  (1576) 
None

>  <rmsd(smina/fragmenstein)>  (1576) 
0.612

>  <smiles>  (1576) 
N#CCNC(=O)c1ccc(Cl)c2cc[nH]c12

>  <gnina_score>  (1576) 
5.149

>  <inspiration_score>  (1576) 
None

>  <energy_score>  (1576) 
-6.869788

>  <distance_score>  (1576) 
1.079538

>  <gnina_score_min>  (1576) 
5.252

>  <inchikey>  (1576) 
BOIVMNUKBHGOQB-UHFFFAOYSA-N

>  <exports>  (1576) 
['/opt/xchem-fragalysis-2/maxwin/BulkDock/OUTPUTS/openbind_a71ev2a_c2_elabs_1LOUU54.sdf', '/opt/xchem-fragalysis-2/maxwin/BulkDock/OUTPUTS/openbind_a71ev2a_c2_elabs_1LSYIDY.sdf']

>  <name>  (1576) 
P584773

>  <ref_pdb>  (1576) 
A0566a

>  <subsites>  (1576) 
None

>  <HIPPO Pose ID>  (1576) 
584773

>  <ref_mols>  (1576) 
A0566a

>  <HIPPO Compound ID>  (1576) 
438808

>  <tags>  (1576) 
openbind_a71ev2a_c2_elabs,syndirella_product,openbind_a71ev2a_c2_elabs_fragonly_scored_top80percent,openbind_a71ev2a_c2_elabs_scored,BulkDock Fragalysis export,openbind_a71ev2a_c2_elabs_scored_top80percent,openbind_a71ev2a_c2_elabs_activefrags_only_scored_5.2plus,syndirella_placed

>  <smina_score_min>  (1576) 
-5.909

$$$$
P584784
     RDKit          3D

 16 17  0  0  0  0  0  0  0  0999 V2000
   12.5000   15.3214   21.9309 C   0  0  0  0  0  0  0  0  0  0  0  0
   11.4426   14.6337   21.0942 C   0  0  0  0  0  0  0  0  0  0  0  0
   10.4018   15.5488   20.4639 C   0  0  0  0  0  0  0  0  0  0  0  0
   10.7778   13.6430   21.8916 N   0  0  0  0  0  0  0  0  0  0  0  0
   10.0972   13.7579   23.2613 C   0  0  0  0  0  0  0  0  0  0  0  0
   10.0325   14.6569   23.9997 O   0  0  0  0  0  0  0  0  0  0  0  0
    9.4087   12.4988   23.6534 C   0  0  0  0  0  0  0  0  0  0  0  0
    9.8064   11.2303   23.2202 C   0  0  0  0  0  0  0  0  0  0  0  0
    9.1819   10.0777   23.6732 C   0  0  0  0  0  0  0  0  0  0  0  0
    8.1496   10.1620   24.6085 C   0  0  0  0  0  0  0  0  0  0  0  0
    7.7115   11.4203   25.0611 C   0  0  0  0  0  0  0  0  0  0  0  0
    6.7512   11.8820   25.9945 C   0  0  0  0  0  0  0  0  0  0  0  0
    5.6888   10.7990   27.0959 Br  0  0  0  0  0  0  0  0  0  0  0  0
    6.7612   13.2523   26.0079 C   0  0  0  0  0  0  0  0  0  0  0  0
    7.7207   13.6549   25.1229 N   0  0  0  0  0  0  0  0  0  0  0  0
    8.3397   12.5579   24.5576 C   0  0  0  0  0  0  0  0  0  0  0  0
  1  2  1  0
  2  3  1  0
  2  4  1  0
  4  5  1  0
  5  6  2  0
  5  7  1  0
  7  8  2  0
  8  9  1  0
  9 10  2  0
 10 11  1  0
 11 12  1  0
 12 13  1  0
 12 14  2  0
 14 15  1  0
 15 16  1  0
 16  7  1  0
 16 11  2  0
M  END
>  <alias>  (1577) 
None

>  <rmsd(smina/fragmenstein)>  (1577) 
0.537

>  <smiles>  (1577) 
CC(C)NC(=O)c1cccc2c(Br)c[nH]c12

>  <gnina_score>  (1577) 
5.258

>  <inspiration_score>  (1577) 
None

>  <energy_score>  (1577) 
-4.492646

>  <distance_score>  (1577) 
1.164579

>  <gnina_score_min>  (1577) 
5.218

>  <inchikey>  (1577) 
WWAKMPCCOZGMPB-UHFFFAOYSA-N

>  <exports>  (1577) 
['/opt/xchem-fragalysis-2/maxwin/BulkDock/OUTPUTS/openbind_a71ev2a_c2_elabs_1LOUU54.sdf', '/opt/xchem-fragalysis-2/maxwin/BulkDock/OUTPUTS/openbind_a71ev2a_c2_elabs_1LSYIDY.sdf']

>  <name>  (1577) 
P584784

>  <ref_pdb>  (1577) 
A0566a

>  <subsites>  (1577) 
None

>  <HIPPO Pose ID>  (1577) 
584784

>  <ref_mols>  (1577) 
A0566a

>  <HIPPO Compound ID>  (1577) 
438866

>  <tags>  (1577) 
openbind_a71ev2a_c2_elabs,syndirella_product,openbind_a71ev2a_c2_elabs_fragonly_scored_top80percent,openbind_a71ev2a_c2_elabs_scored,BulkDock Fragalysis export,openbind_a71ev2a_c2_elabs_scored_top80percent,openbind_a71ev2a_c2_elabs_activefrags_only_scored_5.2plus,syndirella_placed

>  <smina_score_min>  (1577) 
-6.425

$$$$
P584798
     RDKit          3D

 17 18  0  0  0  0  0  0  0  0999 V2000
   12.5026   14.8123   21.4705 C   0  0  0  0  0  0  0  0  0  0  0  0
   11.0404   15.1645   21.2906 C   0  0  1  0  0  0  0  0  0  0  0  0
   10.6051   15.1635   19.8259 C   0  0  0  0  0  0  0  0  0  0  0  0
    9.2637   15.4074   19.7955 F   0  0  0  0  0  0  0  0  0  0  0  0
   10.2660   14.1964   22.0296 N   0  0  0  0  0  0  0  0  0  0  0  0
   10.0023   14.0709   23.5329 C   0  0  0  0  0  0  0  0  0  0  0  0
   10.3023   14.7703   24.4123 O   0  0  0  0  0  0  0  0  0  0  0  0
    9.3198   12.8137   23.8214 C   0  0  0  0  0  0  0  0  0  0  0  0
    9.8489   11.6466   23.2936 C   0  0  0  0  0  0  0  0  0  0  0  0
    9.3005   10.4328   23.6409 C   0  0  0  0  0  0  0  0  0  0  0  0
   10.1365    8.9073   22.9905 Br  0  0  0  0  0  0  0  0  0  0  0  0
    8.2211   10.3349   24.5162 C   0  0  0  0  0  0  0  0  0  0  0  0
    7.6673   11.5126   25.0420 C   0  0  0  0  0  0  0  0  0  0  0  0
    6.6018   11.7906   25.9349 C   0  0  0  0  0  0  0  0  0  0  0  0
    6.5380   13.1556   26.0961 C   0  0  0  0  0  0  0  0  0  0  0  0
    7.5248   13.7208   25.3338 N   0  0  0  0  0  0  0  0  0  0  0  0
    8.2315   12.7359   24.6863 C   0  0  0  0  0  0  0  0  0  0  0  0
  2  1  1  6
  2  3  1  0
  3  4  1  0
  2  5  1  0
  5  6  1  0
  6  7  2  0
  6  8  1  0
  8  9  2  0
  9 10  1  0
 10 11  1  0
 10 12  2  0
 12 13  1  0
 13 14  1  0
 14 15  2  0
 15 16  1  0
 16 17  1  0
 17  8  1  0
 17 13  2  0
M  END
>  <alias>  (1578) 
None

>  <rmsd(smina/fragmenstein)>  (1578) 
0.337

>  <smiles>  (1578) 
C[C@@H](CF)NC(=O)c1cc(Br)cc2cc[nH]c12

>  <gnina_score>  (1578) 
5.331

>  <inspiration_score>  (1578) 
None

>  <energy_score>  (1578) 
-10.984687

>  <distance_score>  (1578) 
1.149905

>  <gnina_score_min>  (1578) 
5.265

>  <inchikey>  (1578) 
RUWKALXYSLONGK-ZETCQYMHSA-N

>  <exports>  (1578) 
['/opt/xchem-fragalysis-2/maxwin/BulkDock/OUTPUTS/openbind_a71ev2a_c2_elabs_1LOUU54.sdf', '/opt/xchem-fragalysis-2/maxwin/BulkDock/OUTPUTS/openbind_a71ev2a_c2_elabs_1LSYIDY.sdf']

>  <name>  (1578) 
P584798

>  <ref_pdb>  (1578) 
A0566a

>  <subsites>  (1578) 
None

>  <HIPPO Pose ID>  (1578) 
584798

>  <ref_mols>  (1578) 
A0566a

>  <HIPPO Compound ID>  (1578) 
438915

>  <tags>  (1578) 
openbind_a71ev2a_c2_elabs,syndirella_product,openbind_a71ev2a_c2_elabs_fragonly_scored_top80percent,openbind_a71ev2a_c2_elabs_scored,BulkDock Fragalysis export,openbind_a71ev2a_c2_elabs_scored_top80percent,openbind_a71ev2a_c2_elabs_activefrags_only_scored_5.2plus,syndirella_placed

>  <smina_score_min>  (1578) 
-5.537

$$$$
P584804
     RDKit          3D

 17 18  0  0  0  0  0  0  0  0999 V2000
    9.7964   14.8368   24.7046 O   0  0  0  0  0  0  0  0  0  0  0  0
    9.8480   14.0886   23.8133 C   0  0  0  0  0  0  0  0  0  0  0  0
   10.5571   14.2033   22.4581 N   0  0  0  0  0  0  0  0  0  0  0  0
   11.4285   15.2164   21.9475 C   0  0  0  0  0  0  0  0  0  0  0  0
   12.2395   14.6765   20.7835 C   0  0  0  0  0  0  0  0  0  0  0  0
   11.2871   14.7880   19.2336 S   0  0  0  0  0  0  0  0  0  0  0  0
    9.2050   12.7751   23.9721 C   0  0  0  0  0  0  0  0  0  0  0  0
    9.7772   11.6355   23.4237 C   0  0  0  0  0  0  0  0  0  0  0  0
   10.8969   11.7596   22.7097 F   0  0  0  0  0  0  0  0  0  0  0  0
    9.2681   10.3770   23.6711 C   0  0  0  0  0  0  0  0  0  0  0  0
   10.0508    9.0172   23.0083 Cl  0  0  0  0  0  0  0  0  0  0  0  0
    8.1810   10.2126   24.5243 C   0  0  0  0  0  0  0  0  0  0  0  0
    7.5787   11.3466   25.0948 C   0  0  0  0  0  0  0  0  0  0  0  0
    6.4993   11.5433   25.9924 C   0  0  0  0  0  0  0  0  0  0  0  0
    6.3784   12.8960   26.2124 C   0  0  0  0  0  0  0  0  0  0  0  0
    7.3439   13.5326   25.4830 N   0  0  0  0  0  0  0  0  0  0  0  0
    8.0962   12.6054   24.7994 C   0  0  0  0  0  0  0  0  0  0  0  0
  1  2  2  0
  2  3  1  0
  3  4  1  0
  4  5  1  0
  5  6  1  0
  2  7  1  0
  7  8  2  0
  8  9  1  0
  8 10  1  0
 10 11  1  0
 10 12  2  0
 12 13  1  0
 13 14  1  0
 14 15  2  0
 15 16  1  0
 16 17  1  0
 17  7  1  0
 17 13  2  0
M  END
>  <alias>  (1579) 
None

>  <rmsd(smina/fragmenstein)>  (1579) 
1.824

>  <smiles>  (1579) 
O=C(NCCS)c1c(F)c(Cl)cc2cc[nH]c12

>  <gnina_score>  (1579) 
5.272

>  <inspiration_score>  (1579) 
None

>  <energy_score>  (1579) 
-12.355818

>  <distance_score>  (1579) 
1.219763

>  <gnina_score_min>  (1579) 
5.203

>  <inchikey>  (1579) 
PQADSAISWGYYDZ-UHFFFAOYSA-N

>  <exports>  (1579) 
['/opt/xchem-fragalysis-2/maxwin/BulkDock/OUTPUTS/openbind_a71ev2a_c2_elabs_1LOUU54.sdf', '/opt/xchem-fragalysis-2/maxwin/BulkDock/OUTPUTS/openbind_a71ev2a_c2_elabs_1LSYIDY.sdf']

>  <name>  (1579) 
P584804

>  <ref_pdb>  (1579) 
A0566a

>  <subsites>  (1579) 
None

>  <HIPPO Pose ID>  (1579) 
584804

>  <ref_mols>  (1579) 
A0566a

>  <HIPPO Compound ID>  (1579) 
438929

>  <tags>  (1579) 
openbind_a71ev2a_c2_elabs,syndirella_product,openbind_a71ev2a_c2_elabs_fragonly_scored_top80percent,openbind_a71ev2a_c2_elabs_scored,BulkDock Fragalysis export,openbind_a71ev2a_c2_elabs_scored_top80percent,openbind_a71ev2a_c2_elabs_activefrags_only_scored_5.2plus,syndirella_placed

>  <smina_score_min>  (1579) 
-5.401

$$$$
P584805
     RDKit          3D

 17 19  0  0  0  0  0  0  0  0999 V2000
    9.9985   14.8513   24.4812 O   0  0  0  0  0  0  0  0  0  0  0  0
    9.9063   14.0938   23.5833 C   0  0  0  0  0  0  0  0  0  0  0  0
    9.2645   12.8040   23.8322 C   0  0  0  0  0  0  0  0  0  0  0  0
    9.8432   11.6465   23.3422 C   0  0  0  0  0  0  0  0  0  0  0  0
   10.9977   11.7412   22.6867 F   0  0  0  0  0  0  0  0  0  0  0  0
    9.3172   10.4027   23.6301 C   0  0  0  0  0  0  0  0  0  0  0  0
   10.0831    9.0042   23.0299 Cl  0  0  0  0  0  0  0  0  0  0  0  0
    8.2212   10.2779   24.4818 C   0  0  0  0  0  0  0  0  0  0  0  0
    7.6340   11.4361   25.0189 C   0  0  0  0  0  0  0  0  0  0  0  0
    6.5600   11.6737   25.9131 C   0  0  0  0  0  0  0  0  0  0  0  0
    6.4555   13.0343   26.0890 C   0  0  0  0  0  0  0  0  0  0  0  0
    7.4240   13.6367   25.3332 N   0  0  0  0  0  0  0  0  0  0  0  0
    8.1620   12.6795   24.6768 C   0  0  0  0  0  0  0  0  0  0  0  0
   10.4400   14.1787   22.1788 N   0  0  0  0  0  0  0  0  0  0  0  0
    9.4183   14.8623   21.2205 C   0  0  0  0  0  0  0  0  0  0  0  0
   10.5394   15.0921   20.2570 C   0  0  0  0  0  0  0  0  0  0  0  0
   11.3337   15.2033   21.5258 C   0  0  0  0  0  0  0  0  0  0  0  0
  1  2  2  0
  2  3  1  0
  3  4  2  0
  4  5  1  0
  4  6  1  0
  6  7  1  0
  6  8  2  0
  8  9  1  0
  9 10  1  0
 10 11  2  0
 11 12  1  0
 12 13  1  0
  2 14  1  0
 14 15  1  0
 15 16  1  0
 16 17  1  0
 13  3  1  0
 17 14  1  0
 13  9  2  0
M  END
>  <alias>  (1580) 
None

>  <rmsd(smina/fragmenstein)>  (1580) 
0.34

>  <smiles>  (1580) 
O=C(c1c(F)c(Cl)cc2cc[nH]c12)N1CCC1

>  <gnina_score>  (1580) 
5.279

>  <inspiration_score>  (1580) 
None

>  <energy_score>  (1580) 
-26.128191

>  <distance_score>  (1580) 
1.164915

>  <gnina_score_min>  (1580) 
5.25

>  <inchikey>  (1580) 
LZLLKUDPIWPECL-UHFFFAOYSA-N

>  <exports>  (1580) 
['/opt/xchem-fragalysis-2/maxwin/BulkDock/OUTPUTS/openbind_a71ev2a_c2_elabs_1LOUU54.sdf', '/opt/xchem-fragalysis-2/maxwin/BulkDock/OUTPUTS/openbind_a71ev2a_c2_elabs_1LSYIDY.sdf']

>  <name>  (1580) 
P584805

>  <ref_pdb>  (1580) 
A0566a

>  <subsites>  (1580) 
None

>  <HIPPO Pose ID>  (1580) 
584805

>  <ref_mols>  (1580) 
A0566a

>  <HIPPO Compound ID>  (1580) 
438930

>  <tags>  (1580) 
openbind_a71ev2a_c2_elabs,syndirella_product,openbind_a71ev2a_c2_elabs_fragonly_scored_top80percent,openbind_a71ev2a_c2_elabs_scored,BulkDock Fragalysis export,openbind_a71ev2a_c2_elabs_scored_top80percent,openbind_a71ev2a_c2_elabs_activefrags_only_scored_5.2plus,syndirella_placed

>  <smina_score_min>  (1580) 
-5.292

$$$$
P584807
     RDKit          3D

 17 18  0  0  0  0  0  0  0  0999 V2000
    9.9072   16.0287   20.1222 C   0  0  0  0  0  0  0  0  0  0  0  0
   11.0186   15.2950   19.9816 C   0  0  0  0  0  0  0  0  0  0  0  0
   11.7492   14.5584   21.0593 C   0  0  1  0  0  0  0  0  0  0  0  0
   12.6445   15.3688   21.9601 C   0  0  0  0  0  0  0  0  0  0  0  0
   10.8034   13.7711   21.7772 N   0  0  0  0  0  0  0  0  0  0  0  0
   10.2354   13.9389   23.1974 C   0  0  0  0  0  0  0  0  0  0  0  0
   10.3917   14.7892   23.9776 O   0  0  0  0  0  0  0  0  0  0  0  0
    9.4608   12.7590   23.5954 C   0  0  0  0  0  0  0  0  0  0  0  0
    9.9359   11.5211   23.2053 C   0  0  0  0  0  0  0  0  0  0  0  0
    9.3378   10.3630   23.6326 C   0  0  0  0  0  0  0  0  0  0  0  0
   10.1736    8.7957   23.0958 Br  0  0  0  0  0  0  0  0  0  0  0  0
    8.2473   10.3809   24.4923 C   0  0  0  0  0  0  0  0  0  0  0  0
    7.7504   11.6265   24.9152 C   0  0  0  0  0  0  0  0  0  0  0  0
    6.6967   12.0225   25.7782 C   0  0  0  0  0  0  0  0  0  0  0  0
    6.6943   13.3975   25.8303 C   0  0  0  0  0  0  0  0  0  0  0  0
    7.7041   13.8562   25.0272 N   0  0  0  0  0  0  0  0  0  0  0  0
    8.3689   12.7943   24.4614 C   0  0  0  0  0  0  0  0  0  0  0  0
  1  2  2  0
  2  3  1  0
  3  4  1  1
  3  5  1  0
  5  6  1  0
  6  7  2  0
  6  8  1  0
  8  9  2  0
  9 10  1  0
 10 11  1  0
 10 12  2  0
 12 13  1  0
 13 14  1  0
 14 15  2  0
 15 16  1  0
 16 17  1  0
 17  8  1  0
 17 13  2  0
M  END
>  <alias>  (1581) 
None

>  <rmsd(smina/fragmenstein)>  (1581) 
0.311

>  <smiles>  (1581) 
C=C[C@@H](C)NC(=O)c1cc(Br)cc2cc[nH]c12

>  <gnina_score>  (1581) 
5.409

>  <inspiration_score>  (1581) 
None

>  <energy_score>  (1581) 
-10.735373

>  <distance_score>  (1581) 
1.083244

>  <gnina_score_min>  (1581) 
5.405

>  <inchikey>  (1581) 
VCIPFCKSUVGYGN-MRVPVSSYSA-N

>  <exports>  (1581) 
['/opt/xchem-fragalysis-2/maxwin/BulkDock/OUTPUTS/openbind_a71ev2a_c2_elabs_1LOUU54.sdf', '/opt/xchem-fragalysis-2/maxwin/BulkDock/OUTPUTS/openbind_a71ev2a_c2_elabs_1LSYIDY.sdf']

>  <name>  (1581) 
P584807

>  <ref_pdb>  (1581) 
A0566a

>  <subsites>  (1581) 
None

>  <HIPPO Pose ID>  (1581) 
584807

>  <ref_mols>  (1581) 
A0566a

>  <HIPPO Compound ID>  (1581) 
438932

>  <tags>  (1581) 
openbind_a71ev2a_c2_elabs,syndirella_product,openbind_a71ev2a_c2_elabs_fragonly_scored_top80percent,openbind_a71ev2a_c2_elabs_scored,BulkDock Fragalysis export,openbind_a71ev2a_c2_elabs_scored_top80percent,openbind_a71ev2a_c2_elabs_activefrags_only_scored_5.2plus,syndirella_placed

>  <smina_score_min>  (1581) 
-5.362

$$$$
P584808
     RDKit          3D

 17 18  0  0  0  0  0  0  0  0999 V2000
   11.5436   14.7598   19.1244 C   0  0  0  0  0  0  0  0  0  0  0  0
   11.2334   15.0171   20.3978 C   0  0  0  0  0  0  0  0  0  0  0  0
   12.4566   14.9434   21.6279 Cl  0  0  0  0  0  0  0  0  0  0  0  0
    9.8546   15.3211   20.8801 C   0  0  0  0  0  0  0  0  0  0  0  0
    9.5240   14.2386   21.7539 N   0  0  0  0  0  0  0  0  0  0  0  0
    8.8987   14.2430   23.1527 C   0  0  0  0  0  0  0  0  0  0  0  0
    8.4803   15.1227   23.7896 O   0  0  0  0  0  0  0  0  0  0  0  0
    8.7813   12.8700   23.7104 C   0  0  0  0  0  0  0  0  0  0  0  0
    9.5504   11.7811   23.2952 C   0  0  0  0  0  0  0  0  0  0  0  0
    9.2115   10.5031   23.7093 C   0  0  0  0  0  0  0  0  0  0  0  0
   10.1325    9.0440   23.0034 Br  0  0  0  0  0  0  0  0  0  0  0  0
    8.1947   10.2683   24.6307 C   0  0  0  0  0  0  0  0  0  0  0  0
    7.5093   11.3614   25.1676 C   0  0  0  0  0  0  0  0  0  0  0  0
    6.4779   11.5044   26.1300 C   0  0  0  0  0  0  0  0  0  0  0  0
    6.1838   12.8441   26.2294 C   0  0  0  0  0  0  0  0  0  0  0  0
    6.9742   13.5138   25.3383 N   0  0  0  0  0  0  0  0  0  0  0  0
    7.8123   12.6307   24.6932 C   0  0  0  0  0  0  0  0  0  0  0  0
  1  2  2  0
  2  3  1  0
  2  4  1  0
  4  5  1  0
  5  6  1  0
  6  7  2  0
  6  8  1  0
  8  9  2  0
  9 10  1  0
 10 11  1  0
 10 12  2  0
 12 13  1  0
 13 14  1  0
 14 15  2  0
 15 16  1  0
 16 17  1  0
 17  8  1  0
 17 13  2  0
M  END
>  <alias>  (1582) 
None

>  <rmsd(smina/fragmenstein)>  (1582) 
0.271

>  <smiles>  (1582) 
C=C(Cl)CNC(=O)c1cc(Br)cc2cc[nH]c12

>  <gnina_score>  (1582) 
5.301

>  <inspiration_score>  (1582) 
None

>  <energy_score>  (1582) 
-3.457389

>  <distance_score>  (1582) 
1.877111

>  <gnina_score_min>  (1582) 
5.267

>  <inchikey>  (1582) 
DDOBOMQMISBOCD-UHFFFAOYSA-N

>  <exports>  (1582) 
['/opt/xchem-fragalysis-2/maxwin/BulkDock/OUTPUTS/openbind_a71ev2a_c2_elabs_1LOUU54.sdf', '/opt/xchem-fragalysis-2/maxwin/BulkDock/OUTPUTS/openbind_a71ev2a_c2_elabs_1LSYIDY.sdf']

>  <name>  (1582) 
P584808

>  <ref_pdb>  (1582) 
A0566a

>  <subsites>  (1582) 
None

>  <HIPPO Pose ID>  (1582) 
584808

>  <ref_mols>  (1582) 
A0566a

>  <HIPPO Compound ID>  (1582) 
438933

>  <tags>  (1582) 
openbind_a71ev2a_c2_elabs,syndirella_product,openbind_a71ev2a_c2_elabs_fragonly_scored_top80percent,openbind_a71ev2a_c2_elabs_scored,BulkDock Fragalysis export,openbind_a71ev2a_c2_elabs_scored_top80percent,openbind_a71ev2a_c2_elabs_activefrags_only_scored_5.2plus,syndirella_placed

>  <smina_score_min>  (1582) 
-5.488

$$$$
P584811
     RDKit          3D

 17 18  0  0  0  0  0  0  0  0999 V2000
   10.2151   14.8588   23.9128 O   0  0  0  0  0  0  0  0  0  0  0  0
   10.1185   14.0181   23.1135 C   0  0  0  0  0  0  0  0  0  0  0  0
   10.5108   14.0063   21.6263 N   0  0  0  0  0  0  0  0  0  0  0  0
   11.0163   15.0551   20.7868 C   0  0  0  0  0  0  0  0  0  0  0  0
    9.9336   16.0904   20.5232 C   0  0  0  0  0  0  0  0  0  0  0  0
    9.8570   16.5488   19.0685 C   0  0  0  0  0  0  0  0  0  0  0  0
    8.7912   18.4359   19.0295 I   0  0  0  0  0  0  0  0  0  0  0  0
    9.4683   12.7777   23.5437 C   0  0  0  0  0  0  0  0  0  0  0  0
    9.9747   11.5602   23.1421 C   0  0  0  0  0  0  0  0  0  0  0  0
    9.3976   10.3892   23.5814 C   0  0  0  0  0  0  0  0  0  0  0  0
   10.2111    8.8076   23.0541 Br  0  0  0  0  0  0  0  0  0  0  0  0
    8.3113   10.3768   24.4515 C   0  0  0  0  0  0  0  0  0  0  0  0
    7.7933   11.6039   24.8880 C   0  0  0  0  0  0  0  0  0  0  0  0
    6.7385   11.9742   25.7607 C   0  0  0  0  0  0  0  0  0  0  0  0
    6.7066   13.3484   25.8147 C   0  0  0  0  0  0  0  0  0  0  0  0
    7.6977   13.8279   25.0011 N   0  0  0  0  0  0  0  0  0  0  0  0
    8.3834   12.7806   24.4288 C   0  0  0  0  0  0  0  0  0  0  0  0
  1  2  2  0
  2  3  1  0
  3  4  1  0
  4  5  1  0
  5  6  1  0
  6  7  1  0
  2  8  1  0
  8  9  2  0
  9 10  1  0
 10 11  1  0
 10 12  2  0
 12 13  1  0
 13 14  1  0
 14 15  2  0
 15 16  1  0
 16 17  1  0
 17  8  1  0
 17 13  2  0
M  END
>  <alias>  (1583) 
None

>  <rmsd(smina/fragmenstein)>  (1583) 
0.388

>  <smiles>  (1583) 
O=C(NCCCI)c1cc(Br)cc2cc[nH]c12

>  <gnina_score>  (1583) 
5.528

>  <inspiration_score>  (1583) 
None

>  <energy_score>  (1583) 
-0.84857

>  <distance_score>  (1583) 
1.163558

>  <gnina_score_min>  (1583) 
5.405

>  <inchikey>  (1583) 
KIHVAILPIZAMMS-UHFFFAOYSA-N

>  <exports>  (1583) 
['/opt/xchem-fragalysis-2/maxwin/BulkDock/OUTPUTS/openbind_a71ev2a_c2_elabs_1LOUU54.sdf', '/opt/xchem-fragalysis-2/maxwin/BulkDock/OUTPUTS/openbind_a71ev2a_c2_elabs_1LSYIDY.sdf']

>  <name>  (1583) 
P584811

>  <ref_pdb>  (1583) 
A0566a

>  <subsites>  (1583) 
None

>  <HIPPO Pose ID>  (1583) 
584811

>  <ref_mols>  (1583) 
A0566a

>  <HIPPO Compound ID>  (1583) 
438947

>  <tags>  (1583) 
openbind_a71ev2a_c2_elabs,syndirella_product,openbind_a71ev2a_c2_elabs_fragonly_scored_top80percent,openbind_a71ev2a_c2_elabs_scored,BulkDock Fragalysis export,openbind_a71ev2a_c2_elabs_scored_top80percent,openbind_a71ev2a_c2_elabs_activefrags_only_scored_5.2plus,syndirella_placed

>  <smina_score_min>  (1583) 
-3.965

$$$$
P584812
     RDKit          3D

 17 18  0  0  0  0  0  0  0  0999 V2000
    9.6443   16.4802   20.2770 C   0  0  0  0  0  0  0  0  0  0  0  0
   10.6720   15.3664   20.2787 C   0  0  0  0  0  0  0  0  0  0  0  0
   11.1625   15.1736   21.6565 N   0  0  0  0  0  0  0  0  0  0  0  0
   12.5554   14.7382   21.6350 C   0  0  0  0  0  0  0  0  0  0  0  0
   10.4103   14.2006   22.2632 N   0  0  0  0  0  0  0  0  0  0  0  0
    9.9272   14.0718   23.7226 C   0  0  0  0  0  0  0  0  0  0  0  0
   10.0270   14.8101   24.6208 O   0  0  0  0  0  0  0  0  0  0  0  0
    9.2727   12.7810   23.9299 C   0  0  0  0  0  0  0  0  0  0  0  0
    9.8215   11.6345   23.3736 C   0  0  0  0  0  0  0  0  0  0  0  0
    9.2778   10.4049   23.6725 C   0  0  0  0  0  0  0  0  0  0  0  0
   10.1366    8.9090   22.9834 Br  0  0  0  0  0  0  0  0  0  0  0  0
    8.1903   10.2684   24.5319 C   0  0  0  0  0  0  0  0  0  0  0  0
    7.6134   11.4224   25.0828 C   0  0  0  0  0  0  0  0  0  0  0  0
    6.5364   11.6633   25.9727 C   0  0  0  0  0  0  0  0  0  0  0  0
    6.4522   13.0227   26.1689 C   0  0  0  0  0  0  0  0  0  0  0  0
    7.4395   13.6198   25.4330 N   0  0  0  0  0  0  0  0  0  0  0  0
    8.1660   12.6598   24.7680 C   0  0  0  0  0  0  0  0  0  0  0  0
  1  2  1  0
  2  3  1  0
  3  4  1  0
  3  5  1  0
  5  6  1  0
  6  7  2  0
  6  8  1  0
  8  9  2  0
  9 10  1  0
 10 11  1  0
 10 12  2  0
 12 13  1  0
 13 14  1  0
 14 15  2  0
 15 16  1  0
 16 17  1  0
 17  8  1  0
 17 13  2  0
M  END
>  <alias>  (1584) 
None

>  <rmsd(smina/fragmenstein)>  (1584) 
0.281

>  <smiles>  (1584) 
CCN(C)NC(=O)c1cc(Br)cc2cc[nH]c12

>  <gnina_score>  (1584) 
5.652

>  <inspiration_score>  (1584) 
None

>  <energy_score>  (1584) 
-6.596123

>  <distance_score>  (1584) 
1.18418

>  <gnina_score_min>  (1584) 
5.567

>  <inchikey>  (1584) 
VNYSIYLWVPBGGL-UHFFFAOYSA-N

>  <exports>  (1584) 
['/opt/xchem-fragalysis-2/maxwin/BulkDock/OUTPUTS/openbind_a71ev2a_c2_elabs_1LOUU54.sdf', '/opt/xchem-fragalysis-2/maxwin/BulkDock/OUTPUTS/openbind_a71ev2a_c2_elabs_1LSYIDY.sdf']

>  <name>  (1584) 
P584812

>  <ref_pdb>  (1584) 
A0566a

>  <subsites>  (1584) 
None

>  <HIPPO Pose ID>  (1584) 
584812

>  <ref_mols>  (1584) 
A0566a

>  <HIPPO Compound ID>  (1584) 
438948

>  <tags>  (1584) 
openbind_a71ev2a_c2_elabs,syndirella_product,openbind_a71ev2a_c2_elabs_fragonly_scored_top80percent,BulkDock Fragalysis export,openbind_a71ev2a_c2_elabs_scored,openbind_a71ev2a_c2_elabs_scored_top80percent,openbind_a71ev2a_c2_elabs_activefrags_only_scored_5.2plus,openbind_a71ev2a_c2_elabs_activefrags_only_scored_5.5plus,syndirella_placed

>  <smina_score_min>  (1584) 
-5.359

$$$$
P584818
     RDKit          3D

 17 18  0  0  0  0  0  0  0  0999 V2000
    9.7959   14.9116   24.1580 O   0  0  0  0  0  0  0  0  0  0  0  0
    9.8611   14.0888   23.3357 C   0  0  0  0  0  0  0  0  0  0  0  0
   10.3521   14.1698   21.8812 N   0  0  0  0  0  0  0  0  0  0  0  0
   10.7795   15.3034   21.0978 C   0  0  0  0  0  0  0  0  0  0  0  0
    9.5756   15.9068   20.3578 C   0  0  0  0  0  0  0  0  0  0  0  0
    9.8831   16.8459   19.2714 N   0  0  0  0  0  0  0  0  0  0  0  0
   10.7160   16.0790   18.3513 O   0  0  0  0  0  0  0  0  0  0  0  0
    9.3194   12.7721   23.6912 C   0  0  0  0  0  0  0  0  0  0  0  0
    9.8883   11.6008   23.2271 C   0  0  0  0  0  0  0  0  0  0  0  0
    9.3597   10.3846   23.6113 C   0  0  0  0  0  0  0  0  0  0  0  0
   10.2089    8.8474   23.0111 Br  0  0  0  0  0  0  0  0  0  0  0  0
    8.2782   10.2809   24.4832 C   0  0  0  0  0  0  0  0  0  0  0  0
    7.7041   11.4557   24.9807 C   0  0  0  0  0  0  0  0  0  0  0  0
    6.6392   11.7334   25.8751 C   0  0  0  0  0  0  0  0  0  0  0  0
    6.5397   13.1003   25.9917 C   0  0  0  0  0  0  0  0  0  0  0  0
    7.4992   13.6617   25.1947 N   0  0  0  0  0  0  0  0  0  0  0  0
    8.2340   12.6755   24.5741 C   0  0  0  0  0  0  0  0  0  0  0  0
  1  2  2  0
  2  3  1  0
  3  4  1  0
  4  5  1  0
  5  6  1  0
  6  7  1  0
  2  8  1  0
  8  9  2  0
  9 10  1  0
 10 11  1  0
 10 12  2  0
 12 13  1  0
 13 14  1  0
 14 15  2  0
 15 16  1  0
 16 17  1  0
 17  8  1  0
 17 13  2  0
M  END
>  <alias>  (1585) 
None

>  <rmsd(smina/fragmenstein)>  (1585) 
0.679

>  <smiles>  (1585) 
O=C(NCCNO)c1cc(Br)cc2cc[nH]c12

>  <gnina_score>  (1585) 
5.346

>  <inspiration_score>  (1585) 
None

>  <energy_score>  (1585) 
-6.885465

>  <distance_score>  (1585) 
1.253318

>  <gnina_score_min>  (1585) 
5.312

>  <inchikey>  (1585) 
BJCUHANRGFAKCF-UHFFFAOYSA-N

>  <exports>  (1585) 
['/opt/xchem-fragalysis-2/maxwin/BulkDock/OUTPUTS/openbind_a71ev2a_c2_elabs_1LOUU54.sdf', '/opt/xchem-fragalysis-2/maxwin/BulkDock/OUTPUTS/openbind_a71ev2a_c2_elabs_1LSYIDY.sdf']

>  <name>  (1585) 
P584818

>  <ref_pdb>  (1585) 
A0566a

>  <subsites>  (1585) 
None

>  <HIPPO Pose ID>  (1585) 
584818

>  <ref_mols>  (1585) 
A0566a

>  <HIPPO Compound ID>  (1585) 
438959

>  <tags>  (1585) 
openbind_a71ev2a_c2_elabs,syndirella_product,openbind_a71ev2a_c2_elabs_fragonly_scored_top80percent,openbind_a71ev2a_c2_elabs_scored,BulkDock Fragalysis export,openbind_a71ev2a_c2_elabs_scored_top80percent,openbind_a71ev2a_c2_elabs_activefrags_only_scored_5.2plus,syndirella_placed

>  <smina_score_min>  (1585) 
-5.354

$$$$
P584820
     RDKit          3D

 17 18  0  0  0  0  0  0  0  0999 V2000
    9.5543   16.2619   19.9492 C   0  0  0  0  0  0  0  0  0  0  0  0
   10.7140   15.2864   20.0315 C   0  0  0  0  0  0  0  0  0  0  0  0
   11.1826   15.1342   21.4763 C   0  0  2  0  0  0  0  0  0  0  0  0
   12.6198   14.6779   21.5537 C   0  0  0  0  0  0  0  0  0  0  0  0
   10.3785   14.1458   22.1363 N   0  0  0  0  0  0  0  0  0  0  0  0
    9.8776   14.0730   23.5833 C   0  0  0  0  0  0  0  0  0  0  0  0
    9.9709   14.8395   24.4537 O   0  0  0  0  0  0  0  0  0  0  0  0
    9.2459   12.7802   23.8498 C   0  0  0  0  0  0  0  0  0  0  0  0
    9.8100   11.6237   23.3310 C   0  0  0  0  0  0  0  0  0  0  0  0
    9.2825   10.3962   23.6640 C   0  0  0  0  0  0  0  0  0  0  0  0
   10.1514    8.8938   23.0025 Br  0  0  0  0  0  0  0  0  0  0  0  0
    8.2005   10.2698   24.5313 C   0  0  0  0  0  0  0  0  0  0  0  0
    7.6217   11.4310   25.0645 C   0  0  0  0  0  0  0  0  0  0  0  0
    6.5534   11.6807   25.9625 C   0  0  0  0  0  0  0  0  0  0  0  0
    6.4613   13.0429   26.1337 C   0  0  0  0  0  0  0  0  0  0  0  0
    7.4329   13.6324   25.3717 N   0  0  0  0  0  0  0  0  0  0  0  0
    8.1568   12.6667   24.7125 C   0  0  0  0  0  0  0  0  0  0  0  0
  1  2  1  0
  2  3  1  0
  3  4  1  6
  3  5  1  0
  5  6  1  0
  6  7  2  0
  6  8  1  0
  8  9  2  0
  9 10  1  0
 10 11  1  0
 10 12  2  0
 12 13  1  0
 13 14  1  0
 14 15  2  0
 15 16  1  0
 16 17  1  0
 17  8  1  0
 17 13  2  0
M  END
>  <alias>  (1586) 
None

>  <rmsd(smina/fragmenstein)>  (1586) 
0.293

>  <smiles>  (1586) 
CC[C@H](C)NC(=O)c1cc(Br)cc2cc[nH]c12

>  <gnina_score>  (1586) 
5.365

>  <inspiration_score>  (1586) 
None

>  <energy_score>  (1586) 
-0.215459

>  <distance_score>  (1586) 
1.203746

>  <gnina_score_min>  (1586) 
5.34

>  <inchikey>  (1586) 
OXMSGZSEHICQDH-QMMMGPOBSA-N

>  <exports>  (1586) 
['/opt/xchem-fragalysis-2/maxwin/BulkDock/OUTPUTS/openbind_a71ev2a_c2_elabs_1LOUU54.sdf', '/opt/xchem-fragalysis-2/maxwin/BulkDock/OUTPUTS/openbind_a71ev2a_c2_elabs_1LSYIDY.sdf']

>  <name>  (1586) 
P584820

>  <ref_pdb>  (1586) 
A0566a

>  <subsites>  (1586) 
None

>  <HIPPO Pose ID>  (1586) 
584820

>  <ref_mols>  (1586) 
A0566a

>  <HIPPO Compound ID>  (1586) 
438963

>  <tags>  (1586) 
openbind_a71ev2a_c2_elabs,syndirella_product,openbind_a71ev2a_c2_elabs_fragonly_scored_top80percent,openbind_a71ev2a_c2_elabs_scored,BulkDock Fragalysis export,openbind_a71ev2a_c2_elabs_scored_top80percent,openbind_a71ev2a_c2_elabs_activefrags_only_scored_5.2plus,syndirella_placed

>  <smina_score_min>  (1586) 
-5.614

$$$$
P584821
     RDKit          3D

 17 19  0  0  0  0  0  0  0  0999 V2000
    9.8350   14.8628   24.3868 O   0  0  0  0  0  0  0  0  0  0  0  0
    9.7753   14.0706   23.5356 C   0  0  0  0  0  0  0  0  0  0  0  0
   10.2231   14.1493   22.0687 N   0  0  0  0  0  0  0  0  0  0  0  0
   10.9329   15.1954   21.3532 C   0  0  0  0  0  0  0  0  0  0  0  0
   10.2709   15.5675   20.0040 C   0  0  0  0  0  0  0  0  0  0  0  0
   11.5128   14.6342   19.0789 S   0  0  0  0  0  0  0  0  0  0  0  0
   12.2356   14.6572   20.7311 C   0  0  0  0  0  0  0  0  0  0  0  0
    9.2036   12.7595   23.8381 C   0  0  0  0  0  0  0  0  0  0  0  0
    9.7905   11.6128   23.3247 C   0  0  0  0  0  0  0  0  0  0  0  0
    9.2849   10.3782   23.6670 C   0  0  0  0  0  0  0  0  0  0  0  0
   10.1675    8.8847   23.0044 Br  0  0  0  0  0  0  0  0  0  0  0  0
    8.2090   10.2366   24.5401 C   0  0  0  0  0  0  0  0  0  0  0  0
    7.6158   11.3884   25.0762 C   0  0  0  0  0  0  0  0  0  0  0  0
    6.5498   11.6233   25.9807 C   0  0  0  0  0  0  0  0  0  0  0  0
    6.4330   12.9845   26.1440 C   0  0  0  0  0  0  0  0  0  0  0  0
    7.3845   13.5874   25.3677 N   0  0  0  0  0  0  0  0  0  0  0  0
    8.1253   12.6308   24.7131 C   0  0  0  0  0  0  0  0  0  0  0  0
  1  2  2  0
  2  3  1  0
  3  4  1  0
  4  5  1  0
  5  6  1  0
  6  7  1  0
  2  8  1  0
  8  9  2  0
  9 10  1  0
 10 11  1  0
 10 12  2  0
 12 13  1  0
 13 14  1  0
 14 15  2  0
 15 16  1  0
 16 17  1  0
  7  4  1  0
 17  8  1  0
 17 13  2  0
M  END
>  <alias>  (1587) 
None

>  <rmsd(smina/fragmenstein)>  (1587) 
0.234

>  <smiles>  (1587) 
O=C(NC1CSC1)c1cc(Br)cc2cc[nH]c12

>  <gnina_score>  (1587) 
5.282

>  <inspiration_score>  (1587) 
None

>  <energy_score>  (1587) 
-5.366221

>  <distance_score>  (1587) 
1.277011

>  <gnina_score_min>  (1587) 
5.287

>  <inchikey>  (1587) 
UWUBDGJWJWFURB-UHFFFAOYSA-N

>  <exports>  (1587) 
['/opt/xchem-fragalysis-2/maxwin/BulkDock/OUTPUTS/openbind_a71ev2a_c2_elabs_1LOUU54.sdf', '/opt/xchem-fragalysis-2/maxwin/BulkDock/OUTPUTS/openbind_a71ev2a_c2_elabs_1LSYIDY.sdf']

>  <name>  (1587) 
P584821

>  <ref_pdb>  (1587) 
A0566a

>  <subsites>  (1587) 
None

>  <HIPPO Pose ID>  (1587) 
584821

>  <ref_mols>  (1587) 
A0566a

>  <HIPPO Compound ID>  (1587) 
438965

>  <tags>  (1587) 
openbind_a71ev2a_c2_elabs,syndirella_product,openbind_a71ev2a_c2_elabs_fragonly_scored_top80percent,openbind_a71ev2a_c2_elabs_scored,BulkDock Fragalysis export,openbind_a71ev2a_c2_elabs_scored_top80percent,openbind_a71ev2a_c2_elabs_activefrags_only_scored_5.2plus,syndirella_placed

>  <smina_score_min>  (1587) 
-4.652

$$$$
P584822
     RDKit          3D

 17 19  0  0  0  0  0  0  0  0999 V2000
    9.6618   14.9414   24.1545 O   0  0  0  0  0  0  0  0  0  0  0  0
    9.7376   14.1153   23.3345 C   0  0  0  0  0  0  0  0  0  0  0  0
   10.1750   14.2086   21.8588 N   0  0  0  0  0  0  0  0  0  0  0  0
   10.7059   15.3293   21.1003 C   0  0  0  0  0  0  0  0  0  0  0  0
    9.6062   16.2800   20.5858 C   0  0  0  0  0  0  0  0  0  0  0  0
   10.0708   16.0497   19.1481 C   0  0  0  0  0  0  0  0  0  0  0  0
   11.0452   14.9763   19.6389 C   0  0  0  0  0  0  0  0  0  0  0  0
    9.2566   12.7815   23.7069 C   0  0  0  0  0  0  0  0  0  0  0  0
    9.8520   11.6275   23.2301 C   0  0  0  0  0  0  0  0  0  0  0  0
    9.3505   10.3984   23.6136 C   0  0  0  0  0  0  0  0  0  0  0  0
   10.2051    8.8721   22.9927 Br  0  0  0  0  0  0  0  0  0  0  0  0
    8.2787   10.2677   24.4953 C   0  0  0  0  0  0  0  0  0  0  0  0
    7.6858   11.4257   25.0080 C   0  0  0  0  0  0  0  0  0  0  0  0
    6.6232   11.6758   25.9129 C   0  0  0  0  0  0  0  0  0  0  0  0
    6.4938   13.0396   26.0354 C   0  0  0  0  0  0  0  0  0  0  0  0
    7.4307   13.6255   25.2295 N   0  0  0  0  0  0  0  0  0  0  0  0
    8.1845   12.6578   24.6021 C   0  0  0  0  0  0  0  0  0  0  0  0
  1  2  2  0
  2  3  1  0
  3  4  1  0
  4  5  1  0
  5  6  1  0
  6  7  1  0
  2  8  1  0
  8  9  2  0
  9 10  1  0
 10 11  1  0
 10 12  2  0
 12 13  1  0
 13 14  1  0
 14 15  2  0
 15 16  1  0
 16 17  1  0
  7  4  1  0
 17  8  1  0
 17 13  2  0
M  END
>  <alias>  (1588) 
None

>  <rmsd(smina/fragmenstein)>  (1588) 
0.153

>  <smiles>  (1588) 
O=C(NC1CCC1)c1cc(Br)cc2cc[nH]c12

>  <gnina_score>  (1588) 
5.344

>  <inspiration_score>  (1588) 
None

>  <energy_score>  (1588) 
-6.893642

>  <distance_score>  (1588) 
1.319149

>  <gnina_score_min>  (1588) 
5.302

>  <inchikey>  (1588) 
YINVRSGWLMIBRM-UHFFFAOYSA-N

>  <exports>  (1588) 
['/opt/xchem-fragalysis-2/maxwin/BulkDock/OUTPUTS/openbind_a71ev2a_c2_elabs_1LOUU54.sdf', '/opt/xchem-fragalysis-2/maxwin/BulkDock/OUTPUTS/openbind_a71ev2a_c2_elabs_1LSYIDY.sdf']

>  <name>  (1588) 
P584822

>  <ref_pdb>  (1588) 
A0566a

>  <subsites>  (1588) 
None

>  <HIPPO Pose ID>  (1588) 
584822

>  <ref_mols>  (1588) 
A0566a

>  <HIPPO Compound ID>  (1588) 
438973

>  <tags>  (1588) 
openbind_a71ev2a_c2_elabs,syndirella_product,openbind_a71ev2a_c2_elabs_fragonly_scored_top80percent,openbind_a71ev2a_c2_elabs_scored,BulkDock Fragalysis export,openbind_a71ev2a_c2_elabs_scored_top80percent,openbind_a71ev2a_c2_elabs_activefrags_only_scored_5.2plus,syndirella_placed

>  <smina_score_min>  (1588) 
-5.335

$$$$
P584826
     RDKit          3D

 17 18  0  0  0  0  0  0  0  0999 V2000
   10.2147   14.6344   24.2190 O   0  0  0  0  0  0  0  0  0  0  0  0
   10.2290   13.8390   23.3685 C   0  0  0  0  0  0  0  0  0  0  0  0
   10.7958   13.9148   21.9448 N   0  0  0  0  0  0  0  0  0  0  0  0
   11.5446   14.9436   21.2980 C   0  0  0  0  0  0  0  0  0  0  0  0
   11.0616   15.0279   19.8902 C   0  0  0  0  0  0  0  0  0  0  0  0
   10.1436   15.8705   19.4063 C   0  0  0  0  0  0  0  0  0  0  0  0
    9.2711   17.0101   20.3313 Cl  0  0  0  0  0  0  0  0  0  0  0  0
    9.5326   12.5618   23.6434 C   0  0  0  0  0  0  0  0  0  0  0  0
    9.9716   11.3459   23.1307 C   0  0  0  0  0  0  0  0  0  0  0  0
    9.3771   10.1575   23.5082 C   0  0  0  0  0  0  0  0  0  0  0  0
    9.8587    9.0085   23.0248 F   0  0  0  0  0  0  0  0  0  0  0  0
    8.3190   10.1329   24.4087 C   0  0  0  0  0  0  0  0  0  0  0  0
    7.8225   11.3449   24.9109 C   0  0  0  0  0  0  0  0  0  0  0  0
    6.7710   11.6906   25.7993 C   0  0  0  0  0  0  0  0  0  0  0  0
    6.7657   13.0604   25.9279 C   0  0  0  0  0  0  0  0  0  0  0  0
    7.7777   13.5607   25.1546 N   0  0  0  0  0  0  0  0  0  0  0  0
    8.4392   12.5309   24.5202 C   0  0  0  0  0  0  0  0  0  0  0  0
  1  2  2  0
  2  3  1  0
  3  4  1  0
  4  5  1  0
  5  6  2  0
  6  7  1  0
  2  8  1  0
  8  9  2  0
  9 10  1  0
 10 11  1  0
 10 12  2  0
 12 13  1  0
 13 14  1  0
 14 15  2  0
 15 16  1  0
 16 17  1  0
 17  8  1  0
 17 13  2  0
M  END
>  <alias>  (1589) 
None

>  <rmsd(smina/fragmenstein)>  (1589) 
0.35

>  <smiles>  (1589) 
O=C(NC/C=C\Cl)c1cc(F)cc2cc[nH]c12

>  <gnina_score>  (1589) 
5.443

>  <inspiration_score>  (1589) 
None

>  <energy_score>  (1589) 
-3.025408

>  <distance_score>  (1589) 
0.980526

>  <gnina_score_min>  (1589) 
5.389

>  <inchikey>  (1589) 
VRLDKEKLZJHMLA-IWQZZHSRSA-N

>  <exports>  (1589) 
['/opt/xchem-fragalysis-2/maxwin/BulkDock/OUTPUTS/openbind_a71ev2a_c2_elabs_1LOUU54.sdf', '/opt/xchem-fragalysis-2/maxwin/BulkDock/OUTPUTS/openbind_a71ev2a_c2_elabs_1LSYIDY.sdf']

>  <name>  (1589) 
P584826

>  <ref_pdb>  (1589) 
A0566a

>  <subsites>  (1589) 
None

>  <HIPPO Pose ID>  (1589) 
584826

>  <ref_mols>  (1589) 
A0566a

>  <HIPPO Compound ID>  (1589) 
438989

>  <tags>  (1589) 
openbind_a71ev2a_c2_elabs,syndirella_product,openbind_a71ev2a_c2_elabs_fragonly_scored_top80percent,openbind_a71ev2a_c2_elabs_scored,BulkDock Fragalysis export,openbind_a71ev2a_c2_elabs_scored_top80percent,openbind_a71ev2a_c2_elabs_activefrags_only_scored_5.2plus,syndirella_placed

>  <smina_score_min>  (1589) 
-6.463

$$$$
P584830
     RDKit          3D

 17 18  0  0  0  0  0  0  0  0999 V2000
   12.2990   15.2944   21.7870 C   0  0  0  0  0  0  0  0  0  0  0  0
   11.0973   14.8196   20.9797 C   0  0  2  0  0  0  0  0  0  0  0  0
   10.0508   15.8893   20.6206 C   0  0  0  0  0  0  0  0  0  0  0  0
   10.0657   16.4496   18.8916 S   0  0  0  0  0  0  0  0  0  0  0  0
   10.4647   13.7826   21.7603 N   0  0  0  0  0  0  0  0  0  0  0  0
    9.8788   13.8186   23.1805 C   0  0  0  0  0  0  0  0  0  0  0  0
    9.7432   14.7091   23.9193 O   0  0  0  0  0  0  0  0  0  0  0  0
    9.3455   12.5044   23.6041 C   0  0  0  0  0  0  0  0  0  0  0  0
    9.8753   11.2932   23.1645 C   0  0  0  0  0  0  0  0  0  0  0  0
    9.3452   10.0924   23.5914 C   0  0  0  0  0  0  0  0  0  0  0  0
    9.8908    8.9524   23.1577 F   0  0  0  0  0  0  0  0  0  0  0  0
    8.2869   10.0496   24.4908 C   0  0  0  0  0  0  0  0  0  0  0  0
    7.7438   11.2504   24.9690 C   0  0  0  0  0  0  0  0  0  0  0  0
    6.6971   11.5725   25.8713 C   0  0  0  0  0  0  0  0  0  0  0  0
    6.6178   12.9437   25.9469 C   0  0  0  0  0  0  0  0  0  0  0  0
    7.5705   13.4667   25.1168 N   0  0  0  0  0  0  0  0  0  0  0  0
    8.2819   12.4503   24.5154 C   0  0  0  0  0  0  0  0  0  0  0  0
  2  1  1  1
  2  3  1  0
  3  4  1  0
  2  5  1  0
  5  6  1  0
  6  7  2  0
  6  8  1  0
  8  9  2  0
  9 10  1  0
 10 11  1  0
 10 12  2  0
 12 13  1  0
 13 14  1  0
 14 15  2  0
 15 16  1  0
 16 17  1  0
 17  8  1  0
 17 13  2  0
M  END
>  <alias>  (1590) 
None

>  <rmsd(smina/fragmenstein)>  (1590) 
0.174

>  <smiles>  (1590) 
C[C@H](CS)NC(=O)c1cc(F)cc2cc[nH]c12

>  <gnina_score>  (1590) 
5.43

>  <inspiration_score>  (1590) 
None

>  <energy_score>  (1590) 
-4.899383

>  <distance_score>  (1590) 
1.239376

>  <gnina_score_min>  (1590) 
5.509

>  <inchikey>  (1590) 
QEXYWXQEPDZCOM-SSDOTTSWSA-N

>  <exports>  (1590) 
['/opt/xchem-fragalysis-2/maxwin/BulkDock/OUTPUTS/openbind_a71ev2a_c2_elabs_1LOUU54.sdf', '/opt/xchem-fragalysis-2/maxwin/BulkDock/OUTPUTS/openbind_a71ev2a_c2_elabs_1LSYIDY.sdf']

>  <name>  (1590) 
P584830

>  <ref_pdb>  (1590) 
A0566a

>  <subsites>  (1590) 
None

>  <HIPPO Pose ID>  (1590) 
584830

>  <ref_mols>  (1590) 
A0566a

>  <HIPPO Compound ID>  (1590) 
438994

>  <tags>  (1590) 
openbind_a71ev2a_c2_elabs,syndirella_product,openbind_a71ev2a_c2_elabs_fragonly_scored_top80percent,BulkDock Fragalysis export,openbind_a71ev2a_c2_elabs_scored,openbind_a71ev2a_c2_elabs_scored_top80percent,openbind_a71ev2a_c2_elabs_activefrags_only_scored_5.2plus,openbind_a71ev2a_c2_elabs_activefrags_only_scored_5.5plus,syndirella_placed

>  <smina_score_min>  (1590) 
-5.704

$$$$
P584834
     RDKit          3D

 17 18  0  0  0  0  0  0  0  0999 V2000
    8.7026   15.5534   21.2889 C   0  0  0  0  0  0  0  0  0  0  0  0
   10.1172   15.9171   20.8170 C   0  0  2  0  0  0  0  0  0  0  0  0
   10.1084   15.7999   19.0113 S   0  0  0  0  0  0  0  0  0  0  0  0
   11.2614   15.0786   21.4242 C   0  0  0  0  0  0  0  0  0  0  0  0
   10.7415   13.9379   22.1152 N   0  0  0  0  0  0  0  0  0  0  0  0
   10.2448   13.7877   23.5600 C   0  0  0  0  0  0  0  0  0  0  0  0
   10.2503   14.5475   24.4439 O   0  0  0  0  0  0  0  0  0  0  0  0
    9.5777   12.4902   23.7857 C   0  0  0  0  0  0  0  0  0  0  0  0
   10.0005   11.3083   23.1908 C   0  0  0  0  0  0  0  0  0  0  0  0
    9.3959   10.1071   23.5025 C   0  0  0  0  0  0  0  0  0  0  0  0
    9.8671    8.9828   22.9557 F   0  0  0  0  0  0  0  0  0  0  0  0
    8.3334   10.0448   24.3969 C   0  0  0  0  0  0  0  0  0  0  0  0
    7.8283   11.2315   24.9468 C   0  0  0  0  0  0  0  0  0  0  0  0
    6.7574   11.5392   25.8254 C   0  0  0  0  0  0  0  0  0  0  0  0
    6.7421   12.9031   26.0039 C   0  0  0  0  0  0  0  0  0  0  0  0
    7.7703   13.4341   25.2747 N   0  0  0  0  0  0  0  0  0  0  0  0
    8.4583   12.4299   24.6276 C   0  0  0  0  0  0  0  0  0  0  0  0
  2  1  1  1
  2  3  1  0
  2  4  1  0
  4  5  1  0
  5  6  1  0
  6  7  2  0
  6  8  1  0
  8  9  2  0
  9 10  1  0
 10 11  1  0
 10 12  2  0
 12 13  1  0
 13 14  1  0
 14 15  2  0
 15 16  1  0
 16 17  1  0
 17  8  1  0
 17 13  2  0
M  END
>  <alias>  (1591) 
None

>  <rmsd(smina/fragmenstein)>  (1591) 
0.268

>  <smiles>  (1591) 
C[C@H](S)CNC(=O)c1cc(F)cc2cc[nH]c12

>  <gnina_score>  (1591) 
5.374

>  <inspiration_score>  (1591) 
None

>  <energy_score>  (1591) 
-16.238372

>  <distance_score>  (1591) 
0.969959

>  <gnina_score_min>  (1591) 
5.365

>  <inchikey>  (1591) 
WSYQHJUUZPQRKT-ZETCQYMHSA-N

>  <exports>  (1591) 
['/opt/xchem-fragalysis-2/maxwin/BulkDock/OUTPUTS/openbind_a71ev2a_c2_elabs_1LOUU54.sdf', '/opt/xchem-fragalysis-2/maxwin/BulkDock/OUTPUTS/openbind_a71ev2a_c2_elabs_1LSYIDY.sdf']

>  <name>  (1591) 
P584834

>  <ref_pdb>  (1591) 
A0566a

>  <subsites>  (1591) 
None

>  <HIPPO Pose ID>  (1591) 
584834

>  <ref_mols>  (1591) 
A0566a

>  <HIPPO Compound ID>  (1591) 
439003

>  <tags>  (1591) 
openbind_a71ev2a_c2_elabs,syndirella_product,openbind_a71ev2a_c2_elabs_fragonly_scored_top80percent,openbind_a71ev2a_c2_elabs_scored,BulkDock Fragalysis export,openbind_a71ev2a_c2_elabs_scored_top80percent,openbind_a71ev2a_c2_elabs_activefrags_only_scored_5.2plus,syndirella_placed

>  <smina_score_min>  (1591) 
-5.489

$$$$
P584839
     RDKit          3D

 17 19  0  0  0  0  0  0  0  0999 V2000
    9.8959   14.6900   24.3800 O   0  0  0  0  0  0  0  0  0  0  0  0
    9.8865   13.9044   23.5206 C   0  0  0  0  0  0  0  0  0  0  0  0
   10.3399   14.0224   22.0608 N   0  0  0  0  0  0  0  0  0  0  0  0
   10.9959   15.1124   21.3617 C   0  0  0  0  0  0  0  0  0  0  0  0
   12.2893   14.6320   20.6844 C   0  0  0  0  0  0  0  0  0  0  0  0
   11.5138   14.6369   19.0567 S   0  0  0  0  0  0  0  0  0  0  0  0
   10.2862   15.5203   20.0486 C   0  0  0  0  0  0  0  0  0  0  0  0
    9.3251   12.5685   23.7908 C   0  0  0  0  0  0  0  0  0  0  0  0
    9.8699   11.4084   23.2384 C   0  0  0  0  0  0  0  0  0  0  0  0
    9.3491   10.1714   23.5624 C   0  0  0  0  0  0  0  0  0  0  0  0
    9.8996    9.0732   23.0366 F   0  0  0  0  0  0  0  0  0  0  0  0
    8.2901   10.0478   24.4552 C   0  0  0  0  0  0  0  0  0  0  0  0
    7.7170   11.2002   25.0138 C   0  0  0  0  0  0  0  0  0  0  0  0
    6.6533   11.4386   25.9215 C   0  0  0  0  0  0  0  0  0  0  0  0
    6.5519   12.7991   26.0996 C   0  0  0  0  0  0  0  0  0  0  0  0
    7.5132   13.3976   25.3328 N   0  0  0  0  0  0  0  0  0  0  0  0
    8.2445   12.4389   24.6671 C   0  0  0  0  0  0  0  0  0  0  0  0
  1  2  2  0
  2  3  1  0
  3  4  1  0
  4  5  1  0
  5  6  1  0
  6  7  1  0
  2  8  1  0
  8  9  2  0
  9 10  1  0
 10 11  1  0
 10 12  2  0
 12 13  1  0
 13 14  1  0
 14 15  2  0
 15 16  1  0
 16 17  1  0
  7  4  1  0
 17  8  1  0
 17 13  2  0
M  END
>  <alias>  (1592) 
None

>  <rmsd(smina/fragmenstein)>  (1592) 
0.276

>  <smiles>  (1592) 
O=C(NC1CSC1)c1cc(F)cc2cc[nH]c12

>  <gnina_score>  (1592) 
5.181

>  <inspiration_score>  (1592) 
None

>  <energy_score>  (1592) 
-12.480141

>  <distance_score>  (1592) 
1.178865

>  <gnina_score_min>  (1592) 
5.219

>  <inchikey>  (1592) 
PVRLHZDMFTVVIU-UHFFFAOYSA-N

>  <exports>  (1592) 
['/opt/xchem-fragalysis-2/maxwin/BulkDock/OUTPUTS/openbind_a71ev2a_c2_elabs_1LOUU54.sdf', '/opt/xchem-fragalysis-2/maxwin/BulkDock/OUTPUTS/openbind_a71ev2a_c2_elabs_1LSYIDY.sdf']

>  <name>  (1592) 
P584839

>  <ref_pdb>  (1592) 
A0566a

>  <subsites>  (1592) 
None

>  <HIPPO Pose ID>  (1592) 
584839

>  <ref_mols>  (1592) 
A0566a

>  <HIPPO Compound ID>  (1592) 
439011

>  <tags>  (1592) 
openbind_a71ev2a_c2_elabs,syndirella_product,openbind_a71ev2a_c2_elabs_fragonly_scored_top80percent,openbind_a71ev2a_c2_elabs_scored,BulkDock Fragalysis export,openbind_a71ev2a_c2_elabs_scored_top80percent,openbind_a71ev2a_c2_elabs_activefrags_only_scored_5.2plus,syndirella_placed

>  <smina_score_min>  (1592) 
-5.878

$$$$
P584846
     RDKit          3D

 17 18  0  0  0  0  0  0  0  0999 V2000
   12.2024   15.3827   21.9161 C   0  0  0  0  0  0  0  0  0  0  0  0
   11.0386   14.9355   21.0269 C   0  0  0  0  0  0  0  0  0  0  0  0
   11.6083   14.4762   19.6817 C   0  0  0  0  0  0  0  0  0  0  0  0
    9.9557   15.9924   20.7572 C   0  0  0  0  0  0  0  0  0  0  0  0
   10.4063   13.8517   21.7495 N   0  0  0  0  0  0  0  0  0  0  0  0
    9.8268   13.8040   23.1762 C   0  0  0  0  0  0  0  0  0  0  0  0
    9.6970   14.6505   23.9685 O   0  0  0  0  0  0  0  0  0  0  0  0
    9.3213   12.4738   23.5688 C   0  0  0  0  0  0  0  0  0  0  0  0
    9.8751   11.2794   23.1205 C   0  0  0  0  0  0  0  0  0  0  0  0
    9.3725   10.0664   23.5478 C   0  0  0  0  0  0  0  0  0  0  0  0
    9.9364    8.9381   23.1060 F   0  0  0  0  0  0  0  0  0  0  0  0
    8.3205    9.9983   24.4547 C   0  0  0  0  0  0  0  0  0  0  0  0
    7.7569   11.1835   24.9457 C   0  0  0  0  0  0  0  0  0  0  0  0
    6.7136   11.4819   25.8603 C   0  0  0  0  0  0  0  0  0  0  0  0
    6.6145   12.8513   25.9488 C   0  0  0  0  0  0  0  0  0  0  0  0
    7.5520   13.3943   25.1144 N   0  0  0  0  0  0  0  0  0  0  0  0
    8.2680   12.3930   24.4924 C   0  0  0  0  0  0  0  0  0  0  0  0
  1  2  1  0
  2  3  1  0
  2  4  1  0
  2  5  1  0
  5  6  1  0
  6  7  2  0
  6  8  1  0
  8  9  2  0
  9 10  1  0
 10 11  1  0
 10 12  2  0
 12 13  1  0
 13 14  1  0
 14 15  2  0
 15 16  1  0
 16 17  1  0
 17  8  1  0
 17 13  2  0
M  END
>  <alias>  (1593) 
None

>  <rmsd(smina/fragmenstein)>  (1593) 
0.241

>  <smiles>  (1593) 
CC(C)(C)NC(=O)c1cc(F)cc2cc[nH]c12

>  <gnina_score>  (1593) 
5.18

>  <inspiration_score>  (1593) 
None

>  <energy_score>  (1593) 
-2.546672

>  <distance_score>  (1593) 
1.239563

>  <gnina_score_min>  (1593) 
5.257

>  <inchikey>  (1593) 
VIZQYPOYNJOGJF-UHFFFAOYSA-N

>  <exports>  (1593) 
['/opt/xchem-fragalysis-2/maxwin/BulkDock/OUTPUTS/openbind_a71ev2a_c2_elabs_1LOUU54.sdf', '/opt/xchem-fragalysis-2/maxwin/BulkDock/OUTPUTS/openbind_a71ev2a_c2_elabs_1LSYIDY.sdf']

>  <name>  (1593) 
P584846

>  <ref_pdb>  (1593) 
A0566a

>  <subsites>  (1593) 
None

>  <HIPPO Pose ID>  (1593) 
584846

>  <ref_mols>  (1593) 
A0566a

>  <HIPPO Compound ID>  (1593) 
439033

>  <tags>  (1593) 
openbind_a71ev2a_c2_elabs,syndirella_product,openbind_a71ev2a_c2_elabs_fragonly_scored_top80percent,openbind_a71ev2a_c2_elabs_scored,BulkDock Fragalysis export,openbind_a71ev2a_c2_elabs_scored_top80percent,openbind_a71ev2a_c2_elabs_activefrags_only_scored_5.2plus,syndirella_placed

>  <smina_score_min>  (1593) 
-6.233

$$$$
P584848
     RDKit          3D

 17 19  0  0  0  0  0  0  0  0999 V2000
    9.9226   14.6832   24.6067 O   0  0  0  0  0  0  0  0  0  0  0  0
    9.8555   13.9548   23.6987 C   0  0  0  0  0  0  0  0  0  0  0  0
   10.2368   14.1620   22.2238 N   0  0  0  0  0  0  0  0  0  0  0  0
   10.8394   15.2229   21.6010 N   0  0  0  0  0  0  0  0  0  0  0  0
   12.3075   15.1662   21.8360 C   0  0  0  0  0  0  0  0  0  0  0  0
   12.4502   14.3176   20.5765 C   0  0  0  0  0  0  0  0  0  0  0  0
   11.0897   14.8886   20.1747 C   0  0  0  0  0  0  0  0  0  0  0  0
    9.3035   12.6056   23.8939 C   0  0  0  0  0  0  0  0  0  0  0  0
    9.8660   11.4813   23.2848 C   0  0  0  0  0  0  0  0  0  0  0  0
    9.3561   10.2253   23.5494 C   0  0  0  0  0  0  0  0  0  0  0  0
    9.9131    9.1572   22.9708 F   0  0  0  0  0  0  0  0  0  0  0  0
    8.2964   10.0506   24.4339 C   0  0  0  0  0  0  0  0  0  0  0  0
    7.7010   11.1701   25.0355 C   0  0  0  0  0  0  0  0  0  0  0  0
    6.6279   11.3574   25.9439 C   0  0  0  0  0  0  0  0  0  0  0  0
    6.5059   12.7084   26.1758 C   0  0  0  0  0  0  0  0  0  0  0  0
    7.4668   13.3510   25.4448 N   0  0  0  0  0  0  0  0  0  0  0  0
    8.2146   12.4286   24.7477 C   0  0  0  0  0  0  0  0  0  0  0  0
  1  2  2  0
  2  3  1  0
  3  4  1  0
  4  5  1  0
  5  6  1  0
  6  7  1  0
  2  8  1  0
  8  9  2  0
  9 10  1  0
 10 11  1  0
 10 12  2  0
 12 13  1  0
 13 14  1  0
 14 15  2  0
 15 16  1  0
 16 17  1  0
  7  4  1  0
 17  8  1  0
 17 13  2  0
M  END
>  <alias>  (1594) 
None

>  <rmsd(smina/fragmenstein)>  (1594) 
0.372

>  <smiles>  (1594) 
O=C(NN1CCC1)c1cc(F)cc2cc[nH]c12

>  <gnina_score>  (1594) 
5.224

>  <inspiration_score>  (1594) 
None

>  <energy_score>  (1594) 
-5.605031

>  <distance_score>  (1594) 
1.195156

>  <gnina_score_min>  (1594) 
5.287

>  <inchikey>  (1594) 
JISUZTOXJBKRMU-UHFFFAOYSA-N

>  <exports>  (1594) 
['/opt/xchem-fragalysis-2/maxwin/BulkDock/OUTPUTS/openbind_a71ev2a_c2_elabs_1LOUU54.sdf', '/opt/xchem-fragalysis-2/maxwin/BulkDock/OUTPUTS/openbind_a71ev2a_c2_elabs_1LSYIDY.sdf']

>  <name>  (1594) 
P584848

>  <ref_pdb>  (1594) 
A0566a

>  <subsites>  (1594) 
None

>  <HIPPO Pose ID>  (1594) 
584848

>  <ref_mols>  (1594) 
A0566a

>  <HIPPO Compound ID>  (1594) 
439037

>  <tags>  (1594) 
openbind_a71ev2a_c2_elabs,syndirella_product,openbind_a71ev2a_c2_elabs_fragonly_scored_top80percent,openbind_a71ev2a_c2_elabs_scored,BulkDock Fragalysis export,openbind_a71ev2a_c2_elabs_scored_top80percent,openbind_a71ev2a_c2_elabs_activefrags_only_scored_5.2plus,syndirella_placed

>  <smina_score_min>  (1594) 
-6.294

$$$$
P584849
     RDKit          3D

 17 18  0  0  0  0  0  0  0  0999 V2000
    8.5591   15.0463   23.8762 O   0  0  0  0  0  0  0  0  0  0  0  0
    8.9365   14.1510   23.2340 C   0  0  0  0  0  0  0  0  0  0  0  0
    9.4768   14.1142   21.7979 N   0  0  0  0  0  0  0  0  0  0  0  0
    9.7574   15.1816   20.8782 C   0  0  0  0  0  0  0  0  0  0  0  0
   11.1420   14.9872   20.3029 C   0  0  0  0  0  0  0  0  0  0  0  0
   12.4370   15.0513   21.7628 Br  0  0  0  0  0  0  0  0  0  0  0  0
    8.8125   12.7912   23.8010 C   0  0  0  0  0  0  0  0  0  0  0  0
    9.5718   11.7089   23.3734 C   0  0  0  0  0  0  0  0  0  0  0  0
   10.6266   11.9295   22.5852 F   0  0  0  0  0  0  0  0  0  0  0  0
    9.2386   10.4138   23.7274 C   0  0  0  0  0  0  0  0  0  0  0  0
   10.0943    9.0942   23.0672 Cl  0  0  0  0  0  0  0  0  0  0  0  0
    8.2035   10.1696   24.6266 C   0  0  0  0  0  0  0  0  0  0  0  0
    7.5107   11.2537   25.1842 C   0  0  0  0  0  0  0  0  0  0  0  0
    6.4637   11.3770   26.1319 C   0  0  0  0  0  0  0  0  0  0  0  0
    6.1645   12.7145   26.2533 C   0  0  0  0  0  0  0  0  0  0  0  0
    6.9660   13.4064   25.3893 N   0  0  0  0  0  0  0  0  0  0  0  0
    7.8228   12.5370   24.7522 C   0  0  0  0  0  0  0  0  0  0  0  0
  1  2  2  0
  2  3  1  0
  3  4  1  0
  4  5  1  0
  5  6  1  0
  2  7  1  0
  7  8  2  0
  8  9  1  0
  8 10  1  0
 10 11  1  0
 10 12  2  0
 12 13  1  0
 13 14  1  0
 14 15  2  0
 15 16  1  0
 16 17  1  0
 17  7  1  0
 17 13  2  0
M  END
>  <alias>  (1595) 
None

>  <rmsd(smina/fragmenstein)>  (1595) 
0.436

>  <smiles>  (1595) 
O=C(NCCBr)c1c(F)c(Cl)cc2cc[nH]c12

>  <gnina_score>  (1595) 
5.39

>  <inspiration_score>  (1595) 
None

>  <energy_score>  (1595) 
-8.609328

>  <distance_score>  (1595) 
1.869265

>  <gnina_score_min>  (1595) 
5.347

>  <inchikey>  (1595) 
HHDBKWHQIGDSLZ-UHFFFAOYSA-N

>  <exports>  (1595) 
['/opt/xchem-fragalysis-2/maxwin/BulkDock/OUTPUTS/openbind_a71ev2a_c2_elabs_1LOUU54.sdf', '/opt/xchem-fragalysis-2/maxwin/BulkDock/OUTPUTS/openbind_a71ev2a_c2_elabs_1LSYIDY.sdf']

>  <name>  (1595) 
P584849

>  <ref_pdb>  (1595) 
A0566a

>  <subsites>  (1595) 
None

>  <HIPPO Pose ID>  (1595) 
584849

>  <ref_mols>  (1595) 
A0566a

>  <HIPPO Compound ID>  (1595) 
439039

>  <tags>  (1595) 
openbind_a71ev2a_c2_elabs,syndirella_product,openbind_a71ev2a_c2_elabs_fragonly_scored_top80percent,openbind_a71ev2a_c2_elabs_scored,BulkDock Fragalysis export,openbind_a71ev2a_c2_elabs_scored_top80percent,openbind_a71ev2a_c2_elabs_activefrags_only_scored_5.2plus,syndirella_placed

>  <smina_score_min>  (1595) 
-5.649

$$$$
P584851
     RDKit          3D

 17 18  0  0  0  0  0  0  0  0999 V2000
    9.5703   16.0083   20.4724 C   0  0  0  0  0  0  0  0  0  0  0  0
   10.7519   15.2306   21.0319 C   0  0  2  0  0  0  0  0  0  0  0  0
   11.5758   14.7132   19.9265 C   0  0  0  0  0  0  0  0  0  0  0  0
   12.1956   14.2376   19.0693 N   0  0  0  0  0  0  0  0  0  0  0  0
   10.2805   14.1215   21.8286 N   0  0  0  0  0  0  0  0  0  0  0  0
    9.8127   14.0707   23.2877 C   0  0  0  0  0  0  0  0  0  0  0  0
    9.8037   14.8971   24.1062 O   0  0  0  0  0  0  0  0  0  0  0  0
    9.2761   12.7619   23.6700 C   0  0  0  0  0  0  0  0  0  0  0  0
    9.8597   11.5904   23.2228 C   0  0  0  0  0  0  0  0  0  0  0  0
    9.3444   10.3744   23.6209 C   0  0  0  0  0  0  0  0  0  0  0  0
   10.2087    8.8435   23.0255 Br  0  0  0  0  0  0  0  0  0  0  0  0
    8.2668   10.2728   24.4974 C   0  0  0  0  0  0  0  0  0  0  0  0
    7.6880   11.4492   24.9887 C   0  0  0  0  0  0  0  0  0  0  0  0
    6.6287   11.7278   25.8891 C   0  0  0  0  0  0  0  0  0  0  0  0
    6.5214   13.0950   25.9952 C   0  0  0  0  0  0  0  0  0  0  0  0
    7.4693   13.6573   25.1847 N   0  0  0  0  0  0  0  0  0  0  0  0
    8.2030   12.6702   24.5649 C   0  0  0  0  0  0  0  0  0  0  0  0
  2  1  1  6
  2  3  1  0
  3  4  3  0
  2  5  1  0
  5  6  1  0
  6  7  2  0
  6  8  1  0
  8  9  2  0
  9 10  1  0
 10 11  1  0
 10 12  2  0
 12 13  1  0
 13 14  1  0
 14 15  2  0
 15 16  1  0
 16 17  1  0
 17  8  1  0
 17 13  2  0
M  END
>  <alias>  (1596) 
None

>  <rmsd(smina/fragmenstein)>  (1596) 
0.624

>  <smiles>  (1596) 
C[C@H](C#N)NC(=O)c1cc(Br)cc2cc[nH]c12

>  <gnina_score>  (1596) 
5.565

>  <inspiration_score>  (1596) 
None

>  <energy_score>  (1596) 
-2.470732

>  <distance_score>  (1596) 
1.281606

>  <gnina_score_min>  (1596) 
5.637

>  <inchikey>  (1596) 
JGUNCJVNVGHYTL-SSDOTTSWSA-N

>  <exports>  (1596) 
['/opt/xchem-fragalysis-2/maxwin/BulkDock/OUTPUTS/openbind_a71ev2a_c2_elabs_1LOUU54.sdf', '/opt/xchem-fragalysis-2/maxwin/BulkDock/OUTPUTS/openbind_a71ev2a_c2_elabs_1LSYIDY.sdf']

>  <name>  (1596) 
P584851

>  <ref_pdb>  (1596) 
A0566a

>  <subsites>  (1596) 
None

>  <HIPPO Pose ID>  (1596) 
584851

>  <ref_mols>  (1596) 
A0566a

>  <HIPPO Compound ID>  (1596) 
439044

>  <tags>  (1596) 
openbind_a71ev2a_c2_elabs,syndirella_product,openbind_a71ev2a_c2_elabs_fragonly_scored_top80percent,BulkDock Fragalysis export,openbind_a71ev2a_c2_elabs_scored,openbind_a71ev2a_c2_elabs_scored_top80percent,openbind_a71ev2a_c2_elabs_activefrags_only_scored_5.2plus,openbind_a71ev2a_c2_elabs_activefrags_only_scored_5.5plus,syndirella_placed

>  <smina_score_min>  (1596) 
-5.023

$$$$
P584855
     RDKit          3D

 17 19  0  0  0  0  0  0  0  0999 V2000
    9.8422   16.0704   20.6501 C   0  0  0  0  0  0  0  0  0  0  0  0
   10.7289   15.0716   21.3487 C   0  0  0  0  0  0  0  0  0  0  0  0
   10.0485   14.0723   22.0495 N   0  0  0  0  0  0  0  0  0  0  0  0
    9.5707   14.0248   23.5127 C   0  0  0  0  0  0  0  0  0  0  0  0
    9.6001   14.8413   24.3446 O   0  0  0  0  0  0  0  0  0  0  0  0
    9.0788   12.6943   23.8557 C   0  0  0  0  0  0  0  0  0  0  0  0
    9.7193   11.5650   23.3671 C   0  0  0  0  0  0  0  0  0  0  0  0
    9.2534   10.3172   23.7100 C   0  0  0  0  0  0  0  0  0  0  0  0
   10.1865    8.8592   23.0368 Br  0  0  0  0  0  0  0  0  0  0  0  0
    8.1807   10.1473   24.5815 C   0  0  0  0  0  0  0  0  0  0  0  0
    7.5566   11.2815   25.1217 C   0  0  0  0  0  0  0  0  0  0  0  0
    6.4936   11.4885   26.0365 C   0  0  0  0  0  0  0  0  0  0  0  0
    6.3330   12.8466   26.1912 C   0  0  0  0  0  0  0  0  0  0  0  0
    7.2511   13.4746   25.3952 N   0  0  0  0  0  0  0  0  0  0  0  0
    8.0170   12.5368   24.7432 C   0  0  0  0  0  0  0  0  0  0  0  0
   12.0787   15.4622   21.9003 C   0  0  0  0  0  0  0  0  0  0  0  0
   11.9986   14.6778   20.6322 C   0  0  0  0  0  0  0  0  0  0  0  0
  1  2  1  0
  2  3  1  0
  3  4  1  0
  4  5  2  0
  4  6  1  0
  6  7  2  0
  7  8  1  0
  8  9  1  0
  8 10  2  0
 10 11  1  0
 11 12  1  0
 12 13  2  0
 13 14  1  0
 14 15  1  0
  2 16  1  0
 16 17  1  0
 17  2  1  0
 15  6  1  0
 15 11  2  0
M  END
>  <alias>  (1597) 
None

>  <rmsd(smina/fragmenstein)>  (1597) 
0.16

>  <smiles>  (1597) 
CC1(NC(=O)c2cc(Br)cc3cc[nH]c23)CC1

>  <gnina_score>  (1597) 
5.326

>  <inspiration_score>  (1597) 
None

>  <energy_score>  (1597) 
-2.453516

>  <distance_score>  (1597) 
1.402562

>  <gnina_score_min>  (1597) 
5.317

>  <inchikey>  (1597) 
RAGFIHIJZJSTMX-UHFFFAOYSA-N

>  <exports>  (1597) 
['/opt/xchem-fragalysis-2/maxwin/BulkDock/OUTPUTS/openbind_a71ev2a_c2_elabs_1LOUU54.sdf', '/opt/xchem-fragalysis-2/maxwin/BulkDock/OUTPUTS/openbind_a71ev2a_c2_elabs_1LSYIDY.sdf']

>  <name>  (1597) 
P584855

>  <ref_pdb>  (1597) 
A0566a

>  <subsites>  (1597) 
None

>  <HIPPO Pose ID>  (1597) 
584855

>  <ref_mols>  (1597) 
A0566a

>  <HIPPO Compound ID>  (1597) 
439049

>  <tags>  (1597) 
openbind_a71ev2a_c2_elabs,syndirella_product,openbind_a71ev2a_c2_elabs_fragonly_scored_top80percent,openbind_a71ev2a_c2_elabs_scored,BulkDock Fragalysis export,openbind_a71ev2a_c2_elabs_scored_top80percent,openbind_a71ev2a_c2_elabs_activefrags_only_scored_5.2plus,syndirella_placed

>  <smina_score_min>  (1597) 
-5.431

$$$$
P584857
     RDKit          3D

 17 18  0  0  0  0  0  0  0  0999 V2000
   10.0647   15.6929   19.0435 N   0  0  0  0  0  0  0  0  0  0  0  0
   10.5621   15.4023   20.0522 C   0  0  0  0  0  0  0  0  0  0  0  0
   11.2197   15.0528   21.3184 C   0  0  0  0  0  0  0  0  0  0  0  0
   10.4963   14.0230   22.0054 N   0  0  0  0  0  0  0  0  0  0  0  0
    9.8364   14.0218   23.3955 C   0  0  0  0  0  0  0  0  0  0  0  0
    9.7090   14.8811   24.1719 O   0  0  0  0  0  0  0  0  0  0  0  0
    9.2522   12.7217   23.7535 C   0  0  0  0  0  0  0  0  0  0  0  0
    9.8321   11.5490   23.3151 C   0  0  0  0  0  0  0  0  0  0  0  0
   10.9501   11.6407   22.6018 F   0  0  0  0  0  0  0  0  0  0  0  0
    9.3283   10.3104   23.6489 C   0  0  0  0  0  0  0  0  0  0  0  0
   10.1199    8.9190   23.0728 Cl  0  0  0  0  0  0  0  0  0  0  0  0
    8.2394   10.2034   24.5080 C   0  0  0  0  0  0  0  0  0  0  0  0
    7.6512   11.3753   25.0134 C   0  0  0  0  0  0  0  0  0  0  0  0
    6.5824   11.6340   25.9084 C   0  0  0  0  0  0  0  0  0  0  0  0
    6.4614   12.9987   26.0321 C   0  0  0  0  0  0  0  0  0  0  0  0
    7.4094   13.5827   25.2381 N   0  0  0  0  0  0  0  0  0  0  0  0
    8.1624   12.6107   24.6189 C   0  0  0  0  0  0  0  0  0  0  0  0
  1  2  3  0
  2  3  1  0
  3  4  1  0
  4  5  1  0
  5  6  2  0
  5  7  1  0
  7  8  2  0
  8  9  1  0
  8 10  1  0
 10 11  1  0
 10 12  2  0
 12 13  1  0
 13 14  1  0
 14 15  2  0
 15 16  1  0
 16 17  1  0
 17  7  1  0
 17 13  2  0
M  END
>  <alias>  (1598) 
None

>  <rmsd(smina/fragmenstein)>  (1598) 
0.376

>  <smiles>  (1598) 
N#CCNC(=O)c1c(F)c(Cl)cc2cc[nH]c12

>  <gnina_score>  (1598) 
5.521

>  <inspiration_score>  (1598) 
None

>  <energy_score>  (1598) 
-11.488591

>  <distance_score>  (1598) 
1.238698

>  <gnina_score_min>  (1598) 
5.519

>  <inchikey>  (1598) 
RZKAZSAWLWKFOF-UHFFFAOYSA-N

>  <exports>  (1598) 
['/opt/xchem-fragalysis-2/maxwin/BulkDock/OUTPUTS/openbind_a71ev2a_c2_elabs_1LOUU54.sdf', '/opt/xchem-fragalysis-2/maxwin/BulkDock/OUTPUTS/openbind_a71ev2a_c2_elabs_1LSYIDY.sdf']

>  <name>  (1598) 
P584857

>  <ref_pdb>  (1598) 
A0566a

>  <subsites>  (1598) 
None

>  <HIPPO Pose ID>  (1598) 
584857

>  <ref_mols>  (1598) 
A0566a

>  <HIPPO Compound ID>  (1598) 
439058

>  <tags>  (1598) 
openbind_a71ev2a_c2_elabs,syndirella_product,openbind_a71ev2a_c2_elabs_fragonly_scored_top80percent,BulkDock Fragalysis export,openbind_a71ev2a_c2_elabs_scored,openbind_a71ev2a_c2_elabs_scored_top80percent,openbind_a71ev2a_c2_elabs_activefrags_only_scored_5.2plus,openbind_a71ev2a_c2_elabs_activefrags_only_scored_5.5plus,syndirella_placed

>  <smina_score_min>  (1598) 
-4.639

$$$$
P584861
     RDKit          3D

 17 18  0  0  0  0  0  0  0  0999 V2000
   10.5231   15.1415   19.9308 C   0  0  0  0  0  0  0  0  0  0  0  0
   10.9895   15.1130   21.3781 C   0  0  0  0  0  0  0  0  0  0  0  0
   12.4781   14.8570   21.5165 C   0  0  0  0  0  0  0  0  0  0  0  0
   10.3175   14.0534   22.0762 N   0  0  0  0  0  0  0  0  0  0  0  0
    9.5992   14.0505   23.4366 C   0  0  0  0  0  0  0  0  0  0  0  0
    9.3712   14.9251   24.1728 O   0  0  0  0  0  0  0  0  0  0  0  0
    9.1179   12.7115   23.8086 C   0  0  0  0  0  0  0  0  0  0  0  0
    9.7504   11.5648   23.3601 C   0  0  0  0  0  0  0  0  0  0  0  0
   10.8603   11.6903   22.6348 F   0  0  0  0  0  0  0  0  0  0  0  0
    9.2911   10.3056   23.6843 C   0  0  0  0  0  0  0  0  0  0  0  0
   10.1132    8.9436   23.0767 Cl  0  0  0  0  0  0  0  0  0  0  0  0
    8.2116   10.1506   24.5489 C   0  0  0  0  0  0  0  0  0  0  0  0
    7.5877   11.2929   25.0766 C   0  0  0  0  0  0  0  0  0  0  0  0
    6.5208   11.5047   25.9862 C   0  0  0  0  0  0  0  0  0  0  0  0
    6.3506   12.8631   26.1234 C   0  0  0  0  0  0  0  0  0  0  0  0
    7.2642   13.4873   25.3205 N   0  0  0  0  0  0  0  0  0  0  0  0
    8.0457   12.5480   24.6867 C   0  0  0  0  0  0  0  0  0  0  0  0
  1  2  1  0
  2  3  1  0
  2  4  1  0
  4  5  1  0
  5  6  2  0
  5  7  1  0
  7  8  2  0
  8  9  1  0
  8 10  1  0
 10 11  1  0
 10 12  2  0
 12 13  1  0
 13 14  1  0
 14 15  2  0
 15 16  1  0
 16 17  1  0
 17  7  1  0
 17 13  2  0
M  END
>  <alias>  (1599) 
None

>  <rmsd(smina/fragmenstein)>  (1599) 
0.363

>  <smiles>  (1599) 
CC(C)NC(=O)c1c(F)c(Cl)cc2cc[nH]c12

>  <gnina_score>  (1599) 
5.257

>  <inspiration_score>  (1599) 
None

>  <energy_score>  (1599) 
-19.06236

>  <distance_score>  (1599) 
1.381854

>  <gnina_score_min>  (1599) 
5.349

>  <inchikey>  (1599) 
ZGXKSWMMQDHYJF-UHFFFAOYSA-N

>  <exports>  (1599) 
['/opt/xchem-fragalysis-2/maxwin/BulkDock/OUTPUTS/openbind_a71ev2a_c2_elabs_1LOUU54.sdf', '/opt/xchem-fragalysis-2/maxwin/BulkDock/OUTPUTS/openbind_a71ev2a_c2_elabs_1LSYIDY.sdf']

>  <name>  (1599) 
P584861

>  <ref_pdb>  (1599) 
A0566a

>  <subsites>  (1599) 
None

>  <HIPPO Pose ID>  (1599) 
584861

>  <ref_mols>  (1599) 
A0566a

>  <HIPPO Compound ID>  (1599) 
439062

>  <tags>  (1599) 
openbind_a71ev2a_c2_elabs,syndirella_product,openbind_a71ev2a_c2_elabs_fragonly_scored_top80percent,openbind_a71ev2a_c2_elabs_scored,BulkDock Fragalysis export,openbind_a71ev2a_c2_elabs_scored_top80percent,openbind_a71ev2a_c2_elabs_activefrags_only_scored_5.2plus,syndirella_placed

>  <smina_score_min>  (1599) 
-5.352

$$$$
P584863
     RDKit          3D

 17 18  0  0  0  0  0  0  0  0999 V2000
   10.0884   16.0668   19.2197 C   0  0  0  0  0  0  0  0  0  0  0  0
   10.1730   15.9139   20.7300 C   0  0  0  0  0  0  0  0  0  0  0  0
   11.0836   14.8248   21.0968 N   0  0  0  0  0  0  0  0  0  0  0  0
   12.2709   15.2405   21.8347 C   0  0  0  0  0  0  0  0  0  0  0  0
   10.4392   13.8371   21.7830 N   0  0  0  0  0  0  0  0  0  0  0  0
    9.8938   13.8105   23.2321 C   0  0  0  0  0  0  0  0  0  0  0  0
    9.8426   14.6556   24.0380 O   0  0  0  0  0  0  0  0  0  0  0  0
    9.3405   12.4954   23.6101 C   0  0  0  0  0  0  0  0  0  0  0  0
    9.8680   11.2905   23.1532 C   0  0  0  0  0  0  0  0  0  0  0  0
    9.3407   10.0864   23.5745 C   0  0  0  0  0  0  0  0  0  0  0  0
    9.8864    8.9497   23.1325 F   0  0  0  0  0  0  0  0  0  0  0  0
    8.2853   10.0361   24.4781 C   0  0  0  0  0  0  0  0  0  0  0  0
    7.7414   11.2321   24.9673 C   0  0  0  0  0  0  0  0  0  0  0  0
    6.6975   11.5479   25.8751 C   0  0  0  0  0  0  0  0  0  0  0  0
    6.6267   12.9185   25.9705 C   0  0  0  0  0  0  0  0  0  0  0  0
    7.5840   13.4475   25.1492 N   0  0  0  0  0  0  0  0  0  0  0  0
    8.2806   12.4348   24.5249 C   0  0  0  0  0  0  0  0  0  0  0  0
  1  2  1  0
  2  3  1  0
  3  4  1  0
  3  5  1  0
  5  6  1  0
  6  7  2  0
  6  8  1  0
  8  9  2  0
  9 10  1  0
 10 11  1  0
 10 12  2  0
 12 13  1  0
 13 14  1  0
 14 15  2  0
 15 16  1  0
 16 17  1  0
 17  8  1  0
 17 13  2  0
M  END
>  <alias>  (1600) 
None

>  <rmsd(smina/fragmenstein)>  (1600) 
0.129

>  <smiles>  (1600) 
CCN(C)NC(=O)c1cc(F)cc2cc[nH]c12

>  <gnina_score>  (1600) 
5.519

>  <inspiration_score>  (1600) 
None

>  <energy_score>  (1600) 
-9.086398

>  <distance_score>  (1600) 
1.203862

>  <gnina_score_min>  (1600) 
5.504

>  <inchikey>  (1600) 
YCFDLJNWRFVJBX-UHFFFAOYSA-N

>  <exports>  (1600) 
['/opt/xchem-fragalysis-2/maxwin/BulkDock/OUTPUTS/openbind_a71ev2a_c2_elabs_1LOUU54.sdf', '/opt/xchem-fragalysis-2/maxwin/BulkDock/OUTPUTS/openbind_a71ev2a_c2_elabs_1LSYIDY.sdf']

>  <name>  (1600) 
P584863

>  <ref_pdb>  (1600) 
A0566a

>  <subsites>  (1600) 
None

>  <HIPPO Pose ID>  (1600) 
584863

>  <ref_mols>  (1600) 
A0566a

>  <HIPPO Compound ID>  (1600) 
439068

>  <tags>  (1600) 
openbind_a71ev2a_c2_elabs,syndirella_product,openbind_a71ev2a_c2_elabs_fragonly_scored_top80percent,BulkDock Fragalysis export,openbind_a71ev2a_c2_elabs_scored,openbind_a71ev2a_c2_elabs_scored_top80percent,openbind_a71ev2a_c2_elabs_activefrags_only_scored_5.2plus,openbind_a71ev2a_c2_elabs_activefrags_only_scored_5.5plus,syndirella_placed

>  <smina_score_min>  (1600) 
-5.925

$$$$
P584867
     RDKit          3D

 17 18  0  0  0  0  0  0  0  0999 V2000
   10.2581   15.8097   19.2253 C   0  0  0  0  0  0  0  0  0  0  0  0
   10.4647   15.6396   20.5372 C   0  0  0  0  0  0  0  0  0  0  0  0
   11.4678   14.6906   21.1133 C   0  0  1  0  0  0  0  0  0  0  0  0
   12.5281   15.3096   21.9980 C   0  0  0  0  0  0  0  0  0  0  0  0
   10.7075   13.7276   21.8431 N   0  0  0  0  0  0  0  0  0  0  0  0
   10.1339   13.7796   23.2659 C   0  0  0  0  0  0  0  0  0  0  0  0
   10.1229   14.6462   24.0451 O   0  0  0  0  0  0  0  0  0  0  0  0
    9.4554   12.5157   23.6358 C   0  0  0  0  0  0  0  0  0  0  0  0
    9.8812   11.2639   23.1751 C   0  0  0  0  0  0  0  0  0  0  0  0
    9.2760   10.0881   23.5918 C   0  0  0  0  0  0  0  0  0  0  0  0
    8.2288   10.1512   24.5017 C   0  0  0  0  0  0  0  0  0  0  0  0
    7.6588    9.0199   24.9253 F   0  0  0  0  0  0  0  0  0  0  0  0
    7.7520   11.3820   24.9730 C   0  0  0  0  0  0  0  0  0  0  0  0
    6.7163   11.7735   25.8611 C   0  0  0  0  0  0  0  0  0  0  0  0
    6.7264   13.1472   25.9341 C   0  0  0  0  0  0  0  0  0  0  0  0
    7.7291   13.6040   25.1226 N   0  0  0  0  0  0  0  0  0  0  0  0
    8.3761   12.5428   24.5282 C   0  0  0  0  0  0  0  0  0  0  0  0
  1  2  2  0
  2  3  1  0
  3  4  1  1
  3  5  1  0
  5  6  1  0
  6  7  2  0
  6  8  1  0
  8  9  2  0
  9 10  1  0
 10 11  2  0
 11 12  1  0
 11 13  1  0
 13 14  1  0
 14 15  2  0
 15 16  1  0
 16 17  1  0
 17  8  1  0
 17 13  2  0
M  END
>  <alias>  (1601) 
None

>  <rmsd(smina/fragmenstein)>  (1601) 
0.564

>  <smiles>  (1601) 
C=C[C@@H](C)NC(=O)c1ccc(F)c2cc[nH]c12

>  <gnina_score>  (1601) 
5.213

>  <inspiration_score>  (1601) 
None

>  <energy_score>  (1601) 
-2.758886

>  <distance_score>  (1601) 
1.099931

>  <gnina_score_min>  (1601) 
5.257

>  <inchikey>  (1601) 
KXERKZLXZJQDRN-MRVPVSSYSA-N

>  <exports>  (1601) 
['/opt/xchem-fragalysis-2/maxwin/BulkDock/OUTPUTS/openbind_a71ev2a_c2_elabs_1LOUU54.sdf', '/opt/xchem-fragalysis-2/maxwin/BulkDock/OUTPUTS/openbind_a71ev2a_c2_elabs_1LSYIDY.sdf']

>  <name>  (1601) 
P584867

>  <ref_pdb>  (1601) 
A0566a

>  <subsites>  (1601) 
None

>  <HIPPO Pose ID>  (1601) 
584867

>  <ref_mols>  (1601) 
A0566a

>  <HIPPO Compound ID>  (1601) 
439093

>  <tags>  (1601) 
openbind_a71ev2a_c2_elabs,syndirella_product,openbind_a71ev2a_c2_elabs_fragonly_scored_top80percent,openbind_a71ev2a_c2_elabs_scored,BulkDock Fragalysis export,openbind_a71ev2a_c2_elabs_scored_top80percent,openbind_a71ev2a_c2_elabs_activefrags_only_scored_5.2plus,syndirella_placed

>  <smina_score_min>  (1601) 
-6.967

$$$$
P584880
     RDKit          3D

 17 18  0  0  0  0  0  0  0  0999 V2000
   12.0547   15.7314   22.0072 C   0  0  0  0  0  0  0  0  0  0  0  0
   12.0183   14.3439   21.4594 C   0  0  2  0  0  0  0  0  0  0  0  0
   11.9353   14.3631   19.9935 C   0  0  0  0  0  0  0  0  0  0  0  0
   11.8802   14.3260   18.8358 N   0  0  0  0  0  0  0  0  0  0  0  0
   10.9781   13.5619   22.0541 N   0  0  0  0  0  0  0  0  0  0  0  0
   10.3887   13.5987   23.4678 C   0  0  0  0  0  0  0  0  0  0  0  0
   10.5998   14.3225   24.3555 O   0  0  0  0  0  0  0  0  0  0  0  0
    9.4887   12.4544   23.7115 C   0  0  0  0  0  0  0  0  0  0  0  0
    9.8058   11.1746   23.2361 C   0  0  0  0  0  0  0  0  0  0  0  0
    9.1163   10.0550   23.6636 C   0  0  0  0  0  0  0  0  0  0  0  0
    8.0819   10.2022   24.5778 C   0  0  0  0  0  0  0  0  0  0  0  0
    7.4453    9.1164   25.0271 F   0  0  0  0  0  0  0  0  0  0  0  0
    7.6840   11.4708   25.0220 C   0  0  0  0  0  0  0  0  0  0  0  0
    6.6706   11.9443   25.8941 C   0  0  0  0  0  0  0  0  0  0  0  0
    6.7896   13.3128   25.9669 C   0  0  0  0  0  0  0  0  0  0  0  0
    7.8445   13.6877   25.1791 N   0  0  0  0  0  0  0  0  0  0  0  0
    8.4005   12.5798   24.5801 C   0  0  0  0  0  0  0  0  0  0  0  0
  2  1  1  1
  2  3  1  0
  3  4  3  0
  2  5  1  0
  5  6  1  0
  6  7  2  0
  6  8  1  0
  8  9  2  0
  9 10  1  0
 10 11  2  0
 11 12  1  0
 11 13  1  0
 13 14  1  0
 14 15  2  0
 15 16  1  0
 16 17  1  0
 17  8  1  0
 17 13  2  0
M  END
>  <alias>  (1602) 
None

>  <rmsd(smina/fragmenstein)>  (1602) 
0.722

>  <smiles>  (1602) 
C[C@H](C#N)NC(=O)c1ccc(F)c2cc[nH]c12

>  <gnina_score>  (1602) 
5.17

>  <inspiration_score>  (1602) 
None

>  <energy_score>  (1602) 
-0.159426

>  <distance_score>  (1602) 
1.000873

>  <gnina_score_min>  (1602) 
5.365

>  <inchikey>  (1602) 
KGLPNDILIMEVMT-SSDOTTSWSA-N

>  <exports>  (1602) 
['/opt/xchem-fragalysis-2/maxwin/BulkDock/OUTPUTS/openbind_a71ev2a_c2_elabs_1LOUU54.sdf', '/opt/xchem-fragalysis-2/maxwin/BulkDock/OUTPUTS/openbind_a71ev2a_c2_elabs_1LSYIDY.sdf']

>  <name>  (1602) 
P584880

>  <ref_pdb>  (1602) 
A0566a

>  <subsites>  (1602) 
None

>  <HIPPO Pose ID>  (1602) 
584880

>  <ref_mols>  (1602) 
A0566a

>  <HIPPO Compound ID>  (1602) 
439128

>  <tags>  (1602) 
openbind_a71ev2a_c2_elabs,syndirella_product,openbind_a71ev2a_c2_elabs_fragonly_scored_top80percent,openbind_a71ev2a_c2_elabs_scored,BulkDock Fragalysis export,openbind_a71ev2a_c2_elabs_scored_top80percent,openbind_a71ev2a_c2_elabs_activefrags_only_scored_5.2plus,syndirella_placed

>  <smina_score_min>  (1602) 
-6.103

$$$$
P584883
     RDKit          3D

 17 18  0  0  0  0  0  0  0  0999 V2000
    9.6988   15.9954   20.6543 C   0  0  0  0  0  0  0  0  0  0  0  0
   10.8005   15.2526   21.4141 C   0  0  2  0  0  0  0  0  0  0  0  0
   12.0175   14.7541   20.6299 C   0  0  0  0  0  0  0  0  0  0  0  0
   11.6834   14.5184   18.8726 S   0  0  0  0  0  0  0  0  0  0  0  0
   10.2050   14.1408   22.1044 N   0  0  0  0  0  0  0  0  0  0  0  0
    9.9215   13.9314   23.5911 C   0  0  0  0  0  0  0  0  0  0  0  0
   10.0523   14.6538   24.4931 O   0  0  0  0  0  0  0  0  0  0  0  0
    9.3469   12.5994   23.8279 C   0  0  0  0  0  0  0  0  0  0  0  0
    9.8794   11.4414   23.2464 C   0  0  0  0  0  0  0  0  0  0  0  0
    9.3541   10.1918   23.5442 C   0  0  0  0  0  0  0  0  0  0  0  0
    8.2983   10.0987   24.4466 C   0  0  0  0  0  0  0  0  0  0  0  0
    7.8210    8.8973   24.7766 F   0  0  0  0  0  0  0  0  0  0  0  0
    7.7214   11.2405   25.0207 C   0  0  0  0  0  0  0  0  0  0  0  0
    6.6563   11.4740   25.9285 C   0  0  0  0  0  0  0  0  0  0  0  0
    6.5627   12.8331   26.1226 C   0  0  0  0  0  0  0  0  0  0  0  0
    7.5343   13.4338   25.3693 N   0  0  0  0  0  0  0  0  0  0  0  0
    8.2592   12.4779   24.6941 C   0  0  0  0  0  0  0  0  0  0  0  0
  2  1  1  6
  2  3  1  0
  3  4  1  0
  2  5  1  0
  5  6  1  0
  6  7  2  0
  6  8  1  0
  8  9  2  0
  9 10  1  0
 10 11  2  0
 11 12  1  0
 11 13  1  0
 13 14  1  0
 14 15  2  0
 15 16  1  0
 16 17  1  0
 17  8  1  0
 17 13  2  0
M  END
>  <alias>  (1603) 
None

>  <rmsd(smina/fragmenstein)>  (1603) 
0.724

>  <smiles>  (1603) 
C[C@H](CS)NC(=O)c1ccc(F)c2cc[nH]c12

>  <gnina_score>  (1603) 
5.146

>  <inspiration_score>  (1603) 
None

>  <energy_score>  (1603) 
-8.745591

>  <distance_score>  (1603) 
1.161733

>  <gnina_score_min>  (1603) 
5.273

>  <inchikey>  (1603) 
KTJOHGVSODLMBR-SSDOTTSWSA-N

>  <exports>  (1603) 
['/opt/xchem-fragalysis-2/maxwin/BulkDock/OUTPUTS/openbind_a71ev2a_c2_elabs_1LOUU54.sdf', '/opt/xchem-fragalysis-2/maxwin/BulkDock/OUTPUTS/openbind_a71ev2a_c2_elabs_1LSYIDY.sdf']

>  <name>  (1603) 
P584883

>  <ref_pdb>  (1603) 
A0566a

>  <subsites>  (1603) 
None

>  <HIPPO Pose ID>  (1603) 
584883

>  <ref_mols>  (1603) 
A0566a

>  <HIPPO Compound ID>  (1603) 
439140

>  <tags>  (1603) 
openbind_a71ev2a_c2_elabs,syndirella_product,openbind_a71ev2a_c2_elabs_fragonly_scored_top80percent,openbind_a71ev2a_c2_elabs_scored,BulkDock Fragalysis export,openbind_a71ev2a_c2_elabs_scored_top80percent,openbind_a71ev2a_c2_elabs_activefrags_only_scored_5.2plus,syndirella_placed

>  <smina_score_min>  (1603) 
-5.596

$$$$
P584891
     RDKit          3D

 17 18  0  0  0  0  0  0  0  0999 V2000
   12.5469   14.4397   20.6373 C   0  0  0  0  0  0  0  0  0  0  0  0
   11.2099   14.8981   20.1046 C   0  0  0  0  0  0  0  0  0  0  0  0
   10.3676   15.3299   21.2268 N   0  0  0  0  0  0  0  0  0  0  0  0
    9.2012   16.0311   20.6948 C   0  0  0  0  0  0  0  0  0  0  0  0
    9.9585   14.2236   21.9446 N   0  0  0  0  0  0  0  0  0  0  0  0
    9.7848   14.0234   23.4633 C   0  0  0  0  0  0  0  0  0  0  0  0
    9.8856   14.7832   24.3430 O   0  0  0  0  0  0  0  0  0  0  0  0
    9.3299   12.6585   23.7628 C   0  0  0  0  0  0  0  0  0  0  0  0
    9.9143   11.5205   23.1958 C   0  0  0  0  0  0  0  0  0  0  0  0
    9.4348   10.2514   23.4989 C   0  0  0  0  0  0  0  0  0  0  0  0
    8.3811   10.1186   24.4005 C   0  0  0  0  0  0  0  0  0  0  0  0
    7.9432    8.9012   24.7275 F   0  0  0  0  0  0  0  0  0  0  0  0
    7.7715   11.2392   24.9818 C   0  0  0  0  0  0  0  0  0  0  0  0
    6.7046   11.4356   25.8966 C   0  0  0  0  0  0  0  0  0  0  0  0
    6.5637   12.7908   26.0896 C   0  0  0  0  0  0  0  0  0  0  0  0
    7.5041   13.4255   25.3247 N   0  0  0  0  0  0  0  0  0  0  0  0
    8.2605   12.4945   24.6473 C   0  0  0  0  0  0  0  0  0  0  0  0
  1  2  1  0
  2  3  1  0
  3  4  1  0
  3  5  1  0
  5  6  1  0
  6  7  2  0
  6  8  1  0
  8  9  2  0
  9 10  1  0
 10 11  2  0
 11 12  1  0
 11 13  1  0
 13 14  1  0
 14 15  2  0
 15 16  1  0
 16 17  1  0
 17  8  1  0
 17 13  2  0
M  END
>  <alias>  (1604) 
None

>  <rmsd(smina/fragmenstein)>  (1604) 
0.903

>  <smiles>  (1604) 
CCN(C)NC(=O)c1ccc(F)c2cc[nH]c12

>  <gnina_score>  (1604) 
5.248

>  <inspiration_score>  (1604) 
None

>  <energy_score>  (1604) 
-4.339656

>  <distance_score>  (1604) 
1.269215

>  <gnina_score_min>  (1604) 
5.269

>  <inchikey>  (1604) 
BMPVZLVUJLBYGM-UHFFFAOYSA-N

>  <exports>  (1604) 
['/opt/xchem-fragalysis-2/maxwin/BulkDock/OUTPUTS/openbind_a71ev2a_c2_elabs_1LOUU54.sdf', '/opt/xchem-fragalysis-2/maxwin/BulkDock/OUTPUTS/openbind_a71ev2a_c2_elabs_1LSYIDY.sdf']

>  <name>  (1604) 
P584891

>  <ref_pdb>  (1604) 
A0566a

>  <subsites>  (1604) 
None

>  <HIPPO Pose ID>  (1604) 
584891

>  <ref_mols>  (1604) 
A0566a

>  <HIPPO Compound ID>  (1604) 
439160

>  <tags>  (1604) 
openbind_a71ev2a_c2_elabs,syndirella_product,openbind_a71ev2a_c2_elabs_fragonly_scored_top80percent,openbind_a71ev2a_c2_elabs_scored,BulkDock Fragalysis export,openbind_a71ev2a_c2_elabs_scored_top80percent,openbind_a71ev2a_c2_elabs_activefrags_only_scored_5.2plus,syndirella_placed

>  <smina_score_min>  (1604) 
-5.902

$$$$
P584893
     RDKit          3D

 17 19  0  0  0  0  0  0  0  0999 V2000
   10.1307   14.6385   24.4851 O   0  0  0  0  0  0  0  0  0  0  0  0
   10.0278   13.9159   23.5748 C   0  0  0  0  0  0  0  0  0  0  0  0
   10.3737   14.1256   22.0902 N   0  0  0  0  0  0  0  0  0  0  0  0
   10.9746   15.1765   21.4597 N   0  0  0  0  0  0  0  0  0  0  0  0
   10.2205   15.5561   20.2488 C   0  0  0  0  0  0  0  0  0  0  0  0
   11.2810   14.8861   19.3720 C   0  0  0  0  0  0  0  0  0  0  0  0
   12.1083   14.7025   20.6515 C   0  0  0  0  0  0  0  0  0  0  0  0
    9.4097   12.5986   23.7955 C   0  0  0  0  0  0  0  0  0  0  0  0
    9.9130   11.4253   23.2208 C   0  0  0  0  0  0  0  0  0  0  0  0
    9.3639   10.1872   23.5274 C   0  0  0  0  0  0  0  0  0  0  0  0
    8.3073   10.1185   24.4306 C   0  0  0  0  0  0  0  0  0  0  0  0
    7.8126    8.9271   24.7741 F   0  0  0  0  0  0  0  0  0  0  0  0
    7.7499   11.2763   24.9913 C   0  0  0  0  0  0  0  0  0  0  0  0
    6.6863   11.5367   25.8938 C   0  0  0  0  0  0  0  0  0  0  0  0
    6.6183   12.8987   26.0776 C   0  0  0  0  0  0  0  0  0  0  0  0
    7.6052   13.4753   25.3251 N   0  0  0  0  0  0  0  0  0  0  0  0
    8.3137   12.5010   24.6572 C   0  0  0  0  0  0  0  0  0  0  0  0
  1  2  2  0
  2  3  1  0
  3  4  1  0
  4  5  1  0
  5  6  1  0
  6  7  1  0
  2  8  1  0
  8  9  2  0
  9 10  1  0
 10 11  2  0
 11 12  1  0
 11 13  1  0
 13 14  1  0
 14 15  2  0
 15 16  1  0
 16 17  1  0
  7  4  1  0
 17  8  1  0
 17 13  2  0
M  END
>  <alias>  (1605) 
None

>  <rmsd(smina/fragmenstein)>  (1605) 
0.719

>  <smiles>  (1605) 
O=C(NN1CCC1)c1ccc(F)c2cc[nH]c12

>  <gnina_score>  (1605) 
5.269

>  <inspiration_score>  (1605) 
None

>  <energy_score>  (1605) 
-11.809929

>  <distance_score>  (1605) 
1.088246

>  <gnina_score_min>  (1605) 
5.318

>  <inchikey>  (1605) 
VORQOKSCFXJAMI-UHFFFAOYSA-N

>  <exports>  (1605) 
['/opt/xchem-fragalysis-2/maxwin/BulkDock/OUTPUTS/openbind_a71ev2a_c2_elabs_1LOUU54.sdf', '/opt/xchem-fragalysis-2/maxwin/BulkDock/OUTPUTS/openbind_a71ev2a_c2_elabs_1LSYIDY.sdf']

>  <name>  (1605) 
P584893

>  <ref_pdb>  (1605) 
A0566a

>  <subsites>  (1605) 
None

>  <HIPPO Pose ID>  (1605) 
584893

>  <ref_mols>  (1605) 
A0566a

>  <HIPPO Compound ID>  (1605) 
439166

>  <tags>  (1605) 
openbind_a71ev2a_c2_elabs,syndirella_product,openbind_a71ev2a_c2_elabs_fragonly_scored_top80percent,openbind_a71ev2a_c2_elabs_scored,BulkDock Fragalysis export,openbind_a71ev2a_c2_elabs_scored_top80percent,openbind_a71ev2a_c2_elabs_activefrags_only_scored_5.2plus,syndirella_placed

>  <smina_score_min>  (1605) 
-6.696

$$$$
P584894
     RDKit          3D

 17 18  0  0  0  0  0  0  0  0999 V2000
    9.3884   17.1908   20.0355 C   0  0  0  0  0  0  0  0  0  0  0  0
    9.2969   15.7906   20.5937 C   0  0  0  0  0  0  0  0  0  0  0  0
   10.6443   15.1704   20.9853 C   0  0  2  0  0  0  0  0  0  0  0  0
   11.4463   14.7441   19.7625 C   0  0  0  0  0  0  0  0  0  0  0  0
   10.3277   14.0258   21.8058 N   0  0  0  0  0  0  0  0  0  0  0  0
    9.9123   13.9402   23.2810 C   0  0  0  0  0  0  0  0  0  0  0  0
    9.8333   14.7719   24.0931 O   0  0  0  0  0  0  0  0  0  0  0  0
    9.4567   12.5882   23.6649 C   0  0  0  0  0  0  0  0  0  0  0  0
    9.9847   11.4071   23.1407 C   0  0  0  0  0  0  0  0  0  0  0  0
    9.4629   10.1653   23.4870 C   0  0  0  0  0  0  0  0  0  0  0  0
    8.4069   10.0981   24.3906 C   0  0  0  0  0  0  0  0  0  0  0  0
    7.9198    8.9087   24.7508 F   0  0  0  0  0  0  0  0  0  0  0  0
    7.8408   11.2585   24.9329 C   0  0  0  0  0  0  0  0  0  0  0  0
    6.7759   11.5222   25.8340 C   0  0  0  0  0  0  0  0  0  0  0  0
    6.6749   12.8872   25.9723 C   0  0  0  0  0  0  0  0  0  0  0  0
    7.6365   13.4601   25.1860 N   0  0  0  0  0  0  0  0  0  0  0  0
    8.3770   12.4825   24.5552 C   0  0  0  0  0  0  0  0  0  0  0  0
  1  2  1  0
  2  3  1  0
  3  4  1  6
  3  5  1  0
  5  6  1  0
  6  7  2  0
  6  8  1  0
  8  9  2  0
  9 10  1  0
 10 11  2  0
 11 12  1  0
 11 13  1  0
 13 14  1  0
 14 15  2  0
 15 16  1  0
 16 17  1  0
 17  8  1  0
 17 13  2  0
M  END
>  <alias>  (1606) 
None

>  <rmsd(smina/fragmenstein)>  (1606) 
1.02

>  <smiles>  (1606) 
CC[C@H](C)NC(=O)c1ccc(F)c2cc[nH]c12

>  <gnina_score>  (1606) 
5.161

>  <inspiration_score>  (1606) 
None

>  <energy_score>  (1606) 
-16.674182

>  <distance_score>  (1606) 
1.206465

>  <gnina_score_min>  (1606) 
5.219

>  <inchikey>  (1606) 
HHNDHEVAMGQJRA-QMMMGPOBSA-N

>  <exports>  (1606) 
['/opt/xchem-fragalysis-2/maxwin/BulkDock/OUTPUTS/openbind_a71ev2a_c2_elabs_1LOUU54.sdf', '/opt/xchem-fragalysis-2/maxwin/BulkDock/OUTPUTS/openbind_a71ev2a_c2_elabs_1LSYIDY.sdf']

>  <name>  (1606) 
P584894

>  <ref_pdb>  (1606) 
A0566a

>  <subsites>  (1606) 
None

>  <HIPPO Pose ID>  (1606) 
584894

>  <ref_mols>  (1606) 
A0566a

>  <HIPPO Compound ID>  (1606) 
439168

>  <tags>  (1606) 
openbind_a71ev2a_c2_elabs,syndirella_product,openbind_a71ev2a_c2_elabs_fragonly_scored_top80percent,openbind_a71ev2a_c2_elabs_scored,BulkDock Fragalysis export,openbind_a71ev2a_c2_elabs_scored_top80percent,openbind_a71ev2a_c2_elabs_activefrags_only_scored_5.2plus,syndirella_placed

>  <smina_score_min>  (1606) 
-6.831

$$$$
P584895
     RDKit          3D

 17 19  0  0  0  0  0  0  0  0999 V2000
   10.0125   14.6840   24.3921 O   0  0  0  0  0  0  0  0  0  0  0  0
    9.9554   13.9086   23.5258 C   0  0  0  0  0  0  0  0  0  0  0  0
   10.3595   14.0324   22.0539 N   0  0  0  0  0  0  0  0  0  0  0  0
   11.0147   15.1144   21.3438 C   0  0  0  0  0  0  0  0  0  0  0  0
   10.2921   15.5214   20.0376 C   0  0  0  0  0  0  0  0  0  0  0  0
   11.5112   14.6423   19.0334 S   0  0  0  0  0  0  0  0  0  0  0  0
   12.2965   14.6210   20.6554 C   0  0  0  0  0  0  0  0  0  0  0  0
    9.3594   12.5884   23.7938 C   0  0  0  0  0  0  0  0  0  0  0  0
    9.8731   11.4090   23.2368 C   0  0  0  0  0  0  0  0  0  0  0  0
    9.3328   10.1721   23.5582 C   0  0  0  0  0  0  0  0  0  0  0  0
    8.2782   10.1094   24.4631 C   0  0  0  0  0  0  0  0  0  0  0  0
    7.7823    8.9201   24.8106 F   0  0  0  0  0  0  0  0  0  0  0  0
    7.7204   11.2699   25.0184 C   0  0  0  0  0  0  0  0  0  0  0  0
    6.6606   11.5334   25.9243 C   0  0  0  0  0  0  0  0  0  0  0  0
    6.5856   12.8968   26.0947 C   0  0  0  0  0  0  0  0  0  0  0  0
    7.5619   13.4714   25.3274 N   0  0  0  0  0  0  0  0  0  0  0  0
    8.2737   12.4946   24.6674 C   0  0  0  0  0  0  0  0  0  0  0  0
  1  2  2  0
  2  3  1  0
  3  4  1  0
  4  5  1  0
  5  6  1  0
  6  7  1  0
  2  8  1  0
  8  9  2  0
  9 10  1  0
 10 11  2  0
 11 12  1  0
 11 13  1  0
 13 14  1  0
 14 15  2  0
 15 16  1  0
 16 17  1  0
  7  4  1  0
 17  8  1  0
 17 13  2  0
M  END
>  <alias>  (1607) 
None

>  <rmsd(smina/fragmenstein)>  (1607) 
0.694

>  <smiles>  (1607) 
O=C(NC1CSC1)c1ccc(F)c2cc[nH]c12

>  <gnina_score>  (1607) 
5.052

>  <inspiration_score>  (1607) 
None

>  <energy_score>  (1607) 
-8.277524

>  <distance_score>  (1607) 
1.145062

>  <gnina_score_min>  (1607) 
5.233

>  <inchikey>  (1607) 
OTFGOGQBFXACCY-UHFFFAOYSA-N

>  <exports>  (1607) 
['/opt/xchem-fragalysis-2/maxwin/BulkDock/OUTPUTS/openbind_a71ev2a_c2_elabs_1LOUU54.sdf', '/opt/xchem-fragalysis-2/maxwin/BulkDock/OUTPUTS/openbind_a71ev2a_c2_elabs_1LSYIDY.sdf']

>  <name>  (1607) 
P584895

>  <ref_pdb>  (1607) 
A0566a

>  <subsites>  (1607) 
None

>  <HIPPO Pose ID>  (1607) 
584895

>  <ref_mols>  (1607) 
A0566a

>  <HIPPO Compound ID>  (1607) 
439170

>  <tags>  (1607) 
openbind_a71ev2a_c2_elabs,syndirella_product,openbind_a71ev2a_c2_elabs_fragonly_scored_top80percent,openbind_a71ev2a_c2_elabs_scored,BulkDock Fragalysis export,openbind_a71ev2a_c2_elabs_scored_top80percent,openbind_a71ev2a_c2_elabs_activefrags_only_scored_5.2plus,syndirella_placed

>  <smina_score_min>  (1607) 
-6.114

$$$$
P584896
     RDKit          3D

 17 18  0  0  0  0  0  0  0  0999 V2000
   10.4504   14.6047   24.2312 O   0  0  0  0  0  0  0  0  0  0  0  0
   10.3302   13.8452   23.3555 C   0  0  0  0  0  0  0  0  0  0  0  0
   10.7827   13.9343   21.8920 N   0  0  0  0  0  0  0  0  0  0  0  0
   11.5568   14.9265   21.2194 C   0  0  0  0  0  0  0  0  0  0  0  0
   11.0378   15.0368   19.8277 C   0  0  0  0  0  0  0  0  0  0  0  0
   10.1135   15.8943   19.3835 C   0  0  0  0  0  0  0  0  0  0  0  0
    9.2712   17.0186   20.3540 Cl  0  0  0  0  0  0  0  0  0  0  0  0
    9.5789   12.5979   23.6383 C   0  0  0  0  0  0  0  0  0  0  0  0
    9.9706   11.3545   23.1322 C   0  0  0  0  0  0  0  0  0  0  0  0
    9.3447   10.1744   23.5151 C   0  0  0  0  0  0  0  0  0  0  0  0
    8.2992   10.2263   24.4282 C   0  0  0  0  0  0  0  0  0  0  0  0
    7.7300    9.0897   24.8437 F   0  0  0  0  0  0  0  0  0  0  0  0
    7.8325   11.4553   24.9167 C   0  0  0  0  0  0  0  0  0  0  0  0
    6.7906   11.8399   25.8006 C   0  0  0  0  0  0  0  0  0  0  0  0
    6.8202   13.2109   25.9083 C   0  0  0  0  0  0  0  0  0  0  0  0
    7.8462   13.6732   25.1289 N   0  0  0  0  0  0  0  0  0  0  0  0
    8.4836   12.6190   24.5122 C   0  0  0  0  0  0  0  0  0  0  0  0
  1  2  2  0
  2  3  1  0
  3  4  1  0
  4  5  1  0
  5  6  2  0
  6  7  1  0
  2  8  1  0
  8  9  2  0
  9 10  1  0
 10 11  2  0
 11 12  1  0
 11 13  1  0
 13 14  1  0
 14 15  2  0
 15 16  1  0
 16 17  1  0
 17  8  1  0
 17 13  2  0
M  END
>  <alias>  (1608) 
None

>  <rmsd(smina/fragmenstein)>  (1608) 
0.637

>  <smiles>  (1608) 
O=C(NC/C=C\Cl)c1ccc(F)c2cc[nH]c12

>  <gnina_score>  (1608) 
5.348

>  <inspiration_score>  (1608) 
None

>  <energy_score>  (1608) 
-5.236534

>  <distance_score>  (1608) 
0.945267

>  <gnina_score_min>  (1608) 
5.258

>  <inchikey>  (1608) 
KUTBRILVZAOQRJ-KTAJNNJTSA-N

>  <exports>  (1608) 
['/opt/xchem-fragalysis-2/maxwin/BulkDock/OUTPUTS/openbind_a71ev2a_c2_elabs_1LOUU54.sdf', '/opt/xchem-fragalysis-2/maxwin/BulkDock/OUTPUTS/openbind_a71ev2a_c2_elabs_1LSYIDY.sdf']

>  <name>  (1608) 
P584896

>  <ref_pdb>  (1608) 
A0566a

>  <subsites>  (1608) 
None

>  <HIPPO Pose ID>  (1608) 
584896

>  <ref_mols>  (1608) 
A0566a

>  <HIPPO Compound ID>  (1608) 
439172

>  <tags>  (1608) 
openbind_a71ev2a_c2_elabs,syndirella_product,openbind_a71ev2a_c2_elabs_fragonly_scored_top80percent,openbind_a71ev2a_c2_elabs_scored,BulkDock Fragalysis export,openbind_a71ev2a_c2_elabs_scored_top80percent,openbind_a71ev2a_c2_elabs_activefrags_only_scored_5.2plus,syndirella_placed

>  <smina_score_min>  (1608) 
-6.885

$$$$
P584903
     RDKit          3D

 17 18  0  0  0  0  0  0  0  0999 V2000
    9.6517   15.9033   20.3635 C   0  0  0  0  0  0  0  0  0  0  0  0
   10.8349   15.3186   20.1340 C   0  0  0  0  0  0  0  0  0  0  0  0
   11.6616   14.5216   21.0954 C   0  0  1  0  0  0  0  0  0  0  0  0
   12.5820   15.3102   21.9954 C   0  0  0  0  0  0  0  0  0  0  0  0
   10.7931   13.6468   21.8217 N   0  0  0  0  0  0  0  0  0  0  0  0
   10.2576   13.7382   23.2574 C   0  0  0  0  0  0  0  0  0  0  0  0
   10.3747   14.5796   24.0559 O   0  0  0  0  0  0  0  0  0  0  0  0
    9.4856   12.5249   23.6347 C   0  0  0  0  0  0  0  0  0  0  0  0
    9.8307   11.2412   23.2005 C   0  0  0  0  0  0  0  0  0  0  0  0
    9.1694   10.1123   23.6606 C   0  0  0  0  0  0  0  0  0  0  0  0
    8.1451   10.2368   24.5990 C   0  0  0  0  0  0  0  0  0  0  0  0
    7.7492   11.5136   25.0403 C   0  0  0  0  0  0  0  0  0  0  0  0
    6.8010   12.0112   25.9668 C   0  0  0  0  0  0  0  0  0  0  0  0
    5.6946   10.9661   27.0615 Br  0  0  0  0  0  0  0  0  0  0  0  0
    6.8605   13.3805   25.9772 C   0  0  0  0  0  0  0  0  0  0  0  0
    7.8427   13.7477   25.1001 N   0  0  0  0  0  0  0  0  0  0  0  0
    8.4200   12.6287   24.5363 C   0  0  0  0  0  0  0  0  0  0  0  0
  1  2  2  0
  2  3  1  0
  3  4  1  1
  3  5  1  0
  5  6  1  0
  6  7  2  0
  6  8  1  0
  8  9  2  0
  9 10  1  0
 10 11  2  0
 11 12  1  0
 12 13  1  0
 13 14  1  0
 13 15  2  0
 15 16  1  0
 16 17  1  0
 17  8  1  0
 17 12  2  0
M  END
>  <alias>  (1609) 
None

>  <rmsd(smina/fragmenstein)>  (1609) 
0.516

>  <smiles>  (1609) 
C=C[C@@H](C)NC(=O)c1cccc2c(Br)c[nH]c12

>  <gnina_score>  (1609) 
5.43

>  <inspiration_score>  (1609) 
None

>  <energy_score>  (1609) 
-0.333716

>  <distance_score>  (1609) 
1.086508

>  <gnina_score_min>  (1609) 
5.381

>  <inchikey>  (1609) 
FROYZJQVZUZMJL-MRVPVSSYSA-N

>  <exports>  (1609) 
['/opt/xchem-fragalysis-2/maxwin/BulkDock/OUTPUTS/openbind_a71ev2a_c2_elabs_1LOUU54.sdf', '/opt/xchem-fragalysis-2/maxwin/BulkDock/OUTPUTS/openbind_a71ev2a_c2_elabs_1LSYIDY.sdf']

>  <name>  (1609) 
P584903

>  <ref_pdb>  (1609) 
A0566a

>  <subsites>  (1609) 
None

>  <HIPPO Pose ID>  (1609) 
584903

>  <ref_mols>  (1609) 
A0566a

>  <HIPPO Compound ID>  (1609) 
439191

>  <tags>  (1609) 
openbind_a71ev2a_c2_elabs,syndirella_product,openbind_a71ev2a_c2_elabs_fragonly_scored_top80percent,openbind_a71ev2a_c2_elabs_scored,BulkDock Fragalysis export,openbind_a71ev2a_c2_elabs_scored_top80percent,openbind_a71ev2a_c2_elabs_activefrags_only_scored_5.2plus,syndirella_placed

>  <smina_score_min>  (1609) 
-6.583

$$$$
P584904
     RDKit          3D

 17 18  0  0  0  0  0  0  0  0999 V2000
   10.6375   15.5469   18.8273 C   0  0  0  0  0  0  0  0  0  0  0  0
   11.0770   15.1029   20.0045 C   0  0  0  0  0  0  0  0  0  0  0  0
   12.5184   14.1827   20.0725 Cl  0  0  0  0  0  0  0  0  0  0  0  0
   10.4924   15.4578   21.3160 C   0  0  0  0  0  0  0  0  0  0  0  0
   10.0225   14.2884   21.9932 N   0  0  0  0  0  0  0  0  0  0  0  0
    9.7551   14.0402   23.4753 C   0  0  0  0  0  0  0  0  0  0  0  0
    9.7990   14.7673   24.3818 O   0  0  0  0  0  0  0  0  0  0  0  0
    9.2752   12.6752   23.7479 C   0  0  0  0  0  0  0  0  0  0  0  0
    9.8295   11.5190   23.2035 C   0  0  0  0  0  0  0  0  0  0  0  0
    9.3269   10.2691   23.5541 C   0  0  0  0  0  0  0  0  0  0  0  0
    8.2839   10.1592   24.4876 C   0  0  0  0  0  0  0  0  0  0  0  0
    7.7096   11.3149   25.0536 C   0  0  0  0  0  0  0  0  0  0  0  0
    6.7092   11.6091   26.0159 C   0  0  0  0  0  0  0  0  0  0  0  0
    5.7386   10.3736   27.0342 Br  0  0  0  0  0  0  0  0  0  0  0  0
    6.5886   12.9685   26.1457 C   0  0  0  0  0  0  0  0  0  0  0  0
    7.5024   13.5311   25.3056 N   0  0  0  0  0  0  0  0  0  0  0  0
    8.2144   12.5456   24.6514 C   0  0  0  0  0  0  0  0  0  0  0  0
  1  2  2  0
  2  3  1  0
  2  4  1  0
  4  5  1  0
  5  6  1  0
  6  7  2  0
  6  8  1  0
  8  9  2  0
  9 10  1  0
 10 11  2  0
 11 12  1  0
 12 13  1  0
 13 14  1  0
 13 15  2  0
 15 16  1  0
 16 17  1  0
 17  8  1  0
 17 12  2  0
M  END
>  <alias>  (1610) 
None

>  <rmsd(smina/fragmenstein)>  (1610) 
1.302

>  <smiles>  (1610) 
C=C(Cl)CNC(=O)c1cccc2c(Br)c[nH]c12

>  <gnina_score>  (1610) 
5.118

>  <inspiration_score>  (1610) 
None

>  <energy_score>  (1610) 
-1.214938

>  <distance_score>  (1610) 
1.281496

>  <gnina_score_min>  (1610) 
5.337

>  <inchikey>  (1610) 
XOKWCUZDALCUEA-UHFFFAOYSA-N

>  <exports>  (1610) 
['/opt/xchem-fragalysis-2/maxwin/BulkDock/OUTPUTS/openbind_a71ev2a_c2_elabs_1LOUU54.sdf', '/opt/xchem-fragalysis-2/maxwin/BulkDock/OUTPUTS/openbind_a71ev2a_c2_elabs_1LSYIDY.sdf']

>  <name>  (1610) 
P584904

>  <ref_pdb>  (1610) 
A0566a

>  <subsites>  (1610) 
None

>  <HIPPO Pose ID>  (1610) 
584904

>  <ref_mols>  (1610) 
A0566a

>  <HIPPO Compound ID>  (1610) 
439192

>  <tags>  (1610) 
openbind_a71ev2a_c2_elabs,syndirella_product,openbind_a71ev2a_c2_elabs_fragonly_scored_top80percent,openbind_a71ev2a_c2_elabs_scored,BulkDock Fragalysis export,openbind_a71ev2a_c2_elabs_scored_top80percent,openbind_a71ev2a_c2_elabs_activefrags_only_scored_5.2plus,syndirella_placed

>  <smina_score_min>  (1610) 
-6.444

$$$$
P584906
     RDKit          3D

 17 18  0  0  0  0  0  0  0  0999 V2000
   12.5627   14.8532   21.5521 C   0  0  0  0  0  0  0  0  0  0  0  0
   11.0747   15.1149   21.4368 C   0  0  1  0  0  0  0  0  0  0  0  0
   10.4761   15.3817   20.0577 C   0  0  0  0  0  0  0  0  0  0  0  0
   11.3945   14.6439   18.7427 Cl  0  0  0  0  0  0  0  0  0  0  0  0
   10.3931   14.0365   22.0960 N   0  0  0  0  0  0  0  0  0  0  0  0
    9.9549   13.8807   23.5516 C   0  0  0  0  0  0  0  0  0  0  0  0
   10.0049   14.6313   24.4393 O   0  0  0  0  0  0  0  0  0  0  0  0
    9.3197   12.5717   23.7998 C   0  0  0  0  0  0  0  0  0  0  0  0
    9.7930   11.3724   23.2628 C   0  0  0  0  0  0  0  0  0  0  0  0
    9.2215   10.1599   23.6259 C   0  0  0  0  0  0  0  0  0  0  0  0
    8.1815   10.1256   24.5629 C   0  0  0  0  0  0  0  0  0  0  0  0
    7.6694   11.3214   25.1031 C   0  0  0  0  0  0  0  0  0  0  0  0
    6.6884   11.6744   26.0634 C   0  0  0  0  0  0  0  0  0  0  0  0
    5.6836   10.4860   27.1067 Br  0  0  0  0  0  0  0  0  0  0  0  0
    6.6308   13.0398   26.1697 C   0  0  0  0  0  0  0  0  0  0  0  0
    7.5732   13.5468   25.3234 N   0  0  0  0  0  0  0  0  0  0  0  0
    8.2407   12.5200   24.6874 C   0  0  0  0  0  0  0  0  0  0  0  0
  2  1  1  6
  2  3  1  0
  3  4  1  0
  2  5  1  0
  5  6  1  0
  6  7  2  0
  6  8  1  0
  8  9  2  0
  9 10  1  0
 10 11  2  0
 11 12  1  0
 12 13  1  0
 13 14  1  0
 13 15  2  0
 15 16  1  0
 16 17  1  0
 17  8  1  0
 17 12  2  0
M  END
>  <alias>  (1611) 
None

>  <rmsd(smina/fragmenstein)>  (1611) 
0.289

>  <smiles>  (1611) 
C[C@@H](CCl)NC(=O)c1cccc2c(Br)c[nH]c12

>  <gnina_score>  (1611) 
5.332

>  <inspiration_score>  (1611) 
None

>  <energy_score>  (1611) 
-1.128895

>  <distance_score>  (1611) 
1.163065

>  <gnina_score_min>  (1611) 
5.342

>  <inchikey>  (1611) 
ORJBJPGRRKVERA-ZETCQYMHSA-N

>  <exports>  (1611) 
['/opt/xchem-fragalysis-2/maxwin/BulkDock/OUTPUTS/openbind_a71ev2a_c2_elabs_1LOUU54.sdf', '/opt/xchem-fragalysis-2/maxwin/BulkDock/OUTPUTS/openbind_a71ev2a_c2_elabs_1LSYIDY.sdf']

>  <name>  (1611) 
P584906

>  <ref_pdb>  (1611) 
A0566a

>  <subsites>  (1611) 
None

>  <HIPPO Pose ID>  (1611) 
584906

>  <ref_mols>  (1611) 
A0566a

>  <HIPPO Compound ID>  (1611) 
439194

>  <tags>  (1611) 
openbind_a71ev2a_c2_elabs,syndirella_product,openbind_a71ev2a_c2_elabs_fragonly_scored_top80percent,openbind_a71ev2a_c2_elabs_scored,BulkDock Fragalysis export,openbind_a71ev2a_c2_elabs_scored_top80percent,openbind_a71ev2a_c2_elabs_activefrags_only_scored_5.2plus,syndirella_placed

>  <smina_score_min>  (1611) 
-6.505

$$$$
P584907
     RDKit          3D

 17 18  0  0  0  0  0  0  0  0999 V2000
   10.7698   14.5323   23.5127 O   0  0  0  0  0  0  0  0  0  0  0  0
    9.8432   13.9412   23.1392 C   0  0  0  0  0  0  0  0  0  0  0  0
    8.9162   14.1976   21.9511 N   0  0  0  0  0  0  0  0  0  0  0  0
    8.8724   15.2847   21.0252 C   0  0  0  0  0  0  0  0  0  0  0  0
   10.1924   15.5439   20.3275 C   0  0  0  0  0  0  0  0  0  0  0  0
    9.9914   16.2188   18.9730 C   0  0  0  0  0  0  0  0  0  0  0  0
    9.1857   17.7990   19.0952 Cl  0  0  0  0  0  0  0  0  0  0  0  0
    9.3990   12.6816   23.7456 C   0  0  0  0  0  0  0  0  0  0  0  0
    9.8778   11.4749   23.2375 C   0  0  0  0  0  0  0  0  0  0  0  0
    9.3152   10.2704   23.6362 C   0  0  0  0  0  0  0  0  0  0  0  0
    8.2721   10.2625   24.5709 C   0  0  0  0  0  0  0  0  0  0  0  0
    7.7644   11.4755   25.0843 C   0  0  0  0  0  0  0  0  0  0  0  0
    6.7630   11.8486   26.0133 C   0  0  0  0  0  0  0  0  0  0  0  0
    5.7340   10.6745   27.0496 Br  0  0  0  0  0  0  0  0  0  0  0  0
    6.6855   13.2166   26.0649 C   0  0  0  0  0  0  0  0  0  0  0  0
    7.6248   13.7103   25.2028 N   0  0  0  0  0  0  0  0  0  0  0  0
    8.3301   12.6708   24.6384 C   0  0  0  0  0  0  0  0  0  0  0  0
  1  2  2  0
  2  3  1  0
  3  4  1  0
  4  5  1  0
  5  6  1  0
  6  7  1  0
  2  8  1  0
  8  9  2  0
  9 10  1  0
 10 11  2  0
 11 12  1  0
 12 13  1  0
 13 14  1  0
 13 15  2  0
 15 16  1  0
 16 17  1  0
 17  8  1  0
 17 12  2  0
M  END
>  <alias>  (1612) 
None

>  <rmsd(smina/fragmenstein)>  (1612) 
0.251

>  <smiles>  (1612) 
O=C(NCCCCl)c1cccc2c(Br)c[nH]c12

>  <gnina_score>  (1612) 
5.157

>  <inspiration_score>  (1612) 
None

>  <energy_score>  (1612) 
-0.320147

>  <distance_score>  (1612) 
1.528448

>  <gnina_score_min>  (1612) 
5.202

>  <inchikey>  (1612) 
MZRPZOPTTPCNQV-UHFFFAOYSA-N

>  <exports>  (1612) 
['/opt/xchem-fragalysis-2/maxwin/BulkDock/OUTPUTS/openbind_a71ev2a_c2_elabs_1LOUU54.sdf', '/opt/xchem-fragalysis-2/maxwin/BulkDock/OUTPUTS/openbind_a71ev2a_c2_elabs_1LSYIDY.sdf']

>  <name>  (1612) 
P584907

>  <ref_pdb>  (1612) 
A0566a

>  <subsites>  (1612) 
None

>  <HIPPO Pose ID>  (1612) 
584907

>  <ref_mols>  (1612) 
A0566a

>  <HIPPO Compound ID>  (1612) 
439195

>  <tags>  (1612) 
openbind_a71ev2a_c2_elabs,syndirella_product,openbind_a71ev2a_c2_elabs_fragonly_scored_top80percent,openbind_a71ev2a_c2_elabs_scored,BulkDock Fragalysis export,openbind_a71ev2a_c2_elabs_scored_top80percent,openbind_a71ev2a_c2_elabs_activefrags_only_scored_5.2plus,syndirella_placed

>  <smina_score_min>  (1612) 
-5.861

$$$$
P584908
     RDKit          3D

 17 18  0  0  0  0  0  0  0  0999 V2000
   10.0492   15.8564   19.1735 C   0  0  0  0  0  0  0  0  0  0  0  0
   10.5270   15.4787   20.2070 C   0  0  0  0  0  0  0  0  0  0  0  0
   11.1627   15.1157   21.4669 C   0  0  2  0  0  0  0  0  0  0  0  0
   12.5917   14.6642   21.3068 C   0  0  0  0  0  0  0  0  0  0  0  0
   10.4284   14.0777   22.1074 N   0  0  0  0  0  0  0  0  0  0  0  0
   10.0317   13.9003   23.5698 C   0  0  0  0  0  0  0  0  0  0  0  0
   10.1719   14.6095   24.4810 O   0  0  0  0  0  0  0  0  0  0  0  0
    9.3472   12.6140   23.7929 C   0  0  0  0  0  0  0  0  0  0  0  0
    9.8097   11.4154   23.2445 C   0  0  0  0  0  0  0  0  0  0  0  0
    9.2325   10.2040   23.6021 C   0  0  0  0  0  0  0  0  0  0  0  0
    8.1954   10.1722   24.5426 C   0  0  0  0  0  0  0  0  0  0  0  0
    7.6894   11.3703   25.0860 C   0  0  0  0  0  0  0  0  0  0  0  0
    6.7102   11.7247   26.0472 C   0  0  0  0  0  0  0  0  0  0  0  0
    5.6979   10.5349   27.0817 Br  0  0  0  0  0  0  0  0  0  0  0  0
    6.6602   13.0902   26.1588 C   0  0  0  0  0  0  0  0  0  0  0  0
    7.6068   13.5969   25.3155 N   0  0  0  0  0  0  0  0  0  0  0  0
    8.2681   12.5688   24.6772 C   0  0  0  0  0  0  0  0  0  0  0  0
  1  2  3  0
  2  3  1  0
  3  4  1  6
  3  5  1  0
  5  6  1  0
  6  7  2  0
  6  8  1  0
  8  9  2  0
  9 10  1  0
 10 11  2  0
 11 12  1  0
 12 13  1  0
 13 14  1  0
 13 15  2  0
 15 16  1  0
 16 17  1  0
 17  8  1  0
 17 12  2  0
M  END
>  <alias>  (1613) 
None

>  <rmsd(smina/fragmenstein)>  (1613) 
0.277

>  <smiles>  (1613) 
C#C[C@H](C)NC(=O)c1cccc2c(Br)c[nH]c12

>  <gnina_score>  (1613) 
5.311

>  <inspiration_score>  (1613) 
None

>  <energy_score>  (1613) 
-0.846277

>  <distance_score>  (1613) 
1.106647

>  <gnina_score_min>  (1613) 
5.307

>  <inchikey>  (1613) 
GRGKQMZSTJRSSB-QMMMGPOBSA-N

>  <exports>  (1613) 
['/opt/xchem-fragalysis-2/maxwin/BulkDock/OUTPUTS/openbind_a71ev2a_c2_elabs_1LOUU54.sdf', '/opt/xchem-fragalysis-2/maxwin/BulkDock/OUTPUTS/openbind_a71ev2a_c2_elabs_1LSYIDY.sdf']

>  <name>  (1613) 
P584908

>  <ref_pdb>  (1613) 
A0566a

>  <subsites>  (1613) 
None

>  <HIPPO Pose ID>  (1613) 
584908

>  <ref_mols>  (1613) 
A0566a

>  <HIPPO Compound ID>  (1613) 
439196

>  <tags>  (1613) 
openbind_a71ev2a_c2_elabs,syndirella_product,openbind_a71ev2a_c2_elabs_fragonly_scored_top80percent,openbind_a71ev2a_c2_elabs_scored,BulkDock Fragalysis export,openbind_a71ev2a_c2_elabs_scored_top80percent,openbind_a71ev2a_c2_elabs_activefrags_only_scored_5.2plus,syndirella_placed

>  <smina_score_min>  (1613) 
-6.421

$$$$
P584910
     RDKit          3D

 17 18  0  0  0  0  0  0  0  0999 V2000
   11.3693   14.5244   18.8382 N   0  0  0  0  0  0  0  0  0  0  0  0
   10.8862   15.1030   19.7188 C   0  0  0  0  0  0  0  0  0  0  0  0
   10.2535   15.9199   20.7553 C   0  0  0  0  0  0  0  0  0  0  0  0
    8.8863   15.3966   21.1318 C   0  0  0  0  0  0  0  0  0  0  0  0
    8.8768   14.2753   22.0209 N   0  0  0  0  0  0  0  0  0  0  0  0
    9.7967   13.9282   23.1940 C   0  0  0  0  0  0  0  0  0  0  0  0
   10.6631   14.5328   23.6764 O   0  0  0  0  0  0  0  0  0  0  0  0
    9.3493   12.6442   23.7351 C   0  0  0  0  0  0  0  0  0  0  0  0
    9.8484   11.4523   23.2185 C   0  0  0  0  0  0  0  0  0  0  0  0
    9.3053   10.2390   23.6172 C   0  0  0  0  0  0  0  0  0  0  0  0
    8.2665   10.2104   24.5584 C   0  0  0  0  0  0  0  0  0  0  0  0
    7.7437   11.4114   25.0840 C   0  0  0  0  0  0  0  0  0  0  0  0
    6.7458   11.7682   26.0237 C   0  0  0  0  0  0  0  0  0  0  0  0
    5.7320   10.5816   27.0603 Br  0  0  0  0  0  0  0  0  0  0  0  0
    6.6590   13.1350   26.0910 C   0  0  0  0  0  0  0  0  0  0  0  0
    7.5892   13.6434   25.2290 N   0  0  0  0  0  0  0  0  0  0  0  0
    8.2907   12.6145   24.6404 C   0  0  0  0  0  0  0  0  0  0  0  0
  1  2  3  0
  2  3  1  0
  3  4  1  0
  4  5  1  0
  5  6  1  0
  6  7  2  0
  6  8  1  0
  8  9  2  0
  9 10  1  0
 10 11  2  0
 11 12  1  0
 12 13  1  0
 13 14  1  0
 13 15  2  0
 15 16  1  0
 16 17  1  0
 17  8  1  0
 17 12  2  0
M  END
>  <alias>  (1614) 
None

>  <rmsd(smina/fragmenstein)>  (1614) 
0.192

>  <smiles>  (1614) 
N#CCCNC(=O)c1cccc2c(Br)c[nH]c12

>  <gnina_score>  (1614) 
5.545

>  <inspiration_score>  (1614) 
None

>  <energy_score>  (1614) 
-8.234627

>  <distance_score>  (1614) 
1.525848

>  <gnina_score_min>  (1614) 
5.501

>  <inchikey>  (1614) 
NETYCMIAHYYIRK-UHFFFAOYSA-N

>  <exports>  (1614) 
['/opt/xchem-fragalysis-2/maxwin/BulkDock/OUTPUTS/openbind_a71ev2a_c2_elabs_1LOUU54.sdf', '/opt/xchem-fragalysis-2/maxwin/BulkDock/OUTPUTS/openbind_a71ev2a_c2_elabs_1LSYIDY.sdf']

>  <name>  (1614) 
P584910

>  <ref_pdb>  (1614) 
A0566a

>  <subsites>  (1614) 
None

>  <HIPPO Pose ID>  (1614) 
584910

>  <ref_mols>  (1614) 
A0566a

>  <HIPPO Compound ID>  (1614) 
439200

>  <tags>  (1614) 
openbind_a71ev2a_c2_elabs,syndirella_product,openbind_a71ev2a_c2_elabs_fragonly_scored_top80percent,BulkDock Fragalysis export,openbind_a71ev2a_c2_elabs_scored,openbind_a71ev2a_c2_elabs_scored_top80percent,openbind_a71ev2a_c2_elabs_activefrags_only_scored_5.2plus,openbind_a71ev2a_c2_elabs_activefrags_only_scored_5.5plus,syndirella_placed

>  <smina_score_min>  (1614) 
-5.782

$$$$
P584911
     RDKit          3D

 17 19  0  0  0  0  0  0  0  0999 V2000
    9.9540   15.8584   20.6345 C   0  0  0  0  0  0  0  0  0  0  0  0
   10.9093   14.8614   21.2435 C   0  0  0  0  0  0  0  0  0  0  0  0
   10.2954   13.8390   21.9726 N   0  0  0  0  0  0  0  0  0  0  0  0
    9.8392   13.7938   23.4371 C   0  0  0  0  0  0  0  0  0  0  0  0
    9.8310   14.6270   24.2524 O   0  0  0  0  0  0  0  0  0  0  0  0
    9.2524   12.4858   23.7826 C   0  0  0  0  0  0  0  0  0  0  0  0
    9.7327   11.2687   23.2935 C   0  0  0  0  0  0  0  0  0  0  0  0
    9.1647   10.0709   23.6994 C   0  0  0  0  0  0  0  0  0  0  0  0
    8.1244   10.0680   24.6362 C   0  0  0  0  0  0  0  0  0  0  0  0
    7.6204   11.2793   25.1469 C   0  0  0  0  0  0  0  0  0  0  0  0
    6.6461   11.6622   26.1021 C   0  0  0  0  0  0  0  0  0  0  0  0
    5.6458   10.5030   27.1830 Br  0  0  0  0  0  0  0  0  0  0  0  0
    6.5899   13.0303   26.1660 C   0  0  0  0  0  0  0  0  0  0  0  0
    7.5214   13.5101   25.2918 N   0  0  0  0  0  0  0  0  0  0  0  0
    8.1869   12.4628   24.6874 C   0  0  0  0  0  0  0  0  0  0  0  0
   12.1548   14.5570   20.4583 C   0  0  0  0  0  0  0  0  0  0  0  0
   12.2611   15.2990   21.7524 C   0  0  0  0  0  0  0  0  0  0  0  0
  1  2  1  0
  2  3  1  0
  3  4  1  0
  4  5  2  0
  4  6  1  0
  6  7  2  0
  7  8  1  0
  8  9  2  0
  9 10  1  0
 10 11  1  0
 11 12  1  0
 11 13  2  0
 13 14  1  0
 14 15  1  0
  2 16  1  0
 16 17  1  0
 17  2  1  0
 15  6  1  0
 15 10  2  0
M  END
>  <alias>  (1615) 
None

>  <rmsd(smina/fragmenstein)>  (1615) 
0.193

>  <smiles>  (1615) 
CC1(NC(=O)c2cccc3c(Br)c[nH]c23)CC1

>  <gnina_score>  (1615) 
5.321

>  <inspiration_score>  (1615) 
None

>  <energy_score>  (1615) 
-7.02684

>  <distance_score>  (1615) 
1.281587

>  <gnina_score_min>  (1615) 
5.331

>  <inchikey>  (1615) 
PSJBAHHXIRSJDB-UHFFFAOYSA-N

>  <exports>  (1615) 
['/opt/xchem-fragalysis-2/maxwin/BulkDock/OUTPUTS/openbind_a71ev2a_c2_elabs_1LOUU54.sdf', '/opt/xchem-fragalysis-2/maxwin/BulkDock/OUTPUTS/openbind_a71ev2a_c2_elabs_1LSYIDY.sdf']

>  <name>  (1615) 
P584911

>  <ref_pdb>  (1615) 
A0566a

>  <subsites>  (1615) 
None

>  <HIPPO Pose ID>  (1615) 
584911

>  <ref_mols>  (1615) 
A0566a

>  <HIPPO Compound ID>  (1615) 
439215

>  <tags>  (1615) 
openbind_a71ev2a_c2_elabs,syndirella_product,openbind_a71ev2a_c2_elabs_fragonly_scored_top80percent,openbind_a71ev2a_c2_elabs_scored,BulkDock Fragalysis export,openbind_a71ev2a_c2_elabs_scored_top80percent,openbind_a71ev2a_c2_elabs_activefrags_only_scored_5.2plus,syndirella_placed

>  <smina_score_min>  (1615) 
-6.581

$$$$
P584913
     RDKit          3D

 17 18  0  0  0  0  0  0  0  0999 V2000
    6.3436   14.7677   27.8697 C   0  0  0  0  0  0  0  0  0  0  0  0
    5.7534   14.3284   26.5390 C   0  0  0  0  0  0  0  0  0  0  0  0
    6.6892   13.4339   25.7955 C   0  0  0  0  0  0  0  0  0  0  0  0
    6.7599   12.0581   25.7363 C   0  0  0  0  0  0  0  0  0  0  0  0
    7.8210   11.7154   24.8626 C   0  0  0  0  0  0  0  0  0  0  0  0
    8.3534   10.4962   24.4145 C   0  0  0  0  0  0  0  0  0  0  0  0
    9.4329   10.5120   23.5333 C   0  0  0  0  0  0  0  0  0  0  0  0
   10.0908    9.0359   22.9994 Cl  0  0  0  0  0  0  0  0  0  0  0  0
   10.0019   11.7016   23.1140 C   0  0  0  0  0  0  0  0  0  0  0  0
    9.4728   12.9138   23.5340 C   0  0  0  0  0  0  0  0  0  0  0  0
   10.0791   14.1500   23.0359 C   0  0  0  0  0  0  0  0  0  0  0  0
   10.9310   14.6775   23.6355 O   0  0  0  0  0  0  0  0  0  0  0  0
    9.3782   14.5595   21.7082 N   0  0  0  0  0  0  0  0  0  0  0  0
    9.6270   15.5548   20.8824 C   0  0  0  0  0  0  0  0  0  0  0  0
    9.7607   16.4011   20.1074 N   0  0  0  0  0  0  0  0  0  0  0  0
    8.3851   12.9090   24.4093 C   0  0  0  0  0  0  0  0  0  0  0  0
    7.6706   13.9372   24.9773 N   0  0  0  0  0  0  0  0  0  0  0  0
  1  2  1  0
  2  3  1  0
  3  4  2  0
  4  5  1  0
  5  6  2  0
  6  7  1  0
  7  8  1  0
  7  9  2  0
  9 10  1  0
 10 11  1  0
 11 12  2  0
 11 13  1  0
 13 14  1  0
 14 15  3  0
 10 16  2  0
 16 17  1  0
 17  3  1  0
 16  5  1  0
M  END
>  <alias>  (1616) 
None

>  <rmsd(smina/fragmenstein)>  (1616) 
0.19

>  <smiles>  (1616) 
CCc1cc2cc(Cl)cc(C(=O)NC#N)c2[nH]1

>  <gnina_score>  (1616) 
5.228

>  <inspiration_score>  (1616) 
None

>  <energy_score>  (1616) 
-4.527139

>  <distance_score>  (1616) 
1.330171

>  <gnina_score_min>  (1616) 
5.249

>  <inchikey>  (1616) 
WMUSRBZNQSJPGX-UHFFFAOYSA-N

>  <exports>  (1616) 
['/opt/xchem-fragalysis-2/maxwin/BulkDock/OUTPUTS/openbind_a71ev2a_c2_elabs_1LOUU54.sdf', '/opt/xchem-fragalysis-2/maxwin/BulkDock/OUTPUTS/openbind_a71ev2a_c2_elabs_1LSYIDY.sdf']

>  <name>  (1616) 
P584913

>  <ref_pdb>  (1616) 
A0566a

>  <subsites>  (1616) 
None

>  <HIPPO Pose ID>  (1616) 
584913

>  <ref_mols>  (1616) 
A0566a

>  <HIPPO Compound ID>  (1616) 
439220

>  <tags>  (1616) 
openbind_a71ev2a_c2_elabs,syndirella_product,openbind_a71ev2a_c2_elabs_fragonly_scored_top80percent,openbind_a71ev2a_c2_elabs_scored,BulkDock Fragalysis export,openbind_a71ev2a_c2_elabs_scored_top80percent,openbind_a71ev2a_c2_elabs_activefrags_only_scored_5.2plus,syndirella_placed

>  <smina_score_min>  (1616) 
-5.165

$$$$
P584916
     RDKit          3D

 17 19  0  0  0  0  0  0  0  0999 V2000
    9.9816   15.6964   20.5499 C   0  0  0  0  0  0  0  0  0  0  0  0
   11.4004   15.2374   20.5358 C   0  0  1  0  0  0  0  0  0  0  0  0
   12.3006   15.5217   21.7219 C   0  0  0  0  0  0  0  0  0  0  0  0
   11.9080   14.1365   21.4111 C   0  0  1  0  0  0  0  0  0  0  0  0
   10.9736   13.3736   22.0998 N   0  0  0  0  0  0  0  0  0  0  0  0
   10.3867   13.5461   23.5087 C   0  0  0  0  0  0  0  0  0  0  0  0
   10.5344   14.3990   24.2905 O   0  0  0  0  0  0  0  0  0  0  0  0
    9.4859   12.4118   23.8239 C   0  0  0  0  0  0  0  0  0  0  0  0
    9.7398   11.1146   23.3647 C   0  0  0  0  0  0  0  0  0  0  0  0
    8.9933   10.0379   23.8038 C   0  0  0  0  0  0  0  0  0  0  0  0
    7.9710   10.2246   24.7335 C   0  0  0  0  0  0  0  0  0  0  0  0
    7.6467   11.5239   25.1662 C   0  0  0  0  0  0  0  0  0  0  0  0
    6.7232   12.0792   26.0831 C   0  0  0  0  0  0  0  0  0  0  0  0
    5.5644   11.1002   27.1842 Br  0  0  0  0  0  0  0  0  0  0  0  0
    6.8600   13.4431   26.0862 C   0  0  0  0  0  0  0  0  0  0  0  0
    7.8767   13.7491   25.2243 N   0  0  0  0  0  0  0  0  0  0  0  0
    8.3985   12.5939   24.6812 C   0  0  0  0  0  0  0  0  0  0  0  0
  2  1  1  1
  2  3  1  0
  3  4  1  0
  4  5  1  1
  5  6  1  0
  6  7  2  0
  6  8  1  0
  8  9  2  0
  9 10  1  0
 10 11  2  0
 11 12  1  0
 12 13  1  0
 13 14  1  0
 13 15  2  0
 15 16  1  0
 16 17  1  0
  4  2  1  0
 17  8  1  0
 17 12  2  0
M  END
>  <alias>  (1617) 
None

>  <rmsd(smina/fragmenstein)>  (1617) 
0.509

>  <smiles>  (1617) 
C[C@H]1C[C@H]1NC(=O)c1cccc2c(Br)c[nH]c12

>  <gnina_score>  (1617) 
5.268

>  <inspiration_score>  (1617) 
None

>  <energy_score>  (1617) 
-9.140137

>  <distance_score>  (1617) 
1.122448

>  <gnina_score_min>  (1617) 
5.247

>  <inchikey>  (1617) 
CQNRUKXVQLOXNY-WRWORJQWSA-N

>  <exports>  (1617) 
['/opt/xchem-fragalysis-2/maxwin/BulkDock/OUTPUTS/openbind_a71ev2a_c2_elabs_1LOUU54.sdf', '/opt/xchem-fragalysis-2/maxwin/BulkDock/OUTPUTS/openbind_a71ev2a_c2_elabs_1LSYIDY.sdf']

>  <name>  (1617) 
P584916

>  <ref_pdb>  (1617) 
A0566a

>  <subsites>  (1617) 
None

>  <HIPPO Pose ID>  (1617) 
584916

>  <ref_mols>  (1617) 
A0566a

>  <HIPPO Compound ID>  (1617) 
439228

>  <tags>  (1617) 
openbind_a71ev2a_c2_elabs,syndirella_product,openbind_a71ev2a_c2_elabs_fragonly_scored_top80percent,openbind_a71ev2a_c2_elabs_scored,BulkDock Fragalysis export,openbind_a71ev2a_c2_elabs_scored_top80percent,openbind_a71ev2a_c2_elabs_activefrags_only_scored_5.2plus,syndirella_placed

>  <smina_score_min>  (1617) 
-6.381

$$$$
P584919
     RDKit          3D

 17 18  0  0  0  0  0  0  0  0999 V2000
   10.0819   15.9362   20.5302 C   0  0  0  0  0  0  0  0  0  0  0  0
   11.1397   14.8918   20.9097 C   0  0  0  0  0  0  0  0  0  0  0  0
   12.2921   15.3814   21.7915 C   0  0  0  0  0  0  0  0  0  0  0  0
   11.7187   14.3601   19.5988 C   0  0  0  0  0  0  0  0  0  0  0  0
   10.4761   13.8510   21.6740 N   0  0  0  0  0  0  0  0  0  0  0  0
    9.9506   13.8534   23.1207 C   0  0  0  0  0  0  0  0  0  0  0  0
    9.8975   14.7157   23.9047 O   0  0  0  0  0  0  0  0  0  0  0  0
    9.3689   12.5554   23.5421 C   0  0  0  0  0  0  0  0  0  0  0  0
    9.8495   11.3140   23.1250 C   0  0  0  0  0  0  0  0  0  0  0  0
    9.2915   10.1281   23.5864 C   0  0  0  0  0  0  0  0  0  0  0  0
    8.2554   10.1579   24.5236 C   0  0  0  0  0  0  0  0  0  0  0  0
    7.7561   11.3905   24.9842 C   0  0  0  0  0  0  0  0  0  0  0  0
    6.7777   11.8049   25.9224 C   0  0  0  0  0  0  0  0  0  0  0  0
    5.7596   10.6773   27.0202 Br  0  0  0  0  0  0  0  0  0  0  0  0
    6.7223   13.1740   25.9385 C   0  0  0  0  0  0  0  0  0  0  0  0
    7.6496   13.6229   25.0426 N   0  0  0  0  0  0  0  0  0  0  0  0
    8.3161   12.5576   24.4694 C   0  0  0  0  0  0  0  0  0  0  0  0
  1  2  1  0
  2  3  1  0
  2  4  1  0
  2  5  1  0
  5  6  1  0
  6  7  2  0
  6  8  1  0
  8  9  2  0
  9 10  1  0
 10 11  2  0
 11 12  1  0
 12 13  1  0
 13 14  1  0
 13 15  2  0
 15 16  1  0
 16 17  1  0
 17  8  1  0
 17 12  2  0
M  END
>  <alias>  (1618) 
None

>  <rmsd(smina/fragmenstein)>  (1618) 
0.42

>  <smiles>  (1618) 
CC(C)(C)NC(=O)c1cccc2c(Br)c[nH]c12

>  <gnina_score>  (1618) 
5.341

>  <inspiration_score>  (1618) 
None

>  <energy_score>  (1618) 
-5.852112

>  <distance_score>  (1618) 
1.21154

>  <gnina_score_min>  (1618) 
5.409

>  <inchikey>  (1618) 
JQBOVWUEFKCVAP-UHFFFAOYSA-N

>  <exports>  (1618) 
['/opt/xchem-fragalysis-2/maxwin/BulkDock/OUTPUTS/openbind_a71ev2a_c2_elabs_1LOUU54.sdf', '/opt/xchem-fragalysis-2/maxwin/BulkDock/OUTPUTS/openbind_a71ev2a_c2_elabs_1LSYIDY.sdf']

>  <name>  (1618) 
P584919

>  <ref_pdb>  (1618) 
A0566a

>  <subsites>  (1618) 
None

>  <HIPPO Pose ID>  (1618) 
584919

>  <ref_mols>  (1618) 
A0566a

>  <HIPPO Compound ID>  (1618) 
439233

>  <tags>  (1618) 
openbind_a71ev2a_c2_elabs,syndirella_product,openbind_a71ev2a_c2_elabs_fragonly_scored_top80percent,openbind_a71ev2a_c2_elabs_scored,BulkDock Fragalysis export,openbind_a71ev2a_c2_elabs_scored_top80percent,openbind_a71ev2a_c2_elabs_activefrags_only_scored_5.2plus,syndirella_placed

>  <smina_score_min>  (1618) 
-6.521

$$$$
P584921
     RDKit          3D

 17 18  0  0  0  0  0  0  0  0999 V2000
   10.6684   14.5584   23.6625 O   0  0  0  0  0  0  0  0  0  0  0  0
    9.8086   13.9465   23.1778 C   0  0  0  0  0  0  0  0  0  0  0  0
    8.8988   14.2793   21.9942 N   0  0  0  0  0  0  0  0  0  0  0  0
    8.9125   15.3939   21.0933 C   0  0  0  0  0  0  0  0  0  0  0  0
   10.2651   15.8591   20.5758 C   0  0  0  0  0  0  0  0  0  0  0  0
   10.9183   14.8691   19.7120 N   0  0  0  0  0  0  0  0  0  0  0  0
   11.8666   14.1708   20.5649 O   0  0  0  0  0  0  0  0  0  0  0  0
    9.3603   12.6643   23.7255 C   0  0  0  0  0  0  0  0  0  0  0  0
    9.8598   11.4683   23.2180 C   0  0  0  0  0  0  0  0  0  0  0  0
    9.3141   10.2563   23.6188 C   0  0  0  0  0  0  0  0  0  0  0  0
    8.2724   10.2325   24.5567 C   0  0  0  0  0  0  0  0  0  0  0  0
    7.7504   11.4369   25.0754 C   0  0  0  0  0  0  0  0  0  0  0  0
    6.7514   11.7994   26.0118 C   0  0  0  0  0  0  0  0  0  0  0  0
    5.7366   10.6165   27.0520 Br  0  0  0  0  0  0  0  0  0  0  0  0
    6.6645   13.1667   26.0707 C   0  0  0  0  0  0  0  0  0  0  0  0
    7.5952   13.6705   25.2055 N   0  0  0  0  0  0  0  0  0  0  0  0
    8.2991   12.6375   24.6272 C   0  0  0  0  0  0  0  0  0  0  0  0
  1  2  2  0
  2  3  1  0
  3  4  1  0
  4  5  1  0
  5  6  1  0
  6  7  1  0
  2  8  1  0
  8  9  2  0
  9 10  1  0
 10 11  2  0
 11 12  1  0
 12 13  1  0
 13 14  1  0
 13 15  2  0
 15 16  1  0
 16 17  1  0
 17  8  1  0
 17 12  2  0
M  END
>  <alias>  (1619) 
None

>  <rmsd(smina/fragmenstein)>  (1619) 
0.153

>  <smiles>  (1619) 
O=C(NCCNO)c1cccc2c(Br)c[nH]c12

>  <gnina_score>  (1619) 
5.309

>  <inspiration_score>  (1619) 
None

>  <energy_score>  (1619) 
-2.503268

>  <distance_score>  (1619) 
1.520385

>  <gnina_score_min>  (1619) 
5.308

>  <inchikey>  (1619) 
CFNPAOYVEZZJHL-UHFFFAOYSA-N

>  <exports>  (1619) 
['/opt/xchem-fragalysis-2/maxwin/BulkDock/OUTPUTS/openbind_a71ev2a_c2_elabs_1LOUU54.sdf', '/opt/xchem-fragalysis-2/maxwin/BulkDock/OUTPUTS/openbind_a71ev2a_c2_elabs_1LSYIDY.sdf']

>  <name>  (1619) 
P584921

>  <ref_pdb>  (1619) 
A0566a

>  <subsites>  (1619) 
None

>  <HIPPO Pose ID>  (1619) 
584921

>  <ref_mols>  (1619) 
A0566a

>  <HIPPO Compound ID>  (1619) 
439236

>  <tags>  (1619) 
openbind_a71ev2a_c2_elabs,syndirella_product,openbind_a71ev2a_c2_elabs_fragonly_scored_top80percent,openbind_a71ev2a_c2_elabs_scored,BulkDock Fragalysis export,openbind_a71ev2a_c2_elabs_scored_top80percent,openbind_a71ev2a_c2_elabs_activefrags_only_scored_5.2plus,syndirella_placed

>  <smina_score_min>  (1619) 
-6.009

$$$$
P584926
     RDKit          3D

 17 18  0  0  0  0  0  0  0  0999 V2000
   12.4629   14.1525   20.0544 C   0  0  0  0  0  0  0  0  0  0  0  0
   11.9706   15.0791   21.1309 C   0  0  1  0  0  0  0  0  0  0  0  0
   10.1057   15.5464   20.7542 Br  0  0  0  0  0  0  0  0  0  0  0  0
   12.1611   14.5838   22.5383 C   0  0  0  0  0  0  0  0  0  0  0  0
   11.1908   13.6286   22.9194 N   0  0  0  0  0  0  0  0  0  0  0  0
   10.1172   13.6839   23.9987 C   0  0  0  0  0  0  0  0  0  0  0  0
    9.9001   14.4924   24.8058 O   0  0  0  0  0  0  0  0  0  0  0  0
    9.2881   12.4451   24.0247 C   0  0  0  0  0  0  0  0  0  0  0  0
    9.6536   11.2259   23.4362 C   0  0  0  0  0  0  0  0  0  0  0  0
    8.9989   10.0501   23.7657 C   0  0  0  0  0  0  0  0  0  0  0  0
    7.9671   10.0599   24.7061 C   0  0  0  0  0  0  0  0  0  0  0  0
    7.5088   11.2771   25.2379 C   0  0  0  0  0  0  0  0  0  0  0  0
    6.5512   11.6687   26.2055 C   0  0  0  0  0  0  0  0  0  0  0  0
    5.5418   10.5117   27.2809 Br  0  0  0  0  0  0  0  0  0  0  0  0
    6.5449   13.0350   26.3070 C   0  0  0  0  0  0  0  0  0  0  0  0
    7.5111   13.5004   25.4638 N   0  0  0  0  0  0  0  0  0  0  0  0
    8.1512   12.4452   24.8432 C   0  0  0  0  0  0  0  0  0  0  0  0
  2  1  1  6
  2  3  1  0
  2  4  1  0
  4  5  1  0
  5  6  1  0
  6  7  2  0
  6  8  1  0
  8  9  2  0
  9 10  1  0
 10 11  2  0
 11 12  1  0
 12 13  1  0
 13 14  1  0
 13 15  2  0
 15 16  1  0
 16 17  1  0
 17  8  1  0
 17 12  2  0
M  END
>  <alias>  (1620) 
None

>  <rmsd(smina/fragmenstein)>  (1620) 
0.63

>  <smiles>  (1620) 
C[C@@H](Br)CNC(=O)c1cccc2c(Br)c[nH]c12

>  <gnina_score>  (1620) 
5.273

>  <inspiration_score>  (1620) 
None

>  <energy_score>  (1620) 
-11.197759

>  <distance_score>  (1620) 
1.216969

>  <gnina_score_min>  (1620) 
5.459

>  <inchikey>  (1620) 
YIYJYSWPAIDUIA-SSDOTTSWSA-N

>  <exports>  (1620) 
['/opt/xchem-fragalysis-2/maxwin/BulkDock/OUTPUTS/openbind_a71ev2a_c2_elabs_1LOUU54.sdf', '/opt/xchem-fragalysis-2/maxwin/BulkDock/OUTPUTS/openbind_a71ev2a_c2_elabs_1LSYIDY.sdf']

>  <name>  (1620) 
P584926

>  <ref_pdb>  (1620) 
A0566a

>  <subsites>  (1620) 
None

>  <HIPPO Pose ID>  (1620) 
584926

>  <ref_mols>  (1620) 
A0566a

>  <HIPPO Compound ID>  (1620) 
439260

>  <tags>  (1620) 
openbind_a71ev2a_c2_elabs,syndirella_product,openbind_a71ev2a_c2_elabs_fragonly_scored_top80percent,openbind_a71ev2a_c2_elabs_scored,BulkDock Fragalysis export,openbind_a71ev2a_c2_elabs_scored_top80percent,openbind_a71ev2a_c2_elabs_activefrags_only_scored_5.2plus,syndirella_placed

>  <smina_score_min>  (1620) 
-5.916

$$$$
P584929
     RDKit          3D

 17 19  0  0  0  0  0  0  0  0999 V2000
   10.1306   14.6053   24.4462 O   0  0  0  0  0  0  0  0  0  0  0  0
   10.0206   13.8517   23.5660 C   0  0  0  0  0  0  0  0  0  0  0  0
   10.3753   13.9973   22.0849 N   0  0  0  0  0  0  0  0  0  0  0  0
   11.0351   15.0756   21.3757 C   0  0  0  0  0  0  0  0  0  0  0  0
   12.2290   14.5872   20.5455 C   0  0  0  0  0  0  0  0  0  0  0  0
   11.3173   14.7831   19.0000 S   0  0  0  0  0  0  0  0  0  0  0  0
   10.2115   15.5952   20.1769 C   0  0  0  0  0  0  0  0  0  0  0  0
    9.3593   12.5589   23.8274 C   0  0  0  0  0  0  0  0  0  0  0  0
    9.8023   11.3517   23.2812 C   0  0  0  0  0  0  0  0  0  0  0  0
    9.2064   10.1509   23.6408 C   0  0  0  0  0  0  0  0  0  0  0  0
    8.1675   10.1366   24.5788 C   0  0  0  0  0  0  0  0  0  0  0  0
    7.6785   11.3424   25.1187 C   0  0  0  0  0  0  0  0  0  0  0  0
    6.7010   11.7120   26.0755 C   0  0  0  0  0  0  0  0  0  0  0  0
    5.6748   10.5372   27.1136 Br  0  0  0  0  0  0  0  0  0  0  0  0
    6.6662   13.0783   26.1805 C   0  0  0  0  0  0  0  0  0  0  0  0
    7.6214   13.5698   25.3383 N   0  0  0  0  0  0  0  0  0  0  0  0
    8.2761   12.5310   24.7091 C   0  0  0  0  0  0  0  0  0  0  0  0
  1  2  2  0
  2  3  1  0
  3  4  1  0
  4  5  1  0
  5  6  1  0
  6  7  1  0
  2  8  1  0
  8  9  2  0
  9 10  1  0
 10 11  2  0
 11 12  1  0
 12 13  1  0
 13 14  1  0
 13 15  2  0
 15 16  1  0
 16 17  1  0
  7  4  1  0
 17  8  1  0
 17 12  2  0
M  END
>  <alias>  (1621) 
None

>  <rmsd(smina/fragmenstein)>  (1621) 
0.296

>  <smiles>  (1621) 
O=C(NC1CSC1)c1cccc2c(Br)c[nH]c12

>  <gnina_score>  (1621) 
5.352

>  <inspiration_score>  (1621) 
None

>  <energy_score>  (1621) 
-8.478929

>  <distance_score>  (1621) 
1.147622

>  <gnina_score_min>  (1621) 
5.358

>  <inchikey>  (1621) 
YLORBNMZNBOWJO-UHFFFAOYSA-N

>  <exports>  (1621) 
['/opt/xchem-fragalysis-2/maxwin/BulkDock/OUTPUTS/openbind_a71ev2a_c2_elabs_1LOUU54.sdf', '/opt/xchem-fragalysis-2/maxwin/BulkDock/OUTPUTS/openbind_a71ev2a_c2_elabs_1LSYIDY.sdf']

>  <name>  (1621) 
P584929

>  <ref_pdb>  (1621) 
A0566a

>  <subsites>  (1621) 
None

>  <HIPPO Pose ID>  (1621) 
584929

>  <ref_mols>  (1621) 
A0566a

>  <HIPPO Compound ID>  (1621) 
439267

>  <tags>  (1621) 
openbind_a71ev2a_c2_elabs,syndirella_product,openbind_a71ev2a_c2_elabs_fragonly_scored_top80percent,openbind_a71ev2a_c2_elabs_scored,BulkDock Fragalysis export,openbind_a71ev2a_c2_elabs_scored_top80percent,openbind_a71ev2a_c2_elabs_activefrags_only_scored_5.2plus,syndirella_placed

>  <smina_score_min>  (1621) 
-5.907

$$$$
P584930
     RDKit          3D

 17 18  0  0  0  0  0  0  0  0999 V2000
   10.3979   14.5486   24.4742 O   0  0  0  0  0  0  0  0  0  0  0  0
   10.3520   13.8184   23.5689 C   0  0  0  0  0  0  0  0  0  0  0  0
   11.0040   13.9081   22.1879 N   0  0  0  0  0  0  0  0  0  0  0  0
   11.9228   14.8601   21.6571 C   0  0  0  0  0  0  0  0  0  0  0  0
   12.1094   14.5540   20.2192 C   0  0  0  0  0  0  0  0  0  0  0  0
   11.3461   14.9699   19.2078 C   0  0  0  0  0  0  0  0  0  0  0  0
    9.9519   15.9454   19.3808 Cl  0  0  0  0  0  0  0  0  0  0  0  0
    9.5388   12.5861   23.7443 C   0  0  0  0  0  0  0  0  0  0  0  0
    9.8935   11.3473   23.2043 C   0  0  0  0  0  0  0  0  0  0  0  0
    9.2361   10.1792   23.5707 C   0  0  0  0  0  0  0  0  0  0  0  0
    8.2028   10.2229   24.5086 C   0  0  0  0  0  0  0  0  0  0  0  0
    7.7723   11.4602   25.0233 C   0  0  0  0  0  0  0  0  0  0  0  0
    6.8080   11.8827   25.9715 C   0  0  0  0  0  0  0  0  0  0  0  0
    5.7227   10.7580   27.0055 Br  0  0  0  0  0  0  0  0  0  0  0  0
    6.8445   13.2490   26.0718 C   0  0  0  0  0  0  0  0  0  0  0  0
    7.8398   13.6854   25.2440 N   0  0  0  0  0  0  0  0  0  0  0  0
    8.4380   12.6140   24.6111 C   0  0  0  0  0  0  0  0  0  0  0  0
  1  2  2  0
  2  3  1  0
  3  4  1  0
  4  5  1  0
  5  6  2  0
  6  7  1  0
  2  8  1  0
  8  9  2  0
  9 10  1  0
 10 11  2  0
 11 12  1  0
 12 13  1  0
 13 14  1  0
 13 15  2  0
 15 16  1  0
 16 17  1  0
 17  8  1  0
 17 12  2  0
M  END
>  <alias>  (1622) 
None

>  <rmsd(smina/fragmenstein)>  (1622) 
0.646

>  <smiles>  (1622) 
O=C(NC/C=C\Cl)c1cccc2c(Br)c[nH]c12

>  <gnina_score>  (1622) 
5.375

>  <inspiration_score>  (1622) 
None

>  <energy_score>  (1622) 
-5.521052

>  <distance_score>  (1622) 
0.931286

>  <gnina_score_min>  (1622) 
5.337

>  <inchikey>  (1622) 
QSUISHPNARKSPD-DJWKRKHSSA-N

>  <exports>  (1622) 
['/opt/xchem-fragalysis-2/maxwin/BulkDock/OUTPUTS/openbind_a71ev2a_c2_elabs_1LOUU54.sdf', '/opt/xchem-fragalysis-2/maxwin/BulkDock/OUTPUTS/openbind_a71ev2a_c2_elabs_1LSYIDY.sdf']

>  <name>  (1622) 
P584930

>  <ref_pdb>  (1622) 
A0566a

>  <subsites>  (1622) 
None

>  <HIPPO Pose ID>  (1622) 
584930

>  <ref_mols>  (1622) 
A0566a

>  <HIPPO Compound ID>  (1622) 
439269

>  <tags>  (1622) 
openbind_a71ev2a_c2_elabs,syndirella_product,openbind_a71ev2a_c2_elabs_fragonly_scored_top80percent,openbind_a71ev2a_c2_elabs_scored,BulkDock Fragalysis export,openbind_a71ev2a_c2_elabs_scored_top80percent,openbind_a71ev2a_c2_elabs_activefrags_only_scored_5.2plus,syndirella_placed

>  <smina_score_min>  (1622) 
-6.301

$$$$
P584933
     RDKit          3D

 17 18  0  0  0  0  0  0  0  0999 V2000
   10.4171   14.6681   24.0091 O   0  0  0  0  0  0  0  0  0  0  0  0
   10.3812   13.8068   23.2260 C   0  0  0  0  0  0  0  0  0  0  0  0
   10.9682   13.7237   21.8114 N   0  0  0  0  0  0  0  0  0  0  0  0
   11.8090   14.6481   21.0886 C   0  0  0  0  0  0  0  0  0  0  0  0
   11.2331   15.0093   19.7174 C   0  0  1  0  0  0  0  0  0  0  0  0
   11.0244   13.9092   18.9520 F   0  0  0  0  0  0  0  0  0  0  0  0
    9.7185   15.9180   19.8709 Cl  0  0  0  0  0  0  0  0  0  0  0  0
    9.5960   12.5891   23.5874 C   0  0  0  0  0  0  0  0  0  0  0  0
    9.9238   11.3068   23.1395 C   0  0  0  0  0  0  0  0  0  0  0  0
    9.2532   10.1737   23.5828 C   0  0  0  0  0  0  0  0  0  0  0  0
    8.2272   10.2927   24.5185 C   0  0  0  0  0  0  0  0  0  0  0  0
    7.8358   11.5680   24.9672 C   0  0  0  0  0  0  0  0  0  0  0  0
    6.8796   12.0599   25.8891 C   0  0  0  0  0  0  0  0  0  0  0  0
    5.7553   11.0096   26.9596 Br  0  0  0  0  0  0  0  0  0  0  0  0
    6.9444   13.4284   25.9132 C   0  0  0  0  0  0  0  0  0  0  0  0
    7.9387   13.7997   25.0518 N   0  0  0  0  0  0  0  0  0  0  0  0
    8.5195   12.6851   24.4812 C   0  0  0  0  0  0  0  0  0  0  0  0
  1  2  2  0
  2  3  1  0
  3  4  1  0
  4  5  1  0
  5  6  1  6
  5  7  1  0
  2  8  1  0
  8  9  2  0
  9 10  1  0
 10 11  2  0
 11 12  1  0
 12 13  1  0
 13 14  1  0
 13 15  2  0
 15 16  1  0
 16 17  1  0
 17  8  1  0
 17 12  2  0
M  END
>  <alias>  (1623) 
None

>  <rmsd(smina/fragmenstein)>  (1623) 
0.651

>  <smiles>  (1623) 
O=C(NC[C@@H](F)Cl)c1cccc2c(Br)c[nH]c12

>  <gnina_score>  (1623) 
5.283

>  <inspiration_score>  (1623) 
None

>  <energy_score>  (1623) 
-6.933662

>  <distance_score>  (1623) 
1.017531

>  <gnina_score_min>  (1623) 
5.344

>  <inchikey>  (1623) 
YXWOAZHCIOSSLR-SECBINFHSA-N

>  <exports>  (1623) 
['/opt/xchem-fragalysis-2/maxwin/BulkDock/OUTPUTS/openbind_a71ev2a_c2_elabs_1LOUU54.sdf', '/opt/xchem-fragalysis-2/maxwin/BulkDock/OUTPUTS/openbind_a71ev2a_c2_elabs_1LSYIDY.sdf']

>  <name>  (1623) 
P584933

>  <ref_pdb>  (1623) 
A0566a

>  <subsites>  (1623) 
None

>  <HIPPO Pose ID>  (1623) 
584933

>  <ref_mols>  (1623) 
A0566a

>  <HIPPO Compound ID>  (1623) 
439273

>  <tags>  (1623) 
openbind_a71ev2a_c2_elabs,syndirella_product,openbind_a71ev2a_c2_elabs_fragonly_scored_top80percent,openbind_a71ev2a_c2_elabs_scored,BulkDock Fragalysis export,openbind_a71ev2a_c2_elabs_scored_top80percent,openbind_a71ev2a_c2_elabs_activefrags_only_scored_5.2plus,syndirella_placed

>  <smina_score_min>  (1623) 
-6.188

$$$$
P584935
     RDKit          3D

 17 18  0  0  0  0  0  0  0  0999 V2000
   12.6407   15.2463   22.0859 C   0  0  0  0  0  0  0  0  0  0  0  0
   11.5415   14.5944   21.2789 C   0  0  2  0  0  0  0  0  0  0  0  0
   10.5102   15.6127   20.7485 C   0  0  0  0  0  0  0  0  0  0  0  0
    8.7591   15.1936   21.0297 S   0  0  0  0  0  0  0  0  0  0  0  0
   10.8978   13.5822   22.0616 N   0  0  0  0  0  0  0  0  0  0  0  0
   10.3141   13.6385   23.4790 C   0  0  0  0  0  0  0  0  0  0  0  0
   10.3305   14.4949   24.2697 O   0  0  0  0  0  0  0  0  0  0  0  0
    9.5383   12.4130   23.7931 C   0  0  0  0  0  0  0  0  0  0  0  0
    9.8443   11.1504   23.2829 C   0  0  0  0  0  0  0  0  0  0  0  0
    9.1493   10.0219   23.6854 C   0  0  0  0  0  0  0  0  0  0  0  0
    8.1194   10.1281   24.6220 C   0  0  0  0  0  0  0  0  0  0  0  0
    7.7328   11.3933   25.1004 C   0  0  0  0  0  0  0  0  0  0  0  0
    6.7781   11.8793   26.0267 C   0  0  0  0  0  0  0  0  0  0  0  0
    5.6595   10.8225   27.0967 Br  0  0  0  0  0  0  0  0  0  0  0  0
    6.8462   13.2478   26.0655 C   0  0  0  0  0  0  0  0  0  0  0  0
    7.8484   13.6229   25.2160 N   0  0  0  0  0  0  0  0  0  0  0  0
    8.4372   12.5087   24.6530 C   0  0  0  0  0  0  0  0  0  0  0  0
  2  1  1  1
  2  3  1  0
  3  4  1  0
  2  5  1  0
  5  6  1  0
  6  7  2  0
  6  8  1  0
  8  9  2  0
  9 10  1  0
 10 11  2  0
 11 12  1  0
 12 13  1  0
 13 14  1  0
 13 15  2  0
 15 16  1  0
 16 17  1  0
 17  8  1  0
 17 12  2  0
M  END
>  <alias>  (1624) 
None

>  <rmsd(smina/fragmenstein)>  (1624) 
0.501

>  <smiles>  (1624) 
C[C@H](CS)NC(=O)c1cccc2c(Br)c[nH]c12

>  <gnina_score>  (1624) 
5.517

>  <inspiration_score>  (1624) 
None

>  <energy_score>  (1624) 
-12.537385

>  <distance_score>  (1624) 
1.064164

>  <gnina_score_min>  (1624) 
5.498

>  <inchikey>  (1624) 
ZUCQNHLNSIWLPK-SSDOTTSWSA-N

>  <exports>  (1624) 
['/opt/xchem-fragalysis-2/maxwin/BulkDock/OUTPUTS/openbind_a71ev2a_c2_elabs_1LOUU54.sdf', '/opt/xchem-fragalysis-2/maxwin/BulkDock/OUTPUTS/openbind_a71ev2a_c2_elabs_1LSYIDY.sdf']

>  <name>  (1624) 
P584935

>  <ref_pdb>  (1624) 
A0566a

>  <subsites>  (1624) 
None

>  <HIPPO Pose ID>  (1624) 
584935

>  <ref_mols>  (1624) 
A0566a

>  <HIPPO Compound ID>  (1624) 
439274

>  <tags>  (1624) 
openbind_a71ev2a_c2_elabs,syndirella_product,openbind_a71ev2a_c2_elabs_fragonly_scored_top80percent,openbind_a71ev2a_c2_elabs_scored,BulkDock Fragalysis export,openbind_a71ev2a_c2_elabs_scored_top80percent,openbind_a71ev2a_c2_elabs_activefrags_only_scored_5.2plus,syndirella_placed

>  <smina_score_min>  (1624) 
-5.991

$$$$
P584936
     RDKit          3D

 17 19  0  0  0  0  0  0  0  0999 V2000
   10.0176   14.7618   24.0746 O   0  0  0  0  0  0  0  0  0  0  0  0
   10.0374   13.9464   23.2404 C   0  0  0  0  0  0  0  0  0  0  0  0
   10.4759   14.0358   21.7673 N   0  0  0  0  0  0  0  0  0  0  0  0
   10.8974   15.1807   20.9743 C   0  0  0  0  0  0  0  0  0  0  0  0
   11.1231   14.8843   19.4796 C   0  0  0  0  0  0  0  0  0  0  0  0
   10.1217   15.9831   19.1102 C   0  0  0  0  0  0  0  0  0  0  0  0
    9.7139   16.0918   20.5783 C   0  0  0  0  0  0  0  0  0  0  0  0
    9.4637   12.6294   23.6020 C   0  0  0  0  0  0  0  0  0  0  0  0
    9.9376   11.4129   23.1180 C   0  0  0  0  0  0  0  0  0  0  0  0
    9.3723   10.2062   23.5182 C   0  0  0  0  0  0  0  0  0  0  0  0
    8.3294   10.1928   24.4505 C   0  0  0  0  0  0  0  0  0  0  0  0
    7.8213   11.4039   24.9581 C   0  0  0  0  0  0  0  0  0  0  0  0
    6.8291   11.7797   25.8986 C   0  0  0  0  0  0  0  0  0  0  0  0
    5.7994   10.6133   26.9423 Br  0  0  0  0  0  0  0  0  0  0  0  0
    6.7690   13.1471   25.9675 C   0  0  0  0  0  0  0  0  0  0  0  0
    7.7121   13.6328   25.1086 N   0  0  0  0  0  0  0  0  0  0  0  0
    8.3920   12.5920   24.5068 C   0  0  0  0  0  0  0  0  0  0  0  0
  1  2  2  0
  2  3  1  0
  3  4  1  0
  4  5  1  0
  5  6  1  0
  6  7  1  0
  2  8  1  0
  8  9  2  0
  9 10  1  0
 10 11  2  0
 11 12  1  0
 12 13  1  0
 13 14  1  0
 13 15  2  0
 15 16  1  0
 16 17  1  0
  7  4  1  0
 17  8  1  0
 17 12  2  0
M  END
>  <alias>  (1625) 
None

>  <rmsd(smina/fragmenstein)>  (1625) 
0.709

>  <smiles>  (1625) 
O=C(NC1CCC1)c1cccc2c(Br)c[nH]c12

>  <gnina_score>  (1625) 
5.368

>  <inspiration_score>  (1625) 
None

>  <energy_score>  (1625) 
-4.374912

>  <distance_score>  (1625) 
1.146457

>  <gnina_score_min>  (1625) 
5.285

>  <inchikey>  (1625) 
GMIQWMCFDVNLBX-UHFFFAOYSA-N

>  <exports>  (1625) 
['/opt/xchem-fragalysis-2/maxwin/BulkDock/OUTPUTS/openbind_a71ev2a_c2_elabs_1LOUU54.sdf', '/opt/xchem-fragalysis-2/maxwin/BulkDock/OUTPUTS/openbind_a71ev2a_c2_elabs_1LSYIDY.sdf']

>  <name>  (1625) 
P584936

>  <ref_pdb>  (1625) 
A0566a

>  <subsites>  (1625) 
None

>  <HIPPO Pose ID>  (1625) 
584936

>  <ref_mols>  (1625) 
A0566a

>  <HIPPO Compound ID>  (1625) 
439275

>  <tags>  (1625) 
openbind_a71ev2a_c2_elabs,syndirella_product,openbind_a71ev2a_c2_elabs_fragonly_scored_top80percent,openbind_a71ev2a_c2_elabs_scored,BulkDock Fragalysis export,openbind_a71ev2a_c2_elabs_scored_top80percent,openbind_a71ev2a_c2_elabs_activefrags_only_scored_5.2plus,syndirella_placed

>  <smina_score_min>  (1625) 
-6.97

$$$$
P584938
     RDKit          3D

 17 18  0  0  0  0  0  0  0  0999 V2000
   12.1653   14.5909   20.1199 C   0  0  0  0  0  0  0  0  0  0  0  0
   10.6961   14.9324   20.1412 C   0  0  2  0  0  0  0  0  0  0  0  0
   10.1652   16.2910   18.8660 Br  0  0  0  0  0  0  0  0  0  0  0  0
   10.2317   15.3538   21.5105 C   0  0  0  0  0  0  0  0  0  0  0  0
    9.8354   14.2048   22.2594 N   0  0  0  0  0  0  0  0  0  0  0  0
    9.8422   13.9508   23.7610 C   0  0  0  0  0  0  0  0  0  0  0  0
   10.0987   14.6596   24.6434 O   0  0  0  0  0  0  0  0  0  0  0  0
    9.3415   12.5935   23.9950 C   0  0  0  0  0  0  0  0  0  0  0  0
    9.8919   11.4966   23.3301 C   0  0  0  0  0  0  0  0  0  0  0  0
    9.3751   10.2361   23.5515 C   0  0  0  0  0  0  0  0  0  0  0  0
    9.9132    9.1865   22.9234 F   0  0  0  0  0  0  0  0  0  0  0  0
    8.3143   10.0390   24.4320 C   0  0  0  0  0  0  0  0  0  0  0  0
    7.7182   11.1407   25.0668 C   0  0  0  0  0  0  0  0  0  0  0  0
    6.6322   11.3062   25.9635 C   0  0  0  0  0  0  0  0  0  0  0  0
    6.5064   12.6516   26.2261 C   0  0  0  0  0  0  0  0  0  0  0  0
    7.4794   13.3122   25.5272 N   0  0  0  0  0  0  0  0  0  0  0  0
    8.2425   12.4050   24.8286 C   0  0  0  0  0  0  0  0  0  0  0  0
  2  1  1  1
  2  3  1  0
  2  4  1  0
  4  5  1  0
  5  6  1  0
  6  7  2  0
  6  8  1  0
  8  9  2  0
  9 10  1  0
 10 11  1  0
 10 12  2  0
 12 13  1  0
 13 14  1  0
 14 15  2  0
 15 16  1  0
 16 17  1  0
 17  8  1  0
 17 13  2  0
M  END
>  <alias>  (1626) 
None

>  <rmsd(smina/fragmenstein)>  (1626) 
0.832

>  <smiles>  (1626) 
C[C@H](Br)CNC(=O)c1cc(F)cc2cc[nH]c12

>  <gnina_score>  (1626) 
5.147

>  <inspiration_score>  (1626) 
None

>  <energy_score>  (1626) 
-7.134077

>  <distance_score>  (1626) 
1.275189

>  <gnina_score_min>  (1626) 
5.34

>  <inchikey>  (1626) 
KVDJQJFFXVDIJV-ZETCQYMHSA-N

>  <exports>  (1626) 
['/opt/xchem-fragalysis-2/maxwin/BulkDock/OUTPUTS/openbind_a71ev2a_c2_elabs_1LOUU54.sdf', '/opt/xchem-fragalysis-2/maxwin/BulkDock/OUTPUTS/openbind_a71ev2a_c2_elabs_1LSYIDY.sdf']

>  <name>  (1626) 
P584938

>  <ref_pdb>  (1626) 
A0566a

>  <subsites>  (1626) 
None

>  <HIPPO Pose ID>  (1626) 
584938

>  <ref_mols>  (1626) 
A0566a

>  <HIPPO Compound ID>  (1626) 
439287

>  <tags>  (1626) 
openbind_a71ev2a_c2_elabs,syndirella_product,openbind_a71ev2a_c2_elabs_fragonly_scored_top80percent,openbind_a71ev2a_c2_elabs_scored,BulkDock Fragalysis export,openbind_a71ev2a_c2_elabs_scored_top80percent,openbind_a71ev2a_c2_elabs_activefrags_only_scored_5.2plus,syndirella_placed

>  <smina_score_min>  (1626) 
-6.292

$$$$
P584953
     RDKit          3D

 17 18  0  0  0  0  0  0  0  0999 V2000
    9.6198   16.1182   19.7446 C   0  0  0  0  0  0  0  0  0  0  0  0
   10.8137   15.2060   19.9454 C   0  0  0  0  0  0  0  0  0  0  0  0
   11.2010   15.1488   21.4228 C   0  0  2  0  0  0  0  0  0  0  0  0
   12.6496   14.7566   21.5968 C   0  0  0  0  0  0  0  0  0  0  0  0
   10.4127   14.1549   22.0973 N   0  0  0  0  0  0  0  0  0  0  0  0
   10.0399   14.0147   23.5786 C   0  0  0  0  0  0  0  0  0  0  0  0
   10.2462   14.7228   24.4794 O   0  0  0  0  0  0  0  0  0  0  0  0
    9.4005   12.7157   23.8163 C   0  0  0  0  0  0  0  0  0  0  0  0
    9.9319   11.5714   23.2237 C   0  0  0  0  0  0  0  0  0  0  0  0
    9.3915   10.3175   23.4615 C   0  0  0  0  0  0  0  0  0  0  0  0
    9.9503    9.1352   22.7453 C   0  0  0  0  0  0  0  0  0  0  0  0
    8.3399   10.1877   24.3760 C   0  0  0  0  0  0  0  0  0  0  0  0
    7.7773   11.3300   24.9767 C   0  0  0  0  0  0  0  0  0  0  0  0
    6.7110   11.5490   25.8874 C   0  0  0  0  0  0  0  0  0  0  0  0
    6.6173   12.9050   26.1057 C   0  0  0  0  0  0  0  0  0  0  0  0
    7.5897   13.5207   25.3641 N   0  0  0  0  0  0  0  0  0  0  0  0
    8.3158   12.5776   24.6763 C   0  0  0  0  0  0  0  0  0  0  0  0
  1  2  1  0
  2  3  1  0
  3  4  1  6
  3  5  1  0
  5  6  1  0
  6  7  2  0
  6  8  1  0
  8  9  2  0
  9 10  1  0
 10 11  1  0
 10 12  2  0
 12 13  1  0
 13 14  1  0
 14 15  2  0
 15 16  1  0
 16 17  1  0
 17  8  1  0
 17 13  2  0
M  END
>  <alias>  (1627) 
None

>  <rmsd(smina/fragmenstein)>  (1627) 
0.191

>  <smiles>  (1627) 
CC[C@H](C)NC(=O)c1cc(C)cc2cc[nH]c12

>  <gnina_score>  (1627) 
5.207

>  <inspiration_score>  (1627) 
None

>  <energy_score>  (1627) 
-11.855353

>  <distance_score>  (1627) 
1.054324

>  <gnina_score_min>  (1627) 
5.221

>  <inchikey>  (1627) 
SACDGQXZQBPAFB-JTQLQIEISA-N

>  <exports>  (1627) 
['/opt/xchem-fragalysis-2/maxwin/BulkDock/OUTPUTS/openbind_a71ev2a_c2_elabs_1LOUU54.sdf', '/opt/xchem-fragalysis-2/maxwin/BulkDock/OUTPUTS/openbind_a71ev2a_c2_elabs_1LSYIDY.sdf']

>  <name>  (1627) 
P584953

>  <ref_pdb>  (1627) 
A0566a

>  <subsites>  (1627) 
None

>  <HIPPO Pose ID>  (1627) 
584953

>  <ref_mols>  (1627) 
A0566a

>  <HIPPO Compound ID>  (1627) 
439319

>  <tags>  (1627) 
openbind_a71ev2a_c2_elabs,syndirella_product,openbind_a71ev2a_c2_elabs_fragonly_scored_top80percent,openbind_a71ev2a_c2_elabs_scored,BulkDock Fragalysis export,openbind_a71ev2a_c2_elabs_scored_top80percent,openbind_a71ev2a_c2_elabs_activefrags_only_scored_5.2plus,syndirella_placed

>  <smina_score_min>  (1627) 
-6.201

$$$$
P584959
     RDKit          3D

 17 18  0  0  0  0  0  0  0  0999 V2000
    9.9443    9.0468   22.7535 C   0  0  0  0  0  0  0  0  0  0  0  0
    9.3630   10.2243   23.4580 C   0  0  0  0  0  0  0  0  0  0  0  0
    9.8742   11.4782   23.1766 C   0  0  0  0  0  0  0  0  0  0  0  0
    9.3113   12.6404   23.7002 C   0  0  0  0  0  0  0  0  0  0  0  0
    9.9697   13.9313   23.4617 C   0  0  0  0  0  0  0  0  0  0  0  0
    9.9833   14.7059   24.3334 O   0  0  0  0  0  0  0  0  0  0  0  0
   10.6320   13.9799   22.0724 N   0  0  0  0  0  0  0  0  0  0  0  0
   11.5249   14.9441   21.4995 C   0  0  1  0  0  0  0  0  0  0  0  0
   12.5806   15.2207   22.5399 C   0  0  0  0  0  0  0  0  0  0  0  0
   12.2515   14.3901   20.2833 C   0  0  0  0  0  0  0  0  0  0  0  0
   11.3177   14.5813   18.7677 S   0  0  0  0  0  0  0  0  0  0  0  0
    8.2482   12.5069   24.5894 C   0  0  0  0  0  0  0  0  0  0  0  0
    7.5278   13.4576   25.2739 N   0  0  0  0  0  0  0  0  0  0  0  0
    6.5871   12.8500   26.0604 C   0  0  0  0  0  0  0  0  0  0  0  0
    6.6970   11.4900   25.8788 C   0  0  0  0  0  0  0  0  0  0  0  0
    7.7463   11.2604   24.9509 C   0  0  0  0  0  0  0  0  0  0  0  0
    8.3194   10.1077   24.3797 C   0  0  0  0  0  0  0  0  0  0  0  0
  1  2  1  0
  2  3  2  0
  3  4  1  0
  4  5  1  0
  5  6  2  0
  5  7  1  0
  7  8  1  0
  8  9  1  1
  8 10  1  0
 10 11  1  0
  4 12  2  0
 12 13  1  0
 13 14  1  0
 14 15  2  0
 15 16  1  0
 16 17  2  0
 17  2  1  0
 16 12  1  0
M  END
>  <alias>  (1628) 
None

>  <rmsd(smina/fragmenstein)>  (1628) 
0.86

>  <smiles>  (1628) 
Cc1cc(C(=O)N[C@@H](C)CS)c2[nH]ccc2c1

>  <gnina_score>  (1628) 
5.229

>  <inspiration_score>  (1628) 
None

>  <energy_score>  (1628) 
-3.835309

>  <distance_score>  (1628) 
1.083316

>  <gnina_score_min>  (1628) 
5.405

>  <inchikey>  (1628) 
MSTPZJSAWFWZOO-VIFPVBQESA-N

>  <exports>  (1628) 
['/opt/xchem-fragalysis-2/maxwin/BulkDock/OUTPUTS/openbind_a71ev2a_c2_elabs_1LOUU54.sdf', '/opt/xchem-fragalysis-2/maxwin/BulkDock/OUTPUTS/openbind_a71ev2a_c2_elabs_1LSYIDY.sdf']

>  <name>  (1628) 
P584959

>  <ref_pdb>  (1628) 
A0566a

>  <subsites>  (1628) 
None

>  <HIPPO Pose ID>  (1628) 
584959

>  <ref_mols>  (1628) 
A0566a

>  <HIPPO Compound ID>  (1628) 
439328

>  <tags>  (1628) 
openbind_a71ev2a_c2_elabs,syndirella_product,openbind_a71ev2a_c2_elabs_fragonly_scored_top80percent,openbind_a71ev2a_c2_elabs_scored,BulkDock Fragalysis export,openbind_a71ev2a_c2_elabs_scored_top80percent,openbind_a71ev2a_c2_elabs_activefrags_only_scored_5.2plus,syndirella_placed

>  <smina_score_min>  (1628) 
-5.645

$$$$
P584966
     RDKit          3D

 17 18  0  0  0  0  0  0  0  0999 V2000
    9.9583    9.0539   22.7029 C   0  0  0  0  0  0  0  0  0  0  0  0
    9.4331   10.2301   23.4519 C   0  0  0  0  0  0  0  0  0  0  0  0
   10.0507   11.4585   23.2798 C   0  0  0  0  0  0  0  0  0  0  0  0
    9.6089   12.5998   23.9360 C   0  0  0  0  0  0  0  0  0  0  0  0
   10.3017   13.8930   23.8018 C   0  0  0  0  0  0  0  0  0  0  0  0
   10.2909   14.6217   24.7113 O   0  0  0  0  0  0  0  0  0  0  0  0
   10.8522   14.0820   22.3814 N   0  0  0  0  0  0  0  0  0  0  0  0
   11.4164   15.2287   21.7521 C   0  0  0  0  0  0  0  0  0  0  0  0
   10.3856   15.7928   20.7591 C   0  0  2  0  0  0  0  0  0  0  0  0
    8.9218   15.5003   21.0997 C   0  0  0  0  0  0  0  0  0  0  0  0
   10.8288   15.1199   19.1234 S   0  0  0  0  0  0  0  0  0  0  0  0
    8.4611   12.4906   24.7248 C   0  0  0  0  0  0  0  0  0  0  0  0
    7.7444   13.4526   25.4007 N   0  0  0  0  0  0  0  0  0  0  0  0
    6.7060   12.8723   26.0771 C   0  0  0  0  0  0  0  0  0  0  0  0
    6.7427   11.5196   25.8265 C   0  0  0  0  0  0  0  0  0  0  0  0
    7.8341   11.2707   24.9536 C   0  0  0  0  0  0  0  0  0  0  0  0
    8.3598   10.1203   24.3403 C   0  0  0  0  0  0  0  0  0  0  0  0
  1  2  1  0
  2  3  2  0
  3  4  1  0
  4  5  1  0
  5  6  2  0
  5  7  1  0
  7  8  1  0
  8  9  1  0
  9 10  1  1
  9 11  1  0
  4 12  2  0
 12 13  1  0
 13 14  1  0
 14 15  2  0
 15 16  1  0
 16 17  2  0
 17  2  1  0
 16 12  1  0
M  END
>  <alias>  (1629) 
None

>  <rmsd(smina/fragmenstein)>  (1629) 
0.42

>  <smiles>  (1629) 
Cc1cc(C(=O)NC[C@H](C)S)c2[nH]ccc2c1

>  <gnina_score>  (1629) 
5.283

>  <inspiration_score>  (1629) 
None

>  <energy_score>  (1629) 
-20.078774

>  <distance_score>  (1629) 
0.922763

>  <gnina_score_min>  (1629) 
5.362

>  <inchikey>  (1629) 
GMPJQXRQDMEWMF-VIFPVBQESA-N

>  <exports>  (1629) 
['/opt/xchem-fragalysis-2/maxwin/BulkDock/OUTPUTS/openbind_a71ev2a_c2_elabs_1LOUU54.sdf', '/opt/xchem-fragalysis-2/maxwin/BulkDock/OUTPUTS/openbind_a71ev2a_c2_elabs_1LSYIDY.sdf']

>  <name>  (1629) 
P584966

>  <ref_pdb>  (1629) 
A0566a

>  <subsites>  (1629) 
None

>  <HIPPO Pose ID>  (1629) 
584966

>  <ref_mols>  (1629) 
A0566a

>  <HIPPO Compound ID>  (1629) 
439337

>  <tags>  (1629) 
openbind_a71ev2a_c2_elabs,syndirella_product,openbind_a71ev2a_c2_elabs_fragonly_scored_top80percent,openbind_a71ev2a_c2_elabs_scored,BulkDock Fragalysis export,openbind_a71ev2a_c2_elabs_scored_top80percent,openbind_a71ev2a_c2_elabs_activefrags_only_scored_5.2plus,syndirella_placed

>  <smina_score_min>  (1629) 
-5.252

$$$$
P584976
     RDKit          3D

 17 18  0  0  0  0  0  0  0  0999 V2000
    6.6327   10.0861   25.6843 C   0  0  0  0  0  0  0  0  0  0  0  0
    7.6352   10.8939   24.9271 C   0  0  0  0  0  0  0  0  0  0  0  0
    8.6169   10.2984   24.1132 C   0  0  0  0  0  0  0  0  0  0  0  0
    9.6380   11.0468   23.5451 C   0  0  0  0  0  0  0  0  0  0  0  0
    9.7358   12.4040   23.8319 C   0  0  0  0  0  0  0  0  0  0  0  0
   10.9811   13.1286   23.5560 C   0  0  0  0  0  0  0  0  0  0  0  0
   11.9689   12.7830   24.0575 O   0  0  0  0  0  0  0  0  0  0  0  0
   10.7074   14.2894   22.6103 N   0  0  0  0  0  0  0  0  0  0  0  0
   11.6024   15.2214   22.0003 C   0  0  0  0  0  0  0  0  0  0  0  0
   12.1971   14.6090   20.7476 C   0  0  0  0  0  0  0  0  0  0  0  0
   11.1502   14.5606   19.7184 N   0  0  0  0  0  0  0  0  0  0  0  0
   11.8510   14.4504   18.4560 O   0  0  0  0  0  0  0  0  0  0  0  0
    8.7012   13.0214   24.5350 C   0  0  0  0  0  0  0  0  0  0  0  0
    8.5121   14.3293   24.9067 N   0  0  0  0  0  0  0  0  0  0  0  0
    7.3554   14.4601   25.6198 C   0  0  0  0  0  0  0  0  0  0  0  0
    6.8057   13.2090   25.7521 C   0  0  0  0  0  0  0  0  0  0  0  0
    7.6506   12.2915   25.0732 C   0  0  0  0  0  0  0  0  0  0  0  0
  1  2  1  0
  2  3  2  0
  3  4  1  0
  4  5  2  0
  5  6  1  0
  6  7  2  0
  6  8  1  0
  8  9  1  0
  9 10  1  0
 10 11  1  0
 11 12  1  0
  5 13  1  0
 13 14  1  0
 14 15  1  0
 15 16  2  0
 16 17  1  0
 17  2  1  0
 17 13  2  0
M  END
>  <alias>  (1630) 
None

>  <rmsd(smina/fragmenstein)>  (1630) 
0.518

>  <smiles>  (1630) 
Cc1ccc(C(=O)NCCNO)c2[nH]ccc12

>  <gnina_score>  (1630) 
5.15

>  <inspiration_score>  (1630) 
None

>  <energy_score>  (1630) 
-10.075775

>  <distance_score>  (1630) 
1.167645

>  <gnina_score_min>  (1630) 
5.231

>  <inchikey>  (1630) 
YMEFVEUQRVGARF-UHFFFAOYSA-N

>  <exports>  (1630) 
['/opt/xchem-fragalysis-2/maxwin/BulkDock/OUTPUTS/openbind_a71ev2a_c2_elabs_1LOUU54.sdf', '/opt/xchem-fragalysis-2/maxwin/BulkDock/OUTPUTS/openbind_a71ev2a_c2_elabs_1LSYIDY.sdf']

>  <name>  (1630) 
P584976

>  <ref_pdb>  (1630) 
A0566a

>  <subsites>  (1630) 
None

>  <HIPPO Pose ID>  (1630) 
584976

>  <ref_mols>  (1630) 
A0566a

>  <HIPPO Compound ID>  (1630) 
439360

>  <tags>  (1630) 
openbind_a71ev2a_c2_elabs,syndirella_product,openbind_a71ev2a_c2_elabs_fragonly_scored_top80percent,openbind_a71ev2a_c2_elabs_scored,BulkDock Fragalysis export,openbind_a71ev2a_c2_elabs_scored_top80percent,openbind_a71ev2a_c2_elabs_activefrags_only_scored_5.2plus,syndirella_placed

>  <smina_score_min>  (1630) 
-6.78

$$$$
P584989
     RDKit          3D

 17 18  0  0  0  0  0  0  0  0999 V2000
    7.3522    9.8065   25.2485 C   0  0  0  0  0  0  0  0  0  0  0  0
    8.1410   10.8739   24.5851 C   0  0  0  0  0  0  0  0  0  0  0  0
    9.1815   10.5908   23.6832 C   0  0  0  0  0  0  0  0  0  0  0  0
    9.9675   11.6188   23.1666 C   0  0  0  0  0  0  0  0  0  0  0  0
    9.7494   12.9416   23.5397 C   0  0  0  0  0  0  0  0  0  0  0  0
   10.5485   14.0754   23.0415 C   0  0  0  0  0  0  0  0  0  0  0  0
   11.0150   14.8025   23.8203 O   0  0  0  0  0  0  0  0  0  0  0  0
   10.5307   14.1366   21.5139 N   0  0  0  0  0  0  0  0  0  0  0  0
   11.0046   15.1633   20.6060 C   0  0  1  0  0  0  0  0  0  0  0  0
   11.6306   14.5408   19.3719 C   0  0  0  0  0  0  0  0  0  0  0  0
    9.8054   16.0926   20.3163 C   0  0  0  0  0  0  0  0  0  0  0  0
    9.7922   17.0932   18.8016 S   0  0  0  0  0  0  0  0  0  0  0  0
    8.6718   13.2131   24.3906 C   0  0  0  0  0  0  0  0  0  0  0  0
    8.1723   14.4069   24.8590 N   0  0  0  0  0  0  0  0  0  0  0  0
    7.0913   14.1887   25.6673 C   0  0  0  0  0  0  0  0  0  0  0  0
    6.8741   12.8347   25.7156 C   0  0  0  0  0  0  0  0  0  0  0  0
    7.8623   12.2126   24.9045 C   0  0  0  0  0  0  0  0  0  0  0  0
  1  2  1  0
  2  3  2  0
  3  4  1  0
  4  5  2  0
  5  6  1  0
  6  7  2  0
  6  8  1  0
  8  9  1  0
  9 10  1  6
  9 11  1  0
 11 12  1  0
  5 13  1  0
 13 14  1  0
 14 15  1  0
 15 16  2  0
 16 17  1  0
 17  2  1  0
 17 13  2  0
M  END
>  <alias>  (1631) 
None

>  <rmsd(smina/fragmenstein)>  (1631) 
0.519

>  <smiles>  (1631) 
Cc1ccc(C(=O)N[C@@H](C)CS)c2[nH]ccc12

>  <gnina_score>  (1631) 
5.227

>  <inspiration_score>  (1631) 
None

>  <energy_score>  (1631) 
-7.76075

>  <distance_score>  (1631) 
1.234395

>  <gnina_score_min>  (1631) 
5.296

>  <inchikey>  (1631) 
VGEXAOCMOTZIDK-VIFPVBQESA-N

>  <exports>  (1631) 
['/opt/xchem-fragalysis-2/maxwin/BulkDock/OUTPUTS/openbind_a71ev2a_c2_elabs_1LOUU54.sdf', '/opt/xchem-fragalysis-2/maxwin/BulkDock/OUTPUTS/openbind_a71ev2a_c2_elabs_1LSYIDY.sdf']

>  <name>  (1631) 
P584989

>  <ref_pdb>  (1631) 
A0566a

>  <subsites>  (1631) 
None

>  <HIPPO Pose ID>  (1631) 
584989

>  <ref_mols>  (1631) 
A0566a

>  <HIPPO Compound ID>  (1631) 
439406

>  <tags>  (1631) 
openbind_a71ev2a_c2_elabs,syndirella_product,openbind_a71ev2a_c2_elabs_fragonly_scored_top80percent,openbind_a71ev2a_c2_elabs_scored,BulkDock Fragalysis export,openbind_a71ev2a_c2_elabs_scored_top80percent,openbind_a71ev2a_c2_elabs_activefrags_only_scored_5.2plus,syndirella_placed

>  <smina_score_min>  (1631) 
-6.233

$$$$
P584991
     RDKit          3D

 17 19  0  0  0  0  0  0  0  0999 V2000
    9.9587    9.1646   22.7389 C   0  0  0  0  0  0  0  0  0  0  0  0
    9.3746   10.3148   23.4880 C   0  0  0  0  0  0  0  0  0  0  0  0
    9.8849   11.5907   23.2970 C   0  0  0  0  0  0  0  0  0  0  0  0
    9.3146   12.6933   23.9360 C   0  0  0  0  0  0  0  0  0  0  0  0
    9.8756   14.0321   23.7442 C   0  0  0  0  0  0  0  0  0  0  0  0
   10.0983   14.7063   24.6699 O   0  0  0  0  0  0  0  0  0  0  0  0
   10.1369   14.2748   22.2454 N   0  0  0  0  0  0  0  0  0  0  0  0
   10.7811   15.3048   21.6086 N   0  0  0  0  0  0  0  0  0  0  0  0
   12.2420   15.2206   21.8712 C   0  0  0  0  0  0  0  0  0  0  0  0
   12.3973   14.3488   20.6310 C   0  0  0  0  0  0  0  0  0  0  0  0
   11.0475   14.9227   20.1937 C   0  0  0  0  0  0  0  0  0  0  0  0
    8.2296   12.4956   24.7827 C   0  0  0  0  0  0  0  0  0  0  0  0
    7.4734   13.3945   25.4974 N   0  0  0  0  0  0  0  0  0  0  0  0
    6.5181   12.7257   26.2135 C   0  0  0  0  0  0  0  0  0  0  0  0
    6.6517   11.3815   25.9483 C   0  0  0  0  0  0  0  0  0  0  0  0
    7.7262   11.2256   25.0354 C   0  0  0  0  0  0  0  0  0  0  0  0
    8.3239   10.1251   24.3945 C   0  0  0  0  0  0  0  0  0  0  0  0
  1  2  1  0
  2  3  2  0
  3  4  1  0
  4  5  1  0
  5  6  2  0
  5  7  1  0
  7  8  1  0
  8  9  1  0
  9 10  1  0
 10 11  1  0
  4 12  2  0
 12 13  1  0
 13 14  1  0
 14 15  2  0
 15 16  1  0
 16 17  2  0
 17  2  1  0
 11  8  1  0
 16 12  1  0
M  END
>  <alias>  (1632) 
None

>  <rmsd(smina/fragmenstein)>  (1632) 
0.289

>  <smiles>  (1632) 
Cc1cc(C(=O)NN2CCC2)c2[nH]ccc2c1

>  <gnina_score>  (1632) 
5.209

>  <inspiration_score>  (1632) 
None

>  <energy_score>  (1632) 
-6.428517

>  <distance_score>  (1632) 
1.175145

>  <gnina_score_min>  (1632) 
5.272

>  <inchikey>  (1632) 
IRZLEQVGALMCMD-UHFFFAOYSA-N

>  <exports>  (1632) 
['/opt/xchem-fragalysis-2/maxwin/BulkDock/OUTPUTS/openbind_a71ev2a_c2_elabs_1LOUU54.sdf', '/opt/xchem-fragalysis-2/maxwin/BulkDock/OUTPUTS/openbind_a71ev2a_c2_elabs_1LSYIDY.sdf']

>  <name>  (1632) 
P584991

>  <ref_pdb>  (1632) 
A0566a

>  <subsites>  (1632) 
None

>  <HIPPO Pose ID>  (1632) 
584991

>  <ref_mols>  (1632) 
A0566a

>  <HIPPO Compound ID>  (1632) 
439409

>  <tags>  (1632) 
openbind_a71ev2a_c2_elabs,syndirella_product,openbind_a71ev2a_c2_elabs_fragonly_scored_top80percent,openbind_a71ev2a_c2_elabs_scored,BulkDock Fragalysis export,openbind_a71ev2a_c2_elabs_scored_top80percent,openbind_a71ev2a_c2_elabs_activefrags_only_scored_5.2plus,syndirella_placed

>  <smina_score_min>  (1632) 
-5.629

$$$$
P585019
     RDKit          3D

 17 18  0  0  0  0  0  0  0  0999 V2000
    9.6383   16.0317   20.3132 C   0  0  0  0  0  0  0  0  0  0  0  0
   10.8045   15.4118   20.0915 C   0  0  0  0  0  0  0  0  0  0  0  0
   11.6230   14.6279   21.0700 C   0  0  1  0  0  0  0  0  0  0  0  0
   12.5761   15.3836   21.9613 C   0  0  0  0  0  0  0  0  0  0  0  0
   10.7499   13.7734   21.8021 N   0  0  0  0  0  0  0  0  0  0  0  0
   10.2159   13.8847   23.2433 C   0  0  0  0  0  0  0  0  0  0  0  0
   10.3441   14.7321   24.0335 O   0  0  0  0  0  0  0  0  0  0  0  0
    9.5211   12.6474   23.6341 C   0  0  0  0  0  0  0  0  0  0  0  0
    9.9998   11.4346   23.1561 C   0  0  0  0  0  0  0  0  0  0  0  0
    9.4109   10.2250   23.4649 C   0  0  0  0  0  0  0  0  0  0  0  0
    9.9309    9.0082   22.7824 C   0  0  0  0  0  0  0  0  0  0  0  0
    8.3527   10.2009   24.3746 C   0  0  0  0  0  0  0  0  0  0  0  0
    7.8519   11.4097   24.9012 C   0  0  0  0  0  0  0  0  0  0  0  0
    6.7984   11.7360   25.7952 C   0  0  0  0  0  0  0  0  0  0  0  0
    6.7674   13.1061   25.9250 C   0  0  0  0  0  0  0  0  0  0  0  0
    7.7617   13.6283   25.1418 N   0  0  0  0  0  0  0  0  0  0  0  0
    8.4431   12.6129   24.5138 C   0  0  0  0  0  0  0  0  0  0  0  0
  1  2  2  0
  2  3  1  0
  3  4  1  1
  3  5  1  0
  5  6  1  0
  6  7  2  0
  6  8  1  0
  8  9  2  0
  9 10  1  0
 10 11  1  0
 10 12  2  0
 12 13  1  0
 13 14  1  0
 14 15  2  0
 15 16  1  0
 16 17  1  0
 17  8  1  0
 17 13  2  0
M  END
>  <alias>  (1633) 
None

>  <rmsd(smina/fragmenstein)>  (1633) 
0.361

>  <smiles>  (1633) 
C=C[C@@H](C)NC(=O)c1cc(C)cc2cc[nH]c12

>  <gnina_score>  (1633) 
5.321

>  <inspiration_score>  (1633) 
None

>  <energy_score>  (1633) 
-2.10623

>  <distance_score>  (1633) 
1.022342

>  <gnina_score_min>  (1633) 
5.318

>  <inchikey>  (1633) 
ONLIHCUAOPZMNX-SNVBAGLBSA-N

>  <exports>  (1633) 
['/opt/xchem-fragalysis-2/maxwin/BulkDock/OUTPUTS/openbind_a71ev2a_c2_elabs_1LOUU54.sdf', '/opt/xchem-fragalysis-2/maxwin/BulkDock/OUTPUTS/openbind_a71ev2a_c2_elabs_1LSYIDY.sdf']

>  <name>  (1633) 
P585019

>  <ref_pdb>  (1633) 
A0566a

>  <subsites>  (1633) 
None

>  <HIPPO Pose ID>  (1633) 
585019

>  <ref_mols>  (1633) 
A0566a

>  <HIPPO Compound ID>  (1633) 
439473

>  <tags>  (1633) 
openbind_a71ev2a_c2_elabs,syndirella_product,openbind_a71ev2a_c2_elabs_fragonly_scored_top80percent,openbind_a71ev2a_c2_elabs_scored,BulkDock Fragalysis export,openbind_a71ev2a_c2_elabs_scored_top80percent,openbind_a71ev2a_c2_elabs_activefrags_only_scored_5.2plus,syndirella_placed

>  <smina_score_min>  (1633) 
-6.011

$$$$
P585025
     RDKit          3D

 17 18  0  0  0  0  0  0  0  0999 V2000
    9.8323   16.3826   20.2217 C   0  0  0  0  0  0  0  0  0  0  0  0
   10.8063   15.4725   20.3488 C   0  0  0  0  0  0  0  0  0  0  0  0
   11.4923   14.6181   18.8465 Br  0  0  0  0  0  0  0  0  0  0  0  0
   11.5370   15.1624   21.6174 C   0  0  0  0  0  0  0  0  0  0  0  0
   10.8586   14.0766   22.2396 N   0  0  0  0  0  0  0  0  0  0  0  0
   10.2249   13.9632   23.6327 C   0  0  0  0  0  0  0  0  0  0  0  0
   10.2224   14.7125   24.5247 O   0  0  0  0  0  0  0  0  0  0  0  0
    9.5316   12.6742   23.8112 C   0  0  0  0  0  0  0  0  0  0  0  0
   10.0111   11.5134   23.2129 C   0  0  0  0  0  0  0  0  0  0  0  0
    9.4246   10.2768   23.4354 C   0  0  0  0  0  0  0  0  0  0  0  0
    9.9567    9.0856   22.7144 C   0  0  0  0  0  0  0  0  0  0  0  0
    8.3625   10.1742   24.3379 C   0  0  0  0  0  0  0  0  0  0  0  0
    7.8285   11.3325   24.9302 C   0  0  0  0  0  0  0  0  0  0  0  0
    6.7540   11.5819   25.8235 C   0  0  0  0  0  0  0  0  0  0  0  0
    6.7000   12.9389   26.0455 C   0  0  0  0  0  0  0  0  0  0  0  0
    7.7065   13.5235   25.3259 N   0  0  0  0  0  0  0  0  0  0  0  0
    8.4172   12.5612   24.6449 C   0  0  0  0  0  0  0  0  0  0  0  0
  1  2  2  0
  2  3  1  0
  2  4  1  0
  4  5  1  0
  5  6  1  0
  6  7  2  0
  6  8  1  0
  8  9  2  0
  9 10  1  0
 10 11  1  0
 10 12  2  0
 12 13  1  0
 13 14  1  0
 14 15  2  0
 15 16  1  0
 16 17  1  0
 17  8  1  0
 17 13  2  0
M  END
>  <alias>  (1634) 
None

>  <rmsd(smina/fragmenstein)>  (1634) 
0.222

>  <smiles>  (1634) 
C=C(Br)CNC(=O)c1cc(C)cc2cc[nH]c12

>  <gnina_score>  (1634) 
5.211

>  <inspiration_score>  (1634) 
None

>  <energy_score>  (1634) 
-4.297258

>  <distance_score>  (1634) 
0.944223

>  <gnina_score_min>  (1634) 
5.246

>  <inchikey>  (1634) 
RJXSMPXLDAWXEP-UHFFFAOYSA-N

>  <exports>  (1634) 
['/opt/xchem-fragalysis-2/maxwin/BulkDock/OUTPUTS/openbind_a71ev2a_c2_elabs_1LOUU54.sdf', '/opt/xchem-fragalysis-2/maxwin/BulkDock/OUTPUTS/openbind_a71ev2a_c2_elabs_1LSYIDY.sdf']

>  <name>  (1634) 
P585025

>  <ref_pdb>  (1634) 
A0566a

>  <subsites>  (1634) 
None

>  <HIPPO Pose ID>  (1634) 
585025

>  <ref_mols>  (1634) 
A0566a

>  <HIPPO Compound ID>  (1634) 
439490

>  <tags>  (1634) 
openbind_a71ev2a_c2_elabs,syndirella_product,openbind_a71ev2a_c2_elabs_fragonly_scored_top80percent,openbind_a71ev2a_c2_elabs_scored,BulkDock Fragalysis export,openbind_a71ev2a_c2_elabs_scored_top80percent,openbind_a71ev2a_c2_elabs_activefrags_only_scored_5.2plus,syndirella_placed

>  <smina_score_min>  (1634) 
-5.354

$$$$
P585027
     RDKit          3D

 17 18  0  0  0  0  0  0  0  0999 V2000
    9.9918    9.0106   22.7400 C   0  0  0  0  0  0  0  0  0  0  0  0
    9.4272   10.1978   23.4400 C   0  0  0  0  0  0  0  0  0  0  0  0
    9.9317   11.4501   23.1331 C   0  0  0  0  0  0  0  0  0  0  0  0
    9.3479   12.6092   23.6234 C   0  0  0  0  0  0  0  0  0  0  0  0
    9.8440   13.9336   23.2279 C   0  0  0  0  0  0  0  0  0  0  0  0
    9.7431   14.7929   24.0116 O   0  0  0  0  0  0  0  0  0  0  0  0
   10.4079   13.9510   21.7898 N   0  0  0  0  0  0  0  0  0  0  0  0
   11.0531   15.0085   21.0483 C   0  0  0  0  0  0  0  0  0  0  0  0
    9.9947   16.0858   20.7611 C   0  0  0  0  0  0  0  0  0  0  0  0
   11.6012   14.4979   19.7107 C   0  0  0  0  0  0  0  0  0  0  0  0
   12.2412   15.4327   21.9162 C   0  0  0  0  0  0  0  0  0  0  0  0
    8.2952   12.4787   24.5316 C   0  0  0  0  0  0  0  0  0  0  0  0
    7.5511   13.4363   25.1822 N   0  0  0  0  0  0  0  0  0  0  0  0
    6.6253   12.8378   25.9924 C   0  0  0  0  0  0  0  0  0  0  0  0
    6.7571   11.4753   25.8488 C   0  0  0  0  0  0  0  0  0  0  0  0
    7.8087   11.2376   24.9253 C   0  0  0  0  0  0  0  0  0  0  0  0
    8.3848   10.0837   24.3655 C   0  0  0  0  0  0  0  0  0  0  0  0
  1  2  1  0
  2  3  2  0
  3  4  1  0
  4  5  1  0
  5  6  2  0
  5  7  1  0
  7  8  1  0
  8  9  1  0
  8 10  1  0
  8 11  1  0
  4 12  2  0
 12 13  1  0
 13 14  1  0
 14 15  2  0
 15 16  1  0
 16 17  2  0
 17  2  1  0
 16 12  1  0
M  END
>  <alias>  (1635) 
None

>  <rmsd(smina/fragmenstein)>  (1635) 
0.175

>  <smiles>  (1635) 
Cc1cc(C(=O)NC(C)(C)C)c2[nH]ccc2c1

>  <gnina_score>  (1635) 
5.202

>  <inspiration_score>  (1635) 
None

>  <energy_score>  (1635) 
-1.15814

>  <distance_score>  (1635) 
1.208209

>  <gnina_score_min>  (1635) 
5.257

>  <inchikey>  (1635) 
CSHOHSCWLBVXNR-UHFFFAOYSA-N

>  <exports>  (1635) 
['/opt/xchem-fragalysis-2/maxwin/BulkDock/OUTPUTS/openbind_a71ev2a_c2_elabs_1LOUU54.sdf', '/opt/xchem-fragalysis-2/maxwin/BulkDock/OUTPUTS/openbind_a71ev2a_c2_elabs_1LSYIDY.sdf']

>  <name>  (1635) 
P585027

>  <ref_pdb>  (1635) 
A0566a

>  <subsites>  (1635) 
None

>  <HIPPO Pose ID>  (1635) 
585027

>  <ref_mols>  (1635) 
A0566a

>  <HIPPO Compound ID>  (1635) 
439496

>  <tags>  (1635) 
openbind_a71ev2a_c2_elabs,syndirella_product,openbind_a71ev2a_c2_elabs_fragonly_scored_top80percent,openbind_a71ev2a_c2_elabs_scored,BulkDock Fragalysis export,openbind_a71ev2a_c2_elabs_scored_top80percent,openbind_a71ev2a_c2_elabs_activefrags_only_scored_5.2plus,syndirella_placed

>  <smina_score_min>  (1635) 
-5.646

$$$$
P585028
     RDKit          3D

 17 19  0  0  0  0  0  0  0  0999 V2000
    9.9589    9.0715   22.7601 C   0  0  0  0  0  0  0  0  0  0  0  0
    9.3580   10.2095   23.5126 C   0  0  0  0  0  0  0  0  0  0  0  0
    9.8369   11.4871   23.2842 C   0  0  0  0  0  0  0  0  0  0  0  0
    9.2239   12.5998   23.8585 C   0  0  0  0  0  0  0  0  0  0  0  0
    9.6968   13.9498   23.5498 C   0  0  0  0  0  0  0  0  0  0  0  0
    9.7143   14.7594   24.3887 O   0  0  0  0  0  0  0  0  0  0  0  0
   10.1419   14.0273   22.0788 N   0  0  0  0  0  0  0  0  0  0  0  0
   10.7706   15.0545   21.3749 C   0  0  0  0  0  0  0  0  0  0  0  0
    9.8376   16.0243   20.6946 C   0  0  0  0  0  0  0  0  0  0  0  0
   12.1249   15.4734   21.8879 C   0  0  0  0  0  0  0  0  0  0  0  0
   12.0247   14.6969   20.6150 C   0  0  0  0  0  0  0  0  0  0  0  0
    8.1657   12.4046   24.7379 C   0  0  0  0  0  0  0  0  0  0  0  0
    7.3974   13.3110   25.4297 N   0  0  0  0  0  0  0  0  0  0  0  0
    6.4757   12.6461   26.1913 C   0  0  0  0  0  0  0  0  0  0  0  0
    6.6379   11.2966   25.9708 C   0  0  0  0  0  0  0  0  0  0  0  0
    7.7027   11.1331   25.0473 C   0  0  0  0  0  0  0  0  0  0  0  0
    8.3133   10.0271   24.4265 C   0  0  0  0  0  0  0  0  0  0  0  0
  1  2  1  0
  2  3  2  0
  3  4  1  0
  4  5  1  0
  5  6  2  0
  5  7  1  0
  7  8  1  0
  8  9  1  0
  8 10  1  0
 10 11  1  0
  4 12  2  0
 12 13  1  0
 13 14  1  0
 14 15  2  0
 15 16  1  0
 16 17  2  0
 17  2  1  0
 11  8  1  0
 16 12  1  0
M  END
>  <alias>  (1636) 
None

>  <rmsd(smina/fragmenstein)>  (1636) 
0.307

>  <smiles>  (1636) 
Cc1cc(C(=O)NC2(C)CC2)c2[nH]ccc2c1

>  <gnina_score>  (1636) 
5.191

>  <inspiration_score>  (1636) 
None

>  <energy_score>  (1636) 
-4.448514

>  <distance_score>  (1636) 
1.293355

>  <gnina_score_min>  (1636) 
5.22

>  <inchikey>  (1636) 
MYXUHUBLPXNWEG-UHFFFAOYSA-N

>  <exports>  (1636) 
['/opt/xchem-fragalysis-2/maxwin/BulkDock/OUTPUTS/openbind_a71ev2a_c2_elabs_1LOUU54.sdf', '/opt/xchem-fragalysis-2/maxwin/BulkDock/OUTPUTS/openbind_a71ev2a_c2_elabs_1LSYIDY.sdf']

>  <name>  (1636) 
P585028

>  <ref_pdb>  (1636) 
A0566a

>  <subsites>  (1636) 
None

>  <HIPPO Pose ID>  (1636) 
585028

>  <ref_mols>  (1636) 
A0566a

>  <HIPPO Compound ID>  (1636) 
439501

>  <tags>  (1636) 
openbind_a71ev2a_c2_elabs,syndirella_product,openbind_a71ev2a_c2_elabs_fragonly_scored_top80percent,openbind_a71ev2a_c2_elabs_scored,BulkDock Fragalysis export,openbind_a71ev2a_c2_elabs_scored_top80percent,openbind_a71ev2a_c2_elabs_activefrags_only_scored_5.2plus,syndirella_placed

>  <smina_score_min>  (1636) 
-6.093

$$$$
P585038
     RDKit          3D

 17 18  0  0  0  0  0  0  0  0999 V2000
    9.9989    9.0759   22.7154 C   0  0  0  0  0  0  0  0  0  0  0  0
    9.4462   10.2652   23.4238 C   0  0  0  0  0  0  0  0  0  0  0  0
    9.9550   11.5244   23.1356 C   0  0  0  0  0  0  0  0  0  0  0  0
    9.3771   12.6738   23.6592 C   0  0  0  0  0  0  0  0  0  0  0  0
    9.8431   14.0172   23.2827 C   0  0  0  0  0  0  0  0  0  0  0  0
    9.8085   14.8386   24.1061 O   0  0  0  0  0  0  0  0  0  0  0  0
   10.2208   14.1115   21.7986 N   0  0  0  0  0  0  0  0  0  0  0  0
   10.7299   15.2218   21.0288 C   0  0  2  0  0  0  0  0  0  0  0  0
    9.5725   16.0310   20.4639 C   0  0  0  0  0  0  0  0  0  0  0  0
   11.5654   14.7117   19.9291 C   0  0  0  0  0  0  0  0  0  0  0  0
   12.1993   14.2496   19.0752 N   0  0  0  0  0  0  0  0  0  0  0  0
    8.3232   12.5244   24.5651 C   0  0  0  0  0  0  0  0  0  0  0  0
    7.5799   13.4707   25.2347 N   0  0  0  0  0  0  0  0  0  0  0  0
    6.6455   12.8573   26.0240 C   0  0  0  0  0  0  0  0  0  0  0  0
    6.7730   11.4979   25.8511 C   0  0  0  0  0  0  0  0  0  0  0  0
    7.8298   11.2771   24.9296 C   0  0  0  0  0  0  0  0  0  0  0  0
    8.4045   10.1340   24.3494 C   0  0  0  0  0  0  0  0  0  0  0  0
  1  2  1  0
  2  3  2  0
  3  4  1  0
  4  5  1  0
  5  6  2  0
  5  7  1  0
  7  8  1  0
  8  9  1  6
  8 10  1  0
 10 11  3  0
  4 12  2  0
 12 13  1  0
 13 14  1  0
 14 15  2  0
 15 16  1  0
 16 17  2  0
 17  2  1  0
 16 12  1  0
M  END
>  <alias>  (1637) 
None

>  <rmsd(smina/fragmenstein)>  (1637) 
0.696

>  <smiles>  (1637) 
Cc1cc(C(=O)N[C@H](C)C#N)c2[nH]ccc2c1

>  <gnina_score>  (1637) 
5.456

>  <inspiration_score>  (1637) 
None

>  <energy_score>  (1637) 
-1.292126

>  <distance_score>  (1637) 
1.22262

>  <gnina_score_min>  (1637) 
5.556

>  <inchikey>  (1637) 
LJBMECXPIQCCDH-SECBINFHSA-N

>  <exports>  (1637) 
['/opt/xchem-fragalysis-2/maxwin/BulkDock/OUTPUTS/openbind_a71ev2a_c2_elabs_1LOUU54.sdf', '/opt/xchem-fragalysis-2/maxwin/BulkDock/OUTPUTS/openbind_a71ev2a_c2_elabs_1LSYIDY.sdf']

>  <name>  (1637) 
P585038

>  <ref_pdb>  (1637) 
A0566a

>  <subsites>  (1637) 
None

>  <HIPPO Pose ID>  (1637) 
585038

>  <ref_mols>  (1637) 
A0566a

>  <HIPPO Compound ID>  (1637) 
439524

>  <tags>  (1637) 
openbind_a71ev2a_c2_elabs,syndirella_product,openbind_a71ev2a_c2_elabs_fragonly_scored_top80percent,BulkDock Fragalysis export,openbind_a71ev2a_c2_elabs_scored,openbind_a71ev2a_c2_elabs_scored_top80percent,openbind_a71ev2a_c2_elabs_activefrags_only_scored_5.2plus,openbind_a71ev2a_c2_elabs_activefrags_only_scored_5.5plus,syndirella_placed

>  <smina_score_min>  (1637) 
-5.743

$$$$
P585043
     RDKit          3D

 17 19  0  0  0  0  0  0  0  0999 V2000
    9.0812   14.9846   23.9248 O   0  0  0  0  0  0  0  0  0  0  0  0
    9.5516   14.1003   23.3052 C   0  0  0  0  0  0  0  0  0  0  0  0
    9.1779   12.7252   23.7072 C   0  0  0  0  0  0  0  0  0  0  0  0
    9.7874   11.5829   23.1961 C   0  0  0  0  0  0  0  0  0  0  0  0
    9.3547   10.3253   23.5812 C   0  0  0  0  0  0  0  0  0  0  0  0
   10.1475    8.9530   22.9638 Cl  0  0  0  0  0  0  0  0  0  0  0  0
    8.3167   10.1569   24.4940 C   0  0  0  0  0  0  0  0  0  0  0  0
    7.6949   11.2877   25.0343 C   0  0  0  0  0  0  0  0  0  0  0  0
    6.6401   11.4869   25.9620 C   0  0  0  0  0  0  0  0  0  0  0  0
    6.4500   12.8426   26.0921 C   0  0  0  0  0  0  0  0  0  0  0  0
    7.3381   13.4707   25.2649 N   0  0  0  0  0  0  0  0  0  0  0  0
    8.1339   12.5416   24.6278 C   0  0  0  0  0  0  0  0  0  0  0  0
   10.4174   14.1261   22.0776 N   0  0  0  0  0  0  0  0  0  0  0  0
   10.8646   15.2831   21.2073 C   0  0  0  0  0  0  0  0  0  0  0  0
   12.2453   14.7113   21.0871 C   0  0  0  0  0  0  0  0  0  0  0  0
   12.4906   13.7855   20.0162 O   0  0  0  0  0  0  0  0  0  0  0  0
   11.9339   14.1784   22.4487 C   0  0  0  0  0  0  0  0  0  0  0  0
  1  2  2  0
  2  3  1  0
  3  4  2  0
  4  5  1  0
  5  6  1  0
  5  7  2  0
  7  8  1  0
  8  9  1  0
  9 10  2  0
 10 11  1  0
 11 12  1  0
  2 13  1  0
 13 14  1  0
 14 15  1  0
 15 16  1  0
 15 17  1  0
 12  3  1  0
 17 13  1  0
 12  8  2  0
M  END
>  <alias>  (1638) 
None

>  <rmsd(smina/fragmenstein)>  (1638) 
0.344

>  <smiles>  (1638) 
O=C(c1cc(Cl)cc2cc[nH]c12)N1CC(O)C1

>  <gnina_score>  (1638) 
5.293

>  <inspiration_score>  (1638) 
None

>  <energy_score>  (1638) 
-8.703756

>  <distance_score>  (1638) 
1.410088

>  <gnina_score_min>  (1638) 
5.248

>  <inchikey>  (1638) 
VLYRMWWELDXRPM-UHFFFAOYSA-N

>  <exports>  (1638) 
['/opt/xchem-fragalysis-2/maxwin/BulkDock/OUTPUTS/openbind_a71ev2a_c2_elabs_1LOUU54.sdf', '/opt/xchem-fragalysis-2/maxwin/BulkDock/OUTPUTS/openbind_a71ev2a_c2_elabs_1LSYIDY.sdf']

>  <name>  (1638) 
P585043

>  <ref_pdb>  (1638) 
A0566a

>  <subsites>  (1638) 
None

>  <HIPPO Pose ID>  (1638) 
585043

>  <ref_mols>  (1638) 
A0566a

>  <HIPPO Compound ID>  (1638) 
439530

>  <tags>  (1638) 
openbind_a71ev2a_c2_elabs,syndirella_product,openbind_a71ev2a_c2_elabs_fragonly_scored_top80percent,openbind_a71ev2a_c2_elabs_scored,BulkDock Fragalysis export,openbind_a71ev2a_c2_elabs_scored_top80percent,openbind_a71ev2a_c2_elabs_activefrags_only_scored_5.2plus,syndirella_placed

>  <smina_score_min>  (1638) 
-6.363

$$$$
P585044
     RDKit          3D

 17 18  0  0  0  0  0  0  0  0999 V2000
   12.5402   14.4019   20.5767 C   0  0  0  0  0  0  0  0  0  0  0  0
   11.2535   14.9241   19.9801 C   0  0  0  0  0  0  0  0  0  0  0  0
   10.4492   15.5695   21.0244 N   0  0  0  0  0  0  0  0  0  0  0  0
    9.3783   16.3422   20.4100 C   0  0  0  0  0  0  0  0  0  0  0  0
    9.9521   14.6028   21.8689 N   0  0  0  0  0  0  0  0  0  0  0  0
   10.3994   14.1826   23.2809 C   0  0  0  0  0  0  0  0  0  0  0  0
   11.2091   14.6385   23.9841 O   0  0  0  0  0  0  0  0  0  0  0  0
    9.6021   13.0373   23.7110 C   0  0  0  0  0  0  0  0  0  0  0  0
    9.9170   11.7484   23.2664 C   0  0  0  0  0  0  0  0  0  0  0  0
    9.1823   10.6552   23.7066 C   0  0  0  0  0  0  0  0  0  0  0  0
    8.1314   10.8802   24.5911 C   0  0  0  0  0  0  0  0  0  0  0  0
    7.2265    9.6556   25.3181 Cl  0  0  0  0  0  0  0  0  0  0  0  0
    7.7435   12.1632   25.0009 C   0  0  0  0  0  0  0  0  0  0  0  0
    6.7200   12.7009   25.8298 C   0  0  0  0  0  0  0  0  0  0  0  0
    6.8760   14.0653   25.8532 C   0  0  0  0  0  0  0  0  0  0  0  0
    7.9560   14.3788   25.0752 N   0  0  0  0  0  0  0  0  0  0  0  0
    8.5038   13.2345   24.5477 C   0  0  0  0  0  0  0  0  0  0  0  0
  1  2  1  0
  2  3  1  0
  3  4  1  0
  3  5  1  0
  5  6  1  0
  6  7  2  0
  6  8  1  0
  8  9  2  0
  9 10  1  0
 10 11  2  0
 11 12  1  0
 11 13  1  0
 13 14  1  0
 14 15  2  0
 15 16  1  0
 16 17  1  0
 17  8  1  0
 17 13  2  0
M  END
>  <alias>  (1639) 
None

>  <rmsd(smina/fragmenstein)>  (1639) 
0.682

>  <smiles>  (1639) 
CCN(C)NC(=O)c1ccc(Cl)c2cc[nH]c12

>  <gnina_score>  (1639) 
5.035

>  <inspiration_score>  (1639) 
None

>  <energy_score>  (1639) 
-7.156999

>  <distance_score>  (1639) 
1.242767

>  <gnina_score_min>  (1639) 
5.265

>  <inchikey>  (1639) 
IFIKZNAYELXNLK-UHFFFAOYSA-N

>  <exports>  (1639) 
['/opt/xchem-fragalysis-2/maxwin/BulkDock/OUTPUTS/openbind_a71ev2a_c2_elabs_1LOUU54.sdf', '/opt/xchem-fragalysis-2/maxwin/BulkDock/OUTPUTS/openbind_a71ev2a_c2_elabs_1LSYIDY.sdf']

>  <name>  (1639) 
P585044

>  <ref_pdb>  (1639) 
A0566a

>  <subsites>  (1639) 
None

>  <HIPPO Pose ID>  (1639) 
585044

>  <ref_mols>  (1639) 
A0566a

>  <HIPPO Compound ID>  (1639) 
439534

>  <tags>  (1639) 
openbind_a71ev2a_c2_elabs,syndirella_product,openbind_a71ev2a_c2_elabs_fragonly_scored_top80percent,openbind_a71ev2a_c2_elabs_scored,BulkDock Fragalysis export,openbind_a71ev2a_c2_elabs_scored_top80percent,openbind_a71ev2a_c2_elabs_activefrags_only_scored_5.2plus,syndirella_placed

>  <smina_score_min>  (1639) 
-5.853

$$$$
P585046
     RDKit          3D

 17 19  0  0  0  0  0  0  0  0999 V2000
   11.0901   14.7580   23.6960 O   0  0  0  0  0  0  0  0  0  0  0  0
   10.4285   14.0789   23.0007 C   0  0  0  0  0  0  0  0  0  0  0  0
    9.6140   12.9912   23.5672 C   0  0  0  0  0  0  0  0  0  0  0  0
    9.8668   11.6593   23.2037 C   0  0  0  0  0  0  0  0  0  0  0  0
    9.1178   10.6142   23.7288 C   0  0  0  0  0  0  0  0  0  0  0  0
    8.1031   10.9194   24.6271 C   0  0  0  0  0  0  0  0  0  0  0  0
    7.1452    9.7611   25.4035 Cl  0  0  0  0  0  0  0  0  0  0  0  0
    7.7887   12.2370   24.9895 C   0  0  0  0  0  0  0  0  0  0  0  0
    6.8134   12.8488   25.8256 C   0  0  0  0  0  0  0  0  0  0  0  0
    7.0134   14.2060   25.7746 C   0  0  0  0  0  0  0  0  0  0  0  0
    8.0701   14.4443   24.9400 N   0  0  0  0  0  0  0  0  0  0  0  0
    8.5683   13.2598   24.4534 C   0  0  0  0  0  0  0  0  0  0  0  0
   10.3012   14.0522   21.5087 N   0  0  0  0  0  0  0  0  0  0  0  0
    9.1656   15.0212   21.0099 C   0  0  0  0  0  0  0  0  0  0  0  0
   10.1757   16.0116   20.5559 C   0  0  0  0  0  0  0  0  0  0  0  0
    9.8380   16.7687   18.9354 S   0  0  0  0  0  0  0  0  0  0  0  0
   11.0544   14.8157   20.4380 C   0  0  0  0  0  0  0  0  0  0  0  0
  1  2  2  0
  2  3  1  0
  3  4  2  0
  4  5  1  0
  5  6  2  0
  6  7  1  0
  6  8  1  0
  8  9  1  0
  9 10  2  0
 10 11  1  0
 11 12  1  0
  2 13  1  0
 13 14  1  0
 14 15  1  0
 15 16  1  0
 15 17  1  0
 12  3  1  0
 17 13  1  0
 12  8  2  0
M  END
>  <alias>  (1640) 
None

>  <rmsd(smina/fragmenstein)>  (1640) 
0.467

>  <smiles>  (1640) 
O=C(c1ccc(Cl)c2cc[nH]c12)N1CC(S)C1

>  <gnina_score>  (1640) 
5.304

>  <inspiration_score>  (1640) 
None

>  <energy_score>  (1640) 
-0.553773

>  <distance_score>  (1640) 
1.315287

>  <gnina_score_min>  (1640) 
5.336

>  <inchikey>  (1640) 
MVWMJVCDLFCCML-UHFFFAOYSA-N

>  <exports>  (1640) 
['/opt/xchem-fragalysis-2/maxwin/BulkDock/OUTPUTS/openbind_a71ev2a_c2_elabs_1LOUU54.sdf', '/opt/xchem-fragalysis-2/maxwin/BulkDock/OUTPUTS/openbind_a71ev2a_c2_elabs_1LSYIDY.sdf']

>  <name>  (1640) 
P585046

>  <ref_pdb>  (1640) 
A0566a

>  <subsites>  (1640) 
None

>  <HIPPO Pose ID>  (1640) 
585046

>  <ref_mols>  (1640) 
A0566a

>  <HIPPO Compound ID>  (1640) 
439546

>  <tags>  (1640) 
openbind_a71ev2a_c2_elabs,syndirella_product,openbind_a71ev2a_c2_elabs_fragonly_scored_top80percent,openbind_a71ev2a_c2_elabs_scored,BulkDock Fragalysis export,openbind_a71ev2a_c2_elabs_scored_top80percent,openbind_a71ev2a_c2_elabs_activefrags_only_scored_5.2plus,syndirella_placed

>  <smina_score_min>  (1640) 
-6.238

$$$$
P585053
     RDKit          3D

 17 18  0  0  0  0  0  0  0  0999 V2000
    8.8256   18.0636   19.9875 C   0  0  0  0  0  0  0  0  0  0  0  0
    9.5454   16.8357   20.3221 C   0  0  0  0  0  0  0  0  0  0  0  0
   10.2570   15.9290   20.6613 C   0  0  0  0  0  0  0  0  0  0  0  0
   11.2578   14.9787   21.1479 C   0  0  0  0  0  0  0  0  0  0  0  0
   10.5984   13.9367   21.8607 N   0  0  0  0  0  0  0  0  0  0  0  0
   10.1577   13.8564   23.3281 C   0  0  0  0  0  0  0  0  0  0  0  0
   10.1932   14.6583   24.1726 O   0  0  0  0  0  0  0  0  0  0  0  0
    9.5042   12.5685   23.6443 C   0  0  0  0  0  0  0  0  0  0  0  0
    9.9668   11.3589   23.1371 C   0  0  0  0  0  0  0  0  0  0  0  0
    9.3880   10.1634   23.5163 C   0  0  0  0  0  0  0  0  0  0  0  0
    9.8820    9.0191   23.0345 F   0  0  0  0  0  0  0  0  0  0  0  0
    8.3296   10.1274   24.4167 C   0  0  0  0  0  0  0  0  0  0  0  0
    7.8187   11.3331   24.9205 C   0  0  0  0  0  0  0  0  0  0  0  0
    6.7645   11.6648   25.8106 C   0  0  0  0  0  0  0  0  0  0  0  0
    6.7328   13.0351   25.9286 C   0  0  0  0  0  0  0  0  0  0  0  0
    7.7292   13.5496   25.1444 N   0  0  0  0  0  0  0  0  0  0  0  0
    8.4149   12.5278   24.5242 C   0  0  0  0  0  0  0  0  0  0  0  0
  1  2  1  0
  2  3  3  0
  3  4  1  0
  4  5  1  0
  5  6  1  0
  6  7  2  0
  6  8  1  0
  8  9  2  0
  9 10  1  0
 10 11  1  0
 10 12  2  0
 12 13  1  0
 13 14  1  0
 14 15  2  0
 15 16  1  0
 16 17  1  0
 17  8  1  0
 17 13  2  0
M  END
>  <alias>  (1641) 
None

>  <rmsd(smina/fragmenstein)>  (1641) 
0.517

>  <smiles>  (1641) 
CC#CCNC(=O)c1cc(F)cc2cc[nH]c12

>  <gnina_score>  (1641) 
5.243

>  <inspiration_score>  (1641) 
None

>  <energy_score>  (1641) 
-1.636364

>  <distance_score>  (1641) 
1.039846

>  <gnina_score_min>  (1641) 
5.252

>  <inchikey>  (1641) 
RVBMUTWDFDGOOD-UHFFFAOYSA-N

>  <exports>  (1641) 
['/opt/xchem-fragalysis-2/maxwin/BulkDock/OUTPUTS/openbind_a71ev2a_c2_elabs_1LOUU54.sdf', '/opt/xchem-fragalysis-2/maxwin/BulkDock/OUTPUTS/openbind_a71ev2a_c2_elabs_1LSYIDY.sdf']

>  <name>  (1641) 
P585053

>  <ref_pdb>  (1641) 
A0566a

>  <subsites>  (1641) 
None

>  <HIPPO Pose ID>  (1641) 
585053

>  <ref_mols>  (1641) 
A0566a

>  <HIPPO Compound ID>  (1641) 
439576

>  <tags>  (1641) 
openbind_a71ev2a_c2_elabs,syndirella_product,openbind_a71ev2a_c2_elabs_fragonly_scored_top80percent,openbind_a71ev2a_c2_elabs_scored,BulkDock Fragalysis export,openbind_a71ev2a_c2_elabs_scored_top80percent,openbind_a71ev2a_c2_elabs_activefrags_only_scored_5.2plus,syndirella_placed

>  <smina_score_min>  (1641) 
-6.564

$$$$
P585055
     RDKit          3D

 17 18  0  0  0  0  0  0  0  0999 V2000
    9.5140   17.0433   18.6025 C   0  0  0  0  0  0  0  0  0  0  0  0
   10.2547   15.5270   19.2352 S   0  0  0  0  0  0  0  0  0  0  0  0
   10.3023   15.9622   20.9754 C   0  0  0  0  0  0  0  0  0  0  0  0
   11.4144   15.1825   21.6709 C   0  0  0  0  0  0  0  0  0  0  0  0
   10.8336   14.0291   22.2900 N   0  0  0  0  0  0  0  0  0  0  0  0
   10.1558   13.8663   23.6558 C   0  0  0  0  0  0  0  0  0  0  0  0
   10.0279   14.6250   24.5313 O   0  0  0  0  0  0  0  0  0  0  0  0
    9.4956   12.5489   23.8090 C   0  0  0  0  0  0  0  0  0  0  0  0
    9.9680   11.3826   23.2120 C   0  0  0  0  0  0  0  0  0  0  0  0
    9.3927   10.1590   23.4985 C   0  0  0  0  0  0  0  0  0  0  0  0
    9.8987    9.0543   22.9424 F   0  0  0  0  0  0  0  0  0  0  0  0
    8.3282   10.0524   24.3851 C   0  0  0  0  0  0  0  0  0  0  0  0
    7.7866   11.2142   24.9513 C   0  0  0  0  0  0  0  0  0  0  0  0
    6.7129   11.4735   25.8422 C   0  0  0  0  0  0  0  0  0  0  0  0
    6.6570   12.8327   26.0452 C   0  0  0  0  0  0  0  0  0  0  0  0
    7.6618   13.4065   25.3171 N   0  0  0  0  0  0  0  0  0  0  0  0
    8.3753   12.4364   24.6458 C   0  0  0  0  0  0  0  0  0  0  0  0
  1  2  1  0
  2  3  1  0
  3  4  1  0
  4  5  1  0
  5  6  1  0
  6  7  2  0
  6  8  1  0
  8  9  2  0
  9 10  1  0
 10 11  1  0
 10 12  2  0
 12 13  1  0
 13 14  1  0
 14 15  2  0
 15 16  1  0
 16 17  1  0
 17  8  1  0
 17 13  2  0
M  END
>  <alias>  (1642) 
None

>  <rmsd(smina/fragmenstein)>  (1642) 
0.591

>  <smiles>  (1642) 
CSCCNC(=O)c1cc(F)cc2cc[nH]c12

>  <gnina_score>  (1642) 
5.279

>  <inspiration_score>  (1642) 
None

>  <energy_score>  (1642) 
-1.571883

>  <distance_score>  (1642) 
1.000329

>  <gnina_score_min>  (1642) 
5.351

>  <inchikey>  (1642) 
AOXQERFOZDOMOO-UHFFFAOYSA-N

>  <exports>  (1642) 
['/opt/xchem-fragalysis-2/maxwin/BulkDock/OUTPUTS/openbind_a71ev2a_c2_elabs_1LOUU54.sdf', '/opt/xchem-fragalysis-2/maxwin/BulkDock/OUTPUTS/openbind_a71ev2a_c2_elabs_1LSYIDY.sdf']

>  <name>  (1642) 
P585055

>  <ref_pdb>  (1642) 
A0566a

>  <subsites>  (1642) 
None

>  <HIPPO Pose ID>  (1642) 
585055

>  <ref_mols>  (1642) 
A0566a

>  <HIPPO Compound ID>  (1642) 
439589

>  <tags>  (1642) 
openbind_a71ev2a_c2_elabs,syndirella_product,openbind_a71ev2a_c2_elabs_fragonly_scored_top80percent,openbind_a71ev2a_c2_elabs_scored,BulkDock Fragalysis export,openbind_a71ev2a_c2_elabs_scored_top80percent,openbind_a71ev2a_c2_elabs_activefrags_only_scored_5.2plus,syndirella_placed

>  <smina_score_min>  (1642) 
-5.323

$$$$
P585058
     RDKit          3D

 17 18  0  0  0  0  0  0  0  0999 V2000
   11.3957   15.0053   18.7916 C   0  0  0  0  0  0  0  0  0  0  0  0
   11.0738   15.1609   20.0775 C   0  0  0  0  0  0  0  0  0  0  0  0
    9.5223   16.0896   20.5498 Br  0  0  0  0  0  0  0  0  0  0  0  0
   11.9445   14.6864   21.1973 C   0  0  0  0  0  0  0  0  0  0  0  0
   11.1701   13.7757   21.9698 N   0  0  0  0  0  0  0  0  0  0  0  0
   10.7668   13.8160   23.4399 C   0  0  0  0  0  0  0  0  0  0  0  0
   11.0635   14.5596   24.2836 O   0  0  0  0  0  0  0  0  0  0  0  0
    9.7647   12.7717   23.7504 C   0  0  0  0  0  0  0  0  0  0  0  0
    9.8784   11.4414   23.3235 C   0  0  0  0  0  0  0  0  0  0  0  0
    9.0129   10.4601   23.7941 C   0  0  0  0  0  0  0  0  0  0  0  0
    7.9996   10.8309   24.6700 C   0  0  0  0  0  0  0  0  0  0  0  0
    6.9758    9.7456   25.4668 Cl  0  0  0  0  0  0  0  0  0  0  0  0
    7.7630   12.1644   25.0164 C   0  0  0  0  0  0  0  0  0  0  0  0
    6.7953   12.8516   25.8013 C   0  0  0  0  0  0  0  0  0  0  0  0
    7.1173   14.1860   25.7850 C   0  0  0  0  0  0  0  0  0  0  0  0
    8.2478   14.3327   25.0314 N   0  0  0  0  0  0  0  0  0  0  0  0
    8.6650   13.1128   24.5503 C   0  0  0  0  0  0  0  0  0  0  0  0
  1  2  2  0
  2  3  1  0
  2  4  1  0
  4  5  1  0
  5  6  1  0
  6  7  2  0
  6  8  1  0
  8  9  2  0
  9 10  1  0
 10 11  2  0
 11 12  1  0
 11 13  1  0
 13 14  1  0
 14 15  2  0
 15 16  1  0
 16 17  1  0
 17  8  1  0
 17 13  2  0
M  END
>  <alias>  (1643) 
None

>  <rmsd(smina/fragmenstein)>  (1643) 
0.522

>  <smiles>  (1643) 
C=C(Br)CNC(=O)c1ccc(Cl)c2cc[nH]c12

>  <gnina_score>  (1643) 
5.306

>  <inspiration_score>  (1643) 
None

>  <energy_score>  (1643) 
-6.257657

>  <distance_score>  (1643) 
1.095734

>  <gnina_score_min>  (1643) 
5.28

>  <inchikey>  (1643) 
UNJKPRLWWFYPEO-UHFFFAOYSA-N

>  <exports>  (1643) 
['/opt/xchem-fragalysis-2/maxwin/BulkDock/OUTPUTS/openbind_a71ev2a_c2_elabs_1LOUU54.sdf', '/opt/xchem-fragalysis-2/maxwin/BulkDock/OUTPUTS/openbind_a71ev2a_c2_elabs_1LSYIDY.sdf']

>  <name>  (1643) 
P585058

>  <ref_pdb>  (1643) 
A0566a

>  <subsites>  (1643) 
None

>  <HIPPO Pose ID>  (1643) 
585058

>  <ref_mols>  (1643) 
A0566a

>  <HIPPO Compound ID>  (1643) 
439601

>  <tags>  (1643) 
openbind_a71ev2a_c2_elabs,syndirella_product,openbind_a71ev2a_c2_elabs_fragonly_scored_top80percent,openbind_a71ev2a_c2_elabs_scored,BulkDock Fragalysis export,openbind_a71ev2a_c2_elabs_scored_top80percent,openbind_a71ev2a_c2_elabs_activefrags_only_scored_5.2plus,syndirella_placed

>  <smina_score_min>  (1643) 
-6.364

$$$$
P585066
     RDKit          3D

 17 18  0  0  0  0  0  0  0  0999 V2000
   11.9635   14.8774   20.6989 C   0  0  0  0  0  0  0  0  0  0  0  0
   10.4488   14.9076   20.6140 C   0  0  2  0  0  0  0  0  0  0  0  0
    9.7850   16.2809   20.5132 C   0  0  0  0  0  0  0  0  0  0  0  0
    9.7275   16.8962   18.8062 S   0  0  0  0  0  0  0  0  0  0  0  0
    9.8910   14.1394   21.6905 N   0  0  0  0  0  0  0  0  0  0  0  0
   10.2953   14.0506   23.1594 C   0  0  0  0  0  0  0  0  0  0  0  0
   11.0963   14.6410   23.7571 O   0  0  0  0  0  0  0  0  0  0  0  0
    9.5243   12.9608   23.7587 C   0  0  0  0  0  0  0  0  0  0  0  0
    9.7815   11.6379   23.3645 C   0  0  0  0  0  0  0  0  0  0  0  0
    9.0147   10.5938   23.8604 C   0  0  0  0  0  0  0  0  0  0  0  0
    7.9848   10.8970   24.7451 C   0  0  0  0  0  0  0  0  0  0  0  0
    6.9988    9.7407   25.4842 Cl  0  0  0  0  0  0  0  0  0  0  0  0
    7.6636   12.2109   25.1159 C   0  0  0  0  0  0  0  0  0  0  0  0
    6.6725   12.8212   25.9331 C   0  0  0  0  0  0  0  0  0  0  0  0
    6.8697   14.1795   25.8846 C   0  0  0  0  0  0  0  0  0  0  0  0
    7.9410   14.4214   25.0696 N   0  0  0  0  0  0  0  0  0  0  0  0
    8.4554   13.2350   24.6073 C   0  0  0  0  0  0  0  0  0  0  0  0
  2  1  1  1
  2  3  1  0
  3  4  1  0
  2  5  1  0
  5  6  1  0
  6  7  2  0
  6  8  1  0
  8  9  2  0
  9 10  1  0
 10 11  2  0
 11 12  1  0
 11 13  1  0
 13 14  1  0
 14 15  2  0
 15 16  1  0
 16 17  1  0
 17  8  1  0
 17 13  2  0
M  END
>  <alias>  (1644) 
None

>  <rmsd(smina/fragmenstein)>  (1644) 
0.681

>  <smiles>  (1644) 
C[C@H](CS)NC(=O)c1ccc(Cl)c2cc[nH]c12

>  <gnina_score>  (1644) 
5.255

>  <inspiration_score>  (1644) 
None

>  <energy_score>  (1644) 
-4.515085

>  <distance_score>  (1644) 
1.396045

>  <gnina_score_min>  (1644) 
5.346

>  <inchikey>  (1644) 
ZVNPHCWJEHHXBU-SSDOTTSWSA-N

>  <exports>  (1644) 
['/opt/xchem-fragalysis-2/maxwin/BulkDock/OUTPUTS/openbind_a71ev2a_c2_elabs_1LOUU54.sdf', '/opt/xchem-fragalysis-2/maxwin/BulkDock/OUTPUTS/openbind_a71ev2a_c2_elabs_1LSYIDY.sdf']

>  <name>  (1644) 
P585066

>  <ref_pdb>  (1644) 
A0566a

>  <subsites>  (1644) 
None

>  <HIPPO Pose ID>  (1644) 
585066

>  <ref_mols>  (1644) 
A0566a

>  <HIPPO Compound ID>  (1644) 
439624

>  <tags>  (1644) 
openbind_a71ev2a_c2_elabs,syndirella_product,openbind_a71ev2a_c2_elabs_fragonly_scored_top80percent,openbind_a71ev2a_c2_elabs_scored,BulkDock Fragalysis export,openbind_a71ev2a_c2_elabs_scored_top80percent,openbind_a71ev2a_c2_elabs_activefrags_only_scored_5.2plus,syndirella_placed

>  <smina_score_min>  (1644) 
-6.112

$$$$
P585071
     RDKit          3D

 17 18  0  0  0  0  0  0  0  0999 V2000
   12.7969   15.3344   21.8525 C   0  0  0  0  0  0  0  0  0  0  0  0
   11.9968   14.3380   21.0489 C   0  0  2  0  0  0  0  0  0  0  0  0
   11.1593   14.9265   19.9032 C   0  0  0  0  0  0  0  0  0  0  0  0
    9.7766   15.9569   20.4775 S   0  0  0  0  0  0  0  0  0  0  0  0
   11.1627   13.5309   21.9077 N   0  0  0  0  0  0  0  0  0  0  0  0
   10.7278   13.7448   23.3583 C   0  0  0  0  0  0  0  0  0  0  0  0
   11.0320   14.5670   24.1246 O   0  0  0  0  0  0  0  0  0  0  0  0
    9.6850   12.7753   23.7550 C   0  0  0  0  0  0  0  0  0  0  0  0
    9.7225   11.4086   23.4481 C   0  0  0  0  0  0  0  0  0  0  0  0
    8.7924   10.5316   24.0031 C   0  0  0  0  0  0  0  0  0  0  0  0
    7.7920   11.0287   24.8416 C   0  0  0  0  0  0  0  0  0  0  0  0
    6.6183    9.9334   25.8004 Br  0  0  0  0  0  0  0  0  0  0  0  0
    7.6559   12.4022   25.0599 C   0  0  0  0  0  0  0  0  0  0  0  0
    6.7359   13.2099   25.7839 C   0  0  0  0  0  0  0  0  0  0  0  0
    7.1491   14.5131   25.6723 C   0  0  0  0  0  0  0  0  0  0  0  0
    8.2859   14.5208   24.9179 N   0  0  0  0  0  0  0  0  0  0  0  0
    8.6145   13.2449   24.5242 C   0  0  0  0  0  0  0  0  0  0  0  0
  2  1  1  1
  2  3  1  0
  3  4  1  0
  2  5  1  0
  5  6  1  0
  6  7  2  0
  6  8  1  0
  8  9  2  0
  9 10  1  0
 10 11  2  0
 11 12  1  0
 11 13  1  0
 13 14  1  0
 14 15  2  0
 15 16  1  0
 16 17  1  0
 17  8  1  0
 17 13  2  0
M  END
>  <alias>  (1645) 
None

>  <rmsd(smina/fragmenstein)>  (1645) 
0.972

>  <smiles>  (1645) 
C[C@H](CS)NC(=O)c1ccc(Br)c2cc[nH]c12

>  <gnina_score>  (1645) 
5.24

>  <inspiration_score>  (1645) 
None

>  <energy_score>  (1645) 
-16.474263

>  <distance_score>  (1645) 
1.321364

>  <gnina_score_min>  (1645) 
5.238

>  <inchikey>  (1645) 
SSNHBOLFDCTBOL-SSDOTTSWSA-N

>  <exports>  (1645) 
['/opt/xchem-fragalysis-2/maxwin/BulkDock/OUTPUTS/openbind_a71ev2a_c2_elabs_1LOUU54.sdf', '/opt/xchem-fragalysis-2/maxwin/BulkDock/OUTPUTS/openbind_a71ev2a_c2_elabs_1LSYIDY.sdf']

>  <name>  (1645) 
P585071

>  <ref_pdb>  (1645) 
A0566a

>  <subsites>  (1645) 
None

>  <HIPPO Pose ID>  (1645) 
585071

>  <ref_mols>  (1645) 
A0566a

>  <HIPPO Compound ID>  (1645) 
439637

>  <tags>  (1645) 
openbind_a71ev2a_c2_elabs,syndirella_product,openbind_a71ev2a_c2_elabs_fragonly_scored_top80percent,openbind_a71ev2a_c2_elabs_scored,BulkDock Fragalysis export,openbind_a71ev2a_c2_elabs_scored_top80percent,openbind_a71ev2a_c2_elabs_activefrags_only_scored_5.2plus,syndirella_placed

>  <smina_score_min>  (1645) 
-6.022

$$$$
P585073
     RDKit          3D

 17 18  0  0  0  0  0  0  0  0999 V2000
    9.5116   16.9719   18.8212 C   0  0  0  0  0  0  0  0  0  0  0  0
   10.2497   15.9706   19.5821 C   0  0  0  0  0  0  0  0  0  0  0  0
   10.9893   15.2801   20.2282 C   0  0  0  0  0  0  0  0  0  0  0  0
   11.9608   14.5627   21.0524 C   0  0  0  0  0  0  0  0  0  0  0  0
   11.2029   13.6814   21.8708 N   0  0  0  0  0  0  0  0  0  0  0  0
   10.7980   13.7916   23.3357 C   0  0  0  0  0  0  0  0  0  0  0  0
   11.0806   14.5829   24.1386 O   0  0  0  0  0  0  0  0  0  0  0  0
    9.8118   12.7478   23.7066 C   0  0  0  0  0  0  0  0  0  0  0  0
    9.8915   11.4139   23.2840 C   0  0  0  0  0  0  0  0  0  0  0  0
    9.0187   10.4480   23.7743 C   0  0  0  0  0  0  0  0  0  0  0  0
    8.0225   10.8376   24.6617 C   0  0  0  0  0  0  0  0  0  0  0  0
    6.9830    9.7709   25.4663 Cl  0  0  0  0  0  0  0  0  0  0  0  0
    7.8216   12.1756   25.0140 C   0  0  0  0  0  0  0  0  0  0  0  0
    6.8785   12.8849   25.8099 C   0  0  0  0  0  0  0  0  0  0  0  0
    7.2434   14.2089   25.8079 C   0  0  0  0  0  0  0  0  0  0  0  0
    8.3767   14.3277   25.0532 N   0  0  0  0  0  0  0  0  0  0  0  0
    8.7406   13.1034   24.5396 C   0  0  0  0  0  0  0  0  0  0  0  0
  1  2  1  0
  2  3  3  0
  3  4  1  0
  4  5  1  0
  5  6  1  0
  6  7  2  0
  6  8  1  0
  8  9  2  0
  9 10  1  0
 10 11  2  0
 11 12  1  0
 11 13  1  0
 13 14  1  0
 14 15  2  0
 15 16  1  0
 16 17  1  0
 17  8  1  0
 17 13  2  0
M  END
>  <alias>  (1646) 
None

>  <rmsd(smina/fragmenstein)>  (1646) 
0.724

>  <smiles>  (1646) 
CC#CCNC(=O)c1ccc(Cl)c2cc[nH]c12

>  <gnina_score>  (1646) 
5.057

>  <inspiration_score>  (1646) 
None

>  <energy_score>  (1646) 
-11.159024

>  <distance_score>  (1646) 
1.122576

>  <gnina_score_min>  (1646) 
5.207

>  <inchikey>  (1646) 
WEJVMVYOHLNVPE-UHFFFAOYSA-N

>  <exports>  (1646) 
['/opt/xchem-fragalysis-2/maxwin/BulkDock/OUTPUTS/openbind_a71ev2a_c2_elabs_1LOUU54.sdf', '/opt/xchem-fragalysis-2/maxwin/BulkDock/OUTPUTS/openbind_a71ev2a_c2_elabs_1LSYIDY.sdf']

>  <name>  (1646) 
P585073

>  <ref_pdb>  (1646) 
A0566a

>  <subsites>  (1646) 
None

>  <HIPPO Pose ID>  (1646) 
585073

>  <ref_mols>  (1646) 
A0566a

>  <HIPPO Compound ID>  (1646) 
439643

>  <tags>  (1646) 
openbind_a71ev2a_c2_elabs,syndirella_product,openbind_a71ev2a_c2_elabs_fragonly_scored_top80percent,openbind_a71ev2a_c2_elabs_scored,BulkDock Fragalysis export,openbind_a71ev2a_c2_elabs_scored_top80percent,openbind_a71ev2a_c2_elabs_activefrags_only_scored_5.2plus,syndirella_placed

>  <smina_score_min>  (1646) 
-6.752

$$$$
P585078
     RDKit          3D

 17 18  0  0  0  0  0  0  0  0999 V2000
   12.5201   14.8707   21.5023 C   0  0  0  0  0  0  0  0  0  0  0  0
   11.0314   15.1213   21.3571 C   0  0  1  0  0  0  0  0  0  0  0  0
   10.5153   15.2376   19.9206 C   0  0  0  0  0  0  0  0  0  0  0  0
   11.0678   14.2458   19.0685 O   0  0  0  0  0  0  0  0  0  0  0  0
   10.3547   14.0423   22.0343 N   0  0  0  0  0  0  0  0  0  0  0  0
    9.9135   13.9048   23.4949 C   0  0  0  0  0  0  0  0  0  0  0  0
    9.9550   14.6698   24.3712 O   0  0  0  0  0  0  0  0  0  0  0  0
    9.3423   12.5721   23.7632 C   0  0  0  0  0  0  0  0  0  0  0  0
    9.8834   11.4065   23.2212 C   0  0  0  0  0  0  0  0  0  0  0  0
    9.3579   10.1729   23.5517 C   0  0  0  0  0  0  0  0  0  0  0  0
    9.9063    9.0703   23.0331 F   0  0  0  0  0  0  0  0  0  0  0  0
    8.2976   10.0572   24.4437 C   0  0  0  0  0  0  0  0  0  0  0  0
    7.7291   11.2150   24.9953 C   0  0  0  0  0  0  0  0  0  0  0  0
    6.6668   11.4619   25.9026 C   0  0  0  0  0  0  0  0  0  0  0  0
    6.5724   12.8235   26.0758 C   0  0  0  0  0  0  0  0  0  0  0  0
    7.5372   13.4142   25.3071 N   0  0  0  0  0  0  0  0  0  0  0  0
    8.2614   12.4500   24.6414 C   0  0  0  0  0  0  0  0  0  0  0  0
  2  1  1  6
  2  3  1  0
  3  4  1  0
  2  5  1  0
  5  6  1  0
  6  7  2  0
  6  8  1  0
  8  9  2  0
  9 10  1  0
 10 11  1  0
 10 12  2  0
 12 13  1  0
 13 14  1  0
 14 15  2  0
 15 16  1  0
 16 17  1  0
 17  8  1  0
 17 13  2  0
M  END
>  <alias>  (1647) 
None

>  <rmsd(smina/fragmenstein)>  (1647) 
0.331

>  <smiles>  (1647) 
C[C@@H](CO)NC(=O)c1cc(F)cc2cc[nH]c12

>  <gnina_score>  (1647) 
5.186

>  <inspiration_score>  (1647) 
None

>  <energy_score>  (1647) 
-4.275805

>  <distance_score>  (1647) 
1.151724

>  <gnina_score_min>  (1647) 
5.248

>  <inchikey>  (1647) 
PDDIKAXHYOAPPZ-ZETCQYMHSA-N

>  <exports>  (1647) 
['/opt/xchem-fragalysis-2/maxwin/BulkDock/OUTPUTS/openbind_a71ev2a_c2_elabs_1LOUU54.sdf', '/opt/xchem-fragalysis-2/maxwin/BulkDock/OUTPUTS/openbind_a71ev2a_c2_elabs_1LSYIDY.sdf']

>  <name>  (1647) 
P585078

>  <ref_pdb>  (1647) 
A0566a

>  <subsites>  (1647) 
None

>  <HIPPO Pose ID>  (1647) 
585078

>  <ref_mols>  (1647) 
A0566a

>  <HIPPO Compound ID>  (1647) 
439653

>  <tags>  (1647) 
openbind_a71ev2a_c2_elabs,syndirella_product,openbind_a71ev2a_c2_elabs_fragonly_scored_top80percent,openbind_a71ev2a_c2_elabs_scored,BulkDock Fragalysis export,openbind_a71ev2a_c2_elabs_scored_top80percent,openbind_a71ev2a_c2_elabs_activefrags_only_scored_5.2plus,syndirella_placed

>  <smina_score_min>  (1647) 
-7.005

$$$$
P585084
     RDKit          3D

 17 18  0  0  0  0  0  0  0  0999 V2000
   12.5863   14.8500   21.7157 C   0  0  0  0  0  0  0  0  0  0  0  0
   11.1523   15.1256   21.3036 C   0  0  1  0  0  0  0  0  0  0  0  0
   11.0035   15.0654   19.7760 C   0  0  0  0  0  0  0  0  0  0  0  0
    9.7805   16.2705   19.1953 S   0  0  0  0  0  0  0  0  0  0  0  0
   10.3501   14.1231   21.9650 N   0  0  0  0  0  0  0  0  0  0  0  0
    9.8602   14.0361   23.4163 C   0  0  0  0  0  0  0  0  0  0  0  0
    9.9588   14.7956   24.2935 O   0  0  0  0  0  0  0  0  0  0  0  0
    9.2632   12.7269   23.7076 C   0  0  0  0  0  0  0  0  0  0  0  0
    9.8457   11.5637   23.2151 C   0  0  0  0  0  0  0  0  0  0  0  0
    9.3486   10.3288   23.5821 C   0  0  0  0  0  0  0  0  0  0  0  0
   10.1304    8.9343   23.0023 Cl  0  0  0  0  0  0  0  0  0  0  0  0
    8.2788   10.2109   24.4671 C   0  0  0  0  0  0  0  0  0  0  0  0
    7.6895   11.3728   24.9881 C   0  0  0  0  0  0  0  0  0  0  0  0
    6.6319   11.6225   25.8995 C   0  0  0  0  0  0  0  0  0  0  0  0
    6.5177   12.9861   26.0434 C   0  0  0  0  0  0  0  0  0  0  0  0
    7.4627   13.5758   25.2488 N   0  0  0  0  0  0  0  0  0  0  0  0
    8.1940   12.6093   24.5972 C   0  0  0  0  0  0  0  0  0  0  0  0
  2  1  1  6
  2  3  1  0
  3  4  1  0
  2  5  1  0
  5  6  1  0
  6  7  2  0
  6  8  1  0
  8  9  2  0
  9 10  1  0
 10 11  1  0
 10 12  2  0
 12 13  1  0
 13 14  1  0
 14 15  2  0
 15 16  1  0
 16 17  1  0
 17  8  1  0
 17 13  2  0
M  END
>  <alias>  (1648) 
None

>  <rmsd(smina/fragmenstein)>  (1648) 
0.264

>  <smiles>  (1648) 
C[C@@H](CS)NC(=O)c1cc(Cl)cc2cc[nH]c12

>  <gnina_score>  (1648) 
5.487

>  <inspiration_score>  (1648) 
None

>  <energy_score>  (1648) 
-12.231977

>  <distance_score>  (1648) 
1.178972

>  <gnina_score_min>  (1648) 
5.548

>  <inchikey>  (1648) 
XVMURDHEILDWPT-ZETCQYMHSA-N

>  <exports>  (1648) 
['/opt/xchem-fragalysis-2/maxwin/BulkDock/OUTPUTS/openbind_a71ev2a_c2_elabs_1LOUU54.sdf', '/opt/xchem-fragalysis-2/maxwin/BulkDock/OUTPUTS/openbind_a71ev2a_c2_elabs_1LSYIDY.sdf']

>  <name>  (1648) 
P585084

>  <ref_pdb>  (1648) 
A0566a

>  <subsites>  (1648) 
None

>  <HIPPO Pose ID>  (1648) 
585084

>  <ref_mols>  (1648) 
A0566a

>  <HIPPO Compound ID>  (1648) 
439664

>  <tags>  (1648) 
openbind_a71ev2a_c2_elabs,syndirella_product,openbind_a71ev2a_c2_elabs_fragonly_scored_top80percent,BulkDock Fragalysis export,openbind_a71ev2a_c2_elabs_scored,openbind_a71ev2a_c2_elabs_scored_top80percent,openbind_a71ev2a_c2_elabs_activefrags_only_scored_5.2plus,openbind_a71ev2a_c2_elabs_activefrags_only_scored_5.5plus,syndirella_placed

>  <smina_score_min>  (1648) 
-5.722

$$$$
P585087
     RDKit          3D

 17 18  0  0  0  0  0  0  0  0999 V2000
   10.7678   15.1223   19.1489 C   0  0  0  0  0  0  0  0  0  0  0  0
   10.2959   15.6566   20.4951 C   0  0  0  0  0  0  0  0  0  0  0  0
   11.0477   15.2301   21.6850 N   0  0  0  0  0  0  0  0  0  0  0  0
   12.4688   14.9577   21.5111 C   0  0  0  0  0  0  0  0  0  0  0  0
   10.4623   14.1552   22.2811 N   0  0  0  0  0  0  0  0  0  0  0  0
    9.8210   14.0094   23.6765 C   0  0  0  0  0  0  0  0  0  0  0  0
    9.7613   14.7648   24.5652 O   0  0  0  0  0  0  0  0  0  0  0  0
    9.2482   12.6706   23.8692 C   0  0  0  0  0  0  0  0  0  0  0  0
    9.8340   11.5367   23.3143 C   0  0  0  0  0  0  0  0  0  0  0  0
    9.3339   10.2842   23.6122 C   0  0  0  0  0  0  0  0  0  0  0  0
   10.1320    8.9243   22.9772 Cl  0  0  0  0  0  0  0  0  0  0  0  0
    8.2554   10.1195   24.4783 C   0  0  0  0  0  0  0  0  0  0  0  0
    7.6474   11.2501   25.0418 C   0  0  0  0  0  0  0  0  0  0  0  0
    6.5738   11.4517   25.9460 C   0  0  0  0  0  0  0  0  0  0  0  0
    6.4459   12.8066   26.1482 C   0  0  0  0  0  0  0  0  0  0  0  0
    7.4015   13.4360   25.3998 N   0  0  0  0  0  0  0  0  0  0  0  0
    8.1532   12.5033   24.7206 C   0  0  0  0  0  0  0  0  0  0  0  0
  1  2  1  0
  2  3  1  0
  3  4  1  0
  3  5  1  0
  5  6  1  0
  6  7  2  0
  6  8  1  0
  8  9  2  0
  9 10  1  0
 10 11  1  0
 10 12  2  0
 12 13  1  0
 13 14  1  0
 14 15  2  0
 15 16  1  0
 16 17  1  0
 17  8  1  0
 17 13  2  0
M  END
>  <alias>  (1649) 
None

>  <rmsd(smina/fragmenstein)>  (1649) 
0.302

>  <smiles>  (1649) 
CCN(C)NC(=O)c1cc(Cl)cc2cc[nH]c12

>  <gnina_score>  (1649) 
5.594

>  <inspiration_score>  (1649) 
None

>  <energy_score>  (1649) 
-0.584606

>  <distance_score>  (1649) 
1.211674

>  <gnina_score_min>  (1649) 
5.511

>  <inchikey>  (1649) 
DZRINUVSYUSTLH-UHFFFAOYSA-N

>  <exports>  (1649) 
['/opt/xchem-fragalysis-2/maxwin/BulkDock/OUTPUTS/openbind_a71ev2a_c2_elabs_1LOUU54.sdf', '/opt/xchem-fragalysis-2/maxwin/BulkDock/OUTPUTS/openbind_a71ev2a_c2_elabs_1LSYIDY.sdf']

>  <name>  (1649) 
P585087

>  <ref_pdb>  (1649) 
A0566a

>  <subsites>  (1649) 
None

>  <HIPPO Pose ID>  (1649) 
585087

>  <ref_mols>  (1649) 
A0566a

>  <HIPPO Compound ID>  (1649) 
439678

>  <tags>  (1649) 
openbind_a71ev2a_c2_elabs,syndirella_product,openbind_a71ev2a_c2_elabs_fragonly_scored_top80percent,BulkDock Fragalysis export,openbind_a71ev2a_c2_elabs_scored,openbind_a71ev2a_c2_elabs_scored_top80percent,openbind_a71ev2a_c2_elabs_activefrags_only_scored_5.2plus,openbind_a71ev2a_c2_elabs_activefrags_only_scored_5.5plus,syndirella_placed

>  <smina_score_min>  (1649) 
-5.78

$$$$
P585089
     RDKit          3D

 17 18  0  0  0  0  0  0  0  0999 V2000
   11.1084   15.1257   18.8841 C   0  0  0  0  0  0  0  0  0  0  0  0
   11.6646   14.7459   20.0369 C   0  0  0  0  0  0  0  0  0  0  0  0
   12.7167   13.9019   19.9663 F   0  0  0  0  0  0  0  0  0  0  0  0
   11.2237   15.2166   21.3809 C   0  0  0  0  0  0  0  0  0  0  0  0
   10.5357   14.1435   22.0306 N   0  0  0  0  0  0  0  0  0  0  0  0
   10.0239   14.0148   23.4696 C   0  0  0  0  0  0  0  0  0  0  0  0
   10.0103   14.7897   24.3384 O   0  0  0  0  0  0  0  0  0  0  0  0
    9.4009   12.7078   23.7280 C   0  0  0  0  0  0  0  0  0  0  0  0
    9.9376   11.5375   23.2105 C   0  0  0  0  0  0  0  0  0  0  0  0
    9.3980   10.3131   23.5562 C   0  0  0  0  0  0  0  0  0  0  0  0
   10.1480    8.9027   22.9762 Cl  0  0  0  0  0  0  0  0  0  0  0  0
    8.3160   10.2115   24.4285 C   0  0  0  0  0  0  0  0  0  0  0  0
    7.7505   11.3820   24.9527 C   0  0  0  0  0  0  0  0  0  0  0  0
    6.6813   11.6507   25.8454 C   0  0  0  0  0  0  0  0  0  0  0  0
    6.6021   13.0151   26.0027 C   0  0  0  0  0  0  0  0  0  0  0  0
    7.5826   13.5854   25.2378 N   0  0  0  0  0  0  0  0  0  0  0  0
    8.3038   12.6061   24.5914 C   0  0  0  0  0  0  0  0  0  0  0  0
  1  2  2  0
  2  3  1  0
  2  4  1  0
  4  5  1  0
  5  6  1  0
  6  7  2  0
  6  8  1  0
  8  9  2  0
  9 10  1  0
 10 11  1  0
 10 12  2  0
 12 13  1  0
 13 14  1  0
 14 15  2  0
 15 16  1  0
 16 17  1  0
 17  8  1  0
 17 13  2  0
M  END
>  <alias>  (1650) 
None

>  <rmsd(smina/fragmenstein)>  (1650) 
0.782

>  <smiles>  (1650) 
C=C(F)CNC(=O)c1cc(Cl)cc2cc[nH]c12

>  <gnina_score>  (1650) 
5.068

>  <inspiration_score>  (1650) 
None

>  <energy_score>  (1650) 
-0.503587

>  <distance_score>  (1650) 
1.090558

>  <gnina_score_min>  (1650) 
5.267

>  <inchikey>  (1650) 
XRMDSUCFVCLTAC-UHFFFAOYSA-N

>  <exports>  (1650) 
['/opt/xchem-fragalysis-2/maxwin/BulkDock/OUTPUTS/openbind_a71ev2a_c2_elabs_1LOUU54.sdf', '/opt/xchem-fragalysis-2/maxwin/BulkDock/OUTPUTS/openbind_a71ev2a_c2_elabs_1LSYIDY.sdf']

>  <name>  (1650) 
P585089

>  <ref_pdb>  (1650) 
A0566a

>  <subsites>  (1650) 
None

>  <HIPPO Pose ID>  (1650) 
585089

>  <ref_mols>  (1650) 
A0566a

>  <HIPPO Compound ID>  (1650) 
439688

>  <tags>  (1650) 
openbind_a71ev2a_c2_elabs,syndirella_product,openbind_a71ev2a_c2_elabs_fragonly_scored_top80percent,openbind_a71ev2a_c2_elabs_scored,BulkDock Fragalysis export,openbind_a71ev2a_c2_elabs_scored_top80percent,openbind_a71ev2a_c2_elabs_activefrags_only_scored_5.2plus,syndirella_placed

>  <smina_score_min>  (1650) 
-5.94

$$$$
P585091
     RDKit          3D

 17 18  0  0  0  0  0  0  0  0999 V2000
    9.9735   16.1719   19.2041 C   0  0  0  0  0  0  0  0  0  0  0  0
   10.1355   15.9922   20.7065 C   0  0  0  0  0  0  0  0  0  0  0  0
   11.1500   14.8989   21.0722 C   0  0  1  0  0  0  0  0  0  0  0  0
   12.3563   15.3527   21.8821 C   0  0  0  0  0  0  0  0  0  0  0  0
   10.5118   13.8687   21.8404 N   0  0  0  0  0  0  0  0  0  0  0  0
    9.8712   13.9157   23.2383 C   0  0  0  0  0  0  0  0  0  0  0  0
    9.8271   14.7783   24.0207 O   0  0  0  0  0  0  0  0  0  0  0  0
    9.2985   12.6198   23.6259 C   0  0  0  0  0  0  0  0  0  0  0  0
    9.8774   11.4336   23.1978 C   0  0  0  0  0  0  0  0  0  0  0  0
    9.3726   10.2182   23.6039 C   0  0  0  0  0  0  0  0  0  0  0  0
   10.1801    8.8180   23.0793 Cl  0  0  0  0  0  0  0  0  0  0  0  0
    8.2931   10.1400   24.4796 C   0  0  0  0  0  0  0  0  0  0  0  0
    7.7141   11.3260   24.9583 C   0  0  0  0  0  0  0  0  0  0  0  0
    6.6574   11.6187   25.8585 C   0  0  0  0  0  0  0  0  0  0  0  0
    6.5510   12.9877   25.9473 C   0  0  0  0  0  0  0  0  0  0  0  0
    7.4969   13.5389   25.1270 N   0  0  0  0  0  0  0  0  0  0  0  0
    8.2274   12.5428   24.5194 C   0  0  0  0  0  0  0  0  0  0  0  0
  1  2  1  0
  2  3  1  0
  3  4  1  1
  3  5  1  0
  5  6  1  0
  6  7  2  0
  6  8  1  0
  8  9  2  0
  9 10  1  0
 10 11  1  0
 10 12  2  0
 12 13  1  0
 13 14  1  0
 14 15  2  0
 15 16  1  0
 16 17  1  0
 17  8  1  0
 17 13  2  0
M  END
>  <alias>  (1651) 
None

>  <rmsd(smina/fragmenstein)>  (1651) 
0.123

>  <smiles>  (1651) 
CC[C@@H](C)NC(=O)c1cc(Cl)cc2cc[nH]c12

>  <gnina_score>  (1651) 
5.422

>  <inspiration_score>  (1651) 
None

>  <energy_score>  (1651) 
-1.678268

>  <distance_score>  (1651) 
1.213998

>  <gnina_score_min>  (1651) 
5.381

>  <inchikey>  (1651) 
BJYILDYEBOKMQD-MRVPVSSYSA-N

>  <exports>  (1651) 
['/opt/xchem-fragalysis-2/maxwin/BulkDock/OUTPUTS/openbind_a71ev2a_c2_elabs_1LOUU54.sdf', '/opt/xchem-fragalysis-2/maxwin/BulkDock/OUTPUTS/openbind_a71ev2a_c2_elabs_1LSYIDY.sdf']

>  <name>  (1651) 
P585091

>  <ref_pdb>  (1651) 
A0566a

>  <subsites>  (1651) 
None

>  <HIPPO Pose ID>  (1651) 
585091

>  <ref_mols>  (1651) 
A0566a

>  <HIPPO Compound ID>  (1651) 
439691

>  <tags>  (1651) 
openbind_a71ev2a_c2_elabs,syndirella_product,openbind_a71ev2a_c2_elabs_fragonly_scored_top80percent,openbind_a71ev2a_c2_elabs_scored,BulkDock Fragalysis export,openbind_a71ev2a_c2_elabs_scored_top80percent,openbind_a71ev2a_c2_elabs_activefrags_only_scored_5.2plus,syndirella_placed

>  <smina_score_min>  (1651) 
-5.783

$$$$
P585095
     RDKit          3D

 17 18  0  0  0  0  0  0  0  0999 V2000
   12.6604   15.1193   22.4097 C   0  0  0  0  0  0  0  0  0  0  0  0
   12.0979   14.9940   21.2072 C   0  0  0  0  0  0  0  0  0  0  0  0
   10.6378   15.2104   21.0005 C   0  0  1  0  0  0  0  0  0  0  0  0
   10.2855   15.2662   19.5306 C   0  0  0  0  0  0  0  0  0  0  0  0
   10.0293   14.1277   21.7145 N   0  0  0  0  0  0  0  0  0  0  0  0
    9.4880   14.0578   23.1542 C   0  0  0  0  0  0  0  0  0  0  0  0
    9.3806   14.8913   23.9630 O   0  0  0  0  0  0  0  0  0  0  0  0
    9.1016   12.7001   23.5739 C   0  0  0  0  0  0  0  0  0  0  0  0
    9.7799   11.5606   23.1538 C   0  0  0  0  0  0  0  0  0  0  0  0
    9.3606   10.3102   23.5740 C   0  0  0  0  0  0  0  0  0  0  0  0
   10.1850    8.9298   23.0179 Cl  0  0  0  0  0  0  0  0  0  0  0  0
    8.3093   10.1570   24.4758 C   0  0  0  0  0  0  0  0  0  0  0  0
    7.6703   11.2961   24.9797 C   0  0  0  0  0  0  0  0  0  0  0  0
    6.6275   11.5132   25.9164 C   0  0  0  0  0  0  0  0  0  0  0  0
    6.4287   12.8709   26.0111 C   0  0  0  0  0  0  0  0  0  0  0  0
    7.2972   13.4838   25.1509 N   0  0  0  0  0  0  0  0  0  0  0  0
    8.0759   12.5409   24.5154 C   0  0  0  0  0  0  0  0  0  0  0  0
  1  2  2  0
  2  3  1  0
  3  4  1  6
  3  5  1  0
  5  6  1  0
  6  7  2  0
  6  8  1  0
  8  9  2  0
  9 10  1  0
 10 11  1  0
 10 12  2  0
 12 13  1  0
 13 14  1  0
 14 15  2  0
 15 16  1  0
 16 17  1  0
 17  8  1  0
 17 13  2  0
M  END
>  <alias>  (1652) 
None

>  <rmsd(smina/fragmenstein)>  (1652) 
0.221

>  <smiles>  (1652) 
C=C[C@@H](C)NC(=O)c1cc(Cl)cc2cc[nH]c12

>  <gnina_score>  (1652) 
5.308

>  <inspiration_score>  (1652) 
None

>  <energy_score>  (1652) 
-4.872027

>  <distance_score>  (1652) 
1.4316

>  <gnina_score_min>  (1652) 
5.286

>  <inchikey>  (1652) 
QEXNQAGNHFACRR-MRVPVSSYSA-N

>  <exports>  (1652) 
['/opt/xchem-fragalysis-2/maxwin/BulkDock/OUTPUTS/openbind_a71ev2a_c2_elabs_1LOUU54.sdf', '/opt/xchem-fragalysis-2/maxwin/BulkDock/OUTPUTS/openbind_a71ev2a_c2_elabs_1LSYIDY.sdf']

>  <name>  (1652) 
P585095

>  <ref_pdb>  (1652) 
A0566a

>  <subsites>  (1652) 
None

>  <HIPPO Pose ID>  (1652) 
585095

>  <ref_mols>  (1652) 
A0566a

>  <HIPPO Compound ID>  (1652) 
439700

>  <tags>  (1652) 
openbind_a71ev2a_c2_elabs,syndirella_product,openbind_a71ev2a_c2_elabs_fragonly_scored_top80percent,openbind_a71ev2a_c2_elabs_scored,BulkDock Fragalysis export,openbind_a71ev2a_c2_elabs_scored_top80percent,openbind_a71ev2a_c2_elabs_activefrags_only_scored_5.2plus,syndirella_placed

>  <smina_score_min>  (1652) 
-6.011

$$$$
P585097
     RDKit          3D

 17 19  0  0  0  0  0  0  0  0999 V2000
    9.5204   14.8933   24.3134 O   0  0  0  0  0  0  0  0  0  0  0  0
    9.6858   14.1006   23.4705 C   0  0  0  0  0  0  0  0  0  0  0  0
   10.1736   14.2734   22.0136 N   0  0  0  0  0  0  0  0  0  0  0  0
   10.4551   15.4120   21.2952 N   0  0  0  0  0  0  0  0  0  0  0  0
   10.8308   15.1232   19.8847 C   0  0  0  0  0  0  0  0  0  0  0  0
    9.8712   16.2561   19.4621 C   0  0  0  0  0  0  0  0  0  0  0  0
    9.1670   15.9666   20.7814 C   0  0  0  0  0  0  0  0  0  0  0  0
    9.2829   12.7184   23.7833 C   0  0  0  0  0  0  0  0  0  0  0  0
    9.8879   11.5914   23.2415 C   0  0  0  0  0  0  0  0  0  0  0  0
    9.4046   10.3315   23.5623 C   0  0  0  0  0  0  0  0  0  0  0  0
   10.1667    8.9552   22.9194 Cl  0  0  0  0  0  0  0  0  0  0  0  0
    8.3369   10.1523   24.4409 C   0  0  0  0  0  0  0  0  0  0  0  0
    7.7235   11.2735   25.0073 C   0  0  0  0  0  0  0  0  0  0  0  0
    6.6505   11.4628   25.9152 C   0  0  0  0  0  0  0  0  0  0  0  0
    6.4949   12.8166   26.0993 C   0  0  0  0  0  0  0  0  0  0  0  0
    7.4282   13.4539   25.3305 N   0  0  0  0  0  0  0  0  0  0  0  0
    8.2054   12.5291   24.6643 C   0  0  0  0  0  0  0  0  0  0  0  0
  1  2  2  0
  2  3  1  0
  3  4  1  0
  4  5  1  0
  5  6  1  0
  6  7  1  0
  2  8  1  0
  8  9  2  0
  9 10  1  0
 10 11  1  0
 10 12  2  0
 12 13  1  0
 13 14  1  0
 14 15  2  0
 15 16  1  0
 16 17  1  0
  7  4  1  0
 17  8  1  0
 17 13  2  0
M  END
>  <alias>  (1653) 
None

>  <rmsd(smina/fragmenstein)>  (1653) 
0.845

>  <smiles>  (1653) 
O=C(NN1CCC1)c1cc(Cl)cc2cc[nH]c12

>  <gnina_score>  (1653) 
5.48

>  <inspiration_score>  (1653) 
None

>  <energy_score>  (1653) 
-2.671259

>  <distance_score>  (1653) 
1.332475

>  <gnina_score_min>  (1653) 
5.461

>  <inchikey>  (1653) 
KPABCCIRQZTBOQ-UHFFFAOYSA-N

>  <exports>  (1653) 
['/opt/xchem-fragalysis-2/maxwin/BulkDock/OUTPUTS/openbind_a71ev2a_c2_elabs_1LOUU54.sdf', '/opt/xchem-fragalysis-2/maxwin/BulkDock/OUTPUTS/openbind_a71ev2a_c2_elabs_1LSYIDY.sdf']

>  <name>  (1653) 
P585097

>  <ref_pdb>  (1653) 
A0566a

>  <subsites>  (1653) 
None

>  <HIPPO Pose ID>  (1653) 
585097

>  <ref_mols>  (1653) 
A0566a

>  <HIPPO Compound ID>  (1653) 
439711

>  <tags>  (1653) 
openbind_a71ev2a_c2_elabs,syndirella_product,openbind_a71ev2a_c2_elabs_fragonly_scored_top80percent,openbind_a71ev2a_c2_elabs_scored,BulkDock Fragalysis export,openbind_a71ev2a_c2_elabs_scored_top80percent,openbind_a71ev2a_c2_elabs_activefrags_only_scored_5.2plus,syndirella_placed

>  <smina_score_min>  (1653) 
-5.936

$$$$
P585099
     RDKit          3D

 17 18  0  0  0  0  0  0  0  0999 V2000
   10.6687   15.0945   19.7383 C   0  0  0  0  0  0  0  0  0  0  0  0
   10.9953   15.1132   21.2228 C   0  0  2  0  0  0  0  0  0  0  0  0
   12.4709   14.8552   21.5076 C   0  0  0  0  0  0  0  0  0  0  0  0
   12.6777   14.8570   22.8577 F   0  0  0  0  0  0  0  0  0  0  0  0
   10.2439   14.0878   21.9055 N   0  0  0  0  0  0  0  0  0  0  0  0
    9.7369   14.0191   23.3536 C   0  0  0  0  0  0  0  0  0  0  0  0
    9.7769   14.8116   24.2064 O   0  0  0  0  0  0  0  0  0  0  0  0
    9.2086   12.6908   23.6897 C   0  0  0  0  0  0  0  0  0  0  0  0
    9.8227   11.5336   23.2225 C   0  0  0  0  0  0  0  0  0  0  0  0
    9.3466   10.2936   23.5993 C   0  0  0  0  0  0  0  0  0  0  0  0
   10.1529    8.9097   23.0271 Cl  0  0  0  0  0  0  0  0  0  0  0  0
    8.2770   10.1647   24.4827 C   0  0  0  0  0  0  0  0  0  0  0  0
    7.6718   11.3200   24.9992 C   0  0  0  0  0  0  0  0  0  0  0  0
    6.6158   11.5599   25.9153 C   0  0  0  0  0  0  0  0  0  0  0  0
    6.4781   12.9226   26.0465 C   0  0  0  0  0  0  0  0  0  0  0  0
    7.4042   13.5206   25.2364 N   0  0  0  0  0  0  0  0  0  0  0  0
    8.1492   12.5603   24.5903 C   0  0  0  0  0  0  0  0  0  0  0  0
  2  1  1  6
  2  3  1  0
  3  4  1  0
  2  5  1  0
  5  6  1  0
  6  7  2  0
  6  8  1  0
  8  9  2  0
  9 10  1  0
 10 11  1  0
 10 12  2  0
 12 13  1  0
 13 14  1  0
 14 15  2  0
 15 16  1  0
 16 17  1  0
 17  8  1  0
 17 13  2  0
M  END
>  <alias>  (1654) 
None

>  <rmsd(smina/fragmenstein)>  (1654) 
0.463

>  <smiles>  (1654) 
C[C@H](CF)NC(=O)c1cc(Cl)cc2cc[nH]c12

>  <gnina_score>  (1654) 
5.379

>  <inspiration_score>  (1654) 
None

>  <energy_score>  (1654) 
-1.502961

>  <distance_score>  (1654) 
1.259433

>  <gnina_score_min>  (1654) 
5.293

>  <inchikey>  (1654) 
NEXMLVHTTUEQGF-SSDOTTSWSA-N

>  <exports>  (1654) 
['/opt/xchem-fragalysis-2/maxwin/BulkDock/OUTPUTS/openbind_a71ev2a_c2_elabs_1LOUU54.sdf', '/opt/xchem-fragalysis-2/maxwin/BulkDock/OUTPUTS/openbind_a71ev2a_c2_elabs_1LSYIDY.sdf']

>  <name>  (1654) 
P585099

>  <ref_pdb>  (1654) 
A0566a

>  <subsites>  (1654) 
None

>  <HIPPO Pose ID>  (1654) 
585099

>  <ref_mols>  (1654) 
A0566a

>  <HIPPO Compound ID>  (1654) 
439724

>  <tags>  (1654) 
openbind_a71ev2a_c2_elabs,syndirella_product,openbind_a71ev2a_c2_elabs_fragonly_scored_top80percent,openbind_a71ev2a_c2_elabs_scored,BulkDock Fragalysis export,openbind_a71ev2a_c2_elabs_scored_top80percent,openbind_a71ev2a_c2_elabs_activefrags_only_scored_5.2plus,syndirella_placed

>  <smina_score_min>  (1654) 
-6.14

$$$$
P585100
     RDKit          3D

 17 18  0  0  0  0  0  0  0  0999 V2000
   10.3610   14.7131   24.2529 O   0  0  0  0  0  0  0  0  0  0  0  0
   10.2305   13.9597   23.3745 C   0  0  0  0  0  0  0  0  0  0  0  0
   10.6752   14.0534   21.9081 N   0  0  0  0  0  0  0  0  0  0  0  0
   11.4513   15.0428   21.2370 C   0  0  0  0  0  0  0  0  0  0  0  0
   10.9499   15.1237   19.8364 C   0  0  0  0  0  0  0  0  0  0  0  0
   10.0480   15.9888   19.3623 C   0  0  0  0  0  0  0  0  0  0  0  0
    9.2177   17.1495   20.3008 Cl  0  0  0  0  0  0  0  0  0  0  0  0
    9.5118   12.7098   23.6587 C   0  0  0  0  0  0  0  0  0  0  0  0
    9.9921   11.5052   23.1725 C   0  0  0  0  0  0  0  0  0  0  0  0
    9.4101   10.3123   23.5481 C   0  0  0  0  0  0  0  0  0  0  0  0
   10.1335    8.8721   23.0099 Cl  0  0  0  0  0  0  0  0  0  0  0  0
    8.3229   10.2756   24.4173 C   0  0  0  0  0  0  0  0  0  0  0  0
    7.8023   11.4848   24.9041 C   0  0  0  0  0  0  0  0  0  0  0  0
    6.7381   11.8203   25.7803 C   0  0  0  0  0  0  0  0  0  0  0  0
    6.7159   13.1904   25.9041 C   0  0  0  0  0  0  0  0  0  0  0  0
    7.7280   13.7017   25.1371 N   0  0  0  0  0  0  0  0  0  0  0  0
    8.4094   12.6784   24.5181 C   0  0  0  0  0  0  0  0  0  0  0  0
  1  2  2  0
  2  3  1  0
  3  4  1  0
  4  5  1  0
  5  6  2  0
  6  7  1  0
  2  8  1  0
  8  9  2  0
  9 10  1  0
 10 11  1  0
 10 12  2  0
 12 13  1  0
 13 14  1  0
 14 15  2  0
 15 16  1  0
 16 17  1  0
 17  8  1  0
 17 13  2  0
M  END
>  <alias>  (1655) 
None

>  <rmsd(smina/fragmenstein)>  (1655) 
0.328

>  <smiles>  (1655) 
O=C(NC/C=C\Cl)c1cc(Cl)cc2cc[nH]c12

>  <gnina_score>  (1655) 
5.54

>  <inspiration_score>  (1655) 
None

>  <energy_score>  (1655) 
-1.08723

>  <distance_score>  (1655) 
0.98719

>  <gnina_score_min>  (1655) 
5.466

>  <inchikey>  (1655) 
AUPUBYORVHYABW-IWQZZHSRSA-N

>  <exports>  (1655) 
['/opt/xchem-fragalysis-2/maxwin/BulkDock/OUTPUTS/openbind_a71ev2a_c2_elabs_1LOUU54.sdf', '/opt/xchem-fragalysis-2/maxwin/BulkDock/OUTPUTS/openbind_a71ev2a_c2_elabs_1LSYIDY.sdf']

>  <name>  (1655) 
P585100

>  <ref_pdb>  (1655) 
A0566a

>  <subsites>  (1655) 
None

>  <HIPPO Pose ID>  (1655) 
585100

>  <ref_mols>  (1655) 
A0566a

>  <HIPPO Compound ID>  (1655) 
439728

>  <tags>  (1655) 
openbind_a71ev2a_c2_elabs,syndirella_product,openbind_a71ev2a_c2_elabs_fragonly_scored_top80percent,openbind_a71ev2a_c2_elabs_scored,BulkDock Fragalysis export,openbind_a71ev2a_c2_elabs_scored_top80percent,openbind_a71ev2a_c2_elabs_activefrags_only_scored_5.2plus,syndirella_placed

>  <smina_score_min>  (1655) 
-5.995

$$$$
P585110
     RDKit          3D

 17 18  0  0  0  0  0  0  0  0999 V2000
   12.3457   14.4686   20.4896 C   0  0  0  0  0  0  0  0  0  0  0  0
   11.1155   15.2203   20.9728 C   0  0  1  0  0  0  0  0  0  0  0  0
   10.2615   15.7537   19.8183 C   0  0  0  0  0  0  0  0  0  0  0  0
    9.1975   17.0686   20.3704 Cl  0  0  0  0  0  0  0  0  0  0  0  0
   10.3824   14.3458   21.8514 N   0  0  0  0  0  0  0  0  0  0  0  0
   10.5919   14.0195   23.3260 C   0  0  0  0  0  0  0  0  0  0  0  0
   11.3422   14.4593   24.0961 O   0  0  0  0  0  0  0  0  0  0  0  0
    9.6244   13.0064   23.7456 C   0  0  0  0  0  0  0  0  0  0  0  0
    9.7741   11.6630   23.3852 C   0  0  0  0  0  0  0  0  0  0  0  0
    8.9135   10.7008   23.9059 C   0  0  0  0  0  0  0  0  0  0  0  0
    7.8888   11.1000   24.7698 C   0  0  0  0  0  0  0  0  0  0  0  0
    6.7834    9.8898   25.6642 Br  0  0  0  0  0  0  0  0  0  0  0  0
    7.6623   12.4523   25.0557 C   0  0  0  0  0  0  0  0  0  0  0  0
    6.7013   13.1629   25.8262 C   0  0  0  0  0  0  0  0  0  0  0  0
    7.0122   14.4971   25.7503 C   0  0  0  0  0  0  0  0  0  0  0  0
    8.1267   14.6214   24.9696 N   0  0  0  0  0  0  0  0  0  0  0  0
    8.5462   13.3866   24.5406 C   0  0  0  0  0  0  0  0  0  0  0  0
  2  1  1  6
  2  3  1  0
  3  4  1  0
  2  5  1  0
  5  6  1  0
  6  7  2  0
  6  8  1  0
  8  9  2  0
  9 10  1  0
 10 11  2  0
 11 12  1  0
 11 13  1  0
 13 14  1  0
 14 15  2  0
 15 16  1  0
 16 17  1  0
 17  8  1  0
 17 13  2  0
M  END
>  <alias>  (1656) 
None

>  <rmsd(smina/fragmenstein)>  (1656) 
0.502

>  <smiles>  (1656) 
C[C@@H](CCl)NC(=O)c1ccc(Br)c2cc[nH]c12

>  <gnina_score>  (1656) 
5.337

>  <inspiration_score>  (1656) 
None

>  <energy_score>  (1656) 
-0.312545

>  <distance_score>  (1656) 
1.304206

>  <gnina_score_min>  (1656) 
5.223

>  <inchikey>  (1656) 
POHNHFOBSQJNDE-ZETCQYMHSA-N

>  <exports>  (1656) 
['/opt/xchem-fragalysis-2/maxwin/BulkDock/OUTPUTS/openbind_a71ev2a_c2_elabs_1LOUU54.sdf', '/opt/xchem-fragalysis-2/maxwin/BulkDock/OUTPUTS/openbind_a71ev2a_c2_elabs_1LSYIDY.sdf']

>  <name>  (1656) 
P585110

>  <ref_pdb>  (1656) 
A0566a

>  <subsites>  (1656) 
None

>  <HIPPO Pose ID>  (1656) 
585110

>  <ref_mols>  (1656) 
A0566a

>  <HIPPO Compound ID>  (1656) 
439766

>  <tags>  (1656) 
openbind_a71ev2a_c2_elabs,syndirella_product,openbind_a71ev2a_c2_elabs_fragonly_scored_top80percent,openbind_a71ev2a_c2_elabs_scored,BulkDock Fragalysis export,openbind_a71ev2a_c2_elabs_scored_top80percent,openbind_a71ev2a_c2_elabs_activefrags_only_scored_5.2plus,syndirella_placed

>  <smina_score_min>  (1656) 
-6.128

$$$$
P585112
     RDKit          3D

 18 19  0  0  0  0  0  0  0  0999 V2000
    8.2651    9.3104   24.3798 C   0  0  0  0  0  0  0  0  0  0  0  0
    8.1593   10.4929   25.1131 O   0  0  0  0  0  0  0  0  0  0  0  0
    8.7247   11.5071   24.4168 C   0  0  0  0  0  0  0  0  0  0  0  0
    9.8501   11.3563   23.5920 C   0  0  0  0  0  0  0  0  0  0  0  0
   10.4333   12.4538   23.0119 C   0  0  0  0  0  0  0  0  0  0  0  0
    9.8311   13.6935   23.1446 C   0  0  0  0  0  0  0  0  0  0  0  0
   10.3917   14.7382   22.3079 C   0  0  0  0  0  0  0  0  0  0  0  0
   11.3212   15.3462   22.6448 O   0  0  0  0  0  0  0  0  0  0  0  0
    9.5768   14.8077   21.0193 N   0  0  0  0  0  0  0  0  0  0  0  0
    9.7853   15.5769   19.8214 C   0  0  2  0  0  0  0  0  0  0  0  0
   11.1217   15.2054   19.1985 C   0  0  0  0  0  0  0  0  0  0  0  0
    9.5170   17.0428   20.1486 C   0  0  0  0  0  0  0  0  0  0  0  0
    9.2439   18.0464   18.6715 S   0  0  0  0  0  0  0  0  0  0  0  0
    8.6597   13.8369   23.8983 C   0  0  0  0  0  0  0  0  0  0  0  0
    7.8038   14.8890   24.1158 N   0  0  0  0  0  0  0  0  0  0  0  0
    6.8145   14.5269   24.9943 C   0  0  0  0  0  0  0  0  0  0  0  0
    6.9743   13.1963   25.2853 C   0  0  0  0  0  0  0  0  0  0  0  0
    8.1175   12.7520   24.5741 C   0  0  0  0  0  0  0  0  0  0  0  0
  1  2  1  0
  2  3  1  0
  3  4  2  0
  4  5  1  0
  5  6  2  0
  6  7  1  0
  7  8  2  0
  7  9  1  0
  9 10  1  0
 10 11  1  1
 10 12  1  0
 12 13  1  0
  6 14  1  0
 14 15  1  0
 15 16  1  0
 16 17  2  0
 17 18  1  0
 18  3  1  0
 18 14  2  0
M  END
>  <alias>  (1657) 
None

>  <rmsd(smina/fragmenstein)>  (1657) 
0.66

>  <smiles>  (1657) 
COc1ccc(C(=O)N[C@H](C)CS)c2[nH]ccc12

>  <gnina_score>  (1657) 
5.261

>  <inspiration_score>  (1657) 
None

>  <energy_score>  (1657) 
-2.444624

>  <distance_score>  (1657) 
1.897135

>  <gnina_score_min>  (1657) 
5.248

>  <inchikey>  (1657) 
VLGXIEORCLPJOG-MRVPVSSYSA-N

>  <exports>  (1657) 
['/opt/xchem-fragalysis-2/maxwin/BulkDock/OUTPUTS/openbind_a71ev2a_c2_elabs_1LOUU54.sdf', '/opt/xchem-fragalysis-2/maxwin/BulkDock/OUTPUTS/openbind_a71ev2a_c2_elabs_1LSYIDY.sdf']

>  <name>  (1657) 
P585112

>  <ref_pdb>  (1657) 
A0566a

>  <subsites>  (1657) 
None

>  <HIPPO Pose ID>  (1657) 
585112

>  <ref_mols>  (1657) 
A0566a

>  <HIPPO Compound ID>  (1657) 
439781

>  <tags>  (1657) 
openbind_a71ev2a_c2_elabs,syndirella_product,openbind_a71ev2a_c2_elabs_fragonly_scored_top80percent,openbind_a71ev2a_c2_elabs_scored,BulkDock Fragalysis export,openbind_a71ev2a_c2_elabs_scored_top80percent,openbind_a71ev2a_c2_elabs_activefrags_only_scored_5.2plus,syndirella_placed

>  <smina_score_min>  (1657) 
-5.151

$$$$
P585116
     RDKit          3D

 18 20  0  0  0  0  0  0  0  0999 V2000
    6.0003   10.1570   26.5958 C   0  0  0  0  0  0  0  0  0  0  0  0
    6.8265    9.7496   25.5103 O   0  0  0  0  0  0  0  0  0  0  0  0
    7.6409   10.7257   24.9583 C   0  0  0  0  0  0  0  0  0  0  0  0
    8.6497   10.2448   24.0995 C   0  0  0  0  0  0  0  0  0  0  0  0
    9.6139   11.0827   23.5565 C   0  0  0  0  0  0  0  0  0  0  0  0
    9.6191   12.4219   23.9195 C   0  0  0  0  0  0  0  0  0  0  0  0
   10.7077   13.3538   23.6003 C   0  0  0  0  0  0  0  0  0  0  0  0
   11.1311   14.0260   24.4516 O   0  0  0  0  0  0  0  0  0  0  0  0
   11.0275   13.3270   22.1066 N   0  0  0  0  0  0  0  0  0  0  0  0
   11.8773   14.1935   21.3063 C   0  0  0  0  0  0  0  0  0  0  0  0
   11.2709   14.6391   19.9319 C   0  0  0  0  0  0  0  0  0  0  0  0
   10.2836   15.8836   20.8157 S   0  0  0  0  0  0  0  0  0  0  0  0
   11.8201   15.6407   21.8189 C   0  0  0  0  0  0  0  0  0  0  0  0
    8.5384   12.9265   24.6493 C   0  0  0  0  0  0  0  0  0  0  0  0
    8.2610   14.2272   25.0052 N   0  0  0  0  0  0  0  0  0  0  0  0
    7.0869   14.2872   25.6888 C   0  0  0  0  0  0  0  0  0  0  0  0
    6.6089   13.0044   25.7947 C   0  0  0  0  0  0  0  0  0  0  0  0
    7.5268   12.1180   25.1589 C   0  0  0  0  0  0  0  0  0  0  0  0
  1  2  1  0
  2  3  1  0
  3  4  2  0
  4  5  1  0
  5  6  2  0
  6  7  1  0
  7  8  2  0
  7  9  1  0
  9 10  1  0
 10 11  1  0
 11 12  1  0
 12 13  1  0
  6 14  1  0
 14 15  1  0
 15 16  1  0
 16 17  2  0
 17 18  1  0
 18  3  1  0
 13 10  1  0
 18 14  2  0
M  END
>  <alias>  (1658) 
None

>  <rmsd(smina/fragmenstein)>  (1658) 
0.736

>  <smiles>  (1658) 
COc1ccc(C(=O)NC2CSC2)c2[nH]ccc12

>  <gnina_score>  (1658) 
5.206

>  <inspiration_score>  (1658) 
None

>  <energy_score>  (1658) 
-48.573939

>  <distance_score>  (1658) 
1.267543

>  <gnina_score_min>  (1658) 
5.259

>  <inchikey>  (1658) 
NNQLYLOWYGJSPK-UHFFFAOYSA-N

>  <exports>  (1658) 
['/opt/xchem-fragalysis-2/maxwin/BulkDock/OUTPUTS/openbind_a71ev2a_c2_elabs_1LOUU54.sdf', '/opt/xchem-fragalysis-2/maxwin/BulkDock/OUTPUTS/openbind_a71ev2a_c2_elabs_1LSYIDY.sdf']

>  <name>  (1658) 
P585116

>  <ref_pdb>  (1658) 
A0566a

>  <subsites>  (1658) 
None

>  <HIPPO Pose ID>  (1658) 
585116

>  <ref_mols>  (1658) 
A0566a

>  <HIPPO Compound ID>  (1658) 
439791

>  <tags>  (1658) 
openbind_a71ev2a_c2_elabs,syndirella_product,openbind_a71ev2a_c2_elabs_fragonly_scored_top80percent,openbind_a71ev2a_c2_elabs_scored,BulkDock Fragalysis export,openbind_a71ev2a_c2_elabs_scored_top80percent,openbind_a71ev2a_c2_elabs_activefrags_only_scored_5.2plus,syndirella_placed

>  <smina_score_min>  (1658) 
-5.873

$$$$
P585117
     RDKit          3D

 18 19  0  0  0  0  0  0  0  0999 V2000
   11.0847   14.7268   20.1751 C   0  0  0  0  0  0  0  0  0  0  0  0
   10.1136   15.8397   20.5277 C   0  0  1  0  0  0  0  0  0  0  0  0
    9.7208   16.8239   19.0128 S   0  0  0  0  0  0  0  0  0  0  0  0
    8.7737   15.3718   21.0910 C   0  0  0  0  0  0  0  0  0  0  0  0
    8.7410   14.3318   22.0776 N   0  0  0  0  0  0  0  0  0  0  0  0
    9.6191   14.1012   23.3089 C   0  0  0  0  0  0  0  0  0  0  0  0
   10.4608   14.7560   23.7665 O   0  0  0  0  0  0  0  0  0  0  0  0
    9.2329   12.8224   23.8833 C   0  0  0  0  0  0  0  0  0  0  0  0
    9.8545   11.6940   23.3866 C   0  0  0  0  0  0  0  0  0  0  0  0
   10.9322   11.8550   22.6213 F   0  0  0  0  0  0  0  0  0  0  0  0
    9.3596   10.4377   23.6777 C   0  0  0  0  0  0  0  0  0  0  0  0
   10.0965    9.0493   23.0218 Cl  0  0  0  0  0  0  0  0  0  0  0  0
    8.2685   10.2877   24.5370 C   0  0  0  0  0  0  0  0  0  0  0  0
    7.6509   11.4293   25.0787 C   0  0  0  0  0  0  0  0  0  0  0  0
    6.5592   11.6406   25.9566 C   0  0  0  0  0  0  0  0  0  0  0  0
    6.3857   12.9995   26.0874 C   0  0  0  0  0  0  0  0  0  0  0  0
    7.3230   13.6277   25.3119 N   0  0  0  0  0  0  0  0  0  0  0  0
    8.1326   12.6876   24.7224 C   0  0  0  0  0  0  0  0  0  0  0  0
  2  1  1  6
  2  3  1  0
  2  4  1  0
  4  5  1  0
  5  6  1  0
  6  7  2  0
  6  8  1  0
  8  9  2  0
  9 10  1  0
  9 11  1  0
 11 12  1  0
 11 13  2  0
 13 14  1  0
 14 15  1  0
 15 16  2  0
 16 17  1  0
 17 18  1  0
 18  8  1  0
 18 14  2  0
M  END
>  <alias>  (1659) 
None

>  <rmsd(smina/fragmenstein)>  (1659) 
0.89

>  <smiles>  (1659) 
C[C@@H](S)CNC(=O)c1c(F)c(Cl)cc2cc[nH]c12

>  <gnina_score>  (1659) 
5.404

>  <inspiration_score>  (1659) 
None

>  <energy_score>  (1659) 
-4.964554

>  <distance_score>  (1659) 
1.642033

>  <gnina_score_min>  (1659) 
5.493

>  <inchikey>  (1659) 
ZDCRMDXRIYYXMB-ZCFIWIBFSA-N

>  <exports>  (1659) 
['/opt/xchem-fragalysis-2/maxwin/BulkDock/OUTPUTS/openbind_a71ev2a_c2_elabs_1LOUU54.sdf', '/opt/xchem-fragalysis-2/maxwin/BulkDock/OUTPUTS/openbind_a71ev2a_c2_elabs_1LSYIDY.sdf']

>  <name>  (1659) 
P585117

>  <ref_pdb>  (1659) 
A0566a

>  <subsites>  (1659) 
None

>  <HIPPO Pose ID>  (1659) 
585117

>  <ref_mols>  (1659) 
A0566a

>  <HIPPO Compound ID>  (1659) 
439794

>  <tags>  (1659) 
openbind_a71ev2a_c2_elabs,syndirella_product,openbind_a71ev2a_c2_elabs_fragonly_scored_top80percent,openbind_a71ev2a_c2_elabs_scored,BulkDock Fragalysis export,openbind_a71ev2a_c2_elabs_scored_top80percent,openbind_a71ev2a_c2_elabs_activefrags_only_scored_5.2plus,syndirella_placed

>  <smina_score_min>  (1659) 
-5.148

$$$$
P585119
     RDKit          3D

 18 19  0  0  0  0  0  0  0  0999 V2000
   12.4572   14.9832   21.7589 C   0  0  0  0  0  0  0  0  0  0  0  0
   10.9754   15.1918   21.4923 C   0  0  1  0  0  0  0  0  0  0  0  0
   10.4914   15.3583   20.0468 C   0  0  0  0  0  0  0  0  0  0  0  0
   11.4511   14.4791   18.8002 S   0  0  0  0  0  0  0  0  0  0  0  0
   10.2905   14.1123   22.1503 N   0  0  0  0  0  0  0  0  0  0  0  0
    9.5953   14.0580   23.5201 C   0  0  0  0  0  0  0  0  0  0  0  0
    9.3989   14.9000   24.3019 O   0  0  0  0  0  0  0  0  0  0  0  0
    9.1049   12.7115   23.8422 C   0  0  0  0  0  0  0  0  0  0  0  0
    9.7444   11.5773   23.3711 C   0  0  0  0  0  0  0  0  0  0  0  0
   10.8605   11.7229   22.6579 F   0  0  0  0  0  0  0  0  0  0  0  0
    9.2899   10.3110   23.6763 C   0  0  0  0  0  0  0  0  0  0  0  0
   10.1172    8.9567   23.0588 Cl  0  0  0  0  0  0  0  0  0  0  0  0
    8.2109   10.1379   24.5393 C   0  0  0  0  0  0  0  0  0  0  0  0
    7.5781   11.2675   25.0827 C   0  0  0  0  0  0  0  0  0  0  0  0
    6.5098   11.4594   25.9948 C   0  0  0  0  0  0  0  0  0  0  0  0
    6.3319   12.8147   26.1523 C   0  0  0  0  0  0  0  0  0  0  0  0
    7.2427   13.4558   25.3596 N   0  0  0  0  0  0  0  0  0  0  0  0
    8.0297   12.5301   24.7128 C   0  0  0  0  0  0  0  0  0  0  0  0
  2  1  1  6
  2  3  1  0
  3  4  1  0
  2  5  1  0
  5  6  1  0
  6  7  2  0
  6  8  1  0
  8  9  2  0
  9 10  1  0
  9 11  1  0
 11 12  1  0
 11 13  2  0
 13 14  1  0
 14 15  1  0
 15 16  2  0
 16 17  1  0
 17 18  1  0
 18  8  1  0
 18 14  2  0
M  END
>  <alias>  (1660) 
None

>  <rmsd(smina/fragmenstein)>  (1660) 
0.314

>  <smiles>  (1660) 
C[C@@H](CS)NC(=O)c1c(F)c(Cl)cc2cc[nH]c12

>  <gnina_score>  (1660) 
5.527

>  <inspiration_score>  (1660) 
None

>  <energy_score>  (1660) 
-5.733545

>  <distance_score>  (1660) 
1.374117

>  <gnina_score_min>  (1660) 
5.584

>  <inchikey>  (1660) 
KHYRUAQDKAFAOI-LURJTMIESA-N

>  <exports>  (1660) 
['/opt/xchem-fragalysis-2/maxwin/BulkDock/OUTPUTS/openbind_a71ev2a_c2_elabs_1LOUU54.sdf', '/opt/xchem-fragalysis-2/maxwin/BulkDock/OUTPUTS/openbind_a71ev2a_c2_elabs_1LSYIDY.sdf']

>  <name>  (1660) 
P585119

>  <ref_pdb>  (1660) 
A0566a

>  <subsites>  (1660) 
None

>  <HIPPO Pose ID>  (1660) 
585119

>  <ref_mols>  (1660) 
A0566a

>  <HIPPO Compound ID>  (1660) 
439798

>  <tags>  (1660) 
openbind_a71ev2a_c2_elabs,syndirella_product,openbind_a71ev2a_c2_elabs_fragonly_scored_top80percent,BulkDock Fragalysis export,openbind_a71ev2a_c2_elabs_scored,openbind_a71ev2a_c2_elabs_scored_top80percent,openbind_a71ev2a_c2_elabs_activefrags_only_scored_5.2plus,openbind_a71ev2a_c2_elabs_activefrags_only_scored_5.5plus,syndirella_placed

>  <smina_score_min>  (1660) 
-4.89

$$$$
P585125
     RDKit          3D

 18 20  0  0  0  0  0  0  0  0999 V2000
    6.0842   10.2643   26.4650 C   0  0  0  0  0  0  0  0  0  0  0  0
    6.9686    9.8231   25.4442 O   0  0  0  0  0  0  0  0  0  0  0  0
    7.7837   10.7816   24.8597 C   0  0  0  0  0  0  0  0  0  0  0  0
    8.7634   10.2582   23.9948 C   0  0  0  0  0  0  0  0  0  0  0  0
    9.7119   11.0679   23.3891 C   0  0  0  0  0  0  0  0  0  0  0  0
    9.7264   12.4241   23.6708 C   0  0  0  0  0  0  0  0  0  0  0  0
   10.8163   13.2839   23.1974 C   0  0  0  0  0  0  0  0  0  0  0  0
   11.8841   13.1930   23.6574 O   0  0  0  0  0  0  0  0  0  0  0  0
   10.2543   14.2805   22.1644 N   0  0  0  0  0  0  0  0  0  0  0  0
   10.8807   15.2655   21.4456 N   0  0  0  0  0  0  0  0  0  0  0  0
   10.1664   15.5815   20.1942 C   0  0  0  0  0  0  0  0  0  0  0  0
   11.2520   14.8764   19.3822 C   0  0  0  0  0  0  0  0  0  0  0  0
   12.0249   14.7158   20.6954 C   0  0  0  0  0  0  0  0  0  0  0  0
    8.7029   12.9697   24.4510 C   0  0  0  0  0  0  0  0  0  0  0  0
    8.4775   14.2779   24.8125 N   0  0  0  0  0  0  0  0  0  0  0  0
    7.3392   14.3685   25.5537 C   0  0  0  0  0  0  0  0  0  0  0  0
    6.8447   13.0969   25.7097 C   0  0  0  0  0  0  0  0  0  0  0  0
    7.7087   12.1831   25.0380 C   0  0  0  0  0  0  0  0  0  0  0  0
  1  2  1  0
  2  3  1  0
  3  4  2  0
  4  5  1  0
  5  6  2  0
  6  7  1  0
  7  8  2  0
  7  9  1  0
  9 10  1  0
 10 11  1  0
 11 12  1  0
 12 13  1  0
  6 14  1  0
 14 15  1  0
 15 16  1  0
 16 17  2  0
 17 18  1  0
 18  3  1  0
 13 10  1  0
 18 14  2  0
M  END
>  <alias>  (1661) 
None

>  <rmsd(smina/fragmenstein)>  (1661) 
0.302

>  <smiles>  (1661) 
COc1ccc(C(=O)NN2CCC2)c2[nH]ccc12

>  <gnina_score>  (1661) 
5.32

>  <inspiration_score>  (1661) 
None

>  <energy_score>  (1661) 
-1.888023

>  <distance_score>  (1661) 
1.17875

>  <gnina_score_min>  (1661) 
5.254

>  <inchikey>  (1661) 
YJOKMLFEVTUTMU-UHFFFAOYSA-N

>  <exports>  (1661) 
['/opt/xchem-fragalysis-2/maxwin/BulkDock/OUTPUTS/openbind_a71ev2a_c2_elabs_1LOUU54.sdf', '/opt/xchem-fragalysis-2/maxwin/BulkDock/OUTPUTS/openbind_a71ev2a_c2_elabs_1LSYIDY.sdf']

>  <name>  (1661) 
P585125

>  <ref_pdb>  (1661) 
A0566a

>  <subsites>  (1661) 
None

>  <HIPPO Pose ID>  (1661) 
585125

>  <ref_mols>  (1661) 
A0566a

>  <HIPPO Compound ID>  (1661) 
439817

>  <tags>  (1661) 
openbind_a71ev2a_c2_elabs,syndirella_product,openbind_a71ev2a_c2_elabs_fragonly_scored_top80percent,openbind_a71ev2a_c2_elabs_scored,BulkDock Fragalysis export,openbind_a71ev2a_c2_elabs_scored_top80percent,openbind_a71ev2a_c2_elabs_activefrags_only_scored_5.2plus,syndirella_placed

>  <smina_score_min>  (1661) 
-6.698

$$$$
P585126
     RDKit          3D

 18 19  0  0  0  0  0  0  0  0999 V2000
    9.4761    8.8181   22.5108 C   0  0  0  0  0  0  0  0  0  0  0  0
    8.6199    9.4240   23.5282 O   0  0  0  0  0  0  0  0  0  0  0  0
    9.0270   10.7111   23.8103 C   0  0  0  0  0  0  0  0  0  0  0  0
   10.3140   11.0388   23.4449 C   0  0  0  0  0  0  0  0  0  0  0  0
   10.8265   12.2854   23.4563 C   0  0  0  0  0  0  0  0  0  0  0  0
   10.0066   13.2943   23.8719 C   0  0  0  0  0  0  0  0  0  0  0  0
   10.6082   14.5055   23.4088 C   0  0  0  0  0  0  0  0  0  0  0  0
   11.3833   15.0825   24.0525 O   0  0  0  0  0  0  0  0  0  0  0  0
   10.1193   14.7572   21.9821 N   0  0  0  0  0  0  0  0  0  0  0  0
   10.5485   15.7175   21.0043 C   0  0  2  0  0  0  0  0  0  0  0  0
    9.3725   16.4140   20.3664 C   0  0  0  0  0  0  0  0  0  0  0  0
   11.3689   14.9610   19.9426 C   0  0  0  0  0  0  0  0  0  0  0  0
   12.5834   14.5220   20.5398 O   0  0  0  0  0  0  0  0  0  0  0  0
    8.7432   13.0325   24.3948 C   0  0  0  0  0  0  0  0  0  0  0  0
    7.7660   13.8495   24.9010 N   0  0  0  0  0  0  0  0  0  0  0  0
    6.7396   13.0853   25.3918 C   0  0  0  0  0  0  0  0  0  0  0  0
    7.0085   11.7657   25.1019 C   0  0  0  0  0  0  0  0  0  0  0  0
    8.2497   11.7127   24.4218 C   0  0  0  0  0  0  0  0  0  0  0  0
  1  2  1  0
  2  3  1  0
  3  4  2  0
  4  5  1  0
  5  6  2  0
  6  7  1  0
  7  8  2  0
  7  9  1  0
  9 10  1  0
 10 11  1  6
 10 12  1  0
 12 13  1  0
  6 14  1  0
 14 15  1  0
 15 16  1  0
 16 17  2  0
 17 18  1  0
 18  3  1  0
 18 14  2  0
M  END
>  <alias>  (1662) 
None

>  <rmsd(smina/fragmenstein)>  (1662) 
0.937

>  <smiles>  (1662) 
COc1ccc(C(=O)N[C@H](C)CO)c2[nH]ccc12

>  <gnina_score>  (1662) 
5.201

>  <inspiration_score>  (1662) 
None

>  <energy_score>  (1662) 
-21.991503

>  <distance_score>  (1662) 
1.064907

>  <gnina_score_min>  (1662) 
5.224

>  <inchikey>  (1662) 
IHMZSGINZPTROE-MRVPVSSYSA-N

>  <exports>  (1662) 
['/opt/xchem-fragalysis-2/maxwin/BulkDock/OUTPUTS/openbind_a71ev2a_c2_elabs_1LOUU54.sdf', '/opt/xchem-fragalysis-2/maxwin/BulkDock/OUTPUTS/openbind_a71ev2a_c2_elabs_1LSYIDY.sdf']

>  <name>  (1662) 
P585126

>  <ref_pdb>  (1662) 
A0566a

>  <subsites>  (1662) 
None

>  <HIPPO Pose ID>  (1662) 
585126

>  <ref_mols>  (1662) 
A0566a

>  <HIPPO Compound ID>  (1662) 
439825

>  <tags>  (1662) 
openbind_a71ev2a_c2_elabs,syndirella_product,openbind_a71ev2a_c2_elabs_fragonly_scored_top80percent,openbind_a71ev2a_c2_elabs_scored,BulkDock Fragalysis export,openbind_a71ev2a_c2_elabs_scored_top80percent,openbind_a71ev2a_c2_elabs_activefrags_only_scored_5.2plus,syndirella_placed

>  <smina_score_min>  (1662) 
-5.229

$$$$
P585127
     RDKit          3D

 18 19  0  0  0  0  0  0  0  0999 V2000
    9.4031   14.8728   24.1917 O   0  0  0  0  0  0  0  0  0  0  0  0
    9.5194   14.0233   23.4027 C   0  0  0  0  0  0  0  0  0  0  0  0
   10.2210   14.0226   22.0345 N   0  0  0  0  0  0  0  0  0  0  0  0
   11.0073   15.0340   21.3901 C   0  0  0  0  0  0  0  0  0  0  0  0
   12.4507   14.8334   21.8227 C   0  0  0  0  0  0  0  0  0  0  0  0
   13.2202   15.8475   21.3967 F   0  0  0  0  0  0  0  0  0  0  0  0
   12.5261   14.8358   23.1822 F   0  0  0  0  0  0  0  0  0  0  0  0
    9.0156   12.6934   23.7654 C   0  0  0  0  0  0  0  0  0  0  0  0
    9.6769   11.5501   23.3439 C   0  0  0  0  0  0  0  0  0  0  0  0
   10.7896   11.6823   22.6208 F   0  0  0  0  0  0  0  0  0  0  0  0
    9.2491   10.2895   23.6961 C   0  0  0  0  0  0  0  0  0  0  0  0
   10.1051    8.9396   23.1078 Cl  0  0  0  0  0  0  0  0  0  0  0  0
    8.1788   10.1323   24.5710 C   0  0  0  0  0  0  0  0  0  0  0  0
    7.5411   11.2736   25.0879 C   0  0  0  0  0  0  0  0  0  0  0  0
    6.4882   11.4824   26.0139 C   0  0  0  0  0  0  0  0  0  0  0  0
    6.3042   12.8402   26.1403 C   0  0  0  0  0  0  0  0  0  0  0  0
    7.1940   13.4679   25.3132 N   0  0  0  0  0  0  0  0  0  0  0  0
    7.9667   12.5306   24.6674 C   0  0  0  0  0  0  0  0  0  0  0  0
  1  2  2  0
  2  3  1  0
  3  4  1  0
  4  5  1  0
  5  6  1  0
  5  7  1  0
  2  8  1  0
  8  9  2  0
  9 10  1  0
  9 11  1  0
 11 12  1  0
 11 13  2  0
 13 14  1  0
 14 15  1  0
 15 16  2  0
 16 17  1  0
 17 18  1  0
 18  8  1  0
 18 14  2  0
M  END
>  <alias>  (1663) 
None

>  <rmsd(smina/fragmenstein)>  (1663) 
0.438

>  <smiles>  (1663) 
O=C(NCC(F)F)c1c(F)c(Cl)cc2cc[nH]c12

>  <gnina_score>  (1663) 
5.342

>  <inspiration_score>  (1663) 
None

>  <energy_score>  (1663) 
-13.284162

>  <distance_score>  (1663) 
1.413807

>  <gnina_score_min>  (1663) 
5.314

>  <inchikey>  (1663) 
DOUNRCSCICETMU-UHFFFAOYSA-N

>  <exports>  (1663) 
['/opt/xchem-fragalysis-2/maxwin/BulkDock/OUTPUTS/openbind_a71ev2a_c2_elabs_1LOUU54.sdf', '/opt/xchem-fragalysis-2/maxwin/BulkDock/OUTPUTS/openbind_a71ev2a_c2_elabs_1LSYIDY.sdf']

>  <name>  (1663) 
P585127

>  <ref_pdb>  (1663) 
A0566a

>  <subsites>  (1663) 
None

>  <HIPPO Pose ID>  (1663) 
585127

>  <ref_mols>  (1663) 
A0566a

>  <HIPPO Compound ID>  (1663) 
439827

>  <tags>  (1663) 
openbind_a71ev2a_c2_elabs,syndirella_product,openbind_a71ev2a_c2_elabs_fragonly_scored_top80percent,openbind_a71ev2a_c2_elabs_scored,BulkDock Fragalysis export,openbind_a71ev2a_c2_elabs_scored_top80percent,openbind_a71ev2a_c2_elabs_activefrags_only_scored_5.2plus,syndirella_placed

>  <smina_score_min>  (1663) 
-5.589

$$$$
P585130
     RDKit          3D

 18 19  0  0  0  0  0  0  0  0999 V2000
   11.5758   14.9488   19.1501 C   0  0  0  0  0  0  0  0  0  0  0  0
   11.4393   14.7349   20.6480 C   0  0  0  0  0  0  0  0  0  0  0  0
   12.4523   15.3639   21.5953 C   0  0  0  0  0  0  0  0  0  0  0  0
   10.0125   15.0540   21.0812 C   0  0  0  0  0  0  0  0  0  0  0  0
    9.6336   14.0119   21.9754 N   0  0  0  0  0  0  0  0  0  0  0  0
    9.0939   14.0757   23.4061 C   0  0  0  0  0  0  0  0  0  0  0  0
    8.7980   14.9904   24.0607 O   0  0  0  0  0  0  0  0  0  0  0  0
    8.8668   12.7141   23.9188 C   0  0  0  0  0  0  0  0  0  0  0  0
    9.5950   11.6191   23.4688 C   0  0  0  0  0  0  0  0  0  0  0  0
   10.6770   11.8230   22.7106 F   0  0  0  0  0  0  0  0  0  0  0  0
    9.2185   10.3296   23.7789 C   0  0  0  0  0  0  0  0  0  0  0  0
   10.0835    9.0220   23.1083 Cl  0  0  0  0  0  0  0  0  0  0  0  0
    8.1584   10.0992   24.6518 C   0  0  0  0  0  0  0  0  0  0  0  0
    7.4816   11.1920   25.2190 C   0  0  0  0  0  0  0  0  0  0  0  0
    6.4193   11.3284   26.1476 C   0  0  0  0  0  0  0  0  0  0  0  0
    6.1599   12.6723   26.2949 C   0  0  0  0  0  0  0  0  0  0  0  0
    7.0058   13.3595   25.4699 N   0  0  0  0  0  0  0  0  0  0  0  0
    7.8438   12.4760   24.8308 C   0  0  0  0  0  0  0  0  0  0  0  0
  1  2  1  0
  2  3  1  0
  2  4  1  0
  4  5  1  0
  5  6  1  0
  6  7  2  0
  6  8  1  0
  8  9  2  0
  9 10  1  0
  9 11  1  0
 11 12  1  0
 11 13  2  0
 13 14  1  0
 14 15  1  0
 15 16  2  0
 16 17  1  0
 17 18  1  0
 18  8  1  0
 18 14  2  0
M  END
>  <alias>  (1664) 
None

>  <rmsd(smina/fragmenstein)>  (1664) 
0.926

>  <smiles>  (1664) 
CC(C)CNC(=O)c1c(F)c(Cl)cc2cc[nH]c12

>  <gnina_score>  (1664) 
5.293

>  <inspiration_score>  (1664) 
None

>  <energy_score>  (1664) 
-10.364962

>  <distance_score>  (1664) 
1.768674

>  <gnina_score_min>  (1664) 
5.368

>  <inchikey>  (1664) 
INLSMGDMAOQTKU-UHFFFAOYSA-N

>  <exports>  (1664) 
['/opt/xchem-fragalysis-2/maxwin/BulkDock/OUTPUTS/openbind_a71ev2a_c2_elabs_1LOUU54.sdf', '/opt/xchem-fragalysis-2/maxwin/BulkDock/OUTPUTS/openbind_a71ev2a_c2_elabs_1LSYIDY.sdf']

>  <name>  (1664) 
P585130

>  <ref_pdb>  (1664) 
A0566a

>  <subsites>  (1664) 
None

>  <HIPPO Pose ID>  (1664) 
585130

>  <ref_mols>  (1664) 
A0566a

>  <HIPPO Compound ID>  (1664) 
439835

>  <tags>  (1664) 
openbind_a71ev2a_c2_elabs,syndirella_product,openbind_a71ev2a_c2_elabs_fragonly_scored_top80percent,openbind_a71ev2a_c2_elabs_scored,BulkDock Fragalysis export,openbind_a71ev2a_c2_elabs_scored_top80percent,openbind_a71ev2a_c2_elabs_activefrags_only_scored_5.2plus,syndirella_placed

>  <smina_score_min>  (1664) 
-6.17

$$$$
P585131
     RDKit          3D

 18 19  0  0  0  0  0  0  0  0999 V2000
   12.6838   15.1591   21.8555 C   0  0  0  0  0  0  0  0  0  0  0  0
   11.6017   14.9413   20.8207 C   0  0  0  0  0  0  0  0  0  0  0  0
   10.3366   15.2937   21.4566 N   0  0  0  0  0  0  0  0  0  0  0  0
    9.3724   15.8384   20.5179 C   0  0  0  0  0  0  0  0  0  0  0  0
    9.8539   14.2170   22.1436 N   0  0  0  0  0  0  0  0  0  0  0  0
    9.2536   14.1201   23.5634 C   0  0  0  0  0  0  0  0  0  0  0  0
    9.0061   14.9570   24.3398 O   0  0  0  0  0  0  0  0  0  0  0  0
    8.9307   12.7328   23.9218 C   0  0  0  0  0  0  0  0  0  0  0  0
    9.6293   11.6454   23.4168 C   0  0  0  0  0  0  0  0  0  0  0  0
   10.7045   11.8640   22.6552 F   0  0  0  0  0  0  0  0  0  0  0  0
    9.2448   10.3504   23.7065 C   0  0  0  0  0  0  0  0  0  0  0  0
   10.0927    9.0392   23.0239 Cl  0  0  0  0  0  0  0  0  0  0  0  0
    8.1911   10.1054   24.5846 C   0  0  0  0  0  0  0  0  0  0  0  0
    7.5171   11.1868   25.1716 C   0  0  0  0  0  0  0  0  0  0  0  0
    6.4562   11.3072   26.1041 C   0  0  0  0  0  0  0  0  0  0  0  0
    6.2174   12.6488   26.2968 C   0  0  0  0  0  0  0  0  0  0  0  0
    7.0805   13.3499   25.5022 N   0  0  0  0  0  0  0  0  0  0  0  0
    7.8963   12.4756   24.8205 C   0  0  0  0  0  0  0  0  0  0  0  0
  1  2  1  0
  2  3  1  0
  3  4  1  0
  3  5  1  0
  5  6  1  0
  6  7  2  0
  6  8  1  0
  8  9  2  0
  9 10  1  0
  9 11  1  0
 11 12  1  0
 11 13  2  0
 13 14  1  0
 14 15  1  0
 15 16  2  0
 16 17  1  0
 17 18  1  0
 18  8  1  0
 18 14  2  0
M  END
>  <alias>  (1665) 
None

>  <rmsd(smina/fragmenstein)>  (1665) 
0.246

>  <smiles>  (1665) 
CCN(C)NC(=O)c1c(F)c(Cl)cc2cc[nH]c12

>  <gnina_score>  (1665) 
5.616

>  <inspiration_score>  (1665) 
None

>  <energy_score>  (1665) 
-6.931464

>  <distance_score>  (1665) 
1.616748

>  <gnina_score_min>  (1665) 
5.664

>  <inchikey>  (1665) 
PFVYOFABPNTJHU-UHFFFAOYSA-N

>  <exports>  (1665) 
['/opt/xchem-fragalysis-2/maxwin/BulkDock/OUTPUTS/openbind_a71ev2a_c2_elabs_1LOUU54.sdf', '/opt/xchem-fragalysis-2/maxwin/BulkDock/OUTPUTS/openbind_a71ev2a_c2_elabs_1LSYIDY.sdf']

>  <name>  (1665) 
P585131

>  <ref_pdb>  (1665) 
A0566a

>  <subsites>  (1665) 
None

>  <HIPPO Pose ID>  (1665) 
585131

>  <ref_mols>  (1665) 
A0566a

>  <HIPPO Compound ID>  (1665) 
439837

>  <tags>  (1665) 
openbind_a71ev2a_c2_elabs,syndirella_product,openbind_a71ev2a_c2_elabs_fragonly_scored_top80percent,BulkDock Fragalysis export,openbind_a71ev2a_c2_elabs_scored,openbind_a71ev2a_c2_elabs_scored_top80percent,openbind_a71ev2a_c2_elabs_activefrags_only_scored_5.2plus,openbind_a71ev2a_c2_elabs_activefrags_only_scored_5.5plus,syndirella_placed

>  <smina_score_min>  (1665) 
-5.423

$$$$
P585134
     RDKit          3D

 18 19  0  0  0  0  0  0  0  0999 V2000
   11.4033   14.9816   18.8197 C   0  0  0  0  0  0  0  0  0  0  0  0
   11.0953   15.0701   20.1163 C   0  0  0  0  0  0  0  0  0  0  0  0
    9.5375   15.9609   20.6380 Br  0  0  0  0  0  0  0  0  0  0  0  0
   11.9738   14.5239   21.2023 C   0  0  0  0  0  0  0  0  0  0  0  0
   11.1827   13.6435   22.0004 N   0  0  0  0  0  0  0  0  0  0  0  0
   10.7373   13.7543   23.4538 C   0  0  0  0  0  0  0  0  0  0  0  0
   11.0037   14.5428   24.2671 O   0  0  0  0  0  0  0  0  0  0  0  0
    9.7283   12.7182   23.8041 C   0  0  0  0  0  0  0  0  0  0  0  0
    9.7754   11.3833   23.4085 C   0  0  0  0  0  0  0  0  0  0  0  0
    8.8643   10.4626   23.9299 C   0  0  0  0  0  0  0  0  0  0  0  0
    7.8508   10.8559   24.8265 C   0  0  0  0  0  0  0  0  0  0  0  0
    7.0982    9.8157   25.3550 O   0  0  0  0  0  0  0  0  0  0  0  0
    6.1461   10.1718   26.3496 C   0  0  0  0  0  0  0  0  0  0  0  0
    7.6909   12.2331   25.1062 C   0  0  0  0  0  0  0  0  0  0  0  0
    6.7692   13.0455   25.8365 C   0  0  0  0  0  0  0  0  0  0  0  0
    7.1759   14.3539   25.7686 C   0  0  0  0  0  0  0  0  0  0  0  0
    8.3123   14.3809   25.0267 N   0  0  0  0  0  0  0  0  0  0  0  0
    8.6450   13.1145   24.5999 C   0  0  0  0  0  0  0  0  0  0  0  0
  1  2  2  0
  2  3  1  0
  2  4  1  0
  4  5  1  0
  5  6  1  0
  6  7  2  0
  6  8  1  0
  8  9  2  0
  9 10  1  0
 10 11  2  0
 11 12  1  0
 12 13  1  0
 11 14  1  0
 14 15  1  0
 15 16  2  0
 16 17  1  0
 17 18  1  0
 18  8  1  0
 18 14  2  0
M  END
>  <alias>  (1666) 
None

>  <rmsd(smina/fragmenstein)>  (1666) 
0.494

>  <smiles>  (1666) 
C=C(Br)CNC(=O)c1ccc(OC)c2cc[nH]c12

>  <gnina_score>  (1666) 
5.352

>  <inspiration_score>  (1666) 
None

>  <energy_score>  (1666) 
-12.924641

>  <distance_score>  (1666) 
1.2075

>  <gnina_score_min>  (1666) 
5.256

>  <inchikey>  (1666) 
KZFFPAIJMRKJMY-UHFFFAOYSA-N

>  <exports>  (1666) 
['/opt/xchem-fragalysis-2/maxwin/BulkDock/OUTPUTS/openbind_a71ev2a_c2_elabs_1LOUU54.sdf', '/opt/xchem-fragalysis-2/maxwin/BulkDock/OUTPUTS/openbind_a71ev2a_c2_elabs_1LSYIDY.sdf']

>  <name>  (1666) 
P585134

>  <ref_pdb>  (1666) 
A0566a

>  <subsites>  (1666) 
None

>  <HIPPO Pose ID>  (1666) 
585134

>  <ref_mols>  (1666) 
A0566a

>  <HIPPO Compound ID>  (1666) 
439858

>  <tags>  (1666) 
openbind_a71ev2a_c2_elabs,syndirella_product,openbind_a71ev2a_c2_elabs_fragonly_scored_top80percent,openbind_a71ev2a_c2_elabs_scored,BulkDock Fragalysis export,openbind_a71ev2a_c2_elabs_scored_top80percent,openbind_a71ev2a_c2_elabs_activefrags_only_scored_5.2plus,syndirella_placed

>  <smina_score_min>  (1666) 
-6.484

$$$$
P585145
     RDKit          3D

 18 19  0  0  0  0  0  0  0  0999 V2000
    6.9086   15.7724   26.4838 C   0  0  0  0  0  0  0  0  0  0  0  0
    7.4249   14.5342   25.8395 C   0  0  0  0  0  0  0  0  0  0  0  0
    8.5417   14.5639   25.0566 N   0  0  0  0  0  0  0  0  0  0  0  0
    8.8293   13.3251   24.5470 C   0  0  0  0  0  0  0  0  0  0  0  0
    9.8672   12.9211   23.6949 C   0  0  0  0  0  0  0  0  0  0  0  0
   10.8597   13.9333   23.2457 C   0  0  0  0  0  0  0  0  0  0  0  0
   11.2556   14.7066   24.0179 O   0  0  0  0  0  0  0  0  0  0  0  0
   11.1112   13.8148   21.7469 N   0  0  0  0  0  0  0  0  0  0  0  0
   11.9784   14.5634   20.8850 C   0  0  0  0  0  0  0  0  0  0  0  0
   11.1857   15.0717   19.7549 C   0  0  0  0  0  0  0  0  0  0  0  0
   10.5187   15.4606   18.8868 N   0  0  0  0  0  0  0  0  0  0  0  0
    9.8960   11.5811   23.2974 C   0  0  0  0  0  0  0  0  0  0  0  0
    8.9851   10.6655   23.8142 C   0  0  0  0  0  0  0  0  0  0  0  0
    7.9992   11.0989   24.7070 C   0  0  0  0  0  0  0  0  0  0  0  0
    6.8918    9.8714   25.5742 Br  0  0  0  0  0  0  0  0  0  0  0  0
    7.8643   12.4564   25.0424 C   0  0  0  0  0  0  0  0  0  0  0  0
    6.9523   13.2352   25.8442 C   0  0  0  0  0  0  0  0  0  0  0  0
    5.7193   12.7824   26.5496 C   0  0  0  0  0  0  0  0  0  0  0  0
  1  2  1  0
  2  3  1  0
  3  4  1  0
  4  5  2  0
  5  6  1  0
  6  7  2  0
  6  8  1  0
  8  9  1  0
  9 10  1  0
 10 11  3  0
  5 12  1  0
 12 13  2  0
 13 14  1  0
 14 15  1  0
 14 16  2  0
 16 17  1  0
 17 18  1  0
 17  2  2  0
 16  4  1  0
M  END
>  <alias>  (1667) 
None

>  <rmsd(smina/fragmenstein)>  (1667) 
1.047

>  <smiles>  (1667) 
Cc1[nH]c2c(C(=O)NCC#N)ccc(Br)c2c1C

>  <gnina_score>  (1667) 
5.44

>  <inspiration_score>  (1667) 
None

>  <energy_score>  (1667) 
-2.841954

>  <distance_score>  (1667) 
1.272963

>  <gnina_score_min>  (1667) 
5.262

>  <inchikey>  (1667) 
LWRGSZZXFDBYHX-UHFFFAOYSA-N

>  <exports>  (1667) 
['/opt/xchem-fragalysis-2/maxwin/BulkDock/OUTPUTS/openbind_a71ev2a_c2_elabs_1LOUU54.sdf', '/opt/xchem-fragalysis-2/maxwin/BulkDock/OUTPUTS/openbind_a71ev2a_c2_elabs_1LSYIDY.sdf']

>  <name>  (1667) 
P585145

>  <ref_pdb>  (1667) 
A0566a

>  <subsites>  (1667) 
None

>  <HIPPO Pose ID>  (1667) 
585145

>  <ref_mols>  (1667) 
A0566a

>  <HIPPO Compound ID>  (1667) 
439895

>  <tags>  (1667) 
openbind_a71ev2a_c2_elabs,syndirella_product,openbind_a71ev2a_c2_elabs_fragonly_scored_top80percent,openbind_a71ev2a_c2_elabs_scored,BulkDock Fragalysis export,openbind_a71ev2a_c2_elabs_scored_top80percent,openbind_a71ev2a_c2_elabs_activefrags_only_scored_5.2plus,syndirella_placed

>  <smina_score_min>  (1667) 
-6.124

$$$$
P585147
     RDKit          3D

 18 19  0  0  0  0  0  0  0  0999 V2000
    6.1658   15.7610   25.7168 C   0  0  0  0  0  0  0  0  0  0  0  0
    6.9486   14.5756   25.2729 C   0  0  0  0  0  0  0  0  0  0  0  0
    7.9597   14.7139   24.3649 N   0  0  0  0  0  0  0  0  0  0  0  0
    8.5431   13.5071   24.0902 C   0  0  0  0  0  0  0  0  0  0  0  0
    9.6257   13.1903   23.2636 C   0  0  0  0  0  0  0  0  0  0  0  0
   10.3811   14.2556   22.5801 C   0  0  0  0  0  0  0  0  0  0  0  0
   11.2566   14.7825   23.1380 O   0  0  0  0  0  0  0  0  0  0  0  0
    9.7595   14.5435   21.2064 N   0  0  0  0  0  0  0  0  0  0  0  0
   10.1447   15.4834   20.1812 C   0  0  0  0  0  0  0  0  0  0  0  0
   11.3408   15.0300   19.3448 C   0  0  0  0  0  0  0  0  0  0  0  0
   11.0302   13.9939   18.4304 O   0  0  0  0  0  0  0  0  0  0  0  0
    9.9665   11.8507   23.0945 C   0  0  0  0  0  0  0  0  0  0  0  0
    9.2266   10.8485   23.7094 C   0  0  0  0  0  0  0  0  0  0  0  0
    8.1741   11.1959   24.5635 C   0  0  0  0  0  0  0  0  0  0  0  0
    7.1910    9.8664   25.4265 Br  0  0  0  0  0  0  0  0  0  0  0  0
    7.8189   12.5406   24.7826 C   0  0  0  0  0  0  0  0  0  0  0  0
    6.8433   13.2335   25.5882 C   0  0  0  0  0  0  0  0  0  0  0  0
    5.8672   12.6612   26.5578 C   0  0  0  0  0  0  0  0  0  0  0  0
  1  2  1  0
  2  3  1  0
  3  4  1  0
  4  5  2  0
  5  6  1  0
  6  7  2  0
  6  8  1  0
  8  9  1  0
  9 10  1  0
 10 11  1  0
  5 12  1  0
 12 13  2  0
 13 14  1  0
 14 15  1  0
 14 16  2  0
 16 17  1  0
 17 18  1  0
 17  2  2  0
 16  4  1  0
M  END
>  <alias>  (1668) 
None

>  <rmsd(smina/fragmenstein)>  (1668) 
0.891

>  <smiles>  (1668) 
Cc1[nH]c2c(C(=O)NCCO)ccc(Br)c2c1C

>  <gnina_score>  (1668) 
5.354

>  <inspiration_score>  (1668) 
None

>  <energy_score>  (1668) 
-3.976905

>  <distance_score>  (1668) 
1.620771

>  <gnina_score_min>  (1668) 
5.241

>  <inchikey>  (1668) 
PRDPTBLNSGSROE-UHFFFAOYSA-N

>  <exports>  (1668) 
['/opt/xchem-fragalysis-2/maxwin/BulkDock/OUTPUTS/openbind_a71ev2a_c2_elabs_1LOUU54.sdf', '/opt/xchem-fragalysis-2/maxwin/BulkDock/OUTPUTS/openbind_a71ev2a_c2_elabs_1LSYIDY.sdf']

>  <name>  (1668) 
P585147

>  <ref_pdb>  (1668) 
A0566a

>  <subsites>  (1668) 
None

>  <HIPPO Pose ID>  (1668) 
585147

>  <ref_mols>  (1668) 
A0566a

>  <HIPPO Compound ID>  (1668) 
439899

>  <tags>  (1668) 
openbind_a71ev2a_c2_elabs,syndirella_product,openbind_a71ev2a_c2_elabs_fragonly_scored_top80percent,openbind_a71ev2a_c2_elabs_scored,BulkDock Fragalysis export,openbind_a71ev2a_c2_elabs_scored_top80percent,openbind_a71ev2a_c2_elabs_activefrags_only_scored_5.2plus,syndirella_placed

>  <smina_score_min>  (1668) 
-6.39

$$$$
P585160
     RDKit          3D

 18 20  0  0  0  0  0  0  0  0999 V2000
   10.3605   14.5507   24.6562 O   0  0  0  0  0  0  0  0  0  0  0  0
   10.1128   13.9454   23.6934 C   0  0  0  0  0  0  0  0  0  0  0  0
   10.4633   14.2211   22.2315 N   0  0  0  0  0  0  0  0  0  0  0  0
   11.2721   15.2466   21.6461 C   0  0  0  0  0  0  0  0  0  0  0  0
   12.2716   14.6452   20.6812 C   0  0  0  0  0  0  0  0  0  0  0  0
   11.5827   14.5148   19.0088 S   0  0  0  0  0  0  0  0  0  0  0  0
    9.4007   12.6612   23.8371 C   0  0  0  0  0  0  0  0  0  0  0  0
    9.8666   11.4897   23.2301 C   0  0  0  0  0  0  0  0  0  0  0  0
    9.2995   10.2560   23.5269 C   0  0  0  0  0  0  0  0  0  0  0  0
    8.2686   10.1694   24.4675 C   0  0  0  0  0  0  0  0  0  0  0  0
    7.7604   11.3342   25.0675 C   0  0  0  0  0  0  0  0  0  0  0  0
    6.8003   11.6201   26.0510 C   0  0  0  0  0  0  0  0  0  0  0  0
    6.7561   12.9734   26.2204 C   0  0  0  0  0  0  0  0  0  0  0  0
    7.6597   13.5692   25.4161 N   0  0  0  0  0  0  0  0  0  0  0  0
    8.3235   12.5704   24.7183 C   0  0  0  0  0  0  0  0  0  0  0  0
    5.8022   13.4552   27.2317 C   0  0  0  0  0  0  0  0  0  0  0  0
    5.4712   12.1074   27.9540 C   0  0  0  0  0  0  0  0  0  0  0  0
    5.8674   10.9471   26.9756 C   0  0  0  0  0  0  0  0  0  0  0  0
  1  2  2  0
  2  3  1  0
  3  4  1  0
  4  5  1  0
  5  6  1  0
  2  7  1  0
  7  8  2  0
  8  9  1  0
  9 10  2  0
 10 11  1  0
 11 12  1  0
 12 13  2  0
 13 14  1  0
 14 15  1  0
 13 16  1  0
 16 17  1  0
 17 18  1  0
 15  7  1  0
 15 11  2  0
 18 12  1  0
M  END
>  <alias>  (1669) 
None

>  <rmsd(smina/fragmenstein)>  (1669) 
0.789

>  <smiles>  (1669) 
O=C(NCCS)c1cccc2c3c([nH]c12)CCC3

>  <gnina_score>  (1669) 
5.15

>  <inspiration_score>  (1669) 
None

>  <energy_score>  (1669) 
-7.505149

>  <distance_score>  (1669) 
1.013872

>  <gnina_score_min>  (1669) 
5.349

>  <inchikey>  (1669) 
CBCYXESFNBVJOG-UHFFFAOYSA-N

>  <exports>  (1669) 
['/opt/xchem-fragalysis-2/maxwin/BulkDock/OUTPUTS/openbind_a71ev2a_c2_elabs_1LOUU54.sdf', '/opt/xchem-fragalysis-2/maxwin/BulkDock/OUTPUTS/openbind_a71ev2a_c2_elabs_1LSYIDY.sdf']

>  <name>  (1669) 
P585160

>  <ref_pdb>  (1669) 
A0566a

>  <subsites>  (1669) 
None

>  <HIPPO Pose ID>  (1669) 
585160

>  <ref_mols>  (1669) 
A0566a

>  <HIPPO Compound ID>  (1669) 
439933

>  <tags>  (1669) 
openbind_a71ev2a_c2_elabs,syndirella_product,openbind_a71ev2a_c2_elabs_fragonly_scored_top80percent,openbind_a71ev2a_c2_elabs_scored,BulkDock Fragalysis export,openbind_a71ev2a_c2_elabs_scored_top80percent,openbind_a71ev2a_c2_elabs_activefrags_only_scored_5.2plus,syndirella_placed

>  <smina_score_min>  (1669) 
-5.926

$$$$
P585163
     RDKit          3D

 18 20  0  0  0  0  0  0  0  0999 V2000
   12.4364   15.2984   21.9017 C   0  0  0  0  0  0  0  0  0  0  0  0
   11.3396   14.6783   21.0595 C   0  0  0  0  0  0  0  0  0  0  0  0
   10.3356   15.6461   20.4482 C   0  0  0  0  0  0  0  0  0  0  0  0
   10.6301   13.7008   21.8345 N   0  0  0  0  0  0  0  0  0  0  0  0
   10.0648   13.7760   23.2597 C   0  0  0  0  0  0  0  0  0  0  0  0
   10.0161   14.6689   24.0071 O   0  0  0  0  0  0  0  0  0  0  0  0
    9.4143   12.5009   23.6630 C   0  0  0  0  0  0  0  0  0  0  0  0
    9.8293   11.2461   23.2046 C   0  0  0  0  0  0  0  0  0  0  0  0
    9.2243   10.0737   23.6362 C   0  0  0  0  0  0  0  0  0  0  0  0
    8.1946   10.1222   24.5767 C   0  0  0  0  0  0  0  0  0  0  0  0
    7.7499   11.3610   25.0629 C   0  0  0  0  0  0  0  0  0  0  0  0
    6.7967   11.7801   26.0044 C   0  0  0  0  0  0  0  0  0  0  0  0
    6.8134   13.1434   26.0439 C   0  0  0  0  0  0  0  0  0  0  0  0
    7.7342   13.6180   25.1809 N   0  0  0  0  0  0  0  0  0  0  0  0
    8.3589   12.5303   24.5831 C   0  0  0  0  0  0  0  0  0  0  0  0
    5.8637   13.7641   26.9805 C   0  0  0  0  0  0  0  0  0  0  0  0
    4.9928   12.5179   27.3544 C   0  0  0  0  0  0  0  0  0  0  0  0
    5.8145   11.2390   26.9647 C   0  0  0  0  0  0  0  0  0  0  0  0
  1  2  1  0
  2  3  1  0
  2  4  1  0
  4  5  1  0
  5  6  2  0
  5  7  1  0
  7  8  2  0
  8  9  1  0
  9 10  2  0
 10 11  1  0
 11 12  1  0
 12 13  2  0
 13 14  1  0
 14 15  1  0
 13 16  1  0
 16 17  1  0
 17 18  1  0
 15  7  1  0
 15 11  2  0
 18 12  1  0
M  END
>  <alias>  (1670) 
None

>  <rmsd(smina/fragmenstein)>  (1670) 
0.42

>  <smiles>  (1670) 
CC(C)NC(=O)c1cccc2c3c([nH]c12)CCC3

>  <gnina_score>  (1670) 
5.241

>  <inspiration_score>  (1670) 
None

>  <energy_score>  (1670) 
-14.805279

>  <distance_score>  (1670) 
1.165408

>  <gnina_score_min>  (1670) 
5.254

>  <inchikey>  (1670) 
CSZDWJYMFRHHNM-UHFFFAOYSA-N

>  <exports>  (1670) 
['/opt/xchem-fragalysis-2/maxwin/BulkDock/OUTPUTS/openbind_a71ev2a_c2_elabs_1LOUU54.sdf', '/opt/xchem-fragalysis-2/maxwin/BulkDock/OUTPUTS/openbind_a71ev2a_c2_elabs_1LSYIDY.sdf']

>  <name>  (1670) 
P585163

>  <ref_pdb>  (1670) 
A0566a

>  <subsites>  (1670) 
None

>  <HIPPO Pose ID>  (1670) 
585163

>  <ref_mols>  (1670) 
A0566a

>  <HIPPO Compound ID>  (1670) 
439938

>  <tags>  (1670) 
openbind_a71ev2a_c2_elabs,syndirella_product,openbind_a71ev2a_c2_elabs_fragonly_scored_top80percent,openbind_a71ev2a_c2_elabs_scored,BulkDock Fragalysis export,openbind_a71ev2a_c2_elabs_scored_top80percent,openbind_a71ev2a_c2_elabs_activefrags_only_scored_5.2plus,syndirella_placed

>  <smina_score_min>  (1670) 
-6.786

$$$$
P585164
     RDKit          3D

 18 20  0  0  0  0  0  0  0  0999 V2000
   10.6831   14.6272   23.8641 O   0  0  0  0  0  0  0  0  0  0  0  0
    9.9403   14.0543   23.1747 C   0  0  0  0  0  0  0  0  0  0  0  0
    9.4542   14.3716   21.7522 N   0  0  0  0  0  0  0  0  0  0  0  0
    9.8531   15.4161   20.8332 C   0  0  0  0  0  0  0  0  0  0  0  0
   10.9754   14.9606   19.9119 C   0  0  0  0  0  0  0  0  0  0  0  0
   12.4320   14.6026   20.8629 Cl  0  0  0  0  0  0  0  0  0  0  0  0
    9.3659   12.7812   23.6270 C   0  0  0  0  0  0  0  0  0  0  0  0
    9.8751   11.5791   23.1339 C   0  0  0  0  0  0  0  0  0  0  0  0
    9.3437   10.3593   23.5354 C   0  0  0  0  0  0  0  0  0  0  0  0
    8.3109   10.3238   24.4785 C   0  0  0  0  0  0  0  0  0  0  0  0
    7.7978   11.5237   25.0066 C   0  0  0  0  0  0  0  0  0  0  0  0
    6.8254   11.8634   25.9611 C   0  0  0  0  0  0  0  0  0  0  0  0
    6.7767   13.2246   26.0472 C   0  0  0  0  0  0  0  0  0  0  0  0
    7.6655   13.7784   25.1955 N   0  0  0  0  0  0  0  0  0  0  0  0
    8.3325   12.7450   24.5585 C   0  0  0  0  0  0  0  0  0  0  0  0
    5.8029   13.7665   27.0082 C   0  0  0  0  0  0  0  0  0  0  0  0
    4.9952   12.4692   27.3442 C   0  0  0  0  0  0  0  0  0  0  0  0
    5.8689   11.2435   26.9001 C   0  0  0  0  0  0  0  0  0  0  0  0
  1  2  2  0
  2  3  1  0
  3  4  1  0
  4  5  1  0
  5  6  1  0
  2  7  1  0
  7  8  2  0
  8  9  1  0
  9 10  2  0
 10 11  1  0
 11 12  1  0
 12 13  2  0
 13 14  1  0
 14 15  1  0
 13 16  1  0
 16 17  1  0
 17 18  1  0
 15  7  1  0
 15 11  2  0
 18 12  1  0
M  END
>  <alias>  (1671) 
None

>  <rmsd(smina/fragmenstein)>  (1671) 
0.584

>  <smiles>  (1671) 
O=C(NCCCl)c1cccc2c3c([nH]c12)CCC3

>  <gnina_score>  (1671) 
5.213

>  <inspiration_score>  (1671) 
None

>  <energy_score>  (1671) 
-3.411333

>  <distance_score>  (1671) 
1.311279

>  <gnina_score_min>  (1671) 
5.226

>  <inchikey>  (1671) 
JYMSVOZJUBDLBS-UHFFFAOYSA-N

>  <exports>  (1671) 
['/opt/xchem-fragalysis-2/maxwin/BulkDock/OUTPUTS/openbind_a71ev2a_c2_elabs_1LOUU54.sdf', '/opt/xchem-fragalysis-2/maxwin/BulkDock/OUTPUTS/openbind_a71ev2a_c2_elabs_1LSYIDY.sdf']

>  <name>  (1671) 
P585164

>  <ref_pdb>  (1671) 
A0566a

>  <subsites>  (1671) 
None

>  <HIPPO Pose ID>  (1671) 
585164

>  <ref_mols>  (1671) 
A0566a

>  <HIPPO Compound ID>  (1671) 
439939

>  <tags>  (1671) 
openbind_a71ev2a_c2_elabs,syndirella_product,openbind_a71ev2a_c2_elabs_fragonly_scored_top80percent,openbind_a71ev2a_c2_elabs_scored,BulkDock Fragalysis export,openbind_a71ev2a_c2_elabs_scored_top80percent,openbind_a71ev2a_c2_elabs_activefrags_only_scored_5.2plus,syndirella_placed

>  <smina_score_min>  (1671) 
-6.122

$$$$
P585166
     RDKit          3D

 18 20  0  0  0  0  0  0  0  0999 V2000
   11.0888   14.9470   18.6752 C   0  0  0  0  0  0  0  0  0  0  0  0
   11.3510   14.8996   19.8464 C   0  0  0  0  0  0  0  0  0  0  0  0
   11.7069   14.8843   21.2653 C   0  0  0  0  0  0  0  0  0  0  0  0
   10.9656   13.8676   21.9415 N   0  0  0  0  0  0  0  0  0  0  0  0
   10.4054   13.8245   23.3694 C   0  0  0  0  0  0  0  0  0  0  0  0
   10.5234   14.5782   24.2506 O   0  0  0  0  0  0  0  0  0  0  0  0
    9.6052   12.5980   23.6401 C   0  0  0  0  0  0  0  0  0  0  0  0
    9.9433   11.3403   23.1348 C   0  0  0  0  0  0  0  0  0  0  0  0
    9.2849   10.1819   23.5329 C   0  0  0  0  0  0  0  0  0  0  0  0
    8.2583   10.2494   24.4743 C   0  0  0  0  0  0  0  0  0  0  0  0
    7.8539   11.4982   24.9709 C   0  0  0  0  0  0  0  0  0  0  0  0
    6.8980   11.9365   25.9005 C   0  0  0  0  0  0  0  0  0  0  0  0
    6.9702   13.2969   25.9710 C   0  0  0  0  0  0  0  0  0  0  0  0
    7.9451   13.7499   25.1566 N   0  0  0  0  0  0  0  0  0  0  0  0
    8.5269   12.6525   24.5341 C   0  0  0  0  0  0  0  0  0  0  0  0
    6.0166   13.9351   26.8927 C   0  0  0  0  0  0  0  0  0  0  0  0
    5.0751   12.7205   27.1923 C   0  0  0  0  0  0  0  0  0  0  0  0
    5.8691   11.4188   26.8234 C   0  0  0  0  0  0  0  0  0  0  0  0
  1  2  3  0
  2  3  1  0
  3  4  1  0
  4  5  1  0
  5  6  2  0
  5  7  1  0
  7  8  2  0
  8  9  1  0
  9 10  2  0
 10 11  1  0
 11 12  1  0
 12 13  2  0
 13 14  1  0
 14 15  1  0
 13 16  1  0
 16 17  1  0
 17 18  1  0
 15  7  1  0
 15 11  2  0
 18 12  1  0
M  END
>  <alias>  (1672) 
None

>  <rmsd(smina/fragmenstein)>  (1672) 
0.618

>  <smiles>  (1672) 
C#CCNC(=O)c1cccc2c3c([nH]c12)CCC3

>  <gnina_score>  (1672) 
5.045

>  <inspiration_score>  (1672) 
None

>  <energy_score>  (1672) 
-10.776939

>  <distance_score>  (1672) 
0.926487

>  <gnina_score_min>  (1672) 
5.218

>  <inchikey>  (1672) 
MBBQCYUOQZIYOC-UHFFFAOYSA-N

>  <exports>  (1672) 
['/opt/xchem-fragalysis-2/maxwin/BulkDock/OUTPUTS/openbind_a71ev2a_c2_elabs_1LOUU54.sdf', '/opt/xchem-fragalysis-2/maxwin/BulkDock/OUTPUTS/openbind_a71ev2a_c2_elabs_1LSYIDY.sdf']

>  <name>  (1672) 
P585166

>  <ref_pdb>  (1672) 
A0566a

>  <subsites>  (1672) 
None

>  <HIPPO Pose ID>  (1672) 
585166

>  <ref_mols>  (1672) 
A0566a

>  <HIPPO Compound ID>  (1672) 
439941

>  <tags>  (1672) 
openbind_a71ev2a_c2_elabs,syndirella_product,openbind_a71ev2a_c2_elabs_fragonly_scored_top80percent,openbind_a71ev2a_c2_elabs_scored,BulkDock Fragalysis export,openbind_a71ev2a_c2_elabs_scored_top80percent,openbind_a71ev2a_c2_elabs_activefrags_only_scored_5.2plus,syndirella_placed

>  <smina_score_min>  (1672) 
-6.447

$$$$
P585167
     RDKit          3D

 18 20  0  0  0  0  0  0  0  0999 V2000
   11.3373   14.6914   18.6436 N   0  0  0  0  0  0  0  0  0  0  0  0
   11.5238   14.7537   19.7879 C   0  0  0  0  0  0  0  0  0  0  0  0
   11.7334   14.7986   21.2398 C   0  0  0  0  0  0  0  0  0  0  0  0
   10.8940   13.8416   21.9083 N   0  0  0  0  0  0  0  0  0  0  0  0
   10.4031   13.7896   23.3571 C   0  0  0  0  0  0  0  0  0  0  0  0
   10.5344   14.5522   24.2260 O   0  0  0  0  0  0  0  0  0  0  0  0
    9.6035   12.5691   23.6464 C   0  0  0  0  0  0  0  0  0  0  0  0
    9.9289   11.3085   23.1403 C   0  0  0  0  0  0  0  0  0  0  0  0
    9.2636   10.1575   23.5460 C   0  0  0  0  0  0  0  0  0  0  0  0
    8.2408   10.2367   24.4910 C   0  0  0  0  0  0  0  0  0  0  0  0
    7.8483   11.4901   24.9856 C   0  0  0  0  0  0  0  0  0  0  0  0
    6.8962   11.9398   25.9132 C   0  0  0  0  0  0  0  0  0  0  0  0
    6.9832   13.2994   25.9827 C   0  0  0  0  0  0  0  0  0  0  0  0
    7.9667   13.7414   25.1722 N   0  0  0  0  0  0  0  0  0  0  0  0
    8.5317   12.6367   24.5462 C   0  0  0  0  0  0  0  0  0  0  0  0
    6.0357   13.9483   26.9033 C   0  0  0  0  0  0  0  0  0  0  0  0
    5.0795   12.7443   27.2003 C   0  0  0  0  0  0  0  0  0  0  0  0
    5.8609   11.4340   26.8355 C   0  0  0  0  0  0  0  0  0  0  0  0
  1  2  3  0
  2  3  1  0
  3  4  1  0
  4  5  1  0
  5  6  2  0
  5  7  1  0
  7  8  2  0
  8  9  1  0
  9 10  2  0
 10 11  1  0
 11 12  1  0
 12 13  2  0
 13 14  1  0
 14 15  1  0
 13 16  1  0
 16 17  1  0
 17 18  1  0
 15  7  1  0
 15 11  2  0
 18 12  1  0
M  END
>  <alias>  (1673) 
None

>  <rmsd(smina/fragmenstein)>  (1673) 
0.426

>  <smiles>  (1673) 
N#CCNC(=O)c1cccc2c3c([nH]c12)CCC3

>  <gnina_score>  (1673) 
5.357

>  <inspiration_score>  (1673) 
None

>  <energy_score>  (1673) 
-3.224288

>  <distance_score>  (1673) 
0.939056

>  <gnina_score_min>  (1673) 
5.396

>  <inchikey>  (1673) 
RFRNMUWNIIJEPY-UHFFFAOYSA-N

>  <exports>  (1673) 
['/opt/xchem-fragalysis-2/maxwin/BulkDock/OUTPUTS/openbind_a71ev2a_c2_elabs_1LOUU54.sdf', '/opt/xchem-fragalysis-2/maxwin/BulkDock/OUTPUTS/openbind_a71ev2a_c2_elabs_1LSYIDY.sdf']

>  <name>  (1673) 
P585167

>  <ref_pdb>  (1673) 
A0566a

>  <subsites>  (1673) 
None

>  <HIPPO Pose ID>  (1673) 
585167

>  <ref_mols>  (1673) 
A0566a

>  <HIPPO Compound ID>  (1673) 
439942

>  <tags>  (1673) 
openbind_a71ev2a_c2_elabs,syndirella_product,openbind_a71ev2a_c2_elabs_fragonly_scored_top80percent,openbind_a71ev2a_c2_elabs_scored,BulkDock Fragalysis export,openbind_a71ev2a_c2_elabs_scored_top80percent,openbind_a71ev2a_c2_elabs_activefrags_only_scored_5.2plus,syndirella_placed

>  <smina_score_min>  (1673) 
-6.085

$$$$
P585169
     RDKit          3D

 18 20  0  0  0  0  0  0  0  0999 V2000
    4.4629   14.3777   25.9699 C   0  0  0  0  0  0  0  0  0  0  0  0
    5.5484   13.7609   26.8383 C   0  0  0  0  0  0  0  0  0  0  0  0
    6.4998   12.9376   26.0372 C   0  0  0  0  0  0  0  0  0  0  0  0
    6.6259   11.5693   25.9036 C   0  0  0  0  0  0  0  0  0  0  0  0
    7.6881   11.3129   24.9991 C   0  0  0  0  0  0  0  0  0  0  0  0
    8.2828   10.1516   24.4826 C   0  0  0  0  0  0  0  0  0  0  0  0
    9.3569   10.2705   23.6013 C   0  0  0  0  0  0  0  0  0  0  0  0
   10.1570    8.8831   23.0302 Cl  0  0  0  0  0  0  0  0  0  0  0  0
    9.8462   11.5046   23.2255 C   0  0  0  0  0  0  0  0  0  0  0  0
    9.2511   12.6644   23.7044 C   0  0  0  0  0  0  0  0  0  0  0  0
    9.7804   13.9875   23.3600 C   0  0  0  0  0  0  0  0  0  0  0  0
    9.7734   14.8089   24.1862 O   0  0  0  0  0  0  0  0  0  0  0  0
   10.2786   14.0398   21.9058 N   0  0  0  0  0  0  0  0  0  0  0  0
   10.9408   15.0541   21.2085 C   0  0  0  0  0  0  0  0  0  0  0  0
   12.3294   14.7342   20.7527 C   0  0  0  0  0  0  0  0  0  0  0  0
   11.2357   14.9293   19.7414 C   0  0  0  0  0  0  0  0  0  0  0  0
    8.1876   12.5454   24.5999 C   0  0  0  0  0  0  0  0  0  0  0  0
    7.4571   13.5169   25.2434 N   0  0  0  0  0  0  0  0  0  0  0  0
  1  2  1  0
  2  3  1  0
  3  4  2  0
  4  5  1  0
  5  6  2  0
  6  7  1  0
  7  8  1  0
  7  9  2  0
  9 10  1  0
 10 11  1  0
 11 12  2  0
 11 13  1  0
 13 14  1  0
 14 15  1  0
 15 16  1  0
 10 17  2  0
 17 18  1  0
 18  3  1  0
 17  5  1  0
 16 14  1  0
M  END
>  <alias>  (1674) 
None

>  <rmsd(smina/fragmenstein)>  (1674) 
1.076

>  <smiles>  (1674) 
CCc1cc2cc(Cl)cc(C(=O)NC3CC3)c2[nH]1

>  <gnina_score>  (1674) 
5.381

>  <inspiration_score>  (1674) 
None

>  <energy_score>  (1674) 
-8.000311

>  <distance_score>  (1674) 
1.251176

>  <gnina_score_min>  (1674) 
5.429

>  <inchikey>  (1674) 
FZRSVVPCWZANME-UHFFFAOYSA-N

>  <exports>  (1674) 
['/opt/xchem-fragalysis-2/maxwin/BulkDock/OUTPUTS/openbind_a71ev2a_c2_elabs_1LOUU54.sdf', '/opt/xchem-fragalysis-2/maxwin/BulkDock/OUTPUTS/openbind_a71ev2a_c2_elabs_1LSYIDY.sdf']

>  <name>  (1674) 
P585169

>  <ref_pdb>  (1674) 
A0566a

>  <subsites>  (1674) 
None

>  <HIPPO Pose ID>  (1674) 
585169

>  <ref_mols>  (1674) 
A0566a

>  <HIPPO Compound ID>  (1674) 
439947

>  <tags>  (1674) 
openbind_a71ev2a_c2_elabs,syndirella_product,openbind_a71ev2a_c2_elabs_fragonly_scored_top80percent,openbind_a71ev2a_c2_elabs_scored,BulkDock Fragalysis export,openbind_a71ev2a_c2_elabs_scored_top80percent,openbind_a71ev2a_c2_elabs_activefrags_only_scored_5.2plus,syndirella_placed

>  <smina_score_min>  (1674) 
-6.009

$$$$
P585177
     RDKit          3D

 18 19  0  0  0  0  0  0  0  0999 V2000
    4.6132   14.5542   25.7368 C   0  0  0  0  0  0  0  0  0  0  0  0
    5.7318   14.0461   26.6331 C   0  0  0  0  0  0  0  0  0  0  0  0
    6.6721   13.1577   25.8897 C   0  0  0  0  0  0  0  0  0  0  0  0
    6.7208   11.7833   25.7797 C   0  0  0  0  0  0  0  0  0  0  0  0
    7.7921   11.4521   24.9113 C   0  0  0  0  0  0  0  0  0  0  0  0
    8.3220   10.2454   24.4291 C   0  0  0  0  0  0  0  0  0  0  0  0
    9.4106   10.2873   23.5627 C   0  0  0  0  0  0  0  0  0  0  0  0
   10.1468    8.8544   23.0243 Cl  0  0  0  0  0  0  0  0  0  0  0  0
    9.9854   11.4834   23.1861 C   0  0  0  0  0  0  0  0  0  0  0  0
    9.4943   12.6862   23.6654 C   0  0  0  0  0  0  0  0  0  0  0  0
   10.1812   13.9495   23.3571 C   0  0  0  0  0  0  0  0  0  0  0  0
   10.2079   14.7600   24.1909 O   0  0  0  0  0  0  0  0  0  0  0  0
   10.6916   13.9926   21.9126 N   0  0  0  0  0  0  0  0  0  0  0  0
   11.4268   15.0052   21.2145 C   0  0  0  0  0  0  0  0  0  0  0  0
   10.7409   15.3449   19.9602 C   0  0  0  0  0  0  0  0  0  0  0  0
   10.2023   15.6023   18.9640 N   0  0  0  0  0  0  0  0  0  0  0  0
    8.3896   12.6478   24.5218 C   0  0  0  0  0  0  0  0  0  0  0  0
    7.6937   13.6678   25.1290 N   0  0  0  0  0  0  0  0  0  0  0  0
  1  2  1  0
  2  3  1  0
  3  4  2  0
  4  5  1  0
  5  6  2  0
  6  7  1  0
  7  8  1  0
  7  9  2  0
  9 10  1  0
 10 11  1  0
 11 12  2  0
 11 13  1  0
 13 14  1  0
 14 15  1  0
 15 16  3  0
 10 17  2  0
 17 18  1  0
 18  3  1  0
 17  5  1  0
M  END
>  <alias>  (1675) 
None

>  <rmsd(smina/fragmenstein)>  (1675) 
0.36

>  <smiles>  (1675) 
CCc1cc2cc(Cl)cc(C(=O)NCC#N)c2[nH]1

>  <gnina_score>  (1675) 
5.634

>  <inspiration_score>  (1675) 
None

>  <energy_score>  (1675) 
-7.308596

>  <distance_score>  (1675) 
1.028907

>  <gnina_score_min>  (1675) 
5.576

>  <inchikey>  (1675) 
MLVSSLLLUICASE-UHFFFAOYSA-N

>  <exports>  (1675) 
['/opt/xchem-fragalysis-2/maxwin/BulkDock/OUTPUTS/openbind_a71ev2a_c2_elabs_1LOUU54.sdf', '/opt/xchem-fragalysis-2/maxwin/BulkDock/OUTPUTS/openbind_a71ev2a_c2_elabs_1LSYIDY.sdf']

>  <name>  (1675) 
P585177

>  <ref_pdb>  (1675) 
A0566a

>  <subsites>  (1675) 
None

>  <HIPPO Pose ID>  (1675) 
585177

>  <ref_mols>  (1675) 
A0566a

>  <HIPPO Compound ID>  (1675) 
439961

>  <tags>  (1675) 
openbind_a71ev2a_c2_elabs,syndirella_product,openbind_a71ev2a_c2_elabs_fragonly_scored_top80percent,BulkDock Fragalysis export,openbind_a71ev2a_c2_elabs_scored,openbind_a71ev2a_c2_elabs_scored_top80percent,openbind_a71ev2a_c2_elabs_activefrags_only_scored_5.2plus,openbind_a71ev2a_c2_elabs_activefrags_only_scored_5.5plus,syndirella_placed

>  <smina_score_min>  (1675) 
-5.267

$$$$
P585179
     RDKit          3D

 18 19  0  0  0  0  0  0  0  0999 V2000
    6.2283   14.0998   28.1847 C   0  0  0  0  0  0  0  0  0  0  0  0
    5.6492   13.7922   26.8127 C   0  0  0  0  0  0  0  0  0  0  0  0
    6.5896   12.9714   25.9970 C   0  0  0  0  0  0  0  0  0  0  0  0
    6.6959   11.6047   25.8451 C   0  0  0  0  0  0  0  0  0  0  0  0
    7.7588   11.3479   24.9428 C   0  0  0  0  0  0  0  0  0  0  0  0
    8.3374   10.1842   24.4223 C   0  0  0  0  0  0  0  0  0  0  0  0
    9.4141   10.2974   23.5452 C   0  0  0  0  0  0  0  0  0  0  0  0
   10.1764    8.8899   22.9754 Cl  0  0  0  0  0  0  0  0  0  0  0  0
    9.9303   11.5282   23.1816 C   0  0  0  0  0  0  0  0  0  0  0  0
    9.3655   12.6934   23.6775 C   0  0  0  0  0  0  0  0  0  0  0  0
    9.9163   14.0226   23.3715 C   0  0  0  0  0  0  0  0  0  0  0  0
    9.8800   14.8086   24.2314 O   0  0  0  0  0  0  0  0  0  0  0  0
   10.3607   14.1672   21.9074 N   0  0  0  0  0  0  0  0  0  0  0  0
   10.9436   15.2838   21.2139 C   0  0  0  0  0  0  0  0  0  0  0  0
    9.8685   16.0787   20.4702 C   0  0  0  0  0  0  0  0  0  0  0  0
    9.8536   15.6876   19.1007 O   0  0  0  0  0  0  0  0  0  0  0  0
    8.2829   12.5763   24.5600 C   0  0  0  0  0  0  0  0  0  0  0  0
    7.5493   13.5471   25.2043 N   0  0  0  0  0  0  0  0  0  0  0  0
  1  2  1  0
  2  3  1  0
  3  4  2  0
  4  5  1  0
  5  6  2  0
  6  7  1  0
  7  8  1  0
  7  9  2  0
  9 10  1  0
 10 11  1  0
 11 12  2  0
 11 13  1  0
 13 14  1  0
 14 15  1  0
 15 16  1  0
 10 17  2  0
 17 18  1  0
 18  3  1  0
 17  5  1  0
M  END
>  <alias>  (1676) 
None

>  <rmsd(smina/fragmenstein)>  (1676) 
0.56

>  <smiles>  (1676) 
CCc1cc2cc(Cl)cc(C(=O)NCCO)c2[nH]1

>  <gnina_score>  (1676) 
5.332

>  <inspiration_score>  (1676) 
None

>  <energy_score>  (1676) 
-4.640373

>  <distance_score>  (1676) 
1.169171

>  <gnina_score_min>  (1676) 
5.271

>  <inchikey>  (1676) 
NJVCEJFDRMUBBF-UHFFFAOYSA-N

>  <exports>  (1676) 
['/opt/xchem-fragalysis-2/maxwin/BulkDock/OUTPUTS/openbind_a71ev2a_c2_elabs_1LOUU54.sdf', '/opt/xchem-fragalysis-2/maxwin/BulkDock/OUTPUTS/openbind_a71ev2a_c2_elabs_1LSYIDY.sdf']

>  <name>  (1676) 
P585179

>  <ref_pdb>  (1676) 
A0566a

>  <subsites>  (1676) 
None

>  <HIPPO Pose ID>  (1676) 
585179

>  <ref_mols>  (1676) 
A0566a

>  <HIPPO Compound ID>  (1676) 
439963

>  <tags>  (1676) 
openbind_a71ev2a_c2_elabs,syndirella_product,openbind_a71ev2a_c2_elabs_fragonly_scored_top80percent,openbind_a71ev2a_c2_elabs_scored,BulkDock Fragalysis export,openbind_a71ev2a_c2_elabs_scored_top80percent,openbind_a71ev2a_c2_elabs_activefrags_only_scored_5.2plus,syndirella_placed

>  <smina_score_min>  (1676) 
-5.514

$$$$
P585180
     RDKit          3D

 18 19  0  0  0  0  0  0  0  0999 V2000
   10.3169   15.6888   18.9225 C   0  0  0  0  0  0  0  0  0  0  0  0
   10.2140   15.6899   20.2588 C   0  0  0  0  0  0  0  0  0  0  0  0
   11.2527   15.1409   21.1834 C   0  0  0  0  0  0  0  0  0  0  0  0
   10.6454   14.0676   21.8949 N   0  0  0  0  0  0  0  0  0  0  0  0
   10.1565   13.9838   23.3486 C   0  0  0  0  0  0  0  0  0  0  0  0
   10.2414   14.7526   24.2196 O   0  0  0  0  0  0  0  0  0  0  0  0
    9.4803   12.7127   23.6461 C   0  0  0  0  0  0  0  0  0  0  0  0
    9.9827   11.5126   23.1704 C   0  0  0  0  0  0  0  0  0  0  0  0
    9.4137   10.3133   23.5497 C   0  0  0  0  0  0  0  0  0  0  0  0
   10.1444    8.8765   23.0120 Cl  0  0  0  0  0  0  0  0  0  0  0  0
    8.3262   10.2654   24.4185 C   0  0  0  0  0  0  0  0  0  0  0  0
    7.7907   11.4686   24.9016 C   0  0  0  0  0  0  0  0  0  0  0  0
    6.7210   11.7942   25.7743 C   0  0  0  0  0  0  0  0  0  0  0  0
    6.6665   13.1684   25.8854 C   0  0  0  0  0  0  0  0  0  0  0  0
    5.7274   14.0527   26.6345 C   0  0  0  0  0  0  0  0  0  0  0  0
    4.6038   14.5598   25.7439 C   0  0  0  0  0  0  0  0  0  0  0  0
    7.6833   13.6831   25.1210 N   0  0  0  0  0  0  0  0  0  0  0  0
    8.3792   12.6668   24.5079 C   0  0  0  0  0  0  0  0  0  0  0  0
  1  2  2  0
  2  3  1  0
  3  4  1  0
  4  5  1  0
  5  6  2  0
  5  7  1  0
  7  8  2  0
  8  9  1  0
  9 10  1  0
  9 11  2  0
 11 12  1  0
 12 13  1  0
 13 14  2  0
 14 15  1  0
 15 16  1  0
 14 17  1  0
 17 18  1  0
 18  7  1  0
 18 12  2  0
M  END
>  <alias>  (1677) 
None

>  <rmsd(smina/fragmenstein)>  (1677) 
0.593

>  <smiles>  (1677) 
C=CCNC(=O)c1cc(Cl)cc2cc(CC)[nH]c12

>  <gnina_score>  (1677) 
5.517

>  <inspiration_score>  (1677) 
None

>  <energy_score>  (1677) 
-3.073966

>  <distance_score>  (1677) 
1.037112

>  <gnina_score_min>  (1677) 
5.453

>  <inchikey>  (1677) 
BKPFNIHIEABOID-UHFFFAOYSA-N

>  <exports>  (1677) 
['/opt/xchem-fragalysis-2/maxwin/BulkDock/OUTPUTS/openbind_a71ev2a_c2_elabs_1LOUU54.sdf', '/opt/xchem-fragalysis-2/maxwin/BulkDock/OUTPUTS/openbind_a71ev2a_c2_elabs_1LSYIDY.sdf']

>  <name>  (1677) 
P585180

>  <ref_pdb>  (1677) 
A0566a

>  <subsites>  (1677) 
None

>  <HIPPO Pose ID>  (1677) 
585180

>  <ref_mols>  (1677) 
A0566a

>  <HIPPO Compound ID>  (1677) 
439969

>  <tags>  (1677) 
openbind_a71ev2a_c2_elabs,syndirella_product,openbind_a71ev2a_c2_elabs_fragonly_scored_top80percent,openbind_a71ev2a_c2_elabs_scored,BulkDock Fragalysis export,openbind_a71ev2a_c2_elabs_scored_top80percent,openbind_a71ev2a_c2_elabs_activefrags_only_scored_5.2plus,syndirella_placed

>  <smina_score_min>  (1677) 
-5.686

$$$$
P585181
     RDKit          3D

 18 19  0  0  0  0  0  0  0  0999 V2000
    6.1714   14.0733   28.2396 C   0  0  0  0  0  0  0  0  0  0  0  0
    5.5848   13.7620   26.8716 C   0  0  0  0  0  0  0  0  0  0  0  0
    6.5258   12.9493   26.0482 C   0  0  0  0  0  0  0  0  0  0  0  0
    6.6426   11.5828   25.8967 C   0  0  0  0  0  0  0  0  0  0  0  0
    7.7015   11.3331   24.9880 C   0  0  0  0  0  0  0  0  0  0  0  0
    8.2900   10.1718   24.4664 C   0  0  0  0  0  0  0  0  0  0  0  0
    9.3648   10.2903   23.5882 C   0  0  0  0  0  0  0  0  0  0  0  0
   10.1523    8.8988   23.0113 Cl  0  0  0  0  0  0  0  0  0  0  0  0
    9.8642   11.5248   23.2246 C   0  0  0  0  0  0  0  0  0  0  0  0
    9.2780   12.6870   23.7114 C   0  0  0  0  0  0  0  0  0  0  0  0
    9.8403   14.0054   23.3942 C   0  0  0  0  0  0  0  0  0  0  0  0
    9.9117   14.7860   24.2554 O   0  0  0  0  0  0  0  0  0  0  0  0
   10.2969   14.0926   21.9313 N   0  0  0  0  0  0  0  0  0  0  0  0
   11.0232   15.1209   21.2400 C   0  0  0  0  0  0  0  0  0  0  0  0
   12.4971   14.8471   21.4707 C   0  0  0  0  0  0  0  0  0  0  0  0
   10.6422   15.1170   19.7674 C   0  0  0  0  0  0  0  0  0  0  0  0
    8.2073   12.5680   24.5995 C   0  0  0  0  0  0  0  0  0  0  0  0
    7.4743   13.5342   25.2483 N   0  0  0  0  0  0  0  0  0  0  0  0
  1  2  1  0
  2  3  1  0
  3  4  2  0
  4  5  1  0
  5  6  2  0
  6  7  1  0
  7  8  1  0
  7  9  2  0
  9 10  1  0
 10 11  1  0
 11 12  2  0
 11 13  1  0
 13 14  1  0
 14 15  1  0
 14 16  1  0
 10 17  2  0
 17 18  1  0
 18  3  1  0
 17  5  1  0
M  END
>  <alias>  (1678) 
None

>  <rmsd(smina/fragmenstein)>  (1678) 
0.284

>  <smiles>  (1678) 
CCc1cc2cc(Cl)cc(C(=O)NC(C)C)c2[nH]1

>  <gnina_score>  (1678) 
5.442

>  <inspiration_score>  (1678) 
None

>  <energy_score>  (1678) 
-8.516385

>  <distance_score>  (1678) 
1.201062

>  <gnina_score_min>  (1678) 
5.476

>  <inchikey>  (1678) 
RXIFITDHGJAHDP-UHFFFAOYSA-N

>  <exports>  (1678) 
['/opt/xchem-fragalysis-2/maxwin/BulkDock/OUTPUTS/openbind_a71ev2a_c2_elabs_1LOUU54.sdf', '/opt/xchem-fragalysis-2/maxwin/BulkDock/OUTPUTS/openbind_a71ev2a_c2_elabs_1LSYIDY.sdf']

>  <name>  (1678) 
P585181

>  <ref_pdb>  (1678) 
A0566a

>  <subsites>  (1678) 
None

>  <HIPPO Pose ID>  (1678) 
585181

>  <ref_mols>  (1678) 
A0566a

>  <HIPPO Compound ID>  (1678) 
439970

>  <tags>  (1678) 
openbind_a71ev2a_c2_elabs,syndirella_product,openbind_a71ev2a_c2_elabs_fragonly_scored_top80percent,openbind_a71ev2a_c2_elabs_scored,BulkDock Fragalysis export,openbind_a71ev2a_c2_elabs_scored_top80percent,openbind_a71ev2a_c2_elabs_activefrags_only_scored_5.2plus,syndirella_placed

>  <smina_score_min>  (1678) 
-5.967

$$$$
P585182
     RDKit          3D

 18 19  0  0  0  0  0  0  0  0999 V2000
    6.1735   13.9862   28.2552 C   0  0  0  0  0  0  0  0  0  0  0  0
    5.6099   13.7091   26.8703 C   0  0  0  0  0  0  0  0  0  0  0  0
    6.5590   12.9056   26.0477 C   0  0  0  0  0  0  0  0  0  0  0  0
    6.6691   11.5423   25.8692 C   0  0  0  0  0  0  0  0  0  0  0  0
    7.7394   11.3053   24.9705 C   0  0  0  0  0  0  0  0  0  0  0  0
    8.3241   10.1541   24.4296 C   0  0  0  0  0  0  0  0  0  0  0  0
    9.4038   10.2866   23.5590 C   0  0  0  0  0  0  0  0  0  0  0  0
   10.1706    8.8930   22.9623 Cl  0  0  0  0  0  0  0  0  0  0  0  0
    9.9232   11.5248   23.2273 C   0  0  0  0  0  0  0  0  0  0  0  0
    9.3625   12.6779   23.7574 C   0  0  0  0  0  0  0  0  0  0  0  0
    9.9193   14.0154   23.4989 C   0  0  0  0  0  0  0  0  0  0  0  0
    9.8107   14.8001   24.3533 O   0  0  0  0  0  0  0  0  0  0  0  0
   10.4697   14.1655   22.0737 N   0  0  0  0  0  0  0  0  0  0  0  0
   11.0905   15.2873   21.4261 C   0  0  0  0  0  0  0  0  0  0  0  0
   10.0287   16.1363   20.7319 C   0  0  0  0  0  0  0  0  0  0  0  0
   10.1100   15.9005   18.9857 Cl  0  0  0  0  0  0  0  0  0  0  0  0
    8.2676   12.5410   24.6213 C   0  0  0  0  0  0  0  0  0  0  0  0
    7.5252   13.4983   25.2761 N   0  0  0  0  0  0  0  0  0  0  0  0
  1  2  1  0
  2  3  1  0
  3  4  2  0
  4  5  1  0
  5  6  2  0
  6  7  1  0
  7  8  1  0
  7  9  2  0
  9 10  1  0
 10 11  1  0
 11 12  2  0
 11 13  1  0
 13 14  1  0
 14 15  1  0
 15 16  1  0
 10 17  2  0
 17 18  1  0
 18  3  1  0
 17  5  1  0
M  END
>  <alias>  (1679) 
None

>  <rmsd(smina/fragmenstein)>  (1679) 
0.865

>  <smiles>  (1679) 
CCc1cc2cc(Cl)cc(C(=O)NCCCl)c2[nH]1

>  <gnina_score>  (1679) 
5.597

>  <inspiration_score>  (1679) 
None

>  <energy_score>  (1679) 
-0.307679

>  <distance_score>  (1679) 
1.150884

>  <gnina_score_min>  (1679) 
5.471

>  <inchikey>  (1679) 
XIDDCYBQYBMIIO-UHFFFAOYSA-N

>  <exports>  (1679) 
['/opt/xchem-fragalysis-2/maxwin/BulkDock/OUTPUTS/openbind_a71ev2a_c2_elabs_1LOUU54.sdf', '/opt/xchem-fragalysis-2/maxwin/BulkDock/OUTPUTS/openbind_a71ev2a_c2_elabs_1LSYIDY.sdf']

>  <name>  (1679) 
P585182

>  <ref_pdb>  (1679) 
A0566a

>  <subsites>  (1679) 
None

>  <HIPPO Pose ID>  (1679) 
585182

>  <ref_mols>  (1679) 
A0566a

>  <HIPPO Compound ID>  (1679) 
439971

>  <tags>  (1679) 
openbind_a71ev2a_c2_elabs,syndirella_product,openbind_a71ev2a_c2_elabs_fragonly_scored_top80percent,openbind_a71ev2a_c2_elabs_scored,BulkDock Fragalysis export,openbind_a71ev2a_c2_elabs_scored_top80percent,openbind_a71ev2a_c2_elabs_activefrags_only_scored_5.2plus,syndirella_placed

>  <smina_score_min>  (1679) 
-5.466

$$$$
P585183
     RDKit          3D

 18 19  0  0  0  0  0  0  0  0999 V2000
   10.2094   15.7194   18.8940 C   0  0  0  0  0  0  0  0  0  0  0  0
   10.7373   15.3717   19.9157 C   0  0  0  0  0  0  0  0  0  0  0  0
   11.4274   15.0121   21.1558 C   0  0  0  0  0  0  0  0  0  0  0  0
   10.6577   14.0313   21.8465 N   0  0  0  0  0  0  0  0  0  0  0  0
   10.2122   13.9646   23.3138 C   0  0  0  0  0  0  0  0  0  0  0  0
   10.3365   14.7368   24.1766 O   0  0  0  0  0  0  0  0  0  0  0  0
    9.5087   12.7113   23.6270 C   0  0  0  0  0  0  0  0  0  0  0  0
    9.9948   11.5024   23.1571 C   0  0  0  0  0  0  0  0  0  0  0  0
    9.4171   10.3106   23.5441 C   0  0  0  0  0  0  0  0  0  0  0  0
   10.1410    8.8673   23.0158 Cl  0  0  0  0  0  0  0  0  0  0  0  0
    8.3313   10.2786   24.4143 C   0  0  0  0  0  0  0  0  0  0  0  0
    7.8120   11.4906   24.8941 C   0  0  0  0  0  0  0  0  0  0  0  0
    6.7525   11.8293   25.7735 C   0  0  0  0  0  0  0  0  0  0  0  0
    6.7239   13.2033   25.8940 C   0  0  0  0  0  0  0  0  0  0  0  0
    5.8162   14.0951   26.6722 C   0  0  0  0  0  0  0  0  0  0  0  0
    6.3984   14.4246   28.0378 C   0  0  0  0  0  0  0  0  0  0  0  0
    7.7315   13.7066   25.1100 N   0  0  0  0  0  0  0  0  0  0  0  0
    8.4126   12.6822   24.4948 C   0  0  0  0  0  0  0  0  0  0  0  0
  1  2  3  0
  2  3  1  0
  3  4  1  0
  4  5  1  0
  5  6  2  0
  5  7  1  0
  7  8  2  0
  8  9  1  0
  9 10  1  0
  9 11  2  0
 11 12  1  0
 12 13  1  0
 13 14  2  0
 14 15  1  0
 15 16  1  0
 14 17  1  0
 17 18  1  0
 18  7  1  0
 18 12  2  0
M  END
>  <alias>  (1680) 
None

>  <rmsd(smina/fragmenstein)>  (1680) 
0.389

>  <smiles>  (1680) 
C#CCNC(=O)c1cc(Cl)cc2cc(CC)[nH]c12

>  <gnina_score>  (1680) 
5.434

>  <inspiration_score>  (1680) 
None

>  <energy_score>  (1680) 
-5.951449

>  <distance_score>  (1680) 
1.007967

>  <gnina_score_min>  (1680) 
5.489

>  <inchikey>  (1680) 
SUYJKNFCSZTIDL-UHFFFAOYSA-N

>  <exports>  (1680) 
['/opt/xchem-fragalysis-2/maxwin/BulkDock/OUTPUTS/openbind_a71ev2a_c2_elabs_1LOUU54.sdf', '/opt/xchem-fragalysis-2/maxwin/BulkDock/OUTPUTS/openbind_a71ev2a_c2_elabs_1LSYIDY.sdf']

>  <name>  (1680) 
P585183

>  <ref_pdb>  (1680) 
A0566a

>  <subsites>  (1680) 
None

>  <HIPPO Pose ID>  (1680) 
585183

>  <ref_mols>  (1680) 
A0566a

>  <HIPPO Compound ID>  (1680) 
439973

>  <tags>  (1680) 
openbind_a71ev2a_c2_elabs,syndirella_product,openbind_a71ev2a_c2_elabs_fragonly_scored_top80percent,openbind_a71ev2a_c2_elabs_scored,BulkDock Fragalysis export,openbind_a71ev2a_c2_elabs_scored_top80percent,openbind_a71ev2a_c2_elabs_activefrags_only_scored_5.2plus,syndirella_placed

>  <smina_score_min>  (1680) 
-5.595

$$$$
P585184
     RDKit          3D

 18 19  0  0  0  0  0  0  0  0999 V2000
   10.1158   14.8307   24.0453 O   0  0  0  0  0  0  0  0  0  0  0  0
    9.5819   14.1363   23.2800 C   0  0  0  0  0  0  0  0  0  0  0  0
    9.3091   14.3298   21.7808 N   0  0  0  0  0  0  0  0  0  0  0  0
    9.7210   15.3828   20.8788 C   0  0  0  0  0  0  0  0  0  0  0  0
   10.9911   15.0654   20.0902 C   0  0  2  0  0  0  0  0  0  0  0  0
   10.7897   14.0499   19.2212 F   0  0  0  0  0  0  0  0  0  0  0  0
   12.3495   14.7185   21.1639 Cl  0  0  0  0  0  0  0  0  0  0  0  0
    9.0977   12.8417   23.7326 C   0  0  0  0  0  0  0  0  0  0  0  0
    9.7576   11.7067   23.2988 C   0  0  0  0  0  0  0  0  0  0  0  0
   10.8647   11.8593   22.5747 F   0  0  0  0  0  0  0  0  0  0  0  0
    9.3061   10.4494   23.6485 C   0  0  0  0  0  0  0  0  0  0  0  0
   10.0905    9.0589   23.0531 Cl  0  0  0  0  0  0  0  0  0  0  0  0
    8.2315   10.3046   24.5270 C   0  0  0  0  0  0  0  0  0  0  0  0
    7.6051   11.4517   25.0462 C   0  0  0  0  0  0  0  0  0  0  0  0
    6.5461   11.6690   25.9624 C   0  0  0  0  0  0  0  0  0  0  0  0
    6.3704   13.0285   26.0825 C   0  0  0  0  0  0  0  0  0  0  0  0
    7.2725   13.6508   25.2620 N   0  0  0  0  0  0  0  0  0  0  0  0
    8.0457   12.7073   24.6306 C   0  0  0  0  0  0  0  0  0  0  0  0
  1  2  2  0
  2  3  1  0
  3  4  1  0
  4  5  1  0
  5  6  1  6
  5  7  1  0
  2  8  1  0
  8  9  2  0
  9 10  1  0
  9 11  1  0
 11 12  1  0
 11 13  2  0
 13 14  1  0
 14 15  1  0
 15 16  2  0
 16 17  1  0
 17 18  1  0
 18  8  1  0
 18 14  2  0
M  END
>  <alias>  (1681) 
None

>  <rmsd(smina/fragmenstein)>  (1681) 
0.793

>  <smiles>  (1681) 
O=C(NC[C@H](F)Cl)c1c(F)c(Cl)cc2cc[nH]c12

>  <gnina_score>  (1681) 
5.111

>  <inspiration_score>  (1681) 
None

>  <energy_score>  (1681) 
-2.267487

>  <distance_score>  (1681) 
1.515564

>  <gnina_score_min>  (1681) 
5.413

>  <inchikey>  (1681) 
LCCYFARIFYJQAU-ZETCQYMHSA-N

>  <exports>  (1681) 
['/opt/xchem-fragalysis-2/maxwin/BulkDock/OUTPUTS/openbind_a71ev2a_c2_elabs_1LOUU54.sdf', '/opt/xchem-fragalysis-2/maxwin/BulkDock/OUTPUTS/openbind_a71ev2a_c2_elabs_1LSYIDY.sdf']

>  <name>  (1681) 
P585184

>  <ref_pdb>  (1681) 
A0566a

>  <subsites>  (1681) 
None

>  <HIPPO Pose ID>  (1681) 
585184

>  <ref_mols>  (1681) 
A0566a

>  <HIPPO Compound ID>  (1681) 
439975

>  <tags>  (1681) 
openbind_a71ev2a_c2_elabs,syndirella_product,openbind_a71ev2a_c2_elabs_fragonly_scored_top80percent,openbind_a71ev2a_c2_elabs_scored,BulkDock Fragalysis export,openbind_a71ev2a_c2_elabs_scored_top80percent,openbind_a71ev2a_c2_elabs_activefrags_only_scored_5.2plus,syndirella_placed

>  <smina_score_min>  (1681) 
-5.713

$$$$
P585185
     RDKit          3D

 18 19  0  0  0  0  0  0  0  0999 V2000
   11.6389   14.7051   19.4908 C   0  0  0  0  0  0  0  0  0  0  0  0
   12.1581   14.6985   20.9166 C   0  0  1  0  0  0  0  0  0  0  0  0
   13.2492   15.4941   21.0300 F   0  0  0  0  0  0  0  0  0  0  0  0
   11.1332   15.2421   21.8877 C   0  0  0  0  0  0  0  0  0  0  0  0
   10.3316   14.1938   22.4322 N   0  0  0  0  0  0  0  0  0  0  0  0
    9.6185   14.0851   23.7838 C   0  0  0  0  0  0  0  0  0  0  0  0
    9.5045   14.8635   24.6423 O   0  0  0  0  0  0  0  0  0  0  0  0
    9.0785   12.7331   23.9940 C   0  0  0  0  0  0  0  0  0  0  0  0
    9.6963   11.6131   23.4516 C   0  0  0  0  0  0  0  0  0  0  0  0
   10.7988   11.7751   22.7156 F   0  0  0  0  0  0  0  0  0  0  0  0
    9.2370   10.3380   23.7059 C   0  0  0  0  0  0  0  0  0  0  0  0
   10.0582    9.0089   23.0272 Cl  0  0  0  0  0  0  0  0  0  0  0  0
    8.1616   10.1373   24.5662 C   0  0  0  0  0  0  0  0  0  0  0  0
    7.5284   11.2484   25.1479 C   0  0  0  0  0  0  0  0  0  0  0  0
    6.4544   11.4086   26.0591 C   0  0  0  0  0  0  0  0  0  0  0  0
    6.2874   12.7567   26.2780 C   0  0  0  0  0  0  0  0  0  0  0  0
    7.2162   13.4257   25.5309 N   0  0  0  0  0  0  0  0  0  0  0  0
    7.9934   12.5233   24.8417 C   0  0  0  0  0  0  0  0  0  0  0  0
  2  1  1  6
  2  3  1  0
  2  4  1  0
  4  5  1  0
  5  6  1  0
  6  7  2  0
  6  8  1  0
  8  9  2  0
  9 10  1  0
  9 11  1  0
 11 12  1  0
 11 13  2  0
 13 14  1  0
 14 15  1  0
 15 16  2  0
 16 17  1  0
 17 18  1  0
 18  8  1  0
 18 14  2  0
M  END
>  <alias>  (1682) 
None

>  <rmsd(smina/fragmenstein)>  (1682) 
0.385

>  <smiles>  (1682) 
C[C@@H](F)CNC(=O)c1c(F)c(Cl)cc2cc[nH]c12

>  <gnina_score>  (1682) 
5.131

>  <inspiration_score>  (1682) 
None

>  <energy_score>  (1682) 
-6.213325

>  <distance_score>  (1682) 
1.363603

>  <gnina_score_min>  (1682) 
5.247

>  <inchikey>  (1682) 
DVAWCULVIJVCEF-ZCFIWIBFSA-N

>  <exports>  (1682) 
['/opt/xchem-fragalysis-2/maxwin/BulkDock/OUTPUTS/openbind_a71ev2a_c2_elabs_1LOUU54.sdf', '/opt/xchem-fragalysis-2/maxwin/BulkDock/OUTPUTS/openbind_a71ev2a_c2_elabs_1LSYIDY.sdf']

>  <name>  (1682) 
P585185

>  <ref_pdb>  (1682) 
A0566a

>  <subsites>  (1682) 
None

>  <HIPPO Pose ID>  (1682) 
585185

>  <ref_mols>  (1682) 
A0566a

>  <HIPPO Compound ID>  (1682) 
439977

>  <tags>  (1682) 
openbind_a71ev2a_c2_elabs,syndirella_product,openbind_a71ev2a_c2_elabs_fragonly_scored_top80percent,openbind_a71ev2a_c2_elabs_scored,BulkDock Fragalysis export,openbind_a71ev2a_c2_elabs_scored_top80percent,openbind_a71ev2a_c2_elabs_activefrags_only_scored_5.2plus,syndirella_placed

>  <smina_score_min>  (1682) 
-4.988

$$$$
P585186
     RDKit          3D

 18 20  0  0  0  0  0  0  0  0999 V2000
    5.1896   10.1600   27.4801 N   0  0  0  0  0  0  0  0  0  0  0  0
    5.8439   10.8377   26.8025 C   0  0  0  0  0  0  0  0  0  0  0  0
    6.6731   11.7084   26.0341 C   0  0  0  0  0  0  0  0  0  0  0  0
    6.6522   13.0814   26.1581 C   0  0  0  0  0  0  0  0  0  0  0  0
    7.6286   13.5880   25.3499 N   0  0  0  0  0  0  0  0  0  0  0  0
    8.2784   12.5584   24.7055 C   0  0  0  0  0  0  0  0  0  0  0  0
    9.3676   12.6024   23.8364 C   0  0  0  0  0  0  0  0  0  0  0  0
   10.0407   13.8913   23.6274 C   0  0  0  0  0  0  0  0  0  0  0  0
   10.2172   14.5818   24.5491 O   0  0  0  0  0  0  0  0  0  0  0  0
   10.3159   14.1310   22.1371 N   0  0  0  0  0  0  0  0  0  0  0  0
   10.9245   15.1820   21.5016 N   0  0  0  0  0  0  0  0  0  0  0  0
   11.1457   14.8585   20.0686 C   0  0  0  0  0  0  0  0  0  0  0  0
   12.5066   14.2739   20.4429 C   0  0  0  0  0  0  0  0  0  0  0  0
   12.3937   15.1088   21.7152 C   0  0  0  0  0  0  0  0  0  0  0  0
    9.8211   11.4132   23.2649 C   0  0  0  0  0  0  0  0  0  0  0  0
    9.2317   10.2028   23.6050 C   0  0  0  0  0  0  0  0  0  0  0  0
    8.1853   10.1673   24.5372 C   0  0  0  0  0  0  0  0  0  0  0  0
    7.6782   11.3636   25.0861 C   0  0  0  0  0  0  0  0  0  0  0  0
  1  2  3  0
  2  3  1  0
  3  4  2  0
  4  5  1  0
  5  6  1  0
  6  7  2  0
  7  8  1  0
  8  9  2  0
  8 10  1  0
 10 11  1  0
 11 12  1  0
 12 13  1  0
 13 14  1  0
  7 15  1  0
 15 16  2  0
 16 17  1  0
 17 18  2  0
 18  3  1  0
 18  6  1  0
 14 11  1  0
M  END
>  <alias>  (1683) 
None

>  <rmsd(smina/fragmenstein)>  (1683) 
0.301

>  <smiles>  (1683) 
N#Cc1c[nH]c2c(C(=O)NN3CCC3)cccc12

>  <gnina_score>  (1683) 
5.216

>  <inspiration_score>  (1683) 
None

>  <energy_score>  (1683) 
-2.594241

>  <distance_score>  (1683) 
1.119093

>  <gnina_score_min>  (1683) 
5.28

>  <inchikey>  (1683) 
CHEFYMQBILMKJH-UHFFFAOYSA-N

>  <exports>  (1683) 
['/opt/xchem-fragalysis-2/maxwin/BulkDock/OUTPUTS/openbind_a71ev2a_c2_elabs_1LOUU54.sdf', '/opt/xchem-fragalysis-2/maxwin/BulkDock/OUTPUTS/openbind_a71ev2a_c2_elabs_1LSYIDY.sdf']

>  <name>  (1683) 
P585186

>  <ref_pdb>  (1683) 
A0566a

>  <subsites>  (1683) 
None

>  <HIPPO Pose ID>  (1683) 
585186

>  <ref_mols>  (1683) 
A0566a

>  <HIPPO Compound ID>  (1683) 
439979

>  <tags>  (1683) 
openbind_a71ev2a_c2_elabs,syndirella_product,openbind_a71ev2a_c2_elabs_fragonly_scored_top80percent,openbind_a71ev2a_c2_elabs_scored,BulkDock Fragalysis export,openbind_a71ev2a_c2_elabs_scored_top80percent,openbind_a71ev2a_c2_elabs_activefrags_only_scored_5.2plus,syndirella_placed

>  <smina_score_min>  (1683) 
-6.15

$$$$
P585188
     RDKit          3D

 18 20  0  0  0  0  0  0  0  0999 V2000
    5.1988   10.2095   27.4901 N   0  0  0  0  0  0  0  0  0  0  0  0
    5.8498   10.8786   26.8012 C   0  0  0  0  0  0  0  0  0  0  0  0
    6.6776   11.7362   26.0164 C   0  0  0  0  0  0  0  0  0  0  0  0
    6.6527   13.1111   26.1069 C   0  0  0  0  0  0  0  0  0  0  0  0
    7.6210   13.6007   25.2788 N   0  0  0  0  0  0  0  0  0  0  0  0
    8.2794   12.5600   24.6613 C   0  0  0  0  0  0  0  0  0  0  0  0
    9.3628   12.5854   23.7813 C   0  0  0  0  0  0  0  0  0  0  0  0
   10.0171   13.8770   23.5057 C   0  0  0  0  0  0  0  0  0  0  0  0
   10.1624   14.6217   24.3885 O   0  0  0  0  0  0  0  0  0  0  0  0
   10.3412   14.0263   22.0178 N   0  0  0  0  0  0  0  0  0  0  0  0
   11.0082   15.0982   21.2998 C   0  0  0  0  0  0  0  0  0  0  0  0
   12.2978   14.6016   20.6308 C   0  0  0  0  0  0  0  0  0  0  0  0
   11.5331   14.6213   18.9995 S   0  0  0  0  0  0  0  0  0  0  0  0
   10.3019   15.5018   19.9855 C   0  0  0  0  0  0  0  0  0  0  0  0
    9.8180   11.3762   23.2523 C   0  0  0  0  0  0  0  0  0  0  0  0
    9.2297   10.1747   23.6232 C   0  0  0  0  0  0  0  0  0  0  0  0
    8.1838   10.1632   24.5538 C   0  0  0  0  0  0  0  0  0  0  0  0
    7.6827   11.3732   25.0755 C   0  0  0  0  0  0  0  0  0  0  0  0
  1  2  3  0
  2  3  1  0
  3  4  2  0
  4  5  1  0
  5  6  1  0
  6  7  2  0
  7  8  1  0
  8  9  2  0
  8 10  1  0
 10 11  1  0
 11 12  1  0
 12 13  1  0
 13 14  1  0
  7 15  1  0
 15 16  2  0
 16 17  1  0
 17 18  2  0
 18  3  1  0
 18  6  1  0
 14 11  1  0
M  END
>  <alias>  (1684) 
None

>  <rmsd(smina/fragmenstein)>  (1684) 
0.29

>  <smiles>  (1684) 
N#Cc1c[nH]c2c(C(=O)NC3CSC3)cccc12

>  <gnina_score>  (1684) 
5.228

>  <inspiration_score>  (1684) 
None

>  <energy_score>  (1684) 
-1.204608

>  <distance_score>  (1684) 
1.140428

>  <gnina_score_min>  (1684) 
5.224

>  <inchikey>  (1684) 
UIMHVBKKNFEWBW-UHFFFAOYSA-N

>  <exports>  (1684) 
['/opt/xchem-fragalysis-2/maxwin/BulkDock/OUTPUTS/openbind_a71ev2a_c2_elabs_1LOUU54.sdf', '/opt/xchem-fragalysis-2/maxwin/BulkDock/OUTPUTS/openbind_a71ev2a_c2_elabs_1LSYIDY.sdf']

>  <name>  (1684) 
P585188

>  <ref_pdb>  (1684) 
A0566a

>  <subsites>  (1684) 
None

>  <HIPPO Pose ID>  (1684) 
585188

>  <ref_mols>  (1684) 
A0566a

>  <HIPPO Compound ID>  (1684) 
439983

>  <tags>  (1684) 
openbind_a71ev2a_c2_elabs,syndirella_product,openbind_a71ev2a_c2_elabs_fragonly_scored_top80percent,openbind_a71ev2a_c2_elabs_scored,BulkDock Fragalysis export,openbind_a71ev2a_c2_elabs_scored_top80percent,openbind_a71ev2a_c2_elabs_activefrags_only_scored_5.2plus,syndirella_placed

>  <smina_score_min>  (1684) 
-5.887

$$$$
P585190
     RDKit          3D

 18 19  0  0  0  0  0  0  0  0999 V2000
   12.6290   14.9072   22.6782 C   0  0  0  0  0  0  0  0  0  0  0  0
   11.5473   14.8096   21.6302 C   0  0  1  0  0  0  0  0  0  0  0  0
   12.1768   14.4339   20.3051 C   0  0  0  0  0  0  0  0  0  0  0  0
   11.0863   14.8968   18.9489 S   0  0  0  0  0  0  0  0  0  0  0  0
   10.6267   13.8427   22.1435 N   0  0  0  0  0  0  0  0  0  0  0  0
    9.8232   13.8280   23.4455 C   0  0  0  0  0  0  0  0  0  0  0  0
    9.7194   14.6356   24.2781 O   0  0  0  0  0  0  0  0  0  0  0  0
    9.1639   12.5284   23.6979 C   0  0  0  0  0  0  0  0  0  0  0  0
    9.6834   11.3078   23.2512 C   0  0  0  0  0  0  0  0  0  0  0  0
    9.1462   10.1034   23.6814 C   0  0  0  0  0  0  0  0  0  0  0  0
    8.1040   10.0938   24.6136 C   0  0  0  0  0  0  0  0  0  0  0  0
    7.5626   11.3041   25.0877 C   0  0  0  0  0  0  0  0  0  0  0  0
    6.5677   11.6674   26.0394 C   0  0  0  0  0  0  0  0  0  0  0  0
    5.7935   10.8120   26.8797 C   0  0  0  0  0  0  0  0  0  0  0  0
    5.1802   10.1472   27.6064 N   0  0  0  0  0  0  0  0  0  0  0  0
    6.4937   13.0425   26.0773 C   0  0  0  0  0  0  0  0  0  0  0  0
    7.4147   13.5310   25.1981 N   0  0  0  0  0  0  0  0  0  0  0  0
    8.0941   12.4917   24.5984 C   0  0  0  0  0  0  0  0  0  0  0  0
  2  1  1  1
  2  3  1  0
  3  4  1  0
  2  5  1  0
  5  6  1  0
  6  7  2  0
  6  8  1  0
  8  9  2  0
  9 10  1  0
 10 11  2  0
 11 12  1  0
 12 13  1  0
 13 14  1  0
 14 15  3  0
 13 16  2  0
 16 17  1  0
 17 18  1  0
 18  8  1  0
 18 12  2  0
M  END
>  <alias>  (1685) 
None

>  <rmsd(smina/fragmenstein)>  (1685) 
0.882

>  <smiles>  (1685) 
C[C@@H](CS)NC(=O)c1cccc2c(C#N)c[nH]c12

>  <gnina_score>  (1685) 
5.186

>  <inspiration_score>  (1685) 
None

>  <energy_score>  (1685) 
-3.933962

>  <distance_score>  (1685) 
1.229874

>  <gnina_score_min>  (1685) 
5.384

>  <inchikey>  (1685) 
JPSDDQKQYOUVFU-QMMMGPOBSA-N

>  <exports>  (1685) 
['/opt/xchem-fragalysis-2/maxwin/BulkDock/OUTPUTS/openbind_a71ev2a_c2_elabs_1LOUU54.sdf', '/opt/xchem-fragalysis-2/maxwin/BulkDock/OUTPUTS/openbind_a71ev2a_c2_elabs_1LSYIDY.sdf']

>  <name>  (1685) 
P585190

>  <ref_pdb>  (1685) 
A0566a

>  <subsites>  (1685) 
None

>  <HIPPO Pose ID>  (1685) 
585190

>  <ref_mols>  (1685) 
A0566a

>  <HIPPO Compound ID>  (1685) 
439990

>  <tags>  (1685) 
openbind_a71ev2a_c2_elabs,syndirella_product,openbind_a71ev2a_c2_elabs_fragonly_scored_top80percent,openbind_a71ev2a_c2_elabs_scored,BulkDock Fragalysis export,openbind_a71ev2a_c2_elabs_scored_top80percent,openbind_a71ev2a_c2_elabs_activefrags_only_scored_5.2plus,syndirella_placed

>  <smina_score_min>  (1685) 
-6.156

$$$$
P585192
     RDKit          3D

 18 19  0  0  0  0  0  0  0  0999 V2000
    5.2536   10.5387   27.3426 N   0  0  0  0  0  0  0  0  0  0  0  0
    5.9366   11.1750   26.6531 C   0  0  0  0  0  0  0  0  0  0  0  0
    6.8185   11.9700   25.8611 C   0  0  0  0  0  0  0  0  0  0  0  0
    6.8682   13.3459   25.9068 C   0  0  0  0  0  0  0  0  0  0  0  0
    7.8739   13.7539   25.0772 N   0  0  0  0  0  0  0  0  0  0  0  0
    8.4841   12.6617   24.4982 C   0  0  0  0  0  0  0  0  0  0  0  0
    9.5790   12.6046   23.6261 C   0  0  0  0  0  0  0  0  0  0  0  0
   10.3512   13.8398   23.3351 C   0  0  0  0  0  0  0  0  0  0  0  0
   10.4033   14.6376   24.1827 O   0  0  0  0  0  0  0  0  0  0  0  0
   10.8733   13.8844   21.8945 N   0  0  0  0  0  0  0  0  0  0  0  0
   11.6489   14.8741   21.2190 C   0  0  0  0  0  0  0  0  0  0  0  0
   11.1206   14.9951   19.8307 C   0  0  0  0  0  0  0  0  0  0  0  0
   10.1704   15.8326   19.4034 C   0  0  0  0  0  0  0  0  0  0  0  0
    9.2969   16.9122   20.3960 Cl  0  0  0  0  0  0  0  0  0  0  0  0
    9.9402   11.3477   23.1421 C   0  0  0  0  0  0  0  0  0  0  0  0
    9.2872   10.1913   23.5516 C   0  0  0  0  0  0  0  0  0  0  0  0
    8.2468   10.2670   24.4796 C   0  0  0  0  0  0  0  0  0  0  0  0
    7.8143   11.5238   24.9465 C   0  0  0  0  0  0  0  0  0  0  0  0
  1  2  3  0
  2  3  1  0
  3  4  2  0
  4  5  1  0
  5  6  1  0
  6  7  2  0
  7  8  1  0
  8  9  2  0
  8 10  1  0
 10 11  1  0
 11 12  1  0
 12 13  2  0
 13 14  1  0
  7 15  1  0
 15 16  2  0
 16 17  1  0
 17 18  2  0
 18  3  1  0
 18  6  1  0
M  END
>  <alias>  (1686) 
None

>  <rmsd(smina/fragmenstein)>  (1686) 
0.363

>  <smiles>  (1686) 
N#Cc1c[nH]c2c(C(=O)NC/C=C\Cl)cccc12

>  <gnina_score>  (1686) 
5.444

>  <inspiration_score>  (1686) 
None

>  <energy_score>  (1686) 
-2.329913

>  <distance_score>  (1686) 
0.972539

>  <gnina_score_min>  (1686) 
5.283

>  <inchikey>  (1686) 
GEPXKUIEQXYZRN-DJWKRKHSSA-N

>  <exports>  (1686) 
['/opt/xchem-fragalysis-2/maxwin/BulkDock/OUTPUTS/openbind_a71ev2a_c2_elabs_1LOUU54.sdf', '/opt/xchem-fragalysis-2/maxwin/BulkDock/OUTPUTS/openbind_a71ev2a_c2_elabs_1LSYIDY.sdf']

>  <name>  (1686) 
P585192

>  <ref_pdb>  (1686) 
A0566a

>  <subsites>  (1686) 
None

>  <HIPPO Pose ID>  (1686) 
585192

>  <ref_mols>  (1686) 
A0566a

>  <HIPPO Compound ID>  (1686) 
439992

>  <tags>  (1686) 
openbind_a71ev2a_c2_elabs,syndirella_product,openbind_a71ev2a_c2_elabs_fragonly_scored_top80percent,openbind_a71ev2a_c2_elabs_scored,BulkDock Fragalysis export,openbind_a71ev2a_c2_elabs_scored_top80percent,openbind_a71ev2a_c2_elabs_activefrags_only_scored_5.2plus,syndirella_placed

>  <smina_score_min>  (1686) 
-6.432

$$$$
P585194
     RDKit          3D

 18 19  0  0  0  0  0  0  0  0999 V2000
    5.8639   13.9960   26.7424 C   0  0  0  0  0  0  0  0  0  0  0  0
    6.7326   13.0740   25.9664 C   0  0  0  0  0  0  0  0  0  0  0  0
    7.6718   13.5493   25.0928 N   0  0  0  0  0  0  0  0  0  0  0  0
    8.3457   12.5109   24.4934 C   0  0  0  0  0  0  0  0  0  0  0  0
    9.3940   12.5392   23.5625 C   0  0  0  0  0  0  0  0  0  0  0  0
    9.9546   13.8493   23.1441 C   0  0  0  0  0  0  0  0  0  0  0  0
    9.8473   14.7259   23.9067 O   0  0  0  0  0  0  0  0  0  0  0  0
   10.5197   13.8361   21.7112 N   0  0  0  0  0  0  0  0  0  0  0  0
   11.1630   14.8836   20.9425 C   0  0  0  0  0  0  0  0  0  0  0  0
   10.0898   15.9080   20.5523 C   0  0  0  0  0  0  0  0  0  0  0  0
   12.3070   15.3954   21.8198 C   0  0  0  0  0  0  0  0  0  0  0  0
   11.7480   14.3508   19.6347 C   0  0  0  0  0  0  0  0  0  0  0  0
    9.8834   11.3102   23.1189 C   0  0  0  0  0  0  0  0  0  0  0  0
    9.3353   10.1100   23.5518 C   0  0  0  0  0  0  0  0  0  0  0  0
    8.2961   10.1146   24.4840 C   0  0  0  0  0  0  0  0  0  0  0  0
    7.7892   11.3321   24.9743 C   0  0  0  0  0  0  0  0  0  0  0  0
    6.7744   11.6901   25.9186 C   0  0  0  0  0  0  0  0  0  0  0  0
    5.9168   10.7687   26.7096 C   0  0  0  0  0  0  0  0  0  0  0  0
  1  2  1  0
  2  3  1  0
  3  4  1  0
  4  5  2  0
  5  6  1  0
  6  7  2  0
  6  8  1  0
  8  9  1  0
  9 10  1  0
  9 11  1  0
  9 12  1  0
  5 13  1  0
 13 14  2  0
 14 15  1  0
 15 16  2  0
 16 17  1  0
 17 18  1  0
 17  2  2  0
 16  4  1  0
M  END
>  <alias>  (1687) 
None

>  <rmsd(smina/fragmenstein)>  (1687) 
0.597

>  <smiles>  (1687) 
Cc1[nH]c2c(C(=O)NC(C)(C)C)cccc2c1C

>  <gnina_score>  (1687) 
5.277

>  <inspiration_score>  (1687) 
None

>  <energy_score>  (1687) 
-15.614906

>  <distance_score>  (1687) 
1.197192

>  <gnina_score_min>  (1687) 
5.217

>  <inchikey>  (1687) 
VOZXKTOINQQPFC-UHFFFAOYSA-N

>  <exports>  (1687) 
['/opt/xchem-fragalysis-2/maxwin/BulkDock/OUTPUTS/openbind_a71ev2a_c2_elabs_1LOUU54.sdf', '/opt/xchem-fragalysis-2/maxwin/BulkDock/OUTPUTS/openbind_a71ev2a_c2_elabs_1LSYIDY.sdf']

>  <name>  (1687) 
P585194

>  <ref_pdb>  (1687) 
A0566a

>  <subsites>  (1687) 
None

>  <HIPPO Pose ID>  (1687) 
585194

>  <ref_mols>  (1687) 
A0566a

>  <HIPPO Compound ID>  (1687) 
439997

>  <tags>  (1687) 
openbind_a71ev2a_c2_elabs,syndirella_product,openbind_a71ev2a_c2_elabs_fragonly_scored_top80percent,openbind_a71ev2a_c2_elabs_scored,BulkDock Fragalysis export,openbind_a71ev2a_c2_elabs_scored_top80percent,openbind_a71ev2a_c2_elabs_activefrags_only_scored_5.2plus,syndirella_placed

>  <smina_score_min>  (1687) 
-6.821

$$$$
P585197
     RDKit          3D

 18 19  0  0  0  0  0  0  0  0999 V2000
    6.0105   14.1059   26.7807 C   0  0  0  0  0  0  0  0  0  0  0  0
    6.8494   13.1699   25.9879 C   0  0  0  0  0  0  0  0  0  0  0  0
    7.8322   13.6267   25.1525 N   0  0  0  0  0  0  0  0  0  0  0  0
    8.4650   12.5769   24.5289 C   0  0  0  0  0  0  0  0  0  0  0  0
    9.5393   12.5793   23.6280 C   0  0  0  0  0  0  0  0  0  0  0  0
   10.2311   13.8576   23.3089 C   0  0  0  0  0  0  0  0  0  0  0  0
   10.2177   14.6812   24.1338 O   0  0  0  0  0  0  0  0  0  0  0  0
   10.8154   13.8802   21.8884 N   0  0  0  0  0  0  0  0  0  0  0  0
   11.4194   14.9429   21.1502 C   0  0  0  0  0  0  0  0  0  0  0  0
   10.3265   15.6245   20.3903 C   0  0  0  0  0  0  0  0  0  0  0  0
   10.2081   15.7404   19.0637 C   0  0  0  0  0  0  0  0  0  0  0  0
   11.2594   15.0546   17.9039 Cl  0  0  0  0  0  0  0  0  0  0  0  0
    9.9469   11.3416   23.1284 C   0  0  0  0  0  0  0  0  0  0  0  0
    9.3368   10.1562   23.5182 C   0  0  0  0  0  0  0  0  0  0  0  0
    8.2993   10.1825   24.4498 C   0  0  0  0  0  0  0  0  0  0  0  0
    7.8403   11.4109   24.9604 C   0  0  0  0  0  0  0  0  0  0  0  0
    6.8312   11.7875   25.9027 C   0  0  0  0  0  0  0  0  0  0  0  0
    5.9298   10.8833   26.6647 C   0  0  0  0  0  0  0  0  0  0  0  0
  1  2  1  0
  2  3  1  0
  3  4  1  0
  4  5  2  0
  5  6  1  0
  6  7  2  0
  6  8  1  0
  8  9  1  0
  9 10  1  0
 10 11  2  0
 11 12  1  0
  5 13  1  0
 13 14  2  0
 14 15  1  0
 15 16  2  0
 16 17  1  0
 17 18  1  0
 17  2  2  0
 16  4  1  0
M  END
>  <alias>  (1688) 
None

>  <rmsd(smina/fragmenstein)>  (1688) 
0.471

>  <smiles>  (1688) 
Cc1[nH]c2c(C(=O)NC/C=C\Cl)cccc2c1C

>  <gnina_score>  (1688) 
5.052

>  <inspiration_score>  (1688) 
None

>  <energy_score>  (1688) 
-6.889368

>  <distance_score>  (1688) 
1.020865

>  <gnina_score_min>  (1688) 
5.246

>  <inchikey>  (1688) 
PCCZAKCBZBVHNW-DAXSKMNVSA-N

>  <exports>  (1688) 
['/opt/xchem-fragalysis-2/maxwin/BulkDock/OUTPUTS/openbind_a71ev2a_c2_elabs_1LOUU54.sdf', '/opt/xchem-fragalysis-2/maxwin/BulkDock/OUTPUTS/openbind_a71ev2a_c2_elabs_1LSYIDY.sdf']

>  <name>  (1688) 
P585197

>  <ref_pdb>  (1688) 
A0566a

>  <subsites>  (1688) 
None

>  <HIPPO Pose ID>  (1688) 
585197

>  <ref_mols>  (1688) 
A0566a

>  <HIPPO Compound ID>  (1688) 
440007

>  <tags>  (1688) 
openbind_a71ev2a_c2_elabs,syndirella_product,openbind_a71ev2a_c2_elabs_fragonly_scored_top80percent,openbind_a71ev2a_c2_elabs_scored,BulkDock Fragalysis export,openbind_a71ev2a_c2_elabs_scored_top80percent,openbind_a71ev2a_c2_elabs_activefrags_only_scored_5.2plus,syndirella_placed

>  <smina_score_min>  (1688) 
-6.15

$$$$
P585201
     RDKit          3D

 18 19  0  0  0  0  0  0  0  0999 V2000
    5.6297   13.7415   27.1042 C   0  0  0  0  0  0  0  0  0  0  0  0
    6.5410   12.9017   26.2832 C   0  0  0  0  0  0  0  0  0  0  0  0
    7.4763   13.4642   25.4571 N   0  0  0  0  0  0  0  0  0  0  0  0
    8.1990   12.4812   24.8315 C   0  0  0  0  0  0  0  0  0  0  0  0
    9.2595   12.5675   23.9398 C   0  0  0  0  0  0  0  0  0  0  0  0
    9.6615   13.8748   23.4376 C   0  0  0  0  0  0  0  0  0  0  0  0
   10.4562   14.5390   23.9610 O   0  0  0  0  0  0  0  0  0  0  0  0
    8.8904   14.0913   22.1381 N   0  0  0  0  0  0  0  0  0  0  0  0
    8.9973   15.1200   21.1582 C   0  0  0  0  0  0  0  0  0  0  0  0
   10.2582   15.0197   20.3080 C   0  0  2  0  0  0  0  0  0  0  0  0
   11.5614   15.1253   21.0841 C   0  0  0  0  0  0  0  0  0  0  0  0
   10.0686   16.2701   18.9966 S   0  0  0  0  0  0  0  0  0  0  0  0
    9.7707   11.4150   23.3412 C   0  0  0  0  0  0  0  0  0  0  0  0
    9.2435   10.1778   23.6722 C   0  0  0  0  0  0  0  0  0  0  0  0
    8.2041   10.0929   24.6092 C   0  0  0  0  0  0  0  0  0  0  0  0
    7.6624   11.2555   25.1990 C   0  0  0  0  0  0  0  0  0  0  0  0
    6.6287   11.5244   26.1500 C   0  0  0  0  0  0  0  0  0  0  0  0
    5.7954   10.5279   26.8733 C   0  0  0  0  0  0  0  0  0  0  0  0
  1  2  1  0
  2  3  1  0
  3  4  1  0
  4  5  2  0
  5  6  1  0
  6  7  2  0
  6  8  1  0
  8  9  1  0
  9 10  1  0
 10 11  1  1
 10 12  1  0
  5 13  1  0
 13 14  2  0
 14 15  1  0
 15 16  2  0
 16 17  1  0
 17 18  1  0
 17  2  2  0
 16  4  1  0
M  END
>  <alias>  (1689) 
None

>  <rmsd(smina/fragmenstein)>  (1689) 
0.239

>  <smiles>  (1689) 
Cc1[nH]c2c(C(=O)NC[C@H](C)S)cccc2c1C

>  <gnina_score>  (1689) 
5.275

>  <inspiration_score>  (1689) 
None

>  <energy_score>  (1689) 
-1.342694

>  <distance_score>  (1689) 
1.577214

>  <gnina_score_min>  (1689) 
5.217

>  <inchikey>  (1689) 
OVCOORMYNMLPAT-QMMMGPOBSA-N

>  <exports>  (1689) 
['/opt/xchem-fragalysis-2/maxwin/BulkDock/OUTPUTS/openbind_a71ev2a_c2_elabs_1LOUU54.sdf', '/opt/xchem-fragalysis-2/maxwin/BulkDock/OUTPUTS/openbind_a71ev2a_c2_elabs_1LSYIDY.sdf']

>  <name>  (1689) 
P585201

>  <ref_pdb>  (1689) 
A0566a

>  <subsites>  (1689) 
None

>  <HIPPO Pose ID>  (1689) 
585201

>  <ref_mols>  (1689) 
A0566a

>  <HIPPO Compound ID>  (1689) 
440015

>  <tags>  (1689) 
openbind_a71ev2a_c2_elabs,syndirella_product,openbind_a71ev2a_c2_elabs_fragonly_scored_top80percent,openbind_a71ev2a_c2_elabs_scored,BulkDock Fragalysis export,openbind_a71ev2a_c2_elabs_scored_top80percent,openbind_a71ev2a_c2_elabs_activefrags_only_scored_5.2plus,syndirella_placed

>  <smina_score_min>  (1689) 
-5.75

$$$$
P585205
     RDKit          3D

 18 19  0  0  0  0  0  0  0  0999 V2000
    6.0394   14.1612   26.8362 C   0  0  0  0  0  0  0  0  0  0  0  0
    6.8393   13.1702   26.0709 C   0  0  0  0  0  0  0  0  0  0  0  0
    7.8543   13.5624   25.2406 N   0  0  0  0  0  0  0  0  0  0  0  0
    8.4497   12.4692   24.6574 C   0  0  0  0  0  0  0  0  0  0  0  0
    9.5477   12.3967   23.7917 C   0  0  0  0  0  0  0  0  0  0  0  0
   10.3144   13.6317   23.4833 C   0  0  0  0  0  0  0  0  0  0  0  0
   10.3158   14.4911   24.2714 O   0  0  0  0  0  0  0  0  0  0  0  0
   10.9115   13.5761   22.0700 N   0  0  0  0  0  0  0  0  0  0  0  0
   11.5522   14.5915   21.2898 C   0  0  2  0  0  0  0  0  0  0  0  0
   12.6486   15.2455   22.0978 C   0  0  0  0  0  0  0  0  0  0  0  0
   10.5234   15.6091   20.7571 C   0  0  0  0  0  0  0  0  0  0  0  0
    8.7728   15.1718   20.9965 S   0  0  0  0  0  0  0  0  0  0  0  0
    9.8634   11.1411   23.2682 C   0  0  0  0  0  0  0  0  0  0  0  0
    9.1799   10.0015   23.6562 C   0  0  0  0  0  0  0  0  0  0  0  0
    8.1479   10.0912   24.5898 C   0  0  0  0  0  0  0  0  0  0  0  0
    7.7508   11.3465   25.0843 C   0  0  0  0  0  0  0  0  0  0  0  0
    6.7576   11.7882   26.0139 C   0  0  0  0  0  0  0  0  0  0  0  0
    5.8186   10.9403   26.7943 C   0  0  0  0  0  0  0  0  0  0  0  0
  1  2  1  0
  2  3  1  0
  3  4  1  0
  4  5  2  0
  5  6  1  0
  6  7  2  0
  6  8  1  0
  8  9  1  0
  9 10  1  1
  9 11  1  0
 11 12  1  0
  5 13  1  0
 13 14  2  0
 14 15  1  0
 15 16  2  0
 16 17  1  0
 17 18  1  0
 17  2  2  0
 16  4  1  0
M  END
>  <alias>  (1690) 
None

>  <rmsd(smina/fragmenstein)>  (1690) 
0.255

>  <smiles>  (1690) 
Cc1[nH]c2c(C(=O)N[C@H](C)CS)cccc2c1C

>  <gnina_score>  (1690) 
5.484

>  <inspiration_score>  (1690) 
None

>  <energy_score>  (1690) 
-11.745461

>  <distance_score>  (1690) 
1.052724

>  <gnina_score_min>  (1690) 
5.491

>  <inchikey>  (1690) 
DLAYKFLTZAIWJH-MRVPVSSYSA-N

>  <exports>  (1690) 
['/opt/xchem-fragalysis-2/maxwin/BulkDock/OUTPUTS/openbind_a71ev2a_c2_elabs_1LOUU54.sdf', '/opt/xchem-fragalysis-2/maxwin/BulkDock/OUTPUTS/openbind_a71ev2a_c2_elabs_1LSYIDY.sdf']

>  <name>  (1690) 
P585205

>  <ref_pdb>  (1690) 
A0566a

>  <subsites>  (1690) 
None

>  <HIPPO Pose ID>  (1690) 
585205

>  <ref_mols>  (1690) 
A0566a

>  <HIPPO Compound ID>  (1690) 
440024

>  <tags>  (1690) 
openbind_a71ev2a_c2_elabs,syndirella_product,openbind_a71ev2a_c2_elabs_fragonly_scored_top80percent,openbind_a71ev2a_c2_elabs_scored,BulkDock Fragalysis export,openbind_a71ev2a_c2_elabs_scored_top80percent,openbind_a71ev2a_c2_elabs_activefrags_only_scored_5.2plus,syndirella_placed

>  <smina_score_min>  (1690) 
-6.137

$$$$
P585212
     RDKit          3D

 18 19  0  0  0  0  0  0  0  0999 V2000
    6.0504   14.2026   26.6825 C   0  0  0  0  0  0  0  0  0  0  0  0
    6.8970   13.2523   25.9149 C   0  0  0  0  0  0  0  0  0  0  0  0
    7.8790   13.6967   25.0706 N   0  0  0  0  0  0  0  0  0  0  0  0
    8.5151   12.6358   24.4705 C   0  0  0  0  0  0  0  0  0  0  0  0
    9.5819   12.6191   23.5630 C   0  0  0  0  0  0  0  0  0  0  0  0
   10.2612   13.8857   23.1912 C   0  0  0  0  0  0  0  0  0  0  0  0
   10.4096   14.6738   24.0359 O   0  0  0  0  0  0  0  0  0  0  0  0
   10.5720   13.9653   21.6900 N   0  0  0  0  0  0  0  0  0  0  0  0
   11.0460   15.0698   20.8857 C   0  0  1  0  0  0  0  0  0  0  0  0
   11.6072   14.5871   19.5573 C   0  0  0  0  0  0  0  0  0  0  0  0
    9.9558   16.0360   20.6484 C   0  0  0  0  0  0  0  0  0  0  0  0
    9.1160   16.8193   20.4851 N   0  0  0  0  0  0  0  0  0  0  0  0
    9.9883   11.3759   23.0828 C   0  0  0  0  0  0  0  0  0  0  0  0
    9.3781   10.1965   23.4912 C   0  0  0  0  0  0  0  0  0  0  0  0
    8.3417   10.2383   24.4238 C   0  0  0  0  0  0  0  0  0  0  0  0
    7.8888   11.4760   24.9198 C   0  0  0  0  0  0  0  0  0  0  0  0
    6.8784   11.8684   25.8536 C   0  0  0  0  0  0  0  0  0  0  0  0
    5.9683   10.9785   26.6220 C   0  0  0  0  0  0  0  0  0  0  0  0
  1  2  1  0
  2  3  1  0
  3  4  1  0
  4  5  2  0
  5  6  1  0
  6  7  2  0
  6  8  1  0
  8  9  1  0
  9 10  1  6
  9 11  1  0
 11 12  3  0
  5 13  1  0
 13 14  2  0
 14 15  1  0
 15 16  2  0
 16 17  1  0
 17 18  1  0
 17  2  2  0
 16  4  1  0
M  END
>  <alias>  (1691) 
None

>  <rmsd(smina/fragmenstein)>  (1691) 
0.95

>  <smiles>  (1691) 
Cc1[nH]c2c(C(=O)N[C@@H](C)C#N)cccc2c1C

>  <gnina_score>  (1691) 
5.441

>  <inspiration_score>  (1691) 
None

>  <energy_score>  (1691) 
-9.49081

>  <distance_score>  (1691) 
1.046221

>  <gnina_score_min>  (1691) 
5.314

>  <inchikey>  (1691) 
SQNCAEOJHYNFIV-QMMMGPOBSA-N

>  <exports>  (1691) 
['/opt/xchem-fragalysis-2/maxwin/BulkDock/OUTPUTS/openbind_a71ev2a_c2_elabs_1LOUU54.sdf', '/opt/xchem-fragalysis-2/maxwin/BulkDock/OUTPUTS/openbind_a71ev2a_c2_elabs_1LSYIDY.sdf']

>  <name>  (1691) 
P585212

>  <ref_pdb>  (1691) 
A0566a

>  <subsites>  (1691) 
None

>  <HIPPO Pose ID>  (1691) 
585212

>  <ref_mols>  (1691) 
A0566a

>  <HIPPO Compound ID>  (1691) 
440036

>  <tags>  (1691) 
openbind_a71ev2a_c2_elabs,syndirella_product,openbind_a71ev2a_c2_elabs_fragonly_scored_top80percent,openbind_a71ev2a_c2_elabs_scored,BulkDock Fragalysis export,openbind_a71ev2a_c2_elabs_scored_top80percent,openbind_a71ev2a_c2_elabs_activefrags_only_scored_5.2plus,syndirella_placed

>  <smina_score_min>  (1691) 
-6.516

$$$$
P585215
     RDKit          3D

 18 20  0  0  0  0  0  0  0  0999 V2000
    5.9353   13.9455   26.9623 C   0  0  0  0  0  0  0  0  0  0  0  0
    6.8002   13.0743   26.1251 C   0  0  0  0  0  0  0  0  0  0  0  0
    7.7849   13.5979   25.3313 N   0  0  0  0  0  0  0  0  0  0  0  0
    8.4405   12.5957   24.6588 C   0  0  0  0  0  0  0  0  0  0  0  0
    9.5207   12.6592   23.7761 C   0  0  0  0  0  0  0  0  0  0  0  0
   10.2107   13.9426   23.5378 C   0  0  0  0  0  0  0  0  0  0  0  0
   10.3494   14.6918   24.4357 O   0  0  0  0  0  0  0  0  0  0  0  0
   10.5507   14.0952   22.0855 N   0  0  0  0  0  0  0  0  0  0  0  0
   11.2654   15.2129   21.3471 C   0  0  0  0  0  0  0  0  0  0  0  0
   10.3365   15.0099   20.1839 C   0  0  0  0  0  0  0  0  0  0  0  0
    9.8235   16.4851   19.2604 S   0  0  0  0  0  0  0  0  0  0  0  0
    9.3649   14.6949   21.2842 C   0  0  0  0  0  0  0  0  0  0  0  0
    9.9459   11.4759   23.1713 C   0  0  0  0  0  0  0  0  0  0  0  0
    9.3571   10.2582   23.4854 C   0  0  0  0  0  0  0  0  0  0  0  0
    8.3214   10.2084   24.4225 C   0  0  0  0  0  0  0  0  0  0  0  0
    7.8322   11.3943   25.0063 C   0  0  0  0  0  0  0  0  0  0  0  0
    6.8111   11.6981   25.9618 C   0  0  0  0  0  0  0  0  0  0  0  0
    5.9252   10.7353   26.6672 C   0  0  0  0  0  0  0  0  0  0  0  0
  1  2  1  0
  2  3  1  0
  3  4  1  0
  4  5  2  0
  5  6  1  0
  6  7  2  0
  6  8  1  0
  8  9  1  0
  9 10  1  0
 10 11  1  0
 10 12  1  0
  5 13  1  0
 13 14  2  0
 14 15  1  0
 15 16  2  0
 16 17  1  0
 17 18  1  0
 17  2  2  0
 16  4  1  0
 12  8  1  0
M  END
>  <alias>  (1692) 
None

>  <rmsd(smina/fragmenstein)>  (1692) 
0.365

>  <smiles>  (1692) 
Cc1[nH]c2c(C(=O)N3CC(S)C3)cccc2c1C

>  <gnina_score>  (1692) 
5.446

>  <inspiration_score>  (1692) 
None

>  <energy_score>  (1692) 
-5.593612

>  <distance_score>  (1692) 
0.992231

>  <gnina_score_min>  (1692) 
5.347

>  <inchikey>  (1692) 
ALFIVSBFKOBHIR-UHFFFAOYSA-N

>  <exports>  (1692) 
['/opt/xchem-fragalysis-2/maxwin/BulkDock/OUTPUTS/openbind_a71ev2a_c2_elabs_1LOUU54.sdf', '/opt/xchem-fragalysis-2/maxwin/BulkDock/OUTPUTS/openbind_a71ev2a_c2_elabs_1LSYIDY.sdf']

>  <name>  (1692) 
P585215

>  <ref_pdb>  (1692) 
A0566a

>  <subsites>  (1692) 
None

>  <HIPPO Pose ID>  (1692) 
585215

>  <ref_mols>  (1692) 
A0566a

>  <HIPPO Compound ID>  (1692) 
440044

>  <tags>  (1692) 
openbind_a71ev2a_c2_elabs,syndirella_product,openbind_a71ev2a_c2_elabs_fragonly_scored_top80percent,openbind_a71ev2a_c2_elabs_scored,BulkDock Fragalysis export,openbind_a71ev2a_c2_elabs_scored_top80percent,openbind_a71ev2a_c2_elabs_activefrags_only_scored_5.2plus,syndirella_placed

>  <smina_score_min>  (1692) 
-6.59

$$$$
P585221
     RDKit          3D

 18 19  0  0  0  0  0  0  0  0999 V2000
   10.6088   15.0744   19.6859 C   0  0  0  0  0  0  0  0  0  0  0  0
   10.9295   15.0130   21.1675 C   0  0  2  0  0  0  0  0  0  0  0  0
   12.4133   14.7370   21.4375 C   0  0  0  0  0  0  0  0  0  0  0  0
   12.6768   14.2380   23.1467 Cl  0  0  0  0  0  0  0  0  0  0  0  0
   10.1766   13.9770   21.8271 N   0  0  0  0  0  0  0  0  0  0  0  0
    9.5087   13.9555   23.2079 C   0  0  0  0  0  0  0  0  0  0  0  0
    9.3927   14.7981   24.0044 O   0  0  0  0  0  0  0  0  0  0  0  0
    9.0312   12.6098   23.5994 C   0  0  0  0  0  0  0  0  0  0  0  0
    9.6539   11.4174   23.2094 C   0  0  0  0  0  0  0  0  0  0  0  0
    9.1999   10.1891   23.6732 C   0  0  0  0  0  0  0  0  0  0  0  0
    8.1569   10.1328   24.6037 C   0  0  0  0  0  0  0  0  0  0  0  0
    7.5573   11.3185   25.0709 C   0  0  0  0  0  0  0  0  0  0  0  0
    6.5550   11.6430   26.0296 C   0  0  0  0  0  0  0  0  0  0  0  0
    5.8292   10.7630   26.8875 C   0  0  0  0  0  0  0  0  0  0  0  0
    5.2467   10.0834   27.6257 N   0  0  0  0  0  0  0  0  0  0  0  0
    6.4076   13.0126   26.0485 C   0  0  0  0  0  0  0  0  0  0  0  0
    7.2788   13.5353   25.1395 N   0  0  0  0  0  0  0  0  0  0  0  0
    8.0024   12.5247   24.5427 C   0  0  0  0  0  0  0  0  0  0  0  0
  2  1  1  6
  2  3  1  0
  3  4  1  0
  2  5  1  0
  5  6  1  0
  6  7  2  0
  6  8  1  0
  8  9  2  0
  9 10  1  0
 10 11  2  0
 11 12  1  0
 12 13  1  0
 13 14  1  0
 14 15  3  0
 13 16  2  0
 16 17  1  0
 17 18  1  0
 18  8  1  0
 18 12  2  0
M  END
>  <alias>  (1693) 
None

>  <rmsd(smina/fragmenstein)>  (1693) 
0.635

>  <smiles>  (1693) 
C[C@H](CCl)NC(=O)c1cccc2c(C#N)c[nH]c12

>  <gnina_score>  (1693) 
5.234

>  <inspiration_score>  (1693) 
None

>  <energy_score>  (1693) 
-0.126868

>  <distance_score>  (1693) 
1.424292

>  <gnina_score_min>  (1693) 
5.273

>  <inchikey>  (1693) 
NLFFJZAIPBANGL-MRVPVSSYSA-N

>  <exports>  (1693) 
['/opt/xchem-fragalysis-2/maxwin/BulkDock/OUTPUTS/openbind_a71ev2a_c2_elabs_1LOUU54.sdf', '/opt/xchem-fragalysis-2/maxwin/BulkDock/OUTPUTS/openbind_a71ev2a_c2_elabs_1LSYIDY.sdf']

>  <name>  (1693) 
P585221

>  <ref_pdb>  (1693) 
A0566a

>  <subsites>  (1693) 
None

>  <HIPPO Pose ID>  (1693) 
585221

>  <ref_mols>  (1693) 
A0566a

>  <HIPPO Compound ID>  (1693) 
440064

>  <tags>  (1693) 
openbind_a71ev2a_c2_elabs,syndirella_product,openbind_a71ev2a_c2_elabs_fragonly_scored_top80percent,openbind_a71ev2a_c2_elabs_scored,BulkDock Fragalysis export,openbind_a71ev2a_c2_elabs_scored_top80percent,openbind_a71ev2a_c2_elabs_activefrags_only_scored_5.2plus,syndirella_placed

>  <smina_score_min>  (1693) 
-6.167

$$$$
P585224
     RDKit          3D

 18 19  0  0  0  0  0  0  0  0999 V2000
   10.3153   15.7030   19.2502 C   0  0  0  0  0  0  0  0  0  0  0  0
   10.5070   15.5385   20.5651 C   0  0  0  0  0  0  0  0  0  0  0  0
   11.5416   14.6344   21.1571 C   0  0  1  0  0  0  0  0  0  0  0  0
   12.5723   15.3173   22.0267 C   0  0  0  0  0  0  0  0  0  0  0  0
   10.8298   13.6529   21.9117 N   0  0  0  0  0  0  0  0  0  0  0  0
   10.1827   13.7385   23.3017 C   0  0  0  0  0  0  0  0  0  0  0  0
   10.1920   14.5992   24.0883 O   0  0  0  0  0  0  0  0  0  0  0  0
    9.4618   12.4876   23.6571 C   0  0  0  0  0  0  0  0  0  0  0  0
    9.8462   11.2267   23.1913 C   0  0  0  0  0  0  0  0  0  0  0  0
    9.2180   10.0682   23.6206 C   0  0  0  0  0  0  0  0  0  0  0  0
    8.1877   10.1422   24.5571 C   0  0  0  0  0  0  0  0  0  0  0  0
    7.7553   11.3933   25.0345 C   0  0  0  0  0  0  0  0  0  0  0  0
    6.7618   11.8156   25.9731 C   0  0  0  0  0  0  0  0  0  0  0  0
    5.8535   10.9483   26.7689 C   0  0  0  0  0  0  0  0  0  0  0  0
    6.8050   13.1998   26.0163 C   0  0  0  0  0  0  0  0  0  0  0  0
    5.9891   14.1746   26.7853 C   0  0  0  0  0  0  0  0  0  0  0  0
    7.7866   13.6140   25.1571 N   0  0  0  0  0  0  0  0  0  0  0  0
    8.3960   12.5341   24.5637 C   0  0  0  0  0  0  0  0  0  0  0  0
  1  2  2  0
  2  3  1  0
  3  4  1  1
  3  5  1  0
  5  6  1  0
  6  7  2  0
  6  8  1  0
  8  9  2  0
  9 10  1  0
 10 11  2  0
 11 12  1  0
 12 13  1  0
 13 14  1  0
 13 15  2  0
 15 16  1  0
 15 17  1  0
 17 18  1  0
 18  8  1  0
 18 12  2  0
M  END
>  <alias>  (1694) 
None

>  <rmsd(smina/fragmenstein)>  (1694) 
0.527

>  <smiles>  (1694) 
C=C[C@@H](C)NC(=O)c1cccc2c(C)c(C)[nH]c12

>  <gnina_score>  (1694) 
5.325

>  <inspiration_score>  (1694) 
None

>  <energy_score>  (1694) 
-23.973974

>  <distance_score>  (1694) 
1.091031

>  <gnina_score_min>  (1694) 
5.358

>  <inchikey>  (1694) 
VQBOZQLFHUMYLW-SECBINFHSA-N

>  <exports>  (1694) 
['/opt/xchem-fragalysis-2/maxwin/BulkDock/OUTPUTS/openbind_a71ev2a_c2_elabs_1LOUU54.sdf', '/opt/xchem-fragalysis-2/maxwin/BulkDock/OUTPUTS/openbind_a71ev2a_c2_elabs_1LSYIDY.sdf']

>  <name>  (1694) 
P585224

>  <ref_pdb>  (1694) 
A0566a

>  <subsites>  (1694) 
None

>  <HIPPO Pose ID>  (1694) 
585224

>  <ref_mols>  (1694) 
A0566a

>  <HIPPO Compound ID>  (1694) 
440066

>  <tags>  (1694) 
openbind_a71ev2a_c2_elabs,syndirella_product,openbind_a71ev2a_c2_elabs_fragonly_scored_top80percent,openbind_a71ev2a_c2_elabs_scored,BulkDock Fragalysis export,openbind_a71ev2a_c2_elabs_scored_top80percent,openbind_a71ev2a_c2_elabs_activefrags_only_scored_5.2plus,syndirella_placed

>  <smina_score_min>  (1694) 
-6.971

$$$$
P585225
     RDKit          3D

 18 19  0  0  0  0  0  0  0  0999 V2000
    5.8362   13.9108   26.9568 C   0  0  0  0  0  0  0  0  0  0  0  0
    6.6978   13.0184   26.1392 C   0  0  0  0  0  0  0  0  0  0  0  0
    7.6598   13.5243   25.3078 N   0  0  0  0  0  0  0  0  0  0  0  0
    8.3221   12.5057   24.6666 C   0  0  0  0  0  0  0  0  0  0  0  0
    9.3956   12.5543   23.7745 C   0  0  0  0  0  0  0  0  0  0  0  0
   10.0541   13.8504   23.5046 C   0  0  0  0  0  0  0  0  0  0  0  0
   10.1361   14.6194   24.3746 O   0  0  0  0  0  0  0  0  0  0  0  0
   10.5224   13.9429   22.0513 N   0  0  0  0  0  0  0  0  0  0  0  0
   11.1099   15.0391   21.3248 C   0  0  1  0  0  0  0  0  0  0  0  0
   12.6060   14.8323   21.3406 C   0  0  0  0  0  0  0  0  0  0  0  0
   10.5144   15.1400   19.9246 C   0  0  0  0  0  0  0  0  0  0  0  0
    9.1565   15.1924   20.0515 F   0  0  0  0  0  0  0  0  0  0  0  0
    9.8502   11.3501   23.2294 C   0  0  0  0  0  0  0  0  0  0  0  0
    9.2702   10.1403   23.5822 C   0  0  0  0  0  0  0  0  0  0  0  0
    8.2306   10.1143   24.5156 C   0  0  0  0  0  0  0  0  0  0  0  0
    7.7340   11.3124   25.0648 C   0  0  0  0  0  0  0  0  0  0  0  0
    6.7205   11.6378   26.0212 C   0  0  0  0  0  0  0  0  0  0  0  0
    5.8539   10.6889   26.7684 C   0  0  0  0  0  0  0  0  0  0  0  0
  1  2  1  0
  2  3  1  0
  3  4  1  0
  4  5  2  0
  5  6  1  0
  6  7  2  0
  6  8  1  0
  8  9  1  0
  9 10  1  6
  9 11  1  0
 11 12  1  0
  5 13  1  0
 13 14  2  0
 14 15  1  0
 15 16  2  0
 16 17  1  0
 17 18  1  0
 17  2  2  0
 16  4  1  0
M  END
>  <alias>  (1695) 
None

>  <rmsd(smina/fragmenstein)>  (1695) 
0.468

>  <smiles>  (1695) 
Cc1[nH]c2c(C(=O)N[C@@H](C)CF)cccc2c1C

>  <gnina_score>  (1695) 
5.327

>  <inspiration_score>  (1695) 
None

>  <energy_score>  (1695) 
-3.314417

>  <distance_score>  (1695) 
1.106803

>  <gnina_score_min>  (1695) 
5.263

>  <inchikey>  (1695) 
HZIRDHHOSMXGKJ-QMMMGPOBSA-N

>  <exports>  (1695) 
['/opt/xchem-fragalysis-2/maxwin/BulkDock/OUTPUTS/openbind_a71ev2a_c2_elabs_1LOUU54.sdf', '/opt/xchem-fragalysis-2/maxwin/BulkDock/OUTPUTS/openbind_a71ev2a_c2_elabs_1LSYIDY.sdf']

>  <name>  (1695) 
P585225

>  <ref_pdb>  (1695) 
A0566a

>  <subsites>  (1695) 
None

>  <HIPPO Pose ID>  (1695) 
585225

>  <ref_mols>  (1695) 
A0566a

>  <HIPPO Compound ID>  (1695) 
440067

>  <tags>  (1695) 
openbind_a71ev2a_c2_elabs,syndirella_product,openbind_a71ev2a_c2_elabs_fragonly_scored_top80percent,openbind_a71ev2a_c2_elabs_scored,BulkDock Fragalysis export,openbind_a71ev2a_c2_elabs_scored_top80percent,openbind_a71ev2a_c2_elabs_activefrags_only_scored_5.2plus,syndirella_placed

>  <smina_score_min>  (1695) 
-6.827

$$$$
P585226
     RDKit          3D

 18 19  0  0  0  0  0  0  0  0999 V2000
    5.7934   13.9486   26.8410 C   0  0  0  0  0  0  0  0  0  0  0  0
    6.7156   13.0878   26.0544 C   0  0  0  0  0  0  0  0  0  0  0  0
    7.6647   13.6295   25.2288 N   0  0  0  0  0  0  0  0  0  0  0  0
    8.3945   12.6333   24.6300 C   0  0  0  0  0  0  0  0  0  0  0  0
    9.4639   12.7008   23.7382 C   0  0  0  0  0  0  0  0  0  0  0  0
    9.8503   13.9888   23.1475 C   0  0  0  0  0  0  0  0  0  0  0  0
   10.7256   14.6369   23.5464 O   0  0  0  0  0  0  0  0  0  0  0  0
    8.8965   14.2238   21.9786 N   0  0  0  0  0  0  0  0  0  0  0  0
    8.7527   15.3511   21.1062 C   0  0  0  0  0  0  0  0  0  0  0  0
   10.0038   15.9815   20.5070 C   0  0  0  0  0  0  0  0  0  0  0  0
    9.4853   17.2288   19.3283 Cl  0  0  0  0  0  0  0  0  0  0  0  0
   11.0207   14.8055   19.6406 Cl  0  0  0  0  0  0  0  0  0  0  0  0
    9.9692   11.5231   23.1925 C   0  0  0  0  0  0  0  0  0  0  0  0
    9.4292   10.2938   23.5447 C   0  0  0  0  0  0  0  0  0  0  0  0
    8.3791   10.2336   24.4678 C   0  0  0  0  0  0  0  0  0  0  0  0
    7.8457   11.4162   25.0232 C   0  0  0  0  0  0  0  0  0  0  0  0
    6.7984   11.7081   25.9527 C   0  0  0  0  0  0  0  0  0  0  0  0
    5.9425   10.7313   26.6770 C   0  0  0  0  0  0  0  0  0  0  0  0
  1  2  1  0
  2  3  1  0
  3  4  1  0
  4  5  2  0
  5  6  1  0
  6  7  2  0
  6  8  1  0
  8  9  1  0
  9 10  1  0
 10 11  1  0
 10 12  1  0
  5 13  1  0
 13 14  2  0
 14 15  1  0
 15 16  2  0
 16 17  1  0
 17 18  1  0
 17  2  2  0
 16  4  1  0
M  END
>  <alias>  (1696) 
None

>  <rmsd(smina/fragmenstein)>  (1696) 
0.189

>  <smiles>  (1696) 
Cc1[nH]c2c(C(=O)NCC(Cl)Cl)cccc2c1C

>  <gnina_score>  (1696) 
5.248

>  <inspiration_score>  (1696) 
None

>  <energy_score>  (1696) 
-13.480954

>  <distance_score>  (1696) 
1.519842

>  <gnina_score_min>  (1696) 
5.24

>  <inchikey>  (1696) 
WYHWLFWNUFTGQL-UHFFFAOYSA-N

>  <exports>  (1696) 
['/opt/xchem-fragalysis-2/maxwin/BulkDock/OUTPUTS/openbind_a71ev2a_c2_elabs_1LOUU54.sdf', '/opt/xchem-fragalysis-2/maxwin/BulkDock/OUTPUTS/openbind_a71ev2a_c2_elabs_1LSYIDY.sdf']

>  <name>  (1696) 
P585226

>  <ref_pdb>  (1696) 
A0566a

>  <subsites>  (1696) 
None

>  <HIPPO Pose ID>  (1696) 
585226

>  <ref_mols>  (1696) 
A0566a

>  <HIPPO Compound ID>  (1696) 
440069

>  <tags>  (1696) 
openbind_a71ev2a_c2_elabs,syndirella_product,openbind_a71ev2a_c2_elabs_fragonly_scored_top80percent,openbind_a71ev2a_c2_elabs_scored,BulkDock Fragalysis export,openbind_a71ev2a_c2_elabs_scored_top80percent,openbind_a71ev2a_c2_elabs_activefrags_only_scored_5.2plus,syndirella_placed

>  <smina_score_min>  (1696) 
-6.283

$$$$
P585233
     RDKit          3D

 18 19  0  0  0  0  0  0  0  0999 V2000
   11.8628   15.2130   21.5160 C   0  0  0  0  0  0  0  0  0  0  0  0
   10.7475   15.5279   20.5125 C   0  0  1  0  0  0  0  0  0  0  0  0
   11.1870   14.7727   18.9061 S   0  0  0  0  0  0  0  0  0  0  0  0
    9.3589   15.1728   20.9968 C   0  0  0  0  0  0  0  0  0  0  0  0
    9.3572   14.0734   21.8939 N   0  0  0  0  0  0  0  0  0  0  0  0
    9.2532   14.0348   23.4131 C   0  0  0  0  0  0  0  0  0  0  0  0
    9.2287   14.8990   24.1892 O   0  0  0  0  0  0  0  0  0  0  0  0
    9.0641   12.6495   23.8762 C   0  0  0  0  0  0  0  0  0  0  0  0
    9.6927   11.5246   23.3385 C   0  0  0  0  0  0  0  0  0  0  0  0
    9.2554   10.2531   23.6939 C   0  0  0  0  0  0  0  0  0  0  0  0
    8.2121   10.0940   24.6215 C   0  0  0  0  0  0  0  0  0  0  0  0
    7.5919   11.2178   25.2046 C   0  0  0  0  0  0  0  0  0  0  0  0
    6.5598   11.4521   26.1603 C   0  0  0  0  0  0  0  0  0  0  0  0
    5.8119   10.5160   26.9354 C   0  0  0  0  0  0  0  0  0  0  0  0
    5.1960    9.8200   27.6294 N   0  0  0  0  0  0  0  0  0  0  0  0
    6.3848   12.8143   26.2803 C   0  0  0  0  0  0  0  0  0  0  0  0
    7.2651   13.4203   25.4383 N   0  0  0  0  0  0  0  0  0  0  0  0
    8.0371   12.4696   24.8052 C   0  0  0  0  0  0  0  0  0  0  0  0
  2  1  1  1
  2  3  1  0
  2  4  1  0
  4  5  1  0
  5  6  1  0
  6  7  2  0
  6  8  1  0
  8  9  2  0
  9 10  1  0
 10 11  2  0
 11 12  1  0
 12 13  1  0
 13 14  1  0
 14 15  3  0
 13 16  2  0
 16 17  1  0
 17 18  1  0
 18  8  1  0
 18 12  2  0
M  END
>  <alias>  (1697) 
None

>  <rmsd(smina/fragmenstein)>  (1697) 
0.286

>  <smiles>  (1697) 
C[C@@H](S)CNC(=O)c1cccc2c(C#N)c[nH]c12

>  <gnina_score>  (1697) 
5.273

>  <inspiration_score>  (1697) 
None

>  <energy_score>  (1697) 
-6.55262

>  <distance_score>  (1697) 
1.718526

>  <gnina_score_min>  (1697) 
5.281

>  <inchikey>  (1697) 
VKIZGRKVXBGUNR-MRVPVSSYSA-N

>  <exports>  (1697) 
['/opt/xchem-fragalysis-2/maxwin/BulkDock/OUTPUTS/openbind_a71ev2a_c2_elabs_1LOUU54.sdf', '/opt/xchem-fragalysis-2/maxwin/BulkDock/OUTPUTS/openbind_a71ev2a_c2_elabs_1LSYIDY.sdf']

>  <name>  (1697) 
P585233

>  <ref_pdb>  (1697) 
A0566a

>  <subsites>  (1697) 
None

>  <HIPPO Pose ID>  (1697) 
585233

>  <ref_mols>  (1697) 
A0566a

>  <HIPPO Compound ID>  (1697) 
440082

>  <tags>  (1697) 
openbind_a71ev2a_c2_elabs,syndirella_product,openbind_a71ev2a_c2_elabs_fragonly_scored_top80percent,openbind_a71ev2a_c2_elabs_scored,BulkDock Fragalysis export,openbind_a71ev2a_c2_elabs_scored_top80percent,openbind_a71ev2a_c2_elabs_activefrags_only_scored_5.2plus,syndirella_placed

>  <smina_score_min>  (1697) 
-5.575

$$$$
P585234
     RDKit          3D

 18 19  0  0  0  0  0  0  0  0999 V2000
    5.9359   13.9278   26.9824 C   0  0  0  0  0  0  0  0  0  0  0  0
    6.7674   13.0029   26.1698 C   0  0  0  0  0  0  0  0  0  0  0  0
    7.7753   13.4660   25.3694 N   0  0  0  0  0  0  0  0  0  0  0  0
    8.4081   12.4211   24.7373 C   0  0  0  0  0  0  0  0  0  0  0  0
    9.5273   12.4227   23.8955 C   0  0  0  0  0  0  0  0  0  0  0  0
   10.2800   13.6888   23.7198 C   0  0  0  0  0  0  0  0  0  0  0  0
   10.2318   14.4716   24.5809 O   0  0  0  0  0  0  0  0  0  0  0  0
   10.9297   13.7735   22.3369 N   0  0  0  0  0  0  0  0  0  0  0  0
   11.5713   14.8588   21.6835 C   0  0  0  0  0  0  0  0  0  0  0  0
   10.5492   15.5894   20.8046 C   0  0  0  0  0  0  0  0  0  0  0  0
   10.8483   15.3103   19.3402 C   0  0  0  0  0  0  0  0  0  0  0  0
    9.0714   15.2971   21.0766 C   0  0  0  0  0  0  0  0  0  0  0  0
    9.8784   11.2134   23.2918 C   0  0  0  0  0  0  0  0  0  0  0  0
    9.2190   10.0358   23.6065 C   0  0  0  0  0  0  0  0  0  0  0  0
    8.1801   10.0464   24.5390 C   0  0  0  0  0  0  0  0  0  0  0  0
    7.7378   11.2598   25.0952 C   0  0  0  0  0  0  0  0  0  0  0  0
    6.7289   11.6240   26.0418 C   0  0  0  0  0  0  0  0  0  0  0  0
    5.8181   10.7090   26.7784 C   0  0  0  0  0  0  0  0  0  0  0  0
  1  2  1  0
  2  3  1  0
  3  4  1  0
  4  5  2  0
  5  6  1  0
  6  7  2  0
  6  8  1  0
  8  9  1  0
  9 10  1  0
 10 11  1  0
 10 12  1  0
  5 13  1  0
 13 14  2  0
 14 15  1  0
 15 16  2  0
 16 17  1  0
 17 18  1  0
 17  2  2  0
 16  4  1  0
M  END
>  <alias>  (1698) 
None

>  <rmsd(smina/fragmenstein)>  (1698) 
0.635

>  <smiles>  (1698) 
Cc1[nH]c2c(C(=O)NCC(C)C)cccc2c1C

>  <gnina_score>  (1698) 
5.277

>  <inspiration_score>  (1698) 
None

>  <energy_score>  (1698) 
-6.881908

>  <distance_score>  (1698) 
1.011171

>  <gnina_score_min>  (1698) 
5.276

>  <inchikey>  (1698) 
GTDSWWPCESOQQZ-UHFFFAOYSA-N

>  <exports>  (1698) 
['/opt/xchem-fragalysis-2/maxwin/BulkDock/OUTPUTS/openbind_a71ev2a_c2_elabs_1LOUU54.sdf', '/opt/xchem-fragalysis-2/maxwin/BulkDock/OUTPUTS/openbind_a71ev2a_c2_elabs_1LSYIDY.sdf']

>  <name>  (1698) 
P585234

>  <ref_pdb>  (1698) 
A0566a

>  <subsites>  (1698) 
None

>  <HIPPO Pose ID>  (1698) 
585234

>  <ref_mols>  (1698) 
A0566a

>  <HIPPO Compound ID>  (1698) 
440094

>  <tags>  (1698) 
openbind_a71ev2a_c2_elabs,syndirella_product,openbind_a71ev2a_c2_elabs_fragonly_scored_top80percent,openbind_a71ev2a_c2_elabs_scored,BulkDock Fragalysis export,openbind_a71ev2a_c2_elabs_scored_top80percent,openbind_a71ev2a_c2_elabs_activefrags_only_scored_5.2plus,syndirella_placed

>  <smina_score_min>  (1698) 
-6.64

$$$$
P585236
     RDKit          3D

 18 19  0  0  0  0  0  0  0  0999 V2000
    9.8626   16.2401   20.2216 C   0  0  0  0  0  0  0  0  0  0  0  0
   10.8614   15.3538   20.3132 C   0  0  0  0  0  0  0  0  0  0  0  0
   11.5496   14.5783   18.7737 Br  0  0  0  0  0  0  0  0  0  0  0  0
   11.6034   15.0074   21.5624 C   0  0  0  0  0  0  0  0  0  0  0  0
   10.9133   13.9292   22.1926 N   0  0  0  0  0  0  0  0  0  0  0  0
   10.2400   13.8452   23.5653 C   0  0  0  0  0  0  0  0  0  0  0  0
   10.2045   14.6165   24.4378 O   0  0  0  0  0  0  0  0  0  0  0  0
    9.5106   12.5647   23.7627 C   0  0  0  0  0  0  0  0  0  0  0  0
    9.9168   11.3517   23.2004 C   0  0  0  0  0  0  0  0  0  0  0  0
    9.3014   10.1529   23.5361 C   0  0  0  0  0  0  0  0  0  0  0  0
    8.2619   10.1415   24.4670 C   0  0  0  0  0  0  0  0  0  0  0  0
    7.7894   11.3481   25.0156 C   0  0  0  0  0  0  0  0  0  0  0  0
    6.7763   11.6881   25.9676 C   0  0  0  0  0  0  0  0  0  0  0  0
    5.8867   10.7531   26.7051 C   0  0  0  0  0  0  0  0  0  0  0  0
    6.7818   13.0675   26.0943 C   0  0  0  0  0  0  0  0  0  0  0  0
    5.9328   13.9723   26.9114 C   0  0  0  0  0  0  0  0  0  0  0  0
    7.7665   13.5563   25.2800 N   0  0  0  0  0  0  0  0  0  0  0  0
    8.4143   12.5295   24.6343 C   0  0  0  0  0  0  0  0  0  0  0  0
  1  2  2  0
  2  3  1  0
  2  4  1  0
  4  5  1  0
  5  6  1  0
  6  7  2  0
  6  8  1  0
  8  9  2  0
  9 10  1  0
 10 11  2  0
 11 12  1  0
 12 13  1  0
 13 14  1  0
 13 15  2  0
 15 16  1  0
 15 17  1  0
 17 18  1  0
 18  8  1  0
 18 12  2  0
M  END
>  <alias>  (1699) 
None

>  <rmsd(smina/fragmenstein)>  (1699) 
0.351

>  <smiles>  (1699) 
C=C(Br)CNC(=O)c1cccc2c(C)c(C)[nH]c12

>  <gnina_score>  (1699) 
5.374

>  <inspiration_score>  (1699) 
None

>  <energy_score>  (1699) 
-21.668402

>  <distance_score>  (1699) 
0.977081

>  <gnina_score_min>  (1699) 
5.344

>  <inchikey>  (1699) 
AJVBDGBCTGQZIV-UHFFFAOYSA-N

>  <exports>  (1699) 
['/opt/xchem-fragalysis-2/maxwin/BulkDock/OUTPUTS/openbind_a71ev2a_c2_elabs_1LOUU54.sdf', '/opt/xchem-fragalysis-2/maxwin/BulkDock/OUTPUTS/openbind_a71ev2a_c2_elabs_1LSYIDY.sdf']

>  <name>  (1699) 
P585236

>  <ref_pdb>  (1699) 
A0566a

>  <subsites>  (1699) 
None

>  <HIPPO Pose ID>  (1699) 
585236

>  <ref_mols>  (1699) 
A0566a

>  <HIPPO Compound ID>  (1699) 
440098

>  <tags>  (1699) 
openbind_a71ev2a_c2_elabs,syndirella_product,openbind_a71ev2a_c2_elabs_fragonly_scored_top80percent,openbind_a71ev2a_c2_elabs_scored,BulkDock Fragalysis export,openbind_a71ev2a_c2_elabs_scored_top80percent,openbind_a71ev2a_c2_elabs_activefrags_only_scored_5.2plus,syndirella_placed

>  <smina_score_min>  (1699) 
-6.181

$$$$
P585239
     RDKit          3D

 18 19  0  0  0  0  0  0  0  0999 V2000
    9.9242   15.7649   19.7818 C   0  0  0  0  0  0  0  0  0  0  0  0
   11.1995   14.9685   19.8924 C   0  0  0  0  0  0  0  0  0  0  0  0
   11.7235   14.4458   18.9067 O   0  0  0  0  0  0  0  0  0  0  0  0
   11.7622   14.7794   21.2885 C   0  0  0  0  0  0  0  0  0  0  0  0
   10.9561   13.7960   21.9492 N   0  0  0  0  0  0  0  0  0  0  0  0
   10.2896   13.8175   23.3311 C   0  0  0  0  0  0  0  0  0  0  0  0
   10.2238   14.6678   24.1247 O   0  0  0  0  0  0  0  0  0  0  0  0
    9.5603   12.5530   23.6419 C   0  0  0  0  0  0  0  0  0  0  0  0
    9.9345   11.3017   23.1465 C   0  0  0  0  0  0  0  0  0  0  0  0
    9.3005   10.1317   23.5438 C   0  0  0  0  0  0  0  0  0  0  0  0
    8.2664   10.1841   24.4762 C   0  0  0  0  0  0  0  0  0  0  0  0
    7.8304   11.4252   24.9742 C   0  0  0  0  0  0  0  0  0  0  0  0
    6.8271   11.8257   25.9122 C   0  0  0  0  0  0  0  0  0  0  0  0
    5.9114   10.9420   26.6814 C   0  0  0  0  0  0  0  0  0  0  0  0
    6.8679   13.2081   25.9858 C   0  0  0  0  0  0  0  0  0  0  0  0
    6.0425   14.1640   26.7688 C   0  0  0  0  0  0  0  0  0  0  0  0
    7.8611   13.6409   25.1502 N   0  0  0  0  0  0  0  0  0  0  0  0
    8.4792   12.5761   24.5364 C   0  0  0  0  0  0  0  0  0  0  0  0
  1  2  1  0
  2  3  2  0
  2  4  1  0
  4  5  1  0
  5  6  1  0
  6  7  2  0
  6  8  1  0
  8  9  2  0
  9 10  1  0
 10 11  2  0
 11 12  1  0
 12 13  1  0
 13 14  1  0
 13 15  2  0
 15 16  1  0
 15 17  1  0
 17 18  1  0
 18  8  1  0
 18 12  2  0
M  END
>  <alias>  (1700) 
None

>  <rmsd(smina/fragmenstein)>  (1700) 
0.642

>  <smiles>  (1700) 
CC(=O)CNC(=O)c1cccc2c(C)c(C)[nH]c12

>  <gnina_score>  (1700) 
5.29

>  <inspiration_score>  (1700) 
None

>  <energy_score>  (1700) 
-1.441929

>  <distance_score>  (1700) 
0.996809

>  <gnina_score_min>  (1700) 
5.299

>  <inchikey>  (1700) 
KOCAUAHELJNJSC-UHFFFAOYSA-N

>  <exports>  (1700) 
['/opt/xchem-fragalysis-2/maxwin/BulkDock/OUTPUTS/openbind_a71ev2a_c2_elabs_1LOUU54.sdf', '/opt/xchem-fragalysis-2/maxwin/BulkDock/OUTPUTS/openbind_a71ev2a_c2_elabs_1LSYIDY.sdf']

>  <name>  (1700) 
P585239

>  <ref_pdb>  (1700) 
A0566a

>  <subsites>  (1700) 
None

>  <HIPPO Pose ID>  (1700) 
585239

>  <ref_mols>  (1700) 
A0566a

>  <HIPPO Compound ID>  (1700) 
440106

>  <tags>  (1700) 
openbind_a71ev2a_c2_elabs,syndirella_product,openbind_a71ev2a_c2_elabs_fragonly_scored_top80percent,openbind_a71ev2a_c2_elabs_scored,BulkDock Fragalysis export,openbind_a71ev2a_c2_elabs_scored_top80percent,openbind_a71ev2a_c2_elabs_activefrags_only_scored_5.2plus,syndirella_placed

>  <smina_score_min>  (1700) 
-6.789

$$$$
P585240
     RDKit          3D

 18 20  0  0  0  0  0  0  0  0999 V2000
    5.8520   13.9153   26.9048 C   0  0  0  0  0  0  0  0  0  0  0  0
    6.7038   12.9982   26.1043 C   0  0  0  0  0  0  0  0  0  0  0  0
    7.6656   13.4774   25.2578 N   0  0  0  0  0  0  0  0  0  0  0  0
    8.3202   12.4399   24.6367 C   0  0  0  0  0  0  0  0  0  0  0  0
    9.3882   12.4634   23.7326 C   0  0  0  0  0  0  0  0  0  0  0  0
   10.0069   13.7644   23.4008 C   0  0  0  0  0  0  0  0  0  0  0  0
   10.0019   14.5900   24.2258 O   0  0  0  0  0  0  0  0  0  0  0  0
   10.4747   13.8207   21.9352 N   0  0  0  0  0  0  0  0  0  0  0  0
   11.1068   14.8491   21.2183 C   0  0  0  0  0  0  0  0  0  0  0  0
   12.3695   15.3402   21.8649 C   0  0  0  0  0  0  0  0  0  0  0  0
   11.0470   14.9066   19.7138 C   0  0  0  0  0  0  0  0  0  0  0  0
   10.1448   15.7912   20.5133 C   0  0  0  0  0  0  0  0  0  0  0  0
    9.8355   11.2437   23.2215 C   0  0  0  0  0  0  0  0  0  0  0  0
    9.2513   10.0480   23.6092 C   0  0  0  0  0  0  0  0  0  0  0  0
    8.2122   10.0500   24.5431 C   0  0  0  0  0  0  0  0  0  0  0  0
    7.7264   11.2619   25.0674 C   0  0  0  0  0  0  0  0  0  0  0  0
    6.7165   11.6154   26.0174 C   0  0  0  0  0  0  0  0  0  0  0  0
    5.8441   10.6894   26.7867 C   0  0  0  0  0  0  0  0  0  0  0  0
  1  2  1  0
  2  3  1  0
  3  4  1  0
  4  5  2  0
  5  6  1  0
  6  7  2  0
  6  8  1  0
  8  9  1  0
  9 10  1  0
  9 11  1  0
 11 12  1  0
  5 13  1  0
 13 14  2  0
 14 15  1  0
 15 16  2  0
 16 17  1  0
 17 18  1  0
 17  2  2  0
 16  4  1  0
 12  9  1  0
M  END
>  <alias>  (1701) 
None

>  <rmsd(smina/fragmenstein)>  (1701) 
0.365

>  <smiles>  (1701) 
Cc1[nH]c2c(C(=O)NC3(C)CC3)cccc2c1C

>  <gnina_score>  (1701) 
5.302

>  <inspiration_score>  (1701) 
None

>  <energy_score>  (1701) 
-7.470034

>  <distance_score>  (1701) 
1.161177

>  <gnina_score_min>  (1701) 
5.313

>  <inchikey>  (1701) 
OPRYHONOHFWMPF-UHFFFAOYSA-N

>  <exports>  (1701) 
['/opt/xchem-fragalysis-2/maxwin/BulkDock/OUTPUTS/openbind_a71ev2a_c2_elabs_1LOUU54.sdf', '/opt/xchem-fragalysis-2/maxwin/BulkDock/OUTPUTS/openbind_a71ev2a_c2_elabs_1LSYIDY.sdf']

>  <name>  (1701) 
P585240

>  <ref_pdb>  (1701) 
A0566a

>  <subsites>  (1701) 
None

>  <HIPPO Pose ID>  (1701) 
585240

>  <ref_mols>  (1701) 
A0566a

>  <HIPPO Compound ID>  (1701) 
440108

>  <tags>  (1701) 
openbind_a71ev2a_c2_elabs,syndirella_product,openbind_a71ev2a_c2_elabs_fragonly_scored_top80percent,openbind_a71ev2a_c2_elabs_scored,BulkDock Fragalysis export,openbind_a71ev2a_c2_elabs_scored_top80percent,openbind_a71ev2a_c2_elabs_activefrags_only_scored_5.2plus,syndirella_placed

>  <smina_score_min>  (1701) 
-7.242

$$$$
P585241
     RDKit          3D

 18 19  0  0  0  0  0  0  0  0999 V2000
    5.8071   13.8687   26.8680 C   0  0  0  0  0  0  0  0  0  0  0  0
    6.6866   12.9917   26.0531 C   0  0  0  0  0  0  0  0  0  0  0  0
    7.6207   13.5153   25.2022 N   0  0  0  0  0  0  0  0  0  0  0  0
    8.3043   12.5102   24.5599 C   0  0  0  0  0  0  0  0  0  0  0  0
    9.3544   12.5878   23.6378 C   0  0  0  0  0  0  0  0  0  0  0  0
    9.9226   13.9128   23.3083 C   0  0  0  0  0  0  0  0  0  0  0  0
    9.9117   14.7124   24.1561 O   0  0  0  0  0  0  0  0  0  0  0  0
   10.4038   14.0108   21.8542 N   0  0  0  0  0  0  0  0  0  0  0  0
   11.0636   15.0865   21.1555 C   0  0  1  0  0  0  0  0  0  0  0  0
   12.5499   14.8102   21.2655 C   0  0  0  0  0  0  0  0  0  0  0  0
   10.5201   15.2776   19.7259 C   0  0  0  0  0  0  0  0  0  0  0  0
   11.1168   14.4028   18.7717 O   0  0  0  0  0  0  0  0  0  0  0  0
    9.8709   11.3911   23.1399 C   0  0  0  0  0  0  0  0  0  0  0  0
    9.3434   10.1657   23.5261 C   0  0  0  0  0  0  0  0  0  0  0  0
    8.3036   10.1167   24.4591 C   0  0  0  0  0  0  0  0  0  0  0  0
    7.7691   11.3047   24.9934 C   0  0  0  0  0  0  0  0  0  0  0  0
    6.7494   11.6113   25.9507 C   0  0  0  0  0  0  0  0  0  0  0  0
    5.9091   10.6481   26.7091 C   0  0  0  0  0  0  0  0  0  0  0  0
  1  2  1  0
  2  3  1  0
  3  4  1  0
  4  5  2  0
  5  6  1  0
  6  7  2  0
  6  8  1  0
  8  9  1  0
  9 10  1  6
  9 11  1  0
 11 12  1  0
  5 13  1  0
 13 14  2  0
 14 15  1  0
 15 16  2  0
 16 17  1  0
 17 18  1  0
 17  2  2  0
 16  4  1  0
M  END
>  <alias>  (1702) 
None

>  <rmsd(smina/fragmenstein)>  (1702) 
0.404

>  <smiles>  (1702) 
Cc1[nH]c2c(C(=O)N[C@@H](C)CO)cccc2c1C

>  <gnina_score>  (1702) 
5.289

>  <inspiration_score>  (1702) 
None

>  <energy_score>  (1702) 
-2.788495

>  <distance_score>  (1702) 
1.164305

>  <gnina_score_min>  (1702) 
5.346

>  <inchikey>  (1702) 
TWJTYGDAXLGYCZ-QMMMGPOBSA-N

>  <exports>  (1702) 
['/opt/xchem-fragalysis-2/maxwin/BulkDock/OUTPUTS/openbind_a71ev2a_c2_elabs_1LOUU54.sdf', '/opt/xchem-fragalysis-2/maxwin/BulkDock/OUTPUTS/openbind_a71ev2a_c2_elabs_1LSYIDY.sdf']

>  <name>  (1702) 
P585241

>  <ref_pdb>  (1702) 
A0566a

>  <subsites>  (1702) 
None

>  <HIPPO Pose ID>  (1702) 
585241

>  <ref_mols>  (1702) 
A0566a

>  <HIPPO Compound ID>  (1702) 
440109

>  <tags>  (1702) 
openbind_a71ev2a_c2_elabs,syndirella_product,openbind_a71ev2a_c2_elabs_fragonly_scored_top80percent,openbind_a71ev2a_c2_elabs_scored,BulkDock Fragalysis export,openbind_a71ev2a_c2_elabs_scored_top80percent,openbind_a71ev2a_c2_elabs_activefrags_only_scored_5.2plus,syndirella_placed

>  <smina_score_min>  (1702) 
-7.293

$$$$
P585243
     RDKit          3D

 18 19  0  0  0  0  0  0  0  0999 V2000
   10.2510   16.0560   19.3402 C   0  0  0  0  0  0  0  0  0  0  0  0
   10.3547   15.6459   20.6094 C   0  0  0  0  0  0  0  0  0  0  0  0
   11.3971   14.6930   21.1145 C   0  0  1  0  0  0  0  0  0  0  0  0
   12.4793   15.2986   21.9846 C   0  0  0  0  0  0  0  0  0  0  0  0
   10.6712   13.7113   21.8551 N   0  0  0  0  0  0  0  0  0  0  0  0
   10.0897   13.7611   23.2734 C   0  0  0  0  0  0  0  0  0  0  0  0
   10.0411   14.6375   24.0399 O   0  0  0  0  0  0  0  0  0  0  0  0
    9.4137   12.4966   23.6502 C   0  0  0  0  0  0  0  0  0  0  0  0
    9.8241   11.2389   23.2052 C   0  0  0  0  0  0  0  0  0  0  0  0
    9.2068   10.0789   23.6498 C   0  0  0  0  0  0  0  0  0  0  0  0
    8.1662   10.1493   24.5794 C   0  0  0  0  0  0  0  0  0  0  0  0
    7.7091   11.4017   25.0321 C   0  0  0  0  0  0  0  0  0  0  0  0
    6.7163   11.8428   25.9522 C   0  0  0  0  0  0  0  0  0  0  0  0
    5.8627   11.0452   26.7724 C   0  0  0  0  0  0  0  0  0  0  0  0
    5.1944   10.4142   27.4808 N   0  0  0  0  0  0  0  0  0  0  0  0
    6.7332   13.2202   25.9701 C   0  0  0  0  0  0  0  0  0  0  0  0
    7.7100   13.6341   25.1111 N   0  0  0  0  0  0  0  0  0  0  0  0
    8.3377   12.5445   24.5455 C   0  0  0  0  0  0  0  0  0  0  0  0
  1  2  2  0
  2  3  1  0
  3  4  1  1
  3  5  1  0
  5  6  1  0
  6  7  2  0
  6  8  1  0
  8  9  2  0
  9 10  1  0
 10 11  2  0
 11 12  1  0
 12 13  1  0
 13 14  1  0
 14 15  3  0
 13 16  2  0
 16 17  1  0
 17 18  1  0
 18  8  1  0
 18 12  2  0
M  END
>  <alias>  (1703) 
None

>  <rmsd(smina/fragmenstein)>  (1703) 
0.295

>  <smiles>  (1703) 
C=C[C@@H](C)NC(=O)c1cccc2c(C#N)c[nH]c12

>  <gnina_score>  (1703) 
5.295

>  <inspiration_score>  (1703) 
None

>  <energy_score>  (1703) 
-18.871121

>  <distance_score>  (1703) 
1.150181

>  <gnina_score_min>  (1703) 
5.293

>  <inchikey>  (1703) 
LJZKFCOJFRFCLQ-SECBINFHSA-N

>  <exports>  (1703) 
['/opt/xchem-fragalysis-2/maxwin/BulkDock/OUTPUTS/openbind_a71ev2a_c2_elabs_1LOUU54.sdf', '/opt/xchem-fragalysis-2/maxwin/BulkDock/OUTPUTS/openbind_a71ev2a_c2_elabs_1LSYIDY.sdf']

>  <name>  (1703) 
P585243

>  <ref_pdb>  (1703) 
A0566a

>  <subsites>  (1703) 
None

>  <HIPPO Pose ID>  (1703) 
585243

>  <ref_mols>  (1703) 
A0566a

>  <HIPPO Compound ID>  (1703) 
440111

>  <tags>  (1703) 
openbind_a71ev2a_c2_elabs,syndirella_product,openbind_a71ev2a_c2_elabs_fragonly_scored_top80percent,openbind_a71ev2a_c2_elabs_scored,BulkDock Fragalysis export,openbind_a71ev2a_c2_elabs_scored_top80percent,openbind_a71ev2a_c2_elabs_activefrags_only_scored_5.2plus,syndirella_placed

>  <smina_score_min>  (1703) 
-6.519

$$$$
P585246
     RDKit          3D

 18 19  0  0  0  0  0  0  0  0999 V2000
   10.3231   15.6323   20.4614 C   0  0  0  0  0  0  0  0  0  0  0  0
   11.2715   14.6347   21.1121 C   0  0  1  0  0  0  0  0  0  0  0  0
   12.3247   15.2168   22.0488 C   0  0  0  0  0  0  0  0  0  0  0  0
   13.4529   15.6819   21.3590 O   0  0  0  0  0  0  0  0  0  0  0  0
   10.5081   13.6737   21.8527 N   0  0  0  0  0  0  0  0  0  0  0  0
    9.9430   13.7337   23.2743 C   0  0  0  0  0  0  0  0  0  0  0  0
    9.9387   14.6027   24.0490 O   0  0  0  0  0  0  0  0  0  0  0  0
    9.2993   12.4643   23.6733 C   0  0  0  0  0  0  0  0  0  0  0  0
    9.7424   11.2088   23.2509 C   0  0  0  0  0  0  0  0  0  0  0  0
    9.1457   10.0471   23.7138 C   0  0  0  0  0  0  0  0  0  0  0  0
    8.1039   10.1144   24.6431 C   0  0  0  0  0  0  0  0  0  0  0  0
    7.6316   11.3643   25.0875 C   0  0  0  0  0  0  0  0  0  0  0  0
    6.6424   11.8021   26.0126 C   0  0  0  0  0  0  0  0  0  0  0  0
    5.8078   11.0013   26.8491 C   0  0  0  0  0  0  0  0  0  0  0  0
    5.1531   10.3662   27.5665 N   0  0  0  0  0  0  0  0  0  0  0  0
    6.6409   13.1798   26.0159 C   0  0  0  0  0  0  0  0  0  0  0  0
    7.5999   13.5985   25.1390 N   0  0  0  0  0  0  0  0  0  0  0  0
    8.2349   12.5099   24.5796 C   0  0  0  0  0  0  0  0  0  0  0  0
  2  1  1  1
  2  3  1  0
  3  4  1  0
  2  5  1  0
  5  6  1  0
  6  7  2  0
  6  8  1  0
  8  9  2  0
  9 10  1  0
 10 11  2  0
 11 12  1  0
 12 13  1  0
 13 14  1  0
 14 15  3  0
 13 16  2  0
 16 17  1  0
 17 18  1  0
 18  8  1  0
 18 12  2  0
M  END
>  <alias>  (1704) 
None

>  <rmsd(smina/fragmenstein)>  (1704) 
0.933

>  <smiles>  (1704) 
C[C@@H](CO)NC(=O)c1cccc2c(C#N)c[nH]c12

>  <gnina_score>  (1704) 
5.011

>  <inspiration_score>  (1704) 
None

>  <energy_score>  (1704) 
-1.459186

>  <distance_score>  (1704) 
1.237386

>  <gnina_score_min>  (1704) 
5.2

>  <inchikey>  (1704) 
FDUQFLHQHLWJFF-QMMMGPOBSA-N

>  <exports>  (1704) 
['/opt/xchem-fragalysis-2/maxwin/BulkDock/OUTPUTS/openbind_a71ev2a_c2_elabs_1LOUU54.sdf', '/opt/xchem-fragalysis-2/maxwin/BulkDock/OUTPUTS/openbind_a71ev2a_c2_elabs_1LSYIDY.sdf']

>  <name>  (1704) 
P585246

>  <ref_pdb>  (1704) 
A0566a

>  <subsites>  (1704) 
None

>  <HIPPO Pose ID>  (1704) 
585246

>  <ref_mols>  (1704) 
A0566a

>  <HIPPO Compound ID>  (1704) 
440117

>  <tags>  (1704) 
openbind_a71ev2a_c2_elabs,syndirella_product,openbind_a71ev2a_c2_elabs_fragonly_scored_top80percent,openbind_a71ev2a_c2_elabs_scored,BulkDock Fragalysis export,openbind_a71ev2a_c2_elabs_scored_top80percent,openbind_a71ev2a_c2_elabs_activefrags_only_scored_5.2plus,syndirella_placed

>  <smina_score_min>  (1704) 
-6.419

$$$$
P585248
     RDKit          3D

 18 19  0  0  0  0  0  0  0  0999 V2000
   12.2033   14.5459   20.5458 C   0  0  0  0  0  0  0  0  0  0  0  0
   10.7677   14.8375   20.1295 C   0  0  2  0  0  0  0  0  0  0  0  0
   10.6177   15.9283   18.7061 S   0  0  0  0  0  0  0  0  0  0  0  0
    9.9529   15.4483   21.2524 C   0  0  0  0  0  0  0  0  0  0  0  0
    9.5520   14.4166   22.1598 N   0  0  0  0  0  0  0  0  0  0  0  0
   10.1977   13.9263   23.4504 C   0  0  0  0  0  0  0  0  0  0  0  0
   11.1183   14.3280   24.0315 O   0  0  0  0  0  0  0  0  0  0  0  0
    9.5018   12.7052   23.8555 C   0  0  0  0  0  0  0  0  0  0  0  0
    9.8781   11.4786   23.3109 C   0  0  0  0  0  0  0  0  0  0  0  0
    9.2135   10.3175   23.6783 C   0  0  0  0  0  0  0  0  0  0  0  0
    8.1570   10.3795   24.5963 C   0  0  0  0  0  0  0  0  0  0  0  0
    7.7125   11.6264   25.0904 C   0  0  0  0  0  0  0  0  0  0  0  0
    6.6766   12.0552   25.9764 C   0  0  0  0  0  0  0  0  0  0  0  0
    5.7227   11.2608   26.7177 C   0  0  0  0  0  0  0  0  0  0  0  0
    5.7673   10.0393   26.7914 O   0  0  0  0  0  0  0  0  0  0  0  0
    6.7237   13.4354   26.0269 C   0  0  0  0  0  0  0  0  0  0  0  0
    7.7603   13.8574   25.2454 N   0  0  0  0  0  0  0  0  0  0  0  0
    8.3917   12.7737   24.6882 C   0  0  0  0  0  0  0  0  0  0  0  0
  2  1  1  1
  2  3  1  0
  2  4  1  0
  4  5  1  0
  5  6  1  0
  6  7  2  0
  6  8  1  0
  8  9  2  0
  9 10  1  0
 10 11  2  0
 11 12  1  0
 12 13  1  0
 13 14  1  0
 14 15  2  0
 13 16  2  0
 16 17  1  0
 17 18  1  0
 18  8  1  0
 18 12  2  0
M  END
>  <alias>  (1705) 
None

>  <rmsd(smina/fragmenstein)>  (1705) 
0.818

>  <smiles>  (1705) 
C[C@H](S)CNC(=O)c1cccc2c(C=O)c[nH]c12

>  <gnina_score>  (1705) 
4.973

>  <inspiration_score>  (1705) 
None

>  <energy_score>  (1705) 
-5.520388

>  <distance_score>  (1705) 
1.195685

>  <gnina_score_min>  (1705) 
5.241

>  <inchikey>  (1705) 
CGFDDKGTSUSOMR-QMMMGPOBSA-N

>  <exports>  (1705) 
['/opt/xchem-fragalysis-2/maxwin/BulkDock/OUTPUTS/openbind_a71ev2a_c2_elabs_1LOUU54.sdf', '/opt/xchem-fragalysis-2/maxwin/BulkDock/OUTPUTS/openbind_a71ev2a_c2_elabs_1LSYIDY.sdf']

>  <name>  (1705) 
P585248

>  <ref_pdb>  (1705) 
A0566a

>  <subsites>  (1705) 
None

>  <HIPPO Pose ID>  (1705) 
585248

>  <ref_mols>  (1705) 
A0566a

>  <HIPPO Compound ID>  (1705) 
440124

>  <tags>  (1705) 
openbind_a71ev2a_c2_elabs,syndirella_product,openbind_a71ev2a_c2_elabs_fragonly_scored_top80percent,openbind_a71ev2a_c2_elabs_scored,BulkDock Fragalysis export,openbind_a71ev2a_c2_elabs_scored_top80percent,openbind_a71ev2a_c2_elabs_activefrags_only_scored_5.2plus,syndirella_placed

>  <smina_score_min>  (1705) 
-6.178

$$$$
P585252
     RDKit          3D

 18 19  0  0  0  0  0  0  0  0999 V2000
   12.6374   15.2653   21.6934 C   0  0  0  0  0  0  0  0  0  0  0  0
   11.9088   14.7837   20.4464 C   0  0  0  0  0  0  0  0  0  0  0  0
   10.4734   14.6780   20.6357 N   0  0  0  0  0  0  0  0  0  0  0  0
    9.7200   15.9113   20.6458 C   0  0  0  0  0  0  0  0  0  0  0  0
   10.1871   13.7362   21.5724 N   0  0  0  0  0  0  0  0  0  0  0  0
    9.6038   13.8809   22.9966 C   0  0  0  0  0  0  0  0  0  0  0  0
    9.3499   14.8371   23.6171 O   0  0  0  0  0  0  0  0  0  0  0  0
    9.2418   12.5575   23.5767 C   0  0  0  0  0  0  0  0  0  0  0  0
    9.8235   11.3441   23.1924 C   0  0  0  0  0  0  0  0  0  0  0  0
    9.3287   10.1276   23.6414 C   0  0  0  0  0  0  0  0  0  0  0  0
    8.2689   10.0991   24.5481 C   0  0  0  0  0  0  0  0  0  0  0  0
    7.7041   11.2996   25.0180 C   0  0  0  0  0  0  0  0  0  0  0  0
    6.6577   11.6259   25.9361 C   0  0  0  0  0  0  0  0  0  0  0  0
    5.8261   10.7238   26.7100 C   0  0  0  0  0  0  0  0  0  0  0  0
    4.9792   11.0887   27.5201 O   0  0  0  0  0  0  0  0  0  0  0  0
    6.5581   13.0031   25.9610 C   0  0  0  0  0  0  0  0  0  0  0  0
    7.4670   13.5154   25.0830 N   0  0  0  0  0  0  0  0  0  0  0  0
    8.2038   12.4979   24.5168 C   0  0  0  0  0  0  0  0  0  0  0  0
  1  2  1  0
  2  3  1  0
  3  4  1  0
  3  5  1  0
  5  6  1  0
  6  7  2  0
  6  8  1  0
  8  9  2  0
  9 10  1  0
 10 11  2  0
 11 12  1  0
 12 13  1  0
 13 14  1  0
 14 15  2  0
 13 16  2  0
 16 17  1  0
 17 18  1  0
 18  8  1  0
 18 12  2  0
M  END
>  <alias>  (1706) 
None

>  <rmsd(smina/fragmenstein)>  (1706) 
0.503

>  <smiles>  (1706) 
CCN(C)NC(=O)c1cccc2c(C=O)c[nH]c12

>  <gnina_score>  (1706) 
5.384

>  <inspiration_score>  (1706) 
None

>  <energy_score>  (1706) 
-0.488408

>  <distance_score>  (1706) 
1.485419

>  <gnina_score_min>  (1706) 
5.212

>  <inchikey>  (1706) 
FWMIODNSIUQLGE-UHFFFAOYSA-N

>  <exports>  (1706) 
['/opt/xchem-fragalysis-2/maxwin/BulkDock/OUTPUTS/openbind_a71ev2a_c2_elabs_1LOUU54.sdf', '/opt/xchem-fragalysis-2/maxwin/BulkDock/OUTPUTS/openbind_a71ev2a_c2_elabs_1LSYIDY.sdf']

>  <name>  (1706) 
P585252

>  <ref_pdb>  (1706) 
A0566a

>  <subsites>  (1706) 
None

>  <HIPPO Pose ID>  (1706) 
585252

>  <ref_mols>  (1706) 
A0566a

>  <HIPPO Compound ID>  (1706) 
440138

>  <tags>  (1706) 
openbind_a71ev2a_c2_elabs,syndirella_product,openbind_a71ev2a_c2_elabs_fragonly_scored_top80percent,openbind_a71ev2a_c2_elabs_scored,BulkDock Fragalysis export,openbind_a71ev2a_c2_elabs_scored_top80percent,openbind_a71ev2a_c2_elabs_activefrags_only_scored_5.2plus,syndirella_placed

>  <smina_score_min>  (1706) 
-5.946

$$$$
P585258
     RDKit          3D

 18 19  0  0  0  0  0  0  0  0999 V2000
    5.7884   10.1606   26.7102 O   0  0  0  0  0  0  0  0  0  0  0  0
    5.7858   11.3813   26.5995 C   0  0  0  0  0  0  0  0  0  0  0  0
    6.7778   12.1243   25.8547 C   0  0  0  0  0  0  0  0  0  0  0  0
    6.8971   13.4995   25.8994 C   0  0  0  0  0  0  0  0  0  0  0  0
    7.9648   13.8578   25.1288 N   0  0  0  0  0  0  0  0  0  0  0  0
    8.5303   12.7434   24.5532 C   0  0  0  0  0  0  0  0  0  0  0  0
    9.6444   12.6388   23.7122 C   0  0  0  0  0  0  0  0  0  0  0  0
   10.5063   13.8305   23.4976 C   0  0  0  0  0  0  0  0  0  0  0  0
   10.6118   14.5753   24.3868 O   0  0  0  0  0  0  0  0  0  0  0  0
   11.0826   13.8879   22.0813 N   0  0  0  0  0  0  0  0  0  0  0  0
   11.9841   14.8183   21.4839 C   0  0  0  0  0  0  0  0  0  0  0  0
   11.8995   14.6385   20.0102 C   0  0  0  0  0  0  0  0  0  0  0  0
   10.9789   15.1712   19.2009 C   0  0  0  0  0  0  0  0  0  0  0  0
    9.6960   16.1672   19.7431 Cl  0  0  0  0  0  0  0  0  0  0  0  0
    9.9394   11.3728   23.2034 C   0  0  0  0  0  0  0  0  0  0  0  0
    9.2258   10.2463   23.5949 C   0  0  0  0  0  0  0  0  0  0  0  0
    8.1813   10.3652   24.5134 C   0  0  0  0  0  0  0  0  0  0  0  0
    7.7940   11.6388   24.9742 C   0  0  0  0  0  0  0  0  0  0  0  0
  1  2  2  0
  2  3  1  0
  3  4  2  0
  4  5  1  0
  5  6  1  0
  6  7  2  0
  7  8  1  0
  8  9  2  0
  8 10  1  0
 10 11  1  0
 11 12  1  0
 12 13  2  0
 13 14  1  0
  7 15  1  0
 15 16  2  0
 16 17  1  0
 17 18  2  0
 18  3  1  0
 18  6  1  0
M  END
>  <alias>  (1707) 
None

>  <rmsd(smina/fragmenstein)>  (1707) 
0.332

>  <smiles>  (1707) 
O=Cc1c[nH]c2c(C(=O)NC/C=C\Cl)cccc12

>  <gnina_score>  (1707) 
5.256

>  <inspiration_score>  (1707) 
None

>  <energy_score>  (1707) 
-13.068663

>  <distance_score>  (1707) 
0.907302

>  <gnina_score_min>  (1707) 
5.302

>  <inchikey>  (1707) 
JFKHDNMHYJWCCQ-DJWKRKHSSA-N

>  <exports>  (1707) 
['/opt/xchem-fragalysis-2/maxwin/BulkDock/OUTPUTS/openbind_a71ev2a_c2_elabs_1LOUU54.sdf', '/opt/xchem-fragalysis-2/maxwin/BulkDock/OUTPUTS/openbind_a71ev2a_c2_elabs_1LSYIDY.sdf']

>  <name>  (1707) 
P585258

>  <ref_pdb>  (1707) 
A0566a

>  <subsites>  (1707) 
None

>  <HIPPO Pose ID>  (1707) 
585258

>  <ref_mols>  (1707) 
A0566a

>  <HIPPO Compound ID>  (1707) 
440158

>  <tags>  (1707) 
openbind_a71ev2a_c2_elabs,syndirella_product,openbind_a71ev2a_c2_elabs_fragonly_scored_top80percent,openbind_a71ev2a_c2_elabs_scored,BulkDock Fragalysis export,openbind_a71ev2a_c2_elabs_scored_top80percent,openbind_a71ev2a_c2_elabs_activefrags_only_scored_5.2plus,syndirella_placed

>  <smina_score_min>  (1707) 
-6.261

$$$$
P585262
     RDKit          3D

 18 19  0  0  0  0  0  0  0  0999 V2000
   12.6062   14.9524   22.6548 C   0  0  0  0  0  0  0  0  0  0  0  0
   11.5215   14.8284   21.6110 C   0  0  1  0  0  0  0  0  0  0  0  0
   12.1644   14.4414   20.2936 C   0  0  0  0  0  0  0  0  0  0  0  0
   11.1004   14.8894   18.9139 S   0  0  0  0  0  0  0  0  0  0  0  0
   10.6126   13.8516   22.1313 N   0  0  0  0  0  0  0  0  0  0  0  0
    9.8667   13.7978   23.4702 C   0  0  0  0  0  0  0  0  0  0  0  0
    9.8101   14.5765   24.3355 O   0  0  0  0  0  0  0  0  0  0  0  0
    9.2039   12.4967   23.7070 C   0  0  0  0  0  0  0  0  0  0  0  0
    9.7233   11.2855   23.2333 C   0  0  0  0  0  0  0  0  0  0  0  0
    9.1916   10.0705   23.6344 C   0  0  0  0  0  0  0  0  0  0  0  0
    8.1471   10.0402   24.5598 C   0  0  0  0  0  0  0  0  0  0  0  0
    7.6009   11.2368   25.0616 C   0  0  0  0  0  0  0  0  0  0  0  0
    6.5770   11.5589   26.0057 C   0  0  0  0  0  0  0  0  0  0  0  0
    5.7367   10.6544   26.7663 C   0  0  0  0  0  0  0  0  0  0  0  0
    4.9025   11.0163   27.5908 O   0  0  0  0  0  0  0  0  0  0  0  0
    6.5235   12.9362   26.0899 C   0  0  0  0  0  0  0  0  0  0  0  0
    7.4602   13.4547   25.2460 N   0  0  0  0  0  0  0  0  0  0  0  0
    8.1377   12.4374   24.6113 C   0  0  0  0  0  0  0  0  0  0  0  0
  2  1  1  1
  2  3  1  0
  3  4  1  0
  2  5  1  0
  5  6  1  0
  6  7  2  0
  6  8  1  0
  8  9  2  0
  9 10  1  0
 10 11  2  0
 11 12  1  0
 12 13  1  0
 13 14  1  0
 14 15  2  0
 13 16  2  0
 16 17  1  0
 17 18  1  0
 18  8  1  0
 18 12  2  0
M  END
>  <alias>  (1708) 
None

>  <rmsd(smina/fragmenstein)>  (1708) 
0.892

>  <smiles>  (1708) 
C[C@@H](CS)NC(=O)c1cccc2c(C=O)c[nH]c12

>  <gnina_score>  (1708) 
5.114

>  <inspiration_score>  (1708) 
None

>  <energy_score>  (1708) 
-12.89069

>  <distance_score>  (1708) 
1.188419

>  <gnina_score_min>  (1708) 
5.289

>  <inchikey>  (1708) 
XJMHILWOZWVPQH-QMMMGPOBSA-N

>  <exports>  (1708) 
['/opt/xchem-fragalysis-2/maxwin/BulkDock/OUTPUTS/openbind_a71ev2a_c2_elabs_1LOUU54.sdf', '/opt/xchem-fragalysis-2/maxwin/BulkDock/OUTPUTS/openbind_a71ev2a_c2_elabs_1LSYIDY.sdf']

>  <name>  (1708) 
P585262

>  <ref_pdb>  (1708) 
A0566a

>  <subsites>  (1708) 
None

>  <HIPPO Pose ID>  (1708) 
585262

>  <ref_mols>  (1708) 
A0566a

>  <HIPPO Compound ID>  (1708) 
440163

>  <tags>  (1708) 
openbind_a71ev2a_c2_elabs,syndirella_product,openbind_a71ev2a_c2_elabs_fragonly_scored_top80percent,openbind_a71ev2a_c2_elabs_scored,BulkDock Fragalysis export,openbind_a71ev2a_c2_elabs_scored_top80percent,openbind_a71ev2a_c2_elabs_activefrags_only_scored_5.2plus,syndirella_placed

>  <smina_score_min>  (1708) 
-6.062

$$$$
P585263
     RDKit          3D

 18 19  0  0  0  0  0  0  0  0999 V2000
    9.3563   14.9439   24.0625 O   0  0  0  0  0  0  0  0  0  0  0  0
    9.7021   14.0676   23.3732 C   0  0  0  0  0  0  0  0  0  0  0  0
   10.5034   14.0885   22.0547 N   0  0  0  0  0  0  0  0  0  0  0  0
   11.1279   15.1811   21.3578 C   0  0  0  0  0  0  0  0  0  0  0  0
   10.4734   15.3820   19.9969 C   0  0  0  0  0  0  0  0  0  0  0  0
   11.2960   14.8483   18.8318 C   0  0  0  0  0  0  0  0  0  0  0  0
   12.3445   14.1052   19.2656 F   0  0  0  0  0  0  0  0  0  0  0  0
    9.2226   12.7281   23.7577 C   0  0  0  0  0  0  0  0  0  0  0  0
    9.8327   11.5715   23.3162 C   0  0  0  0  0  0  0  0  0  0  0  0
   10.9488   11.6843   22.6035 F   0  0  0  0  0  0  0  0  0  0  0  0
    9.3489   10.3191   23.6423 C   0  0  0  0  0  0  0  0  0  0  0  0
   10.1440    8.9337   23.0533 Cl  0  0  0  0  0  0  0  0  0  0  0  0
    8.2626   10.1799   24.5015 C   0  0  0  0  0  0  0  0  0  0  0  0
    7.6525   11.3319   25.0190 C   0  0  0  0  0  0  0  0  0  0  0  0
    6.5800   11.5619   25.9181 C   0  0  0  0  0  0  0  0  0  0  0  0
    6.4234   12.9228   26.0423 C   0  0  0  0  0  0  0  0  0  0  0  0
    7.3506   13.5287   25.2413 N   0  0  0  0  0  0  0  0  0  0  0  0
    8.1342   12.5770   24.6260 C   0  0  0  0  0  0  0  0  0  0  0  0
  1  2  2  0
  2  3  1  0
  3  4  1  0
  4  5  1  0
  5  6  1  0
  6  7  1  0
  2  8  1  0
  8  9  2  0
  9 10  1  0
  9 11  1  0
 11 12  1  0
 11 13  2  0
 13 14  1  0
 14 15  1  0
 15 16  2  0
 16 17  1  0
 17 18  1  0
 18  8  1  0
 18 14  2  0
M  END
>  <alias>  (1709) 
None

>  <rmsd(smina/fragmenstein)>  (1709) 
0.358

>  <smiles>  (1709) 
O=C(NCCCF)c1c(F)c(Cl)cc2cc[nH]c12

>  <gnina_score>  (1709) 
5.167

>  <inspiration_score>  (1709) 
None

>  <energy_score>  (1709) 
-4.282643

>  <distance_score>  (1709) 
1.317549

>  <gnina_score_min>  (1709) 
5.317

>  <inchikey>  (1709) 
GBQMWMUBMUECCO-UHFFFAOYSA-N

>  <exports>  (1709) 
['/opt/xchem-fragalysis-2/maxwin/BulkDock/OUTPUTS/openbind_a71ev2a_c2_elabs_1LOUU54.sdf', '/opt/xchem-fragalysis-2/maxwin/BulkDock/OUTPUTS/openbind_a71ev2a_c2_elabs_1LSYIDY.sdf']

>  <name>  (1709) 
P585263

>  <ref_pdb>  (1709) 
A0566a

>  <subsites>  (1709) 
None

>  <HIPPO Pose ID>  (1709) 
585263

>  <ref_mols>  (1709) 
A0566a

>  <HIPPO Compound ID>  (1709) 
440172

>  <tags>  (1709) 
openbind_a71ev2a_c2_elabs,syndirella_product,openbind_a71ev2a_c2_elabs_fragonly_scored_top80percent,openbind_a71ev2a_c2_elabs_scored,BulkDock Fragalysis export,openbind_a71ev2a_c2_elabs_scored_top80percent,openbind_a71ev2a_c2_elabs_activefrags_only_scored_5.2plus,syndirella_placed

>  <smina_score_min>  (1709) 
-4.959

$$$$
P585264
     RDKit          3D

 18 19  0  0  0  0  0  0  0  0999 V2000
    9.7368   16.4229   18.9850 C   0  0  0  0  0  0  0  0  0  0  0  0
   10.3724   15.5738   19.8050 C   0  0  0  0  0  0  0  0  0  0  0  0
   11.7203   14.4731   19.1773 Br  0  0  0  0  0  0  0  0  0  0  0  0
   10.2060   15.6596   21.2770 C   0  0  0  0  0  0  0  0  0  0  0  0
    9.9432   14.4417   21.9913 N   0  0  0  0  0  0  0  0  0  0  0  0
    9.4660   14.2131   23.4405 C   0  0  0  0  0  0  0  0  0  0  0  0
    9.2849   14.9750   24.3071 O   0  0  0  0  0  0  0  0  0  0  0  0
    9.0857   12.8278   23.7524 C   0  0  0  0  0  0  0  0  0  0  0  0
    9.7735   11.7274   23.2752 C   0  0  0  0  0  0  0  0  0  0  0  0
   10.8824   11.9355   22.5661 F   0  0  0  0  0  0  0  0  0  0  0  0
    9.3545   10.4394   23.5802 C   0  0  0  0  0  0  0  0  0  0  0  0
   10.1470    9.0751   22.9393 Cl  0  0  0  0  0  0  0  0  0  0  0  0
    8.2921   10.2179   24.4566 C   0  0  0  0  0  0  0  0  0  0  0  0
    7.6307   11.3147   25.0197 C   0  0  0  0  0  0  0  0  0  0  0  0
    6.5695   11.4579   25.9486 C   0  0  0  0  0  0  0  0  0  0  0  0
    6.3458   12.8037   26.1208 C   0  0  0  0  0  0  0  0  0  0  0  0
    7.2193   13.4816   25.3174 N   0  0  0  0  0  0  0  0  0  0  0  0
    8.0306   12.5917   24.6463 C   0  0  0  0  0  0  0  0  0  0  0  0
  1  2  2  0
  2  3  1  0
  2  4  1  0
  4  5  1  0
  5  6  1  0
  6  7  2  0
  6  8  1  0
  8  9  2  0
  9 10  1  0
  9 11  1  0
 11 12  1  0
 11 13  2  0
 13 14  1  0
 14 15  1  0
 15 16  2  0
 16 17  1  0
 17 18  1  0
 18  8  1  0
 18 14  2  0
M  END
>  <alias>  (1710) 
None

>  <rmsd(smina/fragmenstein)>  (1710) 
1.009

>  <smiles>  (1710) 
C=C(Br)CNC(=O)c1c(F)c(Cl)cc2cc[nH]c12

>  <gnina_score>  (1710) 
5.33

>  <inspiration_score>  (1710) 
None

>  <energy_score>  (1710) 
-3.441225

>  <distance_score>  (1710) 
1.491097

>  <gnina_score_min>  (1710) 
5.359

>  <inchikey>  (1710) 
IVPBFFGYSLHUPH-UHFFFAOYSA-N

>  <exports>  (1710) 
['/opt/xchem-fragalysis-2/maxwin/BulkDock/OUTPUTS/openbind_a71ev2a_c2_elabs_1LOUU54.sdf', '/opt/xchem-fragalysis-2/maxwin/BulkDock/OUTPUTS/openbind_a71ev2a_c2_elabs_1LSYIDY.sdf']

>  <name>  (1710) 
P585264

>  <ref_pdb>  (1710) 
A0566a

>  <subsites>  (1710) 
None

>  <HIPPO Pose ID>  (1710) 
585264

>  <ref_mols>  (1710) 
A0566a

>  <HIPPO Compound ID>  (1710) 
440173

>  <tags>  (1710) 
openbind_a71ev2a_c2_elabs,syndirella_product,openbind_a71ev2a_c2_elabs_fragonly_scored_top80percent,openbind_a71ev2a_c2_elabs_scored,BulkDock Fragalysis export,openbind_a71ev2a_c2_elabs_scored_top80percent,openbind_a71ev2a_c2_elabs_activefrags_only_scored_5.2plus,syndirella_placed

>  <smina_score_min>  (1710) 
-5.57

$$$$
P585265
     RDKit          3D

 18 19  0  0  0  0  0  0  0  0999 V2000
    9.5653   14.9054   24.3730 O   0  0  0  0  0  0  0  0  0  0  0  0
    9.8061   14.0800   23.5841 C   0  0  0  0  0  0  0  0  0  0  0  0
   10.5996   14.1596   22.2648 N   0  0  0  0  0  0  0  0  0  0  0  0
   11.1804   15.2854   21.5939 C   0  0  0  0  0  0  0  0  0  0  0  0
   10.1118   16.1463   20.9268 C   0  0  0  0  0  0  0  0  0  0  0  0
   10.0587   15.9425   19.4378 C   0  0  0  0  0  0  0  0  0  0  0  0
    9.3118   17.5125   18.5739 Br  0  0  0  0  0  0  0  0  0  0  0  0
    9.2417   12.7458   23.8464 C   0  0  0  0  0  0  0  0  0  0  0  0
    9.8249   11.5956   23.3491 C   0  0  0  0  0  0  0  0  0  0  0  0
   10.9357   11.7129   22.6266 F   0  0  0  0  0  0  0  0  0  0  0  0
    9.3255   10.3409   23.6396 C   0  0  0  0  0  0  0  0  0  0  0  0
   10.1091    8.9636   23.0178 Cl  0  0  0  0  0  0  0  0  0  0  0  0
    8.2387   10.1919   24.4967 C   0  0  0  0  0  0  0  0  0  0  0  0
    7.6338   11.3369   25.0369 C   0  0  0  0  0  0  0  0  0  0  0  0
    6.5566   11.5541   25.9330 C   0  0  0  0  0  0  0  0  0  0  0  0
    6.4195   12.9125   26.1007 C   0  0  0  0  0  0  0  0  0  0  0  0
    7.3686   13.5309   25.3353 N   0  0  0  0  0  0  0  0  0  0  0  0
    8.1380   12.5872   24.6908 C   0  0  0  0  0  0  0  0  0  0  0  0
  1  2  2  0
  2  3  1  0
  3  4  1  0
  4  5  1  0
  5  6  1  0
  6  7  1  0
  2  8  1  0
  8  9  2  0
  9 10  1  0
  9 11  1  0
 11 12  1  0
 11 13  2  0
 13 14  1  0
 14 15  1  0
 15 16  2  0
 16 17  1  0
 17 18  1  0
 18  8  1  0
 18 14  2  0
M  END
>  <alias>  (1711) 
None

>  <rmsd(smina/fragmenstein)>  (1711) 
0.319

>  <smiles>  (1711) 
O=C(NCCCBr)c1c(F)c(Cl)cc2cc[nH]c12

>  <gnina_score>  (1711) 
5.536

>  <inspiration_score>  (1711) 
None

>  <energy_score>  (1711) 
-10.855871

>  <distance_score>  (1711) 
1.247608

>  <gnina_score_min>  (1711) 
5.476

>  <inchikey>  (1711) 
GZLRIKKHSBIKFV-UHFFFAOYSA-N

>  <exports>  (1711) 
['/opt/xchem-fragalysis-2/maxwin/BulkDock/OUTPUTS/openbind_a71ev2a_c2_elabs_1LOUU54.sdf', '/opt/xchem-fragalysis-2/maxwin/BulkDock/OUTPUTS/openbind_a71ev2a_c2_elabs_1LSYIDY.sdf']

>  <name>  (1711) 
P585265

>  <ref_pdb>  (1711) 
A0566a

>  <subsites>  (1711) 
None

>  <HIPPO Pose ID>  (1711) 
585265

>  <ref_mols>  (1711) 
A0566a

>  <HIPPO Compound ID>  (1711) 
440177

>  <tags>  (1711) 
openbind_a71ev2a_c2_elabs,syndirella_product,openbind_a71ev2a_c2_elabs_fragonly_scored_top80percent,openbind_a71ev2a_c2_elabs_scored,BulkDock Fragalysis export,openbind_a71ev2a_c2_elabs_scored_top80percent,openbind_a71ev2a_c2_elabs_activefrags_only_scored_5.2plus,syndirella_placed

>  <smina_score_min>  (1711) 
-4.474

$$$$
P585267
     RDKit          3D

 18 19  0  0  0  0  0  0  0  0999 V2000
    9.9368   16.6962   18.9742 C   0  0  0  0  0  0  0  0  0  0  0  0
   10.2522   15.3915   19.6926 C   0  0  1  0  0  0  0  0  0  0  0  0
   11.5215   14.4962   18.8302 Cl  0  0  0  0  0  0  0  0  0  0  0  0
   10.6205   15.4728   21.1736 C   0  0  0  0  0  0  0  0  0  0  0  0
   10.1384   14.3067   21.9084 N   0  0  0  0  0  0  0  0  0  0  0  0
    9.5585   14.1892   23.3350 C   0  0  0  0  0  0  0  0  0  0  0  0
    9.3035   15.0162   24.1191 O   0  0  0  0  0  0  0  0  0  0  0  0
    9.1775   12.8214   23.7282 C   0  0  0  0  0  0  0  0  0  0  0  0
    9.8338   11.6932   23.2775 C   0  0  0  0  0  0  0  0  0  0  0  0
   10.9482   11.8615   22.5686 F   0  0  0  0  0  0  0  0  0  0  0  0
    9.3797   10.4216   23.5961 C   0  0  0  0  0  0  0  0  0  0  0  0
   10.1550    9.0350   22.9820 Cl  0  0  0  0  0  0  0  0  0  0  0  0
    8.3039   10.2414   24.4646 C   0  0  0  0  0  0  0  0  0  0  0  0
    7.6682   11.3663   25.0035 C   0  0  0  0  0  0  0  0  0  0  0  0
    6.5989   11.5538   25.9155 C   0  0  0  0  0  0  0  0  0  0  0  0
    6.4019   12.9078   26.0536 C   0  0  0  0  0  0  0  0  0  0  0  0
    7.2987   13.5487   25.2451 N   0  0  0  0  0  0  0  0  0  0  0  0
    8.1066   12.6270   24.6137 C   0  0  0  0  0  0  0  0  0  0  0  0
  2  1  1  6
  2  3  1  0
  2  4  1  0
  4  5  1  0
  5  6  1  0
  6  7  2  0
  6  8  1  0
  8  9  2  0
  9 10  1  0
  9 11  1  0
 11 12  1  0
 11 13  2  0
 13 14  1  0
 14 15  1  0
 15 16  2  0
 16 17  1  0
 17 18  1  0
 18  8  1  0
 18 14  2  0
M  END
>  <alias>  (1712) 
None

>  <rmsd(smina/fragmenstein)>  (1712) 
0.258

>  <smiles>  (1712) 
C[C@@H](Cl)CNC(=O)c1c(F)c(Cl)cc2cc[nH]c12

>  <gnina_score>  (1712) 
5.369

>  <inspiration_score>  (1712) 
None

>  <energy_score>  (1712) 
-23.313228

>  <distance_score>  (1712) 
1.416516

>  <gnina_score_min>  (1712) 
5.455

>  <inchikey>  (1712) 
JNWUICSLGXXUEG-ZCFIWIBFSA-N

>  <exports>  (1712) 
['/opt/xchem-fragalysis-2/maxwin/BulkDock/OUTPUTS/openbind_a71ev2a_c2_elabs_1LOUU54.sdf', '/opt/xchem-fragalysis-2/maxwin/BulkDock/OUTPUTS/openbind_a71ev2a_c2_elabs_1LSYIDY.sdf']

>  <name>  (1712) 
P585267

>  <ref_pdb>  (1712) 
A0566a

>  <subsites>  (1712) 
None

>  <HIPPO Pose ID>  (1712) 
585267

>  <ref_mols>  (1712) 
A0566a

>  <HIPPO Compound ID>  (1712) 
440179

>  <tags>  (1712) 
openbind_a71ev2a_c2_elabs,syndirella_product,openbind_a71ev2a_c2_elabs_fragonly_scored_top80percent,openbind_a71ev2a_c2_elabs_scored,BulkDock Fragalysis export,openbind_a71ev2a_c2_elabs_scored_top80percent,openbind_a71ev2a_c2_elabs_activefrags_only_scored_5.2plus,syndirella_placed

>  <smina_score_min>  (1712) 
-5.167

$$$$
P585268
     RDKit          3D

 18 19  0  0  0  0  0  0  0  0999 V2000
   10.0182   16.0183   20.5543 C   0  0  0  0  0  0  0  0  0  0  0  0
   11.0386   14.9537   20.9730 C   0  0  0  0  0  0  0  0  0  0  0  0
   12.1954   15.4101   21.8662 C   0  0  0  0  0  0  0  0  0  0  0  0
   11.6441   14.3965   19.6794 C   0  0  0  0  0  0  0  0  0  0  0  0
   10.3526   13.9227   21.7329 N   0  0  0  0  0  0  0  0  0  0  0  0
    9.6385   13.9921   23.1033 C   0  0  0  0  0  0  0  0  0  0  0  0
    9.4231   14.9047   23.7990 O   0  0  0  0  0  0  0  0  0  0  0  0
    9.1581   12.6923   23.5910 C   0  0  0  0  0  0  0  0  0  0  0  0
    9.7991   11.5219   23.2462 C   0  0  0  0  0  0  0  0  0  0  0  0
   10.9275   11.6119   22.5517 F   0  0  0  0  0  0  0  0  0  0  0  0
    9.3373   10.2864   23.6465 C   0  0  0  0  0  0  0  0  0  0  0  0
   10.1612    8.8906   23.1250 Cl  0  0  0  0  0  0  0  0  0  0  0  0
    8.2552   10.1868   24.5158 C   0  0  0  0  0  0  0  0  0  0  0  0
    7.6439   11.3639   24.9778 C   0  0  0  0  0  0  0  0  0  0  0  0
    6.5897   11.6377   25.8860 C   0  0  0  0  0  0  0  0  0  0  0  0
    6.4254   13.0027   25.9366 C   0  0  0  0  0  0  0  0  0  0  0  0
    7.3249   13.5698   25.0765 N   0  0  0  0  0  0  0  0  0  0  0  0
    8.0981   12.5896   24.4961 C   0  0  0  0  0  0  0  0  0  0  0  0
  1  2  1  0
  2  3  1  0
  2  4  1  0
  2  5  1  0
  5  6  1  0
  6  7  2  0
  6  8  1  0
  8  9  2  0
  9 10  1  0
  9 11  1  0
 11 12  1  0
 11 13  2  0
 13 14  1  0
 14 15  1  0
 15 16  2  0
 16 17  1  0
 17 18  1  0
 18  8  1  0
 18 14  2  0
M  END
>  <alias>  (1713) 
None

>  <rmsd(smina/fragmenstein)>  (1713) 
0.352

>  <smiles>  (1713) 
CC(C)(C)NC(=O)c1c(F)c(Cl)cc2cc[nH]c12

>  <gnina_score>  (1713) 
5.359

>  <inspiration_score>  (1713) 
None

>  <energy_score>  (1713) 
-10.065783

>  <distance_score>  (1713) 
1.381664

>  <gnina_score_min>  (1713) 
5.38

>  <inchikey>  (1713) 
IOCAIRVXFLDPMT-UHFFFAOYSA-N

>  <exports>  (1713) 
['/opt/xchem-fragalysis-2/maxwin/BulkDock/OUTPUTS/openbind_a71ev2a_c2_elabs_1LOUU54.sdf', '/opt/xchem-fragalysis-2/maxwin/BulkDock/OUTPUTS/openbind_a71ev2a_c2_elabs_1LSYIDY.sdf']

>  <name>  (1713) 
P585268

>  <ref_pdb>  (1713) 
A0566a

>  <subsites>  (1713) 
None

>  <HIPPO Pose ID>  (1713) 
585268

>  <ref_mols>  (1713) 
A0566a

>  <HIPPO Compound ID>  (1713) 
440180

>  <tags>  (1713) 
openbind_a71ev2a_c2_elabs,syndirella_product,openbind_a71ev2a_c2_elabs_fragonly_scored_top80percent,openbind_a71ev2a_c2_elabs_scored,BulkDock Fragalysis export,openbind_a71ev2a_c2_elabs_scored_top80percent,openbind_a71ev2a_c2_elabs_activefrags_only_scored_5.2plus,syndirella_placed

>  <smina_score_min>  (1713) 
-5.219

$$$$
P585270
     RDKit          3D

 18 20  0  0  0  0  0  0  0  0999 V2000
    9.3670   14.9064   24.5671 O   0  0  0  0  0  0  0  0  0  0  0  0
    9.5074   14.0980   23.7364 C   0  0  0  0  0  0  0  0  0  0  0  0
   10.1019   14.2144   22.3177 N   0  0  0  0  0  0  0  0  0  0  0  0
   10.7037   15.2718   21.6895 N   0  0  0  0  0  0  0  0  0  0  0  0
   11.0018   14.9119   20.2792 C   0  0  0  0  0  0  0  0  0  0  0  0
   12.3675   14.3848   20.7292 C   0  0  0  0  0  0  0  0  0  0  0  0
   12.1623   15.2467   21.9710 C   0  0  0  0  0  0  0  0  0  0  0  0
    9.0477   12.7302   24.0032 C   0  0  0  0  0  0  0  0  0  0  0  0
    9.6896   11.6260   23.4606 C   0  0  0  0  0  0  0  0  0  0  0  0
   10.7816   11.8185   22.7161 F   0  0  0  0  0  0  0  0  0  0  0  0
    9.2489   10.3427   23.7112 C   0  0  0  0  0  0  0  0  0  0  0  0
   10.0721    9.0228   23.0177 Cl  0  0  0  0  0  0  0  0  0  0  0  0
    8.1769   10.1226   24.5726 C   0  0  0  0  0  0  0  0  0  0  0  0
    7.5303   11.2200   25.1643 C   0  0  0  0  0  0  0  0  0  0  0  0
    6.4553   11.3619   26.0771 C   0  0  0  0  0  0  0  0  0  0  0  0
    6.2637   12.7073   26.2939 C   0  0  0  0  0  0  0  0  0  0  0  0
    7.1758   13.3923   25.5406 N   0  0  0  0  0  0  0  0  0  0  0  0
    7.9728   12.5018   24.8584 C   0  0  0  0  0  0  0  0  0  0  0  0
  1  2  2  0
  2  3  1  0
  3  4  1  0
  4  5  1  0
  5  6  1  0
  6  7  1  0
  2  8  1  0
  8  9  2  0
  9 10  1  0
  9 11  1  0
 11 12  1  0
 11 13  2  0
 13 14  1  0
 14 15  1  0
 15 16  2  0
 16 17  1  0
 17 18  1  0
  7  4  1  0
 18  8  1  0
 18 14  2  0
M  END
>  <alias>  (1714) 
None

>  <rmsd(smina/fragmenstein)>  (1714) 
0.39

>  <smiles>  (1714) 
O=C(NN1CCC1)c1c(F)c(Cl)cc2cc[nH]c12

>  <gnina_score>  (1714) 
5.437

>  <inspiration_score>  (1714) 
None

>  <energy_score>  (1714) 
-29.971265

>  <distance_score>  (1714) 
1.457571

>  <gnina_score_min>  (1714) 
5.497

>  <inchikey>  (1714) 
DNLBUWXVCATYBE-UHFFFAOYSA-N

>  <exports>  (1714) 
['/opt/xchem-fragalysis-2/maxwin/BulkDock/OUTPUTS/openbind_a71ev2a_c2_elabs_1LOUU54.sdf', '/opt/xchem-fragalysis-2/maxwin/BulkDock/OUTPUTS/openbind_a71ev2a_c2_elabs_1LSYIDY.sdf']

>  <name>  (1714) 
P585270

>  <ref_pdb>  (1714) 
A0566a

>  <subsites>  (1714) 
None

>  <HIPPO Pose ID>  (1714) 
585270

>  <ref_mols>  (1714) 
A0566a

>  <HIPPO Compound ID>  (1714) 
440183

>  <tags>  (1714) 
openbind_a71ev2a_c2_elabs,syndirella_product,openbind_a71ev2a_c2_elabs_fragonly_scored_top80percent,openbind_a71ev2a_c2_elabs_scored,BulkDock Fragalysis export,openbind_a71ev2a_c2_elabs_scored_top80percent,openbind_a71ev2a_c2_elabs_activefrags_only_scored_5.2plus,syndirella_placed

>  <smina_score_min>  (1714) 
-5.294

$$$$
P585271
     RDKit          3D

 18 19  0  0  0  0  0  0  0  0999 V2000
   12.7482   14.6460   21.5632 C   0  0  0  0  0  0  0  0  0  0  0  0
   11.6789   15.5988   22.0038 C   0  0  0  0  0  0  0  0  0  0  0  0
   10.3294   15.3517   21.3483 C   0  0  1  0  0  0  0  0  0  0  0  0
   10.3497   15.1695   19.8457 C   0  0  0  0  0  0  0  0  0  0  0  0
    9.7842   14.2251   22.0465 N   0  0  0  0  0  0  0  0  0  0  0  0
    9.1569   14.1257   23.4460 C   0  0  0  0  0  0  0  0  0  0  0  0
    8.9123   14.9574   24.2256 O   0  0  0  0  0  0  0  0  0  0  0  0
    8.8562   12.7382   23.8278 C   0  0  0  0  0  0  0  0  0  0  0  0
    9.5922   11.6554   23.3647 C   0  0  0  0  0  0  0  0  0  0  0  0
   10.6768   11.8785   22.6189 F   0  0  0  0  0  0  0  0  0  0  0  0
    9.2397   10.3591   23.6905 C   0  0  0  0  0  0  0  0  0  0  0  0
   10.1122    9.0461   23.0428 Cl  0  0  0  0  0  0  0  0  0  0  0  0
    8.1960   10.1118   24.5793 C   0  0  0  0  0  0  0  0  0  0  0  0
    7.5047   11.1916   25.1470 C   0  0  0  0  0  0  0  0  0  0  0  0
    6.4567   11.3085   26.0941 C   0  0  0  0  0  0  0  0  0  0  0  0
    6.1864   12.6477   26.2560 C   0  0  0  0  0  0  0  0  0  0  0  0
    7.0124   13.3485   25.4230 N   0  0  0  0  0  0  0  0  0  0  0  0
    7.8418   12.4793   24.7507 C   0  0  0  0  0  0  0  0  0  0  0  0
  1  2  1  0
  2  3  1  0
  3  4  1  6
  3  5  1  0
  5  6  1  0
  6  7  2  0
  6  8  1  0
  8  9  2  0
  9 10  1  0
  9 11  1  0
 11 12  1  0
 11 13  2  0
 13 14  1  0
 14 15  1  0
 15 16  2  0
 16 17  1  0
 17 18  1  0
 18  8  1  0
 18 14  2  0
M  END
>  <alias>  (1715) 
None

>  <rmsd(smina/fragmenstein)>  (1715) 
0.432

>  <smiles>  (1715) 
CC[C@@H](C)NC(=O)c1c(F)c(Cl)cc2cc[nH]c12

>  <gnina_score>  (1715) 
5.297

>  <inspiration_score>  (1715) 
None

>  <energy_score>  (1715) 
-11.990689

>  <distance_score>  (1715) 
1.658563

>  <gnina_score_min>  (1715) 
5.322

>  <inchikey>  (1715) 
FWAQPZLRFYQZDN-SSDOTTSWSA-N

>  <exports>  (1715) 
['/opt/xchem-fragalysis-2/maxwin/BulkDock/OUTPUTS/openbind_a71ev2a_c2_elabs_1LOUU54.sdf', '/opt/xchem-fragalysis-2/maxwin/BulkDock/OUTPUTS/openbind_a71ev2a_c2_elabs_1LSYIDY.sdf']

>  <name>  (1715) 
P585271

>  <ref_pdb>  (1715) 
A0566a

>  <subsites>  (1715) 
None

>  <HIPPO Pose ID>  (1715) 
585271

>  <ref_mols>  (1715) 
A0566a

>  <HIPPO Compound ID>  (1715) 
440185

>  <tags>  (1715) 
openbind_a71ev2a_c2_elabs,syndirella_product,openbind_a71ev2a_c2_elabs_fragonly_scored_top80percent,openbind_a71ev2a_c2_elabs_scored,BulkDock Fragalysis export,openbind_a71ev2a_c2_elabs_scored_top80percent,openbind_a71ev2a_c2_elabs_activefrags_only_scored_5.2plus,syndirella_placed

>  <smina_score_min>  (1715) 
-5.171

$$$$
P585272
     RDKit          3D

 18 20  0  0  0  0  0  0  0  0999 V2000
    9.4225   14.9092   24.2931 O   0  0  0  0  0  0  0  0  0  0  0  0
    9.6165   14.0475   23.5317 C   0  0  0  0  0  0  0  0  0  0  0  0
   10.2857   14.0723   22.1453 N   0  0  0  0  0  0  0  0  0  0  0  0
   10.9486   15.1532   21.4361 C   0  0  0  0  0  0  0  0  0  0  0  0
   10.2345   15.5572   20.1239 C   0  0  0  0  0  0  0  0  0  0  0  0
   11.4593   14.6771   19.1241 S   0  0  0  0  0  0  0  0  0  0  0  0
   12.2373   14.6586   20.7501 C   0  0  0  0  0  0  0  0  0  0  0  0
    9.1221   12.7067   23.8711 C   0  0  0  0  0  0  0  0  0  0  0  0
    9.7508   11.5680   23.3959 C   0  0  0  0  0  0  0  0  0  0  0  0
   10.8657   11.7084   22.6791 F   0  0  0  0  0  0  0  0  0  0  0  0
    9.2859   10.3048   23.6933 C   0  0  0  0  0  0  0  0  0  0  0  0
   10.1082    8.9514   23.0682 Cl  0  0  0  0  0  0  0  0  0  0  0  0
    8.2031   10.1385   24.5522 C   0  0  0  0  0  0  0  0  0  0  0  0
    7.5774   11.2725   25.0968 C   0  0  0  0  0  0  0  0  0  0  0  0
    6.5052   11.4706   26.0028 C   0  0  0  0  0  0  0  0  0  0  0  0
    6.3354   12.8269   26.1612 C   0  0  0  0  0  0  0  0  0  0  0  0
    7.2555   13.4636   25.3756 N   0  0  0  0  0  0  0  0  0  0  0  0
    8.0416   12.5334   24.7348 C   0  0  0  0  0  0  0  0  0  0  0  0
  1  2  2  0
  2  3  1  0
  3  4  1  0
  4  5  1  0
  5  6  1  0
  6  7  1  0
  2  8  1  0
  8  9  2  0
  9 10  1  0
  9 11  1  0
 11 12  1  0
 11 13  2  0
 13 14  1  0
 14 15  1  0
 15 16  2  0
 16 17  1  0
 17 18  1  0
  7  4  1  0
 18  8  1  0
 18 14  2  0
M  END
>  <alias>  (1716) 
None

>  <rmsd(smina/fragmenstein)>  (1716) 
0.42

>  <smiles>  (1716) 
O=C(NC1CSC1)c1c(F)c(Cl)cc2cc[nH]c12

>  <gnina_score>  (1716) 
5.37

>  <inspiration_score>  (1716) 
None

>  <energy_score>  (1716) 
-1.072725

>  <distance_score>  (1716) 
1.377661

>  <gnina_score_min>  (1716) 
5.435

>  <inchikey>  (1716) 
ZJKJAZIWBKUNKL-UHFFFAOYSA-N

>  <exports>  (1716) 
['/opt/xchem-fragalysis-2/maxwin/BulkDock/OUTPUTS/openbind_a71ev2a_c2_elabs_1LOUU54.sdf', '/opt/xchem-fragalysis-2/maxwin/BulkDock/OUTPUTS/openbind_a71ev2a_c2_elabs_1LSYIDY.sdf']

>  <name>  (1716) 
P585272

>  <ref_pdb>  (1716) 
A0566a

>  <subsites>  (1716) 
None

>  <HIPPO Pose ID>  (1716) 
585272

>  <ref_mols>  (1716) 
A0566a

>  <HIPPO Compound ID>  (1716) 
440187

>  <tags>  (1716) 
openbind_a71ev2a_c2_elabs,syndirella_product,openbind_a71ev2a_c2_elabs_fragonly_scored_top80percent,openbind_a71ev2a_c2_elabs_scored,BulkDock Fragalysis export,openbind_a71ev2a_c2_elabs_scored_top80percent,openbind_a71ev2a_c2_elabs_activefrags_only_scored_5.2plus,syndirella_placed

>  <smina_score_min>  (1716) 
-5.111

$$$$
P585273
     RDKit          3D

 18 19  0  0  0  0  0  0  0  0999 V2000
   10.2231   14.6214   24.7320 O   0  0  0  0  0  0  0  0  0  0  0  0
   10.2997   13.7977   23.9095 C   0  0  0  0  0  0  0  0  0  0  0  0
   11.2281   13.6922   22.6864 N   0  0  0  0  0  0  0  0  0  0  0  0
   12.1686   14.5978   22.1754 C   0  0  0  0  0  0  0  0  0  0  0  0
   11.4450   15.7677   21.6532 C   0  0  0  0  0  0  0  0  0  0  0  0
   10.2353   15.9297   21.1026 C   0  0  0  0  0  0  0  0  0  0  0  0
    9.0289   14.7481   20.9085 Cl  0  0  0  0  0  0  0  0  0  0  0  0
    9.4194   12.6162   24.0107 C   0  0  0  0  0  0  0  0  0  0  0  0
    9.7983   11.4226   23.4264 C   0  0  0  0  0  0  0  0  0  0  0  0
   10.8523   11.3981   22.6211 F   0  0  0  0  0  0  0  0  0  0  0  0
    9.2026   10.2253   23.7183 C   0  0  0  0  0  0  0  0  0  0  0  0
    9.9825    8.8428   23.1070 Cl  0  0  0  0  0  0  0  0  0  0  0  0
    8.1176   10.1782   24.5806 C   0  0  0  0  0  0  0  0  0  0  0  0
    7.6164   11.3875   25.1010 C   0  0  0  0  0  0  0  0  0  0  0  0
    6.5399   11.7152   25.9640 C   0  0  0  0  0  0  0  0  0  0  0  0
    6.5571   13.0771   26.1594 C   0  0  0  0  0  0  0  0  0  0  0  0
    7.6122   13.5939   25.4595 N   0  0  0  0  0  0  0  0  0  0  0  0
    8.2770   12.5824   24.8066 C   0  0  0  0  0  0  0  0  0  0  0  0
  1  2  2  0
  2  3  1  0
  3  4  1  0
  4  5  1  0
  5  6  2  0
  6  7  1  0
  2  8  1  0
  8  9  2  0
  9 10  1  0
  9 11  1  0
 11 12  1  0
 11 13  2  0
 13 14  1  0
 14 15  1  0
 15 16  2  0
 16 17  1  0
 17 18  1  0
 18  8  1  0
 18 14  2  0
M  END
>  <alias>  (1717) 
None

>  <rmsd(smina/fragmenstein)>  (1717) 
1.753

>  <smiles>  (1717) 
O=C(NC/C=C\Cl)c1c(F)c(Cl)cc2cc[nH]c12

>  <gnina_score>  (1717) 
5.474

>  <inspiration_score>  (1717) 
None

>  <energy_score>  (1717) 
-7.299635

>  <distance_score>  (1717) 
1.067542

>  <gnina_score_min>  (1717) 
5.309

>  <inchikey>  (1717) 
OZHVJVUJFLYEDH-IWQZZHSRSA-N

>  <exports>  (1717) 
['/opt/xchem-fragalysis-2/maxwin/BulkDock/OUTPUTS/openbind_a71ev2a_c2_elabs_1LOUU54.sdf', '/opt/xchem-fragalysis-2/maxwin/BulkDock/OUTPUTS/openbind_a71ev2a_c2_elabs_1LSYIDY.sdf']

>  <name>  (1717) 
P585273

>  <ref_pdb>  (1717) 
A0566a

>  <subsites>  (1717) 
None

>  <HIPPO Pose ID>  (1717) 
585273

>  <ref_mols>  (1717) 
A0566a

>  <HIPPO Compound ID>  (1717) 
440189

>  <tags>  (1717) 
openbind_a71ev2a_c2_elabs,syndirella_product,openbind_a71ev2a_c2_elabs_fragonly_scored_top80percent,openbind_a71ev2a_c2_elabs_scored,BulkDock Fragalysis export,openbind_a71ev2a_c2_elabs_scored_top80percent,openbind_a71ev2a_c2_elabs_activefrags_only_scored_5.2plus,syndirella_placed

>  <smina_score_min>  (1717) 
-6.171

$$$$
P585274
     RDKit          3D

 18 19  0  0  0  0  0  0  0  0999 V2000
   10.5367   15.0830   19.6671 C   0  0  0  0  0  0  0  0  0  0  0  0
   10.5914   15.2322   21.1718 C   0  0  2  0  0  0  0  0  0  0  0  0
   11.9667   15.2950   21.6760 C   0  0  0  0  0  0  0  0  0  0  0  0
   13.0056   15.2978   22.1871 N   0  0  0  0  0  0  0  0  0  0  0  0
    9.9761   14.1406   21.8807 N   0  0  0  0  0  0  0  0  0  0  0  0
    9.2915   14.1026   23.2575 C   0  0  0  0  0  0  0  0  0  0  0  0
    9.0476   14.9639   24.0042 O   0  0  0  0  0  0  0  0  0  0  0  0
    8.9477   12.7410   23.7001 C   0  0  0  0  0  0  0  0  0  0  0  0
    9.6642   11.6252   23.2969 C   0  0  0  0  0  0  0  0  0  0  0  0
   10.7648   11.8033   22.5659 F   0  0  0  0  0  0  0  0  0  0  0  0
    9.2817   10.3490   23.6640 C   0  0  0  0  0  0  0  0  0  0  0  0
   10.1358    9.0005   23.0683 Cl  0  0  0  0  0  0  0  0  0  0  0  0
    8.2262   10.1550   24.5509 C   0  0  0  0  0  0  0  0  0  0  0  0
    7.5580   11.2716   25.0740 C   0  0  0  0  0  0  0  0  0  0  0  0
    6.5107   11.4448   26.0137 C   0  0  0  0  0  0  0  0  0  0  0  0
    6.2684   12.7942   26.1251 C   0  0  0  0  0  0  0  0  0  0  0  0
    7.1105   13.4466   25.2688 N   0  0  0  0  0  0  0  0  0  0  0  0
    7.9236   12.5375   24.6291 C   0  0  0  0  0  0  0  0  0  0  0  0
  2  1  1  6
  2  3  1  0
  3  4  3  0
  2  5  1  0
  5  6  1  0
  6  7  2  0
  6  8  1  0
  8  9  2  0
  9 10  1  0
  9 11  1  0
 11 12  1  0
 11 13  2  0
 13 14  1  0
 14 15  1  0
 15 16  2  0
 16 17  1  0
 17 18  1  0
 18  8  1  0
 18 14  2  0
M  END
>  <alias>  (1718) 
None

>  <rmsd(smina/fragmenstein)>  (1718) 
0.301

>  <smiles>  (1718) 
C[C@H](C#N)NC(=O)c1c(F)c(Cl)cc2cc[nH]c12

>  <gnina_score>  (1718) 
5.434

>  <inspiration_score>  (1718) 
None

>  <energy_score>  (1718) 
-9.82826

>  <distance_score>  (1718) 
1.56319

>  <gnina_score_min>  (1718) 
5.513

>  <inchikey>  (1718) 
SJMKOYFNFOXLDP-ZCFIWIBFSA-N

>  <exports>  (1718) 
['/opt/xchem-fragalysis-2/maxwin/BulkDock/OUTPUTS/openbind_a71ev2a_c2_elabs_1LOUU54.sdf', '/opt/xchem-fragalysis-2/maxwin/BulkDock/OUTPUTS/openbind_a71ev2a_c2_elabs_1LSYIDY.sdf']

>  <name>  (1718) 
P585274

>  <ref_pdb>  (1718) 
A0566a

>  <subsites>  (1718) 
None

>  <HIPPO Pose ID>  (1718) 
585274

>  <ref_mols>  (1718) 
A0566a

>  <HIPPO Compound ID>  (1718) 
440194

>  <tags>  (1718) 
openbind_a71ev2a_c2_elabs,syndirella_product,openbind_a71ev2a_c2_elabs_fragonly_scored_top80percent,BulkDock Fragalysis export,openbind_a71ev2a_c2_elabs_scored,openbind_a71ev2a_c2_elabs_scored_top80percent,openbind_a71ev2a_c2_elabs_activefrags_only_scored_5.2plus,openbind_a71ev2a_c2_elabs_activefrags_only_scored_5.5plus,syndirella_placed

>  <smina_score_min>  (1718) 
-5.594

$$$$
P585277
     RDKit          3D

 18 20  0  0  0  0  0  0  0  0999 V2000
   11.8491   14.4362   19.8605 C   0  0  0  0  0  0  0  0  0  0  0  0
   12.5259   14.9697   21.0647 C   0  0  1  0  0  0  0  0  0  0  0  0
   11.7537   15.9300   21.8934 C   0  0  0  0  0  0  0  0  0  0  0  0
   12.1862   14.6484   22.4865 C   0  0  1  0  0  0  0  0  0  0  0  0
   11.2161   13.7380   22.8596 N   0  0  0  0  0  0  0  0  0  0  0  0
   10.0935   13.8443   23.9126 C   0  0  0  0  0  0  0  0  0  0  0  0
    9.8577   14.6878   24.6855 O   0  0  0  0  0  0  0  0  0  0  0  0
    9.2770   12.6134   23.9695 C   0  0  0  0  0  0  0  0  0  0  0  0
    9.7240   11.4348   23.3963 C   0  0  0  0  0  0  0  0  0  0  0  0
   10.7826   11.4530   22.5941 F   0  0  0  0  0  0  0  0  0  0  0  0
    9.1900   10.2095   23.7027 C   0  0  0  0  0  0  0  0  0  0  0  0
   10.0176    8.8503   23.0978 Cl  0  0  0  0  0  0  0  0  0  0  0  0
    8.1166   10.1130   24.5761 C   0  0  0  0  0  0  0  0  0  0  0  0
    7.5633   11.2940   25.1041 C   0  0  0  0  0  0  0  0  0  0  0  0
    6.4938   11.5673   25.9944 C   0  0  0  0  0  0  0  0  0  0  0  0
    6.4466   12.9283   26.1900 C   0  0  0  0  0  0  0  0  0  0  0  0
    7.4534   13.4960   25.4604 N   0  0  0  0  0  0  0  0  0  0  0  0
    8.1505   12.5184   24.7873 C   0  0  0  0  0  0  0  0  0  0  0  0
  2  1  1  6
  2  3  1  0
  3  4  1  0
  4  5  1  6
  5  6  1  0
  6  7  2  0
  6  8  1  0
  8  9  2  0
  9 10  1  0
  9 11  1  0
 11 12  1  0
 11 13  2  0
 13 14  1  0
 14 15  1  0
 15 16  2  0
 16 17  1  0
 17 18  1  0
  4  2  1  0
 18  8  1  0
 18 14  2  0
M  END
>  <alias>  (1719) 
None

>  <rmsd(smina/fragmenstein)>  (1719) 
1.891

>  <smiles>  (1719) 
C[C@H]1C[C@H]1NC(=O)c1c(F)c(Cl)cc2cc[nH]c12

>  <gnina_score>  (1719) 
5.204

>  <inspiration_score>  (1719) 
None

>  <energy_score>  (1719) 
-9.67504

>  <distance_score>  (1719) 
1.168083

>  <gnina_score_min>  (1719) 
5.298

>  <inchikey>  (1719) 
ZMGBFXNIEGTXSW-IMTBSYHQSA-N

>  <exports>  (1719) 
['/opt/xchem-fragalysis-2/maxwin/BulkDock/OUTPUTS/openbind_a71ev2a_c2_elabs_1LOUU54.sdf', '/opt/xchem-fragalysis-2/maxwin/BulkDock/OUTPUTS/openbind_a71ev2a_c2_elabs_1LSYIDY.sdf']

>  <name>  (1719) 
P585277

>  <ref_pdb>  (1719) 
A0566a

>  <subsites>  (1719) 
None

>  <HIPPO Pose ID>  (1719) 
585277

>  <ref_mols>  (1719) 
A0566a

>  <HIPPO Compound ID>  (1719) 
440195

>  <tags>  (1719) 
openbind_a71ev2a_c2_elabs,syndirella_product,openbind_a71ev2a_c2_elabs_fragonly_scored_top80percent,openbind_a71ev2a_c2_elabs_scored,BulkDock Fragalysis export,openbind_a71ev2a_c2_elabs_scored_top80percent,openbind_a71ev2a_c2_elabs_activefrags_only_scored_5.2plus,syndirella_placed

>  <smina_score_min>  (1719) 
-6.544

$$$$
P585279
     RDKit          3D

 18 19  0  0  0  0  0  0  0  0999 V2000
   12.5399   14.7775   21.4348 C   0  0  0  0  0  0  0  0  0  0  0  0
   11.0656   15.1044   21.4859 C   0  0  1  0  0  0  0  0  0  0  0  0
   10.4184   15.2439   20.1063 C   0  0  0  0  0  0  0  0  0  0  0  0
    9.0138   15.4378   20.2735 O   0  0  0  0  0  0  0  0  0  0  0  0
   10.3965   14.0437   22.1896 N   0  0  0  0  0  0  0  0  0  0  0  0
    9.7383   14.0260   23.5766 C   0  0  0  0  0  0  0  0  0  0  0  0
    9.5641   14.8876   24.3413 O   0  0  0  0  0  0  0  0  0  0  0  0
    9.1926   12.6998   23.8949 C   0  0  0  0  0  0  0  0  0  0  0  0
    9.7877   11.5501   23.4068 C   0  0  0  0  0  0  0  0  0  0  0  0
   10.9056   11.6674   22.6921 F   0  0  0  0  0  0  0  0  0  0  0  0
    9.2934   10.2965   23.6934 C   0  0  0  0  0  0  0  0  0  0  0  0
   10.1003    8.9340   23.0680 Cl  0  0  0  0  0  0  0  0  0  0  0  0
    8.2034   10.1489   24.5463 C   0  0  0  0  0  0  0  0  0  0  0  0
    7.5967   11.2948   25.0887 C   0  0  0  0  0  0  0  0  0  0  0  0
    6.5189   11.5134   25.9836 C   0  0  0  0  0  0  0  0  0  0  0  0
    6.3771   12.8726   26.1454 C   0  0  0  0  0  0  0  0  0  0  0  0
    7.3221   13.4918   25.3752 N   0  0  0  0  0  0  0  0  0  0  0  0
    8.0958   12.5471   24.7414 C   0  0  0  0  0  0  0  0  0  0  0  0
  2  1  1  6
  2  3  1  0
  3  4  1  0
  2  5  1  0
  5  6  1  0
  6  7  2  0
  6  8  1  0
  8  9  2  0
  9 10  1  0
  9 11  1  0
 11 12  1  0
 11 13  2  0
 13 14  1  0
 14 15  1  0
 15 16  2  0
 16 17  1  0
 17 18  1  0
 18  8  1  0
 18 14  2  0
M  END
>  <alias>  (1720) 
None

>  <rmsd(smina/fragmenstein)>  (1720) 
0.574

>  <smiles>  (1720) 
C[C@@H](CO)NC(=O)c1c(F)c(Cl)cc2cc[nH]c12

>  <gnina_score>  (1720) 
5.226

>  <inspiration_score>  (1720) 
None

>  <energy_score>  (1720) 
-9.526243

>  <distance_score>  (1720) 
1.310268

>  <gnina_score_min>  (1720) 
5.262

>  <inchikey>  (1720) 
WEGQEURJEJUBPG-LURJTMIESA-N

>  <exports>  (1720) 
['/opt/xchem-fragalysis-2/maxwin/BulkDock/OUTPUTS/openbind_a71ev2a_c2_elabs_1LOUU54.sdf', '/opt/xchem-fragalysis-2/maxwin/BulkDock/OUTPUTS/openbind_a71ev2a_c2_elabs_1LSYIDY.sdf']

>  <name>  (1720) 
P585279

>  <ref_pdb>  (1720) 
A0566a

>  <subsites>  (1720) 
None

>  <HIPPO Pose ID>  (1720) 
585279

>  <ref_mols>  (1720) 
A0566a

>  <HIPPO Compound ID>  (1720) 
440198

>  <tags>  (1720) 
openbind_a71ev2a_c2_elabs,syndirella_product,openbind_a71ev2a_c2_elabs_fragonly_scored_top80percent,openbind_a71ev2a_c2_elabs_scored,BulkDock Fragalysis export,openbind_a71ev2a_c2_elabs_scored_top80percent,openbind_a71ev2a_c2_elabs_activefrags_only_scored_5.2plus,syndirella_placed

>  <smina_score_min>  (1720) 
-5.432

$$$$
P585280
     RDKit          3D

 18 20  0  0  0  0  0  0  0  0999 V2000
   12.2682   15.4414   21.9468 C   0  0  0  0  0  0  0  0  0  0  0  0
   10.9502   15.0193   21.3725 C   0  0  0  0  0  0  0  0  0  0  0  0
   10.3368   13.9771   22.0838 N   0  0  0  0  0  0  0  0  0  0  0  0
    9.6215   13.9816   23.4537 C   0  0  0  0  0  0  0  0  0  0  0  0
    9.3626   14.8674   24.1698 O   0  0  0  0  0  0  0  0  0  0  0  0
    9.1359   12.6497   23.8297 C   0  0  0  0  0  0  0  0  0  0  0  0
    9.7608   11.5044   23.3752 C   0  0  0  0  0  0  0  0  0  0  0  0
   10.8712   11.6308   22.6523 F   0  0  0  0  0  0  0  0  0  0  0  0
    9.2974   10.2476   23.6936 C   0  0  0  0  0  0  0  0  0  0  0  0
   10.1321    8.8927   23.0894 Cl  0  0  0  0  0  0  0  0  0  0  0  0
    8.2136   10.0954   24.5535 C   0  0  0  0  0  0  0  0  0  0  0  0
    7.5911   11.2384   25.0829 C   0  0  0  0  0  0  0  0  0  0  0  0
    6.5209   11.4536   25.9876 C   0  0  0  0  0  0  0  0  0  0  0  0
    6.3534   12.8127   26.1233 C   0  0  0  0  0  0  0  0  0  0  0  0
    7.2719   13.4342   25.3239 N   0  0  0  0  0  0  0  0  0  0  0  0
    8.0570   12.4918   24.6994 C   0  0  0  0  0  0  0  0  0  0  0  0
   10.8670   15.0420   19.8672 C   0  0  0  0  0  0  0  0  0  0  0  0
   10.0127   15.9762   20.6602 C   0  0  0  0  0  0  0  0  0  0  0  0
  1  2  1  0
  2  3  1  0
  3  4  1  0
  4  5  2  0
  4  6  1  0
  6  7  2  0
  7  8  1  0
  7  9  1  0
  9 10  1  0
  9 11  2  0
 11 12  1  0
 12 13  1  0
 13 14  2  0
 14 15  1  0
 15 16  1  0
  2 17  1  0
 17 18  1  0
 18  2  1  0
 16  6  1  0
 16 12  2  0
M  END
>  <alias>  (1721) 
None

>  <rmsd(smina/fragmenstein)>  (1721) 
0.368

>  <smiles>  (1721) 
CC1(NC(=O)c2c(F)c(Cl)cc3cc[nH]c23)CC1

>  <gnina_score>  (1721) 
5.475

>  <inspiration_score>  (1721) 
None

>  <energy_score>  (1721) 
-19.830107

>  <distance_score>  (1721) 
1.381716

>  <gnina_score_min>  (1721) 
5.459

>  <inchikey>  (1721) 
XACQUHZFFYEBFV-UHFFFAOYSA-N

>  <exports>  (1721) 
['/opt/xchem-fragalysis-2/maxwin/BulkDock/OUTPUTS/openbind_a71ev2a_c2_elabs_1LOUU54.sdf', '/opt/xchem-fragalysis-2/maxwin/BulkDock/OUTPUTS/openbind_a71ev2a_c2_elabs_1LSYIDY.sdf']

>  <name>  (1721) 
P585280

>  <ref_pdb>  (1721) 
A0566a

>  <subsites>  (1721) 
None

>  <HIPPO Pose ID>  (1721) 
585280

>  <ref_mols>  (1721) 
A0566a

>  <HIPPO Compound ID>  (1721) 
440199

>  <tags>  (1721) 
openbind_a71ev2a_c2_elabs,syndirella_product,openbind_a71ev2a_c2_elabs_fragonly_scored_top80percent,openbind_a71ev2a_c2_elabs_scored,BulkDock Fragalysis export,openbind_a71ev2a_c2_elabs_scored_top80percent,openbind_a71ev2a_c2_elabs_activefrags_only_scored_5.2plus,syndirella_placed

>  <smina_score_min>  (1721) 
-5.769

$$$$
P585281
     RDKit          3D

 18 19  0  0  0  0  0  0  0  0999 V2000
   10.1215   15.9436   19.2203 C   0  0  0  0  0  0  0  0  0  0  0  0
   10.2965   15.7554   20.5364 C   0  0  0  0  0  0  0  0  0  0  0  0
   11.2679   14.7840   21.1302 C   0  0  1  0  0  0  0  0  0  0  0  0
   12.3726   15.3420   22.0047 C   0  0  0  0  0  0  0  0  0  0  0  0
   10.5127   13.8201   21.8661 N   0  0  0  0  0  0  0  0  0  0  0  0
    9.7587   13.9480   23.2058 C   0  0  0  0  0  0  0  0  0  0  0  0
    9.5705   14.8798   23.8815 O   0  0  0  0  0  0  0  0  0  0  0  0
    9.2004   12.6684   23.6657 C   0  0  0  0  0  0  0  0  0  0  0  0
    9.7909   11.4775   23.2977 C   0  0  0  0  0  0  0  0  0  0  0  0
   10.9068   11.5247   22.5811 F   0  0  0  0  0  0  0  0  0  0  0  0
    9.2991   10.2541   23.6871 C   0  0  0  0  0  0  0  0  0  0  0  0
   10.1177    8.8603   23.1536 Cl  0  0  0  0  0  0  0  0  0  0  0  0
    8.2132   10.1797   24.5517 C   0  0  0  0  0  0  0  0  0  0  0  0
    7.6290   11.3732   25.0133 C   0  0  0  0  0  0  0  0  0  0  0  0
    6.5710   11.6705   25.9097 C   0  0  0  0  0  0  0  0  0  0  0  0
    6.4471   13.0395   25.9724 C   0  0  0  0  0  0  0  0  0  0  0  0
    7.3791   13.5891   25.1356 N   0  0  0  0  0  0  0  0  0  0  0  0
    8.1272   12.5918   24.5535 C   0  0  0  0  0  0  0  0  0  0  0  0
  1  2  2  0
  2  3  1  0
  3  4  1  1
  3  5  1  0
  5  6  1  0
  6  7  2  0
  6  8  1  0
  8  9  2  0
  9 10  1  0
  9 11  1  0
 11 12  1  0
 11 13  2  0
 13 14  1  0
 14 15  1  0
 15 16  2  0
 16 17  1  0
 17 18  1  0
 18  8  1  0
 18 14  2  0
M  END
>  <alias>  (1722) 
None

>  <rmsd(smina/fragmenstein)>  (1722) 
0.388

>  <smiles>  (1722) 
C=C[C@@H](C)NC(=O)c1c(F)c(Cl)cc2cc[nH]c12

>  <gnina_score>  (1722) 
5.524

>  <inspiration_score>  (1722) 
None

>  <energy_score>  (1722) 
-13.541899

>  <distance_score>  (1722) 
1.316482

>  <gnina_score_min>  (1722) 
5.511

>  <inchikey>  (1722) 
HKESUYDTCPVXBR-SSDOTTSWSA-N

>  <exports>  (1722) 
['/opt/xchem-fragalysis-2/maxwin/BulkDock/OUTPUTS/openbind_a71ev2a_c2_elabs_1LOUU54.sdf', '/opt/xchem-fragalysis-2/maxwin/BulkDock/OUTPUTS/openbind_a71ev2a_c2_elabs_1LSYIDY.sdf']

>  <name>  (1722) 
P585281

>  <ref_pdb>  (1722) 
A0566a

>  <subsites>  (1722) 
None

>  <HIPPO Pose ID>  (1722) 
585281

>  <ref_mols>  (1722) 
A0566a

>  <HIPPO Compound ID>  (1722) 
440204

>  <tags>  (1722) 
openbind_a71ev2a_c2_elabs,syndirella_product,openbind_a71ev2a_c2_elabs_fragonly_scored_top80percent,BulkDock Fragalysis export,openbind_a71ev2a_c2_elabs_scored,openbind_a71ev2a_c2_elabs_scored_top80percent,openbind_a71ev2a_c2_elabs_activefrags_only_scored_5.2plus,openbind_a71ev2a_c2_elabs_activefrags_only_scored_5.5plus,syndirella_placed

>  <smina_score_min>  (1722) 
-5.491

$$$$
P585284
     RDKit          3D

 18 19  0  0  0  0  0  0  0  0999 V2000
    9.7083   15.9639   20.5927 C   0  0  0  0  0  0  0  0  0  0  0  0
   10.7655   15.2260   21.4108 C   0  0  2  0  0  0  0  0  0  0  0  0
   12.0019   14.7094   20.6652 C   0  0  0  0  0  0  0  0  0  0  0  0
   11.7423   14.4609   18.9339 Cl  0  0  0  0  0  0  0  0  0  0  0  0
   10.1365   14.1369   22.1143 N   0  0  0  0  0  0  0  0  0  0  0  0
    9.5716   14.0638   23.5414 C   0  0  0  0  0  0  0  0  0  0  0  0
    9.4543   14.8936   24.3512 O   0  0  0  0  0  0  0  0  0  0  0  0
    9.0978   12.7161   23.8722 C   0  0  0  0  0  0  0  0  0  0  0  0
    9.7409   11.5904   23.3866 C   0  0  0  0  0  0  0  0  0  0  0  0
   10.8504   11.7538   22.6645 F   0  0  0  0  0  0  0  0  0  0  0  0
    9.2900   10.3204   23.6809 C   0  0  0  0  0  0  0  0  0  0  0  0
   10.1130    8.9719   23.0462 Cl  0  0  0  0  0  0  0  0  0  0  0  0
    8.2120   10.1378   24.5442 C   0  0  0  0  0  0  0  0  0  0  0  0
    7.5766   11.2606   25.0994 C   0  0  0  0  0  0  0  0  0  0  0  0
    6.5065   11.4424   26.0113 C   0  0  0  0  0  0  0  0  0  0  0  0
    6.3249   12.7960   26.1796 C   0  0  0  0  0  0  0  0  0  0  0  0
    7.2355   13.4465   25.3942 N   0  0  0  0  0  0  0  0  0  0  0  0
    8.0255   12.5277   24.7425 C   0  0  0  0  0  0  0  0  0  0  0  0
  2  1  1  6
  2  3  1  0
  3  4  1  0
  2  5  1  0
  5  6  1  0
  6  7  2  0
  6  8  1  0
  8  9  2  0
  9 10  1  0
  9 11  1  0
 11 12  1  0
 11 13  2  0
 13 14  1  0
 14 15  1  0
 15 16  2  0
 16 17  1  0
 17 18  1  0
 18  8  1  0
 18 14  2  0
M  END
>  <alias>  (1723) 
None

>  <rmsd(smina/fragmenstein)>  (1723) 
0.306

>  <smiles>  (1723) 
C[C@H](CCl)NC(=O)c1c(F)c(Cl)cc2cc[nH]c12

>  <gnina_score>  (1723) 
5.389

>  <inspiration_score>  (1723) 
None

>  <energy_score>  (1723) 
-14.397574

>  <distance_score>  (1723) 
1.402507

>  <gnina_score_min>  (1723) 
5.389

>  <inchikey>  (1723) 
GJXXZVIZPGAIOD-ZCFIWIBFSA-N

>  <exports>  (1723) 
['/opt/xchem-fragalysis-2/maxwin/BulkDock/OUTPUTS/openbind_a71ev2a_c2_elabs_1LOUU54.sdf', '/opt/xchem-fragalysis-2/maxwin/BulkDock/OUTPUTS/openbind_a71ev2a_c2_elabs_1LSYIDY.sdf']

>  <name>  (1723) 
P585284

>  <ref_pdb>  (1723) 
A0566a

>  <subsites>  (1723) 
None

>  <HIPPO Pose ID>  (1723) 
585284

>  <ref_mols>  (1723) 
A0566a

>  <HIPPO Compound ID>  (1723) 
440207

>  <tags>  (1723) 
openbind_a71ev2a_c2_elabs,syndirella_product,openbind_a71ev2a_c2_elabs_fragonly_scored_top80percent,openbind_a71ev2a_c2_elabs_scored,BulkDock Fragalysis export,openbind_a71ev2a_c2_elabs_scored_top80percent,openbind_a71ev2a_c2_elabs_activefrags_only_scored_5.2plus,syndirella_placed

>  <smina_score_min>  (1723) 
-5.047

$$$$
P585287
     RDKit          3D

 18 19  0  0  0  0  0  0  0  0999 V2000
    9.8516   16.0919   20.0586 C   0  0  0  0  0  0  0  0  0  0  0  0
   10.9048   15.2645   20.0965 C   0  0  0  0  0  0  0  0  0  0  0  0
   11.5437   14.6300   18.6309 Cl  0  0  0  0  0  0  0  0  0  0  0  0
   11.6560   14.8822   21.3319 C   0  0  0  0  0  0  0  0  0  0  0  0
   10.8685   13.8985   22.0028 N   0  0  0  0  0  0  0  0  0  0  0  0
   10.4021   13.8212   23.4557 C   0  0  0  0  0  0  0  0  0  0  0  0
   10.5175   14.5840   24.3273 O   0  0  0  0  0  0  0  0  0  0  0  0
    9.5978   12.6047   23.7197 C   0  0  0  0  0  0  0  0  0  0  0  0
    9.9144   11.3437   23.2154 C   0  0  0  0  0  0  0  0  0  0  0  0
    9.2176   10.2107   23.6165 C   0  0  0  0  0  0  0  0  0  0  0  0
    8.1731   10.3199   24.5387 C   0  0  0  0  0  0  0  0  0  0  0  0
    7.7718   11.5891   25.0007 C   0  0  0  0  0  0  0  0  0  0  0  0
    6.7544   12.0679   25.8839 C   0  0  0  0  0  0  0  0  0  0  0  0
    5.7737   11.3202   26.6383 C   0  0  0  0  0  0  0  0  0  0  0  0
    5.7814   10.0998   26.7472 O   0  0  0  0  0  0  0  0  0  0  0  0
    6.8565   13.4449   25.9201 C   0  0  0  0  0  0  0  0  0  0  0  0
    7.9120   13.8123   25.1377 N   0  0  0  0  0  0  0  0  0  0  0  0
    8.4905   12.7002   24.5700 C   0  0  0  0  0  0  0  0  0  0  0  0
  1  2  2  0
  2  3  1  0
  2  4  1  0
  4  5  1  0
  5  6  1  0
  6  7  2  0
  6  8  1  0
  8  9  2  0
  9 10  1  0
 10 11  2  0
 11 12  1  0
 12 13  1  0
 13 14  1  0
 14 15  2  0
 13 16  2  0
 16 17  1  0
 17 18  1  0
 18  8  1  0
 18 12  2  0
M  END
>  <alias>  (1724) 
None

>  <rmsd(smina/fragmenstein)>  (1724) 
0.307

>  <smiles>  (1724) 
C=C(Cl)CNC(=O)c1cccc2c(C=O)c[nH]c12

>  <gnina_score>  (1724) 
5.255

>  <inspiration_score>  (1724) 
None

>  <energy_score>  (1724) 
-12.938157

>  <distance_score>  (1724) 
0.962277

>  <gnina_score_min>  (1724) 
5.226

>  <inchikey>  (1724) 
KDNXOFISZNINHO-UHFFFAOYSA-N

>  <exports>  (1724) 
['/opt/xchem-fragalysis-2/maxwin/BulkDock/OUTPUTS/openbind_a71ev2a_c2_elabs_1LOUU54.sdf', '/opt/xchem-fragalysis-2/maxwin/BulkDock/OUTPUTS/openbind_a71ev2a_c2_elabs_1LSYIDY.sdf']

>  <name>  (1724) 
P585287

>  <ref_pdb>  (1724) 
A0566a

>  <subsites>  (1724) 
None

>  <HIPPO Pose ID>  (1724) 
585287

>  <ref_mols>  (1724) 
A0566a

>  <HIPPO Compound ID>  (1724) 
440223

>  <tags>  (1724) 
openbind_a71ev2a_c2_elabs,syndirella_product,openbind_a71ev2a_c2_elabs_fragonly_scored_top80percent,openbind_a71ev2a_c2_elabs_scored,BulkDock Fragalysis export,openbind_a71ev2a_c2_elabs_scored_top80percent,openbind_a71ev2a_c2_elabs_activefrags_only_scored_5.2plus,syndirella_placed

>  <smina_score_min>  (1724) 
-6.541

$$$$
P585292
     RDKit          3D

 18 19  0  0  0  0  0  0  0  0999 V2000
   12.7704   15.1997   21.8451 C   0  0  0  0  0  0  0  0  0  0  0  0
   11.7267   14.9104   20.7895 C   0  0  0  0  0  0  0  0  0  0  0  0
   10.4476   15.2628   21.3889 N   0  0  0  0  0  0  0  0  0  0  0  0
    9.4952   15.8295   20.4533 C   0  0  0  0  0  0  0  0  0  0  0  0
    9.9633   14.1939   22.0761 N   0  0  0  0  0  0  0  0  0  0  0  0
    9.8289   13.9571   23.5880 C   0  0  0  0  0  0  0  0  0  0  0  0
   10.0397   14.6694   24.4867 O   0  0  0  0  0  0  0  0  0  0  0  0
    9.2568   12.6326   23.8499 C   0  0  0  0  0  0  0  0  0  0  0  0
    9.7687   11.4646   23.2829 C   0  0  0  0  0  0  0  0  0  0  0  0
    9.2297   10.2314   23.6251 C   0  0  0  0  0  0  0  0  0  0  0  0
    8.1855   10.1538   24.5589 C   0  0  0  0  0  0  0  0  0  0  0  0
    7.6385   11.3268   25.1206 C   0  0  0  0  0  0  0  0  0  0  0  0
    6.6268   11.6311   26.0757 C   0  0  0  0  0  0  0  0  0  0  0  0
    5.8294   10.7330   26.8465 C   0  0  0  0  0  0  0  0  0  0  0  0
    5.1928   10.0434   27.5285 N   0  0  0  0  0  0  0  0  0  0  0  0
    6.5545   13.0020   26.2031 C   0  0  0  0  0  0  0  0  0  0  0  0
    7.4991   13.5475   25.3841 N   0  0  0  0  0  0  0  0  0  0  0  0
    8.1856   12.5453   24.7359 C   0  0  0  0  0  0  0  0  0  0  0  0
  1  2  1  0
  2  3  1  0
  3  4  1  0
  3  5  1  0
  5  6  1  0
  6  7  2  0
  6  8  1  0
  8  9  2  0
  9 10  1  0
 10 11  2  0
 11 12  1  0
 12 13  1  0
 13 14  1  0
 14 15  3  0
 13 16  2  0
 16 17  1  0
 17 18  1  0
 18  8  1  0
 18 12  2  0
M  END
>  <alias>  (1725) 
None

>  <rmsd(smina/fragmenstein)>  (1725) 
0.297

>  <smiles>  (1725) 
CCN(C)NC(=O)c1cccc2c(C#N)c[nH]c12

>  <gnina_score>  (1725) 
5.427

>  <inspiration_score>  (1725) 
None

>  <energy_score>  (1725) 
-1.188629

>  <distance_score>  (1725) 
1.276188

>  <gnina_score_min>  (1725) 
5.404

>  <inchikey>  (1725) 
ZAJHEPFMEBOLBC-UHFFFAOYSA-N

>  <exports>  (1725) 
['/opt/xchem-fragalysis-2/maxwin/BulkDock/OUTPUTS/openbind_a71ev2a_c2_elabs_1LOUU54.sdf', '/opt/xchem-fragalysis-2/maxwin/BulkDock/OUTPUTS/openbind_a71ev2a_c2_elabs_1LSYIDY.sdf']

>  <name>  (1725) 
P585292

>  <ref_pdb>  (1725) 
A0566a

>  <subsites>  (1725) 
None

>  <HIPPO Pose ID>  (1725) 
585292

>  <ref_mols>  (1725) 
A0566a

>  <HIPPO Compound ID>  (1725) 
440229

>  <tags>  (1725) 
openbind_a71ev2a_c2_elabs,syndirella_product,openbind_a71ev2a_c2_elabs_fragonly_scored_top80percent,openbind_a71ev2a_c2_elabs_scored,BulkDock Fragalysis export,openbind_a71ev2a_c2_elabs_scored_top80percent,openbind_a71ev2a_c2_elabs_activefrags_only_scored_5.2plus,syndirella_placed

>  <smina_score_min>  (1725) 
-6.155

$$$$
P585293
     RDKit          3D

 18 19  0  0  0  0  0  0  0  0999 V2000
    9.4912   17.1000   18.7097 C   0  0  0  0  0  0  0  0  0  0  0  0
    9.5853   16.2387   20.2942 S   0  0  0  0  0  0  0  0  0  0  0  0
   10.9683   15.1118   19.9187 C   0  0  0  0  0  0  0  0  0  0  0  0
   11.6657   14.7160   21.2188 C   0  0  0  0  0  0  0  0  0  0  0  0
   10.8522   13.7656   21.9285 N   0  0  0  0  0  0  0  0  0  0  0  0
   10.3759   13.7530   23.3873 C   0  0  0  0  0  0  0  0  0  0  0  0
   10.5009   14.5483   24.2301 O   0  0  0  0  0  0  0  0  0  0  0  0
    9.5895   12.5254   23.6891 C   0  0  0  0  0  0  0  0  0  0  0  0
    9.9352   11.2705   23.1803 C   0  0  0  0  0  0  0  0  0  0  0  0
    9.2768   10.1124   23.5642 C   0  0  0  0  0  0  0  0  0  0  0  0
    8.2358   10.1828   24.4862 C   0  0  0  0  0  0  0  0  0  0  0  0
    7.8102   11.4333   24.9745 C   0  0  0  0  0  0  0  0  0  0  0  0
    6.7864   11.8524   25.8789 C   0  0  0  0  0  0  0  0  0  0  0  0
    5.8362   11.0230   26.5958 C   0  0  0  0  0  0  0  0  0  0  0  0
    5.0032   11.4495   27.3903 O   0  0  0  0  0  0  0  0  0  0  0  0
    6.8614   13.2292   25.9594 C   0  0  0  0  0  0  0  0  0  0  0  0
    7.8855   13.6547   25.1608 N   0  0  0  0  0  0  0  0  0  0  0  0
    8.4948   12.5762   24.5603 C   0  0  0  0  0  0  0  0  0  0  0  0
  1  2  1  0
  2  3  1  0
  3  4  1  0
  4  5  1  0
  5  6  1  0
  6  7  2  0
  6  8  1  0
  8  9  2  0
  9 10  1  0
 10 11  2  0
 11 12  1  0
 12 13  1  0
 13 14  1  0
 14 15  2  0
 13 16  2  0
 16 17  1  0
 17 18  1  0
 18  8  1  0
 18 12  2  0
M  END
>  <alias>  (1726) 
None

>  <rmsd(smina/fragmenstein)>  (1726) 
0.528

>  <smiles>  (1726) 
CSCCNC(=O)c1cccc2c(C=O)c[nH]c12

>  <gnina_score>  (1726) 
5.315

>  <inspiration_score>  (1726) 
None

>  <energy_score>  (1726) 
-14.93398

>  <distance_score>  (1726) 
0.962021

>  <gnina_score_min>  (1726) 
5.308

>  <inchikey>  (1726) 
UETZFAVXWBGJOU-UHFFFAOYSA-N

>  <exports>  (1726) 
['/opt/xchem-fragalysis-2/maxwin/BulkDock/OUTPUTS/openbind_a71ev2a_c2_elabs_1LOUU54.sdf', '/opt/xchem-fragalysis-2/maxwin/BulkDock/OUTPUTS/openbind_a71ev2a_c2_elabs_1LSYIDY.sdf']

>  <name>  (1726) 
P585293

>  <ref_pdb>  (1726) 
A0566a

>  <subsites>  (1726) 
None

>  <HIPPO Pose ID>  (1726) 
585293

>  <ref_mols>  (1726) 
A0566a

>  <HIPPO Compound ID>  (1726) 
440234

>  <tags>  (1726) 
openbind_a71ev2a_c2_elabs,syndirella_product,openbind_a71ev2a_c2_elabs_fragonly_scored_top80percent,openbind_a71ev2a_c2_elabs_scored,BulkDock Fragalysis export,openbind_a71ev2a_c2_elabs_scored_top80percent,openbind_a71ev2a_c2_elabs_activefrags_only_scored_5.2plus,syndirella_placed

>  <smina_score_min>  (1726) 
-5.699

$$$$
P585296
     RDKit          3D

 18 19  0  0  0  0  0  0  0  0999 V2000
   12.2334   14.5073   20.5754 C   0  0  0  0  0  0  0  0  0  0  0  0
   11.0981   15.1001   21.3803 C   0  0  1  0  0  0  0  0  0  0  0  0
   10.1674   15.9033   20.5722 C   0  0  0  0  0  0  0  0  0  0  0  0
    9.4215   16.5664   19.9816 N   0  0  0  0  0  0  0  0  0  0  0  0
   10.3964   14.0461   22.0557 N   0  0  0  0  0  0  0  0  0  0  0  0
   10.0613   13.8652   23.5342 C   0  0  0  0  0  0  0  0  0  0  0  0
   10.2308   14.5763   24.4385 O   0  0  0  0  0  0  0  0  0  0  0  0
    9.3998   12.5700   23.7778 C   0  0  0  0  0  0  0  0  0  0  0  0
    9.8726   11.3798   23.2201 C   0  0  0  0  0  0  0  0  0  0  0  0
    9.3030   10.1600   23.5530 C   0  0  0  0  0  0  0  0  0  0  0  0
    8.2528   10.1120   24.4734 C   0  0  0  0  0  0  0  0  0  0  0  0
    7.7301   11.2988   25.0259 C   0  0  0  0  0  0  0  0  0  0  0  0
    6.6924   11.6044   25.9601 C   0  0  0  0  0  0  0  0  0  0  0  0
    5.8143   10.6877   26.6612 C   0  0  0  0  0  0  0  0  0  0  0  0
    4.9811   11.0311   27.4945 O   0  0  0  0  0  0  0  0  0  0  0  0
    6.6662   12.9785   26.0999 C   0  0  0  0  0  0  0  0  0  0  0  0
    7.6384   13.5126   25.3050 N   0  0  0  0  0  0  0  0  0  0  0  0
    8.3152   12.5060   24.6549 C   0  0  0  0  0  0  0  0  0  0  0  0
  2  1  1  6
  2  3  1  0
  3  4  3  0
  2  5  1  0
  5  6  1  0
  6  7  2  0
  6  8  1  0
  8  9  2  0
  9 10  1  0
 10 11  2  0
 11 12  1  0
 12 13  1  0
 13 14  1  0
 14 15  2  0
 13 16  2  0
 16 17  1  0
 17 18  1  0
 18  8  1  0
 18 12  2  0
M  END
>  <alias>  (1727) 
None

>  <rmsd(smina/fragmenstein)>  (1727) 
0.729

>  <smiles>  (1727) 
C[C@@H](C#N)NC(=O)c1cccc2c(C=O)c[nH]c12

>  <gnina_score>  (1727) 
5.18

>  <inspiration_score>  (1727) 
None

>  <energy_score>  (1727) 
-3.687597

>  <distance_score>  (1727) 
1.07619

>  <gnina_score_min>  (1727) 
5.223

>  <inchikey>  (1727) 
CMTWZFBWLPYZMW-QMMMGPOBSA-N

>  <exports>  (1727) 
['/opt/xchem-fragalysis-2/maxwin/BulkDock/OUTPUTS/openbind_a71ev2a_c2_elabs_1LOUU54.sdf', '/opt/xchem-fragalysis-2/maxwin/BulkDock/OUTPUTS/openbind_a71ev2a_c2_elabs_1LSYIDY.sdf']

>  <name>  (1727) 
P585296

>  <ref_pdb>  (1727) 
A0566a

>  <subsites>  (1727) 
None

>  <HIPPO Pose ID>  (1727) 
585296

>  <ref_mols>  (1727) 
A0566a

>  <HIPPO Compound ID>  (1727) 
440237

>  <tags>  (1727) 
openbind_a71ev2a_c2_elabs,syndirella_product,openbind_a71ev2a_c2_elabs_fragonly_scored_top80percent,openbind_a71ev2a_c2_elabs_scored,BulkDock Fragalysis export,openbind_a71ev2a_c2_elabs_scored_top80percent,openbind_a71ev2a_c2_elabs_activefrags_only_scored_5.2plus,syndirella_placed

>  <smina_score_min>  (1727) 
-5.94

$$$$
P585305
     RDKit          3D

 18 19  0  0  0  0  0  0  0  0999 V2000
    9.6122   16.5239   20.2922 C   0  0  0  0  0  0  0  0  0  0  0  0
   10.4254   15.7109   20.6408 C   0  0  0  0  0  0  0  0  0  0  0  0
   11.3947   14.7047   21.0926 C   0  0  1  0  0  0  0  0  0  0  0  0
   12.5182   15.2689   21.9364 C   0  0  0  0  0  0  0  0  0  0  0  0
   10.6633   13.7371   21.8460 N   0  0  0  0  0  0  0  0  0  0  0  0
   10.1881   13.7608   23.3009 C   0  0  0  0  0  0  0  0  0  0  0  0
   10.2479   14.6046   24.1015 O   0  0  0  0  0  0  0  0  0  0  0  0
    9.4601   12.5276   23.6710 C   0  0  0  0  0  0  0  0  0  0  0  0
    9.8194   11.2528   23.2343 C   0  0  0  0  0  0  0  0  0  0  0  0
    9.1548   10.1253   23.6952 C   0  0  0  0  0  0  0  0  0  0  0  0
    8.1127   10.2501   24.6198 C   0  0  0  0  0  0  0  0  0  0  0  0
    7.6950   11.5268   25.0443 C   0  0  0  0  0  0  0  0  0  0  0  0
    6.6866   12.0218   25.9294 C   0  0  0  0  0  0  0  0  0  0  0  0
    5.7339   11.2889   26.7329 C   0  0  0  0  0  0  0  0  0  0  0  0
    5.7551   10.0726   26.8792 O   0  0  0  0  0  0  0  0  0  0  0  0
    6.7635   13.4010   25.9103 C   0  0  0  0  0  0  0  0  0  0  0  0
    7.7871   13.7563   25.0828 N   0  0  0  0  0  0  0  0  0  0  0  0
    8.3763   12.6328   24.5494 C   0  0  0  0  0  0  0  0  0  0  0  0
  1  2  3  0
  2  3  1  0
  3  4  1  1
  3  5  1  0
  5  6  1  0
  6  7  2  0
  6  8  1  0
  8  9  2  0
  9 10  1  0
 10 11  2  0
 11 12  1  0
 12 13  1  0
 13 14  1  0
 14 15  2  0
 13 16  2  0
 16 17  1  0
 17 18  1  0
 18  8  1  0
 18 12  2  0
M  END
>  <alias>  (1728) 
None

>  <rmsd(smina/fragmenstein)>  (1728) 
0.333

>  <smiles>  (1728) 
C#C[C@@H](C)NC(=O)c1cccc2c(C=O)c[nH]c12

>  <gnina_score>  (1728) 
5.24

>  <inspiration_score>  (1728) 
None

>  <energy_score>  (1728) 
-12.175843

>  <distance_score>  (1728) 
1.124046

>  <gnina_score_min>  (1728) 
5.233

>  <inchikey>  (1728) 
LEEQJBKTWQOQHX-SECBINFHSA-N

>  <exports>  (1728) 
['/opt/xchem-fragalysis-2/maxwin/BulkDock/OUTPUTS/openbind_a71ev2a_c2_elabs_1LOUU54.sdf', '/opt/xchem-fragalysis-2/maxwin/BulkDock/OUTPUTS/openbind_a71ev2a_c2_elabs_1LSYIDY.sdf']

>  <name>  (1728) 
P585305

>  <ref_pdb>  (1728) 
A0566a

>  <subsites>  (1728) 
None

>  <HIPPO Pose ID>  (1728) 
585305

>  <ref_mols>  (1728) 
A0566a

>  <HIPPO Compound ID>  (1728) 
440249

>  <tags>  (1728) 
openbind_a71ev2a_c2_elabs,syndirella_product,openbind_a71ev2a_c2_elabs_fragonly_scored_top80percent,openbind_a71ev2a_c2_elabs_scored,BulkDock Fragalysis export,openbind_a71ev2a_c2_elabs_scored_top80percent,openbind_a71ev2a_c2_elabs_activefrags_only_scored_5.2plus,syndirella_placed

>  <smina_score_min>  (1728) 
-6.721

$$$$
P585307
     RDKit          3D

 18 19  0  0  0  0  0  0  0  0999 V2000
    9.8978   15.9825   20.5779 C   0  0  0  0  0  0  0  0  0  0  0  0
   10.6101   14.6464   20.5785 C   0  0  1  0  0  0  0  0  0  0  0  0
   12.1189   14.6651   20.6952 C   0  0  0  0  0  0  0  0  0  0  0  0
   12.6588   15.2256   22.2756 Cl  0  0  0  0  0  0  0  0  0  0  0  0
   10.1052   13.6952   21.5291 N   0  0  0  0  0  0  0  0  0  0  0  0
    9.6652   13.8790   22.9819 C   0  0  0  0  0  0  0  0  0  0  0  0
    9.5667   14.8436   23.6238 O   0  0  0  0  0  0  0  0  0  0  0  0
    9.2152   12.5994   23.5833 C   0  0  0  0  0  0  0  0  0  0  0  0
    9.7222   11.3405   23.2483 C   0  0  0  0  0  0  0  0  0  0  0  0
    9.1637   10.1830   23.7752 C   0  0  0  0  0  0  0  0  0  0  0  0
    8.1147   10.2631   24.6982 C   0  0  0  0  0  0  0  0  0  0  0  0
    7.6158   11.5197   25.0952 C   0  0  0  0  0  0  0  0  0  0  0  0
    6.6000   11.9732   25.9951 C   0  0  0  0  0  0  0  0  0  0  0  0
    5.7345   11.2089   26.8650 C   0  0  0  0  0  0  0  0  0  0  0  0
    5.8508   10.0055   27.0606 O   0  0  0  0  0  0  0  0  0  0  0  0
    6.5610   13.3515   25.9118 C   0  0  0  0  0  0  0  0  0  0  0  0
    7.5055   13.7474   25.0134 N   0  0  0  0  0  0  0  0  0  0  0  0
    8.1766   12.6522   24.5186 C   0  0  0  0  0  0  0  0  0  0  0  0
  2  1  1  1
  2  3  1  0
  3  4  1  0
  2  5  1  0
  5  6  1  0
  6  7  2  0
  6  8  1  0
  8  9  2  0
  9 10  1  0
 10 11  2  0
 11 12  1  0
 12 13  1  0
 13 14  1  0
 14 15  2  0
 13 16  2  0
 16 17  1  0
 17 18  1  0
 18  8  1  0
 18 12  2  0
M  END
>  <alias>  (1729) 
None

>  <rmsd(smina/fragmenstein)>  (1729) 
0.369

>  <smiles>  (1729) 
C[C@@H](CCl)NC(=O)c1cccc2c(C=O)c[nH]c12

>  <gnina_score>  (1729) 
5.246

>  <inspiration_score>  (1729) 
None

>  <energy_score>  (1729) 
-0.352573

>  <distance_score>  (1729) 
1.497904

>  <gnina_score_min>  (1729) 
5.257

>  <inchikey>  (1729) 
UYDCZQICSMJQEH-QMMMGPOBSA-N

>  <exports>  (1729) 
['/opt/xchem-fragalysis-2/maxwin/BulkDock/OUTPUTS/openbind_a71ev2a_c2_elabs_1LOUU54.sdf', '/opt/xchem-fragalysis-2/maxwin/BulkDock/OUTPUTS/openbind_a71ev2a_c2_elabs_1LSYIDY.sdf']

>  <name>  (1729) 
P585307

>  <ref_pdb>  (1729) 
A0566a

>  <subsites>  (1729) 
None

>  <HIPPO Pose ID>  (1729) 
585307

>  <ref_mols>  (1729) 
A0566a

>  <HIPPO Compound ID>  (1729) 
440254

>  <tags>  (1729) 
openbind_a71ev2a_c2_elabs,syndirella_product,openbind_a71ev2a_c2_elabs_fragonly_scored_top80percent,openbind_a71ev2a_c2_elabs_scored,BulkDock Fragalysis export,openbind_a71ev2a_c2_elabs_scored_top80percent,openbind_a71ev2a_c2_elabs_activefrags_only_scored_5.2plus,syndirella_placed

>  <smina_score_min>  (1729) 
-5.873

$$$$
P585315
     RDKit          3D

 19 20  0  0  0  0  0  0  0  0999 V2000
   10.4544   15.6510   19.1786 C   0  0  0  0  0  0  0  0  0  0  0  0
   11.1089   15.1135   20.0299 C   0  0  0  0  0  0  0  0  0  0  0  0
   11.8994   14.4261   21.0536 C   0  0  1  0  0  0  0  0  0  0  0  0
   12.7488   15.3456   21.8892 C   0  0  0  0  0  0  0  0  0  0  0  0
   10.9806   13.6744   21.8466 N   0  0  0  0  0  0  0  0  0  0  0  0
   10.6157   13.7935   23.3258 C   0  0  0  0  0  0  0  0  0  0  0  0
   10.9464   14.5727   24.1248 O   0  0  0  0  0  0  0  0  0  0  0  0
    9.6253   12.7734   23.7099 C   0  0  0  0  0  0  0  0  0  0  0  0
    9.7633   11.4305   23.3624 C   0  0  0  0  0  0  0  0  0  0  0  0
    8.9056   10.4798   23.8929 C   0  0  0  0  0  0  0  0  0  0  0  0
    7.8749   10.8540   24.7755 C   0  0  0  0  0  0  0  0  0  0  0  0
    7.0517    9.8202   25.4549 C   0  0  0  0  0  0  0  0  0  0  0  0
    7.6553   12.2200   25.0439 C   0  0  0  0  0  0  0  0  0  0  0  0
    6.7113   12.9524   25.8259 C   0  0  0  0  0  0  0  0  0  0  0  0
    5.6219   12.4515   26.6059 C   0  0  0  0  0  0  0  0  0  0  0  0
    4.7715   12.0300   27.2758 N   0  0  0  0  0  0  0  0  0  0  0  0
    7.0358   14.2862   25.7313 C   0  0  0  0  0  0  0  0  0  0  0  0
    8.1415   14.3900   24.9373 N   0  0  0  0  0  0  0  0  0  0  0  0
    8.5430   13.1455   24.5112 C   0  0  0  0  0  0  0  0  0  0  0  0
  1  2  3  0
  2  3  1  0
  3  4  1  1
  3  5  1  0
  5  6  1  0
  6  7  2  0
  6  8  1  0
  8  9  2  0
  9 10  1  0
 10 11  2  0
 11 12  1  0
 11 13  1  0
 13 14  1  0
 14 15  1  0
 15 16  3  0
 14 17  2  0
 17 18  1  0
 18 19  1  0
 19  8  1  0
 19 13  2  0
M  END
>  <alias>  (1730) 
None

>  <rmsd(smina/fragmenstein)>  (1730) 
0.902

>  <smiles>  (1730) 
C#C[C@@H](C)NC(=O)c1ccc(C)c2c(C#N)c[nH]c12

>  <gnina_score>  (1730) 
5.259

>  <inspiration_score>  (1730) 
None

>  <energy_score>  (1730) 
-6.069241

>  <distance_score>  (1730) 
1.226992

>  <gnina_score_min>  (1730) 
5.228

>  <inchikey>  (1730) 
SJFXOLPTVIRILG-SNVBAGLBSA-N

>  <exports>  (1730) 
['/opt/xchem-fragalysis-2/maxwin/BulkDock/OUTPUTS/openbind_a71ev2a_c2_elabs_1LOUU54.sdf', '/opt/xchem-fragalysis-2/maxwin/BulkDock/OUTPUTS/openbind_a71ev2a_c2_elabs_1LSYIDY.sdf']

>  <name>  (1730) 
P585315

>  <ref_pdb>  (1730) 
A0566a

>  <subsites>  (1730) 
None

>  <HIPPO Pose ID>  (1730) 
585315

>  <ref_mols>  (1730) 
A0566a

>  <HIPPO Compound ID>  (1730) 
440286

>  <tags>  (1730) 
openbind_a71ev2a_c2_elabs,syndirella_product,openbind_a71ev2a_c2_elabs_fragonly_scored_top80percent,openbind_a71ev2a_c2_elabs_scored,BulkDock Fragalysis export,openbind_a71ev2a_c2_elabs_scored_top80percent,openbind_a71ev2a_c2_elabs_activefrags_only_scored_5.2plus,syndirella_placed

>  <smina_score_min>  (1730) 
-6.683

$$$$
P585318
     RDKit          3D

 19 20  0  0  0  0  0  0  0  0999 V2000
    7.1920    9.8209   25.3640 C   0  0  0  0  0  0  0  0  0  0  0  0
    7.9533   10.9216   24.7156 C   0  0  0  0  0  0  0  0  0  0  0  0
    8.9934   10.6309   23.8097 C   0  0  0  0  0  0  0  0  0  0  0  0
    9.7998   11.6451   23.3170 C   0  0  0  0  0  0  0  0  0  0  0  0
    9.5915   12.9588   23.7284 C   0  0  0  0  0  0  0  0  0  0  0  0
   10.5345   14.0032   23.3368 C   0  0  0  0  0  0  0  0  0  0  0  0
   11.3007   14.4101   24.1088 O   0  0  0  0  0  0  0  0  0  0  0  0
   10.3206   14.3639   21.8705 N   0  0  0  0  0  0  0  0  0  0  0  0
   11.0664   15.2390   21.0034 C   0  0  1  0  0  0  0  0  0  0  0  0
   12.3038   14.4816   20.5410 C   0  0  0  0  0  0  0  0  0  0  0  0
   10.2356   15.7682   19.8306 C   0  0  0  0  0  0  0  0  0  0  0  0
    9.1908   17.1139   20.3450 Cl  0  0  0  0  0  0  0  0  0  0  0  0
    8.5106   13.2594   24.5499 C   0  0  0  0  0  0  0  0  0  0  0  0
    8.0653   14.4648   25.0352 N   0  0  0  0  0  0  0  0  0  0  0  0
    6.9697   14.2723   25.8294 C   0  0  0  0  0  0  0  0  0  0  0  0
    6.7054   12.9219   25.8672 C   0  0  0  0  0  0  0  0  0  0  0  0
    5.6474   12.3410   26.6344 C   0  0  0  0  0  0  0  0  0  0  0  0
    4.8211   11.8592   27.2936 N   0  0  0  0  0  0  0  0  0  0  0  0
    7.6723   12.2668   25.0460 C   0  0  0  0  0  0  0  0  0  0  0  0
  1  2  1  0
  2  3  2  0
  3  4  1  0
  4  5  2  0
  5  6  1  0
  6  7  2  0
  6  8  1  0
  8  9  1  0
  9 10  1  6
  9 11  1  0
 11 12  1  0
  5 13  1  0
 13 14  1  0
 14 15  1  0
 15 16  2  0
 16 17  1  0
 17 18  3  0
 16 19  1  0
 19  2  1  0
 19 13  2  0
M  END
>  <alias>  (1731) 
None

>  <rmsd(smina/fragmenstein)>  (1731) 
0.61

>  <smiles>  (1731) 
Cc1ccc(C(=O)N[C@@H](C)CCl)c2[nH]cc(C#N)c12

>  <gnina_score>  (1731) 
5.464

>  <inspiration_score>  (1731) 
None

>  <energy_score>  (1731) 
-7.483945

>  <distance_score>  (1731) 
1.212139

>  <gnina_score_min>  (1731) 
5.394

>  <inchikey>  (1731) 
BUYYXJSYWJFFPO-VIFPVBQESA-N

>  <exports>  (1731) 
['/opt/xchem-fragalysis-2/maxwin/BulkDock/OUTPUTS/openbind_a71ev2a_c2_elabs_1LOUU54.sdf', '/opt/xchem-fragalysis-2/maxwin/BulkDock/OUTPUTS/openbind_a71ev2a_c2_elabs_1LSYIDY.sdf']

>  <name>  (1731) 
P585318

>  <ref_pdb>  (1731) 
A0566a

>  <subsites>  (1731) 
None

>  <HIPPO Pose ID>  (1731) 
585318

>  <ref_mols>  (1731) 
A0566a

>  <HIPPO Compound ID>  (1731) 
440289

>  <tags>  (1731) 
openbind_a71ev2a_c2_elabs,syndirella_product,openbind_a71ev2a_c2_elabs_fragonly_scored_top80percent,openbind_a71ev2a_c2_elabs_scored,BulkDock Fragalysis export,openbind_a71ev2a_c2_elabs_scored_top80percent,openbind_a71ev2a_c2_elabs_activefrags_only_scored_5.2plus,syndirella_placed

>  <smina_score_min>  (1731) 
-6.491

$$$$
P585319
     RDKit          3D

 19 20  0  0  0  0  0  0  0  0999 V2000
    7.1265    9.7330   25.3989 C   0  0  0  0  0  0  0  0  0  0  0  0
    7.8786   10.8298   24.7418 C   0  0  0  0  0  0  0  0  0  0  0  0
    8.9202   10.5398   23.8342 C   0  0  0  0  0  0  0  0  0  0  0  0
    9.7202   11.5522   23.3297 C   0  0  0  0  0  0  0  0  0  0  0  0
    9.4990   12.8640   23.7352 C   0  0  0  0  0  0  0  0  0  0  0  0
   10.4297   13.9411   23.4112 C   0  0  0  0  0  0  0  0  0  0  0  0
   10.8000   14.6116   24.2837 O   0  0  0  0  0  0  0  0  0  0  0  0
   10.6951   14.0310   21.9155 N   0  0  0  0  0  0  0  0  0  0  0  0
   11.3984   15.0215   21.1504 C   0  0  1  0  0  0  0  0  0  0  0  0
   12.7269   15.2508   21.8328 C   0  0  0  0  0  0  0  0  0  0  0  0
   11.5395   14.6490   19.7397 C   0  0  0  0  0  0  0  0  0  0  0  0
   11.6020   14.3742   18.6144 N   0  0  0  0  0  0  0  0  0  0  0  0
    8.4198   13.1561   24.5704 C   0  0  0  0  0  0  0  0  0  0  0  0
    7.9917   14.3597   25.0815 N   0  0  0  0  0  0  0  0  0  0  0  0
    6.8996   14.1704   25.8783 C   0  0  0  0  0  0  0  0  0  0  0  0
    6.6293   12.8212   25.9060 C   0  0  0  0  0  0  0  0  0  0  0  0
    5.5794   12.2411   26.6845 C   0  0  0  0  0  0  0  0  0  0  0  0
    4.7574   11.7656   27.3533 N   0  0  0  0  0  0  0  0  0  0  0  0
    7.5883   12.1685   25.0736 C   0  0  0  0  0  0  0  0  0  0  0  0
  1  2  1  0
  2  3  2  0
  3  4  1  0
  4  5  2  0
  5  6  1  0
  6  7  2  0
  6  8  1  0
  8  9  1  0
  9 10  1  1
  9 11  1  0
 11 12  3  0
  5 13  1  0
 13 14  1  0
 14 15  1  0
 15 16  2  0
 16 17  1  0
 17 18  3  0
 16 19  1  0
 19  2  1  0
 19 13  2  0
M  END
>  <alias>  (1732) 
None

>  <rmsd(smina/fragmenstein)>  (1732) 
0.643

>  <smiles>  (1732) 
Cc1ccc(C(=O)N[C@@H](C)C#N)c2[nH]cc(C#N)c12

>  <gnina_score>  (1732) 
5.559

>  <inspiration_score>  (1732) 
None

>  <energy_score>  (1732) 
-5.886539

>  <distance_score>  (1732) 
1.214939

>  <gnina_score_min>  (1732) 
5.559

>  <inchikey>  (1732) 
MKYXTYVDVQUNAC-VIFPVBQESA-N

>  <exports>  (1732) 
['/opt/xchem-fragalysis-2/maxwin/BulkDock/OUTPUTS/openbind_a71ev2a_c2_elabs_1LOUU54.sdf', '/opt/xchem-fragalysis-2/maxwin/BulkDock/OUTPUTS/openbind_a71ev2a_c2_elabs_1LSYIDY.sdf']

>  <name>  (1732) 
P585319

>  <ref_pdb>  (1732) 
A0566a

>  <subsites>  (1732) 
None

>  <HIPPO Pose ID>  (1732) 
585319

>  <ref_mols>  (1732) 
A0566a

>  <HIPPO Compound ID>  (1732) 
440295

>  <tags>  (1732) 
openbind_a71ev2a_c2_elabs,syndirella_product,openbind_a71ev2a_c2_elabs_fragonly_scored_top80percent,BulkDock Fragalysis export,openbind_a71ev2a_c2_elabs_scored,openbind_a71ev2a_c2_elabs_scored_top80percent,openbind_a71ev2a_c2_elabs_activefrags_only_scored_5.2plus,openbind_a71ev2a_c2_elabs_activefrags_only_scored_5.5plus,syndirella_placed

>  <smina_score_min>  (1732) 
-6.526

$$$$
P585325
     RDKit          3D

 19 20  0  0  0  0  0  0  0  0999 V2000
    7.2301    9.7179   25.2965 C   0  0  0  0  0  0  0  0  0  0  0  0
    7.9205   10.8959   24.7156 C   0  0  0  0  0  0  0  0  0  0  0  0
    8.9932   10.7306   23.8113 C   0  0  0  0  0  0  0  0  0  0  0  0
    9.8005   11.8080   23.4717 C   0  0  0  0  0  0  0  0  0  0  0  0
    9.5474   13.0499   24.0478 C   0  0  0  0  0  0  0  0  0  0  0  0
   10.5195   14.1407   24.0024 C   0  0  0  0  0  0  0  0  0  0  0  0
   10.9395   14.5645   24.9982 O   0  0  0  0  0  0  0  0  0  0  0  0
   10.7319   14.5969   22.5700 N   0  0  0  0  0  0  0  0  0  0  0  0
   11.5752   15.6086   22.0384 C   0  0  0  0  0  0  0  0  0  0  0  0
   12.7980   15.0410   21.4052 C   0  0  0  0  0  0  0  0  0  0  0  0
   12.5565   14.2588   20.1407 C   0  0  0  0  0  0  0  0  0  0  0  0
   11.2335   14.8272   19.1128 Cl  0  0  0  0  0  0  0  0  0  0  0  0
    8.3924   13.2427   24.8024 C   0  0  0  0  0  0  0  0  0  0  0  0
    7.8889   14.3825   25.3827 N   0  0  0  0  0  0  0  0  0  0  0  0
    6.7773   14.0842   26.1146 C   0  0  0  0  0  0  0  0  0  0  0  0
    6.5648   12.7278   26.0208 C   0  0  0  0  0  0  0  0  0  0  0  0
    5.5351   12.0470   26.7413 C   0  0  0  0  0  0  0  0  0  0  0  0
    4.7338   11.5009   27.3804 N   0  0  0  0  0  0  0  0  0  0  0  0
    7.5637   12.1885   25.1541 C   0  0  0  0  0  0  0  0  0  0  0  0
  1  2  1  0
  2  3  2  0
  3  4  1  0
  4  5  2  0
  5  6  1  0
  6  7  2  0
  6  8  1  0
  8  9  1  0
  9 10  1  0
 10 11  1  0
 11 12  1  0
  5 13  1  0
 13 14  1  0
 14 15  1  0
 15 16  2  0
 16 17  1  0
 17 18  3  0
 16 19  1  0
 19  2  1  0
 19 13  2  0
M  END
>  <alias>  (1733) 
None

>  <rmsd(smina/fragmenstein)>  (1733) 
1.463

>  <smiles>  (1733) 
Cc1ccc(C(=O)NCCCCl)c2[nH]cc(C#N)c12

>  <gnina_score>  (1733) 
4.828

>  <inspiration_score>  (1733) 
None

>  <energy_score>  (1733) 
-4.287135

>  <distance_score>  (1733) 
1.16737

>  <gnina_score_min>  (1733) 
5.465

>  <inchikey>  (1733) 
PSQTTZLKBVISQW-UHFFFAOYSA-N

>  <exports>  (1733) 
['/opt/xchem-fragalysis-2/maxwin/BulkDock/OUTPUTS/openbind_a71ev2a_c2_elabs_1LOUU54.sdf', '/opt/xchem-fragalysis-2/maxwin/BulkDock/OUTPUTS/openbind_a71ev2a_c2_elabs_1LSYIDY.sdf']

>  <name>  (1733) 
P585325

>  <ref_pdb>  (1733) 
A0566a

>  <subsites>  (1733) 
None

>  <HIPPO Pose ID>  (1733) 
585325

>  <ref_mols>  (1733) 
A0566a

>  <HIPPO Compound ID>  (1733) 
440309

>  <tags>  (1733) 
openbind_a71ev2a_c2_elabs,syndirella_product,openbind_a71ev2a_c2_elabs_fragonly_scored_top80percent,openbind_a71ev2a_c2_elabs_scored,BulkDock Fragalysis export,openbind_a71ev2a_c2_elabs_scored_top80percent,openbind_a71ev2a_c2_elabs_activefrags_only_scored_5.2plus,syndirella_placed

>  <smina_score_min>  (1733) 
-6.389

$$$$
P585328
     RDKit          3D

 19 21  0  0  0  0  0  0  0  0999 V2000
   10.6516   14.6240   23.8855 O   0  0  0  0  0  0  0  0  0  0  0  0
    9.8856   14.0616   23.2135 C   0  0  0  0  0  0  0  0  0  0  0  0
    9.3691   14.3875   21.8041 N   0  0  0  0  0  0  0  0  0  0  0  0
    9.7575   15.4269   20.8794 C   0  0  0  0  0  0  0  0  0  0  0  0
   10.8817   14.9905   19.9490 C   0  0  0  0  0  0  0  0  0  0  0  0
   12.3675   14.5796   20.8873 S   0  0  0  0  0  0  0  0  0  0  0  0
    9.3296   12.7804   23.6624 C   0  0  0  0  0  0  0  0  0  0  0  0
    9.8410   11.5805   23.1651 C   0  0  0  0  0  0  0  0  0  0  0  0
    9.3088   10.3625   23.5684 C   0  0  0  0  0  0  0  0  0  0  0  0
    8.2801   10.3307   24.5167 C   0  0  0  0  0  0  0  0  0  0  0  0
    7.7701   11.5321   25.0505 C   0  0  0  0  0  0  0  0  0  0  0  0
    6.7931   11.8606   26.0304 C   0  0  0  0  0  0  0  0  0  0  0  0
    6.7254   13.2371   26.1011 C   0  0  0  0  0  0  0  0  0  0  0  0
    7.6235   13.7631   25.2214 N   0  0  0  0  0  0  0  0  0  0  0  0
    8.2981   12.7415   24.5944 C   0  0  0  0  0  0  0  0  0  0  0  0
    5.8481   14.0395   26.9969 C   0  0  0  0  0  0  0  0  0  0  0  0
    4.7624   13.1372   27.6094 C   0  0  0  0  0  0  0  0  0  0  0  0
    5.3240   11.7749   28.0558 C   0  0  0  0  0  0  0  0  0  0  0  0
    5.9326   10.9897   26.8795 C   0  0  0  0  0  0  0  0  0  0  0  0
  1  2  2  0
  2  3  1  0
  3  4  1  0
  4  5  1  0
  5  6  1  0
  2  7  1  0
  7  8  2  0
  8  9  1  0
  9 10  2  0
 10 11  1  0
 11 12  1  0
 12 13  2  0
 13 14  1  0
 14 15  1  0
 13 16  1  0
 16 17  1  0
 17 18  1  0
 18 19  1  0
 15  7  1  0
 15 11  2  0
 19 12  1  0
M  END
>  <alias>  (1734) 
None

>  <rmsd(smina/fragmenstein)>  (1734) 
0.645

>  <smiles>  (1734) 
O=C(NCCS)c1cccc2c3c([nH]c12)CCCC3

>  <gnina_score>  (1734) 
5.368

>  <inspiration_score>  (1734) 
None

>  <energy_score>  (1734) 
-17.881301

>  <distance_score>  (1734) 
1.351895

>  <gnina_score_min>  (1734) 
5.366

>  <inchikey>  (1734) 
RVKQXCHIFOFUEY-UHFFFAOYSA-N

>  <exports>  (1734) 
['/opt/xchem-fragalysis-2/maxwin/BulkDock/OUTPUTS/openbind_a71ev2a_c2_elabs_1LOUU54.sdf', '/opt/xchem-fragalysis-2/maxwin/BulkDock/OUTPUTS/openbind_a71ev2a_c2_elabs_1LSYIDY.sdf']

>  <name>  (1734) 
P585328

>  <ref_pdb>  (1734) 
A0566a

>  <subsites>  (1734) 
None

>  <HIPPO Pose ID>  (1734) 
585328

>  <ref_mols>  (1734) 
A0566a

>  <HIPPO Compound ID>  (1734) 
440315

>  <tags>  (1734) 
openbind_a71ev2a_c2_elabs,syndirella_product,openbind_a71ev2a_c2_elabs_fragonly_scored_top80percent,openbind_a71ev2a_c2_elabs_scored,BulkDock Fragalysis export,openbind_a71ev2a_c2_elabs_scored_top80percent,openbind_a71ev2a_c2_elabs_activefrags_only_scored_5.2plus,syndirella_placed

>  <smina_score_min>  (1734) 
-5.795

$$$$
P585329
     RDKit          3D

 19 20  0  0  0  0  0  0  0  0999 V2000
   11.3454   15.1667   18.2751 C   0  0  0  0  0  0  0  0  0  0  0  0
   10.2982   16.0457   18.9288 C   0  0  0  0  0  0  0  0  0  0  0  0
    9.9672   15.6385   20.3530 C   0  0  0  0  0  0  0  0  0  0  0  0
   11.1267   15.1215   21.2077 C   0  0  0  0  0  0  0  0  0  0  0  0
   10.5802   14.1370   22.0791 N   0  0  0  0  0  0  0  0  0  0  0  0
   10.6705   13.9943   23.5870 C   0  0  0  0  0  0  0  0  0  0  0  0
   11.2683   14.6105   24.3673 O   0  0  0  0  0  0  0  0  0  0  0  0
    9.7401   12.9363   23.9997 C   0  0  0  0  0  0  0  0  0  0  0  0
    9.7907   11.6272   23.5180 C   0  0  0  0  0  0  0  0  0  0  0  0
    8.8659   10.6954   23.9717 C   0  0  0  0  0  0  0  0  0  0  0  0
    7.8571   11.0972   24.8608 C   0  0  0  0  0  0  0  0  0  0  0  0
    6.7375    9.8448   25.6667 Br  0  0  0  0  0  0  0  0  0  0  0  0
    7.6968   12.4414   25.2407 C   0  0  0  0  0  0  0  0  0  0  0  0
    6.7672   13.1958   26.0437 C   0  0  0  0  0  0  0  0  0  0  0  0
    5.5352   12.7188   26.7322 C   0  0  0  0  0  0  0  0  0  0  0  0
    7.2118   14.5059   26.0534 C   0  0  0  0  0  0  0  0  0  0  0  0
    6.6459   15.7274   26.6883 C   0  0  0  0  0  0  0  0  0  0  0  0
    8.3495   14.5629   25.3037 N   0  0  0  0  0  0  0  0  0  0  0  0
    8.6684   13.3273   24.8052 C   0  0  0  0  0  0  0  0  0  0  0  0
  1  2  1  0
  2  3  1  0
  3  4  1  0
  4  5  1  0
  5  6  1  0
  6  7  2  0
  6  8  1  0
  8  9  2  0
  9 10  1  0
 10 11  2  0
 11 12  1  0
 11 13  1  0
 13 14  1  0
 14 15  1  0
 14 16  2  0
 16 17  1  0
 16 18  1  0
 18 19  1  0
 19  8  1  0
 19 13  2  0
M  END
>  <alias>  (1735) 
None

>  <rmsd(smina/fragmenstein)>  (1735) 
0.74

>  <smiles>  (1735) 
CCCCNC(=O)c1ccc(Br)c2c(C)c(C)[nH]c12

>  <gnina_score>  (1735) 
5.24

>  <inspiration_score>  (1735) 
None

>  <energy_score>  (1735) 
-6.630372

>  <distance_score>  (1735) 
1.316945

>  <gnina_score_min>  (1735) 
5.333

>  <inchikey>  (1735) 
JRFJYTVELCXKSV-UHFFFAOYSA-N

>  <exports>  (1735) 
['/opt/xchem-fragalysis-2/maxwin/BulkDock/OUTPUTS/openbind_a71ev2a_c2_elabs_1LOUU54.sdf', '/opt/xchem-fragalysis-2/maxwin/BulkDock/OUTPUTS/openbind_a71ev2a_c2_elabs_1LSYIDY.sdf']

>  <name>  (1735) 
P585329

>  <ref_pdb>  (1735) 
A0566a

>  <subsites>  (1735) 
None

>  <HIPPO Pose ID>  (1735) 
585329

>  <ref_mols>  (1735) 
A0566a

>  <HIPPO Compound ID>  (1735) 
440317

>  <tags>  (1735) 
openbind_a71ev2a_c2_elabs,syndirella_product,openbind_a71ev2a_c2_elabs_fragonly_scored_top80percent,openbind_a71ev2a_c2_elabs_scored,BulkDock Fragalysis export,openbind_a71ev2a_c2_elabs_scored_top80percent,openbind_a71ev2a_c2_elabs_activefrags_only_scored_5.2plus,syndirella_placed

>  <smina_score_min>  (1735) 
-5.983

$$$$
P585332
     RDKit          3D

 19 20  0  0  0  0  0  0  0  0999 V2000
   10.8828   15.3185   18.9071 C   0  0  0  0  0  0  0  0  0  0  0  0
   10.9551   15.3195   20.2394 C   0  0  0  0  0  0  0  0  0  0  0  0
   10.0283   16.0503   20.9045 F   0  0  0  0  0  0  0  0  0  0  0  0
   11.9848   14.5853   21.0411 C   0  0  0  0  0  0  0  0  0  0  0  0
   11.2196   13.7327   21.8892 N   0  0  0  0  0  0  0  0  0  0  0  0
   10.8916   13.8464   23.3735 C   0  0  0  0  0  0  0  0  0  0  0  0
   11.2540   14.6127   24.1697 O   0  0  0  0  0  0  0  0  0  0  0  0
    9.8700   12.8464   23.7715 C   0  0  0  0  0  0  0  0  0  0  0  0
    9.8658   11.5132   23.3549 C   0  0  0  0  0  0  0  0  0  0  0  0
    8.9275   10.6192   23.8607 C   0  0  0  0  0  0  0  0  0  0  0  0
    7.9437   11.0728   24.7478 C   0  0  0  0  0  0  0  0  0  0  0  0
    6.8143    9.8715   25.6235 Br  0  0  0  0  0  0  0  0  0  0  0  0
    7.8278   12.4332   25.0757 C   0  0  0  0  0  0  0  0  0  0  0  0
    6.9225   13.2360   25.8613 C   0  0  0  0  0  0  0  0  0  0  0  0
    5.6711   12.8134   26.5514 C   0  0  0  0  0  0  0  0  0  0  0  0
    7.4213   14.5257   25.8541 C   0  0  0  0  0  0  0  0  0  0  0  0
    6.9236   15.7802   26.4799 C   0  0  0  0  0  0  0  0  0  0  0  0
    8.5493   14.5274   25.0863 N   0  0  0  0  0  0  0  0  0  0  0  0
    8.8195   13.2764   24.5955 C   0  0  0  0  0  0  0  0  0  0  0  0
  1  2  2  0
  2  3  1  0
  2  4  1  0
  4  5  1  0
  5  6  1  0
  6  7  2  0
  6  8  1  0
  8  9  2  0
  9 10  1  0
 10 11  2  0
 11 12  1  0
 11 13  1  0
 13 14  1  0
 14 15  1  0
 14 16  2  0
 16 17  1  0
 16 18  1  0
 18 19  1  0
 19  8  1  0
 19 13  2  0
M  END
>  <alias>  (1736) 
None

>  <rmsd(smina/fragmenstein)>  (1736) 
0.798

>  <smiles>  (1736) 
C=C(F)CNC(=O)c1ccc(Br)c2c(C)c(C)[nH]c12

>  <gnina_score>  (1736) 
5.347

>  <inspiration_score>  (1736) 
None

>  <energy_score>  (1736) 
-56.582307

>  <distance_score>  (1736) 
1.250604

>  <gnina_score_min>  (1736) 
5.448

>  <inchikey>  (1736) 
UJWBISVFYRUHCL-UHFFFAOYSA-N

>  <exports>  (1736) 
['/opt/xchem-fragalysis-2/maxwin/BulkDock/OUTPUTS/openbind_a71ev2a_c2_elabs_1LOUU54.sdf', '/opt/xchem-fragalysis-2/maxwin/BulkDock/OUTPUTS/openbind_a71ev2a_c2_elabs_1LSYIDY.sdf']

>  <name>  (1736) 
P585332

>  <ref_pdb>  (1736) 
A0566a

>  <subsites>  (1736) 
None

>  <HIPPO Pose ID>  (1736) 
585332

>  <ref_mols>  (1736) 
A0566a

>  <HIPPO Compound ID>  (1736) 
440321

>  <tags>  (1736) 
openbind_a71ev2a_c2_elabs,syndirella_product,openbind_a71ev2a_c2_elabs_fragonly_scored_top80percent,openbind_a71ev2a_c2_elabs_scored,BulkDock Fragalysis export,openbind_a71ev2a_c2_elabs_scored_top80percent,openbind_a71ev2a_c2_elabs_activefrags_only_scored_5.2plus,syndirella_placed

>  <smina_score_min>  (1736) 
-6.432

$$$$
P585333
     RDKit          3D

 19 20  0  0  0  0  0  0  0  0999 V2000
    6.8000   15.7969   26.3260 C   0  0  0  0  0  0  0  0  0  0  0  0
    7.3514   14.5493   25.7312 C   0  0  0  0  0  0  0  0  0  0  0  0
    8.4547   14.5921   24.9287 N   0  0  0  0  0  0  0  0  0  0  0  0
    8.7855   13.3473   24.4646 C   0  0  0  0  0  0  0  0  0  0  0  0
    9.8365   12.9516   23.6248 C   0  0  0  0  0  0  0  0  0  0  0  0
   10.8563   13.9509   23.2094 C   0  0  0  0  0  0  0  0  0  0  0  0
   11.2278   14.7178   24.0026 O   0  0  0  0  0  0  0  0  0  0  0  0
   11.1759   13.8323   21.7187 N   0  0  0  0  0  0  0  0  0  0  0  0
   11.9470   14.6861   20.8577 C   0  0  0  0  0  0  0  0  0  0  0  0
   11.2395   14.9458   19.5169 C   0  0  0  0  0  0  0  0  0  0  0  0
    9.9631   15.6527   19.6742 N   0  0  0  0  0  0  0  0  0  0  0  0
    9.7944   16.4270   18.4429 O   0  0  0  0  0  0  0  0  0  0  0  0
    9.9002   11.6041   23.2594 C   0  0  0  0  0  0  0  0  0  0  0  0
    9.0081   10.6775   23.7888 C   0  0  0  0  0  0  0  0  0  0  0  0
    8.0154   11.1041   24.6771 C   0  0  0  0  0  0  0  0  0  0  0  0
    6.9291    9.8654   25.5548 Br  0  0  0  0  0  0  0  0  0  0  0  0
    7.8501   12.4639   24.9900 C   0  0  0  0  0  0  0  0  0  0  0  0
    6.9293   13.2344   25.7917 C   0  0  0  0  0  0  0  0  0  0  0  0
    5.7307   12.7584   26.5384 C   0  0  0  0  0  0  0  0  0  0  0  0
  1  2  1  0
  2  3  1  0
  3  4  1  0
  4  5  2  0
  5  6  1  0
  6  7  2  0
  6  8  1  0
  8  9  1  0
  9 10  1  0
 10 11  1  0
 11 12  1  0
  5 13  1  0
 13 14  2  0
 14 15  1  0
 15 16  1  0
 15 17  2  0
 17 18  1  0
 18 19  1  0
 18  2  2  0
 17  4  1  0
M  END
>  <alias>  (1737) 
None

>  <rmsd(smina/fragmenstein)>  (1737) 
0.844

>  <smiles>  (1737) 
Cc1[nH]c2c(C(=O)NCCNO)ccc(Br)c2c1C

>  <gnina_score>  (1737) 
5.562

>  <inspiration_score>  (1737) 
None

>  <energy_score>  (1737) 
-16.747848

>  <distance_score>  (1737) 
1.268359

>  <gnina_score_min>  (1737) 
5.435

>  <inchikey>  (1737) 
OWHOMUFNEAUDLH-UHFFFAOYSA-N

>  <exports>  (1737) 
['/opt/xchem-fragalysis-2/maxwin/BulkDock/OUTPUTS/openbind_a71ev2a_c2_elabs_1LOUU54.sdf', '/opt/xchem-fragalysis-2/maxwin/BulkDock/OUTPUTS/openbind_a71ev2a_c2_elabs_1LSYIDY.sdf']

>  <name>  (1737) 
P585333

>  <ref_pdb>  (1737) 
A0566a

>  <subsites>  (1737) 
None

>  <HIPPO Pose ID>  (1737) 
585333

>  <ref_mols>  (1737) 
A0566a

>  <HIPPO Compound ID>  (1737) 
440325

>  <tags>  (1737) 
openbind_a71ev2a_c2_elabs,syndirella_product,openbind_a71ev2a_c2_elabs_fragonly_scored_top80percent,openbind_a71ev2a_c2_elabs_scored,BulkDock Fragalysis export,openbind_a71ev2a_c2_elabs_scored_top80percent,openbind_a71ev2a_c2_elabs_activefrags_only_scored_5.2plus,syndirella_placed

>  <smina_score_min>  (1737) 
-6.833

$$$$
P585335
     RDKit          3D

 19 20  0  0  0  0  0  0  0  0999 V2000
   12.0087   16.0719   22.3081 C   0  0  0  0  0  0  0  0  0  0  0  0
   12.9247   15.0217   21.7858 C   0  0  0  0  0  0  0  0  0  0  0  0
   12.1787   14.0334   21.0509 N   0  0  0  0  0  0  0  0  0  0  0  0
   11.6248   14.5707   19.8018 C   0  0  0  0  0  0  0  0  0  0  0  0
   11.2093   13.3990   21.8160 N   0  0  0  0  0  0  0  0  0  0  0  0
   10.9847   13.3881   23.3488 C   0  0  0  0  0  0  0  0  0  0  0  0
   11.5341   13.9737   24.2005 O   0  0  0  0  0  0  0  0  0  0  0  0
    9.8225   12.5629   23.7095 C   0  0  0  0  0  0  0  0  0  0  0  0
    9.7252   11.2177   23.3579 C   0  0  0  0  0  0  0  0  0  0  0  0
    8.7413   10.4274   23.9349 C   0  0  0  0  0  0  0  0  0  0  0  0
    7.8019   10.9964   24.8050 C   0  0  0  0  0  0  0  0  0  0  0  0
    6.6221    9.9251   25.7860 Br  0  0  0  0  0  0  0  0  0  0  0  0
    7.7834   12.3778   25.0524 C   0  0  0  0  0  0  0  0  0  0  0  0
    6.9477   13.2811   25.7989 C   0  0  0  0  0  0  0  0  0  0  0  0
    5.6565   12.9933   26.4869 C   0  0  0  0  0  0  0  0  0  0  0  0
    7.5729   14.5140   25.7762 C   0  0  0  0  0  0  0  0  0  0  0  0
    7.2007   15.8070   26.4082 C   0  0  0  0  0  0  0  0  0  0  0  0
    8.6955   14.3964   25.0068 N   0  0  0  0  0  0  0  0  0  0  0  0
    8.8310   13.1201   24.5267 C   0  0  0  0  0  0  0  0  0  0  0  0
  1  2  1  0
  2  3  1  0
  3  4  1  0
  3  5  1  0
  5  6  1  0
  6  7  2  0
  6  8  1  0
  8  9  2  0
  9 10  1  0
 10 11  2  0
 11 12  1  0
 11 13  1  0
 13 14  1  0
 14 15  1  0
 14 16  2  0
 16 17  1  0
 16 18  1  0
 18 19  1  0
 19  8  1  0
 19 13  2  0
M  END
>  <alias>  (1738) 
None

>  <rmsd(smina/fragmenstein)>  (1738) 
1.456

>  <smiles>  (1738) 
CCN(C)NC(=O)c1ccc(Br)c2c(C)c(C)[nH]c12

>  <gnina_score>  (1738) 
5.484

>  <inspiration_score>  (1738) 
None

>  <energy_score>  (1738) 
-0.772164

>  <distance_score>  (1738) 
1.285001

>  <gnina_score_min>  (1738) 
5.352

>  <inchikey>  (1738) 
LILPHPHUJVSYAZ-UHFFFAOYSA-N

>  <exports>  (1738) 
['/opt/xchem-fragalysis-2/maxwin/BulkDock/OUTPUTS/openbind_a71ev2a_c2_elabs_1LOUU54.sdf', '/opt/xchem-fragalysis-2/maxwin/BulkDock/OUTPUTS/openbind_a71ev2a_c2_elabs_1LSYIDY.sdf']

>  <name>  (1738) 
P585335

>  <ref_pdb>  (1738) 
A0566a

>  <subsites>  (1738) 
None

>  <HIPPO Pose ID>  (1738) 
585335

>  <ref_mols>  (1738) 
A0566a

>  <HIPPO Compound ID>  (1738) 
440331

>  <tags>  (1738) 
openbind_a71ev2a_c2_elabs,syndirella_product,openbind_a71ev2a_c2_elabs_fragonly_scored_top80percent,openbind_a71ev2a_c2_elabs_scored,BulkDock Fragalysis export,openbind_a71ev2a_c2_elabs_scored_top80percent,openbind_a71ev2a_c2_elabs_activefrags_only_scored_5.2plus,syndirella_placed

>  <smina_score_min>  (1738) 
-5.751

$$$$
P585336
     RDKit          3D

 19 21  0  0  0  0  0  0  0  0999 V2000
    9.1483   14.8276   23.9431 O   0  0  0  0  0  0  0  0  0  0  0  0
    9.3596   13.9505   23.2055 C   0  0  0  0  0  0  0  0  0  0  0  0
   10.1318   13.9298   21.8793 N   0  0  0  0  0  0  0  0  0  0  0  0
   10.8852   14.9540   21.2275 C   0  0  0  0  0  0  0  0  0  0  0  0
   12.3565   14.6993   21.5284 C   0  0  0  0  0  0  0  0  0  0  0  0
   12.6019   14.0507   23.3824 Br  0  0  0  0  0  0  0  0  0  0  0  0
    8.9115   12.5954   23.6220 C   0  0  0  0  0  0  0  0  0  0  0  0
    9.5532   11.4079   23.2339 C   0  0  0  0  0  0  0  0  0  0  0  0
    9.1320   10.1746   23.7134 C   0  0  0  0  0  0  0  0  0  0  0  0
    8.1129   10.1068   24.6673 C   0  0  0  0  0  0  0  0  0  0  0  0
    7.5218   11.2838   25.1591 C   0  0  0  0  0  0  0  0  0  0  0  0
    6.5597   11.5863   26.1657 C   0  0  0  0  0  0  0  0  0  0  0  0
    6.3916   12.9552   26.1751 C   0  0  0  0  0  0  0  0  0  0  0  0
    7.2015   13.4947   25.2258 N   0  0  0  0  0  0  0  0  0  0  0  0
    7.9229   12.4959   24.6066 C   0  0  0  0  0  0  0  0  0  0  0  0
    5.5009   13.7411   27.0698 C   0  0  0  0  0  0  0  0  0  0  0  0
    4.4976   12.8016   27.7598 C   0  0  0  0  0  0  0  0  0  0  0  0
    5.1610   11.5019   28.2473 C   0  0  0  0  0  0  0  0  0  0  0  0
    5.8059   10.7013   27.0996 C   0  0  0  0  0  0  0  0  0  0  0  0
  1  2  2  0
  2  3  1  0
  3  4  1  0
  4  5  1  0
  5  6  1  0
  2  7  1  0
  7  8  2  0
  8  9  1  0
  9 10  2  0
 10 11  1  0
 11 12  1  0
 12 13  2  0
 13 14  1  0
 14 15  1  0
 13 16  1  0
 16 17  1  0
 17 18  1  0
 18 19  1  0
 15  7  1  0
 15 11  2  0
 19 12  1  0
M  END
>  <alias>  (1739) 
None

>  <rmsd(smina/fragmenstein)>  (1739) 
0.832

>  <smiles>  (1739) 
O=C(NCCBr)c1cccc2c3c([nH]c12)CCCC3

>  <gnina_score>  (1739) 
5.342

>  <inspiration_score>  (1739) 
None

>  <energy_score>  (1739) 
-1.617821

>  <distance_score>  (1739) 
1.525662

>  <gnina_score_min>  (1739) 
5.26

>  <inchikey>  (1739) 
ULJFWWWKQPGYTC-UHFFFAOYSA-N

>  <exports>  (1739) 
['/opt/xchem-fragalysis-2/maxwin/BulkDock/OUTPUTS/openbind_a71ev2a_c2_elabs_1LOUU54.sdf', '/opt/xchem-fragalysis-2/maxwin/BulkDock/OUTPUTS/openbind_a71ev2a_c2_elabs_1LSYIDY.sdf']

>  <name>  (1739) 
P585336

>  <ref_pdb>  (1739) 
A0566a

>  <subsites>  (1739) 
None

>  <HIPPO Pose ID>  (1739) 
585336

>  <ref_mols>  (1739) 
A0566a

>  <HIPPO Compound ID>  (1739) 
440335

>  <tags>  (1739) 
openbind_a71ev2a_c2_elabs,syndirella_product,openbind_a71ev2a_c2_elabs_fragonly_scored_top80percent,openbind_a71ev2a_c2_elabs_scored,BulkDock Fragalysis export,openbind_a71ev2a_c2_elabs_scored_top80percent,openbind_a71ev2a_c2_elabs_activefrags_only_scored_5.2plus,syndirella_placed

>  <smina_score_min>  (1739) 
-6.155

$$$$
P585342
     RDKit          3D

 19 21  0  0  0  0  0  0  0  0999 V2000
    3.7693   12.4998   27.6025 C   0  0  0  0  0  0  0  0  0  0  0  0
    5.1669   12.0803   28.0652 C   0  0  2  0  0  0  0  0  0  0  0  0
    5.9964   13.3276   28.4570 C   0  0  0  0  0  0  0  0  0  0  0  0
    6.3772   14.1883   27.2418 C   0  0  0  0  0  0  0  0  0  0  0  0
    6.9824   13.2975   26.2205 C   0  0  0  0  0  0  0  0  0  0  0  0
    7.8863   13.6993   25.2887 N   0  0  0  0  0  0  0  0  0  0  0  0
    8.4065   12.5973   24.6383 C   0  0  0  0  0  0  0  0  0  0  0  0
    9.4756   12.5213   23.7256 C   0  0  0  0  0  0  0  0  0  0  0  0
   10.2769   13.7517   23.4818 C   0  0  0  0  0  0  0  0  0  0  0  0
   10.2079   14.5796   24.3043 O   0  0  0  0  0  0  0  0  0  0  0  0
   11.1162   13.6984   22.1763 N   0  0  0  0  0  0  0  0  0  0  0  0
   12.0194   14.5246   21.7130 C   0  0  0  0  0  0  0  0  0  0  0  0
   12.7984   15.2939   21.3544 N   0  0  0  0  0  0  0  0  0  0  0  0
    9.7820   11.2588   23.2132 C   0  0  0  0  0  0  0  0  0  0  0  0
    9.0984   10.1256   23.6382 C   0  0  0  0  0  0  0  0  0  0  0  0
    8.0828   10.2226   24.5962 C   0  0  0  0  0  0  0  0  0  0  0  0
    7.7094   11.4808   25.0993 C   0  0  0  0  0  0  0  0  0  0  0  0
    6.7931   11.9376   26.0983 C   0  0  0  0  0  0  0  0  0  0  0  0
    5.8800   11.1789   27.0125 C   0  0  0  0  0  0  0  0  0  0  0  0
  2  1  1  6
  2  3  1  0
  3  4  1  0
  4  5  1  0
  5  6  1  0
  6  7  1  0
  7  8  2  0
  8  9  1  0
  9 10  2  0
  9 11  1  0
 11 12  1  0
 12 13  3  0
  8 14  1  0
 14 15  2  0
 15 16  1  0
 16 17  2  0
 17 18  1  0
 18 19  1  0
 19  2  1  0
 18  5  2  0
 17  7  1  0
M  END
>  <alias>  (1740) 
None

>  <rmsd(smina/fragmenstein)>  (1740) 
0.331

>  <smiles>  (1740) 
C[C@@H]1CCc2[nH]c3c(C(=O)NC#N)cccc3c2C1

>  <gnina_score>  (1740) 
5.24

>  <inspiration_score>  (1740) 
None

>  <energy_score>  (1740) 
-9.623314

>  <distance_score>  (1740) 
1.048224

>  <gnina_score_min>  (1740) 
5.241

>  <inchikey>  (1740) 
BQPAODBZECEKJQ-SECBINFHSA-N

>  <exports>  (1740) 
['/opt/xchem-fragalysis-2/maxwin/BulkDock/OUTPUTS/openbind_a71ev2a_c2_elabs_1LOUU54.sdf', '/opt/xchem-fragalysis-2/maxwin/BulkDock/OUTPUTS/openbind_a71ev2a_c2_elabs_1LSYIDY.sdf']

>  <name>  (1740) 
P585342

>  <ref_pdb>  (1740) 
A0566a

>  <subsites>  (1740) 
None

>  <HIPPO Pose ID>  (1740) 
585342

>  <ref_mols>  (1740) 
A0566a

>  <HIPPO Compound ID>  (1740) 
440345

>  <tags>  (1740) 
openbind_a71ev2a_c2_elabs,syndirella_product,openbind_a71ev2a_c2_elabs_fragonly_scored_top80percent,openbind_a71ev2a_c2_elabs_scored,BulkDock Fragalysis export,openbind_a71ev2a_c2_elabs_scored_top80percent,openbind_a71ev2a_c2_elabs_activefrags_only_scored_5.2plus,syndirella_placed

>  <smina_score_min>  (1740) 
-6.296

$$$$
P585344
     RDKit          3D

 19 21  0  0  0  0  0  0  0  0999 V2000
   12.7966   15.3282   21.4093 N   0  0  0  0  0  0  0  0  0  0  0  0
   12.0125   14.5535   21.7446 C   0  0  0  0  0  0  0  0  0  0  0  0
   11.1102   13.7135   22.1851 N   0  0  0  0  0  0  0  0  0  0  0  0
   10.2294   13.7592   23.4645 C   0  0  0  0  0  0  0  0  0  0  0  0
   10.1200   14.5907   24.2793 O   0  0  0  0  0  0  0  0  0  0  0  0
    9.4665   12.5041   23.7083 C   0  0  0  0  0  0  0  0  0  0  0  0
    9.8085   11.2519   23.1922 C   0  0  0  0  0  0  0  0  0  0  0  0
    9.1561   10.0976   23.6068 C   0  0  0  0  0  0  0  0  0  0  0  0
    8.1390   10.1641   24.5632 C   0  0  0  0  0  0  0  0  0  0  0  0
    7.7328   11.4090   25.0757 C   0  0  0  0  0  0  0  0  0  0  0  0
    6.7831   11.8292   26.0679 C   0  0  0  0  0  0  0  0  0  0  0  0
    6.9035   13.2047   26.1784 C   0  0  0  0  0  0  0  0  0  0  0  0
    7.8292   13.6211   25.2644 N   0  0  0  0  0  0  0  0  0  0  0  0
    8.3952   12.5434   24.6203 C   0  0  0  0  0  0  0  0  0  0  0  0
    6.2440   14.1743   27.1057 C   0  0  0  0  0  0  0  0  0  0  0  0
    6.1467   13.5997   28.5185 C   0  0  0  0  0  0  0  0  0  0  0  0
    5.0244   12.5761   28.7132 C   0  0  0  0  0  0  0  0  0  0  0  0
    4.6934   11.6755   27.5201 C   0  0  0  0  0  0  0  0  0  0  0  0
    5.8893   10.9539   26.8965 C   0  0  0  0  0  0  0  0  0  0  0  0
  1  2  3  0
  2  3  1  0
  3  4  1  0
  4  5  2  0
  4  6  1  0
  6  7  2  0
  7  8  1  0
  8  9  2  0
  9 10  1  0
 10 11  1  0
 11 12  2  0
 12 13  1  0
 13 14  1  0
 12 15  1  0
 15 16  1  0
 16 17  1  0
 17 18  1  0
 18 19  1  0
 14  6  1  0
 14 10  2  0
 19 11  1  0
M  END
>  <alias>  (1741) 
None

>  <rmsd(smina/fragmenstein)>  (1741) 
0.369

>  <smiles>  (1741) 
N#CNC(=O)c1cccc2c3c([nH]c12)CCCCC3

>  <gnina_score>  (1741) 
5.208

>  <inspiration_score>  (1741) 
None

>  <energy_score>  (1741) 
-3.990146

>  <distance_score>  (1741) 
1.041611

>  <gnina_score_min>  (1741) 
5.215

>  <inchikey>  (1741) 
NHMWUJQSANQHDK-UHFFFAOYSA-N

>  <exports>  (1741) 
['/opt/xchem-fragalysis-2/maxwin/BulkDock/OUTPUTS/openbind_a71ev2a_c2_elabs_1LOUU54.sdf', '/opt/xchem-fragalysis-2/maxwin/BulkDock/OUTPUTS/openbind_a71ev2a_c2_elabs_1LSYIDY.sdf']

>  <name>  (1741) 
P585344

>  <ref_pdb>  (1741) 
A0566a

>  <subsites>  (1741) 
None

>  <HIPPO Pose ID>  (1741) 
585344

>  <ref_mols>  (1741) 
A0566a

>  <HIPPO Compound ID>  (1741) 
440346

>  <tags>  (1741) 
openbind_a71ev2a_c2_elabs,syndirella_product,openbind_a71ev2a_c2_elabs_fragonly_scored_top80percent,openbind_a71ev2a_c2_elabs_scored,BulkDock Fragalysis export,openbind_a71ev2a_c2_elabs_scored_top80percent,openbind_a71ev2a_c2_elabs_activefrags_only_scored_5.2plus,syndirella_placed

>  <smina_score_min>  (1741) 
-6.237

$$$$
P585345
     RDKit          3D

 19 21  0  0  0  0  0  0  0  0999 V2000
    9.8926   14.7079   24.0209 O   0  0  0  0  0  0  0  0  0  0  0  0
    9.9613   13.8497   23.2360 C   0  0  0  0  0  0  0  0  0  0  0  0
   10.5901   13.8297   21.8353 N   0  0  0  0  0  0  0  0  0  0  0  0
   11.3504   14.8298   21.1391 C   0  0  0  0  0  0  0  0  0  0  0  0
   12.6123   15.1396   21.9122 C   0  0  0  0  0  0  0  0  0  0  0  0
   12.3040   16.0071   22.9115 F   0  0  0  0  0  0  0  0  0  0  0  0
    9.3499   12.5506   23.6156 C   0  0  0  0  0  0  0  0  0  0  0  0
    9.8138   11.3123   23.1633 C   0  0  0  0  0  0  0  0  0  0  0  0
    9.2469   10.1225   23.6023 C   0  0  0  0  0  0  0  0  0  0  0  0
    8.2215   10.1426   24.5511 C   0  0  0  0  0  0  0  0  0  0  0  0
    7.7463   11.3684   25.0491 C   0  0  0  0  0  0  0  0  0  0  0  0
    6.7851   11.7508   26.0267 C   0  0  0  0  0  0  0  0  0  0  0  0
    6.7549   13.1293   26.0580 C   0  0  0  0  0  0  0  0  0  0  0  0
    7.6656   13.5998   25.1632 N   0  0  0  0  0  0  0  0  0  0  0  0
    8.3090   12.5424   24.5535 C   0  0  0  0  0  0  0  0  0  0  0  0
    5.9079   13.9834   26.9332 C   0  0  0  0  0  0  0  0  0  0  0  0
    4.7993   13.1307   27.5751 C   0  0  0  0  0  0  0  0  0  0  0  0
    5.3254   11.7683   28.0623 C   0  0  0  0  0  0  0  0  0  0  0  0
    5.9120   10.9293   26.9116 C   0  0  0  0  0  0  0  0  0  0  0  0
  1  2  2  0
  2  3  1  0
  3  4  1  0
  4  5  1  0
  5  6  1  0
  2  7  1  0
  7  8  2  0
  8  9  1  0
  9 10  2  0
 10 11  1  0
 11 12  1  0
 12 13  2  0
 13 14  1  0
 14 15  1  0
 13 16  1  0
 16 17  1  0
 17 18  1  0
 18 19  1  0
 15  7  1  0
 15 11  2  0
 19 12  1  0
M  END
>  <alias>  (1742) 
None

>  <rmsd(smina/fragmenstein)>  (1742) 
0.51

>  <smiles>  (1742) 
O=C(NCCF)c1cccc2c3c([nH]c12)CCCC3

>  <gnina_score>  (1742) 
5.329

>  <inspiration_score>  (1742) 
None

>  <energy_score>  (1742) 
-6.272819

>  <distance_score>  (1742) 
1.178011

>  <gnina_score_min>  (1742) 
5.236

>  <inchikey>  (1742) 
MTMWWKPTFDEBKR-UHFFFAOYSA-N

>  <exports>  (1742) 
['/opt/xchem-fragalysis-2/maxwin/BulkDock/OUTPUTS/openbind_a71ev2a_c2_elabs_1LOUU54.sdf', '/opt/xchem-fragalysis-2/maxwin/BulkDock/OUTPUTS/openbind_a71ev2a_c2_elabs_1LSYIDY.sdf']

>  <name>  (1742) 
P585345

>  <ref_pdb>  (1742) 
A0566a

>  <subsites>  (1742) 
None

>  <HIPPO Pose ID>  (1742) 
585345

>  <ref_mols>  (1742) 
A0566a

>  <HIPPO Compound ID>  (1742) 
440347

>  <tags>  (1742) 
openbind_a71ev2a_c2_elabs,syndirella_product,openbind_a71ev2a_c2_elabs_fragonly_scored_top80percent,openbind_a71ev2a_c2_elabs_scored,BulkDock Fragalysis export,openbind_a71ev2a_c2_elabs_scored_top80percent,openbind_a71ev2a_c2_elabs_activefrags_only_scored_5.2plus,syndirella_placed

>  <smina_score_min>  (1742) 
-6.509

$$$$
P585347
     RDKit          3D

 19 21  0  0  0  0  0  0  0  0999 V2000
   12.5143   15.3166   21.9406 C   0  0  0  0  0  0  0  0  0  0  0  0
   11.4596   14.6171   21.1110 C   0  0  0  0  0  0  0  0  0  0  0  0
   10.4182   15.5263   20.4728 C   0  0  0  0  0  0  0  0  0  0  0  0
   10.7940   13.6314   21.9141 N   0  0  0  0  0  0  0  0  0  0  0  0
   10.1453   13.7463   23.3001 C   0  0  0  0  0  0  0  0  0  0  0  0
   10.1133   14.6398   24.0477 O   0  0  0  0  0  0  0  0  0  0  0  0
    9.4353   12.4961   23.6882 C   0  0  0  0  0  0  0  0  0  0  0  0
    9.7986   11.2244   23.2336 C   0  0  0  0  0  0  0  0  0  0  0  0
    9.1510   10.0810   23.6791 C   0  0  0  0  0  0  0  0  0  0  0  0
    8.1249   10.1763   24.6211 C   0  0  0  0  0  0  0  0  0  0  0  0
    7.7221   11.4371   25.0943 C   0  0  0  0  0  0  0  0  0  0  0  0
    6.7658   11.8902   26.0471 C   0  0  0  0  0  0  0  0  0  0  0  0
    6.8538   13.2663   26.0919 C   0  0  0  0  0  0  0  0  0  0  0  0
    7.8007   13.6686   25.2008 N   0  0  0  0  0  0  0  0  0  0  0  0
    8.3791   12.5664   24.6066 C   0  0  0  0  0  0  0  0  0  0  0  0
    6.0458   14.1812   26.9418 C   0  0  0  0  0  0  0  0  0  0  0  0
    5.3979   13.3774   28.0832 C   0  0  0  0  0  0  0  0  0  0  0  0
    4.7830   12.0608   27.5746 C   0  0  0  0  0  0  0  0  0  0  0  0
    5.8345   11.1324   26.9340 C   0  0  0  0  0  0  0  0  0  0  0  0
  1  2  1  0
  2  3  1  0
  2  4  1  0
  4  5  1  0
  5  6  2  0
  5  7  1  0
  7  8  2  0
  8  9  1  0
  9 10  2  0
 10 11  1  0
 11 12  1  0
 12 13  2  0
 13 14  1  0
 14 15  1  0
 13 16  1  0
 16 17  1  0
 17 18  1  0
 18 19  1  0
 15  7  1  0
 15 11  2  0
 19 12  1  0
M  END
>  <alias>  (1743) 
None

>  <rmsd(smina/fragmenstein)>  (1743) 
0.451

>  <smiles>  (1743) 
CC(C)NC(=O)c1cccc2c3c([nH]c12)CCCC3

>  <gnina_score>  (1743) 
5.352

>  <inspiration_score>  (1743) 
None

>  <energy_score>  (1743) 
-24.695689

>  <distance_score>  (1743) 
1.149497

>  <gnina_score_min>  (1743) 
5.382

>  <inchikey>  (1743) 
UARCPQDYWTXEKG-UHFFFAOYSA-N

>  <exports>  (1743) 
['/opt/xchem-fragalysis-2/maxwin/BulkDock/OUTPUTS/openbind_a71ev2a_c2_elabs_1LOUU54.sdf', '/opt/xchem-fragalysis-2/maxwin/BulkDock/OUTPUTS/openbind_a71ev2a_c2_elabs_1LSYIDY.sdf']

>  <name>  (1743) 
P585347

>  <ref_pdb>  (1743) 
A0566a

>  <subsites>  (1743) 
None

>  <HIPPO Pose ID>  (1743) 
585347

>  <ref_mols>  (1743) 
A0566a

>  <HIPPO Compound ID>  (1743) 
440350

>  <tags>  (1743) 
openbind_a71ev2a_c2_elabs,syndirella_product,openbind_a71ev2a_c2_elabs_fragonly_scored_top80percent,openbind_a71ev2a_c2_elabs_scored,BulkDock Fragalysis export,openbind_a71ev2a_c2_elabs_scored_top80percent,openbind_a71ev2a_c2_elabs_activefrags_only_scored_5.2plus,syndirella_placed

>  <smina_score_min>  (1743) 
-6.874

$$$$
P585348
     RDKit          3D

 19 21  0  0  0  0  0  0  0  0999 V2000
   10.1093   14.6850   24.2926 O   0  0  0  0  0  0  0  0  0  0  0  0
   10.1867   13.8774   23.4563 C   0  0  0  0  0  0  0  0  0  0  0  0
   10.7957   13.9563   22.0516 N   0  0  0  0  0  0  0  0  0  0  0  0
   11.3561   15.0716   21.3370 C   0  0  0  0  0  0  0  0  0  0  0  0
   10.6033   15.2999   20.0338 C   0  0  0  0  0  0  0  0  0  0  0  0
   11.4979   14.5300   18.7173 Cl  0  0  0  0  0  0  0  0  0  0  0  0
    9.5111   12.5799   23.7238 C   0  0  0  0  0  0  0  0  0  0  0  0
    9.9137   11.3573   23.1845 C   0  0  0  0  0  0  0  0  0  0  0  0
    9.2975   10.1649   23.5493 C   0  0  0  0  0  0  0  0  0  0  0  0
    8.2668   10.1669   24.4931 C   0  0  0  0  0  0  0  0  0  0  0  0
    7.8137   11.3817   25.0360 C   0  0  0  0  0  0  0  0  0  0  0  0
    6.8430   11.7480   26.0112 C   0  0  0  0  0  0  0  0  0  0  0  0
    6.8422   13.1245   26.0967 C   0  0  0  0  0  0  0  0  0  0  0  0
    7.7891   13.6068   25.2474 N   0  0  0  0  0  0  0  0  0  0  0  0
    8.4296   12.5591   24.6171 C   0  0  0  0  0  0  0  0  0  0  0  0
    5.9967   13.9633   26.9880 C   0  0  0  0  0  0  0  0  0  0  0  0
    4.8624   13.1104   27.5827 C   0  0  0  0  0  0  0  0  0  0  0  0
    5.3547   11.7206   28.0256 C   0  0  0  0  0  0  0  0  0  0  0  0
    5.9384   10.9142   26.8505 C   0  0  0  0  0  0  0  0  0  0  0  0
  1  2  2  0
  2  3  1  0
  3  4  1  0
  4  5  1  0
  5  6  1  0
  2  7  1  0
  7  8  2  0
  8  9  1  0
  9 10  2  0
 10 11  1  0
 11 12  1  0
 12 13  2  0
 13 14  1  0
 14 15  1  0
 13 16  1  0
 16 17  1  0
 17 18  1  0
 18 19  1  0
 15  7  1  0
 15 11  2  0
 19 12  1  0
M  END
>  <alias>  (1744) 
None

>  <rmsd(smina/fragmenstein)>  (1744) 
0.336

>  <smiles>  (1744) 
O=C(NCCCl)c1cccc2c3c([nH]c12)CCCC3

>  <gnina_score>  (1744) 
5.37

>  <inspiration_score>  (1744) 
None

>  <energy_score>  (1744) 
-3.797996

>  <distance_score>  (1744) 
1.037105

>  <gnina_score_min>  (1744) 
5.353

>  <inchikey>  (1744) 
PQKPHFMYFLWZRR-UHFFFAOYSA-N

>  <exports>  (1744) 
['/opt/xchem-fragalysis-2/maxwin/BulkDock/OUTPUTS/openbind_a71ev2a_c2_elabs_1LOUU54.sdf', '/opt/xchem-fragalysis-2/maxwin/BulkDock/OUTPUTS/openbind_a71ev2a_c2_elabs_1LSYIDY.sdf']

>  <name>  (1744) 
P585348

>  <ref_pdb>  (1744) 
A0566a

>  <subsites>  (1744) 
None

>  <HIPPO Pose ID>  (1744) 
585348

>  <ref_mols>  (1744) 
A0566a

>  <HIPPO Compound ID>  (1744) 
440351

>  <tags>  (1744) 
openbind_a71ev2a_c2_elabs,syndirella_product,openbind_a71ev2a_c2_elabs_fragonly_scored_top80percent,openbind_a71ev2a_c2_elabs_scored,BulkDock Fragalysis export,openbind_a71ev2a_c2_elabs_scored_top80percent,openbind_a71ev2a_c2_elabs_activefrags_only_scored_5.2plus,syndirella_placed

>  <smina_score_min>  (1744) 
-6.343

$$$$
P585349
     RDKit          3D

 19 21  0  0  0  0  0  0  0  0999 V2000
   11.5331   14.7343   19.3005 C   0  0  0  0  0  0  0  0  0  0  0  0
   12.2525   14.6291   20.6341 C   0  0  0  0  0  0  0  0  0  0  0  0
   11.4141   15.1738   21.7658 C   0  0  0  0  0  0  0  0  0  0  0  0
   10.5825   14.1543   22.3209 N   0  0  0  0  0  0  0  0  0  0  0  0
   10.1225   13.9212   23.7602 C   0  0  0  0  0  0  0  0  0  0  0  0
   10.2821   14.5644   24.7174 O   0  0  0  0  0  0  0  0  0  0  0  0
    9.3868   12.6436   23.8932 C   0  0  0  0  0  0  0  0  0  0  0  0
    9.8183   11.4581   23.2883 C   0  0  0  0  0  0  0  0  0  0  0  0
    9.2149   10.2437   23.5937 C   0  0  0  0  0  0  0  0  0  0  0  0
    8.1774   10.1919   24.5322 C   0  0  0  0  0  0  0  0  0  0  0  0
    7.6949   11.3744   25.1245 C   0  0  0  0  0  0  0  0  0  0  0  0
    6.7192   11.6820   26.1179 C   0  0  0  0  0  0  0  0  0  0  0  0
    6.7464   13.0489   26.3080 C   0  0  0  0  0  0  0  0  0  0  0  0
    7.6720   13.5865   25.4676 N   0  0  0  0  0  0  0  0  0  0  0  0
    8.3021   12.5783   24.7714 C   0  0  0  0  0  0  0  0  0  0  0  0
    5.9211   13.8299   27.2678 C   0  0  0  0  0  0  0  0  0  0  0  0
    5.3625   12.8829   28.3436 C   0  0  0  0  0  0  0  0  0  0  0  0
    4.7837   11.6005   27.7204 C   0  0  0  0  0  0  0  0  0  0  0  0
    5.8428   10.7945   26.9405 C   0  0  0  0  0  0  0  0  0  0  0  0
  1  2  1  0
  2  3  1  0
  3  4  1  0
  4  5  1  0
  5  6  2  0
  5  7  1  0
  7  8  2  0
  8  9  1  0
  9 10  2  0
 10 11  1  0
 11 12  1  0
 12 13  2  0
 13 14  1  0
 14 15  1  0
 13 16  1  0
 16 17  1  0
 17 18  1  0
 18 19  1  0
 15  7  1  0
 15 11  2  0
 19 12  1  0
M  END
>  <alias>  (1745) 
None

>  <rmsd(smina/fragmenstein)>  (1745) 
0.976

>  <smiles>  (1745) 
CCCNC(=O)c1cccc2c3c([nH]c12)CCCC3

>  <gnina_score>  (1745) 
5.066

>  <inspiration_score>  (1745) 
None

>  <energy_score>  (1745) 
-8.895307

>  <distance_score>  (1745) 
1.047059

>  <gnina_score_min>  (1745) 
5.379

>  <inchikey>  (1745) 
NHNQXYHRRRNCRF-UHFFFAOYSA-N

>  <exports>  (1745) 
['/opt/xchem-fragalysis-2/maxwin/BulkDock/OUTPUTS/openbind_a71ev2a_c2_elabs_1LOUU54.sdf', '/opt/xchem-fragalysis-2/maxwin/BulkDock/OUTPUTS/openbind_a71ev2a_c2_elabs_1LSYIDY.sdf']

>  <name>  (1745) 
P585349

>  <ref_pdb>  (1745) 
A0566a

>  <subsites>  (1745) 
None

>  <HIPPO Pose ID>  (1745) 
585349

>  <ref_mols>  (1745) 
A0566a

>  <HIPPO Compound ID>  (1745) 
440352

>  <tags>  (1745) 
openbind_a71ev2a_c2_elabs,syndirella_product,openbind_a71ev2a_c2_elabs_fragonly_scored_top80percent,openbind_a71ev2a_c2_elabs_scored,BulkDock Fragalysis export,openbind_a71ev2a_c2_elabs_scored_top80percent,openbind_a71ev2a_c2_elabs_activefrags_only_scored_5.2plus,syndirella_placed

>  <smina_score_min>  (1745) 
-6.667

$$$$
P585350
     RDKit          3D

 19 21  0  0  0  0  0  0  0  0999 V2000
   11.6829   14.7049   18.9190 C   0  0  0  0  0  0  0  0  0  0  0  0
   11.7628   14.7695   20.1134 C   0  0  0  0  0  0  0  0  0  0  0  0
   11.8899   14.8358   21.5607 C   0  0  0  0  0  0  0  0  0  0  0  0
   11.0069   13.8814   22.1421 N   0  0  0  0  0  0  0  0  0  0  0  0
   10.3720   13.8320   23.5333 C   0  0  0  0  0  0  0  0  0  0  0  0
   10.4050   14.6020   24.4061 O   0  0  0  0  0  0  0  0  0  0  0  0
    9.5679   12.5968   23.7435 C   0  0  0  0  0  0  0  0  0  0  0  0
    9.9094   11.3567   23.1957 C   0  0  0  0  0  0  0  0  0  0  0  0
    9.2464   10.1905   23.5594 C   0  0  0  0  0  0  0  0  0  0  0  0
    8.2219   10.2358   24.5060 C   0  0  0  0  0  0  0  0  0  0  0  0
    7.8157   11.4714   25.0399 C   0  0  0  0  0  0  0  0  0  0  0  0
    6.8603   11.8734   26.0138 C   0  0  0  0  0  0  0  0  0  0  0  0
    6.9186   13.2479   26.1083 C   0  0  0  0  0  0  0  0  0  0  0  0
    7.8902   13.6953   25.2660 N   0  0  0  0  0  0  0  0  0  0  0  0
    8.4817   12.6254   24.6270 C   0  0  0  0  0  0  0  0  0  0  0  0
    6.1123   14.1137   27.0108 C   0  0  0  0  0  0  0  0  0  0  0  0
    4.9530   13.3010   27.6149 C   0  0  0  0  0  0  0  0  0  0  0  0
    5.3943   11.8883   28.0408 C   0  0  0  0  0  0  0  0  0  0  0  0
    5.9239   11.0706   26.8482 C   0  0  0  0  0  0  0  0  0  0  0  0
  1  2  3  0
  2  3  1  0
  3  4  1  0
  4  5  1  0
  5  6  2  0
  5  7  1  0
  7  8  2  0
  8  9  1  0
  9 10  2  0
 10 11  1  0
 11 12  1  0
 12 13  2  0
 13 14  1  0
 14 15  1  0
 13 16  1  0
 16 17  1  0
 17 18  1  0
 18 19  1  0
 15  7  1  0
 15 11  2  0
 19 12  1  0
M  END
>  <alias>  (1746) 
None

>  <rmsd(smina/fragmenstein)>  (1746) 
0.722

>  <smiles>  (1746) 
C#CCNC(=O)c1cccc2c3c([nH]c12)CCCC3

>  <gnina_score>  (1746) 
5.099

>  <inspiration_score>  (1746) 
None

>  <energy_score>  (1746) 
-19.776569

>  <distance_score>  (1746) 
0.937571

>  <gnina_score_min>  (1746) 
5.316

>  <inchikey>  (1746) 
XFYOBJMBDDCZFR-UHFFFAOYSA-N

>  <exports>  (1746) 
['/opt/xchem-fragalysis-2/maxwin/BulkDock/OUTPUTS/openbind_a71ev2a_c2_elabs_1LOUU54.sdf', '/opt/xchem-fragalysis-2/maxwin/BulkDock/OUTPUTS/openbind_a71ev2a_c2_elabs_1LSYIDY.sdf']

>  <name>  (1746) 
P585350

>  <ref_pdb>  (1746) 
A0566a

>  <subsites>  (1746) 
None

>  <HIPPO Pose ID>  (1746) 
585350

>  <ref_mols>  (1746) 
A0566a

>  <HIPPO Compound ID>  (1746) 
440353

>  <tags>  (1746) 
openbind_a71ev2a_c2_elabs,syndirella_product,openbind_a71ev2a_c2_elabs_fragonly_scored_top80percent,openbind_a71ev2a_c2_elabs_scored,BulkDock Fragalysis export,openbind_a71ev2a_c2_elabs_scored_top80percent,openbind_a71ev2a_c2_elabs_activefrags_only_scored_5.2plus,syndirella_placed

>  <smina_score_min>  (1746) 
-6.565

$$$$
P585351
     RDKit          3D

 19 21  0  0  0  0  0  0  0  0999 V2000
   13.0710   15.3469   22.1920 N   0  0  0  0  0  0  0  0  0  0  0  0
   12.0938   15.1735   21.5979 C   0  0  0  0  0  0  0  0  0  0  0  0
   10.8012   14.8985   20.9845 C   0  0  0  0  0  0  0  0  0  0  0  0
   10.1950   13.8612   21.7577 N   0  0  0  0  0  0  0  0  0  0  0  0
    9.6574   13.8733   23.1927 C   0  0  0  0  0  0  0  0  0  0  0  0
    9.5508   14.7498   23.9514 O   0  0  0  0  0  0  0  0  0  0  0  0
    9.1859   12.5392   23.6433 C   0  0  0  0  0  0  0  0  0  0  0  0
    9.7230   11.3249   23.2050 C   0  0  0  0  0  0  0  0  0  0  0  0
    9.2115   10.1133   23.6526 C   0  0  0  0  0  0  0  0  0  0  0  0
    8.1792   10.0900   24.5965 C   0  0  0  0  0  0  0  0  0  0  0  0
    7.6575   11.2914   25.1071 C   0  0  0  0  0  0  0  0  0  0  0  0
    6.6830   11.6324   26.0916 C   0  0  0  0  0  0  0  0  0  0  0  0
    6.6544   13.0094   26.1736 C   0  0  0  0  0  0  0  0  0  0  0  0
    7.5104   13.5165   25.2465 N   0  0  0  0  0  0  0  0  0  0  0  0
    8.1722   12.4863   24.6107 C   0  0  0  0  0  0  0  0  0  0  0  0
    5.8212   13.8281   27.0935 C   0  0  0  0  0  0  0  0  0  0  0  0
    5.3388   12.9447   28.2567 C   0  0  0  0  0  0  0  0  0  0  0  0
    4.7898   11.5992   27.7515 C   0  0  0  0  0  0  0  0  0  0  0  0
    5.8462   10.7748   26.9858 C   0  0  0  0  0  0  0  0  0  0  0  0
  1  2  3  0
  2  3  1  0
  3  4  1  0
  4  5  1  0
  5  6  2  0
  5  7  1  0
  7  8  2  0
  8  9  1  0
  9 10  2  0
 10 11  1  0
 11 12  1  0
 12 13  2  0
 13 14  1  0
 14 15  1  0
 13 16  1  0
 16 17  1  0
 17 18  1  0
 18 19  1  0
 15  7  1  0
 15 11  2  0
 19 12  1  0
M  END
>  <alias>  (1747) 
None

>  <rmsd(smina/fragmenstein)>  (1747) 
0.355

>  <smiles>  (1747) 
N#CCNC(=O)c1cccc2c3c([nH]c12)CCCC3

>  <gnina_score>  (1747) 
5.286

>  <inspiration_score>  (1747) 
None

>  <energy_score>  (1747) 
-1.226924

>  <distance_score>  (1747) 
1.379417

>  <gnina_score_min>  (1747) 
5.261

>  <inchikey>  (1747) 
BJOFKGBMEDSADS-UHFFFAOYSA-N

>  <exports>  (1747) 
['/opt/xchem-fragalysis-2/maxwin/BulkDock/OUTPUTS/openbind_a71ev2a_c2_elabs_1LOUU54.sdf', '/opt/xchem-fragalysis-2/maxwin/BulkDock/OUTPUTS/openbind_a71ev2a_c2_elabs_1LSYIDY.sdf']

>  <name>  (1747) 
P585351

>  <ref_pdb>  (1747) 
A0566a

>  <subsites>  (1747) 
None

>  <HIPPO Pose ID>  (1747) 
585351

>  <ref_mols>  (1747) 
A0566a

>  <HIPPO Compound ID>  (1747) 
440354

>  <tags>  (1747) 
openbind_a71ev2a_c2_elabs,syndirella_product,openbind_a71ev2a_c2_elabs_fragonly_scored_top80percent,openbind_a71ev2a_c2_elabs_scored,BulkDock Fragalysis export,openbind_a71ev2a_c2_elabs_scored_top80percent,openbind_a71ev2a_c2_elabs_activefrags_only_scored_5.2plus,syndirella_placed

>  <smina_score_min>  (1747) 
-6.213

$$$$
P585352
     RDKit          3D

 19 21  0  0  0  0  0  0  0  0999 V2000
   10.3251   14.5578   24.6510 O   0  0  0  0  0  0  0  0  0  0  0  0
   10.2026   13.8864   23.7081 C   0  0  0  0  0  0  0  0  0  0  0  0
   10.7760   14.0410   22.2998 N   0  0  0  0  0  0  0  0  0  0  0  0
   11.6973   14.9989   21.7711 C   0  0  0  0  0  0  0  0  0  0  0  0
   12.3196   14.5233   20.4786 C   0  0  0  0  0  0  0  0  0  0  0  0
   11.0930   14.9739   18.7973 I   0  0  0  0  0  0  0  0  0  0  0  0
    9.4300   12.6288   23.8487 C   0  0  0  0  0  0  0  0  0  0  0  0
    9.8368   11.4202   23.2705 C   0  0  0  0  0  0  0  0  0  0  0  0
    9.2139   10.2220   23.5977 C   0  0  0  0  0  0  0  0  0  0  0  0
    8.1827   10.2058   24.5409 C   0  0  0  0  0  0  0  0  0  0  0  0
    7.7253   11.4092   25.1083 C   0  0  0  0  0  0  0  0  0  0  0  0
    6.7636   11.7506   26.0998 C   0  0  0  0  0  0  0  0  0  0  0  0
    6.7620   13.1248   26.2195 C   0  0  0  0  0  0  0  0  0  0  0  0
    7.7109   13.6303   25.3848 N   0  0  0  0  0  0  0  0  0  0  0  0
    8.3408   12.5984   24.7228 C   0  0  0  0  0  0  0  0  0  0  0  0
    5.9208   13.9381   27.1385 C   0  0  0  0  0  0  0  0  0  0  0  0
    4.7918   13.0670   27.7170 C   0  0  0  0  0  0  0  0  0  0  0  0
    5.2923   11.6700   28.1262 C   0  0  0  0  0  0  0  0  0  0  0  0
    5.8751   10.8921   26.9317 C   0  0  0  0  0  0  0  0  0  0  0  0
  1  2  2  0
  2  3  1  0
  3  4  1  0
  4  5  1  0
  5  6  1  0
  2  7  1  0
  7  8  2  0
  8  9  1  0
  9 10  2  0
 10 11  1  0
 11 12  1  0
 12 13  2  0
 13 14  1  0
 14 15  1  0
 13 16  1  0
 16 17  1  0
 17 18  1  0
 18 19  1  0
 15  7  1  0
 15 11  2  0
 19 12  1  0
M  END
>  <alias>  (1748) 
None

>  <rmsd(smina/fragmenstein)>  (1748) 
0.554

>  <smiles>  (1748) 
O=C(NCCI)c1cccc2c3c([nH]c12)CCCC3

>  <gnina_score>  (1748) 
5.221

>  <inspiration_score>  (1748) 
None

>  <energy_score>  (1748) 
-2.180816

>  <distance_score>  (1748) 
0.999303

>  <gnina_score_min>  (1748) 
5.542

>  <inchikey>  (1748) 
SNITWWCSNYTSAW-UHFFFAOYSA-N

>  <exports>  (1748) 
['/opt/xchem-fragalysis-2/maxwin/BulkDock/OUTPUTS/openbind_a71ev2a_c2_elabs_1LOUU54.sdf', '/opt/xchem-fragalysis-2/maxwin/BulkDock/OUTPUTS/openbind_a71ev2a_c2_elabs_1LSYIDY.sdf']

>  <name>  (1748) 
P585352

>  <ref_pdb>  (1748) 
A0566a

>  <subsites>  (1748) 
None

>  <HIPPO Pose ID>  (1748) 
585352

>  <ref_mols>  (1748) 
A0566a

>  <HIPPO Compound ID>  (1748) 
440357

>  <tags>  (1748) 
openbind_a71ev2a_c2_elabs,syndirella_product,openbind_a71ev2a_c2_elabs_fragonly_scored_top80percent,BulkDock Fragalysis export,openbind_a71ev2a_c2_elabs_scored,openbind_a71ev2a_c2_elabs_scored_top80percent,openbind_a71ev2a_c2_elabs_activefrags_only_scored_5.2plus,openbind_a71ev2a_c2_elabs_activefrags_only_scored_5.5plus,syndirella_placed

>  <smina_score_min>  (1748) 
-6.211

$$$$
P585354
     RDKit          3D

 19 22  0  0  0  0  0  0  0  0999 V2000
   10.1567   14.7071   24.1452 O   0  0  0  0  0  0  0  0  0  0  0  0
   10.1408   13.8878   23.3141 C   0  0  0  0  0  0  0  0  0  0  0  0
   10.5757   13.9540   21.8383 N   0  0  0  0  0  0  0  0  0  0  0  0
   11.0224   15.0410   21.0650 C   0  0  0  0  0  0  0  0  0  0  0  0
   11.0271   14.9699   19.5647 C   0  0  0  0  0  0  0  0  0  0  0  0
    9.9838   15.7867   20.2663 C   0  0  0  0  0  0  0  0  0  0  0  0
    9.5209   12.5870   23.6661 C   0  0  0  0  0  0  0  0  0  0  0  0
    9.9326   11.3597   23.1492 C   0  0  0  0  0  0  0  0  0  0  0  0
    9.3268   10.1698   23.5382 C   0  0  0  0  0  0  0  0  0  0  0  0
    8.2975   10.1823   24.4843 C   0  0  0  0  0  0  0  0  0  0  0  0
    7.8460   11.4033   25.0160 C   0  0  0  0  0  0  0  0  0  0  0  0
    6.8735   11.7812   25.9846 C   0  0  0  0  0  0  0  0  0  0  0  0
    6.8730   13.1588   26.0538 C   0  0  0  0  0  0  0  0  0  0  0  0
    7.8160   13.6325   25.1946 N   0  0  0  0  0  0  0  0  0  0  0  0
    8.4560   12.5771   24.5776 C   0  0  0  0  0  0  0  0  0  0  0  0
    6.0253   14.0080   26.9335 C   0  0  0  0  0  0  0  0  0  0  0  0
    4.8895   13.1623   27.5360 C   0  0  0  0  0  0  0  0  0  0  0  0
    5.3792   11.7762   27.9936 C   0  0  0  0  0  0  0  0  0  0  0  0
    5.9615   10.9577   26.8264 C   0  0  0  0  0  0  0  0  0  0  0  0
  1  2  2  0
  2  3  1  0
  3  4  1  0
  4  5  1  0
  5  6  1  0
  2  7  1  0
  7  8  2  0
  8  9  1  0
  9 10  2  0
 10 11  1  0
 11 12  1  0
 12 13  2  0
 13 14  1  0
 14 15  1  0
 13 16  1  0
 16 17  1  0
 17 18  1  0
 18 19  1  0
  6  4  1  0
 15  7  1  0
 15 11  2  0
 19 12  1  0
M  END
>  <alias>  (1749) 
None

>  <rmsd(smina/fragmenstein)>  (1749) 
0.593

>  <smiles>  (1749) 
O=C(NC1CC1)c1cccc2c3c([nH]c12)CCCC3

>  <gnina_score>  (1749) 
5.316

>  <inspiration_score>  (1749) 
None

>  <energy_score>  (1749) 
-3.094545

>  <distance_score>  (1749) 
1.093609

>  <gnina_score_min>  (1749) 
5.413

>  <inchikey>  (1749) 
RISGMLBEWHAVKF-UHFFFAOYSA-N

>  <exports>  (1749) 
['/opt/xchem-fragalysis-2/maxwin/BulkDock/OUTPUTS/openbind_a71ev2a_c2_elabs_1LOUU54.sdf', '/opt/xchem-fragalysis-2/maxwin/BulkDock/OUTPUTS/openbind_a71ev2a_c2_elabs_1LSYIDY.sdf']

>  <name>  (1749) 
P585354

>  <ref_pdb>  (1749) 
A0566a

>  <subsites>  (1749) 
None

>  <HIPPO Pose ID>  (1749) 
585354

>  <ref_mols>  (1749) 
A0566a

>  <HIPPO Compound ID>  (1749) 
440359

>  <tags>  (1749) 
openbind_a71ev2a_c2_elabs,syndirella_product,openbind_a71ev2a_c2_elabs_fragonly_scored_top80percent,openbind_a71ev2a_c2_elabs_scored,BulkDock Fragalysis export,openbind_a71ev2a_c2_elabs_scored_top80percent,openbind_a71ev2a_c2_elabs_activefrags_only_scored_5.2plus,syndirella_placed

>  <smina_score_min>  (1749) 
-7.06

$$$$
P585362
     RDKit          3D

 19 20  0  0  0  0  0  0  0  0999 V2000
    6.5683    9.9450   25.7394 C   0  0  0  0  0  0  0  0  0  0  0  0
    7.5099   10.8835   25.0661 C   0  0  0  0  0  0  0  0  0  0  0  0
    8.5404   10.4027   24.2337 C   0  0  0  0  0  0  0  0  0  0  0  0
    9.5287   11.2470   23.7514 C   0  0  0  0  0  0  0  0  0  0  0  0
    9.5449   12.5854   24.1463 C   0  0  0  0  0  0  0  0  0  0  0  0
   10.7058   13.4804   23.9420 C   0  0  0  0  0  0  0  0  0  0  0  0
   10.9524   14.2769   24.7526 O   0  0  0  0  0  0  0  0  0  0  0  0
   11.3365   13.2304   22.5782 N   0  0  0  0  0  0  0  0  0  0  0  0
   12.3285   13.9500   21.8810 C   0  0  0  0  0  0  0  0  0  0  0  0
   11.7945   15.2466   21.3319 C   0  0  0  0  0  0  0  0  0  0  0  0
   10.6328   15.1099   20.3482 C   0  0  0  0  0  0  0  0  0  0  0  0
    8.7364   14.9409   21.3438 I   0  0  0  0  0  0  0  0  0  0  0  0
    8.4389   13.0837   24.8388 C   0  0  0  0  0  0  0  0  0  0  0  0
    8.1484   14.3708   25.2271 N   0  0  0  0  0  0  0  0  0  0  0  0
    6.9830   14.4022   25.9330 C   0  0  0  0  0  0  0  0  0  0  0  0
    6.5111   13.1128   26.0178 C   0  0  0  0  0  0  0  0  0  0  0  0
    5.3235   12.7546   26.7307 C   0  0  0  0  0  0  0  0  0  0  0  0
    4.3869   12.4464   27.3456 N   0  0  0  0  0  0  0  0  0  0  0  0
    7.4164   12.2691   25.3039 C   0  0  0  0  0  0  0  0  0  0  0  0
  1  2  1  0
  2  3  2  0
  3  4  1  0
  4  5  2  0
  5  6  1  0
  6  7  2  0
  6  8  1  0
  8  9  1  0
  9 10  1  0
 10 11  1  0
 11 12  1  0
  5 13  1  0
 13 14  1  0
 14 15  1  0
 15 16  2  0
 16 17  1  0
 17 18  3  0
 16 19  1  0
 19  2  1  0
 19 13  2  0
M  END
>  <alias>  (1750) 
None

>  <rmsd(smina/fragmenstein)>  (1750) 
0.683

>  <smiles>  (1750) 
Cc1ccc(C(=O)NCCCI)c2[nH]cc(C#N)c12

>  <gnina_score>  (1750) 
5.525

>  <inspiration_score>  (1750) 
None

>  <energy_score>  (1750) 
-10.811096

>  <distance_score>  (1750) 
1.412208

>  <gnina_score_min>  (1750) 
5.512

>  <inchikey>  (1750) 
SDWVAAMUUDCBII-UHFFFAOYSA-N

>  <exports>  (1750) 
['/opt/xchem-fragalysis-2/maxwin/BulkDock/OUTPUTS/openbind_a71ev2a_c2_elabs_1LOUU54.sdf', '/opt/xchem-fragalysis-2/maxwin/BulkDock/OUTPUTS/openbind_a71ev2a_c2_elabs_1LSYIDY.sdf']

>  <name>  (1750) 
P585362

>  <ref_pdb>  (1750) 
A0566a

>  <subsites>  (1750) 
None

>  <HIPPO Pose ID>  (1750) 
585362

>  <ref_mols>  (1750) 
A0566a

>  <HIPPO Compound ID>  (1750) 
440372

>  <tags>  (1750) 
openbind_a71ev2a_c2_elabs,syndirella_product,openbind_a71ev2a_c2_elabs_fragonly_scored_top80percent,BulkDock Fragalysis export,openbind_a71ev2a_c2_elabs_scored,openbind_a71ev2a_c2_elabs_scored_top80percent,openbind_a71ev2a_c2_elabs_activefrags_only_scored_5.2plus,openbind_a71ev2a_c2_elabs_activefrags_only_scored_5.5plus,syndirella_placed

>  <smina_score_min>  (1750) 
-5.342

$$$$
P585363
     RDKit          3D

 19 20  0  0  0  0  0  0  0  0999 V2000
   12.8742   14.7604   21.6661 C   0  0  0  0  0  0  0  0  0  0  0  0
   11.6092   15.5476   21.8009 C   0  0  0  0  0  0  0  0  0  0  0  0
   10.6377   14.9857   20.8603 N   0  0  0  0  0  0  0  0  0  0  0  0
    9.7237   15.9891   20.3274 C   0  0  0  0  0  0  0  0  0  0  0  0
    9.9773   14.0480   21.5936 N   0  0  0  0  0  0  0  0  0  0  0  0
    8.9947   14.2064   22.7620 C   0  0  0  0  0  0  0  0  0  0  0  0
    8.5324   15.1652   23.2353 O   0  0  0  0  0  0  0  0  0  0  0  0
    8.6538   12.9577   23.4641 C   0  0  0  0  0  0  0  0  0  0  0  0
    9.2884   11.7222   23.3047 C   0  0  0  0  0  0  0  0  0  0  0  0
    8.7976   10.6118   23.9675 C   0  0  0  0  0  0  0  0  0  0  0  0
    7.7264   10.7358   24.8727 C   0  0  0  0  0  0  0  0  0  0  0  0
    7.1195    9.5403   25.4789 C   0  0  0  0  0  0  0  0  0  0  0  0
    7.1952   11.9941   25.1829 C   0  0  0  0  0  0  0  0  0  0  0  0
    6.2015   12.4897   26.0818 C   0  0  0  0  0  0  0  0  0  0  0  0
    5.4181   11.7766   27.0405 C   0  0  0  0  0  0  0  0  0  0  0  0
    4.7937   11.2008   27.8325 N   0  0  0  0  0  0  0  0  0  0  0  0
    6.1051   13.8470   25.8930 C   0  0  0  0  0  0  0  0  0  0  0  0
    6.9602   14.1755   24.8880 N   0  0  0  0  0  0  0  0  0  0  0  0
    7.6637   13.0669   24.4575 C   0  0  0  0  0  0  0  0  0  0  0  0
  1  2  1  0
  2  3  1  0
  3  4  1  0
  3  5  1  0
  5  6  1  0
  6  7  2  0
  6  8  1  0
  8  9  2  0
  9 10  1  0
 10 11  2  0
 11 12  1  0
 11 13  1  0
 13 14  1  0
 14 15  1  0
 15 16  3  0
 14 17  2  0
 17 18  1  0
 18 19  1  0
 19  8  1  0
 19 13  2  0
M  END
>  <alias>  (1751) 
None

>  <rmsd(smina/fragmenstein)>  (1751) 
1.473

>  <smiles>  (1751) 
CCN(C)NC(=O)c1ccc(C)c2c(C#N)c[nH]c12

>  <gnina_score>  (1751) 
5.426

>  <inspiration_score>  (1751) 
None

>  <energy_score>  (1751) 
-7.001911

>  <distance_score>  (1751) 
1.966522

>  <gnina_score_min>  (1751) 
5.338

>  <inchikey>  (1751) 
JKRNRYQGFKSDHC-UHFFFAOYSA-N

>  <exports>  (1751) 
['/opt/xchem-fragalysis-2/maxwin/BulkDock/OUTPUTS/openbind_a71ev2a_c2_elabs_1LOUU54.sdf', '/opt/xchem-fragalysis-2/maxwin/BulkDock/OUTPUTS/openbind_a71ev2a_c2_elabs_1LSYIDY.sdf']

>  <name>  (1751) 
P585363

>  <ref_pdb>  (1751) 
A0566a

>  <subsites>  (1751) 
None

>  <HIPPO Pose ID>  (1751) 
585363

>  <ref_mols>  (1751) 
A0566a

>  <HIPPO Compound ID>  (1751) 
440373

>  <tags>  (1751) 
openbind_a71ev2a_c2_elabs,syndirella_product,openbind_a71ev2a_c2_elabs_fragonly_scored_top80percent,openbind_a71ev2a_c2_elabs_scored,BulkDock Fragalysis export,openbind_a71ev2a_c2_elabs_scored_top80percent,openbind_a71ev2a_c2_elabs_activefrags_only_scored_5.2plus,syndirella_placed

>  <smina_score_min>  (1751) 
-6.141

$$$$
P585364
     RDKit          3D

 19 20  0  0  0  0  0  0  0  0999 V2000
    6.7306   15.8003   26.4273 C   0  0  0  0  0  0  0  0  0  0  0  0
    7.2373   14.5251   25.8517 C   0  0  0  0  0  0  0  0  0  0  0  0
    8.3448   14.5100   25.0560 N   0  0  0  0  0  0  0  0  0  0  0  0
    8.6270   13.2389   24.6256 C   0  0  0  0  0  0  0  0  0  0  0  0
    9.6726   12.7804   23.8133 C   0  0  0  0  0  0  0  0  0  0  0  0
   10.6689   13.7781   23.3920 C   0  0  0  0  0  0  0  0  0  0  0  0
   11.0497   14.5378   24.1860 O   0  0  0  0  0  0  0  0  0  0  0  0
   10.9552   13.6821   21.8978 N   0  0  0  0  0  0  0  0  0  0  0  0
   11.6975   14.5548   21.0308 C   0  0  2  0  0  0  0  0  0  0  0  0
   12.7230   15.3195   21.8368 C   0  0  0  0  0  0  0  0  0  0  0  0
   10.7048   15.4334   20.3799 C   0  0  0  0  0  0  0  0  0  0  0  0
    9.8539   16.0890   19.9391 N   0  0  0  0  0  0  0  0  0  0  0  0
    9.7031   11.4335   23.4527 C   0  0  0  0  0  0  0  0  0  0  0  0
    8.7735   10.5563   23.9973 C   0  0  0  0  0  0  0  0  0  0  0  0
    7.7843   11.0368   24.8690 C   0  0  0  0  0  0  0  0  0  0  0  0
    6.6417    9.8666   25.7656 Br  0  0  0  0  0  0  0  0  0  0  0  0
    7.6577   12.4052   25.1562 C   0  0  0  0  0  0  0  0  0  0  0  0
    6.7627   13.2286   25.9319 C   0  0  0  0  0  0  0  0  0  0  0  0
    5.5394   12.8194   26.6781 C   0  0  0  0  0  0  0  0  0  0  0  0
  1  2  1  0
  2  3  1  0
  3  4  1  0
  4  5  2  0
  5  6  1  0
  6  7  2  0
  6  8  1  0
  8  9  1  0
  9 10  1  1
  9 11  1  0
 11 12  3  0
  5 13  1  0
 13 14  2  0
 14 15  1  0
 15 16  1  0
 15 17  2  0
 17 18  1  0
 18 19  1  0
 18  2  2  0
 17  4  1  0
M  END
>  <alias>  (1752) 
None

>  <rmsd(smina/fragmenstein)>  (1752) 
0.784

>  <smiles>  (1752) 
Cc1[nH]c2c(C(=O)N[C@H](C)C#N)ccc(Br)c2c1C

>  <gnina_score>  (1752) 
5.705

>  <inspiration_score>  (1752) 
None

>  <energy_score>  (1752) 
-6.966868

>  <distance_score>  (1752) 
1.327498

>  <gnina_score_min>  (1752) 
5.484

>  <inchikey>  (1752) 
CDOYMVHLDCGBPE-SSDOTTSWSA-N

>  <exports>  (1752) 
['/opt/xchem-fragalysis-2/maxwin/BulkDock/OUTPUTS/openbind_a71ev2a_c2_elabs_1LOUU54.sdf', '/opt/xchem-fragalysis-2/maxwin/BulkDock/OUTPUTS/openbind_a71ev2a_c2_elabs_1LSYIDY.sdf']

>  <name>  (1752) 
P585364

>  <ref_pdb>  (1752) 
A0566a

>  <subsites>  (1752) 
None

>  <HIPPO Pose ID>  (1752) 
585364

>  <ref_mols>  (1752) 
A0566a

>  <HIPPO Compound ID>  (1752) 
440379

>  <tags>  (1752) 
openbind_a71ev2a_c2_elabs,syndirella_product,openbind_a71ev2a_c2_elabs_fragonly_scored_top80percent,openbind_a71ev2a_c2_elabs_scored,BulkDock Fragalysis export,openbind_a71ev2a_c2_elabs_scored_top80percent,openbind_a71ev2a_c2_elabs_activefrags_only_scored_5.2plus,syndirella_placed

>  <smina_score_min>  (1752) 
-6.701

$$$$
P585365
     RDKit          3D

 19 21  0  0  0  0  0  0  0  0999 V2000
    6.7227   15.6926   26.4950 C   0  0  0  0  0  0  0  0  0  0  0  0
    7.3110   14.4926   25.8402 C   0  0  0  0  0  0  0  0  0  0  0  0
    8.4230   14.5954   25.0572 N   0  0  0  0  0  0  0  0  0  0  0  0
    8.7729   13.3824   24.5245 C   0  0  0  0  0  0  0  0  0  0  0  0
    9.8360   13.0448   23.6733 C   0  0  0  0  0  0  0  0  0  0  0  0
   10.8335   14.0816   23.3401 C   0  0  0  0  0  0  0  0  0  0  0  0
   11.1802   14.7954   24.2103 O   0  0  0  0  0  0  0  0  0  0  0  0
   11.1661   14.1006   21.8817 N   0  0  0  0  0  0  0  0  0  0  0  0
   12.1200   14.9720   21.0992 C   0  0  0  0  0  0  0  0  0  0  0  0
   11.1428   15.0267   19.9496 C   0  0  0  0  0  0  0  0  0  0  0  0
   11.2331   13.9374   19.0237 O   0  0  0  0  0  0  0  0  0  0  0  0
   10.1472   14.9671   21.0730 C   0  0  0  0  0  0  0  0  0  0  0  0
    9.9337   11.7262   23.2321 C   0  0  0  0  0  0  0  0  0  0  0  0
    9.0658   10.7547   23.7204 C   0  0  0  0  0  0  0  0  0  0  0  0
    8.0629   11.1167   24.6290 C   0  0  0  0  0  0  0  0  0  0  0  0
    7.0266    9.8172   25.4725 Br  0  0  0  0  0  0  0  0  0  0  0  0
    7.8562   12.4556   25.0012 C   0  0  0  0  0  0  0  0  0  0  0  0
    6.9165   13.1677   25.8340 C   0  0  0  0  0  0  0  0  0  0  0  0
    5.7263   12.6365   26.5558 C   0  0  0  0  0  0  0  0  0  0  0  0
  1  2  1  0
  2  3  1  0
  3  4  1  0
  4  5  2  0
  5  6  1  0
  6  7  2  0
  6  8  1  0
  8  9  1  0
  9 10  1  0
 10 11  1  0
 10 12  1  0
  5 13  1  0
 13 14  2  0
 14 15  1  0
 15 16  1  0
 15 17  2  0
 17 18  1  0
 18 19  1  0
 18  2  2  0
 17  4  1  0
 12  8  1  0
M  END
>  <alias>  (1753) 
None

>  <rmsd(smina/fragmenstein)>  (1753) 
0.552

>  <smiles>  (1753) 
Cc1[nH]c2c(C(=O)N3CC(O)C3)ccc(Br)c2c1C

>  <gnina_score>  (1753) 
5.636

>  <inspiration_score>  (1753) 
None

>  <energy_score>  (1753) 
-0.477652

>  <distance_score>  (1753) 
1.206296

>  <gnina_score_min>  (1753) 
5.572

>  <inchikey>  (1753) 
DEOVEJLEZWBLEG-UHFFFAOYSA-N

>  <exports>  (1753) 
['/opt/xchem-fragalysis-2/maxwin/BulkDock/OUTPUTS/openbind_a71ev2a_c2_elabs_1LOUU54.sdf', '/opt/xchem-fragalysis-2/maxwin/BulkDock/OUTPUTS/openbind_a71ev2a_c2_elabs_1LSYIDY.sdf']

>  <name>  (1753) 
P585365

>  <ref_pdb>  (1753) 
A0566a

>  <subsites>  (1753) 
None

>  <HIPPO Pose ID>  (1753) 
585365

>  <ref_mols>  (1753) 
A0566a

>  <HIPPO Compound ID>  (1753) 
440381

>  <tags>  (1753) 
openbind_a71ev2a_c2_elabs,syndirella_product,openbind_a71ev2a_c2_elabs_fragonly_scored_top80percent,BulkDock Fragalysis export,openbind_a71ev2a_c2_elabs_scored,openbind_a71ev2a_c2_elabs_scored_top80percent,openbind_a71ev2a_c2_elabs_activefrags_only_scored_5.2plus,openbind_a71ev2a_c2_elabs_activefrags_only_scored_5.5plus,syndirella_placed

>  <smina_score_min>  (1753) 
-6.671

$$$$
P585367
     RDKit          3D

 19 20  0  0  0  0  0  0  0  0999 V2000
    6.4989   15.7326   26.5697 C   0  0  0  0  0  0  0  0  0  0  0  0
    7.0982   14.5218   25.9448 C   0  0  0  0  0  0  0  0  0  0  0  0
    8.1914   14.6109   25.1337 N   0  0  0  0  0  0  0  0  0  0  0  0
    8.5448   13.3774   24.6565 C   0  0  0  0  0  0  0  0  0  0  0  0
    9.5913   13.0043   23.8139 C   0  0  0  0  0  0  0  0  0  0  0  0
   10.5369   14.0354   23.3939 C   0  0  0  0  0  0  0  0  0  0  0  0
   11.1965   14.5671   24.1886 O   0  0  0  0  0  0  0  0  0  0  0  0
   10.3915   14.2906   21.8989 N   0  0  0  0  0  0  0  0  0  0  0  0
   11.0954   15.1938   21.0340 C   0  0  2  0  0  0  0  0  0  0  0  0
   10.3504   15.3970   19.7260 C   0  0  0  0  0  0  0  0  0  0  0  0
   12.5338   14.6910   20.8978 C   0  0  0  0  0  0  0  0  0  0  0  0
   12.7820   14.1084   19.6249 O   0  0  0  0  0  0  0  0  0  0  0  0
    9.7207   11.6770   23.4072 C   0  0  0  0  0  0  0  0  0  0  0  0
    8.8565   10.7215   23.9230 C   0  0  0  0  0  0  0  0  0  0  0  0
    7.8506   11.1109   24.8216 C   0  0  0  0  0  0  0  0  0  0  0  0
    6.7763    9.8384   25.6561 Br  0  0  0  0  0  0  0  0  0  0  0  0
    7.6459   12.4579   25.1727 C   0  0  0  0  0  0  0  0  0  0  0  0
    6.7242   13.1912   26.0037 C   0  0  0  0  0  0  0  0  0  0  0  0
    5.5638   12.6770   26.7841 C   0  0  0  0  0  0  0  0  0  0  0  0
  1  2  1  0
  2  3  1  0
  3  4  1  0
  4  5  2  0
  5  6  1  0
  6  7  2  0
  6  8  1  0
  8  9  1  0
  9 10  1  6
  9 11  1  0
 11 12  1  0
  5 13  1  0
 13 14  2  0
 14 15  1  0
 15 16  1  0
 15 17  2  0
 17 18  1  0
 18 19  1  0
 18  2  2  0
 17  4  1  0
M  END
>  <alias>  (1754) 
None

>  <rmsd(smina/fragmenstein)>  (1754) 
0.649

>  <smiles>  (1754) 
Cc1[nH]c2c(C(=O)N[C@H](C)CO)ccc(Br)c2c1C

>  <gnina_score>  (1754) 
5.501

>  <inspiration_score>  (1754) 
None

>  <energy_score>  (1754) 
-10.197017

>  <distance_score>  (1754) 
1.348035

>  <gnina_score_min>  (1754) 
5.553

>  <inchikey>  (1754) 
GVLCAZYNINLONH-SSDOTTSWSA-N

>  <exports>  (1754) 
['/opt/xchem-fragalysis-2/maxwin/BulkDock/OUTPUTS/openbind_a71ev2a_c2_elabs_1LOUU54.sdf', '/opt/xchem-fragalysis-2/maxwin/BulkDock/OUTPUTS/openbind_a71ev2a_c2_elabs_1LSYIDY.sdf']

>  <name>  (1754) 
P585367

>  <ref_pdb>  (1754) 
A0566a

>  <subsites>  (1754) 
None

>  <HIPPO Pose ID>  (1754) 
585367

>  <ref_mols>  (1754) 
A0566a

>  <HIPPO Compound ID>  (1754) 
440383

>  <tags>  (1754) 
openbind_a71ev2a_c2_elabs,syndirella_product,openbind_a71ev2a_c2_elabs_fragonly_scored_top80percent,BulkDock Fragalysis export,openbind_a71ev2a_c2_elabs_scored,openbind_a71ev2a_c2_elabs_scored_top80percent,openbind_a71ev2a_c2_elabs_activefrags_only_scored_5.2plus,openbind_a71ev2a_c2_elabs_activefrags_only_scored_5.5plus,syndirella_placed

>  <smina_score_min>  (1754) 
-6.959

$$$$
P585368
     RDKit          3D

 19 21  0  0  0  0  0  0  0  0999 V2000
    6.7334   15.7055   26.6852 C   0  0  0  0  0  0  0  0  0  0  0  0
    7.2975   14.5036   26.0134 C   0  0  0  0  0  0  0  0  0  0  0  0
    8.4608   14.5715   25.3062 N   0  0  0  0  0  0  0  0  0  0  0  0
    8.7735   13.3588   24.7481 C   0  0  0  0  0  0  0  0  0  0  0  0
    9.8758   12.9930   23.9643 C   0  0  0  0  0  0  0  0  0  0  0  0
   10.9226   14.0170   23.7406 C   0  0  0  0  0  0  0  0  0  0  0  0
   11.2232   14.7067   24.6265 O   0  0  0  0  0  0  0  0  0  0  0  0
   11.3615   14.0329   22.2850 N   0  0  0  0  0  0  0  0  0  0  0  0
   12.1894   14.9519   21.5762 C   0  0  0  0  0  0  0  0  0  0  0  0
   11.8392   14.9569   20.1295 C   0  0  0  0  0  0  0  0  0  0  0  0
   10.7226   15.8557   19.5765 C   0  0  0  0  0  0  0  0  0  0  0  0
   10.5739   14.3971   19.5816 C   0  0  0  0  0  0  0  0  0  0  0  0
    9.9101   11.6972   23.4425 C   0  0  0  0  0  0  0  0  0  0  0  0
    8.9706   10.7548   23.8499 C   0  0  0  0  0  0  0  0  0  0  0  0
    7.9531   11.1312   24.7364 C   0  0  0  0  0  0  0  0  0  0  0  0
    6.8770    9.8482   25.5580 Br  0  0  0  0  0  0  0  0  0  0  0  0
    7.7829   12.4680   25.1324 C   0  0  0  0  0  0  0  0  0  0  0  0
    6.8366   13.2022   25.9356 C   0  0  0  0  0  0  0  0  0  0  0  0
    5.5812   12.7128   26.5701 C   0  0  0  0  0  0  0  0  0  0  0  0
  1  2  1  0
  2  3  1  0
  3  4  1  0
  4  5  2  0
  5  6  1  0
  6  7  2  0
  6  8  1  0
  8  9  1  0
  9 10  1  0
 10 11  1  0
 11 12  1  0
  5 13  1  0
 13 14  2  0
 14 15  1  0
 15 16  1  0
 15 17  2  0
 17 18  1  0
 18 19  1  0
 18  2  2  0
 17  4  1  0
 12 10  1  0
M  END
>  <alias>  (1755) 
None

>  <rmsd(smina/fragmenstein)>  (1755) 
0.891

>  <smiles>  (1755) 
Cc1[nH]c2c(C(=O)NCC3CC3)ccc(Br)c2c1C

>  <gnina_score>  (1755) 
5.043

>  <inspiration_score>  (1755) 
None

>  <energy_score>  (1755) 
-12.358285

>  <distance_score>  (1755) 
1.211885

>  <gnina_score_min>  (1755) 
5.375

>  <inchikey>  (1755) 
MDNGBGIOQBASEF-UHFFFAOYSA-N

>  <exports>  (1755) 
['/opt/xchem-fragalysis-2/maxwin/BulkDock/OUTPUTS/openbind_a71ev2a_c2_elabs_1LOUU54.sdf', '/opt/xchem-fragalysis-2/maxwin/BulkDock/OUTPUTS/openbind_a71ev2a_c2_elabs_1LSYIDY.sdf']

>  <name>  (1755) 
P585368

>  <ref_pdb>  (1755) 
A0566a

>  <subsites>  (1755) 
None

>  <HIPPO Pose ID>  (1755) 
585368

>  <ref_mols>  (1755) 
A0566a

>  <HIPPO Compound ID>  (1755) 
440386

>  <tags>  (1755) 
openbind_a71ev2a_c2_elabs,syndirella_product,openbind_a71ev2a_c2_elabs_fragonly_scored_top80percent,openbind_a71ev2a_c2_elabs_scored,BulkDock Fragalysis export,openbind_a71ev2a_c2_elabs_scored_top80percent,openbind_a71ev2a_c2_elabs_activefrags_only_scored_5.2plus,syndirella_placed

>  <smina_score_min>  (1755) 
-6.569

$$$$
P585370
     RDKit          3D

 19 20  0  0  0  0  0  0  0  0999 V2000
    6.3343   10.0174   26.0066 C   0  0  0  0  0  0  0  0  0  0  0  0
    7.3197   10.8284   25.2291 C   0  0  0  0  0  0  0  0  0  0  0  0
    8.3125   10.1902   24.4498 C   0  0  0  0  0  0  0  0  0  0  0  0
    9.2406   10.9026   23.7133 C   0  0  0  0  0  0  0  0  0  0  0  0
    9.2043   12.2837   23.7745 C   0  0  0  0  0  0  0  0  0  0  0  0
   10.2634   13.0666   23.1688 C   0  0  0  0  0  0  0  0  0  0  0  0
   11.3586   12.8960   23.5247 O   0  0  0  0  0  0  0  0  0  0  0  0
    9.6837   14.0958   22.1852 N   0  0  0  0  0  0  0  0  0  0  0  0
   10.3418   15.0722   21.3588 C   0  0  0  0  0  0  0  0  0  0  0  0
   11.6744   15.4653   21.9971 C   0  0  0  0  0  0  0  0  0  0  0  0
   12.7418   14.5237   21.7330 N   0  0  0  0  0  0  0  0  0  0  0  0
   12.9016   14.4736   20.2918 O   0  0  0  0  0  0  0  0  0  0  0  0
    8.2360   12.9371   24.5407 C   0  0  0  0  0  0  0  0  0  0  0  0
    8.0325   14.2768   24.7748 N   0  0  0  0  0  0  0  0  0  0  0  0
    6.9591   14.4541   25.5965 C   0  0  0  0  0  0  0  0  0  0  0  0
    6.4709   13.2093   25.9227 C   0  0  0  0  0  0  0  0  0  0  0  0
    5.3489   13.0010   26.7863 C   0  0  0  0  0  0  0  0  0  0  0  0
    4.4569   12.8133   27.5059 N   0  0  0  0  0  0  0  0  0  0  0  0
    7.2843   12.2365   25.2684 C   0  0  0  0  0  0  0  0  0  0  0  0
  1  2  1  0
  2  3  2  0
  3  4  1  0
  4  5  2  0
  5  6  1  0
  6  7  2  0
  6  8  1  0
  8  9  1  0
  9 10  1  0
 10 11  1  0
 11 12  1  0
  5 13  1  0
 13 14  1  0
 14 15  1  0
 15 16  2  0
 16 17  1  0
 17 18  3  0
 16 19  1  0
 19  2  1  0
 19 13  2  0
M  END
>  <alias>  (1756) 
None

>  <rmsd(smina/fragmenstein)>  (1756) 
1.087

>  <smiles>  (1756) 
Cc1ccc(C(=O)NCCNO)c2[nH]cc(C#N)c12

>  <gnina_score>  (1756) 
5.011

>  <inspiration_score>  (1756) 
None

>  <energy_score>  (1756) 
-7.385807

>  <distance_score>  (1756) 
1.599062

>  <gnina_score_min>  (1756) 
5.307

>  <inchikey>  (1756) 
QVLBWRLZLXPQLT-UHFFFAOYSA-N

>  <exports>  (1756) 
['/opt/xchem-fragalysis-2/maxwin/BulkDock/OUTPUTS/openbind_a71ev2a_c2_elabs_1LOUU54.sdf', '/opt/xchem-fragalysis-2/maxwin/BulkDock/OUTPUTS/openbind_a71ev2a_c2_elabs_1LSYIDY.sdf']

>  <name>  (1756) 
P585370

>  <ref_pdb>  (1756) 
A0566a

>  <subsites>  (1756) 
None

>  <HIPPO Pose ID>  (1756) 
585370

>  <ref_mols>  (1756) 
A0566a

>  <HIPPO Compound ID>  (1756) 
440389

>  <tags>  (1756) 
openbind_a71ev2a_c2_elabs,syndirella_product,openbind_a71ev2a_c2_elabs_fragonly_scored_top80percent,openbind_a71ev2a_c2_elabs_scored,BulkDock Fragalysis export,openbind_a71ev2a_c2_elabs_scored_top80percent,openbind_a71ev2a_c2_elabs_activefrags_only_scored_5.2plus,syndirella_placed

>  <smina_score_min>  (1756) 
-6.797

$$$$
P585371
     RDKit          3D

 19 20  0  0  0  0  0  0  0  0999 V2000
    7.1791    9.7371   25.3759 C   0  0  0  0  0  0  0  0  0  0  0  0
    7.8895   10.8706   24.7331 C   0  0  0  0  0  0  0  0  0  0  0  0
    8.9451   10.6301   23.8277 C   0  0  0  0  0  0  0  0  0  0  0  0
    9.7040   11.6806   23.3373 C   0  0  0  0  0  0  0  0  0  0  0  0
    9.4145   12.9817   23.7408 C   0  0  0  0  0  0  0  0  0  0  0  0
   10.3203   14.0799   23.4262 C   0  0  0  0  0  0  0  0  0  0  0  0
   10.8100   14.6627   24.3051 O   0  0  0  0  0  0  0  0  0  0  0  0
   10.4582   14.2636   21.9182 N   0  0  0  0  0  0  0  0  0  0  0  0
   11.3032   15.1447   21.1568 C   0  0  1  0  0  0  0  0  0  0  0  0
   12.7230   14.7938   21.5390 C   0  0  0  0  0  0  0  0  0  0  0  0
   11.1058   15.0116   19.6415 C   0  0  0  0  0  0  0  0  0  0  0  0
    9.9431   16.2556   19.0360 S   0  0  0  0  0  0  0  0  0  0  0  0
    8.3221   13.2253   24.5685 C   0  0  0  0  0  0  0  0  0  0  0  0
    7.8215   14.4075   25.0584 N   0  0  0  0  0  0  0  0  0  0  0  0
    6.7567   14.1625   25.8764 C   0  0  0  0  0  0  0  0  0  0  0  0
    6.5621   12.8006   25.9169 C   0  0  0  0  0  0  0  0  0  0  0  0
    5.5540   12.1706   26.7112 C   0  0  0  0  0  0  0  0  0  0  0  0
    4.7660   11.6578   27.3933 N   0  0  0  0  0  0  0  0  0  0  0  0
    7.5430   12.1954   25.0743 C   0  0  0  0  0  0  0  0  0  0  0  0
  1  2  1  0
  2  3  2  0
  3  4  1  0
  4  5  2  0
  5  6  1  0
  6  7  2  0
  6  8  1  0
  8  9  1  0
  9 10  1  6
  9 11  1  0
 11 12  1  0
  5 13  1  0
 13 14  1  0
 14 15  1  0
 15 16  2  0
 16 17  1  0
 17 18  3  0
 16 19  1  0
 19  2  1  0
 19 13  2  0
M  END
>  <alias>  (1757) 
None

>  <rmsd(smina/fragmenstein)>  (1757) 
0.59

>  <smiles>  (1757) 
Cc1ccc(C(=O)N[C@@H](C)CS)c2[nH]cc(C#N)c12

>  <gnina_score>  (1757) 
5.377

>  <inspiration_score>  (1757) 
None

>  <energy_score>  (1757) 
-18.228127

>  <distance_score>  (1757) 
1.257038

>  <gnina_score_min>  (1757) 
5.473

>  <inchikey>  (1757) 
IEILFVIWHXSFRP-VIFPVBQESA-N

>  <exports>  (1757) 
['/opt/xchem-fragalysis-2/maxwin/BulkDock/OUTPUTS/openbind_a71ev2a_c2_elabs_1LOUU54.sdf', '/opt/xchem-fragalysis-2/maxwin/BulkDock/OUTPUTS/openbind_a71ev2a_c2_elabs_1LSYIDY.sdf']

>  <name>  (1757) 
P585371

>  <ref_pdb>  (1757) 
A0566a

>  <subsites>  (1757) 
None

>  <HIPPO Pose ID>  (1757) 
585371

>  <ref_mols>  (1757) 
A0566a

>  <HIPPO Compound ID>  (1757) 
440392

>  <tags>  (1757) 
openbind_a71ev2a_c2_elabs,syndirella_product,openbind_a71ev2a_c2_elabs_fragonly_scored_top80percent,openbind_a71ev2a_c2_elabs_scored,BulkDock Fragalysis export,openbind_a71ev2a_c2_elabs_scored_top80percent,openbind_a71ev2a_c2_elabs_activefrags_only_scored_5.2plus,syndirella_placed

>  <smina_score_min>  (1757) 
-6.049

$$$$
P585376
     RDKit          3D

 19 20  0  0  0  0  0  0  0  0999 V2000
    7.2785    9.8116   25.3353 C   0  0  0  0  0  0  0  0  0  0  0  0
    7.9948   10.9545   24.7091 C   0  0  0  0  0  0  0  0  0  0  0  0
    9.0725   10.7240   23.8306 C   0  0  0  0  0  0  0  0  0  0  0  0
    9.8128   11.7859   23.3326 C   0  0  0  0  0  0  0  0  0  0  0  0
    9.4774   13.0917   23.6836 C   0  0  0  0  0  0  0  0  0  0  0  0
   10.2381   14.2043   23.1187 C   0  0  0  0  0  0  0  0  0  0  0  0
   11.2362   14.5534   23.5994 O   0  0  0  0  0  0  0  0  0  0  0  0
    9.5412   14.6619   21.8371 N   0  0  0  0  0  0  0  0  0  0  0  0
    9.9694   15.5833   20.8171 C   0  0  0  0  0  0  0  0  0  0  0  0
   10.8542   14.8241   19.8300 C   0  0  2  0  0  0  0  0  0  0  0  0
   12.2466   14.5391   20.3765 C   0  0  0  0  0  0  0  0  0  0  0  0
   10.8422   15.6102   18.1961 S   0  0  0  0  0  0  0  0  0  0  0  0
    8.3680   13.3271   24.4892 C   0  0  0  0  0  0  0  0  0  0  0  0
    7.7914   14.5034   24.9029 N   0  0  0  0  0  0  0  0  0  0  0  0
    6.7425   14.2420   25.7378 C   0  0  0  0  0  0  0  0  0  0  0  0
    6.6099   12.8760   25.8370 C   0  0  0  0  0  0  0  0  0  0  0  0
    5.6205   12.2329   26.6449 C   0  0  0  0  0  0  0  0  0  0  0  0
    4.8480   11.7078   27.3349 N   0  0  0  0  0  0  0  0  0  0  0  0
    7.6208   12.2815   25.0227 C   0  0  0  0  0  0  0  0  0  0  0  0
  1  2  1  0
  2  3  2  0
  3  4  1  0
  4  5  2  0
  5  6  1  0
  6  7  2  0
  6  8  1  0
  8  9  1  0
  9 10  1  0
 10 11  1  1
 10 12  1  0
  5 13  1  0
 13 14  1  0
 14 15  1  0
 15 16  2  0
 16 17  1  0
 17 18  3  0
 16 19  1  0
 19  2  1  0
 19 13  2  0
M  END
>  <alias>  (1758) 
None

>  <rmsd(smina/fragmenstein)>  (1758) 
1.329

>  <smiles>  (1758) 
Cc1ccc(C(=O)NC[C@H](C)S)c2[nH]cc(C#N)c12

>  <gnina_score>  (1758) 
5.008

>  <inspiration_score>  (1758) 
None

>  <energy_score>  (1758) 
-1.635558

>  <distance_score>  (1758) 
1.462978

>  <gnina_score_min>  (1758) 
5.409

>  <inchikey>  (1758) 
YWXGDIOTQRXVIC-VIFPVBQESA-N

>  <exports>  (1758) 
['/opt/xchem-fragalysis-2/maxwin/BulkDock/OUTPUTS/openbind_a71ev2a_c2_elabs_1LOUU54.sdf', '/opt/xchem-fragalysis-2/maxwin/BulkDock/OUTPUTS/openbind_a71ev2a_c2_elabs_1LSYIDY.sdf']

>  <name>  (1758) 
P585376

>  <ref_pdb>  (1758) 
A0566a

>  <subsites>  (1758) 
None

>  <HIPPO Pose ID>  (1758) 
585376

>  <ref_mols>  (1758) 
A0566a

>  <HIPPO Compound ID>  (1758) 
440401

>  <tags>  (1758) 
openbind_a71ev2a_c2_elabs,syndirella_product,openbind_a71ev2a_c2_elabs_fragonly_scored_top80percent,openbind_a71ev2a_c2_elabs_scored,BulkDock Fragalysis export,openbind_a71ev2a_c2_elabs_scored_top80percent,openbind_a71ev2a_c2_elabs_activefrags_only_scored_5.2plus,syndirella_placed

>  <smina_score_min>  (1758) 
-6.113

$$$$
P585378
     RDKit          3D

 19 20  0  0  0  0  0  0  0  0999 V2000
   11.1937   14.8992   19.2194 C   0  0  0  0  0  0  0  0  0  0  0  0
   10.2656   15.8123   19.5336 C   0  0  0  0  0  0  0  0  0  0  0  0
    9.7213   16.9687   18.3652 Cl  0  0  0  0  0  0  0  0  0  0  0  0
    9.7234   16.0724   20.8884 C   0  0  0  0  0  0  0  0  0  0  0  0
    9.5269   14.8831   21.6614 N   0  0  0  0  0  0  0  0  0  0  0  0
   10.3531   14.2941   22.8098 C   0  0  0  0  0  0  0  0  0  0  0  0
   11.3673   14.6378   23.2626 O   0  0  0  0  0  0  0  0  0  0  0  0
    9.6095   13.1838   23.4182 C   0  0  0  0  0  0  0  0  0  0  0  0
    9.9403   11.8566   23.1668 C   0  0  0  0  0  0  0  0  0  0  0  0
    9.1893   10.8344   23.7328 C   0  0  0  0  0  0  0  0  0  0  0  0
    8.1375   11.1512   24.6027 C   0  0  0  0  0  0  0  0  0  0  0  0
    7.1573    9.8001   25.4249 Br  0  0  0  0  0  0  0  0  0  0  0  0
    7.7886   12.4835   24.8907 C   0  0  0  0  0  0  0  0  0  0  0  0
    6.8156   13.1438   25.7250 C   0  0  0  0  0  0  0  0  0  0  0  0
    5.8031   12.5384   26.6356 C   0  0  0  0  0  0  0  0  0  0  0  0
    6.9696   14.5022   25.5205 C   0  0  0  0  0  0  0  0  0  0  0  0
    6.2187   15.6616   26.0746 C   0  0  0  0  0  0  0  0  0  0  0  0
    7.9793   14.6772   24.6191 N   0  0  0  0  0  0  0  0  0  0  0  0
    8.5298   13.4748   24.2603 C   0  0  0  0  0  0  0  0  0  0  0  0
  1  2  2  0
  2  3  1  0
  2  4  1  0
  4  5  1  0
  5  6  1  0
  6  7  2  0
  6  8  1  0
  8  9  2  0
  9 10  1  0
 10 11  2  0
 11 12  1  0
 11 13  1  0
 13 14  1  0
 14 15  1  0
 14 16  2  0
 16 17  1  0
 16 18  1  0
 18 19  1  0
 19  8  1  0
 19 13  2  0
M  END
>  <alias>  (1759) 
None

>  <rmsd(smina/fragmenstein)>  (1759) 
0.589

>  <smiles>  (1759) 
C=C(Cl)CNC(=O)c1ccc(Br)c2c(C)c(C)[nH]c12

>  <gnina_score>  (1759) 
5.401

>  <inspiration_score>  (1759) 
None

>  <energy_score>  (1759) 
-7.570374

>  <distance_score>  (1759) 
1.559012

>  <gnina_score_min>  (1759) 
5.333

>  <inchikey>  (1759) 
XJFUFINYAAIXPV-UHFFFAOYSA-N

>  <exports>  (1759) 
['/opt/xchem-fragalysis-2/maxwin/BulkDock/OUTPUTS/openbind_a71ev2a_c2_elabs_1LOUU54.sdf', '/opt/xchem-fragalysis-2/maxwin/BulkDock/OUTPUTS/openbind_a71ev2a_c2_elabs_1LSYIDY.sdf']

>  <name>  (1759) 
P585378

>  <ref_pdb>  (1759) 
A0566a

>  <subsites>  (1759) 
None

>  <HIPPO Pose ID>  (1759) 
585378

>  <ref_mols>  (1759) 
A0566a

>  <HIPPO Compound ID>  (1759) 
440411

>  <tags>  (1759) 
openbind_a71ev2a_c2_elabs,syndirella_product,openbind_a71ev2a_c2_elabs_fragonly_scored_top80percent,openbind_a71ev2a_c2_elabs_scored,BulkDock Fragalysis export,openbind_a71ev2a_c2_elabs_scored_top80percent,openbind_a71ev2a_c2_elabs_activefrags_only_scored_5.2plus,syndirella_placed

>  <smina_score_min>  (1759) 
-5.929

$$$$
P585379
     RDKit          3D

 19 20  0  0  0  0  0  0  0  0999 V2000
   10.3173   15.6487   19.5463 C   0  0  0  0  0  0  0  0  0  0  0  0
   10.5519   15.3984   20.8369 C   0  0  0  0  0  0  0  0  0  0  0  0
   11.9203   15.2945   21.4499 C   0  0  0  0  0  0  0  0  0  0  0  0
   12.3287   13.9074   21.8668 C   0  0  0  0  0  0  0  0  0  0  0  0
   11.2924   13.2452   22.5586 N   0  0  0  0  0  0  0  0  0  0  0  0
   10.6555   13.5438   23.9030 C   0  0  0  0  0  0  0  0  0  0  0  0
   10.9261   14.3388   24.7052 O   0  0  0  0  0  0  0  0  0  0  0  0
    9.4759   12.6849   24.1242 C   0  0  0  0  0  0  0  0  0  0  0  0
    9.4334   11.3299   23.7784 C   0  0  0  0  0  0  0  0  0  0  0  0
    8.4357   10.5231   24.3067 C   0  0  0  0  0  0  0  0  0  0  0  0
    7.4448   11.0802   25.1280 C   0  0  0  0  0  0  0  0  0  0  0  0
    6.2912    9.9868   26.1216 Br  0  0  0  0  0  0  0  0  0  0  0  0
    7.3660   12.4675   25.3376 C   0  0  0  0  0  0  0  0  0  0  0  0
    6.4869   13.3636   26.0430 C   0  0  0  0  0  0  0  0  0  0  0  0
    5.2095   13.0486   26.7410 C   0  0  0  0  0  0  0  0  0  0  0  0
    7.0437   14.6270   25.9622 C   0  0  0  0  0  0  0  0  0  0  0  0
    6.5859   15.9381   26.4972 C   0  0  0  0  0  0  0  0  0  0  0  0
    8.1930   14.5255   25.2377 N   0  0  0  0  0  0  0  0  0  0  0  0
    8.4052   13.2327   24.8346 C   0  0  0  0  0  0  0  0  0  0  0  0
  1  2  2  0
  2  3  1  0
  3  4  1  0
  4  5  1  0
  5  6  1  0
  6  7  2  0
  6  8  1  0
  8  9  2  0
  9 10  1  0
 10 11  2  0
 11 12  1  0
 11 13  1  0
 13 14  1  0
 14 15  1  0
 14 16  2  0
 16 17  1  0
 16 18  1  0
 18 19  1  0
 19  8  1  0
 19 13  2  0
M  END
>  <alias>  (1760) 
None

>  <rmsd(smina/fragmenstein)>  (1760) 
0.793

>  <smiles>  (1760) 
C=CCCNC(=O)c1ccc(Br)c2c(C)c(C)[nH]c12

>  <gnina_score>  (1760) 
5.403

>  <inspiration_score>  (1760) 
None

>  <energy_score>  (1760) 
-11.69306

>  <distance_score>  (1760) 
1.526115

>  <gnina_score_min>  (1760) 
5.354

>  <inchikey>  (1760) 
QUWTWNWHJBCMMQ-UHFFFAOYSA-N

>  <exports>  (1760) 
['/opt/xchem-fragalysis-2/maxwin/BulkDock/OUTPUTS/openbind_a71ev2a_c2_elabs_1LOUU54.sdf', '/opt/xchem-fragalysis-2/maxwin/BulkDock/OUTPUTS/openbind_a71ev2a_c2_elabs_1LSYIDY.sdf']

>  <name>  (1760) 
P585379

>  <ref_pdb>  (1760) 
A0566a

>  <subsites>  (1760) 
None

>  <HIPPO Pose ID>  (1760) 
585379

>  <ref_mols>  (1760) 
A0566a

>  <HIPPO Compound ID>  (1760) 
440412

>  <tags>  (1760) 
openbind_a71ev2a_c2_elabs,syndirella_product,openbind_a71ev2a_c2_elabs_fragonly_scored_top80percent,openbind_a71ev2a_c2_elabs_scored,BulkDock Fragalysis export,openbind_a71ev2a_c2_elabs_scored_top80percent,openbind_a71ev2a_c2_elabs_activefrags_only_scored_5.2plus,syndirella_placed

>  <smina_score_min>  (1760) 
-6.211

$$$$
P585381
     RDKit          3D

 19 21  0  0  0  0  0  0  0  0999 V2000
    6.3497   15.9746   26.1680 C   0  0  0  0  0  0  0  0  0  0  0  0
    6.7775   14.6005   25.7900 C   0  0  0  0  0  0  0  0  0  0  0  0
    7.8978   14.3982   25.0409 N   0  0  0  0  0  0  0  0  0  0  0  0
    8.0845   13.0613   24.7985 C   0  0  0  0  0  0  0  0  0  0  0  0
    9.1400   12.4105   24.1538 C   0  0  0  0  0  0  0  0  0  0  0  0
   10.3633   13.1889   23.9841 C   0  0  0  0  0  0  0  0  0  0  0  0
   10.6789   13.8743   24.8748 O   0  0  0  0  0  0  0  0  0  0  0  0
   10.9809   13.0219   22.5891 N   0  0  0  0  0  0  0  0  0  0  0  0
   12.1061   13.5577   22.0532 N   0  0  0  0  0  0  0  0  0  0  0  0
   12.6238   14.6353   22.8931 C   0  0  0  0  0  0  0  0  0  0  0  0
   12.7567   15.4992   21.6674 C   0  0  0  0  0  0  0  0  0  0  0  0
   11.7853   14.5348   20.9928 C   0  0  0  0  0  0  0  0  0  0  0  0
    9.1012   11.0329   23.9668 C   0  0  0  0  0  0  0  0  0  0  0  0
    8.1070   10.3149   24.6180 C   0  0  0  0  0  0  0  0  0  0  0  0
    7.1319   10.9719   25.3937 C   0  0  0  0  0  0  0  0  0  0  0  0
    5.9863   10.0135   26.5430 Br  0  0  0  0  0  0  0  0  0  0  0  0
    7.0633   12.3752   25.4313 C   0  0  0  0  0  0  0  0  0  0  0  0
    6.2244   13.3616   26.0608 C   0  0  0  0  0  0  0  0  0  0  0  0
    4.9930   13.1493   26.8724 C   0  0  0  0  0  0  0  0  0  0  0  0
  1  2  1  0
  2  3  1  0
  3  4  1  0
  4  5  2  0
  5  6  1  0
  6  7  2  0
  6  8  1  0
  8  9  1  0
  9 10  1  0
 10 11  1  0
 11 12  1  0
  5 13  1  0
 13 14  2  0
 14 15  1  0
 15 16  1  0
 15 17  2  0
 17 18  1  0
 18 19  1  0
 18  2  2  0
 17  4  1  0
 12  9  1  0
M  END
>  <alias>  (1761) 
None

>  <rmsd(smina/fragmenstein)>  (1761) 
0.878

>  <smiles>  (1761) 
Cc1[nH]c2c(C(=O)NN3CCC3)ccc(Br)c2c1C

>  <gnina_score>  (1761) 
5.472

>  <inspiration_score>  (1761) 
None

>  <energy_score>  (1761) 
-5.805344

>  <distance_score>  (1761) 
1.742245

>  <gnina_score_min>  (1761) 
5.319

>  <inchikey>  (1761) 
FNAOFCLGXBOOQL-UHFFFAOYSA-N

>  <exports>  (1761) 
['/opt/xchem-fragalysis-2/maxwin/BulkDock/OUTPUTS/openbind_a71ev2a_c2_elabs_1LOUU54.sdf', '/opt/xchem-fragalysis-2/maxwin/BulkDock/OUTPUTS/openbind_a71ev2a_c2_elabs_1LSYIDY.sdf']

>  <name>  (1761) 
P585381

>  <ref_pdb>  (1761) 
A0566a

>  <subsites>  (1761) 
None

>  <HIPPO Pose ID>  (1761) 
585381

>  <ref_mols>  (1761) 
A0566a

>  <HIPPO Compound ID>  (1761) 
440415

>  <tags>  (1761) 
openbind_a71ev2a_c2_elabs,syndirella_product,openbind_a71ev2a_c2_elabs_fragonly_scored_top80percent,openbind_a71ev2a_c2_elabs_scored,BulkDock Fragalysis export,openbind_a71ev2a_c2_elabs_scored_top80percent,openbind_a71ev2a_c2_elabs_activefrags_only_scored_5.2plus,syndirella_placed

>  <smina_score_min>  (1761) 
-6.321

$$$$
P585382
     RDKit          3D

 19 20  0  0  0  0  0  0  0  0999 V2000
   12.5479   14.3405   20.4643 C   0  0  0  0  0  0  0  0  0  0  0  0
   11.2583   14.9070   19.9225 C   0  0  0  0  0  0  0  0  0  0  0  0
   10.4764   15.6129   21.0242 C   0  0  1  0  0  0  0  0  0  0  0  0
    9.3712   16.4456   20.4134 C   0  0  0  0  0  0  0  0  0  0  0  0
    9.9438   14.6363   21.9393 N   0  0  0  0  0  0  0  0  0  0  0  0
   10.5767   13.9727   23.1658 C   0  0  0  0  0  0  0  0  0  0  0  0
   11.6012   14.1625   23.6814 O   0  0  0  0  0  0  0  0  0  0  0  0
    9.6510   12.9731   23.6968 C   0  0  0  0  0  0  0  0  0  0  0  0
    9.7782   11.6289   23.3544 C   0  0  0  0  0  0  0  0  0  0  0  0
    8.9106   10.6955   23.9036 C   0  0  0  0  0  0  0  0  0  0  0  0
    7.9043   11.1207   24.7836 C   0  0  0  0  0  0  0  0  0  0  0  0
    6.8150    9.8759   25.6476 Br  0  0  0  0  0  0  0  0  0  0  0  0
    7.7100   12.4825   25.0853 C   0  0  0  0  0  0  0  0  0  0  0  0
    6.7871   13.2488   25.8856 C   0  0  0  0  0  0  0  0  0  0  0  0
    5.6176   12.7612   26.6697 C   0  0  0  0  0  0  0  0  0  0  0  0
    7.1749   14.5736   25.7892 C   0  0  0  0  0  0  0  0  0  0  0  0
    6.6008   15.8161   26.3745 C   0  0  0  0  0  0  0  0  0  0  0  0
    8.2644   14.6310   24.9675 N   0  0  0  0  0  0  0  0  0  0  0  0
    8.6103   13.3814   24.5304 C   0  0  0  0  0  0  0  0  0  0  0  0
  1  2  1  0
  2  3  1  0
  3  4  1  6
  3  5  1  0
  5  6  1  0
  6  7  2  0
  6  8  1  0
  8  9  2  0
  9 10  1  0
 10 11  2  0
 11 12  1  0
 11 13  1  0
 13 14  1  0
 14 15  1  0
 14 16  2  0
 16 17  1  0
 16 18  1  0
 18 19  1  0
 19  8  1  0
 19 13  2  0
M  END
>  <alias>  (1762) 
None

>  <rmsd(smina/fragmenstein)>  (1762) 
0.515

>  <smiles>  (1762) 
CC[C@@H](C)NC(=O)c1ccc(Br)c2c(C)c(C)[nH]c12

>  <gnina_score>  (1762) 
5.136

>  <inspiration_score>  (1762) 
None

>  <energy_score>  (1762) 
-2.235495

>  <distance_score>  (1762) 
1.376504

>  <gnina_score_min>  (1762) 
5.264

>  <inchikey>  (1762) 
GQCOFKLRFOYFLW-MRVPVSSYSA-N

>  <exports>  (1762) 
['/opt/xchem-fragalysis-2/maxwin/BulkDock/OUTPUTS/openbind_a71ev2a_c2_elabs_1LOUU54.sdf', '/opt/xchem-fragalysis-2/maxwin/BulkDock/OUTPUTS/openbind_a71ev2a_c2_elabs_1LSYIDY.sdf']

>  <name>  (1762) 
P585382

>  <ref_pdb>  (1762) 
A0566a

>  <subsites>  (1762) 
None

>  <HIPPO Pose ID>  (1762) 
585382

>  <ref_mols>  (1762) 
A0566a

>  <HIPPO Compound ID>  (1762) 
440417

>  <tags>  (1762) 
openbind_a71ev2a_c2_elabs,syndirella_product,openbind_a71ev2a_c2_elabs_fragonly_scored_top80percent,openbind_a71ev2a_c2_elabs_scored,BulkDock Fragalysis export,openbind_a71ev2a_c2_elabs_scored_top80percent,openbind_a71ev2a_c2_elabs_activefrags_only_scored_5.2plus,syndirella_placed

>  <smina_score_min>  (1762) 
-5.864

$$$$
P585384
     RDKit          3D

 19 21  0  0  0  0  0  0  0  0999 V2000
    6.5697   15.7228   26.7091 C   0  0  0  0  0  0  0  0  0  0  0  0
    7.1446   14.5107   26.0640 C   0  0  0  0  0  0  0  0  0  0  0  0
    8.2724   14.5817   25.3009 N   0  0  0  0  0  0  0  0  0  0  0  0
    8.5940   13.3513   24.7933 C   0  0  0  0  0  0  0  0  0  0  0  0
    9.6561   12.9657   23.9768 C   0  0  0  0  0  0  0  0  0  0  0  0
   10.6077   14.0030   23.5843 C   0  0  0  0  0  0  0  0  0  0  0  0
   11.2978   14.5112   24.3672 O   0  0  0  0  0  0  0  0  0  0  0  0
   10.4137   14.2928   22.1029 N   0  0  0  0  0  0  0  0  0  0  0  0
   11.0990   15.2159   21.2295 C   0  0  0  0  0  0  0  0  0  0  0  0
   10.2734   15.5922   19.9828 C   0  0  0  0  0  0  0  0  0  0  0  0
   11.4250   14.7412   18.8892 S   0  0  0  0  0  0  0  0  0  0  0  0
   12.2558   14.5513   20.4774 C   0  0  0  0  0  0  0  0  0  0  0  0
    9.7350   11.6549   23.5073 C   0  0  0  0  0  0  0  0  0  0  0  0
    8.8286   10.7137   23.9752 C   0  0  0  0  0  0  0  0  0  0  0  0
    7.8200   11.1077   24.8693 C   0  0  0  0  0  0  0  0  0  0  0  0
    6.7200    9.8442   25.6839 Br  0  0  0  0  0  0  0  0  0  0  0  0
    7.6442   12.4513   25.2472 C   0  0  0  0  0  0  0  0  0  0  0  0
    6.7186   13.1944   26.0645 C   0  0  0  0  0  0  0  0  0  0  0  0
    5.5086   12.7015   26.7807 C   0  0  0  0  0  0  0  0  0  0  0  0
  1  2  1  0
  2  3  1  0
  3  4  1  0
  4  5  2  0
  5  6  1  0
  6  7  2  0
  6  8  1  0
  8  9  1  0
  9 10  1  0
 10 11  1  0
 11 12  1  0
  5 13  1  0
 13 14  2  0
 14 15  1  0
 15 16  1  0
 15 17  2  0
 17 18  1  0
 18 19  1  0
 18  2  2  0
 17  4  1  0
 12  9  1  0
M  END
>  <alias>  (1763) 
None

>  <rmsd(smina/fragmenstein)>  (1763) 
0.563

>  <smiles>  (1763) 
Cc1[nH]c2c(C(=O)NC3CSC3)ccc(Br)c2c1C

>  <gnina_score>  (1763) 
5.343

>  <inspiration_score>  (1763) 
None

>  <energy_score>  (1763) 
-8.844545

>  <distance_score>  (1763) 
1.331206

>  <gnina_score_min>  (1763) 
5.468

>  <inchikey>  (1763) 
VLAVONXOMXVEAS-UHFFFAOYSA-N

>  <exports>  (1763) 
['/opt/xchem-fragalysis-2/maxwin/BulkDock/OUTPUTS/openbind_a71ev2a_c2_elabs_1LOUU54.sdf', '/opt/xchem-fragalysis-2/maxwin/BulkDock/OUTPUTS/openbind_a71ev2a_c2_elabs_1LSYIDY.sdf']

>  <name>  (1763) 
P585384

>  <ref_pdb>  (1763) 
A0566a

>  <subsites>  (1763) 
None

>  <HIPPO Pose ID>  (1763) 
585384

>  <ref_mols>  (1763) 
A0566a

>  <HIPPO Compound ID>  (1763) 
440419

>  <tags>  (1763) 
openbind_a71ev2a_c2_elabs,syndirella_product,openbind_a71ev2a_c2_elabs_fragonly_scored_top80percent,openbind_a71ev2a_c2_elabs_scored,BulkDock Fragalysis export,openbind_a71ev2a_c2_elabs_scored_top80percent,openbind_a71ev2a_c2_elabs_activefrags_only_scored_5.2plus,syndirella_placed

>  <smina_score_min>  (1763) 
-5.992

$$$$
P585385
     RDKit          3D

 19 20  0  0  0  0  0  0  0  0999 V2000
    6.7073   15.9364   25.1003 C   0  0  0  0  0  0  0  0  0  0  0  0
    7.2568   14.5616   24.9808 C   0  0  0  0  0  0  0  0  0  0  0  0
    8.3953   14.3090   24.2721 N   0  0  0  0  0  0  0  0  0  0  0  0
    8.6098   12.9596   24.1660 C   0  0  0  0  0  0  0  0  0  0  0  0
    9.6126   12.2511   23.4875 C   0  0  0  0  0  0  0  0  0  0  0  0
   10.7368   13.0003   22.9188 C   0  0  0  0  0  0  0  0  0  0  0  0
   11.8005   12.8830   23.3786 O   0  0  0  0  0  0  0  0  0  0  0  0
   10.2289   13.9312   21.8060 N   0  0  0  0  0  0  0  0  0  0  0  0
   10.9054   14.9909   21.0815 C   0  0  0  0  0  0  0  0  0  0  0  0
   11.9479   15.5678   22.0449 C   0  0  0  0  0  0  0  0  0  0  0  0
   11.6053   14.4809   19.8222 C   0  0  0  0  0  0  0  0  0  0  0  0
    9.8171   15.9861   20.6473 C   0  0  0  0  0  0  0  0  0  0  0  0
    9.5775   10.8659   23.4743 C   0  0  0  0  0  0  0  0  0  0  0  0
    8.6066   10.2118   24.2184 C   0  0  0  0  0  0  0  0  0  0  0  0
    7.6592   10.9293   24.9640 C   0  0  0  0  0  0  0  0  0  0  0  0
    6.4249   10.0423   26.0687 Br  0  0  0  0  0  0  0  0  0  0  0  0
    7.6208   12.3309   24.9120 C   0  0  0  0  0  0  0  0  0  0  0  0
    6.7858   13.3592   25.4709 C   0  0  0  0  0  0  0  0  0  0  0  0
    5.5906   13.2131   26.3503 C   0  0  0  0  0  0  0  0  0  0  0  0
  1  2  1  0
  2  3  1  0
  3  4  1  0
  4  5  2  0
  5  6  1  0
  6  7  2  0
  6  8  1  0
  8  9  1  0
  9 10  1  0
  9 11  1  0
  9 12  1  0
  5 13  1  0
 13 14  2  0
 14 15  1  0
 15 16  1  0
 15 17  2  0
 17 18  1  0
 18 19  1  0
 18  2  2  0
 17  4  1  0
M  END
>  <alias>  (1764) 
None

>  <rmsd(smina/fragmenstein)>  (1764) 
0.833

>  <smiles>  (1764) 
Cc1[nH]c2c(C(=O)NC(C)(C)C)ccc(Br)c2c1C

>  <gnina_score>  (1764) 
5.429

>  <inspiration_score>  (1764) 
None

>  <energy_score>  (1764) 
-0.404094

>  <distance_score>  (1764) 
1.419995

>  <gnina_score_min>  (1764) 
5.38

>  <inchikey>  (1764) 
XCRQQUOMRPPEHA-UHFFFAOYSA-N

>  <exports>  (1764) 
['/opt/xchem-fragalysis-2/maxwin/BulkDock/OUTPUTS/openbind_a71ev2a_c2_elabs_1LOUU54.sdf', '/opt/xchem-fragalysis-2/maxwin/BulkDock/OUTPUTS/openbind_a71ev2a_c2_elabs_1LSYIDY.sdf']

>  <name>  (1764) 
P585385

>  <ref_pdb>  (1764) 
A0566a

>  <subsites>  (1764) 
None

>  <HIPPO Pose ID>  (1764) 
585385

>  <ref_mols>  (1764) 
A0566a

>  <HIPPO Compound ID>  (1764) 
440420

>  <tags>  (1764) 
openbind_a71ev2a_c2_elabs,syndirella_product,openbind_a71ev2a_c2_elabs_fragonly_scored_top80percent,openbind_a71ev2a_c2_elabs_scored,BulkDock Fragalysis export,openbind_a71ev2a_c2_elabs_scored_top80percent,openbind_a71ev2a_c2_elabs_activefrags_only_scored_5.2plus,syndirella_placed

>  <smina_score_min>  (1764) 
-6.602

$$$$
P585387
     RDKit          3D

 19 20  0  0  0  0  0  0  0  0999 V2000
    6.6028   15.9770   25.2488 C   0  0  0  0  0  0  0  0  0  0  0  0
    7.1686   14.6145   25.0777 C   0  0  0  0  0  0  0  0  0  0  0  0
    8.3076   14.4113   24.3545 N   0  0  0  0  0  0  0  0  0  0  0  0
    8.5543   13.0738   24.2081 C   0  0  0  0  0  0  0  0  0  0  0  0
    9.5818   12.4115   23.5320 C   0  0  0  0  0  0  0  0  0  0  0  0
   10.7538   13.1546   23.0642 C   0  0  0  0  0  0  0  0  0  0  0  0
   11.7844   12.9091   23.5519 O   0  0  0  0  0  0  0  0  0  0  0  0
   10.3704   14.2245   22.0253 N   0  0  0  0  0  0  0  0  0  0  0  0
   11.1978   15.1645   21.2896 C   0  0  1  0  0  0  0  0  0  0  0  0
   12.6391   15.0220   21.7362 C   0  0  0  0  0  0  0  0  0  0  0  0
   11.0860   14.9661   19.7705 C   0  0  0  0  0  0  0  0  0  0  0  0
    9.9664   16.1950   19.0513 S   0  0  0  0  0  0  0  0  0  0  0  0
    9.5721   11.0215   23.4748 C   0  0  0  0  0  0  0  0  0  0  0  0
    8.6128   10.3147   24.1823 C   0  0  0  0  0  0  0  0  0  0  0  0
    7.6501   10.9914   24.9427 C   0  0  0  0  0  0  0  0  0  0  0  0
    6.4510   10.0424   26.0333 Br  0  0  0  0  0  0  0  0  0  0  0  0
    7.5774   12.3949   24.9289 C   0  0  0  0  0  0  0  0  0  0  0  0
    6.7215   13.3860   25.5236 C   0  0  0  0  0  0  0  0  0  0  0  0
    5.5340   13.1839   26.4015 C   0  0  0  0  0  0  0  0  0  0  0  0
  1  2  1  0
  2  3  1  0
  3  4  1  0
  4  5  2  0
  5  6  1  0
  6  7  2  0
  6  8  1  0
  8  9  1  0
  9 10  1  1
  9 11  1  0
 11 12  1  0
  5 13  1  0
 13 14  2  0
 14 15  1  0
 15 16  1  0
 15 17  2  0
 17 18  1  0
 18 19  1  0
 18  2  2  0
 17  4  1  0
M  END
>  <alias>  (1765) 
None

>  <rmsd(smina/fragmenstein)>  (1765) 
1.013

>  <smiles>  (1765) 
Cc1[nH]c2c(C(=O)N[C@@H](C)CS)ccc(Br)c2c1C

>  <gnina_score>  (1765) 
5.623

>  <inspiration_score>  (1765) 
None

>  <energy_score>  (1765) 
-5.84904

>  <distance_score>  (1765) 
1.348136

>  <gnina_score_min>  (1765) 
5.509

>  <inchikey>  (1765) 
NHVSWRIDDXOTPE-ZETCQYMHSA-N

>  <exports>  (1765) 
['/opt/xchem-fragalysis-2/maxwin/BulkDock/OUTPUTS/openbind_a71ev2a_c2_elabs_1LOUU54.sdf', '/opt/xchem-fragalysis-2/maxwin/BulkDock/OUTPUTS/openbind_a71ev2a_c2_elabs_1LSYIDY.sdf']

>  <name>  (1765) 
P585387

>  <ref_pdb>  (1765) 
A0566a

>  <subsites>  (1765) 
None

>  <HIPPO Pose ID>  (1765) 
585387

>  <ref_mols>  (1765) 
A0566a

>  <HIPPO Compound ID>  (1765) 
440426

>  <tags>  (1765) 
openbind_a71ev2a_c2_elabs,syndirella_product,openbind_a71ev2a_c2_elabs_fragonly_scored_top80percent,BulkDock Fragalysis export,openbind_a71ev2a_c2_elabs_scored,openbind_a71ev2a_c2_elabs_scored_top80percent,openbind_a71ev2a_c2_elabs_activefrags_only_scored_5.2plus,openbind_a71ev2a_c2_elabs_activefrags_only_scored_5.5plus,syndirella_placed

>  <smina_score_min>  (1765) 
-6.11

$$$$
P585390
     RDKit          3D

 19 20  0  0  0  0  0  0  0  0999 V2000
    6.5850   15.7502   26.2454 C   0  0  0  0  0  0  0  0  0  0  0  0
    7.2213   14.5278   25.6849 C   0  0  0  0  0  0  0  0  0  0  0  0
    8.3021   14.6140   24.8554 N   0  0  0  0  0  0  0  0  0  0  0  0
    8.6943   13.3749   24.4258 C   0  0  0  0  0  0  0  0  0  0  0  0
    9.7307   13.0053   23.5622 C   0  0  0  0  0  0  0  0  0  0  0  0
   10.6281   14.0445   23.0269 C   0  0  0  0  0  0  0  0  0  0  0  0
   11.2549   14.6878   23.7662 O   0  0  0  0  0  0  0  0  0  0  0  0
   10.4780   14.1423   21.5081 N   0  0  0  0  0  0  0  0  0  0  0  0
   11.1339   14.9853   20.5649 C   0  0  0  0  0  0  0  0  0  0  0  0
   10.1729   16.0672   20.2047 C   0  0  0  0  0  0  0  0  0  0  0  0
   10.0439   16.5668   18.9706 C   0  0  0  0  0  0  0  0  0  0  0  0
    9.1393   17.9942   18.6695 Cl  0  0  0  0  0  0  0  0  0  0  0  0
    9.8747   11.6599   23.2251 C   0  0  0  0  0  0  0  0  0  0  0  0
    9.0374   10.7028   23.7847 C   0  0  0  0  0  0  0  0  0  0  0  0
    8.0401   11.0996   24.6846 C   0  0  0  0  0  0  0  0  0  0  0  0
    6.9678    9.8322   25.5319 Br  0  0  0  0  0  0  0  0  0  0  0  0
    7.8277   12.4533   25.0001 C   0  0  0  0  0  0  0  0  0  0  0  0
    6.9055   13.1899   25.8292 C   0  0  0  0  0  0  0  0  0  0  0  0
    5.7907   12.6698   26.6710 C   0  0  0  0  0  0  0  0  0  0  0  0
  1  2  1  0
  2  3  1  0
  3  4  1  0
  4  5  2  0
  5  6  1  0
  6  7  2  0
  6  8  1  0
  8  9  1  0
  9 10  1  0
 10 11  2  0
 11 12  1  0
  5 13  1  0
 13 14  2  0
 14 15  1  0
 15 16  1  0
 15 17  2  0
 17 18  1  0
 18 19  1  0
 18  2  2  0
 17  4  1  0
M  END
>  <alias>  (1766) 
None

>  <rmsd(smina/fragmenstein)>  (1766) 
0.597

>  <smiles>  (1766) 
Cc1[nH]c2c(C(=O)NC/C=C/Cl)ccc(Br)c2c1C

>  <gnina_score>  (1766) 
5.629

>  <inspiration_score>  (1766) 
None

>  <energy_score>  (1766) 
-10.909084

>  <distance_score>  (1766) 
1.350518

>  <gnina_score_min>  (1766) 
5.468

>  <inchikey>  (1766) 
ISWAWYXKGVUKKA-ZZXKWVIFSA-N

>  <exports>  (1766) 
['/opt/xchem-fragalysis-2/maxwin/BulkDock/OUTPUTS/openbind_a71ev2a_c2_elabs_1LOUU54.sdf', '/opt/xchem-fragalysis-2/maxwin/BulkDock/OUTPUTS/openbind_a71ev2a_c2_elabs_1LSYIDY.sdf']

>  <name>  (1766) 
P585390

>  <ref_pdb>  (1766) 
A0566a

>  <subsites>  (1766) 
None

>  <HIPPO Pose ID>  (1766) 
585390

>  <ref_mols>  (1766) 
A0566a

>  <HIPPO Compound ID>  (1766) 
440430

>  <tags>  (1766) 
openbind_a71ev2a_c2_elabs,syndirella_product,openbind_a71ev2a_c2_elabs_fragonly_scored_top80percent,openbind_a71ev2a_c2_elabs_scored,BulkDock Fragalysis export,openbind_a71ev2a_c2_elabs_scored_top80percent,openbind_a71ev2a_c2_elabs_activefrags_only_scored_5.2plus,syndirella_placed

>  <smina_score_min>  (1766) 
-6.691

$$$$
P585391
     RDKit          3D

 19 20  0  0  0  0  0  0  0  0999 V2000
    6.6750   15.7521   26.3370 C   0  0  0  0  0  0  0  0  0  0  0  0
    7.2806   14.5305   25.7396 C   0  0  0  0  0  0  0  0  0  0  0  0
    8.3529   14.6248   24.8997 N   0  0  0  0  0  0  0  0  0  0  0  0
    8.7445   13.3920   24.4527 C   0  0  0  0  0  0  0  0  0  0  0  0
    9.7783   13.0352   23.5792 C   0  0  0  0  0  0  0  0  0  0  0  0
   10.6035   14.1017   22.9777 C   0  0  0  0  0  0  0  0  0  0  0  0
   11.2754   14.7721   23.6493 O   0  0  0  0  0  0  0  0  0  0  0  0
   10.3127   14.1750   21.4784 N   0  0  0  0  0  0  0  0  0  0  0  0
   10.8581   15.0302   20.4628 C   0  0  0  0  0  0  0  0  0  0  0  0
    9.9219   16.2200   20.3034 C   0  0  0  0  0  0  0  0  0  0  0  0
    9.8421   16.7343   18.8784 C   0  0  0  0  0  0  0  0  0  0  0  0
    8.8480   18.4172   18.9062 Br  0  0  0  0  0  0  0  0  0  0  0  0
    9.9188   11.6945   23.2235 C   0  0  0  0  0  0  0  0  0  0  0  0
    9.0824   10.7296   23.7722 C   0  0  0  0  0  0  0  0  0  0  0  0
    8.0815   11.1150   24.6730 C   0  0  0  0  0  0  0  0  0  0  0  0
    7.0113    9.8345   25.5038 Br  0  0  0  0  0  0  0  0  0  0  0  0
    7.8698   12.4651   25.0060 C   0  0  0  0  0  0  0  0  0  0  0  0
    6.9342   13.1946   25.8287 C   0  0  0  0  0  0  0  0  0  0  0  0
    5.7857   12.6641   26.6173 C   0  0  0  0  0  0  0  0  0  0  0  0
  1  2  1  0
  2  3  1  0
  3  4  1  0
  4  5  2  0
  5  6  1  0
  6  7  2  0
  6  8  1  0
  8  9  1  0
  9 10  1  0
 10 11  1  0
 11 12  1  0
  5 13  1  0
 13 14  2  0
 14 15  1  0
 15 16  1  0
 15 17  2  0
 17 18  1  0
 18 19  1  0
 18  2  2  0
 17  4  1  0
M  END
>  <alias>  (1767) 
None

>  <rmsd(smina/fragmenstein)>  (1767) 
0.628

>  <smiles>  (1767) 
Cc1[nH]c2c(C(=O)NCCCBr)ccc(Br)c2c1C

>  <gnina_score>  (1767) 
5.674

>  <inspiration_score>  (1767) 
None

>  <energy_score>  (1767) 
-10.71428

>  <distance_score>  (1767) 
1.397141

>  <gnina_score_min>  (1767) 
5.487

>  <inchikey>  (1767) 
OHFXARPGFZMKQS-UHFFFAOYSA-N

>  <exports>  (1767) 
['/opt/xchem-fragalysis-2/maxwin/BulkDock/OUTPUTS/openbind_a71ev2a_c2_elabs_1LOUU54.sdf', '/opt/xchem-fragalysis-2/maxwin/BulkDock/OUTPUTS/openbind_a71ev2a_c2_elabs_1LSYIDY.sdf']

>  <name>  (1767) 
P585391

>  <ref_pdb>  (1767) 
A0566a

>  <subsites>  (1767) 
None

>  <HIPPO Pose ID>  (1767) 
585391

>  <ref_mols>  (1767) 
A0566a

>  <HIPPO Compound ID>  (1767) 
440431

>  <tags>  (1767) 
openbind_a71ev2a_c2_elabs,syndirella_product,openbind_a71ev2a_c2_elabs_fragonly_scored_top80percent,openbind_a71ev2a_c2_elabs_scored,BulkDock Fragalysis export,openbind_a71ev2a_c2_elabs_scored_top80percent,openbind_a71ev2a_c2_elabs_activefrags_only_scored_5.2plus,syndirella_placed

>  <smina_score_min>  (1767) 
-6.097

$$$$
P585392
     RDKit          3D

 19 20  0  0  0  0  0  0  0  0999 V2000
    6.9044   15.7634   26.4670 C   0  0  0  0  0  0  0  0  0  0  0  0
    7.4279   14.5307   25.8188 C   0  0  0  0  0  0  0  0  0  0  0  0
    8.5494   14.5692   25.0431 N   0  0  0  0  0  0  0  0  0  0  0  0
    8.8442   13.3358   24.5243 C   0  0  0  0  0  0  0  0  0  0  0  0
    9.8956   12.9452   23.6799 C   0  0  0  0  0  0  0  0  0  0  0  0
   10.9137   13.9604   23.2918 C   0  0  0  0  0  0  0  0  0  0  0  0
   11.2601   14.7198   24.1033 O   0  0  0  0  0  0  0  0  0  0  0  0
   11.2588   13.8718   21.8043 N   0  0  0  0  0  0  0  0  0  0  0  0
   12.0344   14.7580   20.9645 C   0  0  0  0  0  0  0  0  0  0  0  0
   11.3283   15.0329   19.6265 C   0  0  2  0  0  0  0  0  0  0  0  0
    9.9486   15.6396   19.8033 C   0  0  0  0  0  0  0  0  0  0  0  0
   11.2594   13.8390   18.8682 O   0  0  0  0  0  0  0  0  0  0  0  0
    9.9293   11.6086   23.2734 C   0  0  0  0  0  0  0  0  0  0  0  0
    9.0184   10.6845   23.7777 C   0  0  0  0  0  0  0  0  0  0  0  0
    8.0270   11.1056   24.6699 C   0  0  0  0  0  0  0  0  0  0  0  0
    6.9366    9.8650   25.5401 Br  0  0  0  0  0  0  0  0  0  0  0  0
    7.8806   12.4603   25.0093 C   0  0  0  0  0  0  0  0  0  0  0  0
    6.9616   13.2295   25.8133 C   0  0  0  0  0  0  0  0  0  0  0  0
    5.7296   12.7658   26.5126 C   0  0  0  0  0  0  0  0  0  0  0  0
  1  2  1  0
  2  3  1  0
  3  4  1  0
  4  5  2  0
  5  6  1  0
  6  7  2  0
  6  8  1  0
  8  9  1  0
  9 10  1  0
 10 11  1  1
 10 12  1  0
  5 13  1  0
 13 14  2  0
 14 15  1  0
 15 16  1  0
 15 17  2  0
 17 18  1  0
 18 19  1  0
 18  2  2  0
 17  4  1  0
M  END
>  <alias>  (1768) 
None

>  <rmsd(smina/fragmenstein)>  (1768) 
0.75

>  <smiles>  (1768) 
Cc1[nH]c2c(C(=O)NC[C@H](C)O)ccc(Br)c2c1C

>  <gnina_score>  (1768) 
5.657

>  <inspiration_score>  (1768) 
None

>  <energy_score>  (1768) 
-4.574754

>  <distance_score>  (1768) 
1.237439

>  <gnina_score_min>  (1768) 
5.642

>  <inchikey>  (1768) 
KHUYRMFYEYUAKT-ZETCQYMHSA-N

>  <exports>  (1768) 
['/opt/xchem-fragalysis-2/maxwin/BulkDock/OUTPUTS/openbind_a71ev2a_c2_elabs_1LOUU54.sdf', '/opt/xchem-fragalysis-2/maxwin/BulkDock/OUTPUTS/openbind_a71ev2a_c2_elabs_1LSYIDY.sdf']

>  <name>  (1768) 
P585392

>  <ref_pdb>  (1768) 
A0566a

>  <subsites>  (1768) 
None

>  <HIPPO Pose ID>  (1768) 
585392

>  <ref_mols>  (1768) 
A0566a

>  <HIPPO Compound ID>  (1768) 
440433

>  <tags>  (1768) 
openbind_a71ev2a_c2_elabs,syndirella_product,openbind_a71ev2a_c2_elabs_fragonly_scored_top80percent,BulkDock Fragalysis export,openbind_a71ev2a_c2_elabs_scored,openbind_a71ev2a_c2_elabs_scored_top80percent,openbind_a71ev2a_c2_elabs_activefrags_only_scored_5.2plus,openbind_a71ev2a_c2_elabs_activefrags_only_scored_5.5plus,syndirella_placed

>  <smina_score_min>  (1768) 
-6.969

$$$$
P585394
     RDKit          3D

 19 20  0  0  0  0  0  0  0  0999 V2000
    6.5160   16.0192   25.2770 C   0  0  0  0  0  0  0  0  0  0  0  0
    7.0572   14.6419   25.1511 C   0  0  0  0  0  0  0  0  0  0  0  0
    8.1663   14.3888   24.3979 N   0  0  0  0  0  0  0  0  0  0  0  0
    8.3902   13.0417   24.3176 C   0  0  0  0  0  0  0  0  0  0  0  0
    9.3667   12.3305   23.6239 C   0  0  0  0  0  0  0  0  0  0  0  0
   10.4239   13.0186   22.8906 C   0  0  0  0  0  0  0  0  0  0  0  0
   11.5330   12.7823   23.1581 O   0  0  0  0  0  0  0  0  0  0  0  0
    9.8315   13.9031   21.7763 N   0  0  0  0  0  0  0  0  0  0  0  0
   10.4820   14.6125   20.6896 C   0  0  1  0  0  0  0  0  0  0  0  0
    9.8392   15.9678   20.4371 C   0  0  0  0  0  0  0  0  0  0  0  0
   11.9988   14.6249   20.8044 C   0  0  0  0  0  0  0  0  0  0  0  0
   12.5177   15.5155   22.2332 Cl  0  0  0  0  0  0  0  0  0  0  0  0
    9.3540   10.9388   23.6463 C   0  0  0  0  0  0  0  0  0  0  0  0
    8.4117   10.2812   24.4202 C   0  0  0  0  0  0  0  0  0  0  0  0
    7.4726   11.0052   25.1685 C   0  0  0  0  0  0  0  0  0  0  0  0
    6.2507   10.1136   26.2921 Br  0  0  0  0  0  0  0  0  0  0  0  0
    7.4307   12.4103   25.1022 C   0  0  0  0  0  0  0  0  0  0  0  0
    6.6067   13.4423   25.6690 C   0  0  0  0  0  0  0  0  0  0  0  0
    5.4396   13.2991   26.5856 C   0  0  0  0  0  0  0  0  0  0  0  0
  1  2  1  0
  2  3  1  0
  3  4  1  0
  4  5  2  0
  5  6  1  0
  6  7  2  0
  6  8  1  0
  8  9  1  0
  9 10  1  1
  9 11  1  0
 11 12  1  0
  5 13  1  0
 13 14  2  0
 14 15  1  0
 15 16  1  0
 15 17  2  0
 17 18  1  0
 18 19  1  0
 18  2  2  0
 17  4  1  0
M  END
>  <alias>  (1769) 
None

>  <rmsd(smina/fragmenstein)>  (1769) 
1.034

>  <smiles>  (1769) 
Cc1[nH]c2c(C(=O)N[C@@H](C)CCl)ccc(Br)c2c1C

>  <gnina_score>  (1769) 
5.563

>  <inspiration_score>  (1769) 
None

>  <energy_score>  (1769) 
-14.178507

>  <distance_score>  (1769) 
1.664332

>  <gnina_score_min>  (1769) 
5.296

>  <inchikey>  (1769) 
WHAJIJPMILYDEP-ZETCQYMHSA-N

>  <exports>  (1769) 
['/opt/xchem-fragalysis-2/maxwin/BulkDock/OUTPUTS/openbind_a71ev2a_c2_elabs_1LOUU54.sdf', '/opt/xchem-fragalysis-2/maxwin/BulkDock/OUTPUTS/openbind_a71ev2a_c2_elabs_1LSYIDY.sdf']

>  <name>  (1769) 
P585394

>  <ref_pdb>  (1769) 
A0566a

>  <subsites>  (1769) 
None

>  <HIPPO Pose ID>  (1769) 
585394

>  <ref_mols>  (1769) 
A0566a

>  <HIPPO Compound ID>  (1769) 
440434

>  <tags>  (1769) 
openbind_a71ev2a_c2_elabs,syndirella_product,openbind_a71ev2a_c2_elabs_fragonly_scored_top80percent,openbind_a71ev2a_c2_elabs_scored,BulkDock Fragalysis export,openbind_a71ev2a_c2_elabs_scored_top80percent,openbind_a71ev2a_c2_elabs_activefrags_only_scored_5.2plus,syndirella_placed

>  <smina_score_min>  (1769) 
-6.061

$$$$
P585399
     RDKit          3D

 19 20  0  0  0  0  0  0  0  0999 V2000
    6.3685   15.6884   26.4064 C   0  0  0  0  0  0  0  0  0  0  0  0
    7.0625   14.4965   25.8461 C   0  0  0  0  0  0  0  0  0  0  0  0
    8.0927   14.6287   24.9610 N   0  0  0  0  0  0  0  0  0  0  0  0
    8.5756   13.4003   24.5912 C   0  0  0  0  0  0  0  0  0  0  0  0
    9.6016   13.0648   23.7014 C   0  0  0  0  0  0  0  0  0  0  0  0
   10.1286   14.1428   22.8596 C   0  0  0  0  0  0  0  0  0  0  0  0
   11.0916   14.7447   23.0983 O   0  0  0  0  0  0  0  0  0  0  0  0
    9.1011   14.3180   21.7408 N   0  0  0  0  0  0  0  0  0  0  0  0
    8.9870   15.3227   20.7377 C   0  0  0  0  0  0  0  0  0  0  0  0
   10.2454   15.8864   20.1097 C   0  0  2  0  0  0  0  0  0  0  0  0
    9.8724   16.8145   18.9558 C   0  0  0  0  0  0  0  0  0  0  0  0
   11.3511   14.6317   19.4979 Cl  0  0  0  0  0  0  0  0  0  0  0  0
    9.8147   11.7304   23.3587 C   0  0  0  0  0  0  0  0  0  0  0  0
    9.0188   10.7432   23.9242 C   0  0  0  0  0  0  0  0  0  0  0  0
    8.0103   11.1030   24.8314 C   0  0  0  0  0  0  0  0  0  0  0  0
    6.9028    9.8093   25.5809 Br  0  0  0  0  0  0  0  0  0  0  0  0
    7.7641   12.4436   25.1817 C   0  0  0  0  0  0  0  0  0  0  0  0
    6.8266   13.1451   26.0232 C   0  0  0  0  0  0  0  0  0  0  0  0
    5.7589   12.5854   26.9000 C   0  0  0  0  0  0  0  0  0  0  0  0
  1  2  1  0
  2  3  1  0
  3  4  1  0
  4  5  2  0
  5  6  1  0
  6  7  2  0
  6  8  1  0
  8  9  1  0
  9 10  1  0
 10 11  1  6
 10 12  1  0
  5 13  1  0
 13 14  2  0
 14 15  1  0
 15 16  1  0
 15 17  2  0
 17 18  1  0
 18 19  1  0
 18  2  2  0
 17  4  1  0
M  END
>  <alias>  (1770) 
None

>  <rmsd(smina/fragmenstein)>  (1770) 
0.838

>  <smiles>  (1770) 
Cc1[nH]c2c(C(=O)NC[C@H](C)Cl)ccc(Br)c2c1C

>  <gnina_score>  (1770) 
5.428

>  <inspiration_score>  (1770) 
None

>  <energy_score>  (1770) 
-6.529145

>  <distance_score>  (1770) 
1.755736

>  <gnina_score_min>  (1770) 
5.227

>  <inchikey>  (1770) 
HCWDJPIJTZCNOA-ZETCQYMHSA-N

>  <exports>  (1770) 
['/opt/xchem-fragalysis-2/maxwin/BulkDock/OUTPUTS/openbind_a71ev2a_c2_elabs_1LOUU54.sdf', '/opt/xchem-fragalysis-2/maxwin/BulkDock/OUTPUTS/openbind_a71ev2a_c2_elabs_1LSYIDY.sdf']

>  <name>  (1770) 
P585399

>  <ref_pdb>  (1770) 
A0566a

>  <subsites>  (1770) 
None

>  <HIPPO Pose ID>  (1770) 
585399

>  <ref_mols>  (1770) 
A0566a

>  <HIPPO Compound ID>  (1770) 
440444

>  <tags>  (1770) 
openbind_a71ev2a_c2_elabs,syndirella_product,openbind_a71ev2a_c2_elabs_fragonly_scored_top80percent,openbind_a71ev2a_c2_elabs_scored,BulkDock Fragalysis export,openbind_a71ev2a_c2_elabs_scored_top80percent,openbind_a71ev2a_c2_elabs_activefrags_only_scored_5.2plus,syndirella_placed

>  <smina_score_min>  (1770) 
-6.219

$$$$
P585400
     RDKit          3D

 19 20  0  0  0  0  0  0  0  0999 V2000
    6.7558   15.8329   26.4074 C   0  0  0  0  0  0  0  0  0  0  0  0
    7.2603   14.5577   25.8299 C   0  0  0  0  0  0  0  0  0  0  0  0
    8.3698   14.5419   25.0362 N   0  0  0  0  0  0  0  0  0  0  0  0
    8.6488   13.2728   24.6022 C   0  0  0  0  0  0  0  0  0  0  0  0
    9.6916   12.8144   23.7894 C   0  0  0  0  0  0  0  0  0  0  0  0
   10.7211   13.7860   23.3710 C   0  0  0  0  0  0  0  0  0  0  0  0
   11.1190   14.5507   24.1541 O   0  0  0  0  0  0  0  0  0  0  0  0
   11.0146   13.6536   21.8757 N   0  0  0  0  0  0  0  0  0  0  0  0
   11.9371   14.3761   21.0327 C   0  0  2  0  0  0  0  0  0  0  0  0
   12.7701   15.3424   21.8364 C   0  0  0  0  0  0  0  0  0  0  0  0
   11.1522   15.0283   19.8958 C   0  0  0  0  0  0  0  0  0  0  0  0
   10.3369   15.9966   20.3969 F   0  0  0  0  0  0  0  0  0  0  0  0
    9.7198   11.4620   23.4394 C   0  0  0  0  0  0  0  0  0  0  0  0
    8.7903   10.5845   23.9828 C   0  0  0  0  0  0  0  0  0  0  0  0
    7.8020   11.0671   24.8515 C   0  0  0  0  0  0  0  0  0  0  0  0
    6.6660    9.8919   25.7539 Br  0  0  0  0  0  0  0  0  0  0  0  0
    7.6781   12.4379   25.1336 C   0  0  0  0  0  0  0  0  0  0  0  0
    6.7823   13.2620   25.9068 C   0  0  0  0  0  0  0  0  0  0  0  0
    5.5559   12.8524   26.6478 C   0  0  0  0  0  0  0  0  0  0  0  0
  1  2  1  0
  2  3  1  0
  3  4  1  0
  4  5  2  0
  5  6  1  0
  6  7  2  0
  6  8  1  0
  8  9  1  0
  9 10  1  1
  9 11  1  0
 11 12  1  0
  5 13  1  0
 13 14  2  0
 14 15  1  0
 15 16  1  0
 15 17  2  0
 17 18  1  0
 18 19  1  0
 18  2  2  0
 17  4  1  0
M  END
>  <alias>  (1771) 
None

>  <rmsd(smina/fragmenstein)>  (1771) 
0.841

>  <smiles>  (1771) 
Cc1[nH]c2c(C(=O)N[C@H](C)CF)ccc(Br)c2c1C

>  <gnina_score>  (1771) 
5.448

>  <inspiration_score>  (1771) 
None

>  <energy_score>  (1771) 
-3.942959

>  <distance_score>  (1771) 
1.332563

>  <gnina_score_min>  (1771) 
5.447

>  <inchikey>  (1771) 
JKQLRLLAKXFRJM-SSDOTTSWSA-N

>  <exports>  (1771) 
['/opt/xchem-fragalysis-2/maxwin/BulkDock/OUTPUTS/openbind_a71ev2a_c2_elabs_1LOUU54.sdf', '/opt/xchem-fragalysis-2/maxwin/BulkDock/OUTPUTS/openbind_a71ev2a_c2_elabs_1LSYIDY.sdf']

>  <name>  (1771) 
P585400

>  <ref_pdb>  (1771) 
A0566a

>  <subsites>  (1771) 
None

>  <HIPPO Pose ID>  (1771) 
585400

>  <ref_mols>  (1771) 
A0566a

>  <HIPPO Compound ID>  (1771) 
440445

>  <tags>  (1771) 
openbind_a71ev2a_c2_elabs,syndirella_product,openbind_a71ev2a_c2_elabs_fragonly_scored_top80percent,openbind_a71ev2a_c2_elabs_scored,BulkDock Fragalysis export,openbind_a71ev2a_c2_elabs_scored_top80percent,openbind_a71ev2a_c2_elabs_activefrags_only_scored_5.2plus,syndirella_placed

>  <smina_score_min>  (1771) 
-6.536

$$$$
P585402
     RDKit          3D

 19 20  0  0  0  0  0  0  0  0999 V2000
   11.4085   15.0072   18.7651 C   0  0  0  0  0  0  0  0  0  0  0  0
   11.1688   15.0857   20.0760 C   0  0  0  0  0  0  0  0  0  0  0  0
    9.6437   15.9780   20.6816 Br  0  0  0  0  0  0  0  0  0  0  0  0
   12.0832   14.5152   21.1191 C   0  0  0  0  0  0  0  0  0  0  0  0
   11.2830   13.6791   21.9508 N   0  0  0  0  0  0  0  0  0  0  0  0
   10.9061   13.8134   23.4214 C   0  0  0  0  0  0  0  0  0  0  0  0
   11.2477   14.5866   24.2203 O   0  0  0  0  0  0  0  0  0  0  0  0
    9.8634   12.8267   23.7977 C   0  0  0  0  0  0  0  0  0  0  0  0
    9.8487   11.4937   23.3796 C   0  0  0  0  0  0  0  0  0  0  0  0
    8.9002   10.6087   23.8816 C   0  0  0  0  0  0  0  0  0  0  0  0
    7.9162   11.0714   24.7637 C   0  0  0  0  0  0  0  0  0  0  0  0
    6.7822    9.8792   25.6469 Br  0  0  0  0  0  0  0  0  0  0  0  0
    7.8075   12.4336   25.0857 C   0  0  0  0  0  0  0  0  0  0  0  0
    6.9042   13.2451   25.8641 C   0  0  0  0  0  0  0  0  0  0  0  0
    5.6444   12.8344   26.5459 C   0  0  0  0  0  0  0  0  0  0  0  0
    7.4153   14.5300   25.8606 C   0  0  0  0  0  0  0  0  0  0  0  0
    6.9253   15.7882   26.4848 C   0  0  0  0  0  0  0  0  0  0  0  0
    8.5487   14.5209   25.1013 N   0  0  0  0  0  0  0  0  0  0  0  0
    8.8093   13.2676   24.6110 C   0  0  0  0  0  0  0  0  0  0  0  0
  1  2  2  0
  2  3  1  0
  2  4  1  0
  4  5  1  0
  5  6  1  0
  6  7  2  0
  6  8  1  0
  8  9  2  0
  9 10  1  0
 10 11  2  0
 11 12  1  0
 11 13  1  0
 13 14  1  0
 14 15  1  0
 14 16  2  0
 16 17  1  0
 16 18  1  0
 18 19  1  0
 19  8  1  0
 19 13  2  0
M  END
>  <alias>  (1772) 
None

>  <rmsd(smina/fragmenstein)>  (1772) 
0.788

>  <smiles>  (1772) 
C=C(Br)CNC(=O)c1ccc(Br)c2c(C)c(C)[nH]c12

>  <gnina_score>  (1772) 
5.532

>  <inspiration_score>  (1772) 
None

>  <energy_score>  (1772) 
-9.445989

>  <distance_score>  (1772) 
1.253193

>  <gnina_score_min>  (1772) 
5.605

>  <inchikey>  (1772) 
BMDGZJPIDIVTLL-UHFFFAOYSA-N

>  <exports>  (1772) 
['/opt/xchem-fragalysis-2/maxwin/BulkDock/OUTPUTS/openbind_a71ev2a_c2_elabs_1LOUU54.sdf', '/opt/xchem-fragalysis-2/maxwin/BulkDock/OUTPUTS/openbind_a71ev2a_c2_elabs_1LSYIDY.sdf']

>  <name>  (1772) 
P585402

>  <ref_pdb>  (1772) 
A0566a

>  <subsites>  (1772) 
None

>  <HIPPO Pose ID>  (1772) 
585402

>  <ref_mols>  (1772) 
A0566a

>  <HIPPO Compound ID>  (1772) 
440448

>  <tags>  (1772) 
openbind_a71ev2a_c2_elabs,syndirella_product,openbind_a71ev2a_c2_elabs_fragonly_scored_top80percent,BulkDock Fragalysis export,openbind_a71ev2a_c2_elabs_scored,openbind_a71ev2a_c2_elabs_scored_top80percent,openbind_a71ev2a_c2_elabs_activefrags_only_scored_5.2plus,openbind_a71ev2a_c2_elabs_activefrags_only_scored_5.5plus,syndirella_placed

>  <smina_score_min>  (1772) 
-6.401

$$$$
P585404
     RDKit          3D

 19 21  0  0  0  0  0  0  0  0999 V2000
    7.2624   15.7877   26.5124 C   0  0  0  0  0  0  0  0  0  0  0  0
    7.5930   14.4829   25.8818 C   0  0  0  0  0  0  0  0  0  0  0  0
    8.7416   14.3091   25.1629 N   0  0  0  0  0  0  0  0  0  0  0  0
    8.8092   13.0421   24.6448 C   0  0  0  0  0  0  0  0  0  0  0  0
    9.7816   12.4314   23.8425 C   0  0  0  0  0  0  0  0  0  0  0  0
   11.0281   13.1468   23.5831 C   0  0  0  0  0  0  0  0  0  0  0  0
   11.7592   13.3510   24.4825 O   0  0  0  0  0  0  0  0  0  0  0  0
   11.0996   13.5909   22.1591 N   0  0  0  0  0  0  0  0  0  0  0  0
   12.1717   14.3463   21.4170 C   0  0  0  0  0  0  0  0  0  0  0  0
   11.7311   15.5790   22.1378 C   0  0  0  0  0  0  0  0  0  0  0  0
   10.3816   14.9501   21.9511 C   0  0  1  0  0  0  0  0  0  0  0  0
    9.5844   15.0752   20.6688 C   0  0  0  0  0  0  0  0  0  0  0  0
    9.6271   11.1064   23.4542 C   0  0  0  0  0  0  0  0  0  0  0  0
    8.6073   10.3614   24.0234 C   0  0  0  0  0  0  0  0  0  0  0  0
    7.6846   10.9672   24.8900 C   0  0  0  0  0  0  0  0  0  0  0  0
    6.4824    9.9441   25.8993 Br  0  0  0  0  0  0  0  0  0  0  0  0
    7.7137   12.3483   25.1361 C   0  0  0  0  0  0  0  0  0  0  0  0
    6.9024   13.2856   25.8651 C   0  0  0  0  0  0  0  0  0  0  0  0
    5.5735   13.0608   26.5013 C   0  0  0  0  0  0  0  0  0  0  0  0
  1  2  1  0
  2  3  1  0
  3  4  1  0
  4  5  2  0
  5  6  1  0
  6  7  2  0
  6  8  1  0
  8  9  1  0
  9 10  1  0
 10 11  1  0
 11 12  1  6
  5 13  1  0
 13 14  2  0
 14 15  1  0
 15 16  1  0
 15 17  2  0
 17 18  1  0
 18 19  1  0
 18  2  2  0
 17  4  1  0
 11  8  1  0
M  END
>  <alias>  (1773) 
None

>  <rmsd(smina/fragmenstein)>  (1773) 
0.697

>  <smiles>  (1773) 
Cc1[nH]c2c(C(=O)N3CC[C@H]3C)ccc(Br)c2c1C

>  <gnina_score>  (1773) 
5.507

>  <inspiration_score>  (1773) 
None

>  <energy_score>  (1773) 
-3.610511

>  <distance_score>  (1773) 
1.245004

>  <gnina_score_min>  (1773) 
5.498

>  <inchikey>  (1773) 
RBLAFORPANZLLK-MRVPVSSYSA-N

>  <exports>  (1773) 
['/opt/xchem-fragalysis-2/maxwin/BulkDock/OUTPUTS/openbind_a71ev2a_c2_elabs_1LOUU54.sdf', '/opt/xchem-fragalysis-2/maxwin/BulkDock/OUTPUTS/openbind_a71ev2a_c2_elabs_1LSYIDY.sdf']

>  <name>  (1773) 
P585404

>  <ref_pdb>  (1773) 
A0566a

>  <subsites>  (1773) 
None

>  <HIPPO Pose ID>  (1773) 
585404

>  <ref_mols>  (1773) 
A0566a

>  <HIPPO Compound ID>  (1773) 
440449

>  <tags>  (1773) 
openbind_a71ev2a_c2_elabs,syndirella_product,openbind_a71ev2a_c2_elabs_fragonly_scored_top80percent,openbind_a71ev2a_c2_elabs_scored,BulkDock Fragalysis export,openbind_a71ev2a_c2_elabs_scored_top80percent,openbind_a71ev2a_c2_elabs_activefrags_only_scored_5.2plus,syndirella_placed

>  <smina_score_min>  (1773) 
-6.154

$$$$
P585406
     RDKit          3D

 19 20  0  0  0  0  0  0  0  0999 V2000
   12.5574   14.4386   20.3839 C   0  0  0  0  0  0  0  0  0  0  0  0
   11.3373   14.8614   20.0501 C   0  0  0  0  0  0  0  0  0  0  0  0
   10.5000   15.6234   21.0170 C   0  0  1  0  0  0  0  0  0  0  0  0
    9.4219   16.4190   20.3215 C   0  0  0  0  0  0  0  0  0  0  0  0
    9.9727   14.6370   21.9034 N   0  0  0  0  0  0  0  0  0  0  0  0
   10.4750   14.1534   23.2615 C   0  0  0  0  0  0  0  0  0  0  0  0
   11.3563   14.5314   23.9174 O   0  0  0  0  0  0  0  0  0  0  0  0
    9.5970   13.0910   23.7428 C   0  0  0  0  0  0  0  0  0  0  0  0
    9.7916   11.7647   23.3631 C   0  0  0  0  0  0  0  0  0  0  0  0
    8.9608   10.7793   23.8778 C   0  0  0  0  0  0  0  0  0  0  0  0
    7.9369   11.1359   24.7690 C   0  0  0  0  0  0  0  0  0  0  0  0
    6.8908    9.8268   25.5810 Br  0  0  0  0  0  0  0  0  0  0  0  0
    7.6813   12.4769   25.1130 C   0  0  0  0  0  0  0  0  0  0  0  0
    6.7375   13.1768   25.9478 C   0  0  0  0  0  0  0  0  0  0  0  0
    5.6261   12.6181   26.7679 C   0  0  0  0  0  0  0  0  0  0  0  0
    7.0320   14.5246   25.8464 C   0  0  0  0  0  0  0  0  0  0  0  0
    6.3700   15.7136   26.4495 C   0  0  0  0  0  0  0  0  0  0  0  0
    8.1059   14.6555   25.0149 N   0  0  0  0  0  0  0  0  0  0  0  0
    8.5319   13.4314   24.5754 C   0  0  0  0  0  0  0  0  0  0  0  0
  1  2  2  0
  2  3  1  0
  3  4  1  6
  3  5  1  0
  5  6  1  0
  6  7  2  0
  6  8  1  0
  8  9  2  0
  9 10  1  0
 10 11  2  0
 11 12  1  0
 11 13  1  0
 13 14  1  0
 14 15  1  0
 14 16  2  0
 16 17  1  0
 16 18  1  0
 18 19  1  0
 19  8  1  0
 19 13  2  0
M  END
>  <alias>  (1774) 
None

>  <rmsd(smina/fragmenstein)>  (1774) 
0.697

>  <smiles>  (1774) 
C=C[C@@H](C)NC(=O)c1ccc(Br)c2c(C)c(C)[nH]c12

>  <gnina_score>  (1774) 
5.157

>  <inspiration_score>  (1774) 
None

>  <energy_score>  (1774) 
-17.822106

>  <distance_score>  (1774) 
1.402217

>  <gnina_score_min>  (1774) 
5.313

>  <inchikey>  (1774) 
SOYRSEVPBUBSBH-MRVPVSSYSA-N

>  <exports>  (1774) 
['/opt/xchem-fragalysis-2/maxwin/BulkDock/OUTPUTS/openbind_a71ev2a_c2_elabs_1LOUU54.sdf', '/opt/xchem-fragalysis-2/maxwin/BulkDock/OUTPUTS/openbind_a71ev2a_c2_elabs_1LSYIDY.sdf']

>  <name>  (1774) 
P585406

>  <ref_pdb>  (1774) 
A0566a

>  <subsites>  (1774) 
None

>  <HIPPO Pose ID>  (1774) 
585406

>  <ref_mols>  (1774) 
A0566a

>  <HIPPO Compound ID>  (1774) 
440452

>  <tags>  (1774) 
openbind_a71ev2a_c2_elabs,syndirella_product,openbind_a71ev2a_c2_elabs_fragonly_scored_top80percent,openbind_a71ev2a_c2_elabs_scored,BulkDock Fragalysis export,openbind_a71ev2a_c2_elabs_scored_top80percent,openbind_a71ev2a_c2_elabs_activefrags_only_scored_5.2plus,syndirella_placed

>  <smina_score_min>  (1774) 
-5.951

$$$$
P585417
     RDKit          3D

 19 21  0  0  0  0  0  0  0  0999 V2000
    7.6969   15.2029   24.9416 C   0  0  0  0  0  0  0  0  0  0  0  0
    7.5486   13.7933   25.2324 N   0  0  0  0  0  0  0  0  0  0  0  0
    6.5704   13.3084   26.0533 C   0  0  0  0  0  0  0  0  0  0  0  0
    6.6010   11.9323   25.9989 C   0  0  0  0  0  0  0  0  0  0  0  0
    5.7041   11.0969   26.7617 C   0  0  0  0  0  0  0  0  0  0  0  0
    5.7893    9.8775   26.8152 O   0  0  0  0  0  0  0  0  0  0  0  0
    7.6399   11.5665   25.0897 C   0  0  0  0  0  0  0  0  0  0  0  0
    8.1296   10.3385   24.5904 C   0  0  0  0  0  0  0  0  0  0  0  0
    9.1894   10.3106   23.6799 C   0  0  0  0  0  0  0  0  0  0  0  0
    9.8345   11.4899   23.3451 C   0  0  0  0  0  0  0  0  0  0  0  0
    9.4172   12.7093   23.8911 C   0  0  0  0  0  0  0  0  0  0  0  0
   10.2387   13.9099   23.6891 C   0  0  0  0  0  0  0  0  0  0  0  0
   10.6870   14.4718   24.6061 O   0  0  0  0  0  0  0  0  0  0  0  0
   10.3746   14.1898   22.1865 N   0  0  0  0  0  0  0  0  0  0  0  0
   10.9835   15.2252   21.5244 N   0  0  0  0  0  0  0  0  0  0  0  0
   12.4587   15.1100   21.6766 C   0  0  0  0  0  0  0  0  0  0  0  0
   12.4990   14.2693   20.4055 C   0  0  0  0  0  0  0  0  0  0  0  0
   11.1348   14.8790   20.0863 C   0  0  0  0  0  0  0  0  0  0  0  0
    8.2714   12.7501   24.6936 C   0  0  0  0  0  0  0  0  0  0  0  0
  1  2  1  0
  2  3  1  0
  3  4  2  0
  4  5  1  0
  5  6  2  0
  4  7  1  0
  7  8  2  0
  8  9  1  0
  9 10  2  0
 10 11  1  0
 11 12  1  0
 12 13  2  0
 12 14  1  0
 14 15  1  0
 15 16  1  0
 16 17  1  0
 17 18  1  0
 11 19  2  0
 19  2  1  0
 19  7  1  0
 18 15  1  0
M  END
>  <alias>  (1775) 
None

>  <rmsd(smina/fragmenstein)>  (1775) 
0.353

>  <smiles>  (1775) 
Cn1cc(C=O)c2cccc(C(=O)NN3CCC3)c21

>  <gnina_score>  (1775) 
5.274

>  <inspiration_score>  (1775) 
None

>  <energy_score>  (1775) 
-0.493962

>  <distance_score>  (1775) 
1.056752

>  <gnina_score_min>  (1775) 
5.346

>  <inchikey>  (1775) 
JLJLLASDYLBSLF-UHFFFAOYSA-N

>  <exports>  (1775) 
['/opt/xchem-fragalysis-2/maxwin/BulkDock/OUTPUTS/openbind_a71ev2a_c2_elabs_1LOUU54.sdf', '/opt/xchem-fragalysis-2/maxwin/BulkDock/OUTPUTS/openbind_a71ev2a_c2_elabs_1LSYIDY.sdf']

>  <name>  (1775) 
P585417

>  <ref_pdb>  (1775) 
A0566a

>  <subsites>  (1775) 
None

>  <HIPPO Pose ID>  (1775) 
585417

>  <ref_mols>  (1775) 
A0566a

>  <HIPPO Compound ID>  (1775) 
440471

>  <tags>  (1775) 
openbind_a71ev2a_c2_elabs,syndirella_product,openbind_a71ev2a_c2_elabs_fragonly_scored_top80percent,openbind_a71ev2a_c2_elabs_scored,BulkDock Fragalysis export,openbind_a71ev2a_c2_elabs_scored_top80percent,openbind_a71ev2a_c2_elabs_activefrags_only_scored_5.2plus,syndirella_placed

>  <smina_score_min>  (1775) 
-6.349

$$$$
P585429
     RDKit          3D

 19 20  0  0  0  0  0  0  0  0999 V2000
   12.6074   14.6093   21.3956 C   0  0  0  0  0  0  0  0  0  0  0  0
   11.1881   15.1267   21.4089 C   0  0  1  0  0  0  0  0  0  0  0  0
   10.6649   15.3574   19.9934 C   0  0  0  0  0  0  0  0  0  0  0  0
    9.3990   16.6013   20.0243 Cl  0  0  0  0  0  0  0  0  0  0  0  0
   10.3814   14.1588   22.1144 N   0  0  0  0  0  0  0  0  0  0  0  0
   10.2123   13.9095   23.6137 C   0  0  0  0  0  0  0  0  0  0  0  0
   10.6348   14.4916   24.5275 O   0  0  0  0  0  0  0  0  0  0  0  0
    9.4328   12.6774   23.8244 C   0  0  0  0  0  0  0  0  0  0  0  0
    9.9048   11.4932   23.2423 C   0  0  0  0  0  0  0  0  0  0  0  0
    9.3298   10.2694   23.5356 C   0  0  0  0  0  0  0  0  0  0  0  0
    8.2779   10.2119   24.4477 C   0  0  0  0  0  0  0  0  0  0  0  0
    7.7410   11.3926   25.0077 C   0  0  0  0  0  0  0  0  0  0  0  0
    6.6930   11.6532   25.9417 C   0  0  0  0  0  0  0  0  0  0  0  0
    5.8412   10.7033   26.6302 C   0  0  0  0  0  0  0  0  0  0  0  0
    4.9868   11.0122   27.4559 O   0  0  0  0  0  0  0  0  0  0  0  0
    6.6186   13.0219   26.0880 C   0  0  0  0  0  0  0  0  0  0  0  0
    7.5618   13.6021   25.2843 N   0  0  0  0  0  0  0  0  0  0  0  0
    7.6619   15.0344   25.0922 C   0  0  0  0  0  0  0  0  0  0  0  0
    8.3124   12.6253   24.6628 C   0  0  0  0  0  0  0  0  0  0  0  0
  2  1  1  6
  2  3  1  0
  3  4  1  0
  2  5  1  0
  5  6  1  0
  6  7  2  0
  6  8  1  0
  8  9  2  0
  9 10  1  0
 10 11  2  0
 11 12  1  0
 12 13  1  0
 13 14  1  0
 14 15  2  0
 13 16  2  0
 16 17  1  0
 17 18  1  0
 17 19  1  0
 19  8  1  0
 19 12  2  0
M  END
>  <alias>  (1776) 
None

>  <rmsd(smina/fragmenstein)>  (1776) 
0.311

>  <smiles>  (1776) 
C[C@@H](CCl)NC(=O)c1cccc2c(C=O)cn(C)c12

>  <gnina_score>  (1776) 
5.261

>  <inspiration_score>  (1776) 
None

>  <energy_score>  (1776) 
-3.097414

>  <distance_score>  (1776) 
0.988874

>  <gnina_score_min>  (1776) 
5.216

>  <inchikey>  (1776) 
BDZRGJSKSDPTII-VIFPVBQESA-N

>  <exports>  (1776) 
['/opt/xchem-fragalysis-2/maxwin/BulkDock/OUTPUTS/openbind_a71ev2a_c2_elabs_1LOUU54.sdf', '/opt/xchem-fragalysis-2/maxwin/BulkDock/OUTPUTS/openbind_a71ev2a_c2_elabs_1LSYIDY.sdf']

>  <name>  (1776) 
P585429

>  <ref_pdb>  (1776) 
A0566a

>  <subsites>  (1776) 
None

>  <HIPPO Pose ID>  (1776) 
585429

>  <ref_mols>  (1776) 
A0566a

>  <HIPPO Compound ID>  (1776) 
440487

>  <tags>  (1776) 
openbind_a71ev2a_c2_elabs,syndirella_product,openbind_a71ev2a_c2_elabs_fragonly_scored_top80percent,openbind_a71ev2a_c2_elabs_scored,BulkDock Fragalysis export,openbind_a71ev2a_c2_elabs_scored_top80percent,openbind_a71ev2a_c2_elabs_activefrags_only_scored_5.2plus,syndirella_placed

>  <smina_score_min>  (1776) 
-6.745

$$$$
P585435
     RDKit          3D

 19 20  0  0  0  0  0  0  0  0999 V2000
    7.5933   15.0903   25.0571 C   0  0  0  0  0  0  0  0  0  0  0  0
    7.5086   13.6532   25.2092 N   0  0  0  0  0  0  0  0  0  0  0  0
    6.5967   13.0361   26.0201 C   0  0  0  0  0  0  0  0  0  0  0  0
    6.7306   11.6707   25.8803 C   0  0  0  0  0  0  0  0  0  0  0  0
    5.9183   10.6899   26.5734 C   0  0  0  0  0  0  0  0  0  0  0  0
    5.0633   10.9696   27.4087 O   0  0  0  0  0  0  0  0  0  0  0  0
    7.7899   11.4506   24.9485 C   0  0  0  0  0  0  0  0  0  0  0  0
    8.3812   10.2919   24.3950 C   0  0  0  0  0  0  0  0  0  0  0  0
    9.4375   10.3945   23.4894 C   0  0  0  0  0  0  0  0  0  0  0  0
    9.9353   11.6448   23.1618 C   0  0  0  0  0  0  0  0  0  0  0  0
    9.3687   12.8063   23.6937 C   0  0  0  0  0  0  0  0  0  0  0  0
    9.9336   14.0883   23.2595 C   0  0  0  0  0  0  0  0  0  0  0  0
   10.7243   14.6363   23.9146 O   0  0  0  0  0  0  0  0  0  0  0  0
    9.3846   14.4302   21.8682 N   0  0  0  0  0  0  0  0  0  0  0  0
    9.7603   15.4688   20.9424 C   0  0  0  0  0  0  0  0  0  0  0  0
   10.8765   14.9893   20.0214 C   0  0  0  0  0  0  0  0  0  0  0  0
   12.0873   14.6633   20.7797 N   0  0  0  0  0  0  0  0  0  0  0  0
   12.9990   14.2290   19.7467 O   0  0  0  0  0  0  0  0  0  0  0  0
    8.2852   12.7082   24.5733 C   0  0  0  0  0  0  0  0  0  0  0  0
  1  2  1  0
  2  3  1  0
  3  4  2  0
  4  5  1  0
  5  6  2  0
  4  7  1  0
  7  8  2  0
  8  9  1  0
  9 10  2  0
 10 11  1  0
 11 12  1  0
 12 13  2  0
 12 14  1  0
 14 15  1  0
 15 16  1  0
 16 17  1  0
 17 18  1  0
 11 19  2  0
 19  2  1  0
 19  7  1  0
M  END
>  <alias>  (1777) 
None

>  <rmsd(smina/fragmenstein)>  (1777) 
0.396

>  <smiles>  (1777) 
Cn1cc(C=O)c2cccc(C(=O)NCCNO)c21

>  <gnina_score>  (1777) 
5.245

>  <inspiration_score>  (1777) 
None

>  <energy_score>  (1777) 
-4.683497

>  <distance_score>  (1777) 
1.305045

>  <gnina_score_min>  (1777) 
5.217

>  <inchikey>  (1777) 
BJSHEUXUUNKLFD-UHFFFAOYSA-N

>  <exports>  (1777) 
['/opt/xchem-fragalysis-2/maxwin/BulkDock/OUTPUTS/openbind_a71ev2a_c2_elabs_1LOUU54.sdf', '/opt/xchem-fragalysis-2/maxwin/BulkDock/OUTPUTS/openbind_a71ev2a_c2_elabs_1LSYIDY.sdf']

>  <name>  (1777) 
P585435

>  <ref_pdb>  (1777) 
A0566a

>  <subsites>  (1777) 
None

>  <HIPPO Pose ID>  (1777) 
585435

>  <ref_mols>  (1777) 
A0566a

>  <HIPPO Compound ID>  (1777) 
440495

>  <tags>  (1777) 
openbind_a71ev2a_c2_elabs,syndirella_product,openbind_a71ev2a_c2_elabs_fragonly_scored_top80percent,openbind_a71ev2a_c2_elabs_scored,BulkDock Fragalysis export,openbind_a71ev2a_c2_elabs_scored_top80percent,openbind_a71ev2a_c2_elabs_activefrags_only_scored_5.2plus,syndirella_placed

>  <smina_score_min>  (1777) 
-6.499

$$$$
P585437
     RDKit          3D

 19 20  0  0  0  0  0  0  0  0999 V2000
   12.4969   14.3131   20.2518 C   0  0  0  0  0  0  0  0  0  0  0  0
   12.1954   15.1341   21.4834 C   0  0  0  0  0  0  0  0  0  0  0  0
   10.7772   15.3169   21.7639 N   0  0  0  0  0  0  0  0  0  0  0  0
    9.9277   15.7906   20.6753 C   0  0  0  0  0  0  0  0  0  0  0  0
   10.2768   14.2059   22.3572 N   0  0  0  0  0  0  0  0  0  0  0  0
   10.2255   13.8041   23.8334 C   0  0  0  0  0  0  0  0  0  0  0  0
   10.6724   14.3250   24.7740 O   0  0  0  0  0  0  0  0  0  0  0  0
    9.3848   12.6177   23.9797 C   0  0  0  0  0  0  0  0  0  0  0  0
    9.7783   11.4117   23.3968 C   0  0  0  0  0  0  0  0  0  0  0  0
    9.1159   10.2406   23.7216 C   0  0  0  0  0  0  0  0  0  0  0  0
    8.0603   10.2718   24.6416 C   0  0  0  0  0  0  0  0  0  0  0  0
    7.5821   11.4998   25.1526 C   0  0  0  0  0  0  0  0  0  0  0  0
    6.5506   11.8781   26.0654 C   0  0  0  0  0  0  0  0  0  0  0  0
    5.6426   11.0572   26.8304 C   0  0  0  0  0  0  0  0  0  0  0  0
    5.7037    9.8364   26.8821 O   0  0  0  0  0  0  0  0  0  0  0  0
    6.5400   13.2550   26.1260 C   0  0  0  0  0  0  0  0  0  0  0  0
    7.5288   13.7293   25.3124 N   0  0  0  0  0  0  0  0  0  0  0  0
    7.7048   15.1390   25.0325 C   0  0  0  0  0  0  0  0  0  0  0  0
    8.2323   12.6748   24.7696 C   0  0  0  0  0  0  0  0  0  0  0  0
  1  2  1  0
  2  3  1  0
  3  4  1  0
  3  5  1  0
  5  6  1  0
  6  7  2  0
  6  8  1  0
  8  9  2  0
  9 10  1  0
 10 11  2  0
 11 12  1  0
 12 13  1  0
 13 14  1  0
 14 15  2  0
 13 16  2  0
 16 17  1  0
 17 18  1  0
 17 19  1  0
 19  8  1  0
 19 12  2  0
M  END
>  <alias>  (1778) 
None

>  <rmsd(smina/fragmenstein)>  (1778) 
0.285

>  <smiles>  (1778) 
CCN(C)NC(=O)c1cccc2c(C=O)cn(C)c12

>  <gnina_score>  (1778) 
5.239

>  <inspiration_score>  (1778) 
None

>  <energy_score>  (1778) 
-13.31299

>  <distance_score>  (1778) 
1.099058

>  <gnina_score_min>  (1778) 
5.283

>  <inchikey>  (1778) 
URJAPGOMFIAFBG-UHFFFAOYSA-N

>  <exports>  (1778) 
['/opt/xchem-fragalysis-2/maxwin/BulkDock/OUTPUTS/openbind_a71ev2a_c2_elabs_1LOUU54.sdf', '/opt/xchem-fragalysis-2/maxwin/BulkDock/OUTPUTS/openbind_a71ev2a_c2_elabs_1LSYIDY.sdf']

>  <name>  (1778) 
P585437

>  <ref_pdb>  (1778) 
A0566a

>  <subsites>  (1778) 
None

>  <HIPPO Pose ID>  (1778) 
585437

>  <ref_mols>  (1778) 
A0566a

>  <HIPPO Compound ID>  (1778) 
440502

>  <tags>  (1778) 
openbind_a71ev2a_c2_elabs,syndirella_product,openbind_a71ev2a_c2_elabs_fragonly_scored_top80percent,openbind_a71ev2a_c2_elabs_scored,BulkDock Fragalysis export,openbind_a71ev2a_c2_elabs_scored_top80percent,openbind_a71ev2a_c2_elabs_activefrags_only_scored_5.2plus,syndirella_placed

>  <smina_score_min>  (1778) 
-5.963

$$$$
P585438
     RDKit          3D

 19 21  0  0  0  0  0  0  0  0999 V2000
    4.2749   14.2215   26.2830 C   0  0  0  0  0  0  0  0  0  0  0  0
    5.3292   13.4822   27.0925 C   0  0  0  0  0  0  0  0  0  0  0  0
    6.2926   12.7425   26.2256 C   0  0  0  0  0  0  0  0  0  0  0  0
    6.5160   11.3892   26.0677 C   0  0  0  0  0  0  0  0  0  0  0  0
    7.5569   11.2232   25.1188 C   0  0  0  0  0  0  0  0  0  0  0  0
    8.2165   10.1167   24.5648 C   0  0  0  0  0  0  0  0  0  0  0  0
    9.2501   10.3229   23.6531 C   0  0  0  0  0  0  0  0  0  0  0  0
   10.1118    8.9930   23.0292 Cl  0  0  0  0  0  0  0  0  0  0  0  0
    9.6252   11.5960   23.2692 C   0  0  0  0  0  0  0  0  0  0  0  0
    8.9333   12.7046   23.7566 C   0  0  0  0  0  0  0  0  0  0  0  0
    9.2740   14.0848   23.3782 C   0  0  0  0  0  0  0  0  0  0  0  0
    9.2386   14.8994   24.2102 O   0  0  0  0  0  0  0  0  0  0  0  0
    9.7248   14.1762   21.9150 N   0  0  0  0  0  0  0  0  0  0  0  0
   10.3112   15.2519   21.1947 C   0  0  0  0  0  0  0  0  0  0  0  0
   11.6739   15.4261   21.7741 C   0  0  0  0  0  0  0  0  0  0  0  0
   12.8588   14.8430   21.0860 C   0  0  0  0  0  0  0  0  0  0  0  0
   12.4373   14.2743   22.3998 C   0  0  0  0  0  0  0  0  0  0  0  0
    7.9336   12.4920   24.7050 C   0  0  0  0  0  0  0  0  0  0  0  0
    7.1575   13.3985   25.3883 N   0  0  0  0  0  0  0  0  0  0  0  0
  1  2  1  0
  2  3  1  0
  3  4  2  0
  4  5  1  0
  5  6  2  0
  6  7  1  0
  7  8  1  0
  7  9  2  0
  9 10  1  0
 10 11  1  0
 11 12  2  0
 11 13  1  0
 13 14  1  0
 14 15  1  0
 15 16  1  0
 16 17  1  0
 10 18  2  0
 18 19  1  0
 19  3  1  0
 18  5  1  0
 17 15  1  0
M  END
>  <alias>  (1779) 
None

>  <rmsd(smina/fragmenstein)>  (1779) 
0.612

>  <smiles>  (1779) 
CCc1cc2cc(Cl)cc(C(=O)NCC3CC3)c2[nH]1

>  <gnina_score>  (1779) 
5.408

>  <inspiration_score>  (1779) 
None

>  <energy_score>  (1779) 
-0.131957

>  <distance_score>  (1779) 
1.574572

>  <gnina_score_min>  (1779) 
5.391

>  <inchikey>  (1779) 
ABFLDNNCHNGMCV-UHFFFAOYSA-N

>  <exports>  (1779) 
['/opt/xchem-fragalysis-2/maxwin/BulkDock/OUTPUTS/openbind_a71ev2a_c2_elabs_1LOUU54.sdf', '/opt/xchem-fragalysis-2/maxwin/BulkDock/OUTPUTS/openbind_a71ev2a_c2_elabs_1LSYIDY.sdf']

>  <name>  (1779) 
P585438

>  <ref_pdb>  (1779) 
A0566a

>  <subsites>  (1779) 
None

>  <HIPPO Pose ID>  (1779) 
585438

>  <ref_mols>  (1779) 
A0566a

>  <HIPPO Compound ID>  (1779) 
440507

>  <tags>  (1779) 
openbind_a71ev2a_c2_elabs,syndirella_product,openbind_a71ev2a_c2_elabs_fragonly_scored_top80percent,openbind_a71ev2a_c2_elabs_scored,BulkDock Fragalysis export,openbind_a71ev2a_c2_elabs_scored_top80percent,openbind_a71ev2a_c2_elabs_activefrags_only_scored_5.2plus,syndirella_placed

>  <smina_score_min>  (1779) 
-5.727

$$$$
P585440
     RDKit          3D

 19 20  0  0  0  0  0  0  0  0999 V2000
    6.1805   14.1462   28.1475 C   0  0  0  0  0  0  0  0  0  0  0  0
    5.5856   13.7881   26.7946 C   0  0  0  0  0  0  0  0  0  0  0  0
    6.5293   12.9633   25.9864 C   0  0  0  0  0  0  0  0  0  0  0  0
    6.6574   11.5950   25.8686 C   0  0  0  0  0  0  0  0  0  0  0  0
    7.7109   11.3323   24.9573 C   0  0  0  0  0  0  0  0  0  0  0  0
    8.3024   10.1624   24.4605 C   0  0  0  0  0  0  0  0  0  0  0  0
    9.3743   10.2675   23.5787 C   0  0  0  0  0  0  0  0  0  0  0  0
   10.1768    8.8701   23.0378 Cl  0  0  0  0  0  0  0  0  0  0  0  0
    9.8638   11.4966   23.1834 C   0  0  0  0  0  0  0  0  0  0  0  0
    9.2691   12.6694   23.6325 C   0  0  0  0  0  0  0  0  0  0  0  0
    9.8236   13.9878   23.2860 C   0  0  0  0  0  0  0  0  0  0  0  0
    9.7697   14.8155   24.1028 O   0  0  0  0  0  0  0  0  0  0  0  0
   10.4433   14.0136   21.8833 N   0  0  0  0  0  0  0  0  0  0  0  0
   11.2134   15.0325   21.2195 C   0  0  1  0  0  0  0  0  0  0  0  0
   12.4835   15.2361   22.0264 C   0  0  0  0  0  0  0  0  0  0  0  0
   11.5500   14.6475   19.8415 C   0  0  0  0  0  0  0  0  0  0  0  0
   11.8595   14.3236   18.7720 N   0  0  0  0  0  0  0  0  0  0  0  0
    8.2037   12.5606   24.5320 C   0  0  0  0  0  0  0  0  0  0  0  0
    7.4640   13.5353   25.1619 N   0  0  0  0  0  0  0  0  0  0  0  0
  1  2  1  0
  2  3  1  0
  3  4  2  0
  4  5  1  0
  5  6  2  0
  6  7  1  0
  7  8  1  0
  7  9  2  0
  9 10  1  0
 10 11  1  0
 11 12  2  0
 11 13  1  0
 13 14  1  0
 14 15  1  1
 14 16  1  0
 16 17  3  0
 10 18  2  0
 18 19  1  0
 19  3  1  0
 18  5  1  0
M  END
>  <alias>  (1780) 
None

>  <rmsd(smina/fragmenstein)>  (1780) 
0.345

>  <smiles>  (1780) 
CCc1cc2cc(Cl)cc(C(=O)N[C@@H](C)C#N)c2[nH]1

>  <gnina_score>  (1780) 
5.794

>  <inspiration_score>  (1780) 
None

>  <energy_score>  (1780) 
-21.104317

>  <distance_score>  (1780) 
1.2081

>  <gnina_score_min>  (1780) 
5.888

>  <inchikey>  (1780) 
DUNFAXOTGLOPGR-QMMMGPOBSA-N

>  <exports>  (1780) 
['/opt/xchem-fragalysis-2/maxwin/BulkDock/OUTPUTS/openbind_a71ev2a_c2_elabs_1LOUU54.sdf', '/opt/xchem-fragalysis-2/maxwin/BulkDock/OUTPUTS/openbind_a71ev2a_c2_elabs_1LSYIDY.sdf']

>  <name>  (1780) 
P585440

>  <ref_pdb>  (1780) 
A0566a

>  <subsites>  (1780) 
None

>  <HIPPO Pose ID>  (1780) 
585440

>  <ref_mols>  (1780) 
A0566a

>  <HIPPO Compound ID>  (1780) 
440509

>  <tags>  (1780) 
openbind_a71ev2a_c2_elabs,syndirella_product,openbind_a71ev2a_c2_elabs_fragonly_scored_top80percent,BulkDock Fragalysis export,openbind_a71ev2a_c2_elabs_scored,openbind_a71ev2a_c2_elabs_scored_top80percent,openbind_a71ev2a_c2_elabs_activefrags_only_scored_5.2plus,openbind_a71ev2a_c2_elabs_activefrags_only_scored_5.5plus,syndirella_placed

>  <smina_score_min>  (1780) 
-5.927

$$$$
P585449
     RDKit          3D

 19 20  0  0  0  0  0  0  0  0999 V2000
    9.8325   16.0717   20.6388 C   0  0  0  0  0  0  0  0  0  0  0  0
   10.5101   14.7176   20.6157 C   0  0  1  0  0  0  0  0  0  0  0  0
   12.0237   14.6864   20.6065 C   0  0  0  0  0  0  0  0  0  0  0  0
   12.7163   15.2104   22.1729 S   0  0  0  0  0  0  0  0  0  0  0  0
   10.0151   13.7642   21.5639 N   0  0  0  0  0  0  0  0  0  0  0  0
    9.7283   13.9066   23.0639 C   0  0  0  0  0  0  0  0  0  0  0  0
    9.7745   14.8397   23.7544 O   0  0  0  0  0  0  0  0  0  0  0  0
    9.2308   12.6255   23.6169 C   0  0  0  0  0  0  0  0  0  0  0  0
    9.8452   11.4221   23.2365 C   0  0  0  0  0  0  0  0  0  0  0  0
    9.3563   10.1949   23.6449 C   0  0  0  0  0  0  0  0  0  0  0  0
    8.2854   10.1514   24.5310 C   0  0  0  0  0  0  0  0  0  0  0  0
    7.6767   11.3384   24.9917 C   0  0  0  0  0  0  0  0  0  0  0  0
    6.6194   11.5984   25.9145 C   0  0  0  0  0  0  0  0  0  0  0  0
    5.8460   10.6561   26.6993 C   0  0  0  0  0  0  0  0  0  0  0  0
    4.9793   10.9771   27.5074 O   0  0  0  0  0  0  0  0  0  0  0  0
    6.4307   12.9610   25.9269 C   0  0  0  0  0  0  0  0  0  0  0  0
    7.2696   13.5301   25.0055 N   0  0  0  0  0  0  0  0  0  0  0  0
    7.1367   14.9200   24.6130 C   0  0  0  0  0  0  0  0  0  0  0  0
    8.1297   12.5718   24.4962 C   0  0  0  0  0  0  0  0  0  0  0  0
  2  1  1  1
  2  3  1  0
  3  4  1  0
  2  5  1  0
  5  6  1  0
  6  7  2  0
  6  8  1  0
  8  9  2  0
  9 10  1  0
 10 11  2  0
 11 12  1  0
 12 13  1  0
 13 14  1  0
 14 15  2  0
 13 16  2  0
 16 17  1  0
 17 18  1  0
 17 19  1  0
 19  8  1  0
 19 12  2  0
M  END
>  <alias>  (1781) 
None

>  <rmsd(smina/fragmenstein)>  (1781) 
0.432

>  <smiles>  (1781) 
C[C@@H](CS)NC(=O)c1cccc2c(C=O)cn(C)c12

>  <gnina_score>  (1781) 
5.239

>  <inspiration_score>  (1781) 
None

>  <energy_score>  (1781) 
-3.060511

>  <distance_score>  (1781) 
1.430227

>  <gnina_score_min>  (1781) 
5.211

>  <inchikey>  (1781) 
BPSDRUCIZNRVBP-VIFPVBQESA-N

>  <exports>  (1781) 
['/opt/xchem-fragalysis-2/maxwin/BulkDock/OUTPUTS/openbind_a71ev2a_c2_elabs_1LOUU54.sdf', '/opt/xchem-fragalysis-2/maxwin/BulkDock/OUTPUTS/openbind_a71ev2a_c2_elabs_1LSYIDY.sdf']

>  <name>  (1781) 
P585449

>  <ref_pdb>  (1781) 
A0566a

>  <subsites>  (1781) 
None

>  <HIPPO Pose ID>  (1781) 
585449

>  <ref_mols>  (1781) 
A0566a

>  <HIPPO Compound ID>  (1781) 
440521

>  <tags>  (1781) 
openbind_a71ev2a_c2_elabs,syndirella_product,openbind_a71ev2a_c2_elabs_fragonly_scored_top80percent,openbind_a71ev2a_c2_elabs_scored,BulkDock Fragalysis export,openbind_a71ev2a_c2_elabs_scored_top80percent,openbind_a71ev2a_c2_elabs_activefrags_only_scored_5.2plus,syndirella_placed

>  <smina_score_min>  (1781) 
-5.796

$$$$
P585455
     RDKit          3D

 19 20  0  0  0  0  0  0  0  0999 V2000
    9.6881   16.7708   19.3267 C   0  0  0  0  0  0  0  0  0  0  0  0
   10.2182   15.4272   19.8115 C   0  0  1  0  0  0  0  0  0  0  0  0
   11.4373   14.7176   18.6737 S   0  0  0  0  0  0  0  0  0  0  0  0
   10.8173   15.3879   21.2199 C   0  0  0  0  0  0  0  0  0  0  0  0
   10.2574   14.2802   21.9660 N   0  0  0  0  0  0  0  0  0  0  0  0
   10.2175   14.0144   23.4738 C   0  0  0  0  0  0  0  0  0  0  0  0
   10.5595   14.6778   24.3662 O   0  0  0  0  0  0  0  0  0  0  0  0
    9.5375   12.7327   23.7425 C   0  0  0  0  0  0  0  0  0  0  0  0
   10.0398   11.5664   23.1622 C   0  0  0  0  0  0  0  0  0  0  0  0
    9.4849   10.3267   23.4369 C   0  0  0  0  0  0  0  0  0  0  0  0
    8.4232   10.2343   24.3350 C   0  0  0  0  0  0  0  0  0  0  0  0
    7.8609   11.3961   24.9072 C   0  0  0  0  0  0  0  0  0  0  0  0
    6.7994   11.6225   25.8357 C   0  0  0  0  0  0  0  0  0  0  0  0
    5.9631   10.6497   26.5103 C   0  0  0  0  0  0  0  0  0  0  0  0
    5.1151   10.9333   27.3515 O   0  0  0  0  0  0  0  0  0  0  0  0
    6.6891   12.9868   25.9909 C   0  0  0  0  0  0  0  0  0  0  0  0
    7.6146   13.5961   25.1880 N   0  0  0  0  0  0  0  0  0  0  0  0
    7.6517   15.0303   24.9912 C   0  0  0  0  0  0  0  0  0  0  0  0
    8.4081   12.6449   24.5758 C   0  0  0  0  0  0  0  0  0  0  0  0
  2  1  1  6
  2  3  1  0
  2  4  1  0
  4  5  1  0
  5  6  1  0
  6  7  2  0
  6  8  1  0
  8  9  2  0
  9 10  1  0
 10 11  2  0
 11 12  1  0
 12 13  1  0
 13 14  1  0
 14 15  2  0
 13 16  2  0
 16 17  1  0
 17 18  1  0
 17 19  1  0
 19  8  1  0
 19 12  2  0
M  END
>  <alias>  (1782) 
None

>  <rmsd(smina/fragmenstein)>  (1782) 
0.477

>  <smiles>  (1782) 
C[C@@H](S)CNC(=O)c1cccc2c(C=O)cn(C)c12

>  <gnina_score>  (1782) 
5.261

>  <inspiration_score>  (1782) 
None

>  <energy_score>  (1782) 
-5.613512

>  <distance_score>  (1782) 
1.007354

>  <gnina_score_min>  (1782) 
5.263

>  <inchikey>  (1782) 
OCPCIMKZCITPOR-SECBINFHSA-N

>  <exports>  (1782) 
['/opt/xchem-fragalysis-2/maxwin/BulkDock/OUTPUTS/openbind_a71ev2a_c2_elabs_1LOUU54.sdf', '/opt/xchem-fragalysis-2/maxwin/BulkDock/OUTPUTS/openbind_a71ev2a_c2_elabs_1LSYIDY.sdf']

>  <name>  (1782) 
P585455

>  <ref_pdb>  (1782) 
A0566a

>  <subsites>  (1782) 
None

>  <HIPPO Pose ID>  (1782) 
585455

>  <ref_mols>  (1782) 
A0566a

>  <HIPPO Compound ID>  (1782) 
440530

>  <tags>  (1782) 
openbind_a71ev2a_c2_elabs,syndirella_product,openbind_a71ev2a_c2_elabs_fragonly_scored_top80percent,openbind_a71ev2a_c2_elabs_scored,BulkDock Fragalysis export,openbind_a71ev2a_c2_elabs_scored_top80percent,openbind_a71ev2a_c2_elabs_activefrags_only_scored_5.2plus,syndirella_placed

>  <smina_score_min>  (1782) 
-5.858

$$$$
P585457
     RDKit          3D

 19 21  0  0  0  0  0  0  0  0999 V2000
    5.9974   13.7995   28.4286 C   0  0  0  0  0  0  0  0  0  0  0  0
    5.4638   13.5644   27.0241 C   0  0  0  0  0  0  0  0  0  0  0  0
    6.4400   12.8049   26.1914 C   0  0  0  0  0  0  0  0  0  0  0  0
    6.5745   11.4501   25.9688 C   0  0  0  0  0  0  0  0  0  0  0  0
    7.6615   11.2587   25.0798 C   0  0  0  0  0  0  0  0  0  0  0  0
    8.2626   10.1351   24.4971 C   0  0  0  0  0  0  0  0  0  0  0  0
    9.3502   10.3097   23.6455 C   0  0  0  0  0  0  0  0  0  0  0  0
   10.1203    8.9541   22.9667 Cl  0  0  0  0  0  0  0  0  0  0  0  0
    9.8702   11.5648   23.3885 C   0  0  0  0  0  0  0  0  0  0  0  0
    9.2896   12.6948   23.9618 C   0  0  0  0  0  0  0  0  0  0  0  0
    9.7786   14.0627   23.7026 C   0  0  0  0  0  0  0  0  0  0  0  0
    9.6400   14.8808   24.5209 O   0  0  0  0  0  0  0  0  0  0  0  0
   10.3261   14.1681   22.2716 N   0  0  0  0  0  0  0  0  0  0  0  0
   10.7218   15.2894   21.5267 C   0  0  2  0  0  0  0  0  0  0  0  0
    9.7888   16.2678   20.8590 C   0  0  0  0  0  0  0  0  0  0  0  0
   10.3179   15.1119   20.0860 C   0  0  1  0  0  0  0  0  0  0  0  0
   11.3733   15.1009   19.0550 C   0  0  0  0  0  0  0  0  0  0  0  0
    8.1815   12.5136   24.7929 C   0  0  0  0  0  0  0  0  0  0  0  0
    7.4081   13.4388   25.4566 N   0  0  0  0  0  0  0  0  0  0  0  0
  1  2  1  0
  2  3  1  0
  3  4  2  0
  4  5  1  0
  5  6  2  0
  6  7  1  0
  7  8  1  0
  7  9  2  0
  9 10  1  0
 10 11  1  0
 11 12  2  0
 11 13  1  0
 14 13  1  1
 14 15  1  0
 15 16  1  0
 16 17  1  6
 10 18  2  0
 18 19  1  0
 19  3  1  0
 18  5  1  0
 16 14  1  0
M  END
>  <alias>  (1783) 
None

>  <rmsd(smina/fragmenstein)>  (1783) 
0.772

>  <smiles>  (1783) 
CCc1cc2cc(Cl)cc(C(=O)N[C@@H]3C[C@H]3C)c2[nH]1

>  <gnina_score>  (1783) 
5.643

>  <inspiration_score>  (1783) 
None

>  <energy_score>  (1783) 
-9.687235

>  <distance_score>  (1783) 
1.291075

>  <gnina_score_min>  (1783) 
5.511

>  <inchikey>  (1783) 
DJORWCFINMPGBD-AMIZOPFISA-N

>  <exports>  (1783) 
['/opt/xchem-fragalysis-2/maxwin/BulkDock/OUTPUTS/openbind_a71ev2a_c2_elabs_1LOUU54.sdf', '/opt/xchem-fragalysis-2/maxwin/BulkDock/OUTPUTS/openbind_a71ev2a_c2_elabs_1LSYIDY.sdf']

>  <name>  (1783) 
P585457

>  <ref_pdb>  (1783) 
A0566a

>  <subsites>  (1783) 
None

>  <HIPPO Pose ID>  (1783) 
585457

>  <ref_mols>  (1783) 
A0566a

>  <HIPPO Compound ID>  (1783) 
440533

>  <tags>  (1783) 
openbind_a71ev2a_c2_elabs,syndirella_product,openbind_a71ev2a_c2_elabs_fragonly_scored_top80percent,BulkDock Fragalysis export,openbind_a71ev2a_c2_elabs_scored,openbind_a71ev2a_c2_elabs_scored_top80percent,openbind_a71ev2a_c2_elabs_activefrags_only_scored_5.2plus,openbind_a71ev2a_c2_elabs_activefrags_only_scored_5.5plus,syndirella_placed

>  <smina_score_min>  (1783) 
-5.971

$$$$
P585459
     RDKit          3D

 19 21  0  0  0  0  0  0  0  0999 V2000
    9.1736   16.8127   20.4969 C   0  0  0  0  0  0  0  0  0  0  0  0
   10.0168   15.9879   20.7185 C   0  0  0  0  0  0  0  0  0  0  0  0
   11.1165   15.0495   20.9723 C   0  0  2  0  0  0  0  0  0  0  0  0
   11.6773   14.5568   19.6464 C   0  0  0  0  0  0  0  0  0  0  0  0
   10.6213   13.9550   21.7606 N   0  0  0  0  0  0  0  0  0  0  0  0
   10.2819   13.8756   23.2553 C   0  0  0  0  0  0  0  0  0  0  0  0
   10.4213   14.6612   24.1045 O   0  0  0  0  0  0  0  0  0  0  0  0
    9.5802   12.6152   23.6032 C   0  0  0  0  0  0  0  0  0  0  0  0
    9.9661   11.3735   23.0991 C   0  0  0  0  0  0  0  0  0  0  0  0
    9.3471   10.1937   23.4976 C   0  0  0  0  0  0  0  0  0  0  0  0
    8.3202   10.2279   24.4424 C   0  0  0  0  0  0  0  0  0  0  0  0
    7.8881   11.4611   24.9566 C   0  0  0  0  0  0  0  0  0  0  0  0
    6.9341   11.8687   25.9017 C   0  0  0  0  0  0  0  0  0  0  0  0
    6.9748   13.2302   25.9843 C   0  0  0  0  0  0  0  0  0  0  0  0
    7.9128   13.7158   25.1455 N   0  0  0  0  0  0  0  0  0  0  0  0
    8.5202   12.6362   24.5172 C   0  0  0  0  0  0  0  0  0  0  0  0
    6.0382   13.8336   26.9458 C   0  0  0  0  0  0  0  0  0  0  0  0
    5.6172   12.5558   27.7464 C   0  0  0  0  0  0  0  0  0  0  0  0
    5.9338   11.3178   26.8364 C   0  0  0  0  0  0  0  0  0  0  0  0
  1  2  3  0
  2  3  1  0
  3  4  1  6
  3  5  1  0
  5  6  1  0
  6  7  2  0
  6  8  1  0
  8  9  2  0
  9 10  1  0
 10 11  2  0
 11 12  1  0
 12 13  1  0
 13 14  2  0
 14 15  1  0
 15 16  1  0
 14 17  1  0
 17 18  1  0
 18 19  1  0
 16  8  1  0
 16 12  2  0
 19 13  1  0
M  END
>  <alias>  (1784) 
None

>  <rmsd(smina/fragmenstein)>  (1784) 
0.562

>  <smiles>  (1784) 
C#C[C@H](C)NC(=O)c1cccc2c3c([nH]c12)CCC3

>  <gnina_score>  (1784) 
5.441

>  <inspiration_score>  (1784) 
None

>  <energy_score>  (1784) 
-10.918795

>  <distance_score>  (1784) 
1.024555

>  <gnina_score_min>  (1784) 
5.404

>  <inchikey>  (1784) 
WOJBXCKKDSVWCF-JTQLQIEISA-N

>  <exports>  (1784) 
['/opt/xchem-fragalysis-2/maxwin/BulkDock/OUTPUTS/openbind_a71ev2a_c2_elabs_1LOUU54.sdf', '/opt/xchem-fragalysis-2/maxwin/BulkDock/OUTPUTS/openbind_a71ev2a_c2_elabs_1LSYIDY.sdf']

>  <name>  (1784) 
P585459

>  <ref_pdb>  (1784) 
A0566a

>  <subsites>  (1784) 
None

>  <HIPPO Pose ID>  (1784) 
585459

>  <ref_mols>  (1784) 
A0566a

>  <HIPPO Compound ID>  (1784) 
440536

>  <tags>  (1784) 
openbind_a71ev2a_c2_elabs,syndirella_product,openbind_a71ev2a_c2_elabs_fragonly_scored_top80percent,openbind_a71ev2a_c2_elabs_scored,BulkDock Fragalysis export,openbind_a71ev2a_c2_elabs_scored_top80percent,openbind_a71ev2a_c2_elabs_activefrags_only_scored_5.2plus,syndirella_placed

>  <smina_score_min>  (1784) 
-6.619

$$$$
P585463
     RDKit          3D

 19 21  0  0  0  0  0  0  0  0999 V2000
    9.7298   16.5644   20.2221 C   0  0  0  0  0  0  0  0  0  0  0  0
   10.4398   15.2218   20.1637 C   0  0  1  0  0  0  0  0  0  0  0  0
   11.4303   14.9895   18.7124 Cl  0  0  0  0  0  0  0  0  0  0  0  0
   11.2736   14.9108   21.4064 C   0  0  0  0  0  0  0  0  0  0  0  0
   10.5850   13.8736   22.1173 N   0  0  0  0  0  0  0  0  0  0  0  0
   10.1509   13.7913   23.5791 C   0  0  0  0  0  0  0  0  0  0  0  0
   10.2118   14.5821   24.4301 O   0  0  0  0  0  0  0  0  0  0  0  0
    9.4687   12.5025   23.8511 C   0  0  0  0  0  0  0  0  0  0  0  0
    9.8605   11.2851   23.2839 C   0  0  0  0  0  0  0  0  0  0  0  0
    9.2319   10.0943   23.6216 C   0  0  0  0  0  0  0  0  0  0  0  0
    8.1956   10.0914   24.5577 C   0  0  0  0  0  0  0  0  0  0  0  0
    7.7452   11.3000   25.1109 C   0  0  0  0  0  0  0  0  0  0  0  0
    6.7820   11.6677   26.0634 C   0  0  0  0  0  0  0  0  0  0  0  0
    6.8000   13.0268   26.1800 C   0  0  0  0  0  0  0  0  0  0  0  0
    7.7395   13.5472   25.3644 N   0  0  0  0  0  0  0  0  0  0  0  0
    8.3772   12.4907   24.7257 C   0  0  0  0  0  0  0  0  0  0  0  0
    5.8473   13.5949   27.1464 C   0  0  0  0  0  0  0  0  0  0  0  0
    4.9770   12.3296   27.4513 C   0  0  0  0  0  0  0  0  0  0  0  0
    5.7979   11.0743   26.9901 C   0  0  0  0  0  0  0  0  0  0  0  0
  2  1  1  1
  2  3  1  0
  2  4  1  0
  4  5  1  0
  5  6  1  0
  6  7  2  0
  6  8  1  0
  8  9  2  0
  9 10  1  0
 10 11  2  0
 11 12  1  0
 12 13  1  0
 13 14  2  0
 14 15  1  0
 15 16  1  0
 14 17  1  0
 17 18  1  0
 18 19  1  0
 16  8  1  0
 16 12  2  0
 19 13  1  0
M  END
>  <alias>  (1785) 
None

>  <rmsd(smina/fragmenstein)>  (1785) 
0.366

>  <smiles>  (1785) 
C[C@@H](Cl)CNC(=O)c1cccc2c3c([nH]c12)CCC3

>  <gnina_score>  (1785) 
5.48

>  <inspiration_score>  (1785) 
None

>  <energy_score>  (1785) 
-6.633398

>  <distance_score>  (1785) 
1.074612

>  <gnina_score_min>  (1785) 
5.492

>  <inchikey>  (1785) 
WMIGWKMMJSGTMG-SECBINFHSA-N

>  <exports>  (1785) 
['/opt/xchem-fragalysis-2/maxwin/BulkDock/OUTPUTS/openbind_a71ev2a_c2_elabs_1LOUU54.sdf', '/opt/xchem-fragalysis-2/maxwin/BulkDock/OUTPUTS/openbind_a71ev2a_c2_elabs_1LSYIDY.sdf']

>  <name>  (1785) 
P585463

>  <ref_pdb>  (1785) 
A0566a

>  <subsites>  (1785) 
None

>  <HIPPO Pose ID>  (1785) 
585463

>  <ref_mols>  (1785) 
A0566a

>  <HIPPO Compound ID>  (1785) 
440544

>  <tags>  (1785) 
openbind_a71ev2a_c2_elabs,syndirella_product,openbind_a71ev2a_c2_elabs_fragonly_scored_top80percent,openbind_a71ev2a_c2_elabs_scored,BulkDock Fragalysis export,openbind_a71ev2a_c2_elabs_scored_top80percent,openbind_a71ev2a_c2_elabs_activefrags_only_scored_5.2plus,syndirella_placed

>  <smina_score_min>  (1785) 
-6.845

$$$$
P585464
     RDKit          3D

 19 21  0  0  0  0  0  0  0  0999 V2000
   12.5540   15.2751   22.0008 C   0  0  0  0  0  0  0  0  0  0  0  0
   11.3544   14.9256   21.1396 C   0  0  1  0  0  0  0  0  0  0  0  0
   11.8139   14.4821   19.7544 C   0  0  0  0  0  0  0  0  0  0  0  0
   10.7770   13.9942   19.0411 F   0  0  0  0  0  0  0  0  0  0  0  0
   10.5813   13.9152   21.8237 N   0  0  0  0  0  0  0  0  0  0  0  0
   10.0732   13.8573   23.2735 C   0  0  0  0  0  0  0  0  0  0  0  0
   10.1308   14.6499   24.1271 O   0  0  0  0  0  0  0  0  0  0  0  0
    9.4192   12.5686   23.6068 C   0  0  0  0  0  0  0  0  0  0  0  0
    9.8725   11.3371   23.1276 C   0  0  0  0  0  0  0  0  0  0  0  0
    9.3030   10.1381   23.5398 C   0  0  0  0  0  0  0  0  0  0  0  0
    8.2775   10.1401   24.4868 C   0  0  0  0  0  0  0  0  0  0  0  0
    7.8006   11.3566   24.9989 C   0  0  0  0  0  0  0  0  0  0  0  0
    6.8501   11.7307   25.9615 C   0  0  0  0  0  0  0  0  0  0  0  0
    6.8316   13.0931   26.0301 C   0  0  0  0  0  0  0  0  0  0  0  0
    7.7282   13.6103   25.1661 N   0  0  0  0  0  0  0  0  0  0  0  0
    8.3702   12.5520   24.5348 C   0  0  0  0  0  0  0  0  0  0  0  0
    5.8885   13.6654   27.0038 C   0  0  0  0  0  0  0  0  0  0  0  0
    5.5358   12.3794   27.8237 C   0  0  0  0  0  0  0  0  0  0  0  0
    5.8992   11.1449   26.9264 C   0  0  0  0  0  0  0  0  0  0  0  0
  2  1  1  1
  2  3  1  0
  3  4  1  0
  2  5  1  0
  5  6  1  0
  6  7  2  0
  6  8  1  0
  8  9  2  0
  9 10  1  0
 10 11  2  0
 11 12  1  0
 12 13  1  0
 13 14  2  0
 14 15  1  0
 15 16  1  0
 14 17  1  0
 17 18  1  0
 18 19  1  0
 16  8  1  0
 16 12  2  0
 19 13  1  0
M  END
>  <alias>  (1786) 
None

>  <rmsd(smina/fragmenstein)>  (1786) 
0.707

>  <smiles>  (1786) 
C[C@@H](CF)NC(=O)c1cccc2c3c([nH]c12)CCC3

>  <gnina_score>  (1786) 
5.195

>  <inspiration_score>  (1786) 
None

>  <energy_score>  (1786) 
-0.481664

>  <distance_score>  (1786) 
1.085613

>  <gnina_score_min>  (1786) 
5.382

>  <inchikey>  (1786) 
CEGKTCKVZPIVPA-VIFPVBQESA-N

>  <exports>  (1786) 
['/opt/xchem-fragalysis-2/maxwin/BulkDock/OUTPUTS/openbind_a71ev2a_c2_elabs_1LOUU54.sdf', '/opt/xchem-fragalysis-2/maxwin/BulkDock/OUTPUTS/openbind_a71ev2a_c2_elabs_1LSYIDY.sdf']

>  <name>  (1786) 
P585464

>  <ref_pdb>  (1786) 
A0566a

>  <subsites>  (1786) 
None

>  <HIPPO Pose ID>  (1786) 
585464

>  <ref_mols>  (1786) 
A0566a

>  <HIPPO Compound ID>  (1786) 
440545

>  <tags>  (1786) 
openbind_a71ev2a_c2_elabs,syndirella_product,openbind_a71ev2a_c2_elabs_fragonly_scored_top80percent,openbind_a71ev2a_c2_elabs_scored,BulkDock Fragalysis export,openbind_a71ev2a_c2_elabs_scored_top80percent,openbind_a71ev2a_c2_elabs_activefrags_only_scored_5.2plus,syndirella_placed

>  <smina_score_min>  (1786) 
-6.972

$$$$
P585466
     RDKit          3D

 19 22  0  0  0  0  0  0  0  0999 V2000
   10.3685   14.6653   24.4244 O   0  0  0  0  0  0  0  0  0  0  0  0
   10.2189   13.9390   23.5088 C   0  0  0  0  0  0  0  0  0  0  0  0
    9.5001   12.6676   23.7352 C   0  0  0  0  0  0  0  0  0  0  0  0
    9.9203   11.4737   23.1464 C   0  0  0  0  0  0  0  0  0  0  0  0
    9.3353   10.2572   23.4796 C   0  0  0  0  0  0  0  0  0  0  0  0
    8.3103   10.2107   24.4286 C   0  0  0  0  0  0  0  0  0  0  0  0
    7.8327   11.3997   25.0056 C   0  0  0  0  0  0  0  0  0  0  0  0
    6.8635   11.7268   25.9686 C   0  0  0  0  0  0  0  0  0  0  0  0
    6.8652   13.0822   26.1254 C   0  0  0  0  0  0  0  0  0  0  0  0
    7.7959   13.6399   25.3238 N   0  0  0  0  0  0  0  0  0  0  0  0
    8.4318   12.6153   24.6361 C   0  0  0  0  0  0  0  0  0  0  0  0
    5.9078   13.6093   27.1105 C   0  0  0  0  0  0  0  0  0  0  0  0
    5.0490   12.3275   27.3727 C   0  0  0  0  0  0  0  0  0  0  0  0
    5.8830   11.0954   26.8745 C   0  0  0  0  0  0  0  0  0  0  0  0
   10.6509   14.0780   22.0778 N   0  0  0  0  0  0  0  0  0  0  0  0
   11.4905   15.1353   21.3996 C   0  0  0  0  0  0  0  0  0  0  0  0
   10.5791   15.1977   20.2133 C   0  0  0  0  0  0  0  0  0  0  0  0
   10.8473   14.3710   19.1797 F   0  0  0  0  0  0  0  0  0  0  0  0
    9.5578   14.7855   21.2176 C   0  0  0  0  0  0  0  0  0  0  0  0
  1  2  2  0
  2  3  1  0
  3  4  2  0
  4  5  1  0
  5  6  2  0
  6  7  1  0
  7  8  1  0
  8  9  2  0
  9 10  1  0
 10 11  1  0
  9 12  1  0
 12 13  1  0
 13 14  1  0
  2 15  1  0
 15 16  1  0
 16 17  1  0
 17 18  1  0
 17 19  1  0
 11  3  1  0
 19 15  1  0
 11  7  2  0
 14  8  1  0
M  END
>  <alias>  (1787) 
None

>  <rmsd(smina/fragmenstein)>  (1787) 
0.274

>  <smiles>  (1787) 
O=C(c1cccc2c3c([nH]c12)CCC3)N1CC(F)C1

>  <gnina_score>  (1787) 
5.335

>  <inspiration_score>  (1787) 
None

>  <energy_score>  (1787) 
-8.617456

>  <distance_score>  (1787) 
0.965048

>  <gnina_score_min>  (1787) 
5.296

>  <inchikey>  (1787) 
YLMJSFRWQDZMSK-UHFFFAOYSA-N

>  <exports>  (1787) 
['/opt/xchem-fragalysis-2/maxwin/BulkDock/OUTPUTS/openbind_a71ev2a_c2_elabs_1LOUU54.sdf', '/opt/xchem-fragalysis-2/maxwin/BulkDock/OUTPUTS/openbind_a71ev2a_c2_elabs_1LSYIDY.sdf']

>  <name>  (1787) 
P585466

>  <ref_pdb>  (1787) 
A0566a

>  <subsites>  (1787) 
None

>  <HIPPO Pose ID>  (1787) 
585466

>  <ref_mols>  (1787) 
A0566a

>  <HIPPO Compound ID>  (1787) 
440546

>  <tags>  (1787) 
openbind_a71ev2a_c2_elabs,syndirella_product,openbind_a71ev2a_c2_elabs_fragonly_scored_top80percent,openbind_a71ev2a_c2_elabs_scored,BulkDock Fragalysis export,openbind_a71ev2a_c2_elabs_scored_top80percent,openbind_a71ev2a_c2_elabs_activefrags_only_scored_5.2plus,syndirella_placed

>  <smina_score_min>  (1787) 
-7.031

$$$$
P585468
     RDKit          3D

 19 22  0  0  0  0  0  0  0  0999 V2000
    7.5947   14.3477   21.4958 C   0  0  0  0  0  0  0  0  0  0  0  0
    8.8707   15.0855   21.8007 C   0  0  2  0  0  0  0  0  0  0  0  0
    9.5509   15.7275   20.6428 C   0  0  0  0  0  0  0  0  0  0  0  0
   10.7862   15.2722   21.3106 C   0  0  0  0  0  0  0  0  0  0  0  0
   10.1124   14.1616   22.0919 N   0  0  0  0  0  0  0  0  0  0  0  0
   10.1958   13.7974   23.5455 C   0  0  0  0  0  0  0  0  0  0  0  0
   10.7440   14.3383   24.4368 O   0  0  0  0  0  0  0  0  0  0  0  0
    9.4669   12.5549   23.8059 C   0  0  0  0  0  0  0  0  0  0  0  0
    9.8611   11.3652   23.1967 C   0  0  0  0  0  0  0  0  0  0  0  0
    9.2601   10.1626   23.5386 C   0  0  0  0  0  0  0  0  0  0  0  0
    8.2431   10.1373   24.5000 C   0  0  0  0  0  0  0  0  0  0  0  0
    7.7870   11.3341   25.0807 C   0  0  0  0  0  0  0  0  0  0  0  0
    6.8257   11.6821   26.0428 C   0  0  0  0  0  0  0  0  0  0  0  0
    6.8470   13.0388   26.1908 C   0  0  0  0  0  0  0  0  0  0  0  0
    7.7901   13.5776   25.3896 N   0  0  0  0  0  0  0  0  0  0  0  0
    8.4077   12.5374   24.7123 C   0  0  0  0  0  0  0  0  0  0  0  0
    5.8937   13.5852   27.1695 C   0  0  0  0  0  0  0  0  0  0  0  0
    5.0156   12.3169   27.4357 C   0  0  0  0  0  0  0  0  0  0  0  0
    5.8368   11.0703   26.9526 C   0  0  0  0  0  0  0  0  0  0  0  0
  2  1  1  6
  2  3  1  0
  3  4  1  0
  4  5  1  0
  5  6  1  0
  6  7  2  0
  6  8  1  0
  8  9  2  0
  9 10  1  0
 10 11  2  0
 11 12  1  0
 12 13  1  0
 13 14  2  0
 14 15  1  0
 15 16  1  0
 14 17  1  0
 17 18  1  0
 18 19  1  0
  5  2  1  0
 16  8  1  0
 16 12  2  0
 19 13  1  0
M  END
>  <alias>  (1788) 
None

>  <rmsd(smina/fragmenstein)>  (1788) 
0.427

>  <smiles>  (1788) 
C[C@@H]1CCN1C(=O)c1cccc2c3c([nH]c12)CCC3

>  <gnina_score>  (1788) 
5.247

>  <inspiration_score>  (1788) 
None

>  <energy_score>  (1788) 
-6.653413

>  <distance_score>  (1788) 
1.024776

>  <gnina_score_min>  (1788) 
5.387

>  <inchikey>  (1788) 
KOQYAQYRXXMDHJ-SNVBAGLBSA-N

>  <exports>  (1788) 
['/opt/xchem-fragalysis-2/maxwin/BulkDock/OUTPUTS/openbind_a71ev2a_c2_elabs_1LOUU54.sdf', '/opt/xchem-fragalysis-2/maxwin/BulkDock/OUTPUTS/openbind_a71ev2a_c2_elabs_1LSYIDY.sdf']

>  <name>  (1788) 
P585468

>  <ref_pdb>  (1788) 
A0566a

>  <subsites>  (1788) 
None

>  <HIPPO Pose ID>  (1788) 
585468

>  <ref_mols>  (1788) 
A0566a

>  <HIPPO Compound ID>  (1788) 
440549

>  <tags>  (1788) 
openbind_a71ev2a_c2_elabs,syndirella_product,openbind_a71ev2a_c2_elabs_fragonly_scored_top80percent,openbind_a71ev2a_c2_elabs_scored,BulkDock Fragalysis export,openbind_a71ev2a_c2_elabs_scored_top80percent,openbind_a71ev2a_c2_elabs_activefrags_only_scored_5.2plus,syndirella_placed

>  <smina_score_min>  (1788) 
-6.919

$$$$
P585472
     RDKit          3D

 19 21  0  0  0  0  0  0  0  0999 V2000
   12.7376   15.1994   21.7403 C   0  0  0  0  0  0  0  0  0  0  0  0
   12.2695   14.3627   20.2170 S   0  0  0  0  0  0  0  0  0  0  0  0
   10.7339   15.2059   19.7401 C   0  0  0  0  0  0  0  0  0  0  0  0
    9.7337   15.5092   20.8495 C   0  0  0  0  0  0  0  0  0  0  0  0
    9.4181   14.3871   21.7025 N   0  0  0  0  0  0  0  0  0  0  0  0
    9.8935   14.0488   23.1242 C   0  0  0  0  0  0  0  0  0  0  0  0
   10.5541   14.6580   23.8641 O   0  0  0  0  0  0  0  0  0  0  0  0
    9.3484   12.7605   23.5676 C   0  0  0  0  0  0  0  0  0  0  0  0
    9.8790   11.5641   23.0898 C   0  0  0  0  0  0  0  0  0  0  0  0
    9.3670   10.3399   23.5052 C   0  0  0  0  0  0  0  0  0  0  0  0
    8.3357   10.2953   24.4505 C   0  0  0  0  0  0  0  0  0  0  0  0
    7.8105   11.4907   24.9758 C   0  0  0  0  0  0  0  0  0  0  0  0
    6.8391   11.8261   25.9338 C   0  0  0  0  0  0  0  0  0  0  0  0
    6.7852   13.1873   26.0201 C   0  0  0  0  0  0  0  0  0  0  0  0
    7.6663   13.7448   25.1630 N   0  0  0  0  0  0  0  0  0  0  0  0
    8.3282   12.7136   24.5155 C   0  0  0  0  0  0  0  0  0  0  0  0
    5.8193   13.7262   26.9901 C   0  0  0  0  0  0  0  0  0  0  0  0
    5.0206   12.4262   27.3363 C   0  0  0  0  0  0  0  0  0  0  0  0
    5.8909   11.2028   26.8789 C   0  0  0  0  0  0  0  0  0  0  0  0
  1  2  1  0
  2  3  1  0
  3  4  1  0
  4  5  1  0
  5  6  1  0
  6  7  2  0
  6  8  1  0
  8  9  2  0
  9 10  1  0
 10 11  2  0
 11 12  1  0
 12 13  1  0
 13 14  2  0
 14 15  1  0
 15 16  1  0
 14 17  1  0
 17 18  1  0
 18 19  1  0
 16  8  1  0
 16 12  2  0
 19 13  1  0
M  END
>  <alias>  (1789) 
None

>  <rmsd(smina/fragmenstein)>  (1789) 
0.514

>  <smiles>  (1789) 
CSCCNC(=O)c1cccc2c3c([nH]c12)CCC3

>  <gnina_score>  (1789) 
5.345

>  <inspiration_score>  (1789) 
None

>  <energy_score>  (1789) 
-1.600307

>  <distance_score>  (1789) 
1.34114

>  <gnina_score_min>  (1789) 
5.325

>  <inchikey>  (1789) 
BGRHZUWICFDMNB-UHFFFAOYSA-N

>  <exports>  (1789) 
['/opt/xchem-fragalysis-2/maxwin/BulkDock/OUTPUTS/openbind_a71ev2a_c2_elabs_1LOUU54.sdf', '/opt/xchem-fragalysis-2/maxwin/BulkDock/OUTPUTS/openbind_a71ev2a_c2_elabs_1LSYIDY.sdf']

>  <name>  (1789) 
P585472

>  <ref_pdb>  (1789) 
A0566a

>  <subsites>  (1789) 
None

>  <HIPPO Pose ID>  (1789) 
585472

>  <ref_mols>  (1789) 
A0566a

>  <HIPPO Compound ID>  (1789) 
440558

>  <tags>  (1789) 
openbind_a71ev2a_c2_elabs,syndirella_product,openbind_a71ev2a_c2_elabs_fragonly_scored_top80percent,openbind_a71ev2a_c2_elabs_scored,BulkDock Fragalysis export,openbind_a71ev2a_c2_elabs_scored_top80percent,openbind_a71ev2a_c2_elabs_activefrags_only_scored_5.2plus,syndirella_placed

>  <smina_score_min>  (1789) 
-5.466

$$$$
P585474
     RDKit          3D

 19 21  0  0  0  0  0  0  0  0999 V2000
    9.6125   15.9689   20.4788 C   0  0  0  0  0  0  0  0  0  0  0  0
   10.7702   15.1424   21.0237 C   0  0  2  0  0  0  0  0  0  0  0  0
   11.5949   14.6521   19.9116 C   0  0  0  0  0  0  0  0  0  0  0  0
   12.2149   14.2059   19.0395 N   0  0  0  0  0  0  0  0  0  0  0  0
   10.2491   14.0296   21.7858 N   0  0  0  0  0  0  0  0  0  0  0  0
    9.8526   13.9330   23.2613 C   0  0  0  0  0  0  0  0  0  0  0  0
    9.8081   14.7525   24.0856 O   0  0  0  0  0  0  0  0  0  0  0  0
    9.3609   12.5867   23.6410 C   0  0  0  0  0  0  0  0  0  0  0  0
    9.8798   11.3928   23.1385 C   0  0  0  0  0  0  0  0  0  0  0  0
    9.3605   10.1605   23.5225 C   0  0  0  0  0  0  0  0  0  0  0  0
    8.3256   10.0942   24.4603 C   0  0  0  0  0  0  0  0  0  0  0  0
    7.7971   11.2726   25.0094 C   0  0  0  0  0  0  0  0  0  0  0  0
    6.8225   11.5841   25.9738 C   0  0  0  0  0  0  0  0  0  0  0  0
    6.7641   12.9420   26.0883 C   0  0  0  0  0  0  0  0  0  0  0  0
    7.6420   13.5150   25.2408 N   0  0  0  0  0  0  0  0  0  0  0  0
    8.3215   12.4988   24.5787 C   0  0  0  0  0  0  0  0  0  0  0  0
    5.8106   13.4609   27.0796 C   0  0  0  0  0  0  0  0  0  0  0  0
    5.0357   12.1494   27.4360 C   0  0  0  0  0  0  0  0  0  0  0  0
    5.8855   10.9368   26.9144 C   0  0  0  0  0  0  0  0  0  0  0  0
  2  1  1  6
  2  3  1  0
  3  4  3  0
  2  5  1  0
  5  6  1  0
  6  7  2  0
  6  8  1  0
  8  9  2  0
  9 10  1  0
 10 11  2  0
 11 12  1  0
 12 13  1  0
 13 14  2  0
 14 15  1  0
 15 16  1  0
 14 17  1  0
 17 18  1  0
 18 19  1  0
 16  8  1  0
 16 12  2  0
 19 13  1  0
M  END
>  <alias>  (1790) 
None

>  <rmsd(smina/fragmenstein)>  (1790) 
0.639

>  <smiles>  (1790) 
C[C@H](C#N)NC(=O)c1cccc2c3c([nH]c12)CCC3

>  <gnina_score>  (1790) 
5.565

>  <inspiration_score>  (1790) 
None

>  <energy_score>  (1790) 
-9.019437

>  <distance_score>  (1790) 
1.232504

>  <gnina_score_min>  (1790) 
5.766

>  <inchikey>  (1790) 
DIILBUAYNKVLJA-SECBINFHSA-N

>  <exports>  (1790) 
['/opt/xchem-fragalysis-2/maxwin/BulkDock/OUTPUTS/openbind_a71ev2a_c2_elabs_1LOUU54.sdf', '/opt/xchem-fragalysis-2/maxwin/BulkDock/OUTPUTS/openbind_a71ev2a_c2_elabs_1LSYIDY.sdf']

>  <name>  (1790) 
P585474

>  <ref_pdb>  (1790) 
A0566a

>  <subsites>  (1790) 
None

>  <HIPPO Pose ID>  (1790) 
585474

>  <ref_mols>  (1790) 
A0566a

>  <HIPPO Compound ID>  (1790) 
440561

>  <tags>  (1790) 
openbind_a71ev2a_c2_elabs,syndirella_product,openbind_a71ev2a_c2_elabs_fragonly_scored_top80percent,BulkDock Fragalysis export,openbind_a71ev2a_c2_elabs_scored,openbind_a71ev2a_c2_elabs_scored_top80percent,openbind_a71ev2a_c2_elabs_activefrags_only_scored_5.2plus,openbind_a71ev2a_c2_elabs_activefrags_only_scored_5.5plus,syndirella_placed

>  <smina_score_min>  (1790) 
-6.631

$$$$
P585475
     RDKit          3D

 19 22  0  0  0  0  0  0  0  0999 V2000
    9.9870   15.4532   20.7183 C   0  0  0  0  0  0  0  0  0  0  0  0
   11.3525   15.5570   21.3145 C   0  0  2  0  0  0  0  0  0  0  0  0
   12.4265   14.6571   20.7768 C   0  0  0  0  0  0  0  0  0  0  0  0
   11.9706   14.5039   22.1777 C   0  0  2  0  0  0  0  0  0  0  0  0
   11.0929   13.5513   22.6539 N   0  0  0  0  0  0  0  0  0  0  0  0
   10.1930   13.5581   23.8927 C   0  0  0  0  0  0  0  0  0  0  0  0
   10.1014   14.3355   24.7559 O   0  0  0  0  0  0  0  0  0  0  0  0
    9.3526   12.3402   23.9658 C   0  0  0  0  0  0  0  0  0  0  0  0
    9.7109   11.1219   23.3758 C   0  0  0  0  0  0  0  0  0  0  0  0
    9.0557    9.9499   23.7053 C   0  0  0  0  0  0  0  0  0  0  0  0
    8.0286    9.9625   24.6491 C   0  0  0  0  0  0  0  0  0  0  0  0
    7.5880   11.1756   25.1942 C   0  0  0  0  0  0  0  0  0  0  0  0
    6.6474   11.5532   26.1632 C   0  0  0  0  0  0  0  0  0  0  0  0
    6.6811   12.9115   26.2804 C   0  0  0  0  0  0  0  0  0  0  0  0
    7.6213   13.4192   25.4579 N   0  0  0  0  0  0  0  0  0  0  0  0
    8.2348   12.3545   24.8076 C   0  0  0  0  0  0  0  0  0  0  0  0
    5.7634   13.4854   27.2770 C   0  0  0  0  0  0  0  0  0  0  0  0
    4.8931   12.2252   27.6071 C   0  0  0  0  0  0  0  0  0  0  0  0
    5.6950   10.9657   27.1257 C   0  0  0  0  0  0  0  0  0  0  0  0
  2  1  1  6
  2  3  1  0
  3  4  1  0
  4  5  1  6
  5  6  1  0
  6  7  2  0
  6  8  1  0
  8  9  2  0
  9 10  1  0
 10 11  2  0
 11 12  1  0
 12 13  1  0
 13 14  2  0
 14 15  1  0
 15 16  1  0
 14 17  1  0
 17 18  1  0
 18 19  1  0
  4  2  1  0
 16  8  1  0
 16 12  2  0
 19 13  1  0
M  END
>  <alias>  (1791) 
None

>  <rmsd(smina/fragmenstein)>  (1791) 
0.257

>  <smiles>  (1791) 
C[C@@H]1C[C@@H]1NC(=O)c1cccc2c3c([nH]c12)CCC3

>  <gnina_score>  (1791) 
5.246

>  <inspiration_score>  (1791) 
None

>  <energy_score>  (1791) 
-2.796896

>  <distance_score>  (1791) 
1.138599

>  <gnina_score_min>  (1791) 
5.29

>  <inchikey>  (1791) 
WHTVFSFRZHNKSD-OTYXRUKQSA-N

>  <exports>  (1791) 
['/opt/xchem-fragalysis-2/maxwin/BulkDock/OUTPUTS/openbind_a71ev2a_c2_elabs_1LOUU54.sdf', '/opt/xchem-fragalysis-2/maxwin/BulkDock/OUTPUTS/openbind_a71ev2a_c2_elabs_1LSYIDY.sdf']

>  <name>  (1791) 
P585475

>  <ref_pdb>  (1791) 
A0566a

>  <subsites>  (1791) 
None

>  <HIPPO Pose ID>  (1791) 
585475

>  <ref_mols>  (1791) 
A0566a

>  <HIPPO Compound ID>  (1791) 
440562

>  <tags>  (1791) 
openbind_a71ev2a_c2_elabs,syndirella_product,openbind_a71ev2a_c2_elabs_fragonly_scored_top80percent,openbind_a71ev2a_c2_elabs_scored,BulkDock Fragalysis export,openbind_a71ev2a_c2_elabs_scored_top80percent,openbind_a71ev2a_c2_elabs_activefrags_only_scored_5.2plus,syndirella_placed

>  <smina_score_min>  (1791) 
-6.796

$$$$
P585479
     RDKit          3D

 19 22  0  0  0  0  0  0  0  0999 V2000
   12.4263   15.3774   21.8707 C   0  0  0  0  0  0  0  0  0  0  0  0
   11.1701   14.8350   21.2602 C   0  0  0  0  0  0  0  0  0  0  0  0
   10.6109   13.7795   21.9980 N   0  0  0  0  0  0  0  0  0  0  0  0
   10.0407   13.7505   23.4274 C   0  0  0  0  0  0  0  0  0  0  0  0
   10.0143   14.5796   24.2486 O   0  0  0  0  0  0  0  0  0  0  0  0
    9.3847   12.4605   23.7372 C   0  0  0  0  0  0  0  0  0  0  0  0
    9.8182   11.2364   23.2208 C   0  0  0  0  0  0  0  0  0  0  0  0
    9.2298   10.0413   23.6082 C   0  0  0  0  0  0  0  0  0  0  0  0
    8.2000   10.0409   24.5518 C   0  0  0  0  0  0  0  0  0  0  0  0
    7.7282   11.2516   25.0807 C   0  0  0  0  0  0  0  0  0  0  0  0
    6.7714   11.6214   26.0395 C   0  0  0  0  0  0  0  0  0  0  0  0
    6.7691   12.9824   26.1301 C   0  0  0  0  0  0  0  0  0  0  0  0
    7.6811   13.5018   25.2837 N   0  0  0  0  0  0  0  0  0  0  0  0
    8.3197   12.4449   24.6460 C   0  0  0  0  0  0  0  0  0  0  0  0
    5.8278   13.5542   27.1052 C   0  0  0  0  0  0  0  0  0  0  0  0
    4.9877   12.2812   27.4582 C   0  0  0  0  0  0  0  0  0  0  0  0
    5.8117   11.0293   26.9930 C   0  0  0  0  0  0  0  0  0  0  0  0
   10.1561   15.7466   20.5890 C   0  0  0  0  0  0  0  0  0  0  0  0
   11.0569   14.8908   19.7583 C   0  0  0  0  0  0  0  0  0  0  0  0
  1  2  1  0
  2  3  1  0
  3  4  1  0
  4  5  2  0
  4  6  1  0
  6  7  2  0
  7  8  1  0
  8  9  2  0
  9 10  1  0
 10 11  1  0
 11 12  2  0
 12 13  1  0
 13 14  1  0
 12 15  1  0
 15 16  1  0
 16 17  1  0
  2 18  1  0
 18 19  1  0
 19  2  1  0
 14  6  1  0
 14 10  2  0
 17 11  1  0
M  END
>  <alias>  (1792) 
None

>  <rmsd(smina/fragmenstein)>  (1792) 
0.492

>  <smiles>  (1792) 
CC1(NC(=O)c2cccc3c4c([nH]c23)CCC4)CC1

>  <gnina_score>  (1792) 
5.392

>  <inspiration_score>  (1792) 
None

>  <energy_score>  (1792) 
-13.969018

>  <distance_score>  (1792) 
1.144371

>  <gnina_score_min>  (1792) 
5.453

>  <inchikey>  (1792) 
CNSDHDCEYQKFCQ-UHFFFAOYSA-N

>  <exports>  (1792) 
['/opt/xchem-fragalysis-2/maxwin/BulkDock/OUTPUTS/openbind_a71ev2a_c2_elabs_1LOUU54.sdf', '/opt/xchem-fragalysis-2/maxwin/BulkDock/OUTPUTS/openbind_a71ev2a_c2_elabs_1LSYIDY.sdf']

>  <name>  (1792) 
P585479

>  <ref_pdb>  (1792) 
A0566a

>  <subsites>  (1792) 
None

>  <HIPPO Pose ID>  (1792) 
585479

>  <ref_mols>  (1792) 
A0566a

>  <HIPPO Compound ID>  (1792) 
440565

>  <tags>  (1792) 
openbind_a71ev2a_c2_elabs,syndirella_product,openbind_a71ev2a_c2_elabs_fragonly_scored_top80percent,openbind_a71ev2a_c2_elabs_scored,BulkDock Fragalysis export,openbind_a71ev2a_c2_elabs_scored_top80percent,openbind_a71ev2a_c2_elabs_activefrags_only_scored_5.2plus,syndirella_placed

>  <smina_score_min>  (1792) 
-7.367

$$$$
P585480
     RDKit          3D

 19 21  0  0  0  0  0  0  0  0999 V2000
   12.7646   15.1801   21.8573 C   0  0  0  0  0  0  0  0  0  0  0  0
   11.9355   14.8263   20.6570 C   0  0  0  0  0  0  0  0  0  0  0  0
   12.4193   14.2773   19.6670 O   0  0  0  0  0  0  0  0  0  0  0  0
   10.4548   15.0582   20.8015 C   0  0  0  0  0  0  0  0  0  0  0  0
   10.0332   13.9729   21.6350 N   0  0  0  0  0  0  0  0  0  0  0  0
    9.5528   13.9630   23.0902 C   0  0  0  0  0  0  0  0  0  0  0  0
    9.3486   14.8431   23.8233 O   0  0  0  0  0  0  0  0  0  0  0  0
    9.2130   12.6010   23.5738 C   0  0  0  0  0  0  0  0  0  0  0  0
    9.8362   11.4310   23.1310 C   0  0  0  0  0  0  0  0  0  0  0  0
    9.3972   10.1780   23.5459 C   0  0  0  0  0  0  0  0  0  0  0  0
    8.3648   10.0706   24.4817 C   0  0  0  0  0  0  0  0  0  0  0  0
    7.7736   11.2259   25.0139 C   0  0  0  0  0  0  0  0  0  0  0  0
    6.7898   11.4983   25.9793 C   0  0  0  0  0  0  0  0  0  0  0  0
    6.6062   12.8490   26.0225 C   0  0  0  0  0  0  0  0  0  0  0  0
    7.4390   13.4553   25.1535 N   0  0  0  0  0  0  0  0  0  0  0  0
    8.1989   12.4704   24.5330 C   0  0  0  0  0  0  0  0  0  0  0  0
    5.5680   13.3232   26.9486 C   0  0  0  0  0  0  0  0  0  0  0  0
    5.2925   12.0098   27.7529 C   0  0  0  0  0  0  0  0  0  0  0  0
    5.8982   10.8147   26.9365 C   0  0  0  0  0  0  0  0  0  0  0  0
  1  2  1  0
  2  3  2  0
  2  4  1  0
  4  5  1  0
  5  6  1  0
  6  7  2  0
  6  8  1  0
  8  9  2  0
  9 10  1  0
 10 11  2  0
 11 12  1  0
 12 13  1  0
 13 14  2  0
 14 15  1  0
 15 16  1  0
 14 17  1  0
 17 18  1  0
 18 19  1  0
 16  8  1  0
 16 12  2  0
 19 13  1  0
M  END
>  <alias>  (1793) 
None

>  <rmsd(smina/fragmenstein)>  (1793) 
0.318

>  <smiles>  (1793) 
CC(=O)CNC(=O)c1cccc2c3c([nH]c12)CCC3

>  <gnina_score>  (1793) 
5.28

>  <inspiration_score>  (1793) 
None

>  <energy_score>  (1793) 
-7.822267

>  <distance_score>  (1793) 
1.442133

>  <gnina_score_min>  (1793) 
5.231

>  <inchikey>  (1793) 
JFRVXWGRCTWTTM-UHFFFAOYSA-N

>  <exports>  (1793) 
['/opt/xchem-fragalysis-2/maxwin/BulkDock/OUTPUTS/openbind_a71ev2a_c2_elabs_1LOUU54.sdf', '/opt/xchem-fragalysis-2/maxwin/BulkDock/OUTPUTS/openbind_a71ev2a_c2_elabs_1LSYIDY.sdf']

>  <name>  (1793) 
P585480

>  <ref_pdb>  (1793) 
A0566a

>  <subsites>  (1793) 
None

>  <HIPPO Pose ID>  (1793) 
585480

>  <ref_mols>  (1793) 
A0566a

>  <HIPPO Compound ID>  (1793) 
440567

>  <tags>  (1793) 
openbind_a71ev2a_c2_elabs,syndirella_product,openbind_a71ev2a_c2_elabs_fragonly_scored_top80percent,openbind_a71ev2a_c2_elabs_scored,BulkDock Fragalysis export,openbind_a71ev2a_c2_elabs_scored_top80percent,openbind_a71ev2a_c2_elabs_activefrags_only_scored_5.2plus,syndirella_placed

>  <smina_score_min>  (1793) 
-6.459

$$$$
P585481
     RDKit          3D

 19 21  0  0  0  0  0  0  0  0999 V2000
   10.2925   15.7605   19.2157 C   0  0  0  0  0  0  0  0  0  0  0  0
   10.4872   15.6042   20.5312 C   0  0  0  0  0  0  0  0  0  0  0  0
   11.4840   14.6591   21.1255 C   0  0  1  0  0  0  0  0  0  0  0  0
   12.5349   15.2935   22.0101 C   0  0  0  0  0  0  0  0  0  0  0  0
   10.7158   13.7037   21.8573 N   0  0  0  0  0  0  0  0  0  0  0  0
   10.1493   13.7599   23.2829 C   0  0  0  0  0  0  0  0  0  0  0  0
   10.1521   14.6255   24.0638 O   0  0  0  0  0  0  0  0  0  0  0  0
    9.4526   12.5006   23.6526 C   0  0  0  0  0  0  0  0  0  0  0  0
    9.8451   11.2436   23.1820 C   0  0  0  0  0  0  0  0  0  0  0  0
    9.2280   10.0764   23.6102 C   0  0  0  0  0  0  0  0  0  0  0  0
    8.2048   10.1329   24.5568 C   0  0  0  0  0  0  0  0  0  0  0  0
    7.7757   11.3756   25.0472 C   0  0  0  0  0  0  0  0  0  0  0  0
    6.8356   11.8013   25.9977 C   0  0  0  0  0  0  0  0  0  0  0  0
    6.8691   13.1643   26.0451 C   0  0  0  0  0  0  0  0  0  0  0  0
    7.7901   13.6325   25.1789 N   0  0  0  0  0  0  0  0  0  0  0  0
    8.3973   12.5402   24.5717 C   0  0  0  0  0  0  0  0  0  0  0  0
    5.9443   13.7866   27.0057 C   0  0  0  0  0  0  0  0  0  0  0  0
    5.5410   12.5271   27.8439 C   0  0  0  0  0  0  0  0  0  0  0  0
    5.8586   11.2663   26.9657 C   0  0  0  0  0  0  0  0  0  0  0  0
  1  2  2  0
  2  3  1  0
  3  4  1  1
  3  5  1  0
  5  6  1  0
  6  7  2  0
  6  8  1  0
  8  9  2  0
  9 10  1  0
 10 11  2  0
 11 12  1  0
 12 13  1  0
 13 14  2  0
 14 15  1  0
 15 16  1  0
 14 17  1  0
 17 18  1  0
 18 19  1  0
 16  8  1  0
 16 12  2  0
 19 13  1  0
M  END
>  <alias>  (1794) 
None

>  <rmsd(smina/fragmenstein)>  (1794) 
0.408

>  <smiles>  (1794) 
C=C[C@@H](C)NC(=O)c1cccc2c3c([nH]c12)CCC3

>  <gnina_score>  (1794) 
5.446

>  <inspiration_score>  (1794) 
None

>  <energy_score>  (1794) 
-20.666592

>  <distance_score>  (1794) 
1.105178

>  <gnina_score_min>  (1794) 
5.493

>  <inchikey>  (1794) 
ZSBBSLXGQQYCKI-SNVBAGLBSA-N

>  <exports>  (1794) 
['/opt/xchem-fragalysis-2/maxwin/BulkDock/OUTPUTS/openbind_a71ev2a_c2_elabs_1LOUU54.sdf', '/opt/xchem-fragalysis-2/maxwin/BulkDock/OUTPUTS/openbind_a71ev2a_c2_elabs_1LSYIDY.sdf']

>  <name>  (1794) 
P585481

>  <ref_pdb>  (1794) 
A0566a

>  <subsites>  (1794) 
None

>  <HIPPO Pose ID>  (1794) 
585481

>  <ref_mols>  (1794) 
A0566a

>  <HIPPO Compound ID>  (1794) 
440570

>  <tags>  (1794) 
openbind_a71ev2a_c2_elabs,syndirella_product,openbind_a71ev2a_c2_elabs_fragonly_scored_top80percent,openbind_a71ev2a_c2_elabs_scored,BulkDock Fragalysis export,openbind_a71ev2a_c2_elabs_scored_top80percent,openbind_a71ev2a_c2_elabs_activefrags_only_scored_5.2plus,syndirella_placed

>  <smina_score_min>  (1794) 
-7.055

$$$$
P585483
     RDKit          3D

 19 21  0  0  0  0  0  0  0  0999 V2000
   11.6402   14.7070   19.1890 C   0  0  0  0  0  0  0  0  0  0  0  0
   11.3439   14.9698   20.4641 C   0  0  0  0  0  0  0  0  0  0  0  0
   12.5743   14.9680   21.6838 Cl  0  0  0  0  0  0  0  0  0  0  0  0
    9.9673   15.2399   20.9568 C   0  0  0  0  0  0  0  0  0  0  0  0
    9.6458   14.1260   21.7952 N   0  0  0  0  0  0  0  0  0  0  0  0
    9.4186   14.0513   23.3073 C   0  0  0  0  0  0  0  0  0  0  0  0
    9.3799   14.8957   24.1075 O   0  0  0  0  0  0  0  0  0  0  0  0
    9.1139   12.6673   23.7315 C   0  0  0  0  0  0  0  0  0  0  0  0
    9.7555   11.5353   23.2168 C   0  0  0  0  0  0  0  0  0  0  0  0
    9.3385   10.2583   23.5772 C   0  0  0  0  0  0  0  0  0  0  0  0
    8.3096   10.0917   24.5121 C   0  0  0  0  0  0  0  0  0  0  0  0
    7.6974   11.2106   25.1006 C   0  0  0  0  0  0  0  0  0  0  0  0
    6.7136   11.4268   26.0829 C   0  0  0  0  0  0  0  0  0  0  0  0
    6.5515   12.7737   26.2255 C   0  0  0  0  0  0  0  0  0  0  0  0
    7.3579   13.4297   25.3676 N   0  0  0  0  0  0  0  0  0  0  0  0
    8.1103   12.4825   24.6867 C   0  0  0  0  0  0  0  0  0  0  0  0
    5.5769   13.2020   27.2384 C   0  0  0  0  0  0  0  0  0  0  0  0
    4.9432   11.8258   27.6267 C   0  0  0  0  0  0  0  0  0  0  0  0
    5.8413   10.6893   27.0201 C   0  0  0  0  0  0  0  0  0  0  0  0
  1  2  2  0
  2  3  1  0
  2  4  1  0
  4  5  1  0
  5  6  1  0
  6  7  2  0
  6  8  1  0
  8  9  2  0
  9 10  1  0
 10 11  2  0
 11 12  1  0
 12 13  1  0
 13 14  2  0
 14 15  1  0
 15 16  1  0
 14 17  1  0
 17 18  1  0
 18 19  1  0
 16  8  1  0
 16 12  2  0
 19 13  1  0
M  END
>  <alias>  (1795) 
None

>  <rmsd(smina/fragmenstein)>  (1795) 
0.328

>  <smiles>  (1795) 
C=C(Cl)CNC(=O)c1cccc2c3c([nH]c12)CCC3

>  <gnina_score>  (1795) 
5.313

>  <inspiration_score>  (1795) 
None

>  <energy_score>  (1795) 
-7.533451

>  <distance_score>  (1795) 
1.540989

>  <gnina_score_min>  (1795) 
5.406

>  <inchikey>  (1795) 
YJUVUYGSMQSKJI-UHFFFAOYSA-N

>  <exports>  (1795) 
['/opt/xchem-fragalysis-2/maxwin/BulkDock/OUTPUTS/openbind_a71ev2a_c2_elabs_1LOUU54.sdf', '/opt/xchem-fragalysis-2/maxwin/BulkDock/OUTPUTS/openbind_a71ev2a_c2_elabs_1LSYIDY.sdf']

>  <name>  (1795) 
P585483

>  <ref_pdb>  (1795) 
A0566a

>  <subsites>  (1795) 
None

>  <HIPPO Pose ID>  (1795) 
585483

>  <ref_mols>  (1795) 
A0566a

>  <HIPPO Compound ID>  (1795) 
440571

>  <tags>  (1795) 
openbind_a71ev2a_c2_elabs,syndirella_product,openbind_a71ev2a_c2_elabs_fragonly_scored_top80percent,openbind_a71ev2a_c2_elabs_scored,BulkDock Fragalysis export,openbind_a71ev2a_c2_elabs_scored_top80percent,openbind_a71ev2a_c2_elabs_activefrags_only_scored_5.2plus,syndirella_placed

>  <smina_score_min>  (1795) 
-6.483

$$$$
P585484
     RDKit          3D

 19 21  0  0  0  0  0  0  0  0999 V2000
    9.8983   15.9621   20.6136 C   0  0  0  0  0  0  0  0  0  0  0  0
   10.6229   14.6336   20.6473 C   0  0  1  0  0  0  0  0  0  0  0  0
   12.1273   14.6645   20.8450 C   0  0  0  0  0  0  0  0  0  0  0  0
   12.5670   15.1792   22.4681 Cl  0  0  0  0  0  0  0  0  0  0  0  0
   10.0879   13.6708   21.5674 N   0  0  0  0  0  0  0  0  0  0  0  0
    9.5525   13.8454   22.9953 C   0  0  0  0  0  0  0  0  0  0  0  0
    9.3876   14.8094   23.6271 O   0  0  0  0  0  0  0  0  0  0  0  0
    9.1549   12.5372   23.5876 C   0  0  0  0  0  0  0  0  0  0  0  0
    9.7191   11.3061   23.2234 C   0  0  0  0  0  0  0  0  0  0  0  0
    9.2201   10.1054   23.7101 C   0  0  0  0  0  0  0  0  0  0  0  0
    8.1828   10.1066   24.6432 C   0  0  0  0  0  0  0  0  0  0  0  0
    7.6597   11.3224   25.1082 C   0  0  0  0  0  0  0  0  0  0  0  0
    6.7011   11.6984   26.0629 C   0  0  0  0  0  0  0  0  0  0  0  0
    6.6172   13.0595   26.0616 C   0  0  0  0  0  0  0  0  0  0  0  0
    7.4578   13.5726   25.1408 N   0  0  0  0  0  0  0  0  0  0  0  0
    8.1492   12.5165   24.5607 C   0  0  0  0  0  0  0  0  0  0  0  0
    5.6586   13.6407   27.0134 C   0  0  0  0  0  0  0  0  0  0  0  0
    4.9121   12.3474   27.4835 C   0  0  0  0  0  0  0  0  0  0  0  0
    5.7884   11.1137   27.0656 C   0  0  0  0  0  0  0  0  0  0  0  0
  2  1  1  1
  2  3  1  0
  3  4  1  0
  2  5  1  0
  5  6  1  0
  6  7  2  0
  6  8  1  0
  8  9  2  0
  9 10  1  0
 10 11  2  0
 11 12  1  0
 12 13  1  0
 13 14  2  0
 14 15  1  0
 15 16  1  0
 14 17  1  0
 17 18  1  0
 18 19  1  0
 16  8  1  0
 16 12  2  0
 19 13  1  0
M  END
>  <alias>  (1796) 
None

>  <rmsd(smina/fragmenstein)>  (1796) 
0.263

>  <smiles>  (1796) 
C[C@@H](CCl)NC(=O)c1cccc2c3c([nH]c12)CCC3

>  <gnina_score>  (1796) 
5.517

>  <inspiration_score>  (1796) 
None

>  <energy_score>  (1796) 
-9.319378

>  <distance_score>  (1796) 
1.511045

>  <gnina_score_min>  (1796) 
5.552

>  <inchikey>  (1796) 
JUXADSYORZEEKQ-VIFPVBQESA-N

>  <exports>  (1796) 
['/opt/xchem-fragalysis-2/maxwin/BulkDock/OUTPUTS/openbind_a71ev2a_c2_elabs_1LOUU54.sdf', '/opt/xchem-fragalysis-2/maxwin/BulkDock/OUTPUTS/openbind_a71ev2a_c2_elabs_1LSYIDY.sdf']

>  <name>  (1796) 
P585484

>  <ref_pdb>  (1796) 
A0566a

>  <subsites>  (1796) 
None

>  <HIPPO Pose ID>  (1796) 
585484

>  <ref_mols>  (1796) 
A0566a

>  <HIPPO Compound ID>  (1796) 
440572

>  <tags>  (1796) 
openbind_a71ev2a_c2_elabs,syndirella_product,openbind_a71ev2a_c2_elabs_fragonly_scored_top80percent,BulkDock Fragalysis export,openbind_a71ev2a_c2_elabs_scored,openbind_a71ev2a_c2_elabs_scored_top80percent,openbind_a71ev2a_c2_elabs_activefrags_only_scored_5.2plus,openbind_a71ev2a_c2_elabs_activefrags_only_scored_5.5plus,syndirella_placed

>  <smina_score_min>  (1796) 
-6.199

$$$$
P585485
     RDKit          3D

 19 21  0  0  0  0  0  0  0  0999 V2000
   12.3061   15.3937   21.8157 C   0  0  0  0  0  0  0  0  0  0  0  0
   11.1608   14.8853   20.9376 C   0  0  0  0  0  0  0  0  0  0  0  0
   10.0901   15.9128   20.5487 C   0  0  0  0  0  0  0  0  0  0  0  0
   11.7451   14.3519   19.6295 C   0  0  0  0  0  0  0  0  0  0  0  0
   10.5143   13.8386   21.7054 N   0  0  0  0  0  0  0  0  0  0  0  0
    9.9553   13.8500   23.1405 C   0  0  0  0  0  0  0  0  0  0  0  0
    9.8564   14.7243   23.9067 O   0  0  0  0  0  0  0  0  0  0  0  0
    9.3892   12.5413   23.5574 C   0  0  0  0  0  0  0  0  0  0  0  0
    9.8754   11.3105   23.1118 C   0  0  0  0  0  0  0  0  0  0  0  0
    9.3313   10.1075   23.5462 C   0  0  0  0  0  0  0  0  0  0  0  0
    8.3028   10.1046   24.4899 C   0  0  0  0  0  0  0  0  0  0  0  0
    7.8073   11.3187   24.9881 C   0  0  0  0  0  0  0  0  0  0  0  0
    6.8509   11.6899   25.9463 C   0  0  0  0  0  0  0  0  0  0  0  0
    6.8003   13.0524   25.9863 C   0  0  0  0  0  0  0  0  0  0  0  0
    7.6808   13.5715   25.1076 N   0  0  0  0  0  0  0  0  0  0  0  0
    8.3489   12.5158   24.4976 C   0  0  0  0  0  0  0  0  0  0  0  0
    5.8392   13.6237   26.9424 C   0  0  0  0  0  0  0  0  0  0  0  0
    5.5064   12.3471   27.7848 C   0  0  0  0  0  0  0  0  0  0  0  0
    5.9099   11.1021   26.9198 C   0  0  0  0  0  0  0  0  0  0  0  0
  1  2  1  0
  2  3  1  0
  2  4  1  0
  2  5  1  0
  5  6  1  0
  6  7  2  0
  6  8  1  0
  8  9  2  0
  9 10  1  0
 10 11  2  0
 11 12  1  0
 12 13  1  0
 13 14  2  0
 14 15  1  0
 15 16  1  0
 14 17  1  0
 17 18  1  0
 18 19  1  0
 16  8  1  0
 16 12  2  0
 19 13  1  0
M  END
>  <alias>  (1797) 
None

>  <rmsd(smina/fragmenstein)>  (1797) 
0.473

>  <smiles>  (1797) 
CC(C)(C)NC(=O)c1cccc2c3c([nH]c12)CCC3

>  <gnina_score>  (1797) 
5.383

>  <inspiration_score>  (1797) 
None

>  <energy_score>  (1797) 
-18.550896

>  <distance_score>  (1797) 
1.195068

>  <gnina_score_min>  (1797) 
5.392

>  <inchikey>  (1797) 
RIRPVBDWGAXGIH-UHFFFAOYSA-N

>  <exports>  (1797) 
['/opt/xchem-fragalysis-2/maxwin/BulkDock/OUTPUTS/openbind_a71ev2a_c2_elabs_1LOUU54.sdf', '/opt/xchem-fragalysis-2/maxwin/BulkDock/OUTPUTS/openbind_a71ev2a_c2_elabs_1LSYIDY.sdf']

>  <name>  (1797) 
P585485

>  <ref_pdb>  (1797) 
A0566a

>  <subsites>  (1797) 
None

>  <HIPPO Pose ID>  (1797) 
585485

>  <ref_mols>  (1797) 
A0566a

>  <HIPPO Compound ID>  (1797) 
440573

>  <tags>  (1797) 
openbind_a71ev2a_c2_elabs,syndirella_product,openbind_a71ev2a_c2_elabs_fragonly_scored_top80percent,openbind_a71ev2a_c2_elabs_scored,BulkDock Fragalysis export,openbind_a71ev2a_c2_elabs_scored_top80percent,openbind_a71ev2a_c2_elabs_activefrags_only_scored_5.2plus,syndirella_placed

>  <smina_score_min>  (1797) 
-6.949

$$$$
P585487
     RDKit          3D

 19 21  0  0  0  0  0  0  0  0999 V2000
   10.2608   14.5460   24.7040 O   0  0  0  0  0  0  0  0  0  0  0  0
   10.2100   13.8431   23.7777 C   0  0  0  0  0  0  0  0  0  0  0  0
   10.8932   13.9481   22.4157 N   0  0  0  0  0  0  0  0  0  0  0  0
   11.8553   14.8825   21.9305 C   0  0  0  0  0  0  0  0  0  0  0  0
   12.2557   14.5272   20.5263 C   0  0  0  0  0  0  0  0  0  0  0  0
   11.1666   14.8439   19.5156 C   0  0  0  0  0  0  0  0  0  0  0  0
   11.6058   14.4355   18.2355 O   0  0  0  0  0  0  0  0  0  0  0  0
    9.4244   12.5847   23.8918 C   0  0  0  0  0  0  0  0  0  0  0  0
    9.8223   11.3760   23.3006 C   0  0  0  0  0  0  0  0  0  0  0  0
    9.1960   10.1751   23.6100 C   0  0  0  0  0  0  0  0  0  0  0  0
    8.1636   10.1487   24.5482 C   0  0  0  0  0  0  0  0  0  0  0  0
    7.7043   11.3458   25.1189 C   0  0  0  0  0  0  0  0  0  0  0  0
    6.7580   11.6863   26.0972 C   0  0  0  0  0  0  0  0  0  0  0  0
    6.7721   13.0420   26.2488 C   0  0  0  0  0  0  0  0  0  0  0  0
    7.6987   13.5859   25.4347 N   0  0  0  0  0  0  0  0  0  0  0  0
    8.3250   12.5496   24.7541 C   0  0  0  0  0  0  0  0  0  0  0  0
    5.8543   13.5747   27.2681 C   0  0  0  0  0  0  0  0  0  0  0  0
    5.4858   12.2499   28.0156 C   0  0  0  0  0  0  0  0  0  0  0  0
    5.8089   11.0640   27.0405 C   0  0  0  0  0  0  0  0  0  0  0  0
  1  2  2  0
  2  3  1  0
  3  4  1  0
  4  5  1  0
  5  6  1  0
  6  7  1  0
  2  8  1  0
  8  9  2  0
  9 10  1  0
 10 11  2  0
 11 12  1  0
 12 13  1  0
 13 14  2  0
 14 15  1  0
 15 16  1  0
 14 17  1  0
 17 18  1  0
 18 19  1  0
 16  8  1  0
 16 12  2  0
 19 13  1  0
M  END
>  <alias>  (1798) 
None

>  <rmsd(smina/fragmenstein)>  (1798) 
0.242

>  <smiles>  (1798) 
O=C(NCCCO)c1cccc2c3c([nH]c12)CCC3

>  <gnina_score>  (1798) 
5.248

>  <inspiration_score>  (1798) 
None

>  <energy_score>  (1798) 
-3.899605

>  <distance_score>  (1798) 
1.010154

>  <gnina_score_min>  (1798) 
5.242

>  <inchikey>  (1798) 
GJYFYMKIAXYFML-UHFFFAOYSA-N

>  <exports>  (1798) 
['/opt/xchem-fragalysis-2/maxwin/BulkDock/OUTPUTS/openbind_a71ev2a_c2_elabs_1LOUU54.sdf', '/opt/xchem-fragalysis-2/maxwin/BulkDock/OUTPUTS/openbind_a71ev2a_c2_elabs_1LSYIDY.sdf']

>  <name>  (1798) 
P585487

>  <ref_pdb>  (1798) 
A0566a

>  <subsites>  (1798) 
None

>  <HIPPO Pose ID>  (1798) 
585487

>  <ref_mols>  (1798) 
A0566a

>  <HIPPO Compound ID>  (1798) 
440575

>  <tags>  (1798) 
openbind_a71ev2a_c2_elabs,syndirella_product,openbind_a71ev2a_c2_elabs_fragonly_scored_top80percent,openbind_a71ev2a_c2_elabs_scored,BulkDock Fragalysis export,openbind_a71ev2a_c2_elabs_scored_top80percent,openbind_a71ev2a_c2_elabs_activefrags_only_scored_5.2plus,syndirella_placed

>  <smina_score_min>  (1798) 
-6.686

$$$$
P585488
     RDKit          3D

 19 21  0  0  0  0  0  0  0  0999 V2000
    9.1257   15.2225   20.9662 C   0  0  0  0  0  0  0  0  0  0  0  0
   10.6002   15.5395   20.7755 C   0  0  2  0  0  0  0  0  0  0  0  0
   11.1263   14.9586   18.9854 Br  0  0  0  0  0  0  0  0  0  0  0  0
   11.5883   14.9189   21.7631 C   0  0  0  0  0  0  0  0  0  0  0  0
   10.9478   13.8180   22.4026 N   0  0  0  0  0  0  0  0  0  0  0  0
   10.2129   13.7366   23.7405 C   0  0  0  0  0  0  0  0  0  0  0  0
   10.0760   14.5352   24.5765 O   0  0  0  0  0  0  0  0  0  0  0  0
    9.4970   12.4447   23.9085 C   0  0  0  0  0  0  0  0  0  0  0  0
    9.8682   11.2423   23.2989 C   0  0  0  0  0  0  0  0  0  0  0  0
    9.2278   10.0485   23.6032 C   0  0  0  0  0  0  0  0  0  0  0  0
    8.1941   10.0265   24.5410 C   0  0  0  0  0  0  0  0  0  0  0  0
    7.7412   11.2231   25.1131 C   0  0  0  0  0  0  0  0  0  0  0  0
    6.7865   11.5737   26.0803 C   0  0  0  0  0  0  0  0  0  0  0  0
    6.7953   12.9310   26.2129 C   0  0  0  0  0  0  0  0  0  0  0  0
    7.7330   13.4630   25.4047 N   0  0  0  0  0  0  0  0  0  0  0  0
    8.3790   12.4167   24.7542 C   0  0  0  0  0  0  0  0  0  0  0  0
    5.8600   13.4780   27.2076 C   0  0  0  0  0  0  0  0  0  0  0  0
    5.4750   12.1640   27.9655 C   0  0  0  0  0  0  0  0  0  0  0  0
    5.8270   10.9624   27.0199 C   0  0  0  0  0  0  0  0  0  0  0  0
  2  1  1  1
  2  3  1  0
  2  4  1  0
  4  5  1  0
  5  6  1  0
  6  7  2  0
  6  8  1  0
  8  9  2  0
  9 10  1  0
 10 11  2  0
 11 12  1  0
 12 13  1  0
 13 14  2  0
 14 15  1  0
 15 16  1  0
 14 17  1  0
 17 18  1  0
 18 19  1  0
 16  8  1  0
 16 12  2  0
 19 13  1  0
M  END
>  <alias>  (1799) 
None

>  <rmsd(smina/fragmenstein)>  (1799) 
0.4

>  <smiles>  (1799) 
C[C@H](Br)CNC(=O)c1cccc2c3c([nH]c12)CCC3

>  <gnina_score>  (1799) 
5.453

>  <inspiration_score>  (1799) 
None

>  <energy_score>  (1799) 
-6.441209

>  <distance_score>  (1799) 
1.039938

>  <gnina_score_min>  (1799) 
5.545

>  <inchikey>  (1799) 
QFONBOHFKCZAHV-VIFPVBQESA-N

>  <exports>  (1799) 
['/opt/xchem-fragalysis-2/maxwin/BulkDock/OUTPUTS/openbind_a71ev2a_c2_elabs_1LOUU54.sdf', '/opt/xchem-fragalysis-2/maxwin/BulkDock/OUTPUTS/openbind_a71ev2a_c2_elabs_1LSYIDY.sdf']

>  <name>  (1799) 
P585488

>  <ref_pdb>  (1799) 
A0566a

>  <subsites>  (1799) 
None

>  <HIPPO Pose ID>  (1799) 
585488

>  <ref_mols>  (1799) 
A0566a

>  <HIPPO Compound ID>  (1799) 
440577

>  <tags>  (1799) 
openbind_a71ev2a_c2_elabs,syndirella_product,openbind_a71ev2a_c2_elabs_fragonly_scored_top80percent,BulkDock Fragalysis export,openbind_a71ev2a_c2_elabs_scored,openbind_a71ev2a_c2_elabs_scored_top80percent,openbind_a71ev2a_c2_elabs_activefrags_only_scored_5.2plus,openbind_a71ev2a_c2_elabs_activefrags_only_scored_5.5plus,syndirella_placed

>  <smina_score_min>  (1799) 
-6.33

$$$$
P585489
     RDKit          3D

 19 21  0  0  0  0  0  0  0  0999 V2000
   11.8548   14.5854   19.0869 C   0  0  0  0  0  0  0  0  0  0  0  0
   11.0383   15.0427   20.0359 C   0  0  0  0  0  0  0  0  0  0  0  0
    9.8509   15.5661   19.6588 F   0  0  0  0  0  0  0  0  0  0  0  0
   11.4099   15.0284   21.4788 C   0  0  0  0  0  0  0  0  0  0  0  0
   10.6686   13.9886   22.1135 N   0  0  0  0  0  0  0  0  0  0  0  0
   10.1616   13.8641   23.5514 C   0  0  0  0  0  0  0  0  0  0  0  0
   10.1988   14.6228   24.4333 O   0  0  0  0  0  0  0  0  0  0  0  0
    9.4589   12.5775   23.7767 C   0  0  0  0  0  0  0  0  0  0  0  0
    9.8849   11.3712   23.2123 C   0  0  0  0  0  0  0  0  0  0  0  0
    9.2873   10.1625   23.5494 C   0  0  0  0  0  0  0  0  0  0  0  0
    8.2528   10.1313   24.4876 C   0  0  0  0  0  0  0  0  0  0  0  0
    7.7761   11.3269   25.0482 C   0  0  0  0  0  0  0  0  0  0  0  0
    6.8102   11.6670   26.0095 C   0  0  0  0  0  0  0  0  0  0  0  0
    6.8099   13.0244   26.1455 C   0  0  0  0  0  0  0  0  0  0  0  0
    7.7359   13.5700   25.3311 N   0  0  0  0  0  0  0  0  0  0  0  0
    8.3780   12.5343   24.6643 C   0  0  0  0  0  0  0  0  0  0  0  0
    5.8601   13.5654   27.1301 C   0  0  0  0  0  0  0  0  0  0  0  0
    5.0108   12.2846   27.4269 C   0  0  0  0  0  0  0  0  0  0  0  0
    5.8405   11.0470   26.9346 C   0  0  0  0  0  0  0  0  0  0  0  0
  1  2  2  0
  2  3  1  0
  2  4  1  0
  4  5  1  0
  5  6  1  0
  6  7  2  0
  6  8  1  0
  8  9  2  0
  9 10  1  0
 10 11  2  0
 11 12  1  0
 12 13  1  0
 13 14  2  0
 14 15  1  0
 15 16  1  0
 14 17  1  0
 17 18  1  0
 18 19  1  0
 16  8  1  0
 16 12  2  0
 19 13  1  0
M  END
>  <alias>  (1800) 
None

>  <rmsd(smina/fragmenstein)>  (1800) 
0.574

>  <smiles>  (1800) 
C=C(F)CNC(=O)c1cccc2c3c([nH]c12)CCC3

>  <gnina_score>  (1800) 
5.245

>  <inspiration_score>  (1800) 
None

>  <energy_score>  (1800) 
-7.645192

>  <distance_score>  (1800) 
1.023357

>  <gnina_score_min>  (1800) 
5.39

>  <inchikey>  (1800) 
MOEQSFMHUZLTIE-UHFFFAOYSA-N

>  <exports>  (1800) 
['/opt/xchem-fragalysis-2/maxwin/BulkDock/OUTPUTS/openbind_a71ev2a_c2_elabs_1LOUU54.sdf', '/opt/xchem-fragalysis-2/maxwin/BulkDock/OUTPUTS/openbind_a71ev2a_c2_elabs_1LSYIDY.sdf']

>  <name>  (1800) 
P585489

>  <ref_pdb>  (1800) 
A0566a

>  <subsites>  (1800) 
None

>  <HIPPO Pose ID>  (1800) 
585489

>  <ref_mols>  (1800) 
A0566a

>  <HIPPO Compound ID>  (1800) 
440578

>  <tags>  (1800) 
openbind_a71ev2a_c2_elabs,syndirella_product,openbind_a71ev2a_c2_elabs_fragonly_scored_top80percent,openbind_a71ev2a_c2_elabs_scored,BulkDock Fragalysis export,openbind_a71ev2a_c2_elabs_scored_top80percent,openbind_a71ev2a_c2_elabs_activefrags_only_scored_5.2plus,syndirella_placed

>  <smina_score_min>  (1800) 
-6.677

$$$$
P585490
     RDKit          3D

 19 22  0  0  0  0  0  0  0  0999 V2000
   10.3221   14.6926   24.4350 O   0  0  0  0  0  0  0  0  0  0  0  0
   10.1814   13.9432   23.5374 C   0  0  0  0  0  0  0  0  0  0  0  0
    9.4923   12.6592   23.7799 C   0  0  0  0  0  0  0  0  0  0  0  0
    9.9155   11.4731   23.1773 C   0  0  0  0  0  0  0  0  0  0  0  0
    9.3309   10.2534   23.4986 C   0  0  0  0  0  0  0  0  0  0  0  0
    8.3030   10.1975   24.4448 C   0  0  0  0  0  0  0  0  0  0  0  0
    7.8213   11.3806   25.0310 C   0  0  0  0  0  0  0  0  0  0  0  0
    6.8492   11.7001   25.9936 C   0  0  0  0  0  0  0  0  0  0  0  0
    6.8456   13.0549   26.1566 C   0  0  0  0  0  0  0  0  0  0  0  0
    7.7769   13.6193   25.3608 N   0  0  0  0  0  0  0  0  0  0  0  0
    8.4204   12.5992   24.6742 C   0  0  0  0  0  0  0  0  0  0  0  0
    5.8860   13.5746   27.1432 C   0  0  0  0  0  0  0  0  0  0  0  0
    5.0329   12.2884   27.4015 C   0  0  0  0  0  0  0  0  0  0  0  0
    5.8705   11.0614   26.8964 C   0  0  0  0  0  0  0  0  0  0  0  0
   10.5281   14.0913   22.0865 N   0  0  0  0  0  0  0  0  0  0  0  0
   11.2544   15.2037   21.3488 C   0  0  0  0  0  0  0  0  0  0  0  0
   10.3275   15.0084   20.1832 C   0  0  0  0  0  0  0  0  0  0  0  0
    9.8223   16.4872   19.2608 S   0  0  0  0  0  0  0  0  0  0  0  0
    9.3504   14.6984   21.2802 C   0  0  0  0  0  0  0  0  0  0  0  0
  1  2  2  0
  2  3  1  0
  3  4  2  0
  4  5  1  0
  5  6  2  0
  6  7  1  0
  7  8  1  0
  8  9  2  0
  9 10  1  0
 10 11  1  0
  9 12  1  0
 12 13  1  0
 13 14  1  0
  2 15  1  0
 15 16  1  0
 16 17  1  0
 17 18  1  0
 17 19  1  0
 11  3  1  0
 19 15  1  0
 11  7  2  0
 14  8  1  0
M  END
>  <alias>  (1801) 
None

>  <rmsd(smina/fragmenstein)>  (1801) 
0.315

>  <smiles>  (1801) 
O=C(c1cccc2c3c([nH]c12)CCC3)N1CC(S)C1

>  <gnina_score>  (1801) 
5.578

>  <inspiration_score>  (1801) 
None

>  <energy_score>  (1801) 
-9.975198

>  <distance_score>  (1801) 
1.011248

>  <gnina_score_min>  (1801) 
5.537

>  <inchikey>  (1801) 
JFFMZMHWFALKOO-UHFFFAOYSA-N

>  <exports>  (1801) 
['/opt/xchem-fragalysis-2/maxwin/BulkDock/OUTPUTS/openbind_a71ev2a_c2_elabs_1LOUU54.sdf', '/opt/xchem-fragalysis-2/maxwin/BulkDock/OUTPUTS/openbind_a71ev2a_c2_elabs_1LSYIDY.sdf']

>  <name>  (1801) 
P585490

>  <ref_pdb>  (1801) 
A0566a

>  <subsites>  (1801) 
None

>  <HIPPO Pose ID>  (1801) 
585490

>  <ref_mols>  (1801) 
A0566a

>  <HIPPO Compound ID>  (1801) 
440579

>  <tags>  (1801) 
openbind_a71ev2a_c2_elabs,syndirella_product,openbind_a71ev2a_c2_elabs_fragonly_scored_top80percent,BulkDock Fragalysis export,openbind_a71ev2a_c2_elabs_scored,openbind_a71ev2a_c2_elabs_scored_top80percent,openbind_a71ev2a_c2_elabs_activefrags_only_scored_5.2plus,openbind_a71ev2a_c2_elabs_activefrags_only_scored_5.5plus,syndirella_placed

>  <smina_score_min>  (1801) 
-6.786

$$$$
P585493
     RDKit          3D

 19 21  0  0  0  0  0  0  0  0999 V2000
   10.2743   14.6705   24.1922 O   0  0  0  0  0  0  0  0  0  0  0  0
   10.1683   13.9033   23.3221 C   0  0  0  0  0  0  0  0  0  0  0  0
   10.5236   14.0300   21.8357 N   0  0  0  0  0  0  0  0  0  0  0  0
   11.1680   15.0852   21.1227 C   0  0  0  0  0  0  0  0  0  0  0  0
   10.1905   16.0425   20.6032 C   0  0  0  0  0  0  0  0  0  0  0  0
    9.5384   16.9459   20.1521 C   0  0  0  0  0  0  0  0  0  0  0  0
    8.6601   18.4768   19.3925 Br  0  0  0  0  0  0  0  0  0  0  0  0
    9.4998   12.6189   23.6332 C   0  0  0  0  0  0  0  0  0  0  0  0
    9.9358   11.3994   23.1149 C   0  0  0  0  0  0  0  0  0  0  0  0
    9.3522   10.1956   23.4948 C   0  0  0  0  0  0  0  0  0  0  0  0
    8.3227   10.1843   24.4389 C   0  0  0  0  0  0  0  0  0  0  0  0
    7.8514   11.3939   24.9746 C   0  0  0  0  0  0  0  0  0  0  0  0
    6.8938   11.7574   25.9345 C   0  0  0  0  0  0  0  0  0  0  0  0
    6.8903   13.1184   26.0346 C   0  0  0  0  0  0  0  0  0  0  0  0
    7.8049   13.6454   25.1954 N   0  0  0  0  0  0  0  0  0  0  0  0
    8.4411   12.5940   24.5479 C   0  0  0  0  0  0  0  0  0  0  0  0
    5.9464   13.6791   27.0142 C   0  0  0  0  0  0  0  0  0  0  0  0
    5.5753   12.3788   27.8026 C   0  0  0  0  0  0  0  0  0  0  0  0
    5.9260   11.1623   26.8763 C   0  0  0  0  0  0  0  0  0  0  0  0
  1  2  2  0
  2  3  1  0
  3  4  1  0
  4  5  1  0
  5  6  3  0
  6  7  1  0
  2  8  1  0
  8  9  2  0
  9 10  1  0
 10 11  2  0
 11 12  1  0
 12 13  1  0
 13 14  2  0
 14 15  1  0
 15 16  1  0
 14 17  1  0
 17 18  1  0
 18 19  1  0
 16  8  1  0
 16 12  2  0
 19 13  1  0
M  END
>  <alias>  (1802) 
None

>  <rmsd(smina/fragmenstein)>  (1802) 
0.612

>  <smiles>  (1802) 
O=C(NCC#CBr)c1cccc2c3c([nH]c12)CCC3

>  <gnina_score>  (1802) 
5.408

>  <inspiration_score>  (1802) 
None

>  <energy_score>  (1802) 
-5.186386

>  <distance_score>  (1802) 
1.039736

>  <gnina_score_min>  (1802) 
5.382

>  <inchikey>  (1802) 
BISPAIHCGBRLJZ-UHFFFAOYSA-N

>  <exports>  (1802) 
['/opt/xchem-fragalysis-2/maxwin/BulkDock/OUTPUTS/openbind_a71ev2a_c2_elabs_1LOUU54.sdf', '/opt/xchem-fragalysis-2/maxwin/BulkDock/OUTPUTS/openbind_a71ev2a_c2_elabs_1LSYIDY.sdf']

>  <name>  (1802) 
P585493

>  <ref_pdb>  (1802) 
A0566a

>  <subsites>  (1802) 
None

>  <HIPPO Pose ID>  (1802) 
585493

>  <ref_mols>  (1802) 
A0566a

>  <HIPPO Compound ID>  (1802) 
440583

>  <tags>  (1802) 
openbind_a71ev2a_c2_elabs,syndirella_product,openbind_a71ev2a_c2_elabs_fragonly_scored_top80percent,openbind_a71ev2a_c2_elabs_scored,BulkDock Fragalysis export,openbind_a71ev2a_c2_elabs_scored_top80percent,openbind_a71ev2a_c2_elabs_activefrags_only_scored_5.2plus,syndirella_placed

>  <smina_score_min>  (1802) 
-6.574

$$$$
P585495
     RDKit          3D

 19 21  0  0  0  0  0  0  0  0999 V2000
   11.3704   14.8597   18.6467 C   0  0  0  0  0  0  0  0  0  0  0  0
   12.1516   14.0840   19.5377 O   0  0  0  0  0  0  0  0  0  0  0  0
   12.3824   14.6418   20.8264 C   0  0  0  0  0  0  0  0  0  0  0  0
   11.1769   15.2198   21.5466 C   0  0  0  0  0  0  0  0  0  0  0  0
   10.4176   14.1661   22.1519 N   0  0  0  0  0  0  0  0  0  0  0  0
   10.0582   13.9147   23.6178 C   0  0  0  0  0  0  0  0  0  0  0  0
   10.2544   14.5624   24.5652 O   0  0  0  0  0  0  0  0  0  0  0  0
    9.3778   12.6183   23.7984 C   0  0  0  0  0  0  0  0  0  0  0  0
    9.8534   11.4422   23.2114 C   0  0  0  0  0  0  0  0  0  0  0  0
    9.2964   10.2092   23.5288 C   0  0  0  0  0  0  0  0  0  0  0  0
    8.2636   10.1285   24.4687 C   0  0  0  0  0  0  0  0  0  0  0  0
    7.7483   11.2966   25.0557 C   0  0  0  0  0  0  0  0  0  0  0  0
    6.7803   11.5895   26.0312 C   0  0  0  0  0  0  0  0  0  0  0  0
    6.7463   12.9434   26.1987 C   0  0  0  0  0  0  0  0  0  0  0  0
    7.6490   13.5333   25.3880 N   0  0  0  0  0  0  0  0  0  0  0  0
    8.3078   12.5295   24.6916 C   0  0  0  0  0  0  0  0  0  0  0  0
    5.8015   13.4372   27.2118 C   0  0  0  0  0  0  0  0  0  0  0  0
    4.9964   12.1271   27.5026 C   0  0  0  0  0  0  0  0  0  0  0  0
    5.8411   10.9228   26.9554 C   0  0  0  0  0  0  0  0  0  0  0  0
  1  2  1  0
  2  3  1  0
  3  4  1  0
  4  5  1  0
  5  6  1  0
  6  7  2  0
  6  8  1  0
  8  9  2  0
  9 10  1  0
 10 11  2  0
 11 12  1  0
 12 13  1  0
 13 14  2  0
 14 15  1  0
 15 16  1  0
 14 17  1  0
 17 18  1  0
 18 19  1  0
 16  8  1  0
 16 12  2  0
 19 13  1  0
M  END
>  <alias>  (1803) 
None

>  <rmsd(smina/fragmenstein)>  (1803) 
0.758

>  <smiles>  (1803) 
COCCNC(=O)c1cccc2c3c([nH]c12)CCC3

>  <gnina_score>  (1803) 
5.07

>  <inspiration_score>  (1803) 
None

>  <energy_score>  (1803) 
-4.658881

>  <distance_score>  (1803) 
1.051182

>  <gnina_score_min>  (1803) 
5.276

>  <inchikey>  (1803) 
NHMOSPVLDHALJH-UHFFFAOYSA-N

>  <exports>  (1803) 
['/opt/xchem-fragalysis-2/maxwin/BulkDock/OUTPUTS/openbind_a71ev2a_c2_elabs_1LOUU54.sdf', '/opt/xchem-fragalysis-2/maxwin/BulkDock/OUTPUTS/openbind_a71ev2a_c2_elabs_1LSYIDY.sdf']

>  <name>  (1803) 
P585495

>  <ref_pdb>  (1803) 
A0566a

>  <subsites>  (1803) 
None

>  <HIPPO Pose ID>  (1803) 
585495

>  <ref_mols>  (1803) 
A0566a

>  <HIPPO Compound ID>  (1803) 
440586

>  <tags>  (1803) 
openbind_a71ev2a_c2_elabs,syndirella_product,openbind_a71ev2a_c2_elabs_fragonly_scored_top80percent,openbind_a71ev2a_c2_elabs_scored,BulkDock Fragalysis export,openbind_a71ev2a_c2_elabs_scored_top80percent,openbind_a71ev2a_c2_elabs_activefrags_only_scored_5.2plus,syndirella_placed

>  <smina_score_min>  (1803) 
-6.035

$$$$
P585498
     RDKit          3D

 19 21  0  0  0  0  0  0  0  0999 V2000
   12.5424   14.4323   20.6416 C   0  0  0  0  0  0  0  0  0  0  0  0
   11.2053   14.8897   20.1096 C   0  0  0  0  0  0  0  0  0  0  0  0
   10.3630   15.3211   21.2343 N   0  0  0  0  0  0  0  0  0  0  0  0
    9.2020   16.0248   20.6925 C   0  0  0  0  0  0  0  0  0  0  0  0
    9.9442   14.2157   21.9513 N   0  0  0  0  0  0  0  0  0  0  0  0
    9.7814   14.0103   23.4715 C   0  0  0  0  0  0  0  0  0  0  0  0
    9.9011   14.7648   24.3546 O   0  0  0  0  0  0  0  0  0  0  0  0
    9.3080   12.6476   23.7745 C   0  0  0  0  0  0  0  0  0  0  0  0
    9.8587   11.4993   23.2018 C   0  0  0  0  0  0  0  0  0  0  0  0
    9.3628   10.2397   23.5214 C   0  0  0  0  0  0  0  0  0  0  0  0
    8.3269   10.1068   24.4545 C   0  0  0  0  0  0  0  0  0  0  0  0
    7.7645   11.2446   25.0569 C   0  0  0  0  0  0  0  0  0  0  0  0
    6.7828   11.4910   26.0333 C   0  0  0  0  0  0  0  0  0  0  0  0
    6.6914   12.8413   26.2063 C   0  0  0  0  0  0  0  0  0  0  0  0
    7.5549   13.4729   25.3857 N   0  0  0  0  0  0  0  0  0  0  0  0
    8.2622   12.5014   24.6903 C   0  0  0  0  0  0  0  0  0  0  0  0
    5.7308   13.2944   27.2228 C   0  0  0  0  0  0  0  0  0  0  0  0
    4.9989   11.9488   27.5394 C   0  0  0  0  0  0  0  0  0  0  0  0
    5.8677   10.7811   26.9508 C   0  0  0  0  0  0  0  0  0  0  0  0
  1  2  1  0
  2  3  1  0
  3  4  1  0
  3  5  1  0
  5  6  1  0
  6  7  2  0
  6  8  1  0
  8  9  2  0
  9 10  1  0
 10 11  2  0
 11 12  1  0
 12 13  1  0
 13 14  2  0
 14 15  1  0
 15 16  1  0
 14 17  1  0
 17 18  1  0
 18 19  1  0
 16  8  1  0
 16 12  2  0
 19 13  1  0
M  END
>  <alias>  (1804) 
None

>  <rmsd(smina/fragmenstein)>  (1804) 
0.718

>  <smiles>  (1804) 
CCN(C)NC(=O)c1cccc2c3c([nH]c12)CCC3

>  <gnina_score>  (1804) 
5.481

>  <inspiration_score>  (1804) 
None

>  <energy_score>  (1804) 
-7.454066

>  <distance_score>  (1804) 
1.28131

>  <gnina_score_min>  (1804) 
5.602

>  <inchikey>  (1804) 
HPWGKVBCFXBNOS-UHFFFAOYSA-N

>  <exports>  (1804) 
['/opt/xchem-fragalysis-2/maxwin/BulkDock/OUTPUTS/openbind_a71ev2a_c2_elabs_1LOUU54.sdf', '/opt/xchem-fragalysis-2/maxwin/BulkDock/OUTPUTS/openbind_a71ev2a_c2_elabs_1LSYIDY.sdf']

>  <name>  (1804) 
P585498

>  <ref_pdb>  (1804) 
A0566a

>  <subsites>  (1804) 
None

>  <HIPPO Pose ID>  (1804) 
585498

>  <ref_mols>  (1804) 
A0566a

>  <HIPPO Compound ID>  (1804) 
440589

>  <tags>  (1804) 
openbind_a71ev2a_c2_elabs,syndirella_product,openbind_a71ev2a_c2_elabs_fragonly_scored_top80percent,BulkDock Fragalysis export,openbind_a71ev2a_c2_elabs_scored,openbind_a71ev2a_c2_elabs_scored_top80percent,openbind_a71ev2a_c2_elabs_activefrags_only_scored_5.2plus,openbind_a71ev2a_c2_elabs_activefrags_only_scored_5.5plus,syndirella_placed

>  <smina_score_min>  (1804) 
-6.018

$$$$
P585500
     RDKit          3D

 19 21  0  0  0  0  0  0  0  0999 V2000
   11.7123   15.2038   21.7967 C   0  0  0  0  0  0  0  0  0  0  0  0
   10.6013   15.5853   20.8197 C   0  0  1  0  0  0  0  0  0  0  0  0
   11.0607   14.8302   19.2244 S   0  0  0  0  0  0  0  0  0  0  0  0
    9.1591   15.2597   21.2018 C   0  0  0  0  0  0  0  0  0  0  0  0
    8.9954   14.1445   22.0729 N   0  0  0  0  0  0  0  0  0  0  0  0
    9.4056   13.9557   23.5324 C   0  0  0  0  0  0  0  0  0  0  0  0
    9.8751   14.7045   24.2861 O   0  0  0  0  0  0  0  0  0  0  0  0
    9.0613   12.5955   23.9325 C   0  0  0  0  0  0  0  0  0  0  0  0
    9.6555   11.4875   23.3224 C   0  0  0  0  0  0  0  0  0  0  0  0
    9.2207   10.2105   23.6446 C   0  0  0  0  0  0  0  0  0  0  0  0
    8.2054   10.0362   24.5965 C   0  0  0  0  0  0  0  0  0  0  0  0
    7.6117   11.1440   25.2288 C   0  0  0  0  0  0  0  0  0  0  0  0
    6.6369   11.3472   26.2203 C   0  0  0  0  0  0  0  0  0  0  0  0
    6.4987   12.6922   26.4075 C   0  0  0  0  0  0  0  0  0  0  0  0
    7.3217   13.3638   25.5765 N   0  0  0  0  0  0  0  0  0  0  0  0
    8.0518   12.4220   24.8702 C   0  0  0  0  0  0  0  0  0  0  0  0
    5.5360   13.0991   27.4421 C   0  0  0  0  0  0  0  0  0  0  0  0
    4.8614   11.7236   27.7588 C   0  0  0  0  0  0  0  0  0  0  0  0
    5.7632   10.5945   27.1448 C   0  0  0  0  0  0  0  0  0  0  0  0
  2  1  1  1
  2  3  1  0
  2  4  1  0
  4  5  1  0
  5  6  1  0
  6  7  2  0
  6  8  1  0
  8  9  2  0
  9 10  1  0
 10 11  2  0
 11 12  1  0
 12 13  1  0
 13 14  2  0
 14 15  1  0
 15 16  1  0
 14 17  1  0
 17 18  1  0
 18 19  1  0
 16  8  1  0
 16 12  2  0
 19 13  1  0
M  END
>  <alias>  (1805) 
None

>  <rmsd(smina/fragmenstein)>  (1805) 
0.236

>  <smiles>  (1805) 
C[C@@H](S)CNC(=O)c1cccc2c3c([nH]c12)CCC3

>  <gnina_score>  (1805) 
5.379

>  <inspiration_score>  (1805) 
None

>  <energy_score>  (1805) 
-4.467896

>  <distance_score>  (1805) 
1.662445

>  <gnina_score_min>  (1805) 
5.357

>  <inchikey>  (1805) 
BJIDZIASVZNDBC-SECBINFHSA-N

>  <exports>  (1805) 
['/opt/xchem-fragalysis-2/maxwin/BulkDock/OUTPUTS/openbind_a71ev2a_c2_elabs_1LOUU54.sdf', '/opt/xchem-fragalysis-2/maxwin/BulkDock/OUTPUTS/openbind_a71ev2a_c2_elabs_1LSYIDY.sdf']

>  <name>  (1805) 
P585500

>  <ref_pdb>  (1805) 
A0566a

>  <subsites>  (1805) 
None

>  <HIPPO Pose ID>  (1805) 
585500

>  <ref_mols>  (1805) 
A0566a

>  <HIPPO Compound ID>  (1805) 
440592

>  <tags>  (1805) 
openbind_a71ev2a_c2_elabs,syndirella_product,openbind_a71ev2a_c2_elabs_fragonly_scored_top80percent,openbind_a71ev2a_c2_elabs_scored,BulkDock Fragalysis export,openbind_a71ev2a_c2_elabs_scored_top80percent,openbind_a71ev2a_c2_elabs_activefrags_only_scored_5.2plus,syndirella_placed

>  <smina_score_min>  (1805) 
-5.88

$$$$
P585501
     RDKit          3D

 19 21  0  0  0  0  0  0  0  0999 V2000
   11.3358   15.0822   18.3950 C   0  0  0  0  0  0  0  0  0  0  0  0
   10.2766   15.9588   19.0321 C   0  0  0  0  0  0  0  0  0  0  0  0
    9.8963   15.5621   20.4514 C   0  0  0  0  0  0  0  0  0  0  0  0
   11.0326   15.1087   21.3691 C   0  0  0  0  0  0  0  0  0  0  0  0
   10.5566   13.9817   22.1113 N   0  0  0  0  0  0  0  0  0  0  0  0
   10.0141   13.8881   23.5386 C   0  0  0  0  0  0  0  0  0  0  0  0
    9.9369   14.6978   24.3717 O   0  0  0  0  0  0  0  0  0  0  0  0
    9.4205   12.5550   23.8104 C   0  0  0  0  0  0  0  0  0  0  0  0
    9.8819   11.3622   23.2445 C   0  0  0  0  0  0  0  0  0  0  0  0
    9.3098   10.1377   23.5698 C   0  0  0  0  0  0  0  0  0  0  0  0
    8.2733   10.0756   24.5043 C   0  0  0  0  0  0  0  0  0  0  0  0
    7.7721   11.2537   25.0781 C   0  0  0  0  0  0  0  0  0  0  0  0
    6.8054   11.5658   26.0473 C   0  0  0  0  0  0  0  0  0  0  0  0
    6.7486   12.9235   26.1669 C   0  0  0  0  0  0  0  0  0  0  0  0
    7.6518   13.4947   25.3458 N   0  0  0  0  0  0  0  0  0  0  0  0
    8.3383   12.4764   24.6952 C   0  0  0  0  0  0  0  0  0  0  0  0
    5.7739   13.4355   27.1420 C   0  0  0  0  0  0  0  0  0  0  0  0
    5.4294   12.1116   27.9017 C   0  0  0  0  0  0  0  0  0  0  0  0
    5.8652   10.9177   26.9819 C   0  0  0  0  0  0  0  0  0  0  0  0
  1  2  1  0
  2  3  1  0
  3  4  1  0
  4  5  1  0
  5  6  1  0
  6  7  2  0
  6  8  1  0
  8  9  2  0
  9 10  1  0
 10 11  2  0
 11 12  1  0
 12 13  1  0
 13 14  2  0
 14 15  1  0
 15 16  1  0
 14 17  1  0
 17 18  1  0
 18 19  1  0
 16  8  1  0
 16 12  2  0
 19 13  1  0
M  END
>  <alias>  (1806) 
None

>  <rmsd(smina/fragmenstein)>  (1806) 
0.614

>  <smiles>  (1806) 
CCCCNC(=O)c1cccc2c3c([nH]c12)CCC3

>  <gnina_score>  (1806) 
5.219

>  <inspiration_score>  (1806) 
None

>  <energy_score>  (1806) 
-2.071137

>  <distance_score>  (1806) 
1.134414

>  <gnina_score_min>  (1806) 
5.283

>  <inchikey>  (1806) 
CAQXOIKRCPELIU-UHFFFAOYSA-N

>  <exports>  (1806) 
['/opt/xchem-fragalysis-2/maxwin/BulkDock/OUTPUTS/openbind_a71ev2a_c2_elabs_1LOUU54.sdf', '/opt/xchem-fragalysis-2/maxwin/BulkDock/OUTPUTS/openbind_a71ev2a_c2_elabs_1LSYIDY.sdf']

>  <name>  (1806) 
P585501

>  <ref_pdb>  (1806) 
A0566a

>  <subsites>  (1806) 
None

>  <HIPPO Pose ID>  (1806) 
585501

>  <ref_mols>  (1806) 
A0566a

>  <HIPPO Compound ID>  (1806) 
440593

>  <tags>  (1806) 
openbind_a71ev2a_c2_elabs,syndirella_product,openbind_a71ev2a_c2_elabs_fragonly_scored_top80percent,openbind_a71ev2a_c2_elabs_scored,BulkDock Fragalysis export,openbind_a71ev2a_c2_elabs_scored_top80percent,openbind_a71ev2a_c2_elabs_activefrags_only_scored_5.2plus,syndirella_placed

>  <smina_score_min>  (1806) 
-6.254

$$$$
P585503
     RDKit          3D

 19 22  0  0  0  0  0  0  0  0999 V2000
   10.1320   14.5856   24.5869 O   0  0  0  0  0  0  0  0  0  0  0  0
    9.9452   13.9036   23.6605 C   0  0  0  0  0  0  0  0  0  0  0  0
   10.2086   14.1557   22.1687 N   0  0  0  0  0  0  0  0  0  0  0  0
   10.8151   15.2100   21.5375 N   0  0  0  0  0  0  0  0  0  0  0  0
   12.2765   15.1755   21.8102 C   0  0  0  0  0  0  0  0  0  0  0  0
   12.4591   14.3161   20.5622 C   0  0  0  0  0  0  0  0  0  0  0  0
   11.1034   14.8681   20.1207 C   0  0  0  0  0  0  0  0  0  0  0  0
    9.3206   12.5884   23.8598 C   0  0  0  0  0  0  0  0  0  0  0  0
    9.8154   11.4290   23.2551 C   0  0  0  0  0  0  0  0  0  0  0  0
    9.2752   10.1871   23.5623 C   0  0  0  0  0  0  0  0  0  0  0  0
    8.2465   10.0856   24.5066 C   0  0  0  0  0  0  0  0  0  0  0  0
    7.7188   11.2399   25.1101 C   0  0  0  0  0  0  0  0  0  0  0  0
    6.7574   11.5152   26.0956 C   0  0  0  0  0  0  0  0  0  0  0  0
    6.6854   12.8693   26.2519 C   0  0  0  0  0  0  0  0  0  0  0  0
    7.5786   13.4762   25.4443 N   0  0  0  0  0  0  0  0  0  0  0  0
    8.2553   12.4820   24.7515 C   0  0  0  0  0  0  0  0  0  0  0  0
    5.7204   13.3440   27.2550 C   0  0  0  0  0  0  0  0  0  0  0  0
    5.3987   11.9968   27.9821 C   0  0  0  0  0  0  0  0  0  0  0  0
    5.8419   10.8317   27.0296 C   0  0  0  0  0  0  0  0  0  0  0  0
  1  2  2  0
  2  3  1  0
  3  4  1  0
  4  5  1  0
  5  6  1  0
  6  7  1  0
  2  8  1  0
  8  9  2  0
  9 10  1  0
 10 11  2  0
 11 12  1  0
 12 13  1  0
 13 14  2  0
 14 15  1  0
 15 16  1  0
 14 17  1  0
 17 18  1  0
 18 19  1  0
  7  4  1  0
 16  8  1  0
 16 12  2  0
 19 13  1  0
M  END
>  <alias>  (1807) 
None

>  <rmsd(smina/fragmenstein)>  (1807) 
0.306

>  <smiles>  (1807) 
O=C(NN1CCC1)c1cccc2c3c([nH]c12)CCC3

>  <gnina_score>  (1807) 
5.388

>  <inspiration_score>  (1807) 
None

>  <energy_score>  (1807) 
-5.157288

>  <distance_score>  (1807) 
1.157566

>  <gnina_score_min>  (1807) 
5.474

>  <inchikey>  (1807) 
ABCWUCHNBYFRCH-UHFFFAOYSA-N

>  <exports>  (1807) 
['/opt/xchem-fragalysis-2/maxwin/BulkDock/OUTPUTS/openbind_a71ev2a_c2_elabs_1LOUU54.sdf', '/opt/xchem-fragalysis-2/maxwin/BulkDock/OUTPUTS/openbind_a71ev2a_c2_elabs_1LSYIDY.sdf']

>  <name>  (1807) 
P585503

>  <ref_pdb>  (1807) 
A0566a

>  <subsites>  (1807) 
None

>  <HIPPO Pose ID>  (1807) 
585503

>  <ref_mols>  (1807) 
A0566a

>  <HIPPO Compound ID>  (1807) 
440597

>  <tags>  (1807) 
openbind_a71ev2a_c2_elabs,syndirella_product,openbind_a71ev2a_c2_elabs_fragonly_scored_top80percent,openbind_a71ev2a_c2_elabs_scored,BulkDock Fragalysis export,openbind_a71ev2a_c2_elabs_scored_top80percent,openbind_a71ev2a_c2_elabs_activefrags_only_scored_5.2plus,syndirella_placed

>  <smina_score_min>  (1807) 
-6.579

$$$$
P585504
     RDKit          3D

 19 21  0  0  0  0  0  0  0  0999 V2000
   10.1260   16.0828   19.1744 C   0  0  0  0  0  0  0  0  0  0  0  0
   10.2071   15.8853   20.6819 C   0  0  0  0  0  0  0  0  0  0  0  0
   11.2045   14.7891   21.0835 C   0  0  1  0  0  0  0  0  0  0  0  0
   12.3922   15.2698   21.9033 C   0  0  0  0  0  0  0  0  0  0  0  0
   10.5238   13.7766   21.8424 N   0  0  0  0  0  0  0  0  0  0  0  0
   10.0011   13.7939   23.2864 C   0  0  0  0  0  0  0  0  0  0  0  0
    9.9695   14.6576   24.0684 O   0  0  0  0  0  0  0  0  0  0  0  0
    9.3773   12.5035   23.6669 C   0  0  0  0  0  0  0  0  0  0  0  0
    9.8253   11.2672   23.1928 C   0  0  0  0  0  0  0  0  0  0  0  0
    9.2470   10.0767   23.6116 C   0  0  0  0  0  0  0  0  0  0  0  0
    8.2167   10.0921   24.5545 C   0  0  0  0  0  0  0  0  0  0  0  0
    7.7443   11.3137   25.0588 C   0  0  0  0  0  0  0  0  0  0  0  0
    6.7871   11.7015   26.0104 C   0  0  0  0  0  0  0  0  0  0  0  0
    6.7774   13.0643   26.0674 C   0  0  0  0  0  0  0  0  0  0  0  0
    7.6800   13.5689   25.2018 N   0  0  0  0  0  0  0  0  0  0  0  0
    8.3246   12.5008   24.5900 C   0  0  0  0  0  0  0  0  0  0  0  0
    5.8275   13.6558   27.0218 C   0  0  0  0  0  0  0  0  0  0  0  0
    4.9910   12.3879   27.4005 C   0  0  0  0  0  0  0  0  0  0  0  0
    5.8240   11.1287   26.9717 C   0  0  0  0  0  0  0  0  0  0  0  0
  1  2  1  0
  2  3  1  0
  3  4  1  1
  3  5  1  0
  5  6  1  0
  6  7  2  0
  6  8  1  0
  8  9  2  0
  9 10  1  0
 10 11  2  0
 11 12  1  0
 12 13  1  0
 13 14  2  0
 14 15  1  0
 15 16  1  0
 14 17  1  0
 17 18  1  0
 18 19  1  0
 16  8  1  0
 16 12  2  0
 19 13  1  0
M  END
>  <alias>  (1808) 
None

>  <rmsd(smina/fragmenstein)>  (1808) 
0.319

>  <smiles>  (1808) 
CC[C@@H](C)NC(=O)c1cccc2c3c([nH]c12)CCC3

>  <gnina_score>  (1808) 
5.478

>  <inspiration_score>  (1808) 
None

>  <energy_score>  (1808) 
-13.301942

>  <distance_score>  (1808) 
1.177003

>  <gnina_score_min>  (1808) 
5.475

>  <inchikey>  (1808) 
WUAWDBCHXAVQRS-SNVBAGLBSA-N

>  <exports>  (1808) 
['/opt/xchem-fragalysis-2/maxwin/BulkDock/OUTPUTS/openbind_a71ev2a_c2_elabs_1LOUU54.sdf', '/opt/xchem-fragalysis-2/maxwin/BulkDock/OUTPUTS/openbind_a71ev2a_c2_elabs_1LSYIDY.sdf']

>  <name>  (1808) 
P585504

>  <ref_pdb>  (1808) 
A0566a

>  <subsites>  (1808) 
None

>  <HIPPO Pose ID>  (1808) 
585504

>  <ref_mols>  (1808) 
A0566a

>  <HIPPO Compound ID>  (1808) 
440599

>  <tags>  (1808) 
openbind_a71ev2a_c2_elabs,syndirella_product,openbind_a71ev2a_c2_elabs_fragonly_scored_top80percent,openbind_a71ev2a_c2_elabs_scored,BulkDock Fragalysis export,openbind_a71ev2a_c2_elabs_scored_top80percent,openbind_a71ev2a_c2_elabs_activefrags_only_scored_5.2plus,syndirella_placed

>  <smina_score_min>  (1808) 
-6.902

$$$$
P585506
     RDKit          3D

 19 22  0  0  0  0  0  0  0  0999 V2000
    9.9142   14.6659   24.4007 O   0  0  0  0  0  0  0  0  0  0  0  0
    9.9373   13.8667   23.5543 C   0  0  0  0  0  0  0  0  0  0  0  0
   10.4186   13.9696   22.1042 N   0  0  0  0  0  0  0  0  0  0  0  0
   11.0678   15.0579   21.4026 C   0  0  0  0  0  0  0  0  0  0  0  0
   12.2513   14.5781   20.5513 C   0  0  0  0  0  0  0  0  0  0  0  0
   11.3177   14.7836   19.0171 S   0  0  0  0  0  0  0  0  0  0  0  0
   10.2281   15.5863   20.2178 C   0  0  0  0  0  0  0  0  0  0  0  0
    9.3352   12.5417   23.8209 C   0  0  0  0  0  0  0  0  0  0  0  0
    9.8200   11.3532   23.2625 C   0  0  0  0  0  0  0  0  0  0  0  0
    9.2656   10.1249   23.5972 C   0  0  0  0  0  0  0  0  0  0  0  0
    8.2322   10.0572   24.5353 C   0  0  0  0  0  0  0  0  0  0  0  0
    7.7195   11.2313   25.1086 C   0  0  0  0  0  0  0  0  0  0  0  0
    6.7589   11.5349   26.0860 C   0  0  0  0  0  0  0  0  0  0  0  0
    6.6910   12.8920   26.2062 C   0  0  0  0  0  0  0  0  0  0  0  0
    7.5830   13.4721   25.3789 N   0  0  0  0  0  0  0  0  0  0  0  0
    8.2656   12.4597   24.7165 C   0  0  0  0  0  0  0  0  0  0  0  0
    5.7231   13.3948   27.1931 C   0  0  0  0  0  0  0  0  0  0  0  0
    5.3956   12.0675   27.9542 C   0  0  0  0  0  0  0  0  0  0  0  0
    5.8378   10.8770   27.0331 C   0  0  0  0  0  0  0  0  0  0  0  0
  1  2  2  0
  2  3  1  0
  3  4  1  0
  4  5  1  0
  5  6  1  0
  6  7  1  0
  2  8  1  0
  8  9  2  0
  9 10  1  0
 10 11  2  0
 11 12  1  0
 12 13  1  0
 13 14  2  0
 14 15  1  0
 15 16  1  0
 14 17  1  0
 17 18  1  0
 18 19  1  0
  7  4  1  0
 16  8  1  0
 16 12  2  0
 19 13  1  0
M  END
>  <alias>  (1809) 
None

>  <rmsd(smina/fragmenstein)>  (1809) 
0.378

>  <smiles>  (1809) 
O=C(NC1CSC1)c1cccc2c3c([nH]c12)CCC3

>  <gnina_score>  (1809) 
5.348

>  <inspiration_score>  (1809) 
None

>  <energy_score>  (1809) 
-5.620552

>  <distance_score>  (1809) 
1.175496

>  <gnina_score_min>  (1809) 
5.418

>  <inchikey>  (1809) 
XKWIIHPFKGQBPY-UHFFFAOYSA-N

>  <exports>  (1809) 
['/opt/xchem-fragalysis-2/maxwin/BulkDock/OUTPUTS/openbind_a71ev2a_c2_elabs_1LOUU54.sdf', '/opt/xchem-fragalysis-2/maxwin/BulkDock/OUTPUTS/openbind_a71ev2a_c2_elabs_1LSYIDY.sdf']

>  <name>  (1809) 
P585506

>  <ref_pdb>  (1809) 
A0566a

>  <subsites>  (1809) 
None

>  <HIPPO Pose ID>  (1809) 
585506

>  <ref_mols>  (1809) 
A0566a

>  <HIPPO Compound ID>  (1809) 
440601

>  <tags>  (1809) 
openbind_a71ev2a_c2_elabs,syndirella_product,openbind_a71ev2a_c2_elabs_fragonly_scored_top80percent,openbind_a71ev2a_c2_elabs_scored,BulkDock Fragalysis export,openbind_a71ev2a_c2_elabs_scored_top80percent,openbind_a71ev2a_c2_elabs_activefrags_only_scored_5.2plus,syndirella_placed

>  <smina_score_min>  (1809) 
-6.266

$$$$
P585512
     RDKit          3D

 19 21  0  0  0  0  0  0  0  0999 V2000
   12.6225   14.5827   21.2891 C   0  0  0  0  0  0  0  0  0  0  0  0
   11.2015   15.0751   21.4007 C   0  0  1  0  0  0  0  0  0  0  0  0
   10.5942   15.4030   20.0390 C   0  0  0  0  0  0  0  0  0  0  0  0
    9.3152   16.6745   20.2273 S   0  0  0  0  0  0  0  0  0  0  0  0
   10.4399   14.0571   22.0744 N   0  0  0  0  0  0  0  0  0  0  0  0
   10.1050   13.8834   23.5562 C   0  0  0  0  0  0  0  0  0  0  0  0
   10.3245   14.5754   24.4659 O   0  0  0  0  0  0  0  0  0  0  0  0
    9.4086   12.6027   23.7919 C   0  0  0  0  0  0  0  0  0  0  0  0
    9.8533   11.4024   23.2269 C   0  0  0  0  0  0  0  0  0  0  0  0
    9.2697   10.1886   23.5659 C   0  0  0  0  0  0  0  0  0  0  0  0
    8.2399   10.1494   24.5098 C   0  0  0  0  0  0  0  0  0  0  0  0
    7.7575   11.3410   25.0769 C   0  0  0  0  0  0  0  0  0  0  0  0
    6.8037   11.6730   26.0512 C   0  0  0  0  0  0  0  0  0  0  0  0
    6.7840   13.0314   26.1801 C   0  0  0  0  0  0  0  0  0  0  0  0
    7.6922   13.5873   25.3524 N   0  0  0  0  0  0  0  0  0  0  0  0
    8.3396   12.5560   24.6867 C   0  0  0  0  0  0  0  0  0  0  0  0
    5.8385   13.5594   27.1763 C   0  0  0  0  0  0  0  0  0  0  0  0
    5.4860   12.2389   27.9388 C   0  0  0  0  0  0  0  0  0  0  0  0
    5.8562   11.0442   26.9919 C   0  0  0  0  0  0  0  0  0  0  0  0
  2  1  1  6
  2  3  1  0
  3  4  1  0
  2  5  1  0
  5  6  1  0
  6  7  2  0
  6  8  1  0
  8  9  2  0
  9 10  1  0
 10 11  2  0
 11 12  1  0
 12 13  1  0
 13 14  2  0
 14 15  1  0
 15 16  1  0
 14 17  1  0
 17 18  1  0
 18 19  1  0
 16  8  1  0
 16 12  2  0
 19 13  1  0
M  END
>  <alias>  (1810) 
None

>  <rmsd(smina/fragmenstein)>  (1810) 
0.314

>  <smiles>  (1810) 
C[C@@H](CS)NC(=O)c1cccc2c3c([nH]c12)CCC3

>  <gnina_score>  (1810) 
5.544

>  <inspiration_score>  (1810) 
None

>  <energy_score>  (1810) 
-21.484746

>  <distance_score>  (1810) 
1.0533

>  <gnina_score_min>  (1810) 
5.601

>  <inchikey>  (1810) 
LXNKHVZFXGRWDS-VIFPVBQESA-N

>  <exports>  (1810) 
['/opt/xchem-fragalysis-2/maxwin/BulkDock/OUTPUTS/openbind_a71ev2a_c2_elabs_1LOUU54.sdf', '/opt/xchem-fragalysis-2/maxwin/BulkDock/OUTPUTS/openbind_a71ev2a_c2_elabs_1LSYIDY.sdf']

>  <name>  (1810) 
P585512

>  <ref_pdb>  (1810) 
A0566a

>  <subsites>  (1810) 
None

>  <HIPPO Pose ID>  (1810) 
585512

>  <ref_mols>  (1810) 
A0566a

>  <HIPPO Compound ID>  (1810) 
440608

>  <tags>  (1810) 
openbind_a71ev2a_c2_elabs,syndirella_product,openbind_a71ev2a_c2_elabs_fragonly_scored_top80percent,BulkDock Fragalysis export,openbind_a71ev2a_c2_elabs_scored,openbind_a71ev2a_c2_elabs_scored_top80percent,openbind_a71ev2a_c2_elabs_activefrags_only_scored_5.2plus,openbind_a71ev2a_c2_elabs_activefrags_only_scored_5.5plus,syndirella_placed

>  <smina_score_min>  (1810) 
-6.624

$$$$
P585516
     RDKit          3D

 19 21  0  0  0  0  0  0  0  0999 V2000
   11.7382   14.5687   19.8151 C   0  0  0  0  0  0  0  0  0  0  0  0
   10.9501   15.1243   20.9928 C   0  0  1  0  0  0  0  0  0  0  0  0
    9.8317   16.0821   20.5370 C   0  0  0  0  0  0  0  0  0  0  0  0
    9.3005   15.7092   19.2787 O   0  0  0  0  0  0  0  0  0  0  0  0
   10.3761   14.0319   21.7523 N   0  0  0  0  0  0  0  0  0  0  0  0
   10.0548   13.9182   23.2491 C   0  0  0  0  0  0  0  0  0  0  0  0
   10.1282   14.7108   24.0999 O   0  0  0  0  0  0  0  0  0  0  0  0
    9.4710   12.6052   23.6096 C   0  0  0  0  0  0  0  0  0  0  0  0
    9.9386   11.3921   23.1066 C   0  0  0  0  0  0  0  0  0  0  0  0
    9.3799   10.1786   23.4948 C   0  0  0  0  0  0  0  0  0  0  0  0
    8.3488   10.1510   24.4371 C   0  0  0  0  0  0  0  0  0  0  0  0
    7.8572   11.3522   24.9719 C   0  0  0  0  0  0  0  0  0  0  0  0
    6.8934   11.7014   25.9315 C   0  0  0  0  0  0  0  0  0  0  0  0
    6.8576   13.0626   26.0186 C   0  0  0  0  0  0  0  0  0  0  0  0
    7.7569   13.6027   25.1716 N   0  0  0  0  0  0  0  0  0  0  0  0
    8.4192   12.5608   24.5340 C   0  0  0  0  0  0  0  0  0  0  0  0
    5.8956   13.6111   26.9872 C   0  0  0  0  0  0  0  0  0  0  0  0
    5.5461   12.3103   27.7843 C   0  0  0  0  0  0  0  0  0  0  0  0
    5.9365   11.0925   26.8758 C   0  0  0  0  0  0  0  0  0  0  0  0
  2  1  1  6
  2  3  1  0
  3  4  1  0
  2  5  1  0
  5  6  1  0
  6  7  2  0
  6  8  1  0
  8  9  2  0
  9 10  1  0
 10 11  2  0
 11 12  1  0
 12 13  1  0
 13 14  2  0
 14 15  1  0
 15 16  1  0
 14 17  1  0
 17 18  1  0
 18 19  1  0
 16  8  1  0
 16 12  2  0
 19 13  1  0
M  END
>  <alias>  (1811) 
None

>  <rmsd(smina/fragmenstein)>  (1811) 
0.817

>  <smiles>  (1811) 
C[C@@H](CO)NC(=O)c1cccc2c3c([nH]c12)CCC3

>  <gnina_score>  (1811) 
5.236

>  <inspiration_score>  (1811) 
None

>  <energy_score>  (1811) 
-17.824285

>  <distance_score>  (1811) 
1.117107

>  <gnina_score_min>  (1811) 
5.432

>  <inchikey>  (1811) 
GHHSCTJJXXFPFG-VIFPVBQESA-N

>  <exports>  (1811) 
['/opt/xchem-fragalysis-2/maxwin/BulkDock/OUTPUTS/openbind_a71ev2a_c2_elabs_1LOUU54.sdf', '/opt/xchem-fragalysis-2/maxwin/BulkDock/OUTPUTS/openbind_a71ev2a_c2_elabs_1LSYIDY.sdf']

>  <name>  (1811) 
P585516

>  <ref_pdb>  (1811) 
A0566a

>  <subsites>  (1811) 
None

>  <HIPPO Pose ID>  (1811) 
585516

>  <ref_mols>  (1811) 
A0566a

>  <HIPPO Compound ID>  (1811) 
440616

>  <tags>  (1811) 
openbind_a71ev2a_c2_elabs,syndirella_product,openbind_a71ev2a_c2_elabs_fragonly_scored_top80percent,openbind_a71ev2a_c2_elabs_scored,BulkDock Fragalysis export,openbind_a71ev2a_c2_elabs_scored_top80percent,openbind_a71ev2a_c2_elabs_activefrags_only_scored_5.2plus,syndirella_placed

>  <smina_score_min>  (1811) 
-7.275

$$$$
P585518
     RDKit          3D

 19 20  0  0  0  0  0  0  0  0999 V2000
    6.0787   13.9990   28.2481 C   0  0  0  0  0  0  0  0  0  0  0  0
    5.4747   13.6376   26.9001 C   0  0  0  0  0  0  0  0  0  0  0  0
    6.4308   12.8511   26.0689 C   0  0  0  0  0  0  0  0  0  0  0  0
    6.6050   11.4888   25.9390 C   0  0  0  0  0  0  0  0  0  0  0  0
    7.6535   11.2693   25.0107 C   0  0  0  0  0  0  0  0  0  0  0  0
    8.2782   10.1264   24.4934 C   0  0  0  0  0  0  0  0  0  0  0  0
    9.3378   10.2749   23.6025 C   0  0  0  0  0  0  0  0  0  0  0  0
   10.1676    8.9046   23.0310 Cl  0  0  0  0  0  0  0  0  0  0  0  0
    9.7812   11.5239   23.2132 C   0  0  0  0  0  0  0  0  0  0  0  0
    9.1357   12.6704   23.6685 C   0  0  0  0  0  0  0  0  0  0  0  0
    9.6035   14.0187   23.3083 C   0  0  0  0  0  0  0  0  0  0  0  0
    9.5110   14.8517   24.1171 O   0  0  0  0  0  0  0  0  0  0  0  0
   10.2321   14.0564   21.9064 N   0  0  0  0  0  0  0  0  0  0  0  0
   10.9689   15.1051   21.2338 C   0  0  2  0  0  0  0  0  0  0  0  0
   10.6122   15.1253   19.7566 C   0  0  0  0  0  0  0  0  0  0  0  0
   12.4571   14.8430   21.4827 C   0  0  0  0  0  0  0  0  0  0  0  0
   12.6954   14.6442   22.8807 O   0  0  0  0  0  0  0  0  0  0  0  0
    8.0926   12.5161   24.5851 C   0  0  0  0  0  0  0  0  0  0  0  0
    7.3287   13.4610   25.2312 N   0  0  0  0  0  0  0  0  0  0  0  0
  1  2  1  0
  2  3  1  0
  3  4  2  0
  4  5  1  0
  5  6  2  0
  6  7  1  0
  7  8  1  0
  7  9  2  0
  9 10  1  0
 10 11  1  0
 11 12  2  0
 11 13  1  0
 13 14  1  0
 14 15  1  6
 14 16  1  0
 16 17  1  0
 10 18  2  0
 18 19  1  0
 19  3  1  0
 18  5  1  0
M  END
>  <alias>  (1812) 
None

>  <rmsd(smina/fragmenstein)>  (1812) 
0.278

>  <smiles>  (1812) 
CCc1cc2cc(Cl)cc(C(=O)N[C@H](C)CO)c2[nH]1

>  <gnina_score>  (1812) 
5.421

>  <inspiration_score>  (1812) 
None

>  <energy_score>  (1812) 
-11.111266

>  <distance_score>  (1812) 
1.337702

>  <gnina_score_min>  (1812) 
5.438

>  <inchikey>  (1812) 
BTIYFFSZFPEOBW-MRVPVSSYSA-N

>  <exports>  (1812) 
['/opt/xchem-fragalysis-2/maxwin/BulkDock/OUTPUTS/openbind_a71ev2a_c2_elabs_1LOUU54.sdf', '/opt/xchem-fragalysis-2/maxwin/BulkDock/OUTPUTS/openbind_a71ev2a_c2_elabs_1LSYIDY.sdf']

>  <name>  (1812) 
P585518

>  <ref_pdb>  (1812) 
A0566a

>  <subsites>  (1812) 
None

>  <HIPPO Pose ID>  (1812) 
585518

>  <ref_mols>  (1812) 
A0566a

>  <HIPPO Compound ID>  (1812) 
440617

>  <tags>  (1812) 
openbind_a71ev2a_c2_elabs,syndirella_product,openbind_a71ev2a_c2_elabs_fragonly_scored_top80percent,openbind_a71ev2a_c2_elabs_scored,BulkDock Fragalysis export,openbind_a71ev2a_c2_elabs_scored_top80percent,openbind_a71ev2a_c2_elabs_activefrags_only_scored_5.2plus,syndirella_placed

>  <smina_score_min>  (1812) 
-5.85

$$$$
P585526
     RDKit          3D

 19 20  0  0  0  0  0  0  0  0999 V2000
   10.1321    9.3717   22.5498 C   0  0  0  0  0  0  0  0  0  0  0  0
   10.1450   10.7438   22.9559 O   0  0  0  0  0  0  0  0  0  0  0  0
    9.1816   11.1088   23.8522 C   0  0  0  0  0  0  0  0  0  0  0  0
    8.3889   10.1424   24.4653 C   0  0  0  0  0  0  0  0  0  0  0  0
    7.3583   10.4654   25.3259 C   0  0  0  0  0  0  0  0  0  0  0  0
    7.0712   11.8082   25.5425 C   0  0  0  0  0  0  0  0  0  0  0  0
    6.0878   12.4340   26.3388 C   0  0  0  0  0  0  0  0  0  0  0  0
    6.2231   13.7830   26.1609 C   0  0  0  0  0  0  0  0  0  0  0  0
    7.2254   13.9931   25.2478 N   0  0  0  0  0  0  0  0  0  0  0  0
    7.4150   15.2856   24.6246 C   0  0  0  0  0  0  0  0  0  0  0  0
    7.8567   12.7984   24.9396 C   0  0  0  0  0  0  0  0  0  0  0  0
    9.0076   12.4704   24.1733 C   0  0  0  0  0  0  0  0  0  0  0  0
    9.9964   13.5539   23.8422 C   0  0  0  0  0  0  0  0  0  0  0  0
   10.0872   14.4387   24.5940 O   0  0  0  0  0  0  0  0  0  0  0  0
   10.6583   13.3380   22.4789 N   0  0  0  0  0  0  0  0  0  0  0  0
   11.5041   14.2088   21.6981 C   0  0  2  0  0  0  0  0  0  0  0  0
   12.5542   14.8665   22.5645 C   0  0  0  0  0  0  0  0  0  0  0  0
   10.7016   15.2739   20.9302 C   0  0  0  0  0  0  0  0  0  0  0  0
    8.9529   14.9593   20.8434 Cl  0  0  0  0  0  0  0  0  0  0  0  0
  1  2  1  0
  2  3  1  0
  3  4  2  0
  4  5  1  0
  5  6  2  0
  6  7  1  0
  7  8  2  0
  8  9  1  0
  9 10  1  0
  9 11  1  0
 11 12  2  0
 12 13  1  0
 13 14  2  0
 13 15  1  0
 15 16  1  0
 16 17  1  1
 16 18  1  0
 18 19  1  0
 12  3  1  0
 11  6  1  0
M  END
>  <alias>  (1813) 
None

>  <rmsd(smina/fragmenstein)>  (1813) 
0.398

>  <smiles>  (1813) 
COc1ccc2ccn(C)c2c1C(=O)N[C@H](C)CCl

>  <gnina_score>  (1813) 
5.313

>  <inspiration_score>  (1813) 
None

>  <energy_score>  (1813) 
-8.990087

>  <distance_score>  (1813) 
1.64184

>  <gnina_score_min>  (1813) 
5.263

>  <inchikey>  (1813) 
BJNDEERDVGINNW-SECBINFHSA-N

>  <exports>  (1813) 
['/opt/xchem-fragalysis-2/maxwin/BulkDock/OUTPUTS/openbind_a71ev2a_c2_elabs_1LOUU54.sdf', '/opt/xchem-fragalysis-2/maxwin/BulkDock/OUTPUTS/openbind_a71ev2a_c2_elabs_1LSYIDY.sdf']

>  <name>  (1813) 
P585526

>  <ref_pdb>  (1813) 
A0566a

>  <subsites>  (1813) 
None

>  <HIPPO Pose ID>  (1813) 
585526

>  <ref_mols>  (1813) 
A0566a

>  <HIPPO Compound ID>  (1813) 
440633

>  <tags>  (1813) 
openbind_a71ev2a_c2_elabs,syndirella_product,openbind_a71ev2a_c2_elabs_fragonly_scored_top80percent,openbind_a71ev2a_c2_elabs_scored,BulkDock Fragalysis export,openbind_a71ev2a_c2_elabs_scored_top80percent,openbind_a71ev2a_c2_elabs_activefrags_only_scored_5.2plus,syndirella_placed

>  <smina_score_min>  (1813) 
-5.833

$$$$
P585527
     RDKit          3D

 19 20  0  0  0  0  0  0  0  0999 V2000
   10.1269    9.3325   22.5703 C   0  0  0  0  0  0  0  0  0  0  0  0
   10.1541   10.6918   23.0079 O   0  0  0  0  0  0  0  0  0  0  0  0
    9.1787   11.0592   23.8894 C   0  0  0  0  0  0  0  0  0  0  0  0
    8.3487   10.1075   24.4697 C   0  0  0  0  0  0  0  0  0  0  0  0
    7.3167   10.4463   25.3241 C   0  0  0  0  0  0  0  0  0  0  0  0
    7.0641   11.7933   25.5597 C   0  0  0  0  0  0  0  0  0  0  0  0
    6.0835   12.4366   26.3451 C   0  0  0  0  0  0  0  0  0  0  0  0
    6.2725   13.7839   26.2038 C   0  0  0  0  0  0  0  0  0  0  0  0
    7.3108   13.9787   25.3298 N   0  0  0  0  0  0  0  0  0  0  0  0
    7.5917   15.2807   24.7669 C   0  0  0  0  0  0  0  0  0  0  0  0
    7.8939   12.7686   24.9947 C   0  0  0  0  0  0  0  0  0  0  0  0
    9.0430   12.4155   24.2427 C   0  0  0  0  0  0  0  0  0  0  0  0
   10.0997   13.4488   23.9843 C   0  0  0  0  0  0  0  0  0  0  0  0
   10.2545   14.2739   24.7897 O   0  0  0  0  0  0  0  0  0  0  0  0
   10.7389   13.2757   22.6087 N   0  0  0  0  0  0  0  0  0  0  0  0
   11.6372   14.1292   21.8824 C   0  0  0  0  0  0  0  0  0  0  0  0
   10.9213   15.0282   20.8582 C   0  0  0  0  0  0  0  0  0  0  0  0
    9.1362   14.9926   20.9540 Cl  0  0  0  0  0  0  0  0  0  0  0  0
   11.4483   14.6601   19.2015 Cl  0  0  0  0  0  0  0  0  0  0  0  0
  1  2  1  0
  2  3  1  0
  3  4  2  0
  4  5  1  0
  5  6  2  0
  6  7  1  0
  7  8  2  0
  8  9  1  0
  9 10  1  0
  9 11  1  0
 11 12  2  0
 12 13  1  0
 13 14  2  0
 13 15  1  0
 15 16  1  0
 16 17  1  0
 17 18  1  0
 17 19  1  0
 12  3  1  0
 11  6  1  0
M  END
>  <alias>  (1814) 
None

>  <rmsd(smina/fragmenstein)>  (1814) 
0.475

>  <smiles>  (1814) 
COc1ccc2ccn(C)c2c1C(=O)NCC(Cl)Cl

>  <gnina_score>  (1814) 
5.253

>  <inspiration_score>  (1814) 
None

>  <energy_score>  (1814) 
-5.616664

>  <distance_score>  (1814) 
1.623871

>  <gnina_score_min>  (1814) 
5.29

>  <inchikey>  (1814) 
QOGNPWGXJQBLMW-UHFFFAOYSA-N

>  <exports>  (1814) 
['/opt/xchem-fragalysis-2/maxwin/BulkDock/OUTPUTS/openbind_a71ev2a_c2_elabs_1LOUU54.sdf', '/opt/xchem-fragalysis-2/maxwin/BulkDock/OUTPUTS/openbind_a71ev2a_c2_elabs_1LSYIDY.sdf']

>  <name>  (1814) 
P585527

>  <ref_pdb>  (1814) 
A0566a

>  <subsites>  (1814) 
None

>  <HIPPO Pose ID>  (1814) 
585527

>  <ref_mols>  (1814) 
A0566a

>  <HIPPO Compound ID>  (1814) 
440642

>  <tags>  (1814) 
openbind_a71ev2a_c2_elabs,syndirella_product,openbind_a71ev2a_c2_elabs_fragonly_scored_top80percent,openbind_a71ev2a_c2_elabs_scored,BulkDock Fragalysis export,openbind_a71ev2a_c2_elabs_scored_top80percent,openbind_a71ev2a_c2_elabs_activefrags_only_scored_5.2plus,syndirella_placed

>  <smina_score_min>  (1814) 
-5.973

$$$$
P585537
     RDKit          3D

 19 20  0  0  0  0  0  0  0  0999 V2000
   11.8815   12.8477   23.9739 C   0  0  0  0  0  0  0  0  0  0  0  0
   11.0592   12.2173   22.9868 O   0  0  0  0  0  0  0  0  0  0  0  0
    9.8235   11.8722   23.4594 C   0  0  0  0  0  0  0  0  0  0  0  0
    9.5429   10.5255   23.6017 C   0  0  0  0  0  0  0  0  0  0  0  0
    8.4463   10.1484   24.3701 C   0  0  0  0  0  0  0  0  0  0  0  0
    7.6178   11.1225   24.9570 C   0  0  0  0  0  0  0  0  0  0  0  0
    6.5510   11.0577   25.8855 C   0  0  0  0  0  0  0  0  0  0  0  0
    6.0770   12.3343   26.0604 C   0  0  0  0  0  0  0  0  0  0  0  0
    6.7704   13.1664   25.2174 N   0  0  0  0  0  0  0  0  0  0  0  0
    6.3846   14.5453   24.9921 C   0  0  0  0  0  0  0  0  0  0  0  0
    7.7991   12.4672   24.6191 C   0  0  0  0  0  0  0  0  0  0  0  0
    8.8778   12.8463   23.8131 C   0  0  0  0  0  0  0  0  0  0  0  0
    9.1554   14.2416   23.4761 C   0  0  0  0  0  0  0  0  0  0  0  0
    9.1258   15.0335   24.3305 O   0  0  0  0  0  0  0  0  0  0  0  0
    9.5482   14.3860   21.9947 N   0  0  0  0  0  0  0  0  0  0  0  0
   10.0787   15.5136   21.2733 C   0  0  2  0  0  0  0  0  0  0  0  0
    9.9510   15.4105   19.7661 C   0  0  0  0  0  0  0  0  0  0  0  0
   11.5064   15.6580   21.8004 C   0  0  0  0  0  0  0  0  0  0  0  0
   12.6412   14.5921   20.9138 S   0  0  0  0  0  0  0  0  0  0  0  0
  1  2  1  0
  2  3  1  0
  3  4  2  0
  4  5  1  0
  5  6  2  0
  6  7  1  0
  7  8  2  0
  8  9  1  0
  9 10  1  0
  9 11  1  0
 11 12  2  0
 12 13  1  0
 13 14  2  0
 13 15  1  0
 15 16  1  0
 16 17  1  6
 16 18  1  0
 18 19  1  0
 12  3  1  0
 11  6  1  0
M  END
>  <alias>  (1815) 
None

>  <rmsd(smina/fragmenstein)>  (1815) 
0.363

>  <smiles>  (1815) 
COc1ccc2ccn(C)c2c1C(=O)N[C@H](C)CS

>  <gnina_score>  (1815) 
5.265

>  <inspiration_score>  (1815) 
None

>  <energy_score>  (1815) 
-7.542152

>  <distance_score>  (1815) 
1.662707

>  <gnina_score_min>  (1815) 
5.263

>  <inchikey>  (1815) 
KORQCQFPZBKCCH-SECBINFHSA-N

>  <exports>  (1815) 
['/opt/xchem-fragalysis-2/maxwin/BulkDock/OUTPUTS/openbind_a71ev2a_c2_elabs_1LOUU54.sdf', '/opt/xchem-fragalysis-2/maxwin/BulkDock/OUTPUTS/openbind_a71ev2a_c2_elabs_1LSYIDY.sdf']

>  <name>  (1815) 
P585537

>  <ref_pdb>  (1815) 
A0566a

>  <subsites>  (1815) 
None

>  <HIPPO Pose ID>  (1815) 
585537

>  <ref_mols>  (1815) 
A0566a

>  <HIPPO Compound ID>  (1815) 
440669

>  <tags>  (1815) 
openbind_a71ev2a_c2_elabs,syndirella_product,openbind_a71ev2a_c2_elabs_fragonly_scored_top80percent,openbind_a71ev2a_c2_elabs_scored,BulkDock Fragalysis export,openbind_a71ev2a_c2_elabs_scored_top80percent,openbind_a71ev2a_c2_elabs_activefrags_only_scored_5.2plus,syndirella_placed

>  <smina_score_min>  (1815) 
-4.474

$$$$
P585546
     RDKit          3D

 19 20  0  0  0  0  0  0  0  0999 V2000
   10.1264    9.3296   22.5659 C   0  0  0  0  0  0  0  0  0  0  0  0
   10.1514   10.6871   23.0119 O   0  0  0  0  0  0  0  0  0  0  0  0
    9.1783   11.0514   23.8967 C   0  0  0  0  0  0  0  0  0  0  0  0
    8.3417   10.0998   24.4655 C   0  0  0  0  0  0  0  0  0  0  0  0
    7.3109   10.4357   25.3221 C   0  0  0  0  0  0  0  0  0  0  0  0
    7.0699   11.7811   25.5780 C   0  0  0  0  0  0  0  0  0  0  0  0
    6.0922   12.4189   26.3717 C   0  0  0  0  0  0  0  0  0  0  0  0
    6.2998   13.7662   26.2632 C   0  0  0  0  0  0  0  0  0  0  0  0
    7.3502   13.9675   25.4045 N   0  0  0  0  0  0  0  0  0  0  0  0
    7.6676   15.2822   24.8964 C   0  0  0  0  0  0  0  0  0  0  0  0
    7.9120   12.7581   25.0330 C   0  0  0  0  0  0  0  0  0  0  0  0
    9.0547   12.4043   24.2691 C   0  0  0  0  0  0  0  0  0  0  0  0
   10.1275   13.4239   24.0196 C   0  0  0  0  0  0  0  0  0  0  0  0
   10.3088   14.2321   24.8382 O   0  0  0  0  0  0  0  0  0  0  0  0
   10.7468   13.2630   22.6309 N   0  0  0  0  0  0  0  0  0  0  0  0
   11.6486   14.1083   21.9114 C   0  0  0  0  0  0  0  0  0  0  0  0
   10.9241   15.0877   20.9676 C   0  0  1  0  0  0  0  0  0  0  0  0
   11.3007   14.8663   19.5075 C   0  0  0  0  0  0  0  0  0  0  0  0
    9.0951   15.1172   21.0899 S   0  0  0  0  0  0  0  0  0  0  0  0
  1  2  1  0
  2  3  1  0
  3  4  2  0
  4  5  1  0
  5  6  2  0
  6  7  1  0
  7  8  2  0
  8  9  1  0
  9 10  1  0
  9 11  1  0
 11 12  2  0
 12 13  1  0
 13 14  2  0
 13 15  1  0
 15 16  1  0
 16 17  1  0
 17 18  1  6
 17 19  1  0
 12  3  1  0
 11  6  1  0
M  END
>  <alias>  (1816) 
None

>  <rmsd(smina/fragmenstein)>  (1816) 
0.448

>  <smiles>  (1816) 
COc1ccc2ccn(C)c2c1C(=O)NC[C@@H](C)S

>  <gnina_score>  (1816) 
5.241

>  <inspiration_score>  (1816) 
None

>  <energy_score>  (1816) 
-12.800647

>  <distance_score>  (1816) 
1.620805

>  <gnina_score_min>  (1816) 
5.226

>  <inchikey>  (1816) 
PODHFYFXWQIONN-SECBINFHSA-N

>  <exports>  (1816) 
['/opt/xchem-fragalysis-2/maxwin/BulkDock/OUTPUTS/openbind_a71ev2a_c2_elabs_1LOUU54.sdf', '/opt/xchem-fragalysis-2/maxwin/BulkDock/OUTPUTS/openbind_a71ev2a_c2_elabs_1LSYIDY.sdf']

>  <name>  (1816) 
P585546

>  <ref_pdb>  (1816) 
A0566a

>  <subsites>  (1816) 
None

>  <HIPPO Pose ID>  (1816) 
585546

>  <ref_mols>  (1816) 
A0566a

>  <HIPPO Compound ID>  (1816) 
440678

>  <tags>  (1816) 
openbind_a71ev2a_c2_elabs,syndirella_product,openbind_a71ev2a_c2_elabs_fragonly_scored_top80percent,openbind_a71ev2a_c2_elabs_scored,BulkDock Fragalysis export,openbind_a71ev2a_c2_elabs_scored_top80percent,openbind_a71ev2a_c2_elabs_activefrags_only_scored_5.2plus,syndirella_placed

>  <smina_score_min>  (1816) 
-5.715

$$$$
P585553
     RDKit          3D

 19 21  0  0  0  0  0  0  0  0999 V2000
    6.7341   14.8782   28.1193 C   0  0  0  0  0  0  0  0  0  0  0  0
    6.1883   14.6658   26.7160 C   0  0  0  0  0  0  0  0  0  0  0  0
    7.0243   13.6995   25.9451 C   0  0  0  0  0  0  0  0  0  0  0  0
    6.8839   12.3412   25.7522 C   0  0  0  0  0  0  0  0  0  0  0  0
    7.9380   11.9118   24.9067 C   0  0  0  0  0  0  0  0  0  0  0  0
    8.3154   10.6590   24.3943 C   0  0  0  0  0  0  0  0  0  0  0  0
    9.3975   10.5921   23.5256 C   0  0  0  0  0  0  0  0  0  0  0  0
    9.9353    9.0917   22.9299 Cl  0  0  0  0  0  0  0  0  0  0  0  0
   10.1113   11.7247   23.1924 C   0  0  0  0  0  0  0  0  0  0  0  0
    9.8182   12.9631   23.7584 C   0  0  0  0  0  0  0  0  0  0  0  0
   10.7745   14.0593   23.4816 C   0  0  0  0  0  0  0  0  0  0  0  0
   11.2691   14.6662   24.3623 O   0  0  0  0  0  0  0  0  0  0  0  0
   11.0151   14.1261   21.9968 N   0  0  0  0  0  0  0  0  0  0  0  0
   12.0211   14.9080   21.2007 C   0  0  0  0  0  0  0  0  0  0  0  0
   10.9592   14.9940   20.1021 C   0  0  0  0  0  0  0  0  0  0  0  0
   10.0762   15.1656   21.3117 C   0  0  1  0  0  0  0  0  0  0  0  0
    8.6212   14.7947   21.3406 C   0  0  0  0  0  0  0  0  0  0  0  0
    8.7102   13.0384   24.6020 C   0  0  0  0  0  0  0  0  0  0  0  0
    8.1419   14.1034   25.2561 N   0  0  0  0  0  0  0  0  0  0  0  0
  1  2  1  0
  2  3  1  0
  3  4  2  0
  4  5  1  0
  5  6  2  0
  6  7  1  0
  7  8  1  0
  7  9  2  0
  9 10  1  0
 10 11  1  0
 11 12  2  0
 11 13  1  0
 13 14  1  0
 14 15  1  0
 15 16  1  0
 16 17  1  6
 10 18  2  0
 18 19  1  0
 19  3  1  0
 18  5  1  0
 16 13  1  0
M  END
>  <alias>  (1817) 
None

>  <rmsd(smina/fragmenstein)>  (1817) 
0.394

>  <smiles>  (1817) 
CCc1cc2cc(Cl)cc(C(=O)N3CC[C@H]3C)c2[nH]1

>  <gnina_score>  (1817) 
5.71

>  <inspiration_score>  (1817) 
None

>  <energy_score>  (1817) 
-3.440508

>  <distance_score>  (1817) 
0.866782

>  <gnina_score_min>  (1817) 
5.734

>  <inchikey>  (1817) 
SHUCNGJDVBKWBE-SECBINFHSA-N

>  <exports>  (1817) 
['/opt/xchem-fragalysis-2/maxwin/BulkDock/OUTPUTS/openbind_a71ev2a_c2_elabs_1LOUU54.sdf', '/opt/xchem-fragalysis-2/maxwin/BulkDock/OUTPUTS/openbind_a71ev2a_c2_elabs_1LSYIDY.sdf']

>  <name>  (1817) 
P585553

>  <ref_pdb>  (1817) 
A0566a

>  <subsites>  (1817) 
None

>  <HIPPO Pose ID>  (1817) 
585553

>  <ref_mols>  (1817) 
A0566a

>  <HIPPO Compound ID>  (1817) 
440688

>  <tags>  (1817) 
openbind_a71ev2a_c2_elabs,syndirella_product,openbind_a71ev2a_c2_elabs_fragonly_scored_top80percent,BulkDock Fragalysis export,openbind_a71ev2a_c2_elabs_scored,openbind_a71ev2a_c2_elabs_scored_top80percent,openbind_a71ev2a_c2_elabs_activefrags_only_scored_5.2plus,openbind_a71ev2a_c2_elabs_activefrags_only_scored_5.5plus,syndirella_placed

>  <smina_score_min>  (1817) 
-6.509

$$$$
P585554
     RDKit          3D

 19 20  0  0  0  0  0  0  0  0999 V2000
    4.7076   14.8222   25.4922 C   0  0  0  0  0  0  0  0  0  0  0  0
    5.8317   14.3755   26.4143 C   0  0  0  0  0  0  0  0  0  0  0  0
    6.7466   13.4107   25.7369 C   0  0  0  0  0  0  0  0  0  0  0  0
    6.7488   12.0309   25.7145 C   0  0  0  0  0  0  0  0  0  0  0  0
    7.8064   11.6086   24.8686 C   0  0  0  0  0  0  0  0  0  0  0  0
    8.2882   10.3496   24.4640 C   0  0  0  0  0  0  0  0  0  0  0  0
    9.3764   10.2985   23.6019 C   0  0  0  0  0  0  0  0  0  0  0  0
   10.0990    8.8340   23.1338 Cl  0  0  0  0  0  0  0  0  0  0  0  0
    9.9834   11.4497   23.1610 C   0  0  0  0  0  0  0  0  0  0  0  0
    9.5356   12.7057   23.5407 C   0  0  0  0  0  0  0  0  0  0  0  0
   10.3158   13.8862   23.1260 C   0  0  0  0  0  0  0  0  0  0  0  0
   10.4658   14.7539   23.8887 O   0  0  0  0  0  0  0  0  0  0  0  0
   10.8947   13.6879   21.7135 N   0  0  0  0  0  0  0  0  0  0  0  0
   11.8556   14.4682   20.9776 C   0  0  2  0  0  0  0  0  0  0  0  0
   12.5707   15.4575   21.8519 C   0  0  0  0  0  0  0  0  0  0  0  0
   11.2192   14.9952   19.6917 C   0  0  0  0  0  0  0  0  0  0  0  0
   10.9534   13.9340   18.8784 F   0  0  0  0  0  0  0  0  0  0  0  0
    8.4419   12.7618   24.4036 C   0  0  0  0  0  0  0  0  0  0  0  0
    7.7850   13.8392   24.9478 N   0  0  0  0  0  0  0  0  0  0  0  0
  1  2  1  0
  2  3  1  0
  3  4  2  0
  4  5  1  0
  5  6  2  0
  6  7  1  0
  7  8  1  0
  7  9  2  0
  9 10  1  0
 10 11  1  0
 11 12  2  0
 11 13  1  0
 13 14  1  0
 14 15  1  1
 14 16  1  0
 16 17  1  0
 10 18  2  0
 18 19  1  0
 19  3  1  0
 18  5  1  0
M  END
>  <alias>  (1818) 
None

>  <rmsd(smina/fragmenstein)>  (1818) 
0.778

>  <smiles>  (1818) 
CCc1cc2cc(Cl)cc(C(=O)N[C@H](C)CF)c2[nH]1

>  <gnina_score>  (1818) 
5.478

>  <inspiration_score>  (1818) 
None

>  <energy_score>  (1818) 
-7.385102

>  <distance_score>  (1818) 
1.056998

>  <gnina_score_min>  (1818) 
5.644

>  <inchikey>  (1818) 
XIYHZPPUHQVBCA-MRVPVSSYSA-N

>  <exports>  (1818) 
['/opt/xchem-fragalysis-2/maxwin/BulkDock/OUTPUTS/openbind_a71ev2a_c2_elabs_1LOUU54.sdf', '/opt/xchem-fragalysis-2/maxwin/BulkDock/OUTPUTS/openbind_a71ev2a_c2_elabs_1LSYIDY.sdf']

>  <name>  (1818) 
P585554

>  <ref_pdb>  (1818) 
A0566a

>  <subsites>  (1818) 
None

>  <HIPPO Pose ID>  (1818) 
585554

>  <ref_mols>  (1818) 
A0566a

>  <HIPPO Compound ID>  (1818) 
440692

>  <tags>  (1818) 
openbind_a71ev2a_c2_elabs,syndirella_product,openbind_a71ev2a_c2_elabs_fragonly_scored_top80percent,BulkDock Fragalysis export,openbind_a71ev2a_c2_elabs_scored,openbind_a71ev2a_c2_elabs_scored_top80percent,openbind_a71ev2a_c2_elabs_activefrags_only_scored_5.2plus,openbind_a71ev2a_c2_elabs_activefrags_only_scored_5.5plus,syndirella_placed

>  <smina_score_min>  (1818) 
-6.06

$$$$
P585557
     RDKit          3D

 19 20  0  0  0  0  0  0  0  0999 V2000
    4.5104   14.5332   25.9821 C   0  0  0  0  0  0  0  0  0  0  0  0
    5.5985   13.9526   26.8720 C   0  0  0  0  0  0  0  0  0  0  0  0
    6.5525   13.1103   26.0934 C   0  0  0  0  0  0  0  0  0  0  0  0
    6.5861   11.7476   25.8802 C   0  0  0  0  0  0  0  0  0  0  0  0
    7.6769   11.4654   25.0199 C   0  0  0  0  0  0  0  0  0  0  0  0
    8.2100   10.2855   24.4732 C   0  0  0  0  0  0  0  0  0  0  0  0
    9.3100   10.3701   23.6269 C   0  0  0  0  0  0  0  0  0  0  0  0
   10.0363    8.9719   22.9865 Cl  0  0  0  0  0  0  0  0  0  0  0  0
    9.9170   11.5804   23.3691 C   0  0  0  0  0  0  0  0  0  0  0  0
    9.4477   12.7544   23.9572 C   0  0  0  0  0  0  0  0  0  0  0  0
   10.2759   13.9721   23.8907 C   0  0  0  0  0  0  0  0  0  0  0  0
   10.4367   14.6085   24.8510 O   0  0  0  0  0  0  0  0  0  0  0  0
   10.8792   14.1161   22.4924 N   0  0  0  0  0  0  0  0  0  0  0  0
   11.8780   15.0117   21.9992 C   0  0  0  0  0  0  0  0  0  0  0  0
   12.3564   14.5597   20.6391 C   0  0  0  0  0  0  0  0  0  0  0  0
   11.3791   14.9272   19.6142 C   0  0  0  0  0  0  0  0  0  0  0  0
   10.5866   15.2826   18.8457 N   0  0  0  0  0  0  0  0  0  0  0  0
    8.3048   12.6790   24.7487 C   0  0  0  0  0  0  0  0  0  0  0  0
    7.6106   13.6604   25.4148 N   0  0  0  0  0  0  0  0  0  0  0  0
  1  2  1  0
  2  3  1  0
  3  4  2  0
  4  5  1  0
  5  6  2  0
  6  7  1  0
  7  8  1  0
  7  9  2  0
  9 10  1  0
 10 11  1  0
 11 12  2  0
 11 13  1  0
 13 14  1  0
 14 15  1  0
 15 16  1  0
 16 17  3  0
 10 18  2  0
 18 19  1  0
 19  3  1  0
 18  5  1  0
M  END
>  <alias>  (1819) 
None

>  <rmsd(smina/fragmenstein)>  (1819) 
0.803

>  <smiles>  (1819) 
CCc1cc2cc(Cl)cc(C(=O)NCCC#N)c2[nH]1

>  <gnina_score>  (1819) 
5.69

>  <inspiration_score>  (1819) 
None

>  <energy_score>  (1819) 
-2.60055

>  <distance_score>  (1819) 
0.967793

>  <gnina_score_min>  (1819) 
5.635

>  <inchikey>  (1819) 
XMVOLSVJTICAAG-UHFFFAOYSA-N

>  <exports>  (1819) 
['/opt/xchem-fragalysis-2/maxwin/BulkDock/OUTPUTS/openbind_a71ev2a_c2_elabs_1LOUU54.sdf', '/opt/xchem-fragalysis-2/maxwin/BulkDock/OUTPUTS/openbind_a71ev2a_c2_elabs_1LSYIDY.sdf']

>  <name>  (1819) 
P585557

>  <ref_pdb>  (1819) 
A0566a

>  <subsites>  (1819) 
None

>  <HIPPO Pose ID>  (1819) 
585557

>  <ref_mols>  (1819) 
A0566a

>  <HIPPO Compound ID>  (1819) 
440698

>  <tags>  (1819) 
openbind_a71ev2a_c2_elabs,syndirella_product,openbind_a71ev2a_c2_elabs_fragonly_scored_top80percent,BulkDock Fragalysis export,openbind_a71ev2a_c2_elabs_scored,openbind_a71ev2a_c2_elabs_scored_top80percent,openbind_a71ev2a_c2_elabs_activefrags_only_scored_5.2plus,openbind_a71ev2a_c2_elabs_activefrags_only_scored_5.5plus,syndirella_placed

>  <smina_score_min>  (1819) 
-5.688

$$$$
P585559
     RDKit          3D

 19 20  0  0  0  0  0  0  0  0999 V2000
    4.5367   14.5035   25.7068 C   0  0  0  0  0  0  0  0  0  0  0  0
    5.6644   14.0001   26.5942 C   0  0  0  0  0  0  0  0  0  0  0  0
    6.6029   13.1132   25.8471 C   0  0  0  0  0  0  0  0  0  0  0  0
    6.7003   11.7376   25.7923 C   0  0  0  0  0  0  0  0  0  0  0  0
    7.7552   11.4088   24.9024 C   0  0  0  0  0  0  0  0  0  0  0  0
    8.3182   10.2041   24.4529 C   0  0  0  0  0  0  0  0  0  0  0  0
    9.3973   10.2510   23.5737 C   0  0  0  0  0  0  0  0  0  0  0  0
   10.1828    8.8258   23.0823 Cl  0  0  0  0  0  0  0  0  0  0  0  0
    9.9165   11.4511   23.1368 C   0  0  0  0  0  0  0  0  0  0  0  0
    9.3541   12.6530   23.5350 C   0  0  0  0  0  0  0  0  0  0  0  0
    9.9446   13.9348   23.1271 C   0  0  0  0  0  0  0  0  0  0  0  0
    9.9670   14.7769   23.9336 O   0  0  0  0  0  0  0  0  0  0  0  0
   10.5144   13.9072   21.6952 N   0  0  0  0  0  0  0  0  0  0  0  0
   11.1515   14.9475   20.9166 C   0  0  0  0  0  0  0  0  0  0  0  0
   10.0880   15.9842   20.5355 C   0  0  0  0  0  0  0  0  0  0  0  0
   12.3153   15.4345   21.7849 C   0  0  0  0  0  0  0  0  0  0  0  0
   11.7172   14.3908   19.6084 C   0  0  0  0  0  0  0  0  0  0  0  0
    8.2844   12.6071   24.4343 C   0  0  0  0  0  0  0  0  0  0  0  0
    7.5693   13.6265   25.0194 N   0  0  0  0  0  0  0  0  0  0  0  0
  1  2  1  0
  2  3  1  0
  3  4  2  0
  4  5  1  0
  5  6  2  0
  6  7  1  0
  7  8  1  0
  7  9  2  0
  9 10  1  0
 10 11  1  0
 11 12  2  0
 11 13  1  0
 13 14  1  0
 14 15  1  0
 14 16  1  0
 14 17  1  0
 10 18  2  0
 18 19  1  0
 19  3  1  0
 18  5  1  0
M  END
>  <alias>  (1820) 
None

>  <rmsd(smina/fragmenstein)>  (1820) 
0.194

>  <smiles>  (1820) 
CCc1cc2cc(Cl)cc(C(=O)NC(C)(C)C)c2[nH]1

>  <gnina_score>  (1820) 
5.678

>  <inspiration_score>  (1820) 
None

>  <energy_score>  (1820) 
-4.022319

>  <distance_score>  (1820) 
1.186122

>  <gnina_score_min>  (1820) 
5.735

>  <inchikey>  (1820) 
BOUCQHROUZSCRO-UHFFFAOYSA-N

>  <exports>  (1820) 
['/opt/xchem-fragalysis-2/maxwin/BulkDock/OUTPUTS/openbind_a71ev2a_c2_elabs_1LOUU54.sdf', '/opt/xchem-fragalysis-2/maxwin/BulkDock/OUTPUTS/openbind_a71ev2a_c2_elabs_1LSYIDY.sdf']

>  <name>  (1820) 
P585559

>  <ref_pdb>  (1820) 
A0566a

>  <subsites>  (1820) 
None

>  <HIPPO Pose ID>  (1820) 
585559

>  <ref_mols>  (1820) 
A0566a

>  <HIPPO Compound ID>  (1820) 
440702

>  <tags>  (1820) 
openbind_a71ev2a_c2_elabs,syndirella_product,openbind_a71ev2a_c2_elabs_fragonly_scored_top80percent,BulkDock Fragalysis export,openbind_a71ev2a_c2_elabs_scored,openbind_a71ev2a_c2_elabs_scored_top80percent,openbind_a71ev2a_c2_elabs_activefrags_only_scored_5.2plus,openbind_a71ev2a_c2_elabs_activefrags_only_scored_5.5plus,syndirella_placed

>  <smina_score_min>  (1820) 
-5.733

$$$$
P585561
     RDKit          3D

 19 20  0  0  0  0  0  0  0  0999 V2000
    6.3229   14.3094   28.0744 C   0  0  0  0  0  0  0  0  0  0  0  0
    5.7774   13.9940   26.6904 C   0  0  0  0  0  0  0  0  0  0  0  0
    6.6932   13.0894   25.9375 C   0  0  0  0  0  0  0  0  0  0  0  0
    6.7016   11.7149   25.8116 C   0  0  0  0  0  0  0  0  0  0  0  0
    7.7765   11.3594   24.9575 C   0  0  0  0  0  0  0  0  0  0  0  0
    8.2837   10.1400   24.4749 C   0  0  0  0  0  0  0  0  0  0  0  0
    9.3859   10.1598   23.6280 C   0  0  0  0  0  0  0  0  0  0  0  0
   10.1518    8.7454   23.0875 Cl  0  0  0  0  0  0  0  0  0  0  0  0
    9.9898   11.3412   23.2783 C   0  0  0  0  0  0  0  0  0  0  0  0
    9.5416   12.5516   23.7730 C   0  0  0  0  0  0  0  0  0  0  0  0
   10.2820   13.7816   23.4630 C   0  0  0  0  0  0  0  0  0  0  0  0
   10.2943   14.6437   24.2481 O   0  0  0  0  0  0  0  0  0  0  0  0
   10.8532   13.7246   22.0332 N   0  0  0  0  0  0  0  0  0  0  0  0
   11.4705   14.7381   21.2400 C   0  0  2  0  0  0  0  0  0  0  0  0
   12.6090   15.3493   22.0223 C   0  0  0  0  0  0  0  0  0  0  0  0
   10.4260   15.7534   20.7397 C   0  0  0  0  0  0  0  0  0  0  0  0
    8.6905   15.3062   21.0612 S   0  0  0  0  0  0  0  0  0  0  0  0
    8.4162   12.5424   24.5957 C   0  0  0  0  0  0  0  0  0  0  0  0
    7.7317   13.5779   25.1854 N   0  0  0  0  0  0  0  0  0  0  0  0
  1  2  1  0
  2  3  1  0
  3  4  2  0
  4  5  1  0
  5  6  2  0
  6  7  1  0
  7  8  1  0
  7  9  2  0
  9 10  1  0
 10 11  1  0
 11 12  2  0
 11 13  1  0
 13 14  1  0
 14 15  1  1
 14 16  1  0
 16 17  1  0
 10 18  2  0
 18 19  1  0
 19  3  1  0
 18  5  1  0
M  END
>  <alias>  (1821) 
None

>  <rmsd(smina/fragmenstein)>  (1821) 
0.238

>  <smiles>  (1821) 
CCc1cc2cc(Cl)cc(C(=O)N[C@H](C)CS)c2[nH]1

>  <gnina_score>  (1821) 
5.796

>  <inspiration_score>  (1821) 
None

>  <energy_score>  (1821) 
-3.505063

>  <distance_score>  (1821) 
1.015789

>  <gnina_score_min>  (1821) 
5.78

>  <inchikey>  (1821) 
XMRYZLBWVKBUGS-MRVPVSSYSA-N

>  <exports>  (1821) 
['/opt/xchem-fragalysis-2/maxwin/BulkDock/OUTPUTS/openbind_a71ev2a_c2_elabs_1LOUU54.sdf', '/opt/xchem-fragalysis-2/maxwin/BulkDock/OUTPUTS/openbind_a71ev2a_c2_elabs_1LSYIDY.sdf']

>  <name>  (1821) 
P585561

>  <ref_pdb>  (1821) 
A0566a

>  <subsites>  (1821) 
None

>  <HIPPO Pose ID>  (1821) 
585561

>  <ref_mols>  (1821) 
A0566a

>  <HIPPO Compound ID>  (1821) 
440707

>  <tags>  (1821) 
openbind_a71ev2a_c2_elabs,syndirella_product,openbind_a71ev2a_c2_elabs_fragonly_scored_top80percent,BulkDock Fragalysis export,openbind_a71ev2a_c2_elabs_scored,openbind_a71ev2a_c2_elabs_scored_top80percent,openbind_a71ev2a_c2_elabs_activefrags_only_scored_5.2plus,openbind_a71ev2a_c2_elabs_activefrags_only_scored_5.5plus,syndirella_placed

>  <smina_score_min>  (1821) 
-5.403

$$$$
P585563
     RDKit          3D

 19 20  0  0  0  0  0  0  0  0999 V2000
    4.7499   14.7992   25.5222 C   0  0  0  0  0  0  0  0  0  0  0  0
    5.8728   14.3348   26.4369 C   0  0  0  0  0  0  0  0  0  0  0  0
    6.7919   13.3883   25.7404 C   0  0  0  0  0  0  0  0  0  0  0  0
    6.7965   12.0098   25.6845 C   0  0  0  0  0  0  0  0  0  0  0  0
    7.8600   11.6113   24.8345 C   0  0  0  0  0  0  0  0  0  0  0  0
    8.3468   10.3675   24.4023 C   0  0  0  0  0  0  0  0  0  0  0  0
    9.4346   10.3418   23.5359 C   0  0  0  0  0  0  0  0  0  0  0  0
   10.1250    8.8678   23.0483 Cl  0  0  0  0  0  0  0  0  0  0  0  0
   10.0447   11.5050   23.1147 C   0  0  0  0  0  0  0  0  0  0  0  0
    9.6009   12.7451   23.5389 C   0  0  0  0  0  0  0  0  0  0  0  0
   10.3496   13.9631   23.1736 C   0  0  0  0  0  0  0  0  0  0  0  0
   10.4285   14.7990   23.9804 O   0  0  0  0  0  0  0  0  0  0  0  0
   10.8708   13.9207   21.7286 N   0  0  0  0  0  0  0  0  0  0  0  0
   11.6827   14.8597   20.9985 C   0  0  0  0  0  0  0  0  0  0  0  0
   11.1200   15.1017   19.5925 C   0  0  2  0  0  0  0  0  0  0  0  0
    9.7883   15.8241   19.6351 C   0  0  0  0  0  0  0  0  0  0  0  0
   10.9824   13.9149   18.9478 F   0  0  0  0  0  0  0  0  0  0  0  0
    8.4983   12.7729   24.4001 C   0  0  0  0  0  0  0  0  0  0  0  0
    7.8354   13.8353   24.9690 N   0  0  0  0  0  0  0  0  0  0  0  0
  1  2  1  0
  2  3  1  0
  3  4  2  0
  4  5  1  0
  5  6  2  0
  6  7  1  0
  7  8  1  0
  7  9  2  0
  9 10  1  0
 10 11  1  0
 11 12  2  0
 11 13  1  0
 13 14  1  0
 14 15  1  0
 15 16  1  1
 15 17  1  0
 10 18  2  0
 18 19  1  0
 19  3  1  0
 18  5  1  0
M  END
>  <alias>  (1822) 
None

>  <rmsd(smina/fragmenstein)>  (1822) 
0.502

>  <smiles>  (1822) 
CCc1cc2cc(Cl)cc(C(=O)NC[C@H](C)F)c2[nH]1

>  <gnina_score>  (1822) 
5.57

>  <inspiration_score>  (1822) 
None

>  <energy_score>  (1822) 
-4.9402

>  <distance_score>  (1822) 
1.000869

>  <gnina_score_min>  (1822) 
5.631

>  <inchikey>  (1822) 
ZZOLNJXOERMIOX-QMMMGPOBSA-N

>  <exports>  (1822) 
['/opt/xchem-fragalysis-2/maxwin/BulkDock/OUTPUTS/openbind_a71ev2a_c2_elabs_1LOUU54.sdf', '/opt/xchem-fragalysis-2/maxwin/BulkDock/OUTPUTS/openbind_a71ev2a_c2_elabs_1LSYIDY.sdf']

>  <name>  (1822) 
P585563

>  <ref_pdb>  (1822) 
A0566a

>  <subsites>  (1822) 
None

>  <HIPPO Pose ID>  (1822) 
585563

>  <ref_mols>  (1822) 
A0566a

>  <HIPPO Compound ID>  (1822) 
440711

>  <tags>  (1822) 
openbind_a71ev2a_c2_elabs,syndirella_product,openbind_a71ev2a_c2_elabs_fragonly_scored_top80percent,BulkDock Fragalysis export,openbind_a71ev2a_c2_elabs_scored,openbind_a71ev2a_c2_elabs_scored_top80percent,openbind_a71ev2a_c2_elabs_activefrags_only_scored_5.2plus,openbind_a71ev2a_c2_elabs_activefrags_only_scored_5.5plus,syndirella_placed

>  <smina_score_min>  (1822) 
-5.72

$$$$
P585565
     RDKit          3D

 19 20  0  0  0  0  0  0  0  0999 V2000
    6.3236   14.3020   28.0740 C   0  0  0  0  0  0  0  0  0  0  0  0
    5.7349   13.9636   26.7133 C   0  0  0  0  0  0  0  0  0  0  0  0
    6.6575   13.1011   25.9203 C   0  0  0  0  0  0  0  0  0  0  0  0
    6.7299   11.7289   25.8001 C   0  0  0  0  0  0  0  0  0  0  0  0
    7.7880   11.4246   24.9068 C   0  0  0  0  0  0  0  0  0  0  0  0
    8.3395   10.2324   24.4179 C   0  0  0  0  0  0  0  0  0  0  0  0
    9.4201   10.2991   23.5419 C   0  0  0  0  0  0  0  0  0  0  0  0
   10.1683    8.8699   23.0084 Cl  0  0  0  0  0  0  0  0  0  0  0  0
    9.9602   11.5087   23.1495 C   0  0  0  0  0  0  0  0  0  0  0  0
    9.4247   12.7006   23.6107 C   0  0  0  0  0  0  0  0  0  0  0  0
   10.0366   13.9943   23.2706 C   0  0  0  0  0  0  0  0  0  0  0  0
   10.0731   14.7936   24.1174 O   0  0  0  0  0  0  0  0  0  0  0  0
   10.4871   14.0755   21.8034 N   0  0  0  0  0  0  0  0  0  0  0  0
   11.1593   15.1167   21.0961 C   0  0  0  0  0  0  0  0  0  0  0  0
   10.1393   15.8120   20.2546 C   0  0  0  0  0  0  0  0  0  0  0  0
   10.1089   15.8901   18.9197 C   0  0  0  0  0  0  0  0  0  0  0  0
   11.2028   15.1245   17.8510 Cl  0  0  0  0  0  0  0  0  0  0  0  0
    8.3417   12.6328   24.4957 C   0  0  0  0  0  0  0  0  0  0  0  0
    7.6343   13.6355   25.1187 N   0  0  0  0  0  0  0  0  0  0  0  0
  1  2  1  0
  2  3  1  0
  3  4  2  0
  4  5  1  0
  5  6  2  0
  6  7  1  0
  7  8  1  0
  7  9  2  0
  9 10  1  0
 10 11  1  0
 11 12  2  0
 11 13  1  0
 13 14  1  0
 14 15  1  0
 15 16  2  0
 16 17  1  0
 10 18  2  0
 18 19  1  0
 19  3  1  0
 18  5  1  0
M  END
>  <alias>  (1823) 
None

>  <rmsd(smina/fragmenstein)>  (1823) 
0.444

>  <smiles>  (1823) 
CCc1cc2cc(Cl)cc(C(=O)NC/C=C\Cl)c2[nH]1

>  <gnina_score>  (1823) 
5.444

>  <inspiration_score>  (1823) 
None

>  <energy_score>  (1823) 
-11.451717

>  <distance_score>  (1823) 
1.108836

>  <gnina_score_min>  (1823) 
5.595

>  <inchikey>  (1823) 
GBMHRWLIZIMVFW-ARJAWSKDSA-N

>  <exports>  (1823) 
['/opt/xchem-fragalysis-2/maxwin/BulkDock/OUTPUTS/openbind_a71ev2a_c2_elabs_1LOUU54.sdf', '/opt/xchem-fragalysis-2/maxwin/BulkDock/OUTPUTS/openbind_a71ev2a_c2_elabs_1LSYIDY.sdf']

>  <name>  (1823) 
P585565

>  <ref_pdb>  (1823) 
A0566a

>  <subsites>  (1823) 
None

>  <HIPPO Pose ID>  (1823) 
585565

>  <ref_mols>  (1823) 
A0566a

>  <HIPPO Compound ID>  (1823) 
440712

>  <tags>  (1823) 
openbind_a71ev2a_c2_elabs,syndirella_product,openbind_a71ev2a_c2_elabs_fragonly_scored_top80percent,BulkDock Fragalysis export,openbind_a71ev2a_c2_elabs_scored,openbind_a71ev2a_c2_elabs_scored_top80percent,openbind_a71ev2a_c2_elabs_activefrags_only_scored_5.2plus,openbind_a71ev2a_c2_elabs_activefrags_only_scored_5.5plus,syndirella_placed

>  <smina_score_min>  (1823) 
-5.38

$$$$
P585566
     RDKit          3D

 19 20  0  0  0  0  0  0  0  0999 V2000
    6.3547   14.3047   28.1335 C   0  0  0  0  0  0  0  0  0  0  0  0
    5.7739   14.0174   26.7577 C   0  0  0  0  0  0  0  0  0  0  0  0
    6.6607   13.1129   25.9702 C   0  0  0  0  0  0  0  0  0  0  0  0
    6.6545   11.7397   25.8328 C   0  0  0  0  0  0  0  0  0  0  0  0
    7.7093   11.3815   24.9550 C   0  0  0  0  0  0  0  0  0  0  0  0
    8.2185   10.1554   24.4861 C   0  0  0  0  0  0  0  0  0  0  0  0
    9.3070   10.1662   23.6241 C   0  0  0  0  0  0  0  0  0  0  0  0
   10.1115    8.7588   23.1171 Cl  0  0  0  0  0  0  0  0  0  0  0  0
    9.8904   11.3461   23.2450 C   0  0  0  0  0  0  0  0  0  0  0  0
    9.4446   12.5680   23.7286 C   0  0  0  0  0  0  0  0  0  0  0  0
   10.3340   13.7257   23.5641 C   0  0  0  0  0  0  0  0  0  0  0  0
   10.4236   14.4933   24.4379 O   0  0  0  0  0  0  0  0  0  0  0  0
   11.0924   13.6427   22.2265 N   0  0  0  0  0  0  0  0  0  0  0  0
   12.1718   14.4184   21.7284 C   0  0  2  0  0  0  0  0  0  0  0  0
   12.0050   15.8497   22.0875 C   0  0  0  0  0  0  0  0  0  0  0  0
   12.3865   14.2265   20.2362 C   0  0  0  0  0  0  0  0  0  0  0  0
   11.2361   14.7030   19.3667 C   0  0  0  0  0  0  0  0  0  0  0  0
    8.3363   12.5661   24.5708 C   0  0  0  0  0  0  0  0  0  0  0  0
    7.6890   13.5998   25.2030 N   0  0  0  0  0  0  0  0  0  0  0  0
  1  2  1  0
  2  3  1  0
  3  4  2  0
  4  5  1  0
  5  6  2  0
  6  7  1  0
  7  8  1  0
  7  9  2  0
  9 10  1  0
 10 11  1  0
 11 12  2  0
 11 13  1  0
 13 14  1  0
 14 15  1  6
 14 16  1  0
 16 17  1  0
 10 18  2  0
 18 19  1  0
 19  3  1  0
 18  5  1  0
M  END
>  <alias>  (1824) 
None

>  <rmsd(smina/fragmenstein)>  (1824) 
0.941

>  <smiles>  (1824) 
CCc1cc2cc(Cl)cc(C(=O)N[C@H](C)CC)c2[nH]1

>  <gnina_score>  (1824) 
5.413

>  <inspiration_score>  (1824) 
None

>  <energy_score>  (1824) 
-3.611898

>  <distance_score>  (1824) 
0.967319

>  <gnina_score_min>  (1824) 
5.657

>  <inchikey>  (1824) 
QHKQYGMYYLAZMI-SECBINFHSA-N

>  <exports>  (1824) 
['/opt/xchem-fragalysis-2/maxwin/BulkDock/OUTPUTS/openbind_a71ev2a_c2_elabs_1LOUU54.sdf', '/opt/xchem-fragalysis-2/maxwin/BulkDock/OUTPUTS/openbind_a71ev2a_c2_elabs_1LSYIDY.sdf']

>  <name>  (1824) 
P585566

>  <ref_pdb>  (1824) 
A0566a

>  <subsites>  (1824) 
None

>  <HIPPO Pose ID>  (1824) 
585566

>  <ref_mols>  (1824) 
A0566a

>  <HIPPO Compound ID>  (1824) 
440716

>  <tags>  (1824) 
openbind_a71ev2a_c2_elabs,syndirella_product,openbind_a71ev2a_c2_elabs_fragonly_scored_top80percent,BulkDock Fragalysis export,openbind_a71ev2a_c2_elabs_scored,openbind_a71ev2a_c2_elabs_scored_top80percent,openbind_a71ev2a_c2_elabs_activefrags_only_scored_5.2plus,openbind_a71ev2a_c2_elabs_activefrags_only_scored_5.5plus,syndirella_placed

>  <smina_score_min>  (1824) 
-5.762

$$$$
P585568
     RDKit          3D

 19 21  0  0  0  0  0  0  0  0999 V2000
    4.4305   14.3368   26.1364 C   0  0  0  0  0  0  0  0  0  0  0  0
    5.4886   13.6653   26.9981 C   0  0  0  0  0  0  0  0  0  0  0  0
    6.4601   12.8862   26.1763 C   0  0  0  0  0  0  0  0  0  0  0  0
    6.5753   11.5280   25.9579 C   0  0  0  0  0  0  0  0  0  0  0  0
    7.6564   11.3177   25.0654 C   0  0  0  0  0  0  0  0  0  0  0  0
    8.2488   10.1843   24.4864 C   0  0  0  0  0  0  0  0  0  0  0  0
    9.3268   10.3440   23.6158 C   0  0  0  0  0  0  0  0  0  0  0  0
   10.0898    8.9793   22.9480 Cl  0  0  0  0  0  0  0  0  0  0  0  0
    9.8454   11.5926   23.3356 C   0  0  0  0  0  0  0  0  0  0  0  0
    9.2851   12.7191   23.9302 C   0  0  0  0  0  0  0  0  0  0  0  0
    9.8873   14.0368   23.7299 C   0  0  0  0  0  0  0  0  0  0  0  0
   10.0772   14.7316   24.6467 O   0  0  0  0  0  0  0  0  0  0  0  0
   10.1817   14.2536   22.2356 N   0  0  0  0  0  0  0  0  0  0  0  0
   10.8259   15.2793   21.5950 N   0  0  0  0  0  0  0  0  0  0  0  0
   12.2871   15.1913   21.8508 C   0  0  0  0  0  0  0  0  0  0  0  0
   12.4324   14.3197   20.6092 C   0  0  0  0  0  0  0  0  0  0  0  0
   11.0837   14.8974   20.1808 C   0  0  0  0  0  0  0  0  0  0  0  0
    8.1887   12.5670   24.7739 C   0  0  0  0  0  0  0  0  0  0  0  0
    7.4508   13.5045   25.4562 N   0  0  0  0  0  0  0  0  0  0  0  0
  1  2  1  0
  2  3  1  0
  3  4  2  0
  4  5  1  0
  5  6  2  0
  6  7  1  0
  7  8  1  0
  7  9  2  0
  9 10  1  0
 10 11  1  0
 11 12  2  0
 11 13  1  0
 13 14  1  0
 14 15  1  0
 15 16  1  0
 16 17  1  0
 10 18  2  0
 18 19  1  0
 19  3  1  0
 18  5  1  0
 17 14  1  0
M  END
>  <alias>  (1825) 
None

>  <rmsd(smina/fragmenstein)>  (1825) 
0.267

>  <smiles>  (1825) 
CCc1cc2cc(Cl)cc(C(=O)NN3CCC3)c2[nH]1

>  <gnina_score>  (1825) 
5.718

>  <inspiration_score>  (1825) 
None

>  <energy_score>  (1825) 
-9.874

>  <distance_score>  (1825) 
1.195612

>  <gnina_score_min>  (1825) 
5.774

>  <inchikey>  (1825) 
UGXZYBARWRIFHI-UHFFFAOYSA-N

>  <exports>  (1825) 
['/opt/xchem-fragalysis-2/maxwin/BulkDock/OUTPUTS/openbind_a71ev2a_c2_elabs_1LOUU54.sdf', '/opt/xchem-fragalysis-2/maxwin/BulkDock/OUTPUTS/openbind_a71ev2a_c2_elabs_1LSYIDY.sdf']

>  <name>  (1825) 
P585568

>  <ref_pdb>  (1825) 
A0566a

>  <subsites>  (1825) 
None

>  <HIPPO Pose ID>  (1825) 
585568

>  <ref_mols>  (1825) 
A0566a

>  <HIPPO Compound ID>  (1825) 
440718

>  <tags>  (1825) 
openbind_a71ev2a_c2_elabs,syndirella_product,openbind_a71ev2a_c2_elabs_fragonly_scored_top80percent,BulkDock Fragalysis export,openbind_a71ev2a_c2_elabs_scored,openbind_a71ev2a_c2_elabs_scored_top80percent,openbind_a71ev2a_c2_elabs_activefrags_only_scored_5.2plus,openbind_a71ev2a_c2_elabs_activefrags_only_scored_5.5plus,syndirella_placed

>  <smina_score_min>  (1825) 
-5.743

$$$$
P585569
     RDKit          3D

 19 20  0  0  0  0  0  0  0  0999 V2000
    6.3532   14.3253   28.0824 C   0  0  0  0  0  0  0  0  0  0  0  0
    5.7816   14.0129   26.7083 C   0  0  0  0  0  0  0  0  0  0  0  0
    6.6944   13.1292   25.9270 C   0  0  0  0  0  0  0  0  0  0  0  0
    6.7267   11.7563   25.7953 C   0  0  0  0  0  0  0  0  0  0  0  0
    7.7932   11.4262   24.9210 C   0  0  0  0  0  0  0  0  0  0  0  0
    8.3178   10.2194   24.4340 C   0  0  0  0  0  0  0  0  0  0  0  0
    9.4096   10.2613   23.5731 C   0  0  0  0  0  0  0  0  0  0  0  0
   10.1527    8.8320   23.0351 Cl  0  0  0  0  0  0  0  0  0  0  0  0
    9.9880   11.4571   23.2037 C   0  0  0  0  0  0  0  0  0  0  0  0
    9.5017   12.6626   23.6822 C   0  0  0  0  0  0  0  0  0  0  0  0
   10.1812   13.9318   23.3667 C   0  0  0  0  0  0  0  0  0  0  0  0
   10.1328   14.7784   24.1651 O   0  0  0  0  0  0  0  0  0  0  0  0
   10.7784   13.9305   21.9504 N   0  0  0  0  0  0  0  0  0  0  0  0
   11.5241   14.9374   21.2524 C   0  0  0  0  0  0  0  0  0  0  0  0
   10.9048   15.1320   19.8753 C   0  0  0  0  0  0  0  0  0  0  0  0
    9.5662   15.8506   19.9327 C   0  0  0  0  0  0  0  0  0  0  0  0
    9.6715   17.1187   20.5465 O   0  0  0  0  0  0  0  0  0  0  0  0
    8.3957   12.6214   24.5376 C   0  0  0  0  0  0  0  0  0  0  0  0
    7.7058   13.6400   25.1540 N   0  0  0  0  0  0  0  0  0  0  0  0
  1  2  1  0
  2  3  1  0
  3  4  2  0
  4  5  1  0
  5  6  2  0
  6  7  1  0
  7  8  1  0
  7  9  2  0
  9 10  1  0
 10 11  1  0
 11 12  2  0
 11 13  1  0
 13 14  1  0
 14 15  1  0
 15 16  1  0
 16 17  1  0
 10 18  2  0
 18 19  1  0
 19  3  1  0
 18  5  1  0
M  END
>  <alias>  (1826) 
None

>  <rmsd(smina/fragmenstein)>  (1826) 
0.442

>  <smiles>  (1826) 
CCc1cc2cc(Cl)cc(C(=O)NCCCO)c2[nH]1

>  <gnina_score>  (1826) 
5.427

>  <inspiration_score>  (1826) 
None

>  <energy_score>  (1826) 
-4.435906

>  <distance_score>  (1826) 
1.033064

>  <gnina_score_min>  (1826) 
5.422

>  <inchikey>  (1826) 
UKXQGDSAOLWSOY-UHFFFAOYSA-N

>  <exports>  (1826) 
['/opt/xchem-fragalysis-2/maxwin/BulkDock/OUTPUTS/openbind_a71ev2a_c2_elabs_1LOUU54.sdf', '/opt/xchem-fragalysis-2/maxwin/BulkDock/OUTPUTS/openbind_a71ev2a_c2_elabs_1LSYIDY.sdf']

>  <name>  (1826) 
P585569

>  <ref_pdb>  (1826) 
A0566a

>  <subsites>  (1826) 
None

>  <HIPPO Pose ID>  (1826) 
585569

>  <ref_mols>  (1826) 
A0566a

>  <HIPPO Compound ID>  (1826) 
440720

>  <tags>  (1826) 
openbind_a71ev2a_c2_elabs,syndirella_product,openbind_a71ev2a_c2_elabs_fragonly_scored_top80percent,openbind_a71ev2a_c2_elabs_scored,BulkDock Fragalysis export,openbind_a71ev2a_c2_elabs_scored_top80percent,openbind_a71ev2a_c2_elabs_activefrags_only_scored_5.2plus,syndirella_placed

>  <smina_score_min>  (1826) 
-5.623

$$$$
P585570
     RDKit          3D

 19 20  0  0  0  0  0  0  0  0999 V2000
    6.3230   14.3574   27.9971 C   0  0  0  0  0  0  0  0  0  0  0  0
    5.7320   13.9736   26.6495 C   0  0  0  0  0  0  0  0  0  0  0  0
    6.6589   13.0983   25.8781 C   0  0  0  0  0  0  0  0  0  0  0  0
    6.7437   11.7238   25.7853 C   0  0  0  0  0  0  0  0  0  0  0  0
    7.8006   11.4108   24.8920 C   0  0  0  0  0  0  0  0  0  0  0  0
    8.3597   10.2186   24.4137 C   0  0  0  0  0  0  0  0  0  0  0  0
    9.4383   10.2847   23.5318 C   0  0  0  0  0  0  0  0  0  0  0  0
   10.1935    8.8491   23.0226 Cl  0  0  0  0  0  0  0  0  0  0  0  0
    9.9677   11.4930   23.1199 C   0  0  0  0  0  0  0  0  0  0  0  0
    9.4220   12.6837   23.5668 C   0  0  0  0  0  0  0  0  0  0  0  0
    9.9927   13.9891   23.2003 C   0  0  0  0  0  0  0  0  0  0  0  0
    9.9304   14.8177   24.0167 O   0  0  0  0  0  0  0  0  0  0  0  0
   10.4873   14.0570   21.7489 N   0  0  0  0  0  0  0  0  0  0  0  0
   11.1047   15.1447   21.0125 C   0  0  0  0  0  0  0  0  0  0  0  0
   11.1167   14.9389   19.4754 C   0  0  0  0  0  0  0  0  0  0  0  0
   10.1780   15.4994   18.8336 O   0  0  0  0  0  0  0  0  0  0  0  0
   12.0511   14.2167   19.0262 O   0  0  0  0  0  0  0  0  0  0  0  0
    8.3429   12.6140   24.4588 C   0  0  0  0  0  0  0  0  0  0  0  0
    7.6261   13.6245   25.0588 N   0  0  0  0  0  0  0  0  0  0  0  0
  1  2  1  0
  2  3  1  0
  3  4  2  0
  4  5  1  0
  5  6  2  0
  6  7  1  0
  7  8  1  0
  7  9  2  0
  9 10  1  0
 10 11  1  0
 11 12  2  0
 11 13  1  0
 13 14  1  0
 14 15  1  0
 15 16  2  0
 15 17  1  0
 10 18  2  0
 18 19  1  0
 19  3  1  0
 18  5  1  0
M  CHG  1  17  -1
M  END
>  <alias>  (1827) 
None

>  <rmsd(smina/fragmenstein)>  (1827) 
0.524

>  <smiles>  (1827) 
CCc1cc2cc(Cl)cc(C(=O)NCC(=O)[O-])c2[nH]1

>  <gnina_score>  (1827) 
5.361

>  <inspiration_score>  (1827) 
None

>  <energy_score>  (1827) 
-36.087301

>  <distance_score>  (1827) 
1.148028

>  <gnina_score_min>  (1827) 
5.285

>  <inchikey>  (1827) 
XDWCGYYFBKAQKS-UHFFFAOYSA-M

>  <exports>  (1827) 
['/opt/xchem-fragalysis-2/maxwin/BulkDock/OUTPUTS/openbind_a71ev2a_c2_elabs_1LOUU54.sdf', '/opt/xchem-fragalysis-2/maxwin/BulkDock/OUTPUTS/openbind_a71ev2a_c2_elabs_1LSYIDY.sdf']

>  <name>  (1827) 
P585570

>  <ref_pdb>  (1827) 
A0566a

>  <subsites>  (1827) 
None

>  <HIPPO Pose ID>  (1827) 
585570

>  <ref_mols>  (1827) 
A0566a

>  <HIPPO Compound ID>  (1827) 
440722

>  <tags>  (1827) 
openbind_a71ev2a_c2_elabs,syndirella_product,openbind_a71ev2a_c2_elabs_fragonly_scored_top80percent,openbind_a71ev2a_c2_elabs_scored,BulkDock Fragalysis export,openbind_a71ev2a_c2_elabs_scored_top80percent,openbind_a71ev2a_c2_elabs_activefrags_only_scored_5.2plus,syndirella_placed

>  <smina_score_min>  (1827) 
-5.782

$$$$
P585571
     RDKit          3D

 19 21  0  0  0  0  0  0  0  0999 V2000
    4.3174   14.2155   26.2825 C   0  0  0  0  0  0  0  0  0  0  0  0
    5.3536   13.4591   27.0995 C   0  0  0  0  0  0  0  0  0  0  0  0
    6.3265   12.7275   26.2365 C   0  0  0  0  0  0  0  0  0  0  0  0
    6.5227   11.3753   26.0382 C   0  0  0  0  0  0  0  0  0  0  0  0
    7.5815   11.2166   25.1086 C   0  0  0  0  0  0  0  0  0  0  0  0
    8.2297   10.1151   24.5310 C   0  0  0  0  0  0  0  0  0  0  0  0
    9.2822   10.3254   23.6397 C   0  0  0  0  0  0  0  0  0  0  0  0
   10.1135    8.9918   22.9874 Cl  0  0  0  0  0  0  0  0  0  0  0  0
    9.7033   11.5999   23.3121 C   0  0  0  0  0  0  0  0  0  0  0  0
    9.0406   12.7013   23.8508 C   0  0  0  0  0  0  0  0  0  0  0  0
    9.4639   14.0721   23.5590 C   0  0  0  0  0  0  0  0  0  0  0  0
    9.5450   14.8271   24.4419 O   0  0  0  0  0  0  0  0  0  0  0  0
    9.8258   14.2319   22.0772 N   0  0  0  0  0  0  0  0  0  0  0  0
   10.4601   15.3334   21.3739 C   0  0  0  0  0  0  0  0  0  0  0  0
   10.9464   14.9988   19.9468 C   0  0  0  0  0  0  0  0  0  0  0  0
   12.5199   14.4370   20.6046 S   0  0  0  0  0  0  0  0  0  0  0  0
   11.9067   15.5032   21.9219 C   0  0  0  0  0  0  0  0  0  0  0  0
    8.0037   12.4893   24.7561 C   0  0  0  0  0  0  0  0  0  0  0  0
    7.2339   13.3913   25.4513 N   0  0  0  0  0  0  0  0  0  0  0  0
  1  2  1  0
  2  3  1  0
  3  4  2  0
  4  5  1  0
  5  6  2  0
  6  7  1  0
  7  8  1  0
  7  9  2  0
  9 10  1  0
 10 11  1  0
 11 12  2  0
 11 13  1  0
 13 14  1  0
 14 15  1  0
 15 16  1  0
 16 17  1  0
 10 18  2  0
 18 19  1  0
 19  3  1  0
 18  5  1  0
 17 14  1  0
M  END
>  <alias>  (1828) 
None

>  <rmsd(smina/fragmenstein)>  (1828) 
0.491

>  <smiles>  (1828) 
CCc1cc2cc(Cl)cc(C(=O)NC3CSC3)c2[nH]1

>  <gnina_score>  (1828) 
5.677

>  <inspiration_score>  (1828) 
None

>  <energy_score>  (1828) 
-3.489292

>  <distance_score>  (1828) 
1.449163

>  <gnina_score_min>  (1828) 
5.658

>  <inchikey>  (1828) 
AIIVAXVGCDPGKI-UHFFFAOYSA-N

>  <exports>  (1828) 
['/opt/xchem-fragalysis-2/maxwin/BulkDock/OUTPUTS/openbind_a71ev2a_c2_elabs_1LOUU54.sdf', '/opt/xchem-fragalysis-2/maxwin/BulkDock/OUTPUTS/openbind_a71ev2a_c2_elabs_1LSYIDY.sdf']

>  <name>  (1828) 
P585571

>  <ref_pdb>  (1828) 
A0566a

>  <subsites>  (1828) 
None

>  <HIPPO Pose ID>  (1828) 
585571

>  <ref_mols>  (1828) 
A0566a

>  <HIPPO Compound ID>  (1828) 
440723

>  <tags>  (1828) 
openbind_a71ev2a_c2_elabs,syndirella_product,openbind_a71ev2a_c2_elabs_fragonly_scored_top80percent,BulkDock Fragalysis export,openbind_a71ev2a_c2_elabs_scored,openbind_a71ev2a_c2_elabs_scored_top80percent,openbind_a71ev2a_c2_elabs_activefrags_only_scored_5.2plus,openbind_a71ev2a_c2_elabs_activefrags_only_scored_5.5plus,syndirella_placed

>  <smina_score_min>  (1828) 
-5.072

$$$$
P585572
     RDKit          3D

 19 20  0  0  0  0  0  0  0  0999 V2000
   10.0658   15.8913   19.1467 C   0  0  0  0  0  0  0  0  0  0  0  0
   10.5259   15.5347   20.1957 C   0  0  0  0  0  0  0  0  0  0  0  0
   11.1312   15.1888   21.4767 C   0  0  2  0  0  0  0  0  0  0  0  0
   12.5519   14.6905   21.3485 C   0  0  0  0  0  0  0  0  0  0  0  0
   10.3525   14.1790   22.1093 N   0  0  0  0  0  0  0  0  0  0  0  0
    9.9946   13.9768   23.5809 C   0  0  0  0  0  0  0  0  0  0  0  0
   10.2122   14.6431   24.5083 O   0  0  0  0  0  0  0  0  0  0  0  0
    9.3363   12.6897   23.7961 C   0  0  0  0  0  0  0  0  0  0  0  0
    9.8804   11.5345   23.2515 C   0  0  0  0  0  0  0  0  0  0  0  0
    9.3521   10.3046   23.5836 C   0  0  0  0  0  0  0  0  0  0  0  0
   10.1205    8.9127   22.9822 Cl  0  0  0  0  0  0  0  0  0  0  0  0
    8.2724   10.1894   24.4593 C   0  0  0  0  0  0  0  0  0  0  0  0
    7.6986   11.3517   24.9989 C   0  0  0  0  0  0  0  0  0  0  0  0
    6.6281   11.6101   25.8923 C   0  0  0  0  0  0  0  0  0  0  0  0
    6.5404   12.9766   26.0694 C   0  0  0  0  0  0  0  0  0  0  0  0
    5.5911   13.8003   26.8724 C   0  0  0  0  0  0  0  0  0  0  0  0
    4.5006   14.4089   26.0045 C   0  0  0  0  0  0  0  0  0  0  0  0
    7.5379   13.5530   25.3234 N   0  0  0  0  0  0  0  0  0  0  0  0
    8.2467   12.5819   24.6575 C   0  0  0  0  0  0  0  0  0  0  0  0
  1  2  3  0
  2  3  1  0
  3  4  1  6
  3  5  1  0
  5  6  1  0
  6  7  2  0
  6  8  1  0
  8  9  2  0
  9 10  1  0
 10 11  1  0
 10 12  2  0
 12 13  1  0
 13 14  1  0
 14 15  2  0
 15 16  1  0
 16 17  1  0
 15 18  1  0
 18 19  1  0
 19  8  1  0
 19 13  2  0
M  END
>  <alias>  (1829) 
None

>  <rmsd(smina/fragmenstein)>  (1829) 
0.207

>  <smiles>  (1829) 
C#C[C@H](C)NC(=O)c1cc(Cl)cc2cc(CC)[nH]c12

>  <gnina_score>  (1829) 
5.639

>  <inspiration_score>  (1829) 
None

>  <energy_score>  (1829) 
-5.709281

>  <distance_score>  (1829) 
1.090148

>  <gnina_score_min>  (1829) 
5.633

>  <inchikey>  (1829) 
JDGCKTQMJOEVCQ-VIFPVBQESA-N

>  <exports>  (1829) 
['/opt/xchem-fragalysis-2/maxwin/BulkDock/OUTPUTS/openbind_a71ev2a_c2_elabs_1LOUU54.sdf', '/opt/xchem-fragalysis-2/maxwin/BulkDock/OUTPUTS/openbind_a71ev2a_c2_elabs_1LSYIDY.sdf']

>  <name>  (1829) 
P585572

>  <ref_pdb>  (1829) 
A0566a

>  <subsites>  (1829) 
None

>  <HIPPO Pose ID>  (1829) 
585572

>  <ref_mols>  (1829) 
A0566a

>  <HIPPO Compound ID>  (1829) 
440724

>  <tags>  (1829) 
openbind_a71ev2a_c2_elabs,syndirella_product,openbind_a71ev2a_c2_elabs_fragonly_scored_top80percent,BulkDock Fragalysis export,openbind_a71ev2a_c2_elabs_scored,openbind_a71ev2a_c2_elabs_scored_top80percent,openbind_a71ev2a_c2_elabs_activefrags_only_scored_5.2plus,openbind_a71ev2a_c2_elabs_activefrags_only_scored_5.5plus,syndirella_placed

>  <smina_score_min>  (1829) 
-5.991

$$$$
P585573
     RDKit          3D

 19 21  0  0  0  0  0  0  0  0999 V2000
    9.2796   17.2145   20.3118 C   0  0  0  0  0  0  0  0  0  0  0  0
    9.5112   15.9842   20.7574 C   0  0  0  0  0  0  0  0  0  0  0  0
    8.7081   14.9488   21.3633 C   0  0  0  0  0  0  0  0  0  0  0  0
    9.9860   14.0965   21.7822 N   0  0  0  0  0  0  0  0  0  0  0  0
   10.1195   14.0084   23.2711 C   0  0  0  0  0  0  0  0  0  0  0  0
   10.6856   14.7072   24.0265 O   0  0  0  0  0  0  0  0  0  0  0  0
    9.4776   12.7723   23.7117 C   0  0  0  0  0  0  0  0  0  0  0  0
    9.9576   11.5772   23.1960 C   0  0  0  0  0  0  0  0  0  0  0  0
    9.3905   10.3802   23.5751 C   0  0  0  0  0  0  0  0  0  0  0  0
   10.0840    8.9416   22.9936 Cl  0  0  0  0  0  0  0  0  0  0  0  0
    8.3184   10.3389   24.4651 C   0  0  0  0  0  0  0  0  0  0  0  0
    7.8035   11.5447   24.9728 C   0  0  0  0  0  0  0  0  0  0  0  0
    6.7433   11.8698   25.8558 C   0  0  0  0  0  0  0  0  0  0  0  0
    6.7074   13.2429   25.9892 C   0  0  0  0  0  0  0  0  0  0  0  0
    5.7910   14.1212   26.7731 C   0  0  0  0  0  0  0  0  0  0  0  0
    6.3707   14.4493   28.1401 C   0  0  0  0  0  0  0  0  0  0  0  0
    7.7128   13.7618   25.2108 N   0  0  0  0  0  0  0  0  0  0  0  0
    8.3998   12.7463   24.5923 C   0  0  0  0  0  0  0  0  0  0  0  0
   10.6307   15.0661   20.7690 C   0  0  0  0  0  0  0  0  0  0  0  0
  1  2  2  0
  2  3  1  0
  3  4  1  0
  4  5  1  0
  5  6  2  0
  5  7  1  0
  7  8  2  0
  8  9  1  0
  9 10  1  0
  9 11  2  0
 11 12  1  0
 12 13  1  0
 13 14  2  0
 14 15  1  0
 15 16  1  0
 14 17  1  0
 17 18  1  0
  4 19  1  0
 19  2  1  0
 18  7  1  0
 18 12  2  0
M  END
>  <alias>  (1830) 
None

>  <rmsd(smina/fragmenstein)>  (1830) 
0.468

>  <smiles>  (1830) 
C=C1CN(C(=O)c2cc(Cl)cc3cc(CC)[nH]c23)C1

>  <gnina_score>  (1830) 
5.636

>  <inspiration_score>  (1830) 
None

>  <energy_score>  (1830) 
-3.525041

>  <distance_score>  (1830) 
1.151797

>  <gnina_score_min>  (1830) 
5.648

>  <inchikey>  (1830) 
PTKGIVZZAKVJEO-UHFFFAOYSA-N

>  <exports>  (1830) 
['/opt/xchem-fragalysis-2/maxwin/BulkDock/OUTPUTS/openbind_a71ev2a_c2_elabs_1LOUU54.sdf', '/opt/xchem-fragalysis-2/maxwin/BulkDock/OUTPUTS/openbind_a71ev2a_c2_elabs_1LSYIDY.sdf']

>  <name>  (1830) 
P585573

>  <ref_pdb>  (1830) 
A0566a

>  <subsites>  (1830) 
None

>  <HIPPO Pose ID>  (1830) 
585573

>  <ref_mols>  (1830) 
A0566a

>  <HIPPO Compound ID>  (1830) 
440728

>  <tags>  (1830) 
openbind_a71ev2a_c2_elabs,syndirella_product,openbind_a71ev2a_c2_elabs_fragonly_scored_top80percent,BulkDock Fragalysis export,openbind_a71ev2a_c2_elabs_scored,openbind_a71ev2a_c2_elabs_scored_top80percent,openbind_a71ev2a_c2_elabs_activefrags_only_scored_5.2plus,openbind_a71ev2a_c2_elabs_activefrags_only_scored_5.5plus,syndirella_placed

>  <smina_score_min>  (1830) 
-6.265

$$$$
P585574
     RDKit          3D

 19 20  0  0  0  0  0  0  0  0999 V2000
    4.4682   14.4448   25.8314 C   0  0  0  0  0  0  0  0  0  0  0  0
    5.5783   13.8853   26.7074 C   0  0  0  0  0  0  0  0  0  0  0  0
    6.5199   13.0284   25.9301 C   0  0  0  0  0  0  0  0  0  0  0  0
    6.6386   11.6558   25.8467 C   0  0  0  0  0  0  0  0  0  0  0  0
    7.6936   11.3611   24.9451 C   0  0  0  0  0  0  0  0  0  0  0  0
    8.2797   10.1751   24.4756 C   0  0  0  0  0  0  0  0  0  0  0  0
    9.3581   10.2547   23.5981 C   0  0  0  0  0  0  0  0  0  0  0  0
   10.1675    8.8509   23.0825 Cl  0  0  0  0  0  0  0  0  0  0  0  0
    9.8549   11.4716   23.1819 C   0  0  0  0  0  0  0  0  0  0  0  0
    9.2594   12.6575   23.5916 C   0  0  0  0  0  0  0  0  0  0  0  0
    9.8384   13.9577   23.2249 C   0  0  0  0  0  0  0  0  0  0  0  0
    9.8216   14.7891   24.0404 O   0  0  0  0  0  0  0  0  0  0  0  0
   10.4670   13.9500   21.8226 N   0  0  0  0  0  0  0  0  0  0  0  0
   11.2888   14.9266   21.1624 C   0  0  0  0  0  0  0  0  0  0  0  0
   12.5623   15.1585   21.9629 C   0  0  0  0  0  0  0  0  0  0  0  0
   12.9032   14.0424   22.6608 F   0  0  0  0  0  0  0  0  0  0  0  0
   12.3151   16.1086   22.8992 F   0  0  0  0  0  0  0  0  0  0  0  0
    8.1950   12.5762   24.4927 C   0  0  0  0  0  0  0  0  0  0  0  0
    7.4728   13.5728   25.1069 N   0  0  0  0  0  0  0  0  0  0  0  0
  1  2  1  0
  2  3  1  0
  3  4  2  0
  4  5  1  0
  5  6  2  0
  6  7  1  0
  7  8  1  0
  7  9  2  0
  9 10  1  0
 10 11  1  0
 11 12  2  0
 11 13  1  0
 13 14  1  0
 14 15  1  0
 15 16  1  0
 15 17  1  0
 10 18  2  0
 18 19  1  0
 19  3  1  0
 18  5  1  0
M  END
>  <alias>  (1831) 
None

>  <rmsd(smina/fragmenstein)>  (1831) 
0.465

>  <smiles>  (1831) 
CCc1cc2cc(Cl)cc(C(=O)NCC(F)F)c2[nH]1

>  <gnina_score>  (1831) 
5.552

>  <inspiration_score>  (1831) 
None

>  <energy_score>  (1831) 
-2.040781

>  <distance_score>  (1831) 
1.207903

>  <gnina_score_min>  (1831) 
5.528

>  <inchikey>  (1831) 
AQRCGMFNLJARHF-UHFFFAOYSA-N

>  <exports>  (1831) 
['/opt/xchem-fragalysis-2/maxwin/BulkDock/OUTPUTS/openbind_a71ev2a_c2_elabs_1LOUU54.sdf', '/opt/xchem-fragalysis-2/maxwin/BulkDock/OUTPUTS/openbind_a71ev2a_c2_elabs_1LSYIDY.sdf']

>  <name>  (1831) 
P585574

>  <ref_pdb>  (1831) 
A0566a

>  <subsites>  (1831) 
None

>  <HIPPO Pose ID>  (1831) 
585574

>  <ref_mols>  (1831) 
A0566a

>  <HIPPO Compound ID>  (1831) 
440729

>  <tags>  (1831) 
openbind_a71ev2a_c2_elabs,syndirella_product,openbind_a71ev2a_c2_elabs_fragonly_scored_top80percent,BulkDock Fragalysis export,openbind_a71ev2a_c2_elabs_scored,openbind_a71ev2a_c2_elabs_scored_top80percent,openbind_a71ev2a_c2_elabs_activefrags_only_scored_5.2plus,openbind_a71ev2a_c2_elabs_activefrags_only_scored_5.5plus,syndirella_placed

>  <smina_score_min>  (1831) 
-5.707

$$$$
P585575
     RDKit          3D

 19 20  0  0  0  0  0  0  0  0999 V2000
    4.4250   14.3745   26.0108 C   0  0  0  0  0  0  0  0  0  0  0  0
    5.5430   13.7872   26.8580 C   0  0  0  0  0  0  0  0  0  0  0  0
    6.5051   12.9958   26.0371 C   0  0  0  0  0  0  0  0  0  0  0  0
    6.6653   11.6329   25.8924 C   0  0  0  0  0  0  0  0  0  0  0  0
    7.7177   11.4130   24.9679 C   0  0  0  0  0  0  0  0  0  0  0  0
    8.3287   10.2734   24.4305 C   0  0  0  0  0  0  0  0  0  0  0  0
    9.3776   10.4270   23.5210 C   0  0  0  0  0  0  0  0  0  0  0  0
   10.1302    9.0258   22.9152 Cl  0  0  0  0  0  0  0  0  0  0  0  0
    9.8383   11.6782   23.1389 C   0  0  0  0  0  0  0  0  0  0  0  0
    9.2217   12.8124   23.6469 C   0  0  0  0  0  0  0  0  0  0  0  0
    9.6888   14.1627   23.3311 C   0  0  0  0  0  0  0  0  0  0  0  0
    9.9931   14.8326   24.2345 O   0  0  0  0  0  0  0  0  0  0  0  0
    9.5966   14.4917   21.8334 N   0  0  0  0  0  0  0  0  0  0  0  0
    9.9520   15.6947   21.1110 C   0  0  0  0  0  0  0  0  0  0  0  0
   10.2992   15.4697   19.6444 C   0  0  0  0  0  0  0  0  0  0  0  0
   11.2307   14.4211   19.4076 O   0  0  0  0  0  0  0  0  0  0  0  0
   12.3120   14.3455   20.3177 C   0  0  0  0  0  0  0  0  0  0  0  0
    8.1785   12.6596   24.5663 C   0  0  0  0  0  0  0  0  0  0  0  0
    7.4317   13.6058   25.2293 N   0  0  0  0  0  0  0  0  0  0  0  0
  1  2  1  0
  2  3  1  0
  3  4  2  0
  4  5  1  0
  5  6  2  0
  6  7  1  0
  7  8  1  0
  7  9  2  0
  9 10  1  0
 10 11  1  0
 11 12  2  0
 11 13  1  0
 13 14  1  0
 14 15  1  0
 15 16  1  0
 16 17  1  0
 10 18  2  0
 18 19  1  0
 19  3  1  0
 18  5  1  0
M  END
>  <alias>  (1832) 
None

>  <rmsd(smina/fragmenstein)>  (1832) 
0.777

>  <smiles>  (1832) 
CCc1cc2cc(Cl)cc(C(=O)NCCOC)c2[nH]1

>  <gnina_score>  (1832) 
5.401

>  <inspiration_score>  (1832) 
None

>  <energy_score>  (1832) 
-3.23003

>  <distance_score>  (1832) 
1.382737

>  <gnina_score_min>  (1832) 
5.422

>  <inchikey>  (1832) 
RJMQYRSTWSVUSN-UHFFFAOYSA-N

>  <exports>  (1832) 
['/opt/xchem-fragalysis-2/maxwin/BulkDock/OUTPUTS/openbind_a71ev2a_c2_elabs_1LOUU54.sdf', '/opt/xchem-fragalysis-2/maxwin/BulkDock/OUTPUTS/openbind_a71ev2a_c2_elabs_1LSYIDY.sdf']

>  <name>  (1832) 
P585575

>  <ref_pdb>  (1832) 
A0566a

>  <subsites>  (1832) 
None

>  <HIPPO Pose ID>  (1832) 
585575

>  <ref_mols>  (1832) 
A0566a

>  <HIPPO Compound ID>  (1832) 
440730

>  <tags>  (1832) 
openbind_a71ev2a_c2_elabs,syndirella_product,openbind_a71ev2a_c2_elabs_fragonly_scored_top80percent,openbind_a71ev2a_c2_elabs_scored,BulkDock Fragalysis export,openbind_a71ev2a_c2_elabs_scored_top80percent,openbind_a71ev2a_c2_elabs_activefrags_only_scored_5.2plus,syndirella_placed

>  <smina_score_min>  (1832) 
-5.214

$$$$
P585576
     RDKit          3D

 19 20  0  0  0  0  0  0  0  0999 V2000
    5.7914   13.8059   28.5459 C   0  0  0  0  0  0  0  0  0  0  0  0
    5.2099   13.4721   27.1811 C   0  0  0  0  0  0  0  0  0  0  0  0
    6.1982   12.7502   26.3298 C   0  0  0  0  0  0  0  0  0  0  0  0
    6.4230   11.4003   26.1518 C   0  0  0  0  0  0  0  0  0  0  0  0
    7.4836   11.2533   25.2197 C   0  0  0  0  0  0  0  0  0  0  0  0
    8.1411   10.1531   24.6463 C   0  0  0  0  0  0  0  0  0  0  0  0
    9.1928   10.3706   23.7549 C   0  0  0  0  0  0  0  0  0  0  0  0
   10.0377    9.0543   23.0745 Cl  0  0  0  0  0  0  0  0  0  0  0  0
    9.6086   11.6469   23.4285 C   0  0  0  0  0  0  0  0  0  0  0  0
    8.9374   12.7523   23.9493 C   0  0  0  0  0  0  0  0  0  0  0  0
    9.3110   14.1268   23.5650 C   0  0  0  0  0  0  0  0  0  0  0  0
    9.2801   14.9531   24.4297 O   0  0  0  0  0  0  0  0  0  0  0  0
    9.5965   14.2426   22.1748 N   0  0  0  0  0  0  0  0  0  0  0  0
   10.0281   15.3668   21.3897 C   0  0  0  0  0  0  0  0  0  0  0  0
   10.7239   14.8874   20.1263 C   0  0  0  0  0  0  0  0  0  0  0  0
   12.1878   14.5756   20.4227 C   0  0  0  0  0  0  0  0  0  0  0  0
   10.4851   15.8462   18.9696 C   0  0  0  0  0  0  0  0  0  0  0  0
    7.8897   12.5314   24.8530 C   0  0  0  0  0  0  0  0  0  0  0  0
    7.0784   13.4234   25.5184 N   0  0  0  0  0  0  0  0  0  0  0  0
  1  2  1  0
  2  3  1  0
  3  4  2  0
  4  5  1  0
  5  6  2  0
  6  7  1  0
  7  8  1  0
  7  9  2  0
  9 10  1  0
 10 11  1  0
 11 12  2  0
 11 13  1  0
 13 14  1  0
 14 15  1  0
 15 16  1  0
 15 17  1  0
 10 18  2  0
 18 19  1  0
 19  3  1  0
 18  5  1  0
M  END
>  <alias>  (1833) 
None

>  <rmsd(smina/fragmenstein)>  (1833) 
0.823

>  <smiles>  (1833) 
CCc1cc2cc(Cl)cc(C(=O)NCC(C)C)c2[nH]1

>  <gnina_score>  (1833) 
5.427

>  <inspiration_score>  (1833) 
None

>  <energy_score>  (1833) 
-22.713593

>  <distance_score>  (1833) 
1.636014

>  <gnina_score_min>  (1833) 
5.233

>  <inchikey>  (1833) 
HGQJVDFCBFSQCI-UHFFFAOYSA-N

>  <exports>  (1833) 
['/opt/xchem-fragalysis-2/maxwin/BulkDock/OUTPUTS/openbind_a71ev2a_c2_elabs_1LOUU54.sdf', '/opt/xchem-fragalysis-2/maxwin/BulkDock/OUTPUTS/openbind_a71ev2a_c2_elabs_1LSYIDY.sdf']

>  <name>  (1833) 
P585576

>  <ref_pdb>  (1833) 
A0566a

>  <subsites>  (1833) 
None

>  <HIPPO Pose ID>  (1833) 
585576

>  <ref_mols>  (1833) 
A0566a

>  <HIPPO Compound ID>  (1833) 
440731

>  <tags>  (1833) 
openbind_a71ev2a_c2_elabs,syndirella_product,openbind_a71ev2a_c2_elabs_fragonly_scored_top80percent,openbind_a71ev2a_c2_elabs_scored,BulkDock Fragalysis export,openbind_a71ev2a_c2_elabs_scored_top80percent,openbind_a71ev2a_c2_elabs_activefrags_only_scored_5.2plus,syndirella_placed

>  <smina_score_min>  (1833) 
-5.799

$$$$
P585577
     RDKit          3D

 19 20  0  0  0  0  0  0  0  0999 V2000
    4.6221   14.5821   25.6145 C   0  0  0  0  0  0  0  0  0  0  0  0
    5.7605   14.1237   26.5126 C   0  0  0  0  0  0  0  0  0  0  0  0
    6.7002   13.2163   25.7925 C   0  0  0  0  0  0  0  0  0  0  0  0
    6.7713   11.8390   25.7439 C   0  0  0  0  0  0  0  0  0  0  0  0
    7.8335   11.4873   24.8716 C   0  0  0  0  0  0  0  0  0  0  0  0
    8.3683   10.2708   24.4228 C   0  0  0  0  0  0  0  0  0  0  0  0
    9.4502   10.2957   23.5452 C   0  0  0  0  0  0  0  0  0  0  0  0
   10.1802    8.8443   23.0465 Cl  0  0  0  0  0  0  0  0  0  0  0  0
   10.0040   11.4845   23.1124 C   0  0  0  0  0  0  0  0  0  0  0  0
    9.4835   12.6963   23.5264 C   0  0  0  0  0  0  0  0  0  0  0  0
   10.0525   13.9736   23.0701 C   0  0  0  0  0  0  0  0  0  0  0  0
   10.1018   14.8329   23.8548 O   0  0  0  0  0  0  0  0  0  0  0  0
   10.3972   13.9710   21.5713 N   0  0  0  0  0  0  0  0  0  0  0  0
   10.9644   14.9981   20.7420 C   0  0  0  0  0  0  0  0  0  0  0  0
    9.9441   16.1055   20.5356 C   0  0  0  0  0  0  0  0  0  0  0  0
    9.8362   16.5959   19.0946 C   0  0  0  0  0  0  0  0  0  0  0  0
    8.7542   18.4701   19.1421 I   0  0  0  0  0  0  0  0  0  0  0  0
    8.4023   12.6730   24.4163 C   0  0  0  0  0  0  0  0  0  0  0  0
    7.6934   13.7077   24.9829 N   0  0  0  0  0  0  0  0  0  0  0  0
  1  2  1  0
  2  3  1  0
  3  4  2  0
  4  5  1  0
  5  6  2  0
  6  7  1  0
  7  8  1  0
  7  9  2  0
  9 10  1  0
 10 11  1  0
 11 12  2  0
 11 13  1  0
 13 14  1  0
 14 15  1  0
 15 16  1  0
 16 17  1  0
 10 18  2  0
 18 19  1  0
 19  3  1  0
 18  5  1  0
M  END
>  <alias>  (1834) 
None

>  <rmsd(smina/fragmenstein)>  (1834) 
0.351

>  <smiles>  (1834) 
CCc1cc2cc(Cl)cc(C(=O)NCCCI)c2[nH]1

>  <gnina_score>  (1834) 
5.84

>  <inspiration_score>  (1834) 
None

>  <energy_score>  (1834) 
-15.224486

>  <distance_score>  (1834) 
1.179298

>  <gnina_score_min>  (1834) 
5.722

>  <inchikey>  (1834) 
VYTOGNGQKIEOLH-UHFFFAOYSA-N

>  <exports>  (1834) 
['/opt/xchem-fragalysis-2/maxwin/BulkDock/OUTPUTS/openbind_a71ev2a_c2_elabs_1LOUU54.sdf', '/opt/xchem-fragalysis-2/maxwin/BulkDock/OUTPUTS/openbind_a71ev2a_c2_elabs_1LSYIDY.sdf']

>  <name>  (1834) 
P585577

>  <ref_pdb>  (1834) 
A0566a

>  <subsites>  (1834) 
None

>  <HIPPO Pose ID>  (1834) 
585577

>  <ref_mols>  (1834) 
A0566a

>  <HIPPO Compound ID>  (1834) 
440732

>  <tags>  (1834) 
openbind_a71ev2a_c2_elabs,syndirella_product,openbind_a71ev2a_c2_elabs_fragonly_scored_top80percent,BulkDock Fragalysis export,openbind_a71ev2a_c2_elabs_scored,openbind_a71ev2a_c2_elabs_scored_top80percent,openbind_a71ev2a_c2_elabs_activefrags_only_scored_5.2plus,openbind_a71ev2a_c2_elabs_activefrags_only_scored_5.5plus,syndirella_placed

>  <smina_score_min>  (1834) 
-4.62

$$$$
P585578
     RDKit          3D

 19 20  0  0  0  0  0  0  0  0999 V2000
    4.3085   14.2246   26.2495 C   0  0  0  0  0  0  0  0  0  0  0  0
    5.3490   13.4744   27.0668 C   0  0  0  0  0  0  0  0  0  0  0  0
    6.3158   12.7329   26.2055 C   0  0  0  0  0  0  0  0  0  0  0  0
    6.5198   11.3788   26.0294 C   0  0  0  0  0  0  0  0  0  0  0  0
    7.5709   11.2108   25.0922 C   0  0  0  0  0  0  0  0  0  0  0  0
    8.2246   10.1035   24.5327 C   0  0  0  0  0  0  0  0  0  0  0  0
    9.2721   10.3069   23.6352 C   0  0  0  0  0  0  0  0  0  0  0  0
   10.1235    8.9733   23.0081 Cl  0  0  0  0  0  0  0  0  0  0  0  0
    9.6783   11.5788   23.2811 C   0  0  0  0  0  0  0  0  0  0  0  0
    9.0061   12.6884   23.7916 C   0  0  0  0  0  0  0  0  0  0  0  0
    9.4384   14.0594   23.5000 C   0  0  0  0  0  0  0  0  0  0  0  0
    9.3930   14.8438   24.3647 O   0  0  0  0  0  0  0  0  0  0  0  0
    9.9883   14.1846   22.0622 N   0  0  0  0  0  0  0  0  0  0  0  0
   10.6462   15.2124   21.4513 N   0  0  0  0  0  0  0  0  0  0  0  0
   10.1412   15.4396   20.0973 C   0  0  0  0  0  0  0  0  0  0  0  0
   12.0836   14.9103   21.4535 C   0  0  0  0  0  0  0  0  0  0  0  0
   12.5499   14.4983   22.8431 C   0  0  0  0  0  0  0  0  0  0  0  0
    7.9774   12.4794   24.7088 C   0  0  0  0  0  0  0  0  0  0  0  0
    7.2083   13.3881   25.3969 N   0  0  0  0  0  0  0  0  0  0  0  0
  1  2  1  0
  2  3  1  0
  3  4  2  0
  4  5  1  0
  5  6  2  0
  6  7  1  0
  7  8  1  0
  7  9  2  0
  9 10  1  0
 10 11  1  0
 11 12  2  0
 11 13  1  0
 13 14  1  0
 14 15  1  0
 14 16  1  0
 16 17  1  0
 10 18  2  0
 18 19  1  0
 19  3  1  0
 18  5  1  0
M  END
>  <alias>  (1835) 
None

>  <rmsd(smina/fragmenstein)>  (1835) 
0.874

>  <smiles>  (1835) 
CCc1cc2cc(Cl)cc(C(=O)NN(C)CC)c2[nH]1

>  <gnina_score>  (1835) 
5.872

>  <inspiration_score>  (1835) 
None

>  <energy_score>  (1835) 
-7.961918

>  <distance_score>  (1835) 
1.446686

>  <gnina_score_min>  (1835) 
5.773

>  <inchikey>  (1835) 
KEQLHJONGGYCHB-UHFFFAOYSA-N

>  <exports>  (1835) 
['/opt/xchem-fragalysis-2/maxwin/BulkDock/OUTPUTS/openbind_a71ev2a_c2_elabs_1LOUU54.sdf', '/opt/xchem-fragalysis-2/maxwin/BulkDock/OUTPUTS/openbind_a71ev2a_c2_elabs_1LSYIDY.sdf']

>  <name>  (1835) 
P585578

>  <ref_pdb>  (1835) 
A0566a

>  <subsites>  (1835) 
None

>  <HIPPO Pose ID>  (1835) 
585578

>  <ref_mols>  (1835) 
A0566a

>  <HIPPO Compound ID>  (1835) 
440733

>  <tags>  (1835) 
openbind_a71ev2a_c2_elabs,syndirella_product,openbind_a71ev2a_c2_elabs_fragonly_scored_top80percent,BulkDock Fragalysis export,openbind_a71ev2a_c2_elabs_scored,openbind_a71ev2a_c2_elabs_scored_top80percent,openbind_a71ev2a_c2_elabs_activefrags_only_scored_5.2plus,openbind_a71ev2a_c2_elabs_activefrags_only_scored_5.5plus,syndirella_placed

>  <smina_score_min>  (1835) 
-5.914

$$$$
P585581
     RDKit          3D

 19 20  0  0  0  0  0  0  0  0999 V2000
   10.1550    9.3468   22.5126 C   0  0  0  0  0  0  0  0  0  0  0  0
   10.1874   10.7274   22.8853 O   0  0  0  0  0  0  0  0  0  0  0  0
    9.2248   11.1242   23.7668 C   0  0  0  0  0  0  0  0  0  0  0  0
    8.4399   10.1773   24.4229 C   0  0  0  0  0  0  0  0  0  0  0  0
    7.4180   10.5307   25.2811 C   0  0  0  0  0  0  0  0  0  0  0  0
    7.1322   11.8810   25.4467 C   0  0  0  0  0  0  0  0  0  0  0  0
    6.1578   12.5373   26.2299 C   0  0  0  0  0  0  0  0  0  0  0  0
    6.2842   13.8778   25.9898 C   0  0  0  0  0  0  0  0  0  0  0  0
    7.2677   14.0492   25.0495 N   0  0  0  0  0  0  0  0  0  0  0  0
    7.4334   15.3049   24.3496 C   0  0  0  0  0  0  0  0  0  0  0  0
    7.9057   12.8478   24.7908 C   0  0  0  0  0  0  0  0  0  0  0  0
    9.0477   12.4987   24.0230 C   0  0  0  0  0  0  0  0  0  0  0  0
   10.0463   13.5669   23.6549 C   0  0  0  0  0  0  0  0  0  0  0  0
   10.1589   14.4575   24.3969 O   0  0  0  0  0  0  0  0  0  0  0  0
   10.7022   13.3202   22.2932 N   0  0  0  0  0  0  0  0  0  0  0  0
   11.5727   14.1659   21.4986 C   0  0  2  0  0  0  0  0  0  0  0  0
   12.4623   15.0495   22.3418 C   0  0  0  0  0  0  0  0  0  0  0  0
   10.7692   14.9463   20.5364 C   0  0  0  0  0  0  0  0  0  0  0  0
   10.1083   15.5194   19.7713 N   0  0  0  0  0  0  0  0  0  0  0  0
  1  2  1  0
  2  3  1  0
  3  4  2  0
  4  5  1  0
  5  6  2  0
  6  7  1  0
  7  8  2  0
  8  9  1  0
  9 10  1  0
  9 11  1  0
 11 12  2  0
 12 13  1  0
 13 14  2  0
 13 15  1  0
 15 16  1  0
 16 17  1  1
 16 18  1  0
 18 19  3  0
 12  3  1  0
 11  6  1  0
M  END
>  <alias>  (1836) 
None

>  <rmsd(smina/fragmenstein)>  (1836) 
0.995

>  <smiles>  (1836) 
COc1ccc2ccn(C)c2c1C(=O)N[C@H](C)C#N

>  <gnina_score>  (1836) 
5.282

>  <inspiration_score>  (1836) 
None

>  <energy_score>  (1836) 
-10.643653

>  <distance_score>  (1836) 
1.59375

>  <gnina_score_min>  (1836) 
5.24

>  <inchikey>  (1836) 
PFSRIARXAONHIZ-SECBINFHSA-N

>  <exports>  (1836) 
['/opt/xchem-fragalysis-2/maxwin/BulkDock/OUTPUTS/openbind_a71ev2a_c2_elabs_1LOUU54.sdf', '/opt/xchem-fragalysis-2/maxwin/BulkDock/OUTPUTS/openbind_a71ev2a_c2_elabs_1LSYIDY.sdf']

>  <name>  (1836) 
P585581

>  <ref_pdb>  (1836) 
A0566a

>  <subsites>  (1836) 
None

>  <HIPPO Pose ID>  (1836) 
585581

>  <ref_mols>  (1836) 
A0566a

>  <HIPPO Compound ID>  (1836) 
440740

>  <tags>  (1836) 
openbind_a71ev2a_c2_elabs,syndirella_product,openbind_a71ev2a_c2_elabs_fragonly_scored_top80percent,openbind_a71ev2a_c2_elabs_scored,BulkDock Fragalysis export,openbind_a71ev2a_c2_elabs_scored_top80percent,openbind_a71ev2a_c2_elabs_activefrags_only_scored_5.2plus,syndirella_placed

>  <smina_score_min>  (1836) 
-6.022

$$$$
P585584
     RDKit          3D

 19 21  0  0  0  0  0  0  0  0999 V2000
   12.1028   12.7968   23.9907 C   0  0  0  0  0  0  0  0  0  0  0  0
   11.2596   11.9580   23.1856 O   0  0  0  0  0  0  0  0  0  0  0  0
    9.9767   11.7613   23.6128 C   0  0  0  0  0  0  0  0  0  0  0  0
    9.5396   10.4484   23.6766 C   0  0  0  0  0  0  0  0  0  0  0  0
    8.3866   10.1601   24.3991 C   0  0  0  0  0  0  0  0  0  0  0  0
    7.6310   11.1963   24.9777 C   0  0  0  0  0  0  0  0  0  0  0  0
    6.5190   11.2124   25.8531 C   0  0  0  0  0  0  0  0  0  0  0  0
    6.1461   12.5226   26.0226 C   0  0  0  0  0  0  0  0  0  0  0  0
    6.9614   13.3035   25.2415 N   0  0  0  0  0  0  0  0  0  0  0  0
    6.7045   14.7120   25.0146 C   0  0  0  0  0  0  0  0  0  0  0  0
    7.9667   12.5263   24.7016 C   0  0  0  0  0  0  0  0  0  0  0  0
    9.1379   12.8150   23.9915 C   0  0  0  0  0  0  0  0  0  0  0  0
    9.5730   14.1781   23.6902 C   0  0  0  0  0  0  0  0  0  0  0  0
    9.4681   15.0138   24.4957 O   0  0  0  0  0  0  0  0  0  0  0  0
   10.1871   14.2237   22.2757 N   0  0  0  0  0  0  0  0  0  0  0  0
   10.8640   15.2491   21.6138 C   0  0  1  0  0  0  0  0  0  0  0  0
   10.9245   15.1862   20.1126 C   0  0  0  0  0  0  0  0  0  0  0  0
   10.1227   16.2534   20.8072 C   0  0  1  0  0  0  0  0  0  0  0  0
    8.6602   16.2381   20.7624 C   0  0  0  0  0  0  0  0  0  0  0  0
  1  2  1  0
  2  3  1  0
  3  4  2  0
  4  5  1  0
  5  6  2  0
  6  7  1  0
  7  8  2  0
  8  9  1  0
  9 10  1  0
  9 11  1  0
 11 12  2  0
 12 13  1  0
 13 14  2  0
 13 15  1  0
 16 15  1  6
 16 17  1  0
 17 18  1  0
 18 19  1  6
 12  3  1  0
 18 16  1  0
 11  6  1  0
M  END
>  <alias>  (1837) 
None

>  <rmsd(smina/fragmenstein)>  (1837) 
0.802

>  <smiles>  (1837) 
COc1ccc2ccn(C)c2c1C(=O)N[C@H]1C[C@H]1C

>  <gnina_score>  (1837) 
5.214

>  <inspiration_score>  (1837) 
None

>  <energy_score>  (1837) 
-5.849481

>  <distance_score>  (1837) 
1.392563

>  <gnina_score_min>  (1837) 
5.207

>  <inchikey>  (1837) 
FRHGCMJIQDXVGG-KOLCDFICSA-N

>  <exports>  (1837) 
['/opt/xchem-fragalysis-2/maxwin/BulkDock/OUTPUTS/openbind_a71ev2a_c2_elabs_1LOUU54.sdf', '/opt/xchem-fragalysis-2/maxwin/BulkDock/OUTPUTS/openbind_a71ev2a_c2_elabs_1LSYIDY.sdf']

>  <name>  (1837) 
P585584

>  <ref_pdb>  (1837) 
A0566a

>  <subsites>  (1837) 
None

>  <HIPPO Pose ID>  (1837) 
585584

>  <ref_mols>  (1837) 
A0566a

>  <HIPPO Compound ID>  (1837) 
440741

>  <tags>  (1837) 
openbind_a71ev2a_c2_elabs,syndirella_product,openbind_a71ev2a_c2_elabs_fragonly_scored_top80percent,openbind_a71ev2a_c2_elabs_scored,BulkDock Fragalysis export,openbind_a71ev2a_c2_elabs_scored_top80percent,openbind_a71ev2a_c2_elabs_activefrags_only_scored_5.2plus,syndirella_placed

>  <smina_score_min>  (1837) 
-4.444

$$$$
P585587
     RDKit          3D

 19 20  0  0  0  0  0  0  0  0999 V2000
   12.0065   12.8536   24.0134 C   0  0  0  0  0  0  0  0  0  0  0  0
   11.2357   12.0307   23.1223 O   0  0  0  0  0  0  0  0  0  0  0  0
    9.9469   11.7947   23.5182 C   0  0  0  0  0  0  0  0  0  0  0  0
    9.5551   10.4722   23.6360 C   0  0  0  0  0  0  0  0  0  0  0  0
    8.4116   10.1782   24.3718 C   0  0  0  0  0  0  0  0  0  0  0  0
    7.6387   11.2148   24.9289 C   0  0  0  0  0  0  0  0  0  0  0  0
    6.5428   11.2324   25.8248 C   0  0  0  0  0  0  0  0  0  0  0  0
    6.1508   12.5400   25.9720 C   0  0  0  0  0  0  0  0  0  0  0  0
    6.9339   13.3171   25.1554 N   0  0  0  0  0  0  0  0  0  0  0  0
    6.6642   14.7221   24.9203 C   0  0  0  0  0  0  0  0  0  0  0  0
    7.9320   12.5429   24.5992 C   0  0  0  0  0  0  0  0  0  0  0  0
    9.0708   12.8372   23.8435 C   0  0  0  0  0  0  0  0  0  0  0  0
    9.4889   14.1963   23.5071 C   0  0  0  0  0  0  0  0  0  0  0  0
    9.4528   15.0196   24.3286 O   0  0  0  0  0  0  0  0  0  0  0  0
   10.0180   14.2500   22.0641 N   0  0  0  0  0  0  0  0  0  0  0  0
   10.7028   15.3035   21.3555 C   0  0  2  0  0  0  0  0  0  0  0  0
    9.7341   15.9806   20.3987 C   0  0  0  0  0  0  0  0  0  0  0  0
   11.9645   14.7089   20.7062 C   0  0  0  0  0  0  0  0  0  0  0  0
   11.7104   14.1353   19.4356 O   0  0  0  0  0  0  0  0  0  0  0  0
  1  2  1  0
  2  3  1  0
  3  4  2  0
  4  5  1  0
  5  6  2  0
  6  7  1  0
  7  8  2  0
  8  9  1  0
  9 10  1  0
  9 11  1  0
 11 12  2  0
 12 13  1  0
 13 14  2  0
 13 15  1  0
 15 16  1  0
 16 17  1  6
 16 18  1  0
 18 19  1  0
 12  3  1  0
 11  6  1  0
M  END
>  <alias>  (1838) 
None

>  <rmsd(smina/fragmenstein)>  (1838) 
0.313

>  <smiles>  (1838) 
COc1ccc2ccn(C)c2c1C(=O)N[C@H](C)CO

>  <gnina_score>  (1838) 
5.234

>  <inspiration_score>  (1838) 
None

>  <energy_score>  (1838) 
-11.545757

>  <distance_score>  (1838) 
1.434445

>  <gnina_score_min>  (1838) 
5.228

>  <inchikey>  (1838) 
JWBDVGABOBLTMS-SECBINFHSA-N

>  <exports>  (1838) 
['/opt/xchem-fragalysis-2/maxwin/BulkDock/OUTPUTS/openbind_a71ev2a_c2_elabs_1LOUU54.sdf', '/opt/xchem-fragalysis-2/maxwin/BulkDock/OUTPUTS/openbind_a71ev2a_c2_elabs_1LSYIDY.sdf']

>  <name>  (1838) 
P585587

>  <ref_pdb>  (1838) 
A0566a

>  <subsites>  (1838) 
None

>  <HIPPO Pose ID>  (1838) 
585587

>  <ref_mols>  (1838) 
A0566a

>  <HIPPO Compound ID>  (1838) 
440744

>  <tags>  (1838) 
openbind_a71ev2a_c2_elabs,syndirella_product,openbind_a71ev2a_c2_elabs_fragonly_scored_top80percent,openbind_a71ev2a_c2_elabs_scored,BulkDock Fragalysis export,openbind_a71ev2a_c2_elabs_scored_top80percent,openbind_a71ev2a_c2_elabs_activefrags_only_scored_5.2plus,syndirella_placed

>  <smina_score_min>  (1838) 
-5.32

$$$$
P585589
     RDKit          3D

 19 20  0  0  0  0  0  0  0  0999 V2000
    4.4223   14.3611   26.1413 C   0  0  0  0  0  0  0  0  0  0  0  0
    5.4594   13.6651   27.0091 C   0  0  0  0  0  0  0  0  0  0  0  0
    6.4169   12.8657   26.1916 C   0  0  0  0  0  0  0  0  0  0  0  0
    6.4876   11.5089   25.9493 C   0  0  0  0  0  0  0  0  0  0  0  0
    7.5750   11.2746   25.0695 C   0  0  0  0  0  0  0  0  0  0  0  0
    8.1511   10.1233   24.5061 C   0  0  0  0  0  0  0  0  0  0  0  0
    9.2425   10.2568   23.6554 C   0  0  0  0  0  0  0  0  0  0  0  0
   10.0487    8.9040   23.0115 Cl  0  0  0  0  0  0  0  0  0  0  0  0
    9.8042   11.4884   23.4129 C   0  0  0  0  0  0  0  0  0  0  0  0
    9.3097   12.6349   24.0371 C   0  0  0  0  0  0  0  0  0  0  0  0
   10.1544   13.8423   24.1340 C   0  0  0  0  0  0  0  0  0  0  0  0
   10.0873   14.5043   25.0877 O   0  0  0  0  0  0  0  0  0  0  0  0
   11.0784   13.9397   22.9261 N   0  0  0  0  0  0  0  0  0  0  0  0
   12.1631   14.7960   22.6722 C   0  0  0  0  0  0  0  0  0  0  0  0
   12.0052   15.4948   21.3565 C   0  0  0  0  0  0  0  0  0  0  0  0
   11.6318   14.6532   20.2272 N   0  0  0  0  0  0  0  0  0  0  0  0
   12.7754   13.8709   19.8092 O   0  0  0  0  0  0  0  0  0  0  0  0
    8.1603   12.5092   24.8140 C   0  0  0  0  0  0  0  0  0  0  0  0
    7.4488   13.4573   25.5094 N   0  0  0  0  0  0  0  0  0  0  0  0
  1  2  1  0
  2  3  1  0
  3  4  2  0
  4  5  1  0
  5  6  2  0
  6  7  1  0
  7  8  1  0
  7  9  2  0
  9 10  1  0
 10 11  1  0
 11 12  2  0
 11 13  1  0
 13 14  1  0
 14 15  1  0
 15 16  1  0
 16 17  1  0
 10 18  2  0
 18 19  1  0
 19  3  1  0
 18  5  1  0
M  END
>  <alias>  (1839) 
None

>  <rmsd(smina/fragmenstein)>  (1839) 
0.323

>  <smiles>  (1839) 
CCc1cc2cc(Cl)cc(C(=O)NCCNO)c2[nH]1

>  <gnina_score>  (1839) 
5.647

>  <inspiration_score>  (1839) 
None

>  <energy_score>  (1839) 
-4.663118

>  <distance_score>  (1839) 
1.111494

>  <gnina_score_min>  (1839) 
5.567

>  <inchikey>  (1839) 
LQROLUQFVQFTQP-UHFFFAOYSA-N

>  <exports>  (1839) 
['/opt/xchem-fragalysis-2/maxwin/BulkDock/OUTPUTS/openbind_a71ev2a_c2_elabs_1LOUU54.sdf', '/opt/xchem-fragalysis-2/maxwin/BulkDock/OUTPUTS/openbind_a71ev2a_c2_elabs_1LSYIDY.sdf']

>  <name>  (1839) 
P585589

>  <ref_pdb>  (1839) 
A0566a

>  <subsites>  (1839) 
None

>  <HIPPO Pose ID>  (1839) 
585589

>  <ref_mols>  (1839) 
A0566a

>  <HIPPO Compound ID>  (1839) 
440747

>  <tags>  (1839) 
openbind_a71ev2a_c2_elabs,syndirella_product,openbind_a71ev2a_c2_elabs_fragonly_scored_top80percent,BulkDock Fragalysis export,openbind_a71ev2a_c2_elabs_scored,openbind_a71ev2a_c2_elabs_scored_top80percent,openbind_a71ev2a_c2_elabs_activefrags_only_scored_5.2plus,openbind_a71ev2a_c2_elabs_activefrags_only_scored_5.5plus,syndirella_placed

>  <smina_score_min>  (1839) 
-6.164

$$$$
P585591
     RDKit          3D

 19 20  0  0  0  0  0  0  0  0999 V2000
    4.3289   14.3212   26.0661 C   0  0  0  0  0  0  0  0  0  0  0  0
    5.4057   13.6557   26.9092 C   0  0  0  0  0  0  0  0  0  0  0  0
    6.3607   12.8654   26.0790 C   0  0  0  0  0  0  0  0  0  0  0  0
    6.5536   11.5031   25.9665 C   0  0  0  0  0  0  0  0  0  0  0  0
    7.5965   11.2829   25.0304 C   0  0  0  0  0  0  0  0  0  0  0  0
    8.2376   10.1427   24.5227 C   0  0  0  0  0  0  0  0  0  0  0  0
    9.2907   10.2966   23.6232 C   0  0  0  0  0  0  0  0  0  0  0  0
   10.1433    8.9350   23.0599 Cl  0  0  0  0  0  0  0  0  0  0  0  0
    9.7062   11.5477   23.2141 C   0  0  0  0  0  0  0  0  0  0  0  0
    9.0308   12.6882   23.6457 C   0  0  0  0  0  0  0  0  0  0  0  0
    9.4980   14.0340   23.2831 C   0  0  0  0  0  0  0  0  0  0  0  0
    9.4132   14.8686   24.0919 O   0  0  0  0  0  0  0  0  0  0  0  0
   10.1256   14.0655   21.8805 N   0  0  0  0  0  0  0  0  0  0  0  0
   10.8672   15.1021   21.2104 C   0  0  2  0  0  0  0  0  0  0  0  0
   10.4970   15.1681   19.7392 C   0  0  0  0  0  0  0  0  0  0  0  0
   12.3556   14.7923   21.4213 C   0  0  0  0  0  0  0  0  0  0  0  0
   12.6773   14.2649   23.1136 Cl  0  0  0  0  0  0  0  0  0  0  0  0
    8.0068   12.5299   24.5794 C   0  0  0  0  0  0  0  0  0  0  0  0
    7.2495   13.4748   25.2308 N   0  0  0  0  0  0  0  0  0  0  0  0
  1  2  1  0
  2  3  1  0
  3  4  2  0
  4  5  1  0
  5  6  2  0
  6  7  1  0
  7  8  1  0
  7  9  2  0
  9 10  1  0
 10 11  1  0
 11 12  2  0
 11 13  1  0
 13 14  1  0
 14 15  1  6
 14 16  1  0
 16 17  1  0
 10 18  2  0
 18 19  1  0
 19  3  1  0
 18  5  1  0
M  END
>  <alias>  (1840) 
None

>  <rmsd(smina/fragmenstein)>  (1840) 
0.647

>  <smiles>  (1840) 
CCc1cc2cc(Cl)cc(C(=O)N[C@H](C)CCl)c2[nH]1

>  <gnina_score>  (1840) 
5.694

>  <inspiration_score>  (1840) 
None

>  <energy_score>  (1840) 
-3.72254

>  <distance_score>  (1840) 
1.411428

>  <gnina_score_min>  (1840) 
5.737

>  <inchikey>  (1840) 
ZOZWMLDATOEJFE-MRVPVSSYSA-N

>  <exports>  (1840) 
['/opt/xchem-fragalysis-2/maxwin/BulkDock/OUTPUTS/openbind_a71ev2a_c2_elabs_1LOUU54.sdf', '/opt/xchem-fragalysis-2/maxwin/BulkDock/OUTPUTS/openbind_a71ev2a_c2_elabs_1LSYIDY.sdf']

>  <name>  (1840) 
P585591

>  <ref_pdb>  (1840) 
A0566a

>  <subsites>  (1840) 
None

>  <HIPPO Pose ID>  (1840) 
585591

>  <ref_mols>  (1840) 
A0566a

>  <HIPPO Compound ID>  (1840) 
440750

>  <tags>  (1840) 
openbind_a71ev2a_c2_elabs,syndirella_product,openbind_a71ev2a_c2_elabs_fragonly_scored_top80percent,BulkDock Fragalysis export,openbind_a71ev2a_c2_elabs_scored,openbind_a71ev2a_c2_elabs_scored_top80percent,openbind_a71ev2a_c2_elabs_activefrags_only_scored_5.2plus,openbind_a71ev2a_c2_elabs_activefrags_only_scored_5.5plus,syndirella_placed

>  <smina_score_min>  (1840) 
-6.035

$$$$
P585593
     RDKit          3D

 19 20  0  0  0  0  0  0  0  0999 V2000
    6.2887   14.5292   28.0506 C   0  0  0  0  0  0  0  0  0  0  0  0
    5.6890   14.1392   26.7087 C   0  0  0  0  0  0  0  0  0  0  0  0
    6.6221   13.2791   25.9239 C   0  0  0  0  0  0  0  0  0  0  0  0
    6.7167   11.9059   25.8307 C   0  0  0  0  0  0  0  0  0  0  0  0
    7.7687   11.6023   24.9312 C   0  0  0  0  0  0  0  0  0  0  0  0
    8.3238   10.4062   24.4483 C   0  0  0  0  0  0  0  0  0  0  0  0
    9.3894   10.4663   23.5510 C   0  0  0  0  0  0  0  0  0  0  0  0
   10.0911    9.0214   22.9884 Cl  0  0  0  0  0  0  0  0  0  0  0  0
    9.9146   11.6768   23.1383 C   0  0  0  0  0  0  0  0  0  0  0  0
    9.3586   12.8650   23.5933 C   0  0  0  0  0  0  0  0  0  0  0  0
    9.9285   14.1260   23.1212 C   0  0  0  0  0  0  0  0  0  0  0  0
   10.6382   14.7273   23.8195 O   0  0  0  0  0  0  0  0  0  0  0  0
    9.4822   14.4023   21.6787 N   0  0  0  0  0  0  0  0  0  0  0  0
    9.8900   15.4312   20.7512 C   0  0  0  0  0  0  0  0  0  0  0  0
   11.1712   15.0802   19.9900 C   0  0  1  0  0  0  0  0  0  0  0  0
   12.3413   14.7872   20.9157 C   0  0  0  0  0  0  0  0  0  0  0  0
   10.9995   13.9823   19.1127 O   0  0  0  0  0  0  0  0  0  0  0  0
    8.2966   12.8159   24.4933 C   0  0  0  0  0  0  0  0  0  0  0  0
    7.5787   13.8180   25.0991 N   0  0  0  0  0  0  0  0  0  0  0  0
  1  2  1  0
  2  3  1  0
  3  4  2  0
  4  5  1  0
  5  6  2  0
  6  7  1  0
  7  8  1  0
  7  9  2  0
  9 10  1  0
 10 11  1  0
 11 12  2  0
 11 13  1  0
 13 14  1  0
 14 15  1  0
 15 16  1  1
 15 17  1  0
 10 18  2  0
 18 19  1  0
 19  3  1  0
 18  5  1  0
M  END
>  <alias>  (1841) 
None

>  <rmsd(smina/fragmenstein)>  (1841) 
1.318

>  <smiles>  (1841) 
CCc1cc2cc(Cl)cc(C(=O)NC[C@@H](C)O)c2[nH]1

>  <gnina_score>  (1841) 
5.572

>  <inspiration_score>  (1841) 
None

>  <energy_score>  (1841) 
-10.002312

>  <distance_score>  (1841) 
1.335763

>  <gnina_score_min>  (1841) 
5.364

>  <inchikey>  (1841) 
KADIHJVDIYWKMK-MRVPVSSYSA-N

>  <exports>  (1841) 
['/opt/xchem-fragalysis-2/maxwin/BulkDock/OUTPUTS/openbind_a71ev2a_c2_elabs_1LOUU54.sdf', '/opt/xchem-fragalysis-2/maxwin/BulkDock/OUTPUTS/openbind_a71ev2a_c2_elabs_1LSYIDY.sdf']

>  <name>  (1841) 
P585593

>  <ref_pdb>  (1841) 
A0566a

>  <subsites>  (1841) 
None

>  <HIPPO Pose ID>  (1841) 
585593

>  <ref_mols>  (1841) 
A0566a

>  <HIPPO Compound ID>  (1841) 
440751

>  <tags>  (1841) 
openbind_a71ev2a_c2_elabs,syndirella_product,openbind_a71ev2a_c2_elabs_fragonly_scored_top80percent,openbind_a71ev2a_c2_elabs_scored,BulkDock Fragalysis export,openbind_a71ev2a_c2_elabs_scored_top80percent,openbind_a71ev2a_c2_elabs_activefrags_only_scored_5.2plus,syndirella_placed

>  <smina_score_min>  (1841) 
-6.348

$$$$
P585594
     RDKit          3D

 19 20  0  0  0  0  0  0  0  0999 V2000
   12.3824   15.0246   21.3573 C   0  0  0  0  0  0  0  0  0  0  0  0
   11.3325   15.0050   20.5270 C   0  0  0  0  0  0  0  0  0  0  0  0
   11.5578   14.6017   18.8669 Cl  0  0  0  0  0  0  0  0  0  0  0  0
    9.9434   15.3745   20.9265 C   0  0  0  0  0  0  0  0  0  0  0  0
    9.4697   14.3444   21.8069 N   0  0  0  0  0  0  0  0  0  0  0  0
    9.7342   14.1090   23.2971 C   0  0  0  0  0  0  0  0  0  0  0  0
   10.3158   14.7534   24.0710 O   0  0  0  0  0  0  0  0  0  0  0  0
    9.2140   12.8092   23.7023 C   0  0  0  0  0  0  0  0  0  0  0  0
    9.8115   11.6604   23.1978 C   0  0  0  0  0  0  0  0  0  0  0  0
    9.3369   10.4216   23.5834 C   0  0  0  0  0  0  0  0  0  0  0  0
   10.0895    9.0209   22.9771 Cl  0  0  0  0  0  0  0  0  0  0  0  0
    8.2826   10.2978   24.4902 C   0  0  0  0  0  0  0  0  0  0  0  0
    7.6868   11.4561   25.0161 C   0  0  0  0  0  0  0  0  0  0  0  0
    6.6309   11.7004   25.9298 C   0  0  0  0  0  0  0  0  0  0  0  0
    6.4867   13.0672   26.0583 C   0  0  0  0  0  0  0  0  0  0  0  0
    5.5224   13.8765   26.8594 C   0  0  0  0  0  0  0  0  0  0  0  0
    4.3997   14.4329   25.9975 C   0  0  0  0  0  0  0  0  0  0  0  0
    7.4289   13.6596   25.2543 N   0  0  0  0  0  0  0  0  0  0  0  0
    8.1681   12.6972   24.6120 C   0  0  0  0  0  0  0  0  0  0  0  0
  1  2  2  0
  2  3  1  0
  2  4  1  0
  4  5  1  0
  5  6  1  0
  6  7  2  0
  6  8  1  0
  8  9  2  0
  9 10  1  0
 10 11  1  0
 10 12  2  0
 12 13  1  0
 13 14  1  0
 14 15  2  0
 15 16  1  0
 16 17  1  0
 15 18  1  0
 18 19  1  0
 19  8  1  0
 19 13  2  0
M  END
>  <alias>  (1842) 
None

>  <rmsd(smina/fragmenstein)>  (1842) 
0.68

>  <smiles>  (1842) 
C=C(Cl)CNC(=O)c1cc(Cl)cc2cc(CC)[nH]c12

>  <gnina_score>  (1842) 
5.652

>  <inspiration_score>  (1842) 
None

>  <energy_score>  (1842) 
-3.685081

>  <distance_score>  (1842) 
1.383903

>  <gnina_score_min>  (1842) 
5.605

>  <inchikey>  (1842) 
BOVLEXPIEDSUSZ-UHFFFAOYSA-N

>  <exports>  (1842) 
['/opt/xchem-fragalysis-2/maxwin/BulkDock/OUTPUTS/openbind_a71ev2a_c2_elabs_1LOUU54.sdf', '/opt/xchem-fragalysis-2/maxwin/BulkDock/OUTPUTS/openbind_a71ev2a_c2_elabs_1LSYIDY.sdf']

>  <name>  (1842) 
P585594

>  <ref_pdb>  (1842) 
A0566a

>  <subsites>  (1842) 
None

>  <HIPPO Pose ID>  (1842) 
585594

>  <ref_mols>  (1842) 
A0566a

>  <HIPPO Compound ID>  (1842) 
440752

>  <tags>  (1842) 
openbind_a71ev2a_c2_elabs,syndirella_product,openbind_a71ev2a_c2_elabs_fragonly_scored_top80percent,BulkDock Fragalysis export,openbind_a71ev2a_c2_elabs_scored,openbind_a71ev2a_c2_elabs_scored_top80percent,openbind_a71ev2a_c2_elabs_activefrags_only_scored_5.2plus,openbind_a71ev2a_c2_elabs_activefrags_only_scored_5.5plus,syndirella_placed

>  <smina_score_min>  (1842) 
-5.805

$$$$
P585596
     RDKit          3D

 19 20  0  0  0  0  0  0  0  0999 V2000
   11.0574   15.0545   18.8113 C   0  0  0  0  0  0  0  0  0  0  0  0
   10.4814   15.3169   19.9926 C   0  0  0  0  0  0  0  0  0  0  0  0
   11.0824   15.1519   21.3579 C   0  0  2  0  0  0  0  0  0  0  0  0
   12.5492   14.7786   21.4546 C   0  0  0  0  0  0  0  0  0  0  0  0
   10.3454   14.1182   22.0115 N   0  0  0  0  0  0  0  0  0  0  0  0
    9.8300   14.0202   23.4517 C   0  0  0  0  0  0  0  0  0  0  0  0
    9.8554   14.7983   24.3172 O   0  0  0  0  0  0  0  0  0  0  0  0
    9.2630   12.6958   23.7371 C   0  0  0  0  0  0  0  0  0  0  0  0
    9.8512   11.5417   23.2312 C   0  0  0  0  0  0  0  0  0  0  0  0
    9.3577   10.3009   23.5834 C   0  0  0  0  0  0  0  0  0  0  0  0
   10.1457    8.9157   22.9922 Cl  0  0  0  0  0  0  0  0  0  0  0  0
    8.2860   10.1682   24.4636 C   0  0  0  0  0  0  0  0  0  0  0  0
    7.6913   11.3204   24.9971 C   0  0  0  0  0  0  0  0  0  0  0  0
    6.6320   11.5549   25.9093 C   0  0  0  0  0  0  0  0  0  0  0  0
    6.5098   12.9188   26.0773 C   0  0  0  0  0  0  0  0  0  0  0  0
    5.5670   13.7177   26.9119 C   0  0  0  0  0  0  0  0  0  0  0  0
    6.1526   14.0103   28.2845 C   0  0  0  0  0  0  0  0  0  0  0  0
    7.4557   13.5167   25.2842 N   0  0  0  0  0  0  0  0  0  0  0  0
    8.1917   12.5613   24.6226 C   0  0  0  0  0  0  0  0  0  0  0  0
  1  2  2  0
  2  3  1  0
  3  4  1  6
  3  5  1  0
  5  6  1  0
  6  7  2  0
  6  8  1  0
  8  9  2  0
  9 10  1  0
 10 11  1  0
 10 12  2  0
 12 13  1  0
 13 14  1  0
 14 15  2  0
 15 16  1  0
 16 17  1  0
 15 18  1  0
 18 19  1  0
 19  8  1  0
 19 13  2  0
M  END
>  <alias>  (1843) 
None

>  <rmsd(smina/fragmenstein)>  (1843) 
0.29

>  <smiles>  (1843) 
C=C[C@H](C)NC(=O)c1cc(Cl)cc2cc(CC)[nH]c12

>  <gnina_score>  (1843) 
5.526

>  <inspiration_score>  (1843) 
None

>  <energy_score>  (1843) 
-15.143181

>  <distance_score>  (1843) 
1.198187

>  <gnina_score_min>  (1843) 
5.542

>  <inchikey>  (1843) 
JCOJCOCFKJKNRN-VIFPVBQESA-N

>  <exports>  (1843) 
['/opt/xchem-fragalysis-2/maxwin/BulkDock/OUTPUTS/openbind_a71ev2a_c2_elabs_1LOUU54.sdf', '/opt/xchem-fragalysis-2/maxwin/BulkDock/OUTPUTS/openbind_a71ev2a_c2_elabs_1LSYIDY.sdf']

>  <name>  (1843) 
P585596

>  <ref_pdb>  (1843) 
A0566a

>  <subsites>  (1843) 
None

>  <HIPPO Pose ID>  (1843) 
585596

>  <ref_mols>  (1843) 
A0566a

>  <HIPPO Compound ID>  (1843) 
440753

>  <tags>  (1843) 
openbind_a71ev2a_c2_elabs,syndirella_product,openbind_a71ev2a_c2_elabs_fragonly_scored_top80percent,BulkDock Fragalysis export,openbind_a71ev2a_c2_elabs_scored,openbind_a71ev2a_c2_elabs_scored_top80percent,openbind_a71ev2a_c2_elabs_activefrags_only_scored_5.2plus,openbind_a71ev2a_c2_elabs_activefrags_only_scored_5.5plus,syndirella_placed

>  <smina_score_min>  (1843) 
-6.055

$$$$
P585598
     RDKit          3D

 19 20  0  0  0  0  0  0  0  0999 V2000
   12.1974   14.4640   19.6836 C   0  0  0  0  0  0  0  0  0  0  0  0
   11.7333   14.9455   20.8364 C   0  0  0  0  0  0  0  0  0  0  0  0
   12.6086   15.1305   21.8509 F   0  0  0  0  0  0  0  0  0  0  0  0
   10.2963   15.2349   21.0685 C   0  0  0  0  0  0  0  0  0  0  0  0
    9.8414   14.1369   21.8548 N   0  0  0  0  0  0  0  0  0  0  0  0
    9.4511   14.0661   23.3333 C   0  0  0  0  0  0  0  0  0  0  0  0
    9.3635   14.9074   24.1314 O   0  0  0  0  0  0  0  0  0  0  0  0
    9.1025   12.6968   23.7395 C   0  0  0  0  0  0  0  0  0  0  0  0
    9.7654   11.5733   23.2554 C   0  0  0  0  0  0  0  0  0  0  0  0
    9.3334   10.3116   23.6216 C   0  0  0  0  0  0  0  0  0  0  0  0
   10.1487    8.9522   23.0030 Cl  0  0  0  0  0  0  0  0  0  0  0  0
    8.2758   10.1322   24.5135 C   0  0  0  0  0  0  0  0  0  0  0  0
    7.6415   11.2554   25.0609 C   0  0  0  0  0  0  0  0  0  0  0  0
    6.5837   11.4508   25.9856 C   0  0  0  0  0  0  0  0  0  0  0  0
    6.3955   12.8099   26.1384 C   0  0  0  0  0  0  0  0  0  0  0  0
    5.4290   13.5782   26.9755 C   0  0  0  0  0  0  0  0  0  0  0  0
    4.3716   14.2761   26.1341 C   0  0  0  0  0  0  0  0  0  0  0  0
    7.3035   13.4407   25.3275 N   0  0  0  0  0  0  0  0  0  0  0  0
    8.0712   12.5122   24.6632 C   0  0  0  0  0  0  0  0  0  0  0  0
  1  2  2  0
  2  3  1  0
  2  4  1  0
  4  5  1  0
  5  6  1  0
  6  7  2  0
  6  8  1  0
  8  9  2  0
  9 10  1  0
 10 11  1  0
 10 12  2  0
 12 13  1  0
 13 14  1  0
 14 15  2  0
 15 16  1  0
 16 17  1  0
 15 18  1  0
 18 19  1  0
 19  8  1  0
 19 13  2  0
M  END
>  <alias>  (1844) 
None

>  <rmsd(smina/fragmenstein)>  (1844) 
0.834

>  <smiles>  (1844) 
C=C(F)CNC(=O)c1cc(Cl)cc2cc(CC)[nH]c12

>  <gnina_score>  (1844) 
5.513

>  <inspiration_score>  (1844) 
None

>  <energy_score>  (1844) 
-1.573376

>  <distance_score>  (1844) 
1.489559

>  <gnina_score_min>  (1844) 
5.418

>  <inchikey>  (1844) 
YUUQUCHJPAWHME-UHFFFAOYSA-N

>  <exports>  (1844) 
['/opt/xchem-fragalysis-2/maxwin/BulkDock/OUTPUTS/openbind_a71ev2a_c2_elabs_1LOUU54.sdf', '/opt/xchem-fragalysis-2/maxwin/BulkDock/OUTPUTS/openbind_a71ev2a_c2_elabs_1LSYIDY.sdf']

>  <name>  (1844) 
P585598

>  <ref_pdb>  (1844) 
A0566a

>  <subsites>  (1844) 
None

>  <HIPPO Pose ID>  (1844) 
585598

>  <ref_mols>  (1844) 
A0566a

>  <HIPPO Compound ID>  (1844) 
440759

>  <tags>  (1844) 
openbind_a71ev2a_c2_elabs,syndirella_product,openbind_a71ev2a_c2_elabs_fragonly_scored_top80percent,openbind_a71ev2a_c2_elabs_scored,BulkDock Fragalysis export,openbind_a71ev2a_c2_elabs_scored_top80percent,openbind_a71ev2a_c2_elabs_activefrags_only_scored_5.2plus,syndirella_placed

>  <smina_score_min>  (1844) 
-5.705

$$$$
P585599
     RDKit          3D

 19 20  0  0  0  0  0  0  0  0999 V2000
    5.7750   13.4133   28.6877 C   0  0  0  0  0  0  0  0  0  0  0  0
    5.1984   13.1288   27.3097 C   0  0  0  0  0  0  0  0  0  0  0  0
    6.2113   12.4975   26.4163 C   0  0  0  0  0  0  0  0  0  0  0  0
    6.4956   11.1698   26.1693 C   0  0  0  0  0  0  0  0  0  0  0  0
    7.5541   11.1167   25.2291 C   0  0  0  0  0  0  0  0  0  0  0  0
    8.2461   10.0854   24.5836 C   0  0  0  0  0  0  0  0  0  0  0  0
    9.2678   10.3947   23.6850 C   0  0  0  0  0  0  0  0  0  0  0  0
   10.0920    9.1164   22.9194 Cl  0  0  0  0  0  0  0  0  0  0  0  0
    9.6147   11.7068   23.4077 C   0  0  0  0  0  0  0  0  0  0  0  0
    8.8859   12.7407   24.0000 C   0  0  0  0  0  0  0  0  0  0  0  0
    8.9664   14.1451   23.5706 C   0  0  0  0  0  0  0  0  0  0  0  0
    8.9282   15.0023   24.3557 O   0  0  0  0  0  0  0  0  0  0  0  0
    8.9936   14.1998   22.0429 N   0  0  0  0  0  0  0  0  0  0  0  0
    9.0742   15.3101   21.1595 C   0  0  0  0  0  0  0  0  0  0  0  0
   10.4796   15.6768   20.7175 C   0  0  2  0  0  0  0  0  0  0  0  0
   10.8146   15.1273   19.3424 C   0  0  0  0  0  0  0  0  0  0  0  0
   11.8867   15.0918   21.9625 Br  0  0  0  0  0  0  0  0  0  0  0  0
    7.8912   12.4240   24.9237 C   0  0  0  0  0  0  0  0  0  0  0  0
    7.0461   13.2478   25.6299 N   0  0  0  0  0  0  0  0  0  0  0  0
  1  2  1  0
  2  3  1  0
  3  4  2  0
  4  5  1  0
  5  6  2  0
  6  7  1  0
  7  8  1  0
  7  9  2  0
  9 10  1  0
 10 11  1  0
 11 12  2  0
 11 13  1  0
 13 14  1  0
 14 15  1  0
 15 16  1  6
 15 17  1  0
 10 18  2  0
 18 19  1  0
 19  3  1  0
 18  5  1  0
M  END
>  <alias>  (1845) 
None

>  <rmsd(smina/fragmenstein)>  (1845) 
0.227

>  <smiles>  (1845) 
CCc1cc2cc(Cl)cc(C(=O)NC[C@H](C)Br)c2[nH]1

>  <gnina_score>  (1845) 
5.651

>  <inspiration_score>  (1845) 
None

>  <energy_score>  (1845) 
-9.116707

>  <distance_score>  (1845) 
1.902732

>  <gnina_score_min>  (1845) 
5.582

>  <inchikey>  (1845) 
SUGJXQBITHIWHN-QMMMGPOBSA-N

>  <exports>  (1845) 
['/opt/xchem-fragalysis-2/maxwin/BulkDock/OUTPUTS/openbind_a71ev2a_c2_elabs_1LOUU54.sdf', '/opt/xchem-fragalysis-2/maxwin/BulkDock/OUTPUTS/openbind_a71ev2a_c2_elabs_1LSYIDY.sdf']

>  <name>  (1845) 
P585599

>  <ref_pdb>  (1845) 
A0566a

>  <subsites>  (1845) 
None

>  <HIPPO Pose ID>  (1845) 
585599

>  <ref_mols>  (1845) 
A0566a

>  <HIPPO Compound ID>  (1845) 
440760

>  <tags>  (1845) 
openbind_a71ev2a_c2_elabs,syndirella_product,openbind_a71ev2a_c2_elabs_fragonly_scored_top80percent,BulkDock Fragalysis export,openbind_a71ev2a_c2_elabs_scored,openbind_a71ev2a_c2_elabs_scored_top80percent,openbind_a71ev2a_c2_elabs_activefrags_only_scored_5.2plus,openbind_a71ev2a_c2_elabs_activefrags_only_scored_5.5plus,syndirella_placed

>  <smina_score_min>  (1845) 
-5.976

$$$$
P585600
     RDKit          3D

 19 21  0  0  0  0  0  0  0  0999 V2000
    4.4208   14.2998   26.0614 C   0  0  0  0  0  0  0  0  0  0  0  0
    5.4589   13.6053   26.9292 C   0  0  0  0  0  0  0  0  0  0  0  0
    6.4249   12.8096   26.1169 C   0  0  0  0  0  0  0  0  0  0  0  0
    6.5691   11.4453   25.9602 C   0  0  0  0  0  0  0  0  0  0  0  0
    7.6389   11.2171   25.0576 C   0  0  0  0  0  0  0  0  0  0  0  0
    8.2494   10.0729   24.5191 C   0  0  0  0  0  0  0  0  0  0  0  0
    9.3286   10.2167   23.6481 C   0  0  0  0  0  0  0  0  0  0  0  0
   10.1572    8.8585   23.0496 Cl  0  0  0  0  0  0  0  0  0  0  0  0
    9.8094   11.4609   23.3061 C   0  0  0  0  0  0  0  0  0  0  0  0
    9.1986   12.6024   23.8097 C   0  0  0  0  0  0  0  0  0  0  0  0
    9.7101   13.9317   23.4836 C   0  0  0  0  0  0  0  0  0  0  0  0
    9.7500   14.7389   24.3237 O   0  0  0  0  0  0  0  0  0  0  0  0
   10.1457   14.0031   22.0105 N   0  0  0  0  0  0  0  0  0  0  0  0
   10.7903   15.0195   21.3036 C   0  0  0  0  0  0  0  0  0  0  0  0
    9.8675   16.0212   20.6558 C   0  0  0  0  0  0  0  0  0  0  0  0
   12.1472   15.4204   21.8287 C   0  0  0  0  0  0  0  0  0  0  0  0
   12.0425   14.6660   20.5422 C   0  0  0  0  0  0  0  0  0  0  0  0
    8.1281   12.4622   24.6892 C   0  0  0  0  0  0  0  0  0  0  0  0
    7.3781   13.4143   25.3376 N   0  0  0  0  0  0  0  0  0  0  0  0
  1  2  1  0
  2  3  1  0
  3  4  2  0
  4  5  1  0
  5  6  2  0
  6  7  1  0
  7  8  1  0
  7  9  2  0
  9 10  1  0
 10 11  1  0
 11 12  2  0
 11 13  1  0
 13 14  1  0
 14 15  1  0
 14 16  1  0
 16 17  1  0
 10 18  2  0
 18 19  1  0
 19  3  1  0
 18  5  1  0
 17 14  1  0
M  END
>  <alias>  (1846) 
None

>  <rmsd(smina/fragmenstein)>  (1846) 
0.115

>  <smiles>  (1846) 
CCc1cc2cc(Cl)cc(C(=O)NC3(C)CC3)c2[nH]1

>  <gnina_score>  (1846) 
5.651

>  <inspiration_score>  (1846) 
None

>  <energy_score>  (1846) 
-14.813378

>  <distance_score>  (1846) 
1.302693

>  <gnina_score_min>  (1846) 
5.641

>  <inchikey>  (1846) 
UPGLKVYGTKYHOO-UHFFFAOYSA-N

>  <exports>  (1846) 
['/opt/xchem-fragalysis-2/maxwin/BulkDock/OUTPUTS/openbind_a71ev2a_c2_elabs_1LOUU54.sdf', '/opt/xchem-fragalysis-2/maxwin/BulkDock/OUTPUTS/openbind_a71ev2a_c2_elabs_1LSYIDY.sdf']

>  <name>  (1846) 
P585600

>  <ref_pdb>  (1846) 
A0566a

>  <subsites>  (1846) 
None

>  <HIPPO Pose ID>  (1846) 
585600

>  <ref_mols>  (1846) 
A0566a

>  <HIPPO Compound ID>  (1846) 
440761

>  <tags>  (1846) 
openbind_a71ev2a_c2_elabs,syndirella_product,openbind_a71ev2a_c2_elabs_fragonly_scored_top80percent,BulkDock Fragalysis export,openbind_a71ev2a_c2_elabs_scored,openbind_a71ev2a_c2_elabs_scored_top80percent,openbind_a71ev2a_c2_elabs_activefrags_only_scored_5.2plus,openbind_a71ev2a_c2_elabs_activefrags_only_scored_5.5plus,syndirella_placed

>  <smina_score_min>  (1846) 
-6.076

$$$$
P585602
     RDKit          3D

 19 20  0  0  0  0  0  0  0  0999 V2000
    5.9929   13.7569   28.5216 C   0  0  0  0  0  0  0  0  0  0  0  0
    5.4803   13.6122   27.0973 C   0  0  0  0  0  0  0  0  0  0  0  0
    6.4281   12.8278   26.2548 C   0  0  0  0  0  0  0  0  0  0  0  0
    6.4858   11.4765   25.9804 C   0  0  0  0  0  0  0  0  0  0  0  0
    7.5789   11.2511   25.1067 C   0  0  0  0  0  0  0  0  0  0  0  0
    8.1472   10.1065   24.5208 C   0  0  0  0  0  0  0  0  0  0  0  0
    9.2484   10.2464   23.6850 C   0  0  0  0  0  0  0  0  0  0  0  0
   10.0404    8.9064   23.0002 Cl  0  0  0  0  0  0  0  0  0  0  0  0
    9.8299   11.4755   23.4869 C   0  0  0  0  0  0  0  0  0  0  0  0
    9.3413   12.6117   24.1338 C   0  0  0  0  0  0  0  0  0  0  0  0
   10.1558   13.8411   24.1855 C   0  0  0  0  0  0  0  0  0  0  0  0
   10.1453   14.5124   25.1337 O   0  0  0  0  0  0  0  0  0  0  0  0
   10.9862   13.9417   22.9131 N   0  0  0  0  0  0  0  0  0  0  0  0
   12.0366   14.8195   22.5697 C   0  0  0  0  0  0  0  0  0  0  0  0
   11.9536   15.1926   21.1082 C   0  0  1  0  0  0  0  0  0  0  0  0
   12.4266   14.1196   20.1594 C   0  0  0  0  0  0  0  0  0  0  0  0
   10.2435   15.6940   20.6293 S   0  0  0  0  0  0  0  0  0  0  0  0
    8.1804   12.4854   24.8885 C   0  0  0  0  0  0  0  0  0  0  0  0
    7.4593   13.4291   25.5796 N   0  0  0  0  0  0  0  0  0  0  0  0
  1  2  1  0
  2  3  1  0
  3  4  2  0
  4  5  1  0
  5  6  2  0
  6  7  1  0
  7  8  1  0
  7  9  2  0
  9 10  1  0
 10 11  1  0
 11 12  2  0
 11 13  1  0
 13 14  1  0
 14 15  1  0
 15 16  1  6
 15 17  1  0
 10 18  2  0
 18 19  1  0
 19  3  1  0
 18  5  1  0
M  END
>  <alias>  (1847) 
None

>  <rmsd(smina/fragmenstein)>  (1847) 
0.44

>  <smiles>  (1847) 
CCc1cc2cc(Cl)cc(C(=O)NC[C@@H](C)S)c2[nH]1

>  <gnina_score>  (1847) 
5.484

>  <inspiration_score>  (1847) 
None

>  <energy_score>  (1847) 
-36.999319

>  <distance_score>  (1847) 
1.121896

>  <gnina_score_min>  (1847) 
5.598

>  <inchikey>  (1847) 
IBFCCBSWRNYQNR-MRVPVSSYSA-N

>  <exports>  (1847) 
['/opt/xchem-fragalysis-2/maxwin/BulkDock/OUTPUTS/openbind_a71ev2a_c2_elabs_1LOUU54.sdf', '/opt/xchem-fragalysis-2/maxwin/BulkDock/OUTPUTS/openbind_a71ev2a_c2_elabs_1LSYIDY.sdf']

>  <name>  (1847) 
P585602

>  <ref_pdb>  (1847) 
A0566a

>  <subsites>  (1847) 
None

>  <HIPPO Pose ID>  (1847) 
585602

>  <ref_mols>  (1847) 
A0566a

>  <HIPPO Compound ID>  (1847) 
440763

>  <tags>  (1847) 
openbind_a71ev2a_c2_elabs,syndirella_product,openbind_a71ev2a_c2_elabs_fragonly_scored_top80percent,BulkDock Fragalysis export,openbind_a71ev2a_c2_elabs_scored,openbind_a71ev2a_c2_elabs_scored_top80percent,openbind_a71ev2a_c2_elabs_activefrags_only_scored_5.2plus,openbind_a71ev2a_c2_elabs_activefrags_only_scored_5.5plus,syndirella_placed

>  <smina_score_min>  (1847) 
-5.351

$$$$
P585603
     RDKit          3D

 19 20  0  0  0  0  0  0  0  0999 V2000
   12.7985   15.2840   21.8450 C   0  0  0  0  0  0  0  0  0  0  0  0
   12.1663   14.3424   20.8491 C   0  0  0  0  0  0  0  0  0  0  0  0
   10.9999   14.9043   20.0401 C   0  0  0  0  0  0  0  0  0  0  0  0
    9.8329   15.4062   20.8813 C   0  0  0  0  0  0  0  0  0  0  0  0
    9.3856   14.3812   21.7865 N   0  0  0  0  0  0  0  0  0  0  0  0
    9.7538   14.1153   23.2529 C   0  0  0  0  0  0  0  0  0  0  0  0
   10.4181   14.7267   23.9869 O   0  0  0  0  0  0  0  0  0  0  0  0
    9.2189   12.8268   23.6812 C   0  0  0  0  0  0  0  0  0  0  0  0
    9.8105   11.6685   23.1889 C   0  0  0  0  0  0  0  0  0  0  0  0
    9.3339   10.4332   23.5826 C   0  0  0  0  0  0  0  0  0  0  0  0
   10.0845    9.0273   22.9851 Cl  0  0  0  0  0  0  0  0  0  0  0  0
    8.2815   10.3198   24.4903 C   0  0  0  0  0  0  0  0  0  0  0  0
    7.6939   11.4850   25.0099 C   0  0  0  0  0  0  0  0  0  0  0  0
    6.6469   11.7346   25.9313 C   0  0  0  0  0  0  0  0  0  0  0  0
    6.5151   13.1016   26.0642 C   0  0  0  0  0  0  0  0  0  0  0  0
    5.5727   13.9119   26.8896 C   0  0  0  0  0  0  0  0  0  0  0  0
    6.1754   14.2567   28.2424 C   0  0  0  0  0  0  0  0  0  0  0  0
    7.4421   13.6896   25.2396 N   0  0  0  0  0  0  0  0  0  0  0  0
    8.1761   12.7243   24.5957 C   0  0  0  0  0  0  0  0  0  0  0  0
  1  2  1  0
  2  3  1  0
  3  4  1  0
  4  5  1  0
  5  6  1  0
  6  7  2  0
  6  8  1  0
  8  9  2  0
  9 10  1  0
 10 11  1  0
 10 12  2  0
 12 13  1  0
 13 14  1  0
 14 15  2  0
 15 16  1  0
 16 17  1  0
 15 18  1  0
 18 19  1  0
 19  8  1  0
 19 13  2  0
M  END
>  <alias>  (1848) 
None

>  <rmsd(smina/fragmenstein)>  (1848) 
0.685

>  <smiles>  (1848) 
CCCCNC(=O)c1cc(Cl)cc2cc(CC)[nH]c12

>  <gnina_score>  (1848) 
5.4

>  <inspiration_score>  (1848) 
None

>  <energy_score>  (1848) 
-5.08289

>  <distance_score>  (1848) 
1.397903

>  <gnina_score_min>  (1848) 
5.455

>  <inchikey>  (1848) 
HQFPDJGNDFAWMD-UHFFFAOYSA-N

>  <exports>  (1848) 
['/opt/xchem-fragalysis-2/maxwin/BulkDock/OUTPUTS/openbind_a71ev2a_c2_elabs_1LOUU54.sdf', '/opt/xchem-fragalysis-2/maxwin/BulkDock/OUTPUTS/openbind_a71ev2a_c2_elabs_1LSYIDY.sdf']

>  <name>  (1848) 
P585603

>  <ref_pdb>  (1848) 
A0566a

>  <subsites>  (1848) 
None

>  <HIPPO Pose ID>  (1848) 
585603

>  <ref_mols>  (1848) 
A0566a

>  <HIPPO Compound ID>  (1848) 
440764

>  <tags>  (1848) 
openbind_a71ev2a_c2_elabs,syndirella_product,openbind_a71ev2a_c2_elabs_fragonly_scored_top80percent,openbind_a71ev2a_c2_elabs_scored,BulkDock Fragalysis export,openbind_a71ev2a_c2_elabs_scored_top80percent,openbind_a71ev2a_c2_elabs_activefrags_only_scored_5.2plus,syndirella_placed

>  <smina_score_min>  (1848) 
-5.373

$$$$
P585652
     RDKit          3D

 20 21  0  0  0  0  0  0  0  0999 V2000
    2.6815   12.6851   28.4382 C   0  0  0  0  0  0  0  0  0  0  0  0
    3.7606   13.6571   28.0015 C   0  0  0  0  0  0  0  0  0  0  0  0
    4.7401   12.9282   27.2528 O   0  0  0  0  0  0  0  0  0  0  0  0
    5.7383   13.7062   26.7484 C   0  0  0  0  0  0  0  0  0  0  0  0
    5.8592   14.9093   26.9301 O   0  0  0  0  0  0  0  0  0  0  0  0
    6.6513   12.9036   25.9757 C   0  0  0  0  0  0  0  0  0  0  0  0
    6.7314   11.5342   25.7970 C   0  0  0  0  0  0  0  0  0  0  0  0
    7.8065   11.2607   24.9138 C   0  0  0  0  0  0  0  0  0  0  0  0
    8.3496   10.0831   24.3753 C   0  0  0  0  0  0  0  0  0  0  0  0
    9.4119   10.1506   23.4764 C   0  0  0  0  0  0  0  0  0  0  0  0
    9.9614   11.3841   23.1530 C   0  0  0  0  0  0  0  0  0  0  0  0
    9.4679   12.5742   23.6945 C   0  0  0  0  0  0  0  0  0  0  0  0
   10.0974   13.8884   23.4236 C   0  0  0  0  0  0  0  0  0  0  0  0
   10.0887   14.6738   24.2829 O   0  0  0  0  0  0  0  0  0  0  0  0
   10.6025   13.9994   21.9810 N   0  0  0  0  0  0  0  0  0  0  0  0
   11.2921   15.0701   21.3112 C   0  0  0  0  0  0  0  0  0  0  0  0
   11.6817   14.6676   19.9575 C   0  0  0  0  0  0  0  0  0  0  0  0
   11.9738   14.2912   18.9002 N   0  0  0  0  0  0  0  0  0  0  0  0
    8.3766   12.4801   24.5673 C   0  0  0  0  0  0  0  0  0  0  0  0
    7.6698   13.4566   25.2327 N   0  0  0  0  0  0  0  0  0  0  0  0
  1  2  1  0
  2  3  1  0
  3  4  1  0
  4  5  2  0
  4  6  1  0
  6  7  2  0
  7  8  1  0
  8  9  2  0
  9 10  1  0
 10 11  2  0
 11 12  1  0
 12 13  1  0
 13 14  2  0
 13 15  1  0
 15 16  1  0
 16 17  1  0
 17 18  3  0
 12 19  2  0
 19 20  1  0
 20  6  1  0
 19  8  1  0
M  END
>  <alias>  (1849) 
None

>  <rmsd(smina/fragmenstein)>  (1849) 
2.01

>  <smiles>  (1849) 
CCOC(=O)c1cc2cccc(C(=O)NCC#N)c2[nH]1

>  <gnina_score>  (1849) 
5.169

>  <inspiration_score>  (1849) 
None

>  <energy_score>  (1849) 
-10.347754

>  <distance_score>  (1849) 
1.039396

>  <gnina_score_min>  (1849) 
5.258

>  <inchikey>  (1849) 
JKHIQBURJYMGKD-UHFFFAOYSA-N

>  <exports>  (1849) 
['/opt/xchem-fragalysis-2/maxwin/BulkDock/OUTPUTS/openbind_a71ev2a_c2_elabs_1LOUU54.sdf', '/opt/xchem-fragalysis-2/maxwin/BulkDock/OUTPUTS/openbind_a71ev2a_c2_elabs_1LSYIDY.sdf']

>  <name>  (1849) 
P585652

>  <ref_pdb>  (1849) 
A0566a

>  <subsites>  (1849) 
None

>  <HIPPO Pose ID>  (1849) 
585652

>  <ref_mols>  (1849) 
A0566a

>  <HIPPO Compound ID>  (1849) 
440827

>  <tags>  (1849) 
openbind_a71ev2a_c2_elabs,syndirella_product,openbind_a71ev2a_c2_elabs_fragonly_scored_top80percent,openbind_a71ev2a_c2_elabs_scored,BulkDock Fragalysis export,openbind_a71ev2a_c2_elabs_scored_top80percent,openbind_a71ev2a_c2_elabs_activefrags_only_scored_5.2plus,syndirella_placed

>  <smina_score_min>  (1849) 
-5.567

$$$$
P585659
     RDKit          3D

 20 21  0  0  0  0  0  0  0  0999 V2000
    4.2347   16.9123   25.8838 C   0  0  0  0  0  0  0  0  0  0  0  0
    5.3424   16.6133   26.8765 C   0  0  0  0  0  0  0  0  0  0  0  0
    6.1552   15.5310   26.3986 O   0  0  0  0  0  0  0  0  0  0  0  0
    5.6994   14.2755   26.6632 C   0  0  0  0  0  0  0  0  0  0  0  0
    4.7164   13.9991   27.3365 O   0  0  0  0  0  0  0  0  0  0  0  0
    6.5636   13.3183   26.0181 C   0  0  0  0  0  0  0  0  0  0  0  0
    6.4583   11.9389   25.9771 C   0  0  0  0  0  0  0  0  0  0  0  0
    7.4986   11.4336   25.1571 C   0  0  0  0  0  0  0  0  0  0  0  0
    7.8812   10.1475   24.7443 C   0  0  0  0  0  0  0  0  0  0  0  0
    8.9402    9.9962   23.8517 C   0  0  0  0  0  0  0  0  0  0  0  0
    9.6759   11.0941   23.4538 C   0  0  0  0  0  0  0  0  0  0  0  0
    9.3838   12.3771   23.9351 C   0  0  0  0  0  0  0  0  0  0  0  0
   10.3287   13.5051   23.7635 C   0  0  0  0  0  0  0  0  0  0  0  0
   10.4076   14.3100   24.5995 O   0  0  0  0  0  0  0  0  0  0  0  0
   11.1352   13.3284   22.4804 N   0  0  0  0  0  0  0  0  0  0  0  0
   12.2592   14.0347   21.9973 C   0  0  0  0  0  0  0  0  0  0  0  0
   11.8752   15.3447   21.3806 C   0  0  0  0  0  0  0  0  0  0  0  0
   10.6574   15.1624   20.0325 S   0  0  0  0  0  0  0  0  0  0  0  0
    8.2518   12.5229   24.7378 C   0  0  0  0  0  0  0  0  0  0  0  0
    7.6802   13.6460   25.2848 N   0  0  0  0  0  0  0  0  0  0  0  0
  1  2  1  0
  2  3  1  0
  3  4  1  0
  4  5  2  0
  4  6  1  0
  6  7  2  0
  7  8  1  0
  8  9  2  0
  9 10  1  0
 10 11  2  0
 11 12  1  0
 12 13  1  0
 13 14  2  0
 13 15  1  0
 15 16  1  0
 16 17  1  0
 17 18  1  0
 12 19  2  0
 19 20  1  0
 20  6  1  0
 19  8  1  0
M  END
>  <alias>  (1850) 
None

>  <rmsd(smina/fragmenstein)>  (1850) 
0.918

>  <smiles>  (1850) 
CCOC(=O)c1cc2cccc(C(=O)NCCS)c2[nH]1

>  <gnina_score>  (1850) 
5.139

>  <inspiration_score>  (1850) 
None

>  <energy_score>  (1850) 
-11.685002

>  <distance_score>  (1850) 
1.160912

>  <gnina_score_min>  (1850) 
5.273

>  <inchikey>  (1850) 
GVPBJEASEYJHGC-UHFFFAOYSA-N

>  <exports>  (1850) 
['/opt/xchem-fragalysis-2/maxwin/BulkDock/OUTPUTS/openbind_a71ev2a_c2_elabs_1LOUU54.sdf', '/opt/xchem-fragalysis-2/maxwin/BulkDock/OUTPUTS/openbind_a71ev2a_c2_elabs_1LSYIDY.sdf']

>  <name>  (1850) 
P585659

>  <ref_pdb>  (1850) 
A0566a

>  <subsites>  (1850) 
None

>  <HIPPO Pose ID>  (1850) 
585659

>  <ref_mols>  (1850) 
A0566a

>  <HIPPO Compound ID>  (1850) 
440835

>  <tags>  (1850) 
openbind_a71ev2a_c2_elabs,syndirella_product,openbind_a71ev2a_c2_elabs_fragonly_scored_top80percent,openbind_a71ev2a_c2_elabs_scored,BulkDock Fragalysis export,openbind_a71ev2a_c2_elabs_scored_top80percent,openbind_a71ev2a_c2_elabs_activefrags_only_scored_5.2plus,syndirella_placed

>  <smina_score_min>  (1850) 
-5.549

$$$$
P585663
     RDKit          3D

 20 22  0  0  0  0  0  0  0  0999 V2000
    6.1064   11.8336   29.3322 C   0  0  0  0  0  0  0  0  0  0  0  0
    5.1870   11.7635   28.1086 C   0  0  1  0  0  0  0  0  0  0  0  0
    4.7506   13.1765   27.6475 C   0  0  0  0  0  0  0  0  0  0  0  0
    5.9077   14.0234   27.0874 C   0  0  0  0  0  0  0  0  0  0  0  0
    6.7592   13.1804   26.2069 C   0  0  0  0  0  0  0  0  0  0  0  0
    7.7301   13.6576   25.3803 N   0  0  0  0  0  0  0  0  0  0  0  0
    8.3442   12.6069   24.7331 C   0  0  0  0  0  0  0  0  0  0  0  0
    9.4395   12.6060   23.8652 C   0  0  0  0  0  0  0  0  0  0  0  0
   10.2599   13.8383   23.7371 C   0  0  0  0  0  0  0  0  0  0  0  0
   10.3656   14.5205   24.6740 O   0  0  0  0  0  0  0  0  0  0  0  0
   10.9197   13.9334   22.3627 N   0  0  0  0  0  0  0  0  0  0  0  0
   11.9200   14.8277   21.8727 C   0  0  0  0  0  0  0  0  0  0  0  0
   12.3637   14.4564   20.4781 C   0  0  0  0  0  0  0  0  0  0  0  0
   11.1292   14.9113   19.2271 S   0  0  0  0  0  0  0  0  0  0  0  0
    9.8134   11.3812   23.2955 C   0  0  0  0  0  0  0  0  0  0  0  0
    9.1652   10.2004   23.6343 C   0  0  0  0  0  0  0  0  0  0  0  0
    8.1379   10.2149   24.5804 C   0  0  0  0  0  0  0  0  0  0  0  0
    7.7046   11.4344   25.1315 C   0  0  0  0  0  0  0  0  0  0  0  0
    6.7467   11.8047   26.1168 C   0  0  0  0  0  0  0  0  0  0  0  0
    5.8422   10.9644   26.9534 C   0  0  0  0  0  0  0  0  0  0  0  0
  2  1  1  1
  2  3  1  0
  3  4  1  0
  4  5  1  0
  5  6  1  0
  6  7  1  0
  7  8  2  0
  8  9  1  0
  9 10  2  0
  9 11  1  0
 11 12  1  0
 12 13  1  0
 13 14  1  0
  8 15  1  0
 15 16  2  0
 16 17  1  0
 17 18  2  0
 18 19  1  0
 19 20  1  0
 20  2  1  0
 19  5  2  0
 18  7  1  0
M  END
>  <alias>  (1851) 
None

>  <rmsd(smina/fragmenstein)>  (1851) 
0.377

>  <smiles>  (1851) 
C[C@H]1CCc2[nH]c3c(C(=O)NCCS)cccc3c2C1

>  <gnina_score>  (1851) 
5.387

>  <inspiration_score>  (1851) 
None

>  <energy_score>  (1851) 
-22.148382

>  <distance_score>  (1851) 
0.997235

>  <gnina_score_min>  (1851) 
5.538

>  <inchikey>  (1851) 
WAWXWBIGRXTMLC-JTQLQIEISA-N

>  <exports>  (1851) 
['/opt/xchem-fragalysis-2/maxwin/BulkDock/OUTPUTS/openbind_a71ev2a_c2_elabs_1LOUU54.sdf', '/opt/xchem-fragalysis-2/maxwin/BulkDock/OUTPUTS/openbind_a71ev2a_c2_elabs_1LSYIDY.sdf']

>  <name>  (1851) 
P585663

>  <ref_pdb>  (1851) 
A0566a

>  <subsites>  (1851) 
None

>  <HIPPO Pose ID>  (1851) 
585663

>  <ref_mols>  (1851) 
A0566a

>  <HIPPO Compound ID>  (1851) 
440838

>  <tags>  (1851) 
openbind_a71ev2a_c2_elabs,syndirella_product,openbind_a71ev2a_c2_elabs_fragonly_scored_top80percent,BulkDock Fragalysis export,openbind_a71ev2a_c2_elabs_scored,openbind_a71ev2a_c2_elabs_scored_top80percent,openbind_a71ev2a_c2_elabs_activefrags_only_scored_5.2plus,openbind_a71ev2a_c2_elabs_activefrags_only_scored_5.5plus,syndirella_placed

>  <smina_score_min>  (1851) 
-6.219

$$$$
P585665
     RDKit          3D

 20 23  0  0  0  0  0  0  0  0999 V2000
    6.1481   11.9495   29.1912 C   0  0  0  0  0  0  0  0  0  0  0  0
    5.2578   11.8413   27.9492 C   0  0  1  0  0  0  0  0  0  0  0  0
    4.8350   13.2397   27.4341 C   0  0  0  0  0  0  0  0  0  0  0  0
    6.0056   14.0652   26.8706 C   0  0  0  0  0  0  0  0  0  0  0  0
    6.8691   13.1927   26.0325 C   0  0  0  0  0  0  0  0  0  0  0  0
    7.8345   13.6443   25.1860 N   0  0  0  0  0  0  0  0  0  0  0  0
    8.4530   12.5744   24.5717 C   0  0  0  0  0  0  0  0  0  0  0  0
    9.5110   12.5632   23.6514 C   0  0  0  0  0  0  0  0  0  0  0  0
   10.1451   13.8544   23.2913 C   0  0  0  0  0  0  0  0  0  0  0  0
   10.1870   14.6658   24.1281 O   0  0  0  0  0  0  0  0  0  0  0  0
   10.5556   13.9269   21.8095 N   0  0  0  0  0  0  0  0  0  0  0  0
   11.0049   15.0132   21.0381 C   0  0  0  0  0  0  0  0  0  0  0  0
   11.0578   14.9250   19.5404 C   0  0  0  0  0  0  0  0  0  0  0  0
    9.9851   15.7393   20.1991 C   0  0  0  0  0  0  0  0  0  0  0  0
    9.9083   11.3253   23.1491 C   0  0  0  0  0  0  0  0  0  0  0  0
    9.2943   10.1471   23.5592 C   0  0  0  0  0  0  0  0  0  0  0  0
    8.2697   10.1815   24.5102 C   0  0  0  0  0  0  0  0  0  0  0  0
    7.8324   11.4136   25.0282 C   0  0  0  0  0  0  0  0  0  0  0  0
    6.8622   11.8143   25.9915 C   0  0  0  0  0  0  0  0  0  0  0  0
    5.9368   11.0041   26.8351 C   0  0  0  0  0  0  0  0  0  0  0  0
  2  1  1  1
  2  3  1  0
  3  4  1  0
  4  5  1  0
  5  6  1  0
  6  7  1  0
  7  8  2  0
  8  9  1  0
  9 10  2  0
  9 11  1  0
 11 12  1  0
 12 13  1  0
 13 14  1  0
  8 15  1  0
 15 16  2  0
 16 17  1  0
 17 18  2  0
 18 19  1  0
 19 20  1  0
 20  2  1  0
 19  5  2  0
 18  7  1  0
 14 12  1  0
M  END
>  <alias>  (1852) 
None

>  <rmsd(smina/fragmenstein)>  (1852) 
0.584

>  <smiles>  (1852) 
C[C@H]1CCc2[nH]c3c(C(=O)NC4CC4)cccc3c2C1

>  <gnina_score>  (1852) 
5.438

>  <inspiration_score>  (1852) 
None

>  <energy_score>  (1852) 
-14.780637

>  <distance_score>  (1852) 
1.102214

>  <gnina_score_min>  (1852) 
5.528

>  <inchikey>  (1852) 
OQOQYJWQVJXBHP-JTQLQIEISA-N

>  <exports>  (1852) 
['/opt/xchem-fragalysis-2/maxwin/BulkDock/OUTPUTS/openbind_a71ev2a_c2_elabs_1LOUU54.sdf', '/opt/xchem-fragalysis-2/maxwin/BulkDock/OUTPUTS/openbind_a71ev2a_c2_elabs_1LSYIDY.sdf']

>  <name>  (1852) 
P585665

>  <ref_pdb>  (1852) 
A0566a

>  <subsites>  (1852) 
None

>  <HIPPO Pose ID>  (1852) 
585665

>  <ref_mols>  (1852) 
A0566a

>  <HIPPO Compound ID>  (1852) 
440839

>  <tags>  (1852) 
openbind_a71ev2a_c2_elabs,syndirella_product,openbind_a71ev2a_c2_elabs_fragonly_scored_top80percent,BulkDock Fragalysis export,openbind_a71ev2a_c2_elabs_scored,openbind_a71ev2a_c2_elabs_scored_top80percent,openbind_a71ev2a_c2_elabs_activefrags_only_scored_5.2plus,openbind_a71ev2a_c2_elabs_activefrags_only_scored_5.5plus,syndirella_placed

>  <smina_score_min>  (1852) 
-7.205

$$$$
P585667
     RDKit          3D

 20 22  0  0  0  0  0  0  0  0999 V2000
    4.0276   11.6427   28.5640 C   0  0  0  0  0  0  0  0  0  0  0  0
    4.8155   12.3265   27.4483 C   0  0  1  0  0  0  0  0  0  0  0  0
    5.4773   13.6259   27.9701 C   0  0  0  0  0  0  0  0  0  0  0  0
    6.2034   14.3917   26.8505 C   0  0  0  0  0  0  0  0  0  0  0  0
    6.9994   13.4382   26.0338 C   0  0  0  0  0  0  0  0  0  0  0  0
    8.0051   13.7942   25.1880 N   0  0  0  0  0  0  0  0  0  0  0  0
    8.5384   12.6676   24.5987 C   0  0  0  0  0  0  0  0  0  0  0  0
    9.6195   12.5449   23.7163 C   0  0  0  0  0  0  0  0  0  0  0  0
   10.4584   13.7386   23.4042 C   0  0  0  0  0  0  0  0  0  0  0  0
   10.5313   14.5778   24.2085 O   0  0  0  0  0  0  0  0  0  0  0  0
   11.0160   13.6779   21.9781 N   0  0  0  0  0  0  0  0  0  0  0  0
   11.8631   14.5952   21.2662 C   0  0  0  0  0  0  0  0  0  0  0  0
   11.2265   14.9349   19.9232 C   0  0  0  0  0  0  0  0  0  0  0  0
    9.5820   16.2411   20.1838 I   0  0  0  0  0  0  0  0  0  0  0  0
    9.8866   11.2653   23.2210 C   0  0  0  0  0  0  0  0  0  0  0  0
    9.1670   10.1535   23.6394 C   0  0  0  0  0  0  0  0  0  0  0  0
    8.1454   10.2925   24.5798 C   0  0  0  0  0  0  0  0  0  0  0  0
    7.8017   11.5714   25.0519 C   0  0  0  0  0  0  0  0  0  0  0  0
    6.8490   12.0683   25.9862 C   0  0  0  0  0  0  0  0  0  0  0  0
    5.8640   11.3530   26.8504 C   0  0  0  0  0  0  0  0  0  0  0  0
  2  1  1  1
  2  3  1  0
  3  4  1  0
  4  5  1  0
  5  6  1  0
  6  7  1  0
  7  8  2  0
  8  9  1  0
  9 10  2  0
  9 11  1  0
 11 12  1  0
 12 13  1  0
 13 14  1  0
  8 15  1  0
 15 16  2  0
 16 17  1  0
 17 18  2  0
 18 19  1  0
 19 20  1  0
 20  2  1  0
 19  5  2  0
 18  7  1  0
M  END
>  <alias>  (1853) 
None

>  <rmsd(smina/fragmenstein)>  (1853) 
0.44

>  <smiles>  (1853) 
C[C@H]1CCc2[nH]c3c(C(=O)NCCI)cccc3c2C1

>  <gnina_score>  (1853) 
5.747

>  <inspiration_score>  (1853) 
None

>  <energy_score>  (1853) 
-12.385113

>  <distance_score>  (1853) 
0.994052

>  <gnina_score_min>  (1853) 
5.716

>  <inchikey>  (1853) 
RFROYODSSRLCJG-JTQLQIEISA-N

>  <exports>  (1853) 
['/opt/xchem-fragalysis-2/maxwin/BulkDock/OUTPUTS/openbind_a71ev2a_c2_elabs_1LOUU54.sdf', '/opt/xchem-fragalysis-2/maxwin/BulkDock/OUTPUTS/openbind_a71ev2a_c2_elabs_1LSYIDY.sdf']

>  <name>  (1853) 
P585667

>  <ref_pdb>  (1853) 
A0566a

>  <subsites>  (1853) 
None

>  <HIPPO Pose ID>  (1853) 
585667

>  <ref_mols>  (1853) 
A0566a

>  <HIPPO Compound ID>  (1853) 
440840

>  <tags>  (1853) 
openbind_a71ev2a_c2_elabs,syndirella_product,openbind_a71ev2a_c2_elabs_fragonly_scored_top80percent,BulkDock Fragalysis export,openbind_a71ev2a_c2_elabs_scored,openbind_a71ev2a_c2_elabs_scored_top80percent,openbind_a71ev2a_c2_elabs_activefrags_only_scored_5.2plus,openbind_a71ev2a_c2_elabs_activefrags_only_scored_5.5plus,syndirella_placed

>  <smina_score_min>  (1853) 
-6.279

$$$$
P585668
     RDKit          3D

 20 22  0  0  0  0  0  0  0  0999 V2000
    4.2373   10.9960   28.9253 C   0  0  0  0  0  0  0  0  0  0  0  0
    5.3473   11.7616   28.2089 C   0  0  2  0  0  0  0  0  0  0  0  0
    4.8637   13.1738   27.7963 C   0  0  0  0  0  0  0  0  0  0  0  0
    5.9893   14.0111   27.1614 C   0  0  0  0  0  0  0  0  0  0  0  0
    6.7876   13.1663   26.2335 C   0  0  0  0  0  0  0  0  0  0  0  0
    7.7383   13.6366   25.3797 N   0  0  0  0  0  0  0  0  0  0  0  0
    8.3346   12.5800   24.7253 C   0  0  0  0  0  0  0  0  0  0  0  0
    9.4227   12.5651   23.8492 C   0  0  0  0  0  0  0  0  0  0  0  0
   10.2741   13.7735   23.7359 C   0  0  0  0  0  0  0  0  0  0  0  0
   10.4044   14.4376   24.6853 O   0  0  0  0  0  0  0  0  0  0  0  0
   10.9304   13.8745   22.3544 N   0  0  0  0  0  0  0  0  0  0  0  0
   11.8771   14.6853   21.9090 N   0  0  0  0  0  0  0  0  0  0  0  0
   12.6823   14.6522   20.6106 C   0  0  0  0  0  0  0  0  0  0  0  0
   12.5938   13.9557   19.6889 O   0  0  0  0  0  0  0  0  0  0  0  0
    9.7880   11.3361   23.2834 C   0  0  0  0  0  0  0  0  0  0  0  0
    9.1359   10.1623   23.6334 C   0  0  0  0  0  0  0  0  0  0  0  0
    8.1139   10.1886   24.5848 C   0  0  0  0  0  0  0  0  0  0  0  0
    7.6908   11.4130   25.1322 C   0  0  0  0  0  0  0  0  0  0  0  0
    6.7478   11.7922   26.1266 C   0  0  0  0  0  0  0  0  0  0  0  0
    5.8484   10.9646   26.9791 C   0  0  0  0  0  0  0  0  0  0  0  0
  2  1  1  6
  2  3  1  0
  3  4  1  0
  4  5  1  0
  5  6  1  0
  6  7  1  0
  7  8  2  0
  8  9  1  0
  9 10  2  0
  9 11  1  0
 11 12  1  0
 12 13  1  0
 13 14  2  0
  8 15  1  0
 15 16  2  0
 16 17  1  0
 17 18  2  0
 18 19  1  0
 19 20  1  0
 20  2  1  0
 19  5  2  0
 18  7  1  0
M  END
>  <alias>  (1854) 
None

>  <rmsd(smina/fragmenstein)>  (1854) 
0.428

>  <smiles>  (1854) 
C[C@@H]1CCc2[nH]c3c(C(=O)NNC=O)cccc3c2C1

>  <gnina_score>  (1854) 
5.227

>  <inspiration_score>  (1854) 
None

>  <energy_score>  (1854) 
-17.774043

>  <distance_score>  (1854) 
1.001681

>  <gnina_score_min>  (1854) 
5.379

>  <inchikey>  (1854) 
CLIDPRONAFLLQU-SECBINFHSA-N

>  <exports>  (1854) 
['/opt/xchem-fragalysis-2/maxwin/BulkDock/OUTPUTS/openbind_a71ev2a_c2_elabs_1LOUU54.sdf', '/opt/xchem-fragalysis-2/maxwin/BulkDock/OUTPUTS/openbind_a71ev2a_c2_elabs_1LSYIDY.sdf']

>  <name>  (1854) 
P585668

>  <ref_pdb>  (1854) 
A0566a

>  <subsites>  (1854) 
None

>  <HIPPO Pose ID>  (1854) 
585668

>  <ref_mols>  (1854) 
A0566a

>  <HIPPO Compound ID>  (1854) 
440842

>  <tags>  (1854) 
openbind_a71ev2a_c2_elabs,syndirella_product,openbind_a71ev2a_c2_elabs_fragonly_scored_top80percent,openbind_a71ev2a_c2_elabs_scored,BulkDock Fragalysis export,openbind_a71ev2a_c2_elabs_scored_top80percent,openbind_a71ev2a_c2_elabs_activefrags_only_scored_5.2plus,syndirella_placed

>  <smina_score_min>  (1854) 
-6.44

$$$$
P585670
     RDKit          3D

 20 22  0  0  0  0  0  0  0  0999 V2000
    4.1119   11.4724   28.5893 C   0  0  0  0  0  0  0  0  0  0  0  0
    4.8544   12.1967   27.4679 C   0  0  1  0  0  0  0  0  0  0  0  0
    5.5022   13.4984   28.0005 C   0  0  0  0  0  0  0  0  0  0  0  0
    6.1796   14.3020   26.8775 C   0  0  0  0  0  0  0  0  0  0  0  0
    6.9842   13.3835   26.0298 C   0  0  0  0  0  0  0  0  0  0  0  0
    7.9679   13.7789   25.1762 N   0  0  0  0  0  0  0  0  0  0  0  0
    8.5257   12.6773   24.5626 C   0  0  0  0  0  0  0  0  0  0  0  0
    9.5999   12.5980   23.6647 C   0  0  0  0  0  0  0  0  0  0  0  0
   10.4056   13.8170   23.3645 C   0  0  0  0  0  0  0  0  0  0  0  0
   10.4735   14.6262   24.1989 O   0  0  0  0  0  0  0  0  0  0  0  0
   10.9599   13.8137   21.9367 N   0  0  0  0  0  0  0  0  0  0  0  0
   11.7984   14.7646   21.2571 C   0  0  0  0  0  0  0  0  0  0  0  0
   11.5693   14.7231   19.8081 C   0  0  0  0  0  0  0  0  0  0  0  0
   11.3626   14.6634   18.6673 N   0  0  0  0  0  0  0  0  0  0  0  0
    9.9123   11.3312   23.1659 C   0  0  0  0  0  0  0  0  0  0  0  0
    9.2297   10.1924   23.5784 C   0  0  0  0  0  0  0  0  0  0  0  0
    8.2057   10.2918   24.5221 C   0  0  0  0  0  0  0  0  0  0  0  0
    7.8265   11.5544   25.0114 C   0  0  0  0  0  0  0  0  0  0  0  0
    6.8656   12.0116   25.9590 C   0  0  0  0  0  0  0  0  0  0  0  0
    5.9043   11.2578   26.8186 C   0  0  0  0  0  0  0  0  0  0  0  0
  2  1  1  1
  2  3  1  0
  3  4  1  0
  4  5  1  0
  5  6  1  0
  6  7  1  0
  7  8  2  0
  8  9  1  0
  9 10  2  0
  9 11  1  0
 11 12  1  0
 12 13  1  0
 13 14  3  0
  8 15  1  0
 15 16  2  0
 16 17  1  0
 17 18  2  0
 18 19  1  0
 19 20  1  0
 20  2  1  0
 19  5  2  0
 18  7  1  0
M  END
>  <alias>  (1855) 
None

>  <rmsd(smina/fragmenstein)>  (1855) 
0.335

>  <smiles>  (1855) 
C[C@H]1CCc2[nH]c3c(C(=O)NCC#N)cccc3c2C1

>  <gnina_score>  (1855) 
5.512

>  <inspiration_score>  (1855) 
None

>  <energy_score>  (1855) 
-9.212682

>  <distance_score>  (1855) 
0.97214

>  <gnina_score_min>  (1855) 
5.587

>  <inchikey>  (1855) 
LEEKCSFHYZUIAH-JTQLQIEISA-N

>  <exports>  (1855) 
['/opt/xchem-fragalysis-2/maxwin/BulkDock/OUTPUTS/openbind_a71ev2a_c2_elabs_1LOUU54.sdf', '/opt/xchem-fragalysis-2/maxwin/BulkDock/OUTPUTS/openbind_a71ev2a_c2_elabs_1LSYIDY.sdf']

>  <name>  (1855) 
P585670

>  <ref_pdb>  (1855) 
A0566a

>  <subsites>  (1855) 
None

>  <HIPPO Pose ID>  (1855) 
585670

>  <ref_mols>  (1855) 
A0566a

>  <HIPPO Compound ID>  (1855) 
440844

>  <tags>  (1855) 
openbind_a71ev2a_c2_elabs,syndirella_product,openbind_a71ev2a_c2_elabs_fragonly_scored_top80percent,BulkDock Fragalysis export,openbind_a71ev2a_c2_elabs_scored,openbind_a71ev2a_c2_elabs_scored_top80percent,openbind_a71ev2a_c2_elabs_activefrags_only_scored_5.2plus,openbind_a71ev2a_c2_elabs_activefrags_only_scored_5.5plus,syndirella_placed

>  <smina_score_min>  (1855) 
-6.396

$$$$
P585671
     RDKit          3D

 20 22  0  0  0  0  0  0  0  0999 V2000
   11.5434   14.7332   19.2793 C   0  0  0  0  0  0  0  0  0  0  0  0
   12.2507   14.6331   20.6198 C   0  0  0  0  0  0  0  0  0  0  0  0
   11.4031   15.1882   21.7395 C   0  0  0  0  0  0  0  0  0  0  0  0
   10.5773   14.1690   22.3019 N   0  0  0  0  0  0  0  0  0  0  0  0
   10.1324   13.9350   23.7447 C   0  0  0  0  0  0  0  0  0  0  0  0
   10.3021   14.5769   24.7006 O   0  0  0  0  0  0  0  0  0  0  0  0
    9.3990   12.6589   23.8827 C   0  0  0  0  0  0  0  0  0  0  0  0
    9.8339   11.4704   23.2864 C   0  0  0  0  0  0  0  0  0  0  0  0
    9.2313   10.2572   23.5979 C   0  0  0  0  0  0  0  0  0  0  0  0
    8.1977   10.2099   24.5408 C   0  0  0  0  0  0  0  0  0  0  0  0
    7.7160   11.3967   25.1256 C   0  0  0  0  0  0  0  0  0  0  0  0
    6.7420   11.7130   26.1163 C   0  0  0  0  0  0  0  0  0  0  0  0
    6.7043   13.0867   26.2332 C   0  0  0  0  0  0  0  0  0  0  0  0
    7.6566   13.6153   25.4173 N   0  0  0  0  0  0  0  0  0  0  0  0
    8.3102   12.6003   24.7539 C   0  0  0  0  0  0  0  0  0  0  0  0
    5.8185   13.8829   27.1228 C   0  0  0  0  0  0  0  0  0  0  0  0
    4.6824   12.9890   27.6499 C   0  0  0  0  0  0  0  0  0  0  0  0
    5.1586   11.5826   28.0893 C   0  0  2  0  0  0  0  0  0  0  0  0
    6.0522   11.6599   29.3318 C   0  0  0  0  0  0  0  0  0  0  0  0
    5.8626   10.8275   26.9329 C   0  0  0  0  0  0  0  0  0  0  0  0
  1  2  1  0
  2  3  1  0
  3  4  1  0
  4  5  1  0
  5  6  2  0
  5  7  1  0
  7  8  2  0
  8  9  1  0
  9 10  2  0
 10 11  1  0
 11 12  1  0
 12 13  2  0
 13 14  1  0
 14 15  1  0
 13 16  1  0
 16 17  1  0
 17 18  1  0
 18 19  1  1
 18 20  1  0
 15  7  1  0
 15 11  2  0
 20 12  1  0
M  END
>  <alias>  (1856) 
None

>  <rmsd(smina/fragmenstein)>  (1856) 
1.013

>  <smiles>  (1856) 
CCCNC(=O)c1cccc2c3c([nH]c12)CC[C@H](C)C3

>  <gnina_score>  (1856) 
5.215

>  <inspiration_score>  (1856) 
None

>  <energy_score>  (1856) 
-13.178095

>  <distance_score>  (1856) 
1.037956

>  <gnina_score_min>  (1856) 
5.498

>  <inchikey>  (1856) 
JPNGBYFCZNGULM-NSHDSACASA-N

>  <exports>  (1856) 
['/opt/xchem-fragalysis-2/maxwin/BulkDock/OUTPUTS/openbind_a71ev2a_c2_elabs_1LOUU54.sdf', '/opt/xchem-fragalysis-2/maxwin/BulkDock/OUTPUTS/openbind_a71ev2a_c2_elabs_1LSYIDY.sdf']

>  <name>  (1856) 
P585671

>  <ref_pdb>  (1856) 
A0566a

>  <subsites>  (1856) 
None

>  <HIPPO Pose ID>  (1856) 
585671

>  <ref_mols>  (1856) 
A0566a

>  <HIPPO Compound ID>  (1856) 
440845

>  <tags>  (1856) 
openbind_a71ev2a_c2_elabs,syndirella_product,openbind_a71ev2a_c2_elabs_fragonly_scored_top80percent,openbind_a71ev2a_c2_elabs_scored,BulkDock Fragalysis export,openbind_a71ev2a_c2_elabs_scored_top80percent,openbind_a71ev2a_c2_elabs_activefrags_only_scored_5.2plus,syndirella_placed

>  <smina_score_min>  (1856) 
-6.805

$$$$
P585674
     RDKit          3D

 20 22  0  0  0  0  0  0  0  0999 V2000
    4.0443   11.7235   28.5023 C   0  0  0  0  0  0  0  0  0  0  0  0
    4.8413   12.3995   27.3882 C   0  0  1  0  0  0  0  0  0  0  0  0
    5.4993   13.7019   27.9077 C   0  0  0  0  0  0  0  0  0  0  0  0
    6.2355   14.4604   26.7900 C   0  0  0  0  0  0  0  0  0  0  0  0
    7.0372   13.5015   25.9853 C   0  0  0  0  0  0  0  0  0  0  0  0
    8.0446   13.8536   25.1394 N   0  0  0  0  0  0  0  0  0  0  0  0
    8.5775   12.7248   24.5553 C   0  0  0  0  0  0  0  0  0  0  0  0
    9.6510   12.5992   23.6649 C   0  0  0  0  0  0  0  0  0  0  0  0
   10.4819   13.7912   23.3272 C   0  0  0  0  0  0  0  0  0  0  0  0
   10.6560   14.5885   24.1586 O   0  0  0  0  0  0  0  0  0  0  0  0
   10.8971   13.7870   21.8508 N   0  0  0  0  0  0  0  0  0  0  0  0
   11.6993   14.7204   21.1004 C   0  0  0  0  0  0  0  0  0  0  0  0
   10.9876   15.0922   19.8048 C   0  0  0  0  0  0  0  0  0  0  0  0
    9.5989   16.1506   20.1509 Cl  0  0  0  0  0  0  0  0  0  0  0  0
    9.9209   11.3168   23.1803 C   0  0  0  0  0  0  0  0  0  0  0  0
    9.2054   10.2045   23.6079 C   0  0  0  0  0  0  0  0  0  0  0  0
    8.1846   10.3477   24.5488 C   0  0  0  0  0  0  0  0  0  0  0  0
    7.8422   11.6295   25.0156 C   0  0  0  0  0  0  0  0  0  0  0  0
    6.8867   12.1314   25.9447 C   0  0  0  0  0  0  0  0  0  0  0  0
    5.8945   11.4219   26.8052 C   0  0  0  0  0  0  0  0  0  0  0  0
  2  1  1  1
  2  3  1  0
  3  4  1  0
  4  5  1  0
  5  6  1  0
  6  7  1  0
  7  8  2  0
  8  9  1  0
  9 10  2  0
  9 11  1  0
 11 12  1  0
 12 13  1  0
 13 14  1  0
  8 15  1  0
 15 16  2  0
 16 17  1  0
 17 18  2  0
 18 19  1  0
 19 20  1  0
 20  2  1  0
 19  5  2  0
 18  7  1  0
M  END
>  <alias>  (1857) 
None

>  <rmsd(smina/fragmenstein)>  (1857) 
0.46

>  <smiles>  (1857) 
C[C@H]1CCc2[nH]c3c(C(=O)NCCCl)cccc3c2C1

>  <gnina_score>  (1857) 
5.68

>  <inspiration_score>  (1857) 
None

>  <energy_score>  (1857) 
-23.776187

>  <distance_score>  (1857) 
0.980975

>  <gnina_score_min>  (1857) 
5.617

>  <inchikey>  (1857) 
MKTCZGYUKZSTFO-JTQLQIEISA-N

>  <exports>  (1857) 
['/opt/xchem-fragalysis-2/maxwin/BulkDock/OUTPUTS/openbind_a71ev2a_c2_elabs_1LOUU54.sdf', '/opt/xchem-fragalysis-2/maxwin/BulkDock/OUTPUTS/openbind_a71ev2a_c2_elabs_1LSYIDY.sdf']

>  <name>  (1857) 
P585674

>  <ref_pdb>  (1857) 
A0566a

>  <subsites>  (1857) 
None

>  <HIPPO Pose ID>  (1857) 
585674

>  <ref_mols>  (1857) 
A0566a

>  <HIPPO Compound ID>  (1857) 
440846

>  <tags>  (1857) 
openbind_a71ev2a_c2_elabs,syndirella_product,openbind_a71ev2a_c2_elabs_fragonly_scored_top80percent,BulkDock Fragalysis export,openbind_a71ev2a_c2_elabs_scored,openbind_a71ev2a_c2_elabs_scored_top80percent,openbind_a71ev2a_c2_elabs_activefrags_only_scored_5.2plus,openbind_a71ev2a_c2_elabs_activefrags_only_scored_5.5plus,syndirella_placed

>  <smina_score_min>  (1857) 
-6.78

$$$$
P585675
     RDKit          3D

 20 22  0  0  0  0  0  0  0  0999 V2000
   12.2140   14.6693   20.4737 C   0  0  0  0  0  0  0  0  0  0  0  0
   11.0132   15.1202   21.2856 C   0  0  0  0  0  0  0  0  0  0  0  0
    9.9028   15.7422   20.4480 C   0  0  0  0  0  0  0  0  0  0  0  0
   10.4862   14.0019   22.0141 N   0  0  0  0  0  0  0  0  0  0  0  0
   10.1225   13.8610   23.4938 C   0  0  0  0  0  0  0  0  0  0  0  0
   10.2623   14.6032   24.3797 O   0  0  0  0  0  0  0  0  0  0  0  0
    9.4403   12.5783   23.7665 C   0  0  0  0  0  0  0  0  0  0  0  0
    9.8534   11.3613   23.2209 C   0  0  0  0  0  0  0  0  0  0  0  0
    9.2427   10.1690   23.5887 C   0  0  0  0  0  0  0  0  0  0  0  0
    8.2143   10.1716   24.5374 C   0  0  0  0  0  0  0  0  0  0  0  0
    7.7613   11.3855   25.0864 C   0  0  0  0  0  0  0  0  0  0  0  0
    6.8013   11.7515   26.0714 C   0  0  0  0  0  0  0  0  0  0  0  0
    6.8109   13.1275   26.1687 C   0  0  0  0  0  0  0  0  0  0  0  0
    7.7477   13.6132   25.3087 N   0  0  0  0  0  0  0  0  0  0  0  0
    8.3726   12.5647   24.6678 C   0  0  0  0  0  0  0  0  0  0  0  0
    5.9947   13.9639   27.0889 C   0  0  0  0  0  0  0  0  0  0  0  0
    4.8892   13.1095   27.7357 C   0  0  0  0  0  0  0  0  0  0  0  0
    5.4017   11.7091   28.1532 C   0  0  1  0  0  0  0  0  0  0  0  0
    4.3117   10.9277   28.8829 C   0  0  0  0  0  0  0  0  0  0  0  0
    5.9078   10.9162   26.9228 C   0  0  0  0  0  0  0  0  0  0  0  0
  1  2  1  0
  2  3  1  0
  2  4  1  0
  4  5  1  0
  5  6  2  0
  5  7  1  0
  7  8  2  0
  8  9  1  0
  9 10  2  0
 10 11  1  0
 11 12  1  0
 12 13  2  0
 13 14  1  0
 14 15  1  0
 13 16  1  0
 16 17  1  0
 17 18  1  0
 18 19  1  6
 18 20  1  0
 15  7  1  0
 15 11  2  0
 20 12  1  0
M  END
>  <alias>  (1858) 
None

>  <rmsd(smina/fragmenstein)>  (1858) 
0.435

>  <smiles>  (1858) 
CC(C)NC(=O)c1cccc2c3c([nH]c12)CC[C@@H](C)C3

>  <gnina_score>  (1858) 
5.411

>  <inspiration_score>  (1858) 
None

>  <energy_score>  (1858) 
-14.352962

>  <distance_score>  (1858) 
1.087919

>  <gnina_score_min>  (1858) 
5.468

>  <inchikey>  (1858) 
OHGSQHHWNBLGCN-LLVKDONJSA-N

>  <exports>  (1858) 
['/opt/xchem-fragalysis-2/maxwin/BulkDock/OUTPUTS/openbind_a71ev2a_c2_elabs_1LOUU54.sdf', '/opt/xchem-fragalysis-2/maxwin/BulkDock/OUTPUTS/openbind_a71ev2a_c2_elabs_1LSYIDY.sdf']

>  <name>  (1858) 
P585675

>  <ref_pdb>  (1858) 
A0566a

>  <subsites>  (1858) 
None

>  <HIPPO Pose ID>  (1858) 
585675

>  <ref_mols>  (1858) 
A0566a

>  <HIPPO Compound ID>  (1858) 
440847

>  <tags>  (1858) 
openbind_a71ev2a_c2_elabs,syndirella_product,openbind_a71ev2a_c2_elabs_fragonly_scored_top80percent,openbind_a71ev2a_c2_elabs_scored,BulkDock Fragalysis export,openbind_a71ev2a_c2_elabs_scored_top80percent,openbind_a71ev2a_c2_elabs_activefrags_only_scored_5.2plus,syndirella_placed

>  <smina_score_min>  (1858) 
-7.105

$$$$
P585678
     RDKit          3D

 20 22  0  0  0  0  0  0  0  0999 V2000
    9.9344   16.0472   19.6460 C   0  0  0  0  0  0  0  0  0  0  0  0
   10.8742   15.1250   19.8938 C   0  0  0  0  0  0  0  0  0  0  0  0
   11.5326   14.9213   21.2147 C   0  0  0  0  0  0  0  0  0  0  0  0
   10.7767   13.9302   21.9071 N   0  0  0  0  0  0  0  0  0  0  0  0
   10.3982   13.8204   23.3884 C   0  0  0  0  0  0  0  0  0  0  0  0
   10.5765   14.5604   24.2708 O   0  0  0  0  0  0  0  0  0  0  0  0
    9.6103   12.5949   23.6726 C   0  0  0  0  0  0  0  0  0  0  0  0
    9.9373   11.3443   23.1471 C   0  0  0  0  0  0  0  0  0  0  0  0
    9.2689   10.1907   23.5392 C   0  0  0  0  0  0  0  0  0  0  0  0
    8.2490   10.2633   24.4899 C   0  0  0  0  0  0  0  0  0  0  0  0
    7.8623   11.5127   25.0077 C   0  0  0  0  0  0  0  0  0  0  0  0
    6.9112   11.9437   25.9730 C   0  0  0  0  0  0  0  0  0  0  0  0
    6.9964   13.3179   26.0536 C   0  0  0  0  0  0  0  0  0  0  0  0
    7.9689   13.7399   25.1979 N   0  0  0  0  0  0  0  0  0  0  0  0
    8.5412   12.6518   24.5737 C   0  0  0  0  0  0  0  0  0  0  0  0
    6.2134   14.2081   26.9516 C   0  0  0  0  0  0  0  0  0  0  0  0
    5.0535   13.4226   27.5916 C   0  0  0  0  0  0  0  0  0  0  0  0
    5.4785   11.9981   28.0284 C   0  0  1  0  0  0  0  0  0  0  0  0
    4.3328   11.2870   28.7447 C   0  0  0  0  0  0  0  0  0  0  0  0
    5.9551   11.1676   26.8112 C   0  0  0  0  0  0  0  0  0  0  0  0
  1  2  2  0
  2  3  1  0
  3  4  1  0
  4  5  1  0
  5  6  2  0
  5  7  1  0
  7  8  2  0
  8  9  1  0
  9 10  2  0
 10 11  1  0
 11 12  1  0
 12 13  2  0
 13 14  1  0
 14 15  1  0
 13 16  1  0
 16 17  1  0
 17 18  1  0
 18 19  1  6
 18 20  1  0
 15  7  1  0
 15 11  2  0
 20 12  1  0
M  END
>  <alias>  (1859) 
None

>  <rmsd(smina/fragmenstein)>  (1859) 
0.443

>  <smiles>  (1859) 
C=CCNC(=O)c1cccc2c3c([nH]c12)CC[C@@H](C)C3

>  <gnina_score>  (1859) 
5.473

>  <inspiration_score>  (1859) 
None

>  <energy_score>  (1859) 
-13.443691

>  <distance_score>  (1859) 
0.944145

>  <gnina_score_min>  (1859) 
5.502

>  <inchikey>  (1859) 
RGZLANLUTCUELV-LLVKDONJSA-N

>  <exports>  (1859) 
['/opt/xchem-fragalysis-2/maxwin/BulkDock/OUTPUTS/openbind_a71ev2a_c2_elabs_1LOUU54.sdf', '/opt/xchem-fragalysis-2/maxwin/BulkDock/OUTPUTS/openbind_a71ev2a_c2_elabs_1LSYIDY.sdf']

>  <name>  (1859) 
P585678

>  <ref_pdb>  (1859) 
A0566a

>  <subsites>  (1859) 
None

>  <HIPPO Pose ID>  (1859) 
585678

>  <ref_mols>  (1859) 
A0566a

>  <HIPPO Compound ID>  (1859) 
440848

>  <tags>  (1859) 
openbind_a71ev2a_c2_elabs,syndirella_product,openbind_a71ev2a_c2_elabs_fragonly_scored_top80percent,BulkDock Fragalysis export,openbind_a71ev2a_c2_elabs_scored,openbind_a71ev2a_c2_elabs_scored_top80percent,openbind_a71ev2a_c2_elabs_activefrags_only_scored_5.2plus,openbind_a71ev2a_c2_elabs_activefrags_only_scored_5.5plus,syndirella_placed

>  <smina_score_min>  (1859) 
-6.88

$$$$
P585679
     RDKit          3D

 20 22  0  0  0  0  0  0  0  0999 V2000
    6.1335   11.9172   29.2503 C   0  0  0  0  0  0  0  0  0  0  0  0
    5.2145   11.7568   28.0347 C   0  0  1  0  0  0  0  0  0  0  0  0
    4.7282   13.1306   27.5102 C   0  0  0  0  0  0  0  0  0  0  0  0
    5.8517   13.9879   26.9010 C   0  0  0  0  0  0  0  0  0  0  0  0
    6.7261   13.1329   26.0559 C   0  0  0  0  0  0  0  0  0  0  0  0
    7.6460   13.6054   25.1717 N   0  0  0  0  0  0  0  0  0  0  0  0
    8.2965   12.5495   24.5681 C   0  0  0  0  0  0  0  0  0  0  0  0
    9.3394   12.5602   23.6332 C   0  0  0  0  0  0  0  0  0  0  0  0
    9.9526   13.8588   23.2618 C   0  0  0  0  0  0  0  0  0  0  0  0
    9.9126   14.7044   24.0622 O   0  0  0  0  0  0  0  0  0  0  0  0
   10.5408   13.8574   21.8437 N   0  0  0  0  0  0  0  0  0  0  0  0
   11.2887   14.8644   21.1417 C   0  0  0  0  0  0  0  0  0  0  0  0
   12.5797   15.1372   21.8807 C   0  0  0  0  0  0  0  0  0  0  0  0
   12.3147   15.9676   22.9238 F   0  0  0  0  0  0  0  0  0  0  0  0
    9.8066   11.3255   23.1756 C   0  0  0  0  0  0  0  0  0  0  0  0
    9.2411   10.1339   23.6121 C   0  0  0  0  0  0  0  0  0  0  0  0
    8.2157   10.1504   24.5624 C   0  0  0  0  0  0  0  0  0  0  0  0
    7.7365   11.3743   25.0628 C   0  0  0  0  0  0  0  0  0  0  0  0
    6.7701   11.7548   26.0380 C   0  0  0  0  0  0  0  0  0  0  0  0
    5.8949   10.9256   26.9170 C   0  0  0  0  0  0  0  0  0  0  0  0
  2  1  1  1
  2  3  1  0
  3  4  1  0
  4  5  1  0
  5  6  1  0
  6  7  1  0
  7  8  2  0
  8  9  1  0
  9 10  2  0
  9 11  1  0
 11 12  1  0
 12 13  1  0
 13 14  1  0
  8 15  1  0
 15 16  2  0
 16 17  1  0
 17 18  2  0
 18 19  1  0
 19 20  1  0
 20  2  1  0
 19  5  2  0
 18  7  1  0
M  END
>  <alias>  (1860) 
None

>  <rmsd(smina/fragmenstein)>  (1860) 
0.476

>  <smiles>  (1860) 
C[C@H]1CCc2[nH]c3c(C(=O)NCCF)cccc3c2C1

>  <gnina_score>  (1860) 
5.49

>  <inspiration_score>  (1860) 
None

>  <energy_score>  (1860) 
-3.846601

>  <distance_score>  (1860) 
1.182954

>  <gnina_score_min>  (1860) 
5.401

>  <inchikey>  (1860) 
LXQZASQJOUFOBN-JTQLQIEISA-N

>  <exports>  (1860) 
['/opt/xchem-fragalysis-2/maxwin/BulkDock/OUTPUTS/openbind_a71ev2a_c2_elabs_1LOUU54.sdf', '/opt/xchem-fragalysis-2/maxwin/BulkDock/OUTPUTS/openbind_a71ev2a_c2_elabs_1LSYIDY.sdf']

>  <name>  (1860) 
P585679

>  <ref_pdb>  (1860) 
A0566a

>  <subsites>  (1860) 
None

>  <HIPPO Pose ID>  (1860) 
585679

>  <ref_mols>  (1860) 
A0566a

>  <HIPPO Compound ID>  (1860) 
440849

>  <tags>  (1860) 
openbind_a71ev2a_c2_elabs,syndirella_product,openbind_a71ev2a_c2_elabs_fragonly_scored_top80percent,openbind_a71ev2a_c2_elabs_scored,BulkDock Fragalysis export,openbind_a71ev2a_c2_elabs_scored_top80percent,openbind_a71ev2a_c2_elabs_activefrags_only_scored_5.2plus,syndirella_placed

>  <smina_score_min>  (1860) 
-6.667

$$$$
P585681
     RDKit          3D

 20 22  0  0  0  0  0  0  0  0999 V2000
    6.0485   11.6437   29.3412 C   0  0  0  0  0  0  0  0  0  0  0  0
    5.1557   11.5782   28.0975 C   0  0  1  0  0  0  0  0  0  0  0  0
    4.6818   12.9888   27.6692 C   0  0  0  0  0  0  0  0  0  0  0  0
    5.8198   13.8857   27.1509 C   0  0  0  0  0  0  0  0  0  0  0  0
    6.7059   13.0954   26.2561 C   0  0  0  0  0  0  0  0  0  0  0  0
    7.6609   13.6296   25.4468 N   0  0  0  0  0  0  0  0  0  0  0  0
    8.3126   12.6188   24.7757 C   0  0  0  0  0  0  0  0  0  0  0  0
    9.4036   12.6803   23.9092 C   0  0  0  0  0  0  0  0  0  0  0  0
   10.1607   13.9445   23.7955 C   0  0  0  0  0  0  0  0  0  0  0  0
   10.3408   14.5736   24.7573 O   0  0  0  0  0  0  0  0  0  0  0  0
   10.6194   14.1788   22.3592 N   0  0  0  0  0  0  0  0  0  0  0  0
   11.4766   15.1840   21.8084 C   0  0  0  0  0  0  0  0  0  0  0  0
   12.3606   14.5895   20.7455 C   0  0  0  0  0  0  0  0  0  0  0  0
   11.4641   14.6631   19.0285 Br  0  0  0  0  0  0  0  0  0  0  0  0
    9.8312   11.4978   23.2946 C   0  0  0  0  0  0  0  0  0  0  0  0
    9.2253   10.2833   23.5940 C   0  0  0  0  0  0  0  0  0  0  0  0
    8.1940   10.2297   24.5393 C   0  0  0  0  0  0  0  0  0  0  0  0
    7.7145   11.4129   25.1342 C   0  0  0  0  0  0  0  0  0  0  0  0
    6.7410   11.7226   26.1272 C   0  0  0  0  0  0  0  0  0  0  0  0
    5.8592   10.8318   26.9351 C   0  0  0  0  0  0  0  0  0  0  0  0
  2  1  1  1
  2  3  1  0
  3  4  1  0
  4  5  1  0
  5  6  1  0
  6  7  1  0
  7  8  2  0
  8  9  1  0
  9 10  2  0
  9 11  1  0
 11 12  1  0
 12 13  1  0
 13 14  1  0
  8 15  1  0
 15 16  2  0
 16 17  1  0
 17 18  2  0
 18 19  1  0
 19 20  1  0
 20  2  1  0
 19  5  2  0
 18  7  1  0
M  END
>  <alias>  (1861) 
None

>  <rmsd(smina/fragmenstein)>  (1861) 
0.578

>  <smiles>  (1861) 
C[C@H]1CCc2[nH]c3c(C(=O)NCCBr)cccc3c2C1

>  <gnina_score>  (1861) 
5.299

>  <inspiration_score>  (1861) 
None

>  <energy_score>  (1861) 
-15.326844

>  <distance_score>  (1861) 
1.027014

>  <gnina_score_min>  (1861) 
5.582

>  <inchikey>  (1861) 
UXCGFEVDDIHGGA-JTQLQIEISA-N

>  <exports>  (1861) 
['/opt/xchem-fragalysis-2/maxwin/BulkDock/OUTPUTS/openbind_a71ev2a_c2_elabs_1LOUU54.sdf', '/opt/xchem-fragalysis-2/maxwin/BulkDock/OUTPUTS/openbind_a71ev2a_c2_elabs_1LSYIDY.sdf']

>  <name>  (1861) 
P585681

>  <ref_pdb>  (1861) 
A0566a

>  <subsites>  (1861) 
None

>  <HIPPO Pose ID>  (1861) 
585681

>  <ref_mols>  (1861) 
A0566a

>  <HIPPO Compound ID>  (1861) 
440850

>  <tags>  (1861) 
openbind_a71ev2a_c2_elabs,syndirella_product,openbind_a71ev2a_c2_elabs_fragonly_scored_top80percent,BulkDock Fragalysis export,openbind_a71ev2a_c2_elabs_scored,openbind_a71ev2a_c2_elabs_scored_top80percent,openbind_a71ev2a_c2_elabs_activefrags_only_scored_5.2plus,openbind_a71ev2a_c2_elabs_activefrags_only_scored_5.5plus,syndirella_placed

>  <smina_score_min>  (1861) 
-6.441

$$$$
P585683
     RDKit          3D

 20 23  0  0  0  0  0  0  0  0999 V2000
    4.2030   11.0286   28.7125 C   0  0  0  0  0  0  0  0  0  0  0  0
    4.8631   11.8553   27.6102 C   0  0  1  0  0  0  0  0  0  0  0  0
    5.4840   13.1450   28.1998 C   0  0  0  0  0  0  0  0  0  0  0  0
    6.0774   14.0449   27.1026 C   0  0  0  0  0  0  0  0  0  0  0  0
    6.8929   13.2160   26.1773 C   0  0  0  0  0  0  0  0  0  0  0  0
    7.8464   13.7053   25.3373 N   0  0  0  0  0  0  0  0  0  0  0  0
    8.4435   12.6650   24.6597 C   0  0  0  0  0  0  0  0  0  0  0  0
    9.5138   12.6789   23.7592 C   0  0  0  0  0  0  0  0  0  0  0  0
   10.2734   13.9291   23.5303 C   0  0  0  0  0  0  0  0  0  0  0  0
   10.4197   14.6685   24.4363 O   0  0  0  0  0  0  0  0  0  0  0  0
   10.7442   14.0296   22.1091 N   0  0  0  0  0  0  0  0  0  0  0  0
    9.6946   14.7486   21.2099 C   0  0  0  0  0  0  0  0  0  0  0  0
   10.7727   14.9798   20.2004 C   0  0  0  0  0  0  0  0  0  0  0  0
   11.6281   15.0506   21.4337 C   0  0  0  0  0  0  0  0  0  0  0  0
    9.8910   11.4675   23.1771 C   0  0  0  0  0  0  0  0  0  0  0  0
    9.2671   10.2755   23.5281 C   0  0  0  0  0  0  0  0  0  0  0  0
    8.2422   10.2743   24.4806 C   0  0  0  0  0  0  0  0  0  0  0  0
    7.8003   11.4869   25.0437 C   0  0  0  0  0  0  0  0  0  0  0  0
    6.8272   11.8468   26.0224 C   0  0  0  0  0  0  0  0  0  0  0  0
    5.9124   11.0027   26.8494 C   0  0  0  0  0  0  0  0  0  0  0  0
  2  1  1  1
  2  3  1  0
  3  4  1  0
  4  5  1  0
  5  6  1  0
  6  7  1  0
  7  8  2  0
  8  9  1  0
  9 10  2  0
  9 11  1  0
 11 12  1  0
 12 13  1  0
 13 14  1  0
  8 15  1  0
 15 16  2  0
 16 17  1  0
 17 18  2  0
 18 19  1  0
 19 20  1  0
 20  2  1  0
 19  5  2  0
 18  7  1  0
 14 11  1  0
M  END
>  <alias>  (1862) 
None

>  <rmsd(smina/fragmenstein)>  (1862) 
0.255

>  <smiles>  (1862) 
C[C@H]1CCc2[nH]c3c(C(=O)N4CCC4)cccc3c2C1

>  <gnina_score>  (1862) 
5.462

>  <inspiration_score>  (1862) 
None

>  <energy_score>  (1862) 
-12.60945

>  <distance_score>  (1862) 
0.968969

>  <gnina_score_min>  (1862) 
5.461

>  <inchikey>  (1862) 
XDHPCNULUKRNAM-NSHDSACASA-N

>  <exports>  (1862) 
['/opt/xchem-fragalysis-2/maxwin/BulkDock/OUTPUTS/openbind_a71ev2a_c2_elabs_1LOUU54.sdf', '/opt/xchem-fragalysis-2/maxwin/BulkDock/OUTPUTS/openbind_a71ev2a_c2_elabs_1LSYIDY.sdf']

>  <name>  (1862) 
P585683

>  <ref_pdb>  (1862) 
A0566a

>  <subsites>  (1862) 
None

>  <HIPPO Pose ID>  (1862) 
585683

>  <ref_mols>  (1862) 
A0566a

>  <HIPPO Compound ID>  (1862) 
440851

>  <tags>  (1862) 
openbind_a71ev2a_c2_elabs,syndirella_product,openbind_a71ev2a_c2_elabs_fragonly_scored_top80percent,openbind_a71ev2a_c2_elabs_scored,BulkDock Fragalysis export,openbind_a71ev2a_c2_elabs_scored_top80percent,openbind_a71ev2a_c2_elabs_activefrags_only_scored_5.2plus,syndirella_placed

>  <smina_score_min>  (1862) 
-6.936

$$$$
P585685
     RDKit          3D

 20 22  0  0  0  0  0  0  0  0999 V2000
   11.1164   14.9485   18.6097 C   0  0  0  0  0  0  0  0  0  0  0  0
   11.3711   14.8859   19.7820 C   0  0  0  0  0  0  0  0  0  0  0  0
   11.7173   14.8408   21.2021 C   0  0  0  0  0  0  0  0  0  0  0  0
   10.8873   13.8935   21.8751 N   0  0  0  0  0  0  0  0  0  0  0  0
   10.4157   13.8402   23.3336 C   0  0  0  0  0  0  0  0  0  0  0  0
   10.5641   14.6008   24.2042 O   0  0  0  0  0  0  0  0  0  0  0  0
    9.6187   12.6187   23.6305 C   0  0  0  0  0  0  0  0  0  0  0  0
    9.9452   11.3575   23.1279 C   0  0  0  0  0  0  0  0  0  0  0  0
    9.2762   10.2082   23.5329 C   0  0  0  0  0  0  0  0  0  0  0  0
    8.2557   10.2925   24.4799 C   0  0  0  0  0  0  0  0  0  0  0  0
    7.8732   11.5483   24.9837 C   0  0  0  0  0  0  0  0  0  0  0  0
    6.9233   11.9874   25.9462 C   0  0  0  0  0  0  0  0  0  0  0  0
    7.0126   13.3613   26.0188 C   0  0  0  0  0  0  0  0  0  0  0  0
    7.9847   13.7751   25.1590 N   0  0  0  0  0  0  0  0  0  0  0  0
    8.5524   12.6834   24.5365 C   0  0  0  0  0  0  0  0  0  0  0  0
    6.2329   14.2576   26.9140 C   0  0  0  0  0  0  0  0  0  0  0  0
    5.0708   13.4787   27.5582 C   0  0  0  0  0  0  0  0  0  0  0  0
    5.4914   12.0550   28.0017 C   0  0  1  0  0  0  0  0  0  0  0  0
    4.3434   11.3507   28.7209 C   0  0  0  0  0  0  0  0  0  0  0  0
    5.9653   11.2174   26.7884 C   0  0  0  0  0  0  0  0  0  0  0  0
  1  2  3  0
  2  3  1  0
  3  4  1  0
  4  5  1  0
  5  6  2  0
  5  7  1  0
  7  8  2  0
  8  9  1  0
  9 10  2  0
 10 11  1  0
 11 12  1  0
 12 13  2  0
 13 14  1  0
 14 15  1  0
 13 16  1  0
 16 17  1  0
 17 18  1  0
 18 19  1  6
 18 20  1  0
 15  7  1  0
 15 11  2  0
 20 12  1  0
M  END
>  <alias>  (1863) 
None

>  <rmsd(smina/fragmenstein)>  (1863) 
0.606

>  <smiles>  (1863) 
C#CCNC(=O)c1cccc2c3c([nH]c12)CC[C@@H](C)C3

>  <gnina_score>  (1863) 
5.222

>  <inspiration_score>  (1863) 
None

>  <energy_score>  (1863) 
-22.707341

>  <distance_score>  (1863) 
0.941256

>  <gnina_score_min>  (1863) 
5.449

>  <inchikey>  (1863) 
YRDVUGPKZSQIQL-LLVKDONJSA-N

>  <exports>  (1863) 
['/opt/xchem-fragalysis-2/maxwin/BulkDock/OUTPUTS/openbind_a71ev2a_c2_elabs_1LOUU54.sdf', '/opt/xchem-fragalysis-2/maxwin/BulkDock/OUTPUTS/openbind_a71ev2a_c2_elabs_1LSYIDY.sdf']

>  <name>  (1863) 
P585685

>  <ref_pdb>  (1863) 
A0566a

>  <subsites>  (1863) 
None

>  <HIPPO Pose ID>  (1863) 
585685

>  <ref_mols>  (1863) 
A0566a

>  <HIPPO Compound ID>  (1863) 
440852

>  <tags>  (1863) 
openbind_a71ev2a_c2_elabs,syndirella_product,openbind_a71ev2a_c2_elabs_fragonly_scored_top80percent,openbind_a71ev2a_c2_elabs_scored,BulkDock Fragalysis export,openbind_a71ev2a_c2_elabs_scored_top80percent,openbind_a71ev2a_c2_elabs_activefrags_only_scored_5.2plus,syndirella_placed

>  <smina_score_min>  (1863) 
-6.719

$$$$
P585701
     RDKit          3D

 20 23  0  0  0  0  0  0  0  0999 V2000
   10.5999   14.6301   24.1289 O   0  0  0  0  0  0  0  0  0  0  0  0
   10.3746   13.8566   23.2869 C   0  0  0  0  0  0  0  0  0  0  0  0
   10.6254   13.9304   21.7741 N   0  0  0  0  0  0  0  0  0  0  0  0
   11.1087   14.9847   20.9780 C   0  0  0  0  0  0  0  0  0  0  0  0
   10.0685   15.7432   20.1870 C   0  0  0  0  0  0  0  0  0  0  0  0
   11.0969   14.9155   19.4782 C   0  0  0  0  0  0  0  0  0  0  0  0
    9.6408   12.6284   23.6750 C   0  0  0  0  0  0  0  0  0  0  0  0
    9.8872   11.3583   23.1646 C   0  0  0  0  0  0  0  0  0  0  0  0
    9.1590   10.2582   23.6081 C   0  0  0  0  0  0  0  0  0  0  0  0
    8.1517   10.4110   24.5732 C   0  0  0  0  0  0  0  0  0  0  0  0
    7.8524   11.6913   25.0818 C   0  0  0  0  0  0  0  0  0  0  0  0
    6.9523   12.2153   26.0768 C   0  0  0  0  0  0  0  0  0  0  0  0
    7.2308   13.5681   26.2016 C   0  0  0  0  0  0  0  0  0  0  0  0
    8.1563   13.8898   25.2491 N   0  0  0  0  0  0  0  0  0  0  0  0
    8.6080   12.7588   24.6134 C   0  0  0  0  0  0  0  0  0  0  0  0
    6.7738   14.5992   27.1794 C   0  0  0  0  0  0  0  0  0  0  0  0
    5.2685   14.6322   27.3942 C   0  0  0  0  0  0  0  0  0  0  0  0
    4.7201   13.3811   28.0792 C   0  0  0  0  0  0  0  0  0  0  0  0
    4.6532   12.1699   27.1510 C   0  0  0  0  0  0  0  0  0  0  0  0
    5.9810   11.4507   26.9170 C   0  0  0  0  0  0  0  0  0  0  0  0
  1  2  2  0
  2  3  1  0
  3  4  1  0
  4  5  1  0
  5  6  1  0
  2  7  1  0
  7  8  2  0
  8  9  1  0
  9 10  2  0
 10 11  1  0
 11 12  1  0
 12 13  2  0
 13 14  1  0
 14 15  1  0
 13 16  1  0
 16 17  1  0
 17 18  1  0
 18 19  1  0
 19 20  1  0
  6  4  1  0
 15  7  1  0
 15 11  2  0
 20 12  1  0
M  END
>  <alias>  (1864) 
None

>  <rmsd(smina/fragmenstein)>  (1864) 
0.566

>  <smiles>  (1864) 
O=C(NC1CC1)c1cccc2c3c([nH]c12)CCCCC3

>  <gnina_score>  (1864) 
5.39

>  <inspiration_score>  (1864) 
None

>  <energy_score>  (1864) 
-6.802997

>  <distance_score>  (1864) 
1.076962

>  <gnina_score_min>  (1864) 
5.492

>  <inchikey>  (1864) 
ZWMNMXPAHXETPI-UHFFFAOYSA-N

>  <exports>  (1864) 
['/opt/xchem-fragalysis-2/maxwin/BulkDock/OUTPUTS/openbind_a71ev2a_c2_elabs_1LOUU54.sdf', '/opt/xchem-fragalysis-2/maxwin/BulkDock/OUTPUTS/openbind_a71ev2a_c2_elabs_1LSYIDY.sdf']

>  <name>  (1864) 
P585701

>  <ref_pdb>  (1864) 
A0566a

>  <subsites>  (1864) 
None

>  <HIPPO Pose ID>  (1864) 
585701

>  <ref_mols>  (1864) 
A0566a

>  <HIPPO Compound ID>  (1864) 
440873

>  <tags>  (1864) 
openbind_a71ev2a_c2_elabs,syndirella_product,openbind_a71ev2a_c2_elabs_fragonly_scored_top80percent,openbind_a71ev2a_c2_elabs_scored,BulkDock Fragalysis export,openbind_a71ev2a_c2_elabs_scored_top80percent,openbind_a71ev2a_c2_elabs_activefrags_only_scored_5.2plus,syndirella_placed

>  <smina_score_min>  (1864) 
-7.292

$$$$
P585702
     RDKit          3D

 20 22  0  0  0  0  0  0  0  0999 V2000
   13.0590   15.3542   22.2832 N   0  0  0  0  0  0  0  0  0  0  0  0
   12.1357   15.1740   21.6107 C   0  0  0  0  0  0  0  0  0  0  0  0
   10.8831   14.8764   20.9300 C   0  0  0  0  0  0  0  0  0  0  0  0
   10.2509   13.8501   21.7001 N   0  0  0  0  0  0  0  0  0  0  0  0
    9.6697   13.8840   23.1163 C   0  0  0  0  0  0  0  0  0  0  0  0
    9.5410   14.7715   23.8581 O   0  0  0  0  0  0  0  0  0  0  0  0
    9.1960   12.5586   23.5881 C   0  0  0  0  0  0  0  0  0  0  0  0
    9.7312   11.3332   23.1828 C   0  0  0  0  0  0  0  0  0  0  0  0
    9.2150   10.1348   23.6597 C   0  0  0  0  0  0  0  0  0  0  0  0
    8.1850   10.1389   24.6068 C   0  0  0  0  0  0  0  0  0  0  0  0
    7.6691   11.3564   25.0893 C   0  0  0  0  0  0  0  0  0  0  0  0
    6.6995   11.7286   26.0783 C   0  0  0  0  0  0  0  0  0  0  0  0
    6.6373   13.1124   26.0906 C   0  0  0  0  0  0  0  0  0  0  0  0
    7.5180   13.5747   25.1555 N   0  0  0  0  0  0  0  0  0  0  0  0
    8.1812   12.5300   24.5548 C   0  0  0  0  0  0  0  0  0  0  0  0
    5.8269   14.0586   26.9182 C   0  0  0  0  0  0  0  0  0  0  0  0
    4.4833   13.4671   27.3366 C   0  0  0  0  0  0  0  0  0  0  0  0
    4.5622   12.4283   28.4606 C   0  0  0  0  0  0  0  0  0  0  0  0
    5.6845   11.3883   28.3691 C   0  0  0  0  0  0  0  0  0  0  0  0
    5.9058   10.8237   26.9655 C   0  0  0  0  0  0  0  0  0  0  0  0
  1  2  3  0
  2  3  1  0
  3  4  1  0
  4  5  1  0
  5  6  2  0
  5  7  1  0
  7  8  2  0
  8  9  1  0
  9 10  2  0
 10 11  1  0
 11 12  1  0
 12 13  2  0
 13 14  1  0
 14 15  1  0
 13 16  1  0
 16 17  1  0
 17 18  1  0
 18 19  1  0
 19 20  1  0
 15  7  1  0
 15 11  2  0
 20 12  1  0
M  END
>  <alias>  (1865) 
None

>  <rmsd(smina/fragmenstein)>  (1865) 
0.383

>  <smiles>  (1865) 
N#CCNC(=O)c1cccc2c3c([nH]c12)CCCCC3

>  <gnina_score>  (1865) 
5.438

>  <inspiration_score>  (1865) 
None

>  <energy_score>  (1865) 
-8.100055

>  <distance_score>  (1865) 
1.377672

>  <gnina_score_min>  (1865) 
5.443

>  <inchikey>  (1865) 
UFEFQYAZLLNTFV-UHFFFAOYSA-N

>  <exports>  (1865) 
['/opt/xchem-fragalysis-2/maxwin/BulkDock/OUTPUTS/openbind_a71ev2a_c2_elabs_1LOUU54.sdf', '/opt/xchem-fragalysis-2/maxwin/BulkDock/OUTPUTS/openbind_a71ev2a_c2_elabs_1LSYIDY.sdf']

>  <name>  (1865) 
P585702

>  <ref_pdb>  (1865) 
A0566a

>  <subsites>  (1865) 
None

>  <HIPPO Pose ID>  (1865) 
585702

>  <ref_mols>  (1865) 
A0566a

>  <HIPPO Compound ID>  (1865) 
440877

>  <tags>  (1865) 
openbind_a71ev2a_c2_elabs,syndirella_product,openbind_a71ev2a_c2_elabs_fragonly_scored_top80percent,openbind_a71ev2a_c2_elabs_scored,BulkDock Fragalysis export,openbind_a71ev2a_c2_elabs_scored_top80percent,openbind_a71ev2a_c2_elabs_activefrags_only_scored_5.2plus,syndirella_placed

>  <smina_score_min>  (1865) 
-6.37

$$$$
P585703
     RDKit          3D

 20 22  0  0  0  0  0  0  0  0999 V2000
   11.4511   14.8839   18.8954 C   0  0  0  0  0  0  0  0  0  0  0  0
   11.6488   14.8241   20.0767 C   0  0  0  0  0  0  0  0  0  0  0  0
   11.8888   14.8096   21.5111 C   0  0  0  0  0  0  0  0  0  0  0  0
   11.0103   13.8605   22.1097 N   0  0  0  0  0  0  0  0  0  0  0  0
   10.4163   13.8058   23.5181 C   0  0  0  0  0  0  0  0  0  0  0  0
   10.4849   14.5667   24.3968 O   0  0  0  0  0  0  0  0  0  0  0  0
    9.5909   12.5873   23.7337 C   0  0  0  0  0  0  0  0  0  0  0  0
    9.9124   11.3409   23.1918 C   0  0  0  0  0  0  0  0  0  0  0  0
    9.2346   10.1880   23.5674 C   0  0  0  0  0  0  0  0  0  0  0  0
    8.2109   10.2573   24.5145 C   0  0  0  0  0  0  0  0  0  0  0  0
    7.8161   11.5049   25.0343 C   0  0  0  0  0  0  0  0  0  0  0  0
    6.8516   11.9305   26.0032 C   0  0  0  0  0  0  0  0  0  0  0  0
    6.9242   13.3122   26.0731 C   0  0  0  0  0  0  0  0  0  0  0  0
    7.9276   13.7195   25.2378 N   0  0  0  0  0  0  0  0  0  0  0  0
    8.5031   12.6387   24.6133 C   0  0  0  0  0  0  0  0  0  0  0  0
    6.1453   14.2989   26.8831 C   0  0  0  0  0  0  0  0  0  0  0  0
    4.7310   13.8109   27.1916 C   0  0  0  0  0  0  0  0  0  0  0  0
    4.6503   12.7374   28.2826 C   0  0  0  0  0  0  0  0  0  0  0  0
    5.6805   11.6038   28.2191 C   0  0  0  0  0  0  0  0  0  0  0  0
    5.9372   11.0666   26.8107 C   0  0  0  0  0  0  0  0  0  0  0  0
  1  2  3  0
  2  3  1  0
  3  4  1  0
  4  5  1  0
  5  6  2  0
  5  7  1  0
  7  8  2  0
  8  9  1  0
  9 10  2  0
 10 11  1  0
 11 12  1  0
 12 13  2  0
 13 14  1  0
 14 15  1  0
 13 16  1  0
 16 17  1  0
 17 18  1  0
 18 19  1  0
 19 20  1  0
 15  7  1  0
 15 11  2  0
 20 12  1  0
M  END
>  <alias>  (1866) 
None

>  <rmsd(smina/fragmenstein)>  (1866) 
0.633

>  <smiles>  (1866) 
C#CCNC(=O)c1cccc2c3c([nH]c12)CCCCC3

>  <gnina_score>  (1866) 
5.264

>  <inspiration_score>  (1866) 
None

>  <energy_score>  (1866) 
-12.235843

>  <distance_score>  (1866) 
0.92741

>  <gnina_score_min>  (1866) 
5.441

>  <inchikey>  (1866) 
YXQZOFFMQDNROF-UHFFFAOYSA-N

>  <exports>  (1866) 
['/opt/xchem-fragalysis-2/maxwin/BulkDock/OUTPUTS/openbind_a71ev2a_c2_elabs_1LOUU54.sdf', '/opt/xchem-fragalysis-2/maxwin/BulkDock/OUTPUTS/openbind_a71ev2a_c2_elabs_1LSYIDY.sdf']

>  <name>  (1866) 
P585703

>  <ref_pdb>  (1866) 
A0566a

>  <subsites>  (1866) 
None

>  <HIPPO Pose ID>  (1866) 
585703

>  <ref_mols>  (1866) 
A0566a

>  <HIPPO Compound ID>  (1866) 
440878

>  <tags>  (1866) 
openbind_a71ev2a_c2_elabs,syndirella_product,openbind_a71ev2a_c2_elabs_fragonly_scored_top80percent,openbind_a71ev2a_c2_elabs_scored,BulkDock Fragalysis export,openbind_a71ev2a_c2_elabs_scored_top80percent,openbind_a71ev2a_c2_elabs_activefrags_only_scored_5.2plus,syndirella_placed

>  <smina_score_min>  (1866) 
-6.684

$$$$
P585705
     RDKit          3D

 20 22  0  0  0  0  0  0  0  0999 V2000
   12.3690   14.5050   20.5891 C   0  0  0  0  0  0  0  0  0  0  0  0
   11.0746   14.9173   19.9117 C   0  0  0  0  0  0  0  0  0  0  0  0
   10.0557   15.4390   20.9097 C   0  0  0  0  0  0  0  0  0  0  0  0
    9.6352   14.3928   21.8028 N   0  0  0  0  0  0  0  0  0  0  0  0
   10.1047   14.0442   23.2208 C   0  0  0  0  0  0  0  0  0  0  0  0
   10.8518   14.5927   23.9248 O   0  0  0  0  0  0  0  0  0  0  0  0
    9.4602   12.7992   23.6626 C   0  0  0  0  0  0  0  0  0  0  0  0
    9.8969   11.5708   23.1694 C   0  0  0  0  0  0  0  0  0  0  0  0
    9.2996   10.3870   23.5840 C   0  0  0  0  0  0  0  0  0  0  0  0
    8.2672   10.4192   24.5298 C   0  0  0  0  0  0  0  0  0  0  0  0
    7.8035   11.6539   25.0350 C   0  0  0  0  0  0  0  0  0  0  0  0
    6.8005   12.0486   25.9796 C   0  0  0  0  0  0  0  0  0  0  0  0
    6.7737   13.4322   25.9891 C   0  0  0  0  0  0  0  0  0  0  0  0
    7.7614   13.8816   25.1557 N   0  0  0  0  0  0  0  0  0  0  0  0
    8.4062   12.8220   24.5719 C   0  0  0  0  0  0  0  0  0  0  0  0
    5.8626   14.3792   26.6953 C   0  0  0  0  0  0  0  0  0  0  0  0
    5.7708   14.1040   28.1939 C   0  0  0  0  0  0  0  0  0  0  0  0
    5.0166   12.8195   28.5477 C   0  0  0  0  0  0  0  0  0  0  0  0
    5.7901   11.5305   28.2573 C   0  0  0  0  0  0  0  0  0  0  0  0
    5.8926   11.1700   26.7733 C   0  0  0  0  0  0  0  0  0  0  0  0
  1  2  1  0
  2  3  1  0
  3  4  1  0
  4  5  1  0
  5  6  2  0
  5  7  1  0
  7  8  2  0
  8  9  1  0
  9 10  2  0
 10 11  1  0
 11 12  1  0
 12 13  2  0
 13 14  1  0
 14 15  1  0
 13 16  1  0
 16 17  1  0
 17 18  1  0
 18 19  1  0
 19 20  1  0
 15  7  1  0
 15 11  2  0
 20 12  1  0
M  END
>  <alias>  (1867) 
None

>  <rmsd(smina/fragmenstein)>  (1867) 
0.723

>  <smiles>  (1867) 
CCCNC(=O)c1cccc2c3c([nH]c12)CCCCC3

>  <gnina_score>  (1867) 
5.18

>  <inspiration_score>  (1867) 
None

>  <energy_score>  (1867) 
-11.626215

>  <distance_score>  (1867) 
1.23663

>  <gnina_score_min>  (1867) 
5.365

>  <inchikey>  (1867) 
JVOYLSCGXNSHET-UHFFFAOYSA-N

>  <exports>  (1867) 
['/opt/xchem-fragalysis-2/maxwin/BulkDock/OUTPUTS/openbind_a71ev2a_c2_elabs_1LOUU54.sdf', '/opt/xchem-fragalysis-2/maxwin/BulkDock/OUTPUTS/openbind_a71ev2a_c2_elabs_1LSYIDY.sdf']

>  <name>  (1867) 
P585705

>  <ref_pdb>  (1867) 
A0566a

>  <subsites>  (1867) 
None

>  <HIPPO Pose ID>  (1867) 
585705

>  <ref_mols>  (1867) 
A0566a

>  <HIPPO Compound ID>  (1867) 
440880

>  <tags>  (1867) 
openbind_a71ev2a_c2_elabs,syndirella_product,openbind_a71ev2a_c2_elabs_fragonly_scored_top80percent,openbind_a71ev2a_c2_elabs_scored,BulkDock Fragalysis export,openbind_a71ev2a_c2_elabs_scored_top80percent,openbind_a71ev2a_c2_elabs_activefrags_only_scored_5.2plus,syndirella_placed

>  <smina_score_min>  (1867) 
-6.446

$$$$
P585706
     RDKit          3D

 20 22  0  0  0  0  0  0  0  0999 V2000
   12.4349   15.2781   21.8752 C   0  0  0  0  0  0  0  0  0  0  0  0
   11.3293   14.6648   21.0375 C   0  0  0  0  0  0  0  0  0  0  0  0
   10.3358   15.6443   20.4275 C   0  0  0  0  0  0  0  0  0  0  0  0
   10.6063   13.7029   21.8193 N   0  0  0  0  0  0  0  0  0  0  0  0
   10.0880   13.7768   23.2613 C   0  0  0  0  0  0  0  0  0  0  0  0
   10.0963   14.6585   24.0228 O   0  0  0  0  0  0  0  0  0  0  0  0
    9.4156   12.5185   23.6782 C   0  0  0  0  0  0  0  0  0  0  0  0
    9.7957   11.2486   23.2375 C   0  0  0  0  0  0  0  0  0  0  0  0
    9.1581   10.1055   23.6982 C   0  0  0  0  0  0  0  0  0  0  0  0
    8.1322   10.2036   24.6426 C   0  0  0  0  0  0  0  0  0  0  0  0
    7.7177   11.4667   25.1065 C   0  0  0  0  0  0  0  0  0  0  0  0
    6.7403   11.9278   26.0484 C   0  0  0  0  0  0  0  0  0  0  0  0
    6.7710   13.3103   26.0210 C   0  0  0  0  0  0  0  0  0  0  0  0
    7.7609   13.6910   25.1598 N   0  0  0  0  0  0  0  0  0  0  0  0
    8.3611   12.5893   24.5978 C   0  0  0  0  0  0  0  0  0  0  0  0
    5.9210   14.3138   26.7233 C   0  0  0  0  0  0  0  0  0  0  0  0
    5.8620   14.0811   28.2310 C   0  0  0  0  0  0  0  0  0  0  0  0
    5.0629   12.8409   28.6413 C   0  0  0  0  0  0  0  0  0  0  0  0
    5.7657   11.5094   28.3616 C   0  0  0  0  0  0  0  0  0  0  0  0
    5.8119   11.1116   26.8842 C   0  0  0  0  0  0  0  0  0  0  0  0
  1  2  1  0
  2  3  1  0
  2  4  1  0
  4  5  1  0
  5  6  2  0
  5  7  1  0
  7  8  2  0
  8  9  1  0
  9 10  2  0
 10 11  1  0
 11 12  1  0
 12 13  2  0
 13 14  1  0
 14 15  1  0
 13 16  1  0
 16 17  1  0
 17 18  1  0
 18 19  1  0
 19 20  1  0
 15  7  1  0
 15 11  2  0
 20 12  1  0
M  END
>  <alias>  (1868) 
None

>  <rmsd(smina/fragmenstein)>  (1868) 
0.529

>  <smiles>  (1868) 
CC(C)NC(=O)c1cccc2c3c([nH]c12)CCCCC3

>  <gnina_score>  (1868) 
5.542

>  <inspiration_score>  (1868) 
None

>  <energy_score>  (1868) 
-18.041939

>  <distance_score>  (1868) 
1.182237

>  <gnina_score_min>  (1868) 
5.536

>  <inchikey>  (1868) 
XMZMXPGXKCAJKG-UHFFFAOYSA-N

>  <exports>  (1868) 
['/opt/xchem-fragalysis-2/maxwin/BulkDock/OUTPUTS/openbind_a71ev2a_c2_elabs_1LOUU54.sdf', '/opt/xchem-fragalysis-2/maxwin/BulkDock/OUTPUTS/openbind_a71ev2a_c2_elabs_1LSYIDY.sdf']

>  <name>  (1868) 
P585706

>  <ref_pdb>  (1868) 
A0566a

>  <subsites>  (1868) 
None

>  <HIPPO Pose ID>  (1868) 
585706

>  <ref_mols>  (1868) 
A0566a

>  <HIPPO Compound ID>  (1868) 
440881

>  <tags>  (1868) 
openbind_a71ev2a_c2_elabs,syndirella_product,openbind_a71ev2a_c2_elabs_fragonly_scored_top80percent,BulkDock Fragalysis export,openbind_a71ev2a_c2_elabs_scored,openbind_a71ev2a_c2_elabs_scored_top80percent,openbind_a71ev2a_c2_elabs_activefrags_only_scored_5.2plus,openbind_a71ev2a_c2_elabs_activefrags_only_scored_5.5plus,syndirella_placed

>  <smina_score_min>  (1868) 
-7.079

$$$$
P585707
     RDKit          3D

 20 22  0  0  0  0  0  0  0  0999 V2000
   11.1791   15.0248   19.0551 C   0  0  0  0  0  0  0  0  0  0  0  0
   11.9396   14.5757   20.0605 C   0  0  0  0  0  0  0  0  0  0  0  0
   11.7604   14.9453   21.4863 C   0  0  0  0  0  0  0  0  0  0  0  0
   10.9321   13.9607   22.1010 N   0  0  0  0  0  0  0  0  0  0  0  0
   10.4132   13.8526   23.5379 C   0  0  0  0  0  0  0  0  0  0  0  0
   10.5136   14.5893   24.4349 O   0  0  0  0  0  0  0  0  0  0  0  0
    9.5898   12.6318   23.7510 C   0  0  0  0  0  0  0  0  0  0  0  0
    9.9050   11.3902   23.1973 C   0  0  0  0  0  0  0  0  0  0  0  0
    9.2180   10.2393   23.5678 C   0  0  0  0  0  0  0  0  0  0  0  0
    8.1920   10.3065   24.5165 C   0  0  0  0  0  0  0  0  0  0  0  0
    7.8074   11.5512   25.0520 C   0  0  0  0  0  0  0  0  0  0  0  0
    6.8500   11.9763   26.0349 C   0  0  0  0  0  0  0  0  0  0  0  0
    6.9936   13.3487   26.1676 C   0  0  0  0  0  0  0  0  0  0  0  0
    7.9536   13.7590   25.2858 N   0  0  0  0  0  0  0  0  0  0  0  0
    8.5081   12.6809   24.6401 C   0  0  0  0  0  0  0  0  0  0  0  0
    6.3225   14.3198   27.0844 C   0  0  0  0  0  0  0  0  0  0  0  0
    6.1570   13.7284   28.4835 C   0  0  0  0  0  0  0  0  0  0  0  0
    5.0021   12.7323   28.6184 C   0  0  0  0  0  0  0  0  0  0  0  0
    4.7090   11.8423   27.4073 C   0  0  0  0  0  0  0  0  0  0  0  0
    5.9203   11.1085   26.8296 C   0  0  0  0  0  0  0  0  0  0  0  0
  1  2  2  0
  2  3  1  0
  3  4  1  0
  4  5  1  0
  5  6  2  0
  5  7  1  0
  7  8  2  0
  8  9  1  0
  9 10  2  0
 10 11  1  0
 11 12  1  0
 12 13  2  0
 13 14  1  0
 14 15  1  0
 13 16  1  0
 16 17  1  0
 17 18  1  0
 18 19  1  0
 19 20  1  0
 15  7  1  0
 15 11  2  0
 20 12  1  0
M  END
>  <alias>  (1869) 
None

>  <rmsd(smina/fragmenstein)>  (1869) 
0.751

>  <smiles>  (1869) 
C=CCNC(=O)c1cccc2c3c([nH]c12)CCCCC3

>  <gnina_score>  (1869) 
5.246

>  <inspiration_score>  (1869) 
None

>  <energy_score>  (1869) 
-17.201589

>  <distance_score>  (1869) 
0.936229

>  <gnina_score_min>  (1869) 
5.48

>  <inchikey>  (1869) 
SURZCXPXIGUSSW-UHFFFAOYSA-N

>  <exports>  (1869) 
['/opt/xchem-fragalysis-2/maxwin/BulkDock/OUTPUTS/openbind_a71ev2a_c2_elabs_1LOUU54.sdf', '/opt/xchem-fragalysis-2/maxwin/BulkDock/OUTPUTS/openbind_a71ev2a_c2_elabs_1LSYIDY.sdf']

>  <name>  (1869) 
P585707

>  <ref_pdb>  (1869) 
A0566a

>  <subsites>  (1869) 
None

>  <HIPPO Pose ID>  (1869) 
585707

>  <ref_mols>  (1869) 
A0566a

>  <HIPPO Compound ID>  (1869) 
440882

>  <tags>  (1869) 
openbind_a71ev2a_c2_elabs,syndirella_product,openbind_a71ev2a_c2_elabs_fragonly_scored_top80percent,openbind_a71ev2a_c2_elabs_scored,BulkDock Fragalysis export,openbind_a71ev2a_c2_elabs_scored_top80percent,openbind_a71ev2a_c2_elabs_activefrags_only_scored_5.2plus,syndirella_placed

>  <smina_score_min>  (1869) 
-6.82

$$$$
P585708
     RDKit          3D

 20 22  0  0  0  0  0  0  0  0999 V2000
    9.8752   14.7197   23.9986 O   0  0  0  0  0  0  0  0  0  0  0  0
    9.9634   13.8541   23.2238 C   0  0  0  0  0  0  0  0  0  0  0  0
   10.6146   13.8247   21.8340 N   0  0  0  0  0  0  0  0  0  0  0  0
   11.3788   14.8247   21.1390 C   0  0  0  0  0  0  0  0  0  0  0  0
   12.6283   15.1484   21.9259 C   0  0  0  0  0  0  0  0  0  0  0  0
   12.2931   15.9966   22.9342 F   0  0  0  0  0  0  0  0  0  0  0  0
    9.3490   12.5575   23.6085 C   0  0  0  0  0  0  0  0  0  0  0  0
    9.8066   11.3139   23.1670 C   0  0  0  0  0  0  0  0  0  0  0  0
    9.2316   10.1322   23.6169 C   0  0  0  0  0  0  0  0  0  0  0  0
    8.2035   10.1676   24.5637 C   0  0  0  0  0  0  0  0  0  0  0  0
    7.7313   11.4015   25.0495 C   0  0  0  0  0  0  0  0  0  0  0  0
    6.7643   11.7996   26.0297 C   0  0  0  0  0  0  0  0  0  0  0  0
    6.7487   13.1847   26.0504 C   0  0  0  0  0  0  0  0  0  0  0  0
    7.6754   13.6235   25.1477 N   0  0  0  0  0  0  0  0  0  0  0  0
    8.3061   12.5605   24.5449 C   0  0  0  0  0  0  0  0  0  0  0  0
    5.9456   14.1503   26.8621 C   0  0  0  0  0  0  0  0  0  0  0  0
    4.5745   13.5947   27.2403 C   0  0  0  0  0  0  0  0  0  0  0  0
    4.5947   12.5512   28.3626 C   0  0  0  0  0  0  0  0  0  0  0  0
    5.6897   11.4804   28.2963 C   0  0  0  0  0  0  0  0  0  0  0  0
    5.9294   10.9126   26.8970 C   0  0  0  0  0  0  0  0  0  0  0  0
  1  2  2  0
  2  3  1  0
  3  4  1  0
  4  5  1  0
  5  6  1  0
  2  7  1  0
  7  8  2  0
  8  9  1  0
  9 10  2  0
 10 11  1  0
 11 12  1  0
 12 13  2  0
 13 14  1  0
 14 15  1  0
 13 16  1  0
 16 17  1  0
 17 18  1  0
 18 19  1  0
 19 20  1  0
 15  7  1  0
 15 11  2  0
 20 12  1  0
M  END
>  <alias>  (1870) 
None

>  <rmsd(smina/fragmenstein)>  (1870) 
0.498

>  <smiles>  (1870) 
O=C(NCCF)c1cccc2c3c([nH]c12)CCCCC3

>  <gnina_score>  (1870) 
5.471

>  <inspiration_score>  (1870) 
None

>  <energy_score>  (1870) 
-117.467371

>  <distance_score>  (1870) 
1.185106

>  <gnina_score_min>  (1870) 
5.396

>  <inchikey>  (1870) 
LTVQRJLYCBLQGS-UHFFFAOYSA-N

>  <exports>  (1870) 
['/opt/xchem-fragalysis-2/maxwin/BulkDock/OUTPUTS/openbind_a71ev2a_c2_elabs_1LOUU54.sdf', '/opt/xchem-fragalysis-2/maxwin/BulkDock/OUTPUTS/openbind_a71ev2a_c2_elabs_1LSYIDY.sdf']

>  <name>  (1870) 
P585708

>  <ref_pdb>  (1870) 
A0566a

>  <subsites>  (1870) 
None

>  <HIPPO Pose ID>  (1870) 
585708

>  <ref_mols>  (1870) 
A0566a

>  <HIPPO Compound ID>  (1870) 
440883

>  <tags>  (1870) 
openbind_a71ev2a_c2_elabs,syndirella_product,openbind_a71ev2a_c2_elabs_fragonly_scored_top80percent,openbind_a71ev2a_c2_elabs_scored,BulkDock Fragalysis export,openbind_a71ev2a_c2_elabs_scored_top80percent,openbind_a71ev2a_c2_elabs_activefrags_only_scored_5.2plus,syndirella_placed

>  <smina_score_min>  (1870) 
-6.63

$$$$
P585709
     RDKit          3D

 20 22  0  0  0  0  0  0  0  0999 V2000
   10.5649   14.3165   24.5578 O   0  0  0  0  0  0  0  0  0  0  0  0
   10.4537   13.4954   23.7410 C   0  0  0  0  0  0  0  0  0  0  0  0
   11.2649   13.2442   22.4737 N   0  0  0  0  0  0  0  0  0  0  0  0
   12.3148   13.9906   21.8913 C   0  0  0  0  0  0  0  0  0  0  0  0
   11.8723   15.3636   21.5126 C   0  0  0  0  0  0  0  0  0  0  0  0
   10.4452   15.3078   20.1883 Br  0  0  0  0  0  0  0  0  0  0  0  0
    9.4373   12.4304   23.9443 C   0  0  0  0  0  0  0  0  0  0  0  0
    9.5942   11.1267   23.4632 C   0  0  0  0  0  0  0  0  0  0  0  0
    8.7672   10.1100   23.9038 C   0  0  0  0  0  0  0  0  0  0  0  0
    7.7628   10.3589   24.8436 C   0  0  0  0  0  0  0  0  0  0  0  0
    7.5399   11.6716   25.2973 C   0  0  0  0  0  0  0  0  0  0  0  0
    6.6813   12.2675   26.2820 C   0  0  0  0  0  0  0  0  0  0  0  0
    7.0217   13.6083   26.3577 C   0  0  0  0  0  0  0  0  0  0  0  0
    7.9731   13.8486   25.4057 N   0  0  0  0  0  0  0  0  0  0  0  0
    8.3677   12.6757   24.8115 C   0  0  0  0  0  0  0  0  0  0  0  0
    6.5965   14.6915   27.2923 C   0  0  0  0  0  0  0  0  0  0  0  0
    5.0908   14.7758   27.5003 C   0  0  0  0  0  0  0  0  0  0  0  0
    4.5033   13.5776   28.2468 C   0  0  0  0  0  0  0  0  0  0  0  0
    4.3900   12.3224   27.3832 C   0  0  0  0  0  0  0  0  0  0  0  0
    5.6994   11.5651   27.1637 C   0  0  0  0  0  0  0  0  0  0  0  0
  1  2  2  0
  2  3  1  0
  3  4  1  0
  4  5  1  0
  5  6  1  0
  2  7  1  0
  7  8  2  0
  8  9  1  0
  9 10  2  0
 10 11  1  0
 11 12  1  0
 12 13  2  0
 13 14  1  0
 14 15  1  0
 13 16  1  0
 16 17  1  0
 17 18  1  0
 18 19  1  0
 19 20  1  0
 15  7  1  0
 15 11  2  0
 20 12  1  0
M  END
>  <alias>  (1871) 
None

>  <rmsd(smina/fragmenstein)>  (1871) 
0.521

>  <smiles>  (1871) 
O=C(NCCBr)c1cccc2c3c([nH]c12)CCCCC3

>  <gnina_score>  (1871) 
5.526

>  <inspiration_score>  (1871) 
None

>  <energy_score>  (1871) 
-11.705938

>  <distance_score>  (1871) 
1.216415

>  <gnina_score_min>  (1871) 
5.587

>  <inchikey>  (1871) 
RYGQPYQVODLKSL-UHFFFAOYSA-N

>  <exports>  (1871) 
['/opt/xchem-fragalysis-2/maxwin/BulkDock/OUTPUTS/openbind_a71ev2a_c2_elabs_1LOUU54.sdf', '/opt/xchem-fragalysis-2/maxwin/BulkDock/OUTPUTS/openbind_a71ev2a_c2_elabs_1LSYIDY.sdf']

>  <name>  (1871) 
P585709

>  <ref_pdb>  (1871) 
A0566a

>  <subsites>  (1871) 
None

>  <HIPPO Pose ID>  (1871) 
585709

>  <ref_mols>  (1871) 
A0566a

>  <HIPPO Compound ID>  (1871) 
440884

>  <tags>  (1871) 
openbind_a71ev2a_c2_elabs,syndirella_product,openbind_a71ev2a_c2_elabs_fragonly_scored_top80percent,BulkDock Fragalysis export,openbind_a71ev2a_c2_elabs_scored,openbind_a71ev2a_c2_elabs_scored_top80percent,openbind_a71ev2a_c2_elabs_activefrags_only_scored_5.2plus,openbind_a71ev2a_c2_elabs_activefrags_only_scored_5.5plus,syndirella_placed

>  <smina_score_min>  (1871) 
-6.389

$$$$
P585710
     RDKit          3D

 20 23  0  0  0  0  0  0  0  0999 V2000
   10.5456   14.6716   24.3925 O   0  0  0  0  0  0  0  0  0  0  0  0
   10.3791   13.9333   23.4896 C   0  0  0  0  0  0  0  0  0  0  0  0
    9.5931   12.7024   23.7255 C   0  0  0  0  0  0  0  0  0  0  0  0
    9.9417   11.4793   23.1535 C   0  0  0  0  0  0  0  0  0  0  0  0
    9.2933   10.3038   23.5136 C   0  0  0  0  0  0  0  0  0  0  0  0
    8.2704   10.3342   24.4666 C   0  0  0  0  0  0  0  0  0  0  0  0
    7.8527   11.5638   25.0152 C   0  0  0  0  0  0  0  0  0  0  0  0
    6.8778   11.9560   25.9888 C   0  0  0  0  0  0  0  0  0  0  0  0
    6.9300   13.3371   26.0882 C   0  0  0  0  0  0  0  0  0  0  0  0
    7.9293   13.7776   25.2656 N   0  0  0  0  0  0  0  0  0  0  0  0
    8.5178   12.7197   24.6171 C   0  0  0  0  0  0  0  0  0  0  0  0
    6.1333   14.2968   26.9136 C   0  0  0  0  0  0  0  0  0  0  0  0
    4.7232   13.7856   27.2004 C   0  0  0  0  0  0  0  0  0  0  0  0
    4.6483   12.6883   28.2678 C   0  0  0  0  0  0  0  0  0  0  0  0
    5.6944   11.5701   28.1888 C   0  0  0  0  0  0  0  0  0  0  0  0
    5.9686   11.0644   26.7719 C   0  0  0  0  0  0  0  0  0  0  0  0
   10.8281   14.0292   22.0625 N   0  0  0  0  0  0  0  0  0  0  0  0
   11.7098   15.0422   21.3728 C   0  0  0  0  0  0  0  0  0  0  0  0
   10.8356   14.9717   20.1516 C   0  0  0  0  0  0  0  0  0  0  0  0
    9.7709   14.7564   21.1795 C   0  0  0  0  0  0  0  0  0  0  0  0
  1  2  2  0
  2  3  1  0
  3  4  2  0
  4  5  1  0
  5  6  2  0
  6  7  1  0
  7  8  1  0
  8  9  2  0
  9 10  1  0
 10 11  1  0
  9 12  1  0
 12 13  1  0
 13 14  1  0
 14 15  1  0
 15 16  1  0
  2 17  1  0
 17 18  1  0
 18 19  1  0
 19 20  1  0
 11  3  1  0
 20 17  1  0
 11  7  2  0
 16  8  1  0
M  END
>  <alias>  (1872) 
None

>  <rmsd(smina/fragmenstein)>  (1872) 
0.367

>  <smiles>  (1872) 
O=C(c1cccc2c3c([nH]c12)CCCCC3)N1CCC1

>  <gnina_score>  (1872) 
5.497

>  <inspiration_score>  (1872) 
None

>  <energy_score>  (1872) 
-8.930764

>  <distance_score>  (1872) 
0.925162

>  <gnina_score_min>  (1872) 
5.475

>  <inchikey>  (1872) 
ZFLBEKNKAVXBPR-UHFFFAOYSA-N

>  <exports>  (1872) 
['/opt/xchem-fragalysis-2/maxwin/BulkDock/OUTPUTS/openbind_a71ev2a_c2_elabs_1LOUU54.sdf', '/opt/xchem-fragalysis-2/maxwin/BulkDock/OUTPUTS/openbind_a71ev2a_c2_elabs_1LSYIDY.sdf']

>  <name>  (1872) 
P585710

>  <ref_pdb>  (1872) 
A0566a

>  <subsites>  (1872) 
None

>  <HIPPO Pose ID>  (1872) 
585710

>  <ref_mols>  (1872) 
A0566a

>  <HIPPO Compound ID>  (1872) 
440885

>  <tags>  (1872) 
openbind_a71ev2a_c2_elabs,syndirella_product,openbind_a71ev2a_c2_elabs_fragonly_scored_top80percent,openbind_a71ev2a_c2_elabs_scored,BulkDock Fragalysis export,openbind_a71ev2a_c2_elabs_scored_top80percent,openbind_a71ev2a_c2_elabs_activefrags_only_scored_5.2plus,syndirella_placed

>  <smina_score_min>  (1872) 
-6.973

$$$$
P585712
     RDKit          3D

 20 22  0  0  0  0  0  0  0  0999 V2000
   10.4607   14.3288   24.5731 O   0  0  0  0  0  0  0  0  0  0  0  0
   10.3584   13.5207   23.7429 C   0  0  0  0  0  0  0  0  0  0  0  0
   11.1478   13.3218   22.4537 N   0  0  0  0  0  0  0  0  0  0  0  0
   12.2801   14.0046   21.9548 C   0  0  0  0  0  0  0  0  0  0  0  0
   11.9151   15.3290   21.3680 C   0  0  0  0  0  0  0  0  0  0  0  0
   10.7517   15.1501   20.0332 Cl  0  0  0  0  0  0  0  0  0  0  0  0
    9.3911   12.4102   23.9349 C   0  0  0  0  0  0  0  0  0  0  0  0
    9.6285   11.1211   23.4412 C   0  0  0  0  0  0  0  0  0  0  0  0
    8.8655   10.0484   23.8591 C   0  0  0  0  0  0  0  0  0  0  0  0
    7.8498   10.2269   24.7989 C   0  0  0  0  0  0  0  0  0  0  0  0
    7.5451   11.5180   25.2655 C   0  0  0  0  0  0  0  0  0  0  0  0
    6.6319   12.0413   26.2358 C   0  0  0  0  0  0  0  0  0  0  0  0
    6.8374   13.4105   26.2876 C   0  0  0  0  0  0  0  0  0  0  0  0
    7.8172   13.7230   25.3862 N   0  0  0  0  0  0  0  0  0  0  0  0
    8.3057   12.5830   24.7968 C   0  0  0  0  0  0  0  0  0  0  0  0
    6.2039   14.4614   27.1417 C   0  0  0  0  0  0  0  0  0  0  0  0
    5.9606   13.9519   28.5618 C   0  0  0  0  0  0  0  0  0  0  0  0
    4.7415   13.0359   28.7091 C   0  0  0  0  0  0  0  0  0  0  0  0
    4.4688   12.0537   27.5658 C   0  0  0  0  0  0  0  0  0  0  0  0
    5.6867   11.2578   27.0955 C   0  0  0  0  0  0  0  0  0  0  0  0
  1  2  2  0
  2  3  1  0
  3  4  1  0
  4  5  1  0
  5  6  1  0
  2  7  1  0
  7  8  2  0
  8  9  1  0
  9 10  2  0
 10 11  1  0
 11 12  1  0
 12 13  2  0
 13 14  1  0
 14 15  1  0
 13 16  1  0
 16 17  1  0
 17 18  1  0
 18 19  1  0
 19 20  1  0
 15  7  1  0
 15 11  2  0
 20 12  1  0
M  END
>  <alias>  (1873) 
None

>  <rmsd(smina/fragmenstein)>  (1873) 
0.969

>  <smiles>  (1873) 
O=C(NCCCl)c1cccc2c3c([nH]c12)CCCCC3

>  <gnina_score>  (1873) 
5.486

>  <inspiration_score>  (1873) 
None

>  <energy_score>  (1873) 
-14.118187

>  <distance_score>  (1873) 
1.184866

>  <gnina_score_min>  (1873) 
5.509

>  <inchikey>  (1873) 
WVNOGHSSZPDZDJ-UHFFFAOYSA-N

>  <exports>  (1873) 
['/opt/xchem-fragalysis-2/maxwin/BulkDock/OUTPUTS/openbind_a71ev2a_c2_elabs_1LOUU54.sdf', '/opt/xchem-fragalysis-2/maxwin/BulkDock/OUTPUTS/openbind_a71ev2a_c2_elabs_1LSYIDY.sdf']

>  <name>  (1873) 
P585712

>  <ref_pdb>  (1873) 
A0566a

>  <subsites>  (1873) 
None

>  <HIPPO Pose ID>  (1873) 
585712

>  <ref_mols>  (1873) 
A0566a

>  <HIPPO Compound ID>  (1873) 
440888

>  <tags>  (1873) 
openbind_a71ev2a_c2_elabs,syndirella_product,openbind_a71ev2a_c2_elabs_fragonly_scored_top80percent,BulkDock Fragalysis export,openbind_a71ev2a_c2_elabs_scored,openbind_a71ev2a_c2_elabs_scored_top80percent,openbind_a71ev2a_c2_elabs_activefrags_only_scored_5.2plus,openbind_a71ev2a_c2_elabs_activefrags_only_scored_5.5plus,syndirella_placed

>  <smina_score_min>  (1873) 
-6.613

$$$$
P585715
     RDKit          3D

 20 22  0  0  0  0  0  0  0  0999 V2000
   12.7809   15.2120   21.8930 C   0  0  0  0  0  0  0  0  0  0  0  0
   11.7825   14.8886   20.8047 C   0  0  0  0  0  0  0  0  0  0  0  0
   10.4756   15.2354   21.3422 N   0  0  0  0  0  0  0  0  0  0  0  0
    9.5653   15.7853   20.3551 C   0  0  0  0  0  0  0  0  0  0  0  0
    9.9665   14.1762   22.0302 N   0  0  0  0  0  0  0  0  0  0  0  0
    9.8604   13.9260   23.5438 C   0  0  0  0  0  0  0  0  0  0  0  0
   10.1211   14.6187   24.4448 O   0  0  0  0  0  0  0  0  0  0  0  0
    9.2786   12.6078   23.8186 C   0  0  0  0  0  0  0  0  0  0  0  0
    9.7722   11.4317   23.2524 C   0  0  0  0  0  0  0  0  0  0  0  0
    9.2281   10.2044   23.6086 C   0  0  0  0  0  0  0  0  0  0  0  0
    8.2016   10.1397   24.5626 C   0  0  0  0  0  0  0  0  0  0  0  0
    7.6893   11.3170   25.1423 C   0  0  0  0  0  0  0  0  0  0  0  0
    6.7171   11.6230   26.1375 C   0  0  0  0  0  0  0  0  0  0  0  0
    6.6565   12.9977   26.2482 C   0  0  0  0  0  0  0  0  0  0  0  0
    7.5716   13.5408   25.4000 N   0  0  0  0  0  0  0  0  0  0  0  0
    8.2322   12.5309   24.7357 C   0  0  0  0  0  0  0  0  0  0  0  0
    5.7835   13.7829   27.1614 C   0  0  0  0  0  0  0  0  0  0  0  0
    4.6791   12.8752   27.7288 C   0  0  0  0  0  0  0  0  0  0  0  0
    5.2247   11.5002   28.1515 C   0  0  0  0  0  0  0  0  0  0  0  0
    5.8625   10.7361   26.9759 C   0  0  0  0  0  0  0  0  0  0  0  0
  1  2  1  0
  2  3  1  0
  3  4  1  0
  3  5  1  0
  5  6  1  0
  6  7  2  0
  6  8  1  0
  8  9  2  0
  9 10  1  0
 10 11  2  0
 11 12  1  0
 12 13  1  0
 13 14  2  0
 14 15  1  0
 15 16  1  0
 14 17  1  0
 17 18  1  0
 18 19  1  0
 19 20  1  0
 16  8  1  0
 16 12  2  0
 20 13  1  0
M  END
>  <alias>  (1874) 
None

>  <rmsd(smina/fragmenstein)>  (1874) 
0.277

>  <smiles>  (1874) 
CCN(C)NC(=O)c1cccc2c3c([nH]c12)CCCC3

>  <gnina_score>  (1874) 
5.668

>  <inspiration_score>  (1874) 
None

>  <energy_score>  (1874) 
-28.541695

>  <distance_score>  (1874) 
1.250739

>  <gnina_score_min>  (1874) 
5.691

>  <inchikey>  (1874) 
BGIOFMXPTGTYKV-UHFFFAOYSA-N

>  <exports>  (1874) 
['/opt/xchem-fragalysis-2/maxwin/BulkDock/OUTPUTS/openbind_a71ev2a_c2_elabs_1LOUU54.sdf', '/opt/xchem-fragalysis-2/maxwin/BulkDock/OUTPUTS/openbind_a71ev2a_c2_elabs_1LSYIDY.sdf']

>  <name>  (1874) 
P585715

>  <ref_pdb>  (1874) 
A0566a

>  <subsites>  (1874) 
None

>  <HIPPO Pose ID>  (1874) 
585715

>  <ref_mols>  (1874) 
A0566a

>  <HIPPO Compound ID>  (1874) 
440891

>  <tags>  (1874) 
openbind_a71ev2a_c2_elabs,syndirella_product,openbind_a71ev2a_c2_elabs_fragonly_scored_top80percent,BulkDock Fragalysis export,openbind_a71ev2a_c2_elabs_scored,openbind_a71ev2a_c2_elabs_scored_top80percent,openbind_a71ev2a_c2_elabs_activefrags_only_scored_5.2plus,openbind_a71ev2a_c2_elabs_activefrags_only_scored_5.5plus,syndirella_placed

>  <smina_score_min>  (1874) 
-6.704

$$$$
P585716
     RDKit          3D

 20 22  0  0  0  0  0  0  0  0999 V2000
   12.0460   14.1553   18.9799 O   0  0  0  0  0  0  0  0  0  0  0  0
   11.1571   14.8896   19.4960 C   0  0  0  0  0  0  0  0  0  0  0  0
   10.1983   15.4920   18.9258 O   0  0  0  0  0  0  0  0  0  0  0  0
   11.2423   15.0501   21.0345 C   0  0  0  0  0  0  0  0  0  0  0  0
   10.5793   13.9939   21.7782 N   0  0  0  0  0  0  0  0  0  0  0  0
   10.2512   13.8812   23.2722 C   0  0  0  0  0  0  0  0  0  0  0  0
   10.3905   14.6507   24.1373 O   0  0  0  0  0  0  0  0  0  0  0  0
    9.5606   12.6133   23.6110 C   0  0  0  0  0  0  0  0  0  0  0  0
    9.9470   11.3723   23.1096 C   0  0  0  0  0  0  0  0  0  0  0  0
    9.3250   10.1967   23.5164 C   0  0  0  0  0  0  0  0  0  0  0  0
    8.3019   10.2378   24.4678 C   0  0  0  0  0  0  0  0  0  0  0  0
    7.8736   11.4750   24.9830 C   0  0  0  0  0  0  0  0  0  0  0  0
    6.9097   11.8830   25.9475 C   0  0  0  0  0  0  0  0  0  0  0  0
    6.9394   13.2615   26.0048 C   0  0  0  0  0  0  0  0  0  0  0  0
    7.8899   13.7079   25.1370 N   0  0  0  0  0  0  0  0  0  0  0  0
    8.5027   12.6334   24.5283 C   0  0  0  0  0  0  0  0  0  0  0  0
    6.1115   14.1363   26.8768 C   0  0  0  0  0  0  0  0  0  0  0  0
    4.9633   13.3184   27.4957 C   0  0  0  0  0  0  0  0  0  0  0  0
    5.4263   11.9247   27.9602 C   0  0  0  0  0  0  0  0  0  0  0  0
    5.9787   11.0864   26.7923 C   0  0  0  0  0  0  0  0  0  0  0  0
  1  2  2  0
  2  3  1  0
  2  4  1  0
  4  5  1  0
  5  6  1  0
  6  7  2  0
  6  8  1  0
  8  9  2  0
  9 10  1  0
 10 11  2  0
 11 12  1  0
 12 13  1  0
 13 14  2  0
 14 15  1  0
 15 16  1  0
 14 17  1  0
 17 18  1  0
 18 19  1  0
 19 20  1  0
 16  8  1  0
 16 12  2  0
 20 13  1  0
M  CHG  1   3  -1
M  END
>  <alias>  (1875) 
None

>  <rmsd(smina/fragmenstein)>  (1875) 
0.532

>  <smiles>  (1875) 
O=C([O-])CNC(=O)c1cccc2c3c([nH]c12)CCCC3

>  <gnina_score>  (1875) 
5.279

>  <inspiration_score>  (1875) 
None

>  <energy_score>  (1875) 
-41.433073

>  <distance_score>  (1875) 
1.02333

>  <gnina_score_min>  (1875) 
5.302

>  <inchikey>  (1875) 
GJKNYGCTLHZZGI-UHFFFAOYSA-M

>  <exports>  (1875) 
['/opt/xchem-fragalysis-2/maxwin/BulkDock/OUTPUTS/openbind_a71ev2a_c2_elabs_1LOUU54.sdf', '/opt/xchem-fragalysis-2/maxwin/BulkDock/OUTPUTS/openbind_a71ev2a_c2_elabs_1LSYIDY.sdf']

>  <name>  (1875) 
P585716

>  <ref_pdb>  (1875) 
A0566a

>  <subsites>  (1875) 
None

>  <HIPPO Pose ID>  (1875) 
585716

>  <ref_mols>  (1875) 
A0566a

>  <HIPPO Compound ID>  (1875) 
440894

>  <tags>  (1875) 
openbind_a71ev2a_c2_elabs,syndirella_product,openbind_a71ev2a_c2_elabs_fragonly_scored_top80percent,openbind_a71ev2a_c2_elabs_scored,BulkDock Fragalysis export,openbind_a71ev2a_c2_elabs_scored_top80percent,openbind_a71ev2a_c2_elabs_activefrags_only_scored_5.2plus,syndirella_placed

>  <smina_score_min>  (1875) 
-6.967

$$$$
P585722
     RDKit          3D

 20 22  0  0  0  0  0  0  0  0999 V2000
   12.8203   15.2923   21.8096 C   0  0  0  0  0  0  0  0  0  0  0  0
   12.1985   14.3469   20.8094 C   0  0  0  0  0  0  0  0  0  0  0  0
   11.0153   14.8929   20.0142 C   0  0  0  0  0  0  0  0  0  0  0  0
    9.8482   15.3723   20.8676 C   0  0  0  0  0  0  0  0  0  0  0  0
    9.4195   14.3444   21.7818 N   0  0  0  0  0  0  0  0  0  0  0  0
    9.8704   14.0336   23.2169 C   0  0  0  0  0  0  0  0  0  0  0  0
   10.6042   14.6042   23.9180 O   0  0  0  0  0  0  0  0  0  0  0  0
    9.2976   12.7591   23.6599 C   0  0  0  0  0  0  0  0  0  0  0  0
    9.8057   11.5555   23.1673 C   0  0  0  0  0  0  0  0  0  0  0  0
    9.2771   10.3406   23.5829 C   0  0  0  0  0  0  0  0  0  0  0  0
    8.2539   10.3162   24.5376 C   0  0  0  0  0  0  0  0  0  0  0  0
    7.7481   11.5214   25.0672 C   0  0  0  0  0  0  0  0  0  0  0  0
    6.7771   11.8574   26.0503 C   0  0  0  0  0  0  0  0  0  0  0  0
    6.7149   13.2346   26.1159 C   0  0  0  0  0  0  0  0  0  0  0  0
    7.6115   13.7542   25.2307 N   0  0  0  0  0  0  0  0  0  0  0  0
    8.2752   12.7271   24.6012 C   0  0  0  0  0  0  0  0  0  0  0  0
    5.8445   14.0439   27.0120 C   0  0  0  0  0  0  0  0  0  0  0  0
    4.7568   13.1478   27.6305 C   0  0  0  0  0  0  0  0  0  0  0  0
    5.3146   11.7853   28.0810 C   0  0  0  0  0  0  0  0  0  0  0  0
    5.9176   10.9927   26.9066 C   0  0  0  0  0  0  0  0  0  0  0  0
  1  2  1  0
  2  3  1  0
  3  4  1  0
  4  5  1  0
  5  6  1  0
  6  7  2  0
  6  8  1  0
  8  9  2  0
  9 10  1  0
 10 11  2  0
 11 12  1  0
 12 13  1  0
 13 14  2  0
 14 15  1  0
 15 16  1  0
 14 17  1  0
 17 18  1  0
 18 19  1  0
 19 20  1  0
 16  8  1  0
 16 12  2  0
 20 13  1  0
M  END
>  <alias>  (1876) 
None

>  <rmsd(smina/fragmenstein)>  (1876) 
0.483

>  <smiles>  (1876) 
CCCCNC(=O)c1cccc2c3c([nH]c12)CCCC3

>  <gnina_score>  (1876) 
5.205

>  <inspiration_score>  (1876) 
None

>  <energy_score>  (1876) 
-13.629586

>  <distance_score>  (1876) 
1.349192

>  <gnina_score_min>  (1876) 
5.289

>  <inchikey>  (1876) 
AIHWGYNNZNIVRW-UHFFFAOYSA-N

>  <exports>  (1876) 
['/opt/xchem-fragalysis-2/maxwin/BulkDock/OUTPUTS/openbind_a71ev2a_c2_elabs_1LOUU54.sdf', '/opt/xchem-fragalysis-2/maxwin/BulkDock/OUTPUTS/openbind_a71ev2a_c2_elabs_1LSYIDY.sdf']

>  <name>  (1876) 
P585722

>  <ref_pdb>  (1876) 
A0566a

>  <subsites>  (1876) 
None

>  <HIPPO Pose ID>  (1876) 
585722

>  <ref_mols>  (1876) 
A0566a

>  <HIPPO Compound ID>  (1876) 
440901

>  <tags>  (1876) 
openbind_a71ev2a_c2_elabs,syndirella_product,openbind_a71ev2a_c2_elabs_fragonly_scored_top80percent,openbind_a71ev2a_c2_elabs_scored,BulkDock Fragalysis export,openbind_a71ev2a_c2_elabs_scored_top80percent,openbind_a71ev2a_c2_elabs_activefrags_only_scored_5.2plus,syndirella_placed

>  <smina_score_min>  (1876) 
-6.199

$$$$
P585723
     RDKit          3D

 20 22  0  0  0  0  0  0  0  0999 V2000
    9.8331   16.2196   19.9841 C   0  0  0  0  0  0  0  0  0  0  0  0
   10.7469   15.2415   19.9969 C   0  0  0  0  0  0  0  0  0  0  0  0
   10.9901   14.6031   18.8296 F   0  0  0  0  0  0  0  0  0  0  0  0
   11.5535   14.8470   21.1951 C   0  0  0  0  0  0  0  0  0  0  0  0
   10.8078   13.8526   21.9012 N   0  0  0  0  0  0  0  0  0  0  0  0
   10.2947   13.8307   23.3455 C   0  0  0  0  0  0  0  0  0  0  0  0
   10.3293   14.6511   24.1721 O   0  0  0  0  0  0  0  0  0  0  0  0
    9.5570   12.5785   23.6696 C   0  0  0  0  0  0  0  0  0  0  0  0
    9.9049   11.3251   23.1637 C   0  0  0  0  0  0  0  0  0  0  0  0
    9.2507   10.1677   23.5700 C   0  0  0  0  0  0  0  0  0  0  0  0
    8.2244   10.2358   24.5155 C   0  0  0  0  0  0  0  0  0  0  0  0
    7.8200   11.4836   25.0222 C   0  0  0  0  0  0  0  0  0  0  0  0
    6.8531   11.9127   25.9769 C   0  0  0  0  0  0  0  0  0  0  0  0
    6.9494   13.2862   26.0672 C   0  0  0  0  0  0  0  0  0  0  0  0
    7.9122   13.7100   25.2037 N   0  0  0  0  0  0  0  0  0  0  0  0
    8.4904   12.6248   24.5791 C   0  0  0  0  0  0  0  0  0  0  0  0
    6.1377   14.1795   26.9366 C   0  0  0  0  0  0  0  0  0  0  0  0
    5.4685   13.3445   28.0422 C   0  0  0  0  0  0  0  0  0  0  0  0
    4.8494   12.0522   27.4801 C   0  0  0  0  0  0  0  0  0  0  0  0
    5.9029   11.1354   26.8263 C   0  0  0  0  0  0  0  0  0  0  0  0
  1  2  2  0
  2  3  1  0
  2  4  1  0
  4  5  1  0
  5  6  1  0
  6  7  2  0
  6  8  1  0
  8  9  2  0
  9 10  1  0
 10 11  2  0
 11 12  1  0
 12 13  1  0
 13 14  2  0
 14 15  1  0
 15 16  1  0
 14 17  1  0
 17 18  1  0
 18 19  1  0
 19 20  1  0
 16  8  1  0
 16 12  2  0
 20 13  1  0
M  END
>  <alias>  (1877) 
None

>  <rmsd(smina/fragmenstein)>  (1877) 
0.545

>  <smiles>  (1877) 
C=C(F)CNC(=O)c1cccc2c3c([nH]c12)CCCC3

>  <gnina_score>  (1877) 
5.54

>  <inspiration_score>  (1877) 
None

>  <energy_score>  (1877) 
-18.427421

>  <distance_score>  (1877) 
1.015516

>  <gnina_score_min>  (1877) 
5.551

>  <inchikey>  (1877) 
MABDKRRKHQGDCV-UHFFFAOYSA-N

>  <exports>  (1877) 
['/opt/xchem-fragalysis-2/maxwin/BulkDock/OUTPUTS/openbind_a71ev2a_c2_elabs_1LOUU54.sdf', '/opt/xchem-fragalysis-2/maxwin/BulkDock/OUTPUTS/openbind_a71ev2a_c2_elabs_1LSYIDY.sdf']

>  <name>  (1877) 
P585723

>  <ref_pdb>  (1877) 
A0566a

>  <subsites>  (1877) 
None

>  <HIPPO Pose ID>  (1877) 
585723

>  <ref_mols>  (1877) 
A0566a

>  <HIPPO Compound ID>  (1877) 
440904

>  <tags>  (1877) 
openbind_a71ev2a_c2_elabs,syndirella_product,openbind_a71ev2a_c2_elabs_fragonly_scored_top80percent,BulkDock Fragalysis export,openbind_a71ev2a_c2_elabs_scored,openbind_a71ev2a_c2_elabs_scored_top80percent,openbind_a71ev2a_c2_elabs_activefrags_only_scored_5.2plus,openbind_a71ev2a_c2_elabs_activefrags_only_scored_5.5plus,syndirella_placed

>  <smina_score_min>  (1877) 
-7.131

$$$$
P585724
     RDKit          3D

 20 23  0  0  0  0  0  0  0  0999 V2000
   10.3750   14.6780   24.4429 O   0  0  0  0  0  0  0  0  0  0  0  0
   10.2169   13.9296   23.5474 C   0  0  0  0  0  0  0  0  0  0  0  0
    9.5016   12.6605   23.7979 C   0  0  0  0  0  0  0  0  0  0  0  0
    9.8882   11.4610   23.1990 C   0  0  0  0  0  0  0  0  0  0  0  0
    9.2710   10.2624   23.5373 C   0  0  0  0  0  0  0  0  0  0  0  0
    8.2444   10.2454   24.4891 C   0  0  0  0  0  0  0  0  0  0  0  0
    7.7955   11.4483   25.0678 C   0  0  0  0  0  0  0  0  0  0  0  0
    6.8181   11.7944   26.0463 C   0  0  0  0  0  0  0  0  0  0  0  0
    6.8772   13.1631   26.2168 C   0  0  0  0  0  0  0  0  0  0  0  0
    7.8262   13.6654   25.3799 N   0  0  0  0  0  0  0  0  0  0  0  0
    8.4328   12.6333   24.6982 C   0  0  0  0  0  0  0  0  0  0  0  0
    6.0533   13.9796   27.1482 C   0  0  0  0  0  0  0  0  0  0  0  0
    5.4365   13.0623   28.2180 C   0  0  0  0  0  0  0  0  0  0  0  0
    4.8395   11.7890   27.5933 C   0  0  0  0  0  0  0  0  0  0  0  0
    5.8989   10.9425   26.8587 C   0  0  0  0  0  0  0  0  0  0  0  0
   10.5451   14.0750   22.0922 N   0  0  0  0  0  0  0  0  0  0  0  0
    9.3608   14.6908   21.3015 C   0  0  0  0  0  0  0  0  0  0  0  0
   10.3240   15.0008   20.1929 C   0  0  0  0  0  0  0  0  0  0  0  0
    9.8182   16.4915   19.2882 S   0  0  0  0  0  0  0  0  0  0  0  0
   11.2696   15.1820   21.3447 C   0  0  0  0  0  0  0  0  0  0  0  0
  1  2  2  0
  2  3  1  0
  3  4  2  0
  4  5  1  0
  5  6  2  0
  6  7  1  0
  7  8  1  0
  8  9  2  0
  9 10  1  0
 10 11  1  0
  9 12  1  0
 12 13  1  0
 13 14  1  0
 14 15  1  0
  2 16  1  0
 16 17  1  0
 17 18  1  0
 18 19  1  0
 18 20  1  0
 11  3  1  0
 20 16  1  0
 11  7  2  0
 15  8  1  0
M  END
>  <alias>  (1878) 
None

>  <rmsd(smina/fragmenstein)>  (1878) 
0.321

>  <smiles>  (1878) 
O=C(c1cccc2c3c([nH]c12)CCCC3)N1CC(S)C1

>  <gnina_score>  (1878) 
5.673

>  <inspiration_score>  (1878) 
None

>  <energy_score>  (1878) 
-12.99619

>  <distance_score>  (1878) 
1.020084

>  <gnina_score_min>  (1878) 
5.612

>  <inchikey>  (1878) 
XFHLQZMDOBWDRT-UHFFFAOYSA-N

>  <exports>  (1878) 
['/opt/xchem-fragalysis-2/maxwin/BulkDock/OUTPUTS/openbind_a71ev2a_c2_elabs_1LOUU54.sdf', '/opt/xchem-fragalysis-2/maxwin/BulkDock/OUTPUTS/openbind_a71ev2a_c2_elabs_1LSYIDY.sdf']

>  <name>  (1878) 
P585724

>  <ref_pdb>  (1878) 
A0566a

>  <subsites>  (1878) 
None

>  <HIPPO Pose ID>  (1878) 
585724

>  <ref_mols>  (1878) 
A0566a

>  <HIPPO Compound ID>  (1878) 
440905

>  <tags>  (1878) 
openbind_a71ev2a_c2_elabs,syndirella_product,openbind_a71ev2a_c2_elabs_fragonly_scored_top80percent,BulkDock Fragalysis export,openbind_a71ev2a_c2_elabs_scored,openbind_a71ev2a_c2_elabs_scored_top80percent,openbind_a71ev2a_c2_elabs_activefrags_only_scored_5.2plus,openbind_a71ev2a_c2_elabs_activefrags_only_scored_5.5plus,syndirella_placed

>  <smina_score_min>  (1878) 
-6.928

$$$$
P585728
     RDKit          3D

 20 22  0  0  0  0  0  0  0  0999 V2000
   11.6075   14.7809   19.2990 C   0  0  0  0  0  0  0  0  0  0  0  0
   11.3340   14.6408   20.7816 C   0  0  1  0  0  0  0  0  0  0  0  0
   12.5586   15.3864   21.8800 S   0  0  0  0  0  0  0  0  0  0  0  0
    9.9110   15.0795   21.1347 C   0  0  0  0  0  0  0  0  0  0  0  0
    9.4038   14.1128   22.0636 N   0  0  0  0  0  0  0  0  0  0  0  0
    9.6860   13.9234   23.5528 C   0  0  0  0  0  0  0  0  0  0  0  0
   10.3153   14.5655   24.2881 O   0  0  0  0  0  0  0  0  0  0  0  0
    9.0881   12.6545   23.9644 C   0  0  0  0  0  0  0  0  0  0  0  0
    9.5787   11.4680   23.3997 C   0  0  0  0  0  0  0  0  0  0  0  0
    9.0437   10.2463   23.7715 C   0  0  0  0  0  0  0  0  0  0  0  0
    8.0245   10.1994   24.7306 C   0  0  0  0  0  0  0  0  0  0  0  0
    7.5249   11.3858   25.3082 C   0  0  0  0  0  0  0  0  0  0  0  0
    6.5606   11.6905   26.3088 C   0  0  0  0  0  0  0  0  0  0  0  0
    6.5417   13.0635   26.4561 C   0  0  0  0  0  0  0  0  0  0  0  0
    7.4270   13.6112   25.5769 N   0  0  0  0  0  0  0  0  0  0  0  0
    8.0685   12.6030   24.8996 C   0  0  0  0  0  0  0  0  0  0  0  0
    5.6927   13.8405   27.3993 C   0  0  0  0  0  0  0  0  0  0  0  0
    5.1644   12.9041   28.5001 C   0  0  0  0  0  0  0  0  0  0  0  0
    4.6342   11.5818   27.9170 C   0  0  0  0  0  0  0  0  0  0  0  0
    5.7240   10.7936   27.1623 C   0  0  0  0  0  0  0  0  0  0  0  0
  2  1  1  6
  2  3  1  0
  2  4  1  0
  4  5  1  0
  5  6  1  0
  6  7  2  0
  6  8  1  0
  8  9  2  0
  9 10  1  0
 10 11  2  0
 11 12  1  0
 12 13  1  0
 13 14  2  0
 14 15  1  0
 15 16  1  0
 14 17  1  0
 17 18  1  0
 18 19  1  0
 19 20  1  0
 16  8  1  0
 16 12  2  0
 20 13  1  0
M  END
>  <alias>  (1879) 
None

>  <rmsd(smina/fragmenstein)>  (1879) 
0.39

>  <smiles>  (1879) 
C[C@@H](S)CNC(=O)c1cccc2c3c([nH]c12)CCCC3

>  <gnina_score>  (1879) 
5.298

>  <inspiration_score>  (1879) 
None

>  <energy_score>  (1879) 
-17.704413

>  <distance_score>  (1879) 
1.486098

>  <gnina_score_min>  (1879) 
5.443

>  <inchikey>  (1879) 
NMDADCVLOKSAQV-SNVBAGLBSA-N

>  <exports>  (1879) 
['/opt/xchem-fragalysis-2/maxwin/BulkDock/OUTPUTS/openbind_a71ev2a_c2_elabs_1LOUU54.sdf', '/opt/xchem-fragalysis-2/maxwin/BulkDock/OUTPUTS/openbind_a71ev2a_c2_elabs_1LSYIDY.sdf']

>  <name>  (1879) 
P585728

>  <ref_pdb>  (1879) 
A0566a

>  <subsites>  (1879) 
None

>  <HIPPO Pose ID>  (1879) 
585728

>  <ref_mols>  (1879) 
A0566a

>  <HIPPO Compound ID>  (1879) 
440909

>  <tags>  (1879) 
openbind_a71ev2a_c2_elabs,syndirella_product,openbind_a71ev2a_c2_elabs_fragonly_scored_top80percent,openbind_a71ev2a_c2_elabs_scored,BulkDock Fragalysis export,openbind_a71ev2a_c2_elabs_scored_top80percent,openbind_a71ev2a_c2_elabs_activefrags_only_scored_5.2plus,syndirella_placed

>  <smina_score_min>  (1879) 
-6.039

$$$$
P585729
     RDKit          3D

 20 22  0  0  0  0  0  0  0  0999 V2000
   10.1135   14.7837   24.0361 O   0  0  0  0  0  0  0  0  0  0  0  0
    9.4808   14.0570   23.3884 C   0  0  0  0  0  0  0  0  0  0  0  0
    8.7674   14.2821   22.0548 N   0  0  0  0  0  0  0  0  0  0  0  0
    8.7569   15.4184   21.1861 C   0  0  0  0  0  0  0  0  0  0  0  0
   10.0703   15.9667   20.6628 C   0  0  0  0  0  0  0  0  0  0  0  0
   11.0482   14.9170   20.1891 C   0  0  0  0  0  0  0  0  0  0  0  0
   12.3232   14.5421   21.6023 Br  0  0  0  0  0  0  0  0  0  0  0  0
    9.1606   12.7075   23.8510 C   0  0  0  0  0  0  0  0  0  0  0  0
    9.7304   11.5712   23.2801 C   0  0  0  0  0  0  0  0  0  0  0  0
    9.2597   10.3143   23.6406 C   0  0  0  0  0  0  0  0  0  0  0  0
    8.2367   10.1894   24.5962 C   0  0  0  0  0  0  0  0  0  0  0  0
    7.6692   11.3340   25.1939 C   0  0  0  0  0  0  0  0  0  0  0  0
    6.6755   11.5871   26.1844 C   0  0  0  0  0  0  0  0  0  0  0  0
    6.5408   12.9569   26.2947 C   0  0  0  0  0  0  0  0  0  0  0  0
    7.4120   13.5493   25.4339 N   0  0  0  0  0  0  0  0  0  0  0  0
    8.1400   12.5779   24.7868 C   0  0  0  0  0  0  0  0  0  0  0  0
    5.6224   13.6954   27.2030 C   0  0  0  0  0  0  0  0  0  0  0  0
    4.5586   12.7355   27.7594 C   0  0  0  0  0  0  0  0  0  0  0  0
    5.1627   11.3851   28.1792 C   0  0  0  0  0  0  0  0  0  0  0  0
    5.8528   10.6576   27.0098 C   0  0  0  0  0  0  0  0  0  0  0  0
  1  2  2  0
  2  3  1  0
  3  4  1  0
  4  5  1  0
  5  6  1  0
  6  7  1  0
  2  8  1  0
  8  9  2  0
  9 10  1  0
 10 11  2  0
 11 12  1  0
 12 13  1  0
 13 14  2  0
 14 15  1  0
 15 16  1  0
 14 17  1  0
 17 18  1  0
 18 19  1  0
 19 20  1  0
 16  8  1  0
 16 12  2  0
 20 13  1  0
M  END
>  <alias>  (1880) 
None

>  <rmsd(smina/fragmenstein)>  (1880) 
0.393

>  <smiles>  (1880) 
O=C(NCCCBr)c1cccc2c3c([nH]c12)CCCC3

>  <gnina_score>  (1880) 
5.349

>  <inspiration_score>  (1880) 
None

>  <energy_score>  (1880) 
-4.769705

>  <distance_score>  (1880) 
1.685889

>  <gnina_score_min>  (1880) 
5.376

>  <inchikey>  (1880) 
BYAGNBXUUNAAQX-UHFFFAOYSA-N

>  <exports>  (1880) 
['/opt/xchem-fragalysis-2/maxwin/BulkDock/OUTPUTS/openbind_a71ev2a_c2_elabs_1LOUU54.sdf', '/opt/xchem-fragalysis-2/maxwin/BulkDock/OUTPUTS/openbind_a71ev2a_c2_elabs_1LSYIDY.sdf']

>  <name>  (1880) 
P585729

>  <ref_pdb>  (1880) 
A0566a

>  <subsites>  (1880) 
None

>  <HIPPO Pose ID>  (1880) 
585729

>  <ref_mols>  (1880) 
A0566a

>  <HIPPO Compound ID>  (1880) 
440912

>  <tags>  (1880) 
openbind_a71ev2a_c2_elabs,syndirella_product,openbind_a71ev2a_c2_elabs_fragonly_scored_top80percent,openbind_a71ev2a_c2_elabs_scored,BulkDock Fragalysis export,openbind_a71ev2a_c2_elabs_scored_top80percent,openbind_a71ev2a_c2_elabs_activefrags_only_scored_5.2plus,syndirella_placed

>  <smina_score_min>  (1880) 
-5.886

$$$$
P585731
     RDKit          3D

 20 22  0  0  0  0  0  0  0  0999 V2000
   12.5560   14.8267   21.6602 C   0  0  0  0  0  0  0  0  0  0  0  0
   11.0720   15.1078   21.5414 C   0  0  1  0  0  0  0  0  0  0  0  0
   10.4598   15.3981   20.1715 C   0  0  0  0  0  0  0  0  0  0  0  0
   11.3011   14.6420   18.7679 S   0  0  0  0  0  0  0  0  0  0  0  0
   10.3750   14.0368   22.1904 N   0  0  0  0  0  0  0  0  0  0  0  0
    9.9738   13.8554   23.6538 C   0  0  0  0  0  0  0  0  0  0  0  0
   10.0747   14.5793   24.5594 O   0  0  0  0  0  0  0  0  0  0  0  0
    9.3158   12.5516   23.8749 C   0  0  0  0  0  0  0  0  0  0  0  0
    9.7657   11.3609   23.2972 C   0  0  0  0  0  0  0  0  0  0  0  0
    9.1811   10.1477   23.6347 C   0  0  0  0  0  0  0  0  0  0  0  0
    8.1473   10.1035   24.5788 C   0  0  0  0  0  0  0  0  0  0  0  0
    7.6587   11.2893   25.1579 C   0  0  0  0  0  0  0  0  0  0  0  0
    6.6853   11.6059   26.1508 C   0  0  0  0  0  0  0  0  0  0  0  0
    6.7019   12.9761   26.3165 C   0  0  0  0  0  0  0  0  0  0  0  0
    7.6119   13.5065   25.4554 N   0  0  0  0  0  0  0  0  0  0  0  0
    8.2478   12.4909   24.7744 C   0  0  0  0  0  0  0  0  0  0  0  0
    5.8777   13.7666   27.2693 C   0  0  0  0  0  0  0  0  0  0  0  0
    5.3392   12.8338   28.3674 C   0  0  0  0  0  0  0  0  0  0  0  0
    4.7641   11.5363   27.7728 C   0  0  0  0  0  0  0  0  0  0  0  0
    5.8198   10.7254   26.9931 C   0  0  0  0  0  0  0  0  0  0  0  0
  2  1  1  6
  2  3  1  0
  3  4  1  0
  2  5  1  0
  5  6  1  0
  6  7  2  0
  6  8  1  0
  8  9  2  0
  9 10  1  0
 10 11  2  0
 11 12  1  0
 12 13  1  0
 13 14  2  0
 14 15  1  0
 15 16  1  0
 14 17  1  0
 17 18  1  0
 18 19  1  0
 19 20  1  0
 16  8  1  0
 16 12  2  0
 20 13  1  0
M  END
>  <alias>  (1881) 
None

>  <rmsd(smina/fragmenstein)>  (1881) 
0.249

>  <smiles>  (1881) 
C[C@@H](CS)NC(=O)c1cccc2c3c([nH]c12)CCCC3

>  <gnina_score>  (1881) 
5.537

>  <inspiration_score>  (1881) 
None

>  <energy_score>  (1881) 
-8.583795

>  <distance_score>  (1881) 
1.164547

>  <gnina_score_min>  (1881) 
5.562

>  <inchikey>  (1881) 
MXELPWIFPBDUHB-JTQLQIEISA-N

>  <exports>  (1881) 
['/opt/xchem-fragalysis-2/maxwin/BulkDock/OUTPUTS/openbind_a71ev2a_c2_elabs_1LOUU54.sdf', '/opt/xchem-fragalysis-2/maxwin/BulkDock/OUTPUTS/openbind_a71ev2a_c2_elabs_1LSYIDY.sdf']

>  <name>  (1881) 
P585731

>  <ref_pdb>  (1881) 
A0566a

>  <subsites>  (1881) 
None

>  <HIPPO Pose ID>  (1881) 
585731

>  <ref_mols>  (1881) 
A0566a

>  <HIPPO Compound ID>  (1881) 
440913

>  <tags>  (1881) 
openbind_a71ev2a_c2_elabs,syndirella_product,openbind_a71ev2a_c2_elabs_fragonly_scored_top80percent,BulkDock Fragalysis export,openbind_a71ev2a_c2_elabs_scored,openbind_a71ev2a_c2_elabs_scored_top80percent,openbind_a71ev2a_c2_elabs_activefrags_only_scored_5.2plus,openbind_a71ev2a_c2_elabs_activefrags_only_scored_5.5plus,syndirella_placed

>  <smina_score_min>  (1881) 
-6.33

$$$$
P585733
     RDKit          3D

 20 22  0  0  0  0  0  0  0  0999 V2000
   10.0630   14.6677   24.7061 O   0  0  0  0  0  0  0  0  0  0  0  0
    9.9871   13.9803   23.7707 C   0  0  0  0  0  0  0  0  0  0  0  0
   10.5301   14.1690   22.3570 N   0  0  0  0  0  0  0  0  0  0  0  0
   11.3663   15.1994   21.8077 C   0  0  0  0  0  0  0  0  0  0  0  0
   12.3039   14.6486   20.7523 C   0  0  1  0  0  0  0  0  0  0  0  0
   12.6572   13.3883   21.1018 F   0  0  0  0  0  0  0  0  0  0  0  0
   11.5187   14.6296   19.1607 Cl  0  0  0  0  0  0  0  0  0  0  0  0
    9.3030   12.6735   23.9129 C   0  0  0  0  0  0  0  0  0  0  0  0
    9.7741   11.5007   23.3088 C   0  0  0  0  0  0  0  0  0  0  0  0
    9.2033   10.2691   23.6094 C   0  0  0  0  0  0  0  0  0  0  0  0
    8.1665   10.1853   24.5471 C   0  0  0  0  0  0  0  0  0  0  0  0
    7.6562   11.3506   25.1502 C   0  0  0  0  0  0  0  0  0  0  0  0
    6.6780   11.6275   26.1512 C   0  0  0  0  0  0  0  0  0  0  0  0
    6.6756   12.9929   26.3535 C   0  0  0  0  0  0  0  0  0  0  0  0
    7.5781   13.5587   25.5077 N   0  0  0  0  0  0  0  0  0  0  0  0
    8.2280   12.5718   24.7993 C   0  0  0  0  0  0  0  0  0  0  0  0
    5.8437   13.7463   27.3294 C   0  0  0  0  0  0  0  0  0  0  0  0
    5.3231   12.7779   28.4048 C   0  0  0  0  0  0  0  0  0  0  0  0
    4.7634   11.4893   27.7776 C   0  0  0  0  0  0  0  0  0  0  0  0
    5.8275   10.7138   26.9733 C   0  0  0  0  0  0  0  0  0  0  0  0
  1  2  2  0
  2  3  1  0
  3  4  1  0
  4  5  1  0
  5  6  1  1
  5  7  1  0
  2  8  1  0
  8  9  2  0
  9 10  1  0
 10 11  2  0
 11 12  1  0
 12 13  1  0
 13 14  2  0
 14 15  1  0
 15 16  1  0
 14 17  1  0
 17 18  1  0
 18 19  1  0
 19 20  1  0
 16  8  1  0
 16 12  2  0
 20 13  1  0
M  END
>  <alias>  (1882) 
None

>  <rmsd(smina/fragmenstein)>  (1882) 
0.516

>  <smiles>  (1882) 
O=C(NC[C@@H](F)Cl)c1cccc2c3c([nH]c12)CCCC3

>  <gnina_score>  (1882) 
4.969

>  <inspiration_score>  (1882) 
None

>  <energy_score>  (1882) 
-16.869388

>  <distance_score>  (1882) 
1.12989

>  <gnina_score_min>  (1882) 
5.237

>  <inchikey>  (1882) 
JNKLWTQPLUQLDK-CYBMUJFWSA-N

>  <exports>  (1882) 
['/opt/xchem-fragalysis-2/maxwin/BulkDock/OUTPUTS/openbind_a71ev2a_c2_elabs_1LOUU54.sdf', '/opt/xchem-fragalysis-2/maxwin/BulkDock/OUTPUTS/openbind_a71ev2a_c2_elabs_1LSYIDY.sdf']

>  <name>  (1882) 
P585733

>  <ref_pdb>  (1882) 
A0566a

>  <subsites>  (1882) 
None

>  <HIPPO Pose ID>  (1882) 
585733

>  <ref_mols>  (1882) 
A0566a

>  <HIPPO Compound ID>  (1882) 
440915

>  <tags>  (1882) 
openbind_a71ev2a_c2_elabs,syndirella_product,openbind_a71ev2a_c2_elabs_fragonly_scored_top80percent,openbind_a71ev2a_c2_elabs_scored,BulkDock Fragalysis export,openbind_a71ev2a_c2_elabs_scored_top80percent,openbind_a71ev2a_c2_elabs_activefrags_only_scored_5.2plus,syndirella_placed

>  <smina_score_min>  (1882) 
-6.203

$$$$
P585734
     RDKit          3D

 20 22  0  0  0  0  0  0  0  0999 V2000
   12.4179   14.5476   20.5898 C   0  0  0  0  0  0  0  0  0  0  0  0
   11.1953   14.9549   19.7977 C   0  0  1  0  0  0  0  0  0  0  0  0
   10.8493   13.9160   18.9987 F   0  0  0  0  0  0  0  0  0  0  0  0
   10.0314   15.3739   20.6964 C   0  0  0  0  0  0  0  0  0  0  0  0
    9.6288   14.3468   21.6317 N   0  0  0  0  0  0  0  0  0  0  0  0
   10.1029   14.0598   23.0641 C   0  0  0  0  0  0  0  0  0  0  0  0
   10.8372   14.6495   23.7489 O   0  0  0  0  0  0  0  0  0  0  0  0
    9.4717   12.8253   23.5647 C   0  0  0  0  0  0  0  0  0  0  0  0
    9.9076   11.5811   23.1106 C   0  0  0  0  0  0  0  0  0  0  0  0
    9.3131   10.4055   23.5549 C   0  0  0  0  0  0  0  0  0  0  0  0
    8.2811   10.4574   24.4981 C   0  0  0  0  0  0  0  0  0  0  0  0
    7.8326   11.7030   24.9839 C   0  0  0  0  0  0  0  0  0  0  0  0
    6.8533   12.1157   25.9320 C   0  0  0  0  0  0  0  0  0  0  0  0
    6.8958   13.4942   25.9899 C   0  0  0  0  0  0  0  0  0  0  0  0
    7.8261   13.9412   25.1004 N   0  0  0  0  0  0  0  0  0  0  0  0
    8.4395   12.8668   24.4999 C   0  0  0  0  0  0  0  0  0  0  0  0
    6.0460   14.3746   26.8373 C   0  0  0  0  0  0  0  0  0  0  0  0
    5.3994   13.5388   27.9556 C   0  0  0  0  0  0  0  0  0  0  0  0
    4.8335   12.2131   27.4163 C   0  0  0  0  0  0  0  0  0  0  0  0
    5.9265   11.3223   26.7921 C   0  0  0  0  0  0  0  0  0  0  0  0
  2  1  1  1
  2  3  1  0
  2  4  1  0
  4  5  1  0
  5  6  1  0
  6  7  2  0
  6  8  1  0
  8  9  2  0
  9 10  1  0
 10 11  2  0
 11 12  1  0
 12 13  1  0
 13 14  2  0
 14 15  1  0
 15 16  1  0
 14 17  1  0
 17 18  1  0
 18 19  1  0
 19 20  1  0
 16  8  1  0
 16 12  2  0
 20 13  1  0
M  END
>  <alias>  (1883) 
None

>  <rmsd(smina/fragmenstein)>  (1883) 
0.705

>  <smiles>  (1883) 
C[C@@H](F)CNC(=O)c1cccc2c3c([nH]c12)CCCC3

>  <gnina_score>  (1883) 
5.037

>  <inspiration_score>  (1883) 
None

>  <energy_score>  (1883) 
-11.697707

>  <distance_score>  (1883) 
1.278114

>  <gnina_score_min>  (1883) 
5.313

>  <inchikey>  (1883) 
NTQWOBJWKYTJRP-SNVBAGLBSA-N

>  <exports>  (1883) 
['/opt/xchem-fragalysis-2/maxwin/BulkDock/OUTPUTS/openbind_a71ev2a_c2_elabs_1LOUU54.sdf', '/opt/xchem-fragalysis-2/maxwin/BulkDock/OUTPUTS/openbind_a71ev2a_c2_elabs_1LSYIDY.sdf']

>  <name>  (1883) 
P585734

>  <ref_pdb>  (1883) 
A0566a

>  <subsites>  (1883) 
None

>  <HIPPO Pose ID>  (1883) 
585734

>  <ref_mols>  (1883) 
A0566a

>  <HIPPO Compound ID>  (1883) 
440917

>  <tags>  (1883) 
openbind_a71ev2a_c2_elabs,syndirella_product,openbind_a71ev2a_c2_elabs_fragonly_scored_top80percent,openbind_a71ev2a_c2_elabs_scored,BulkDock Fragalysis export,openbind_a71ev2a_c2_elabs_scored_top80percent,openbind_a71ev2a_c2_elabs_activefrags_only_scored_5.2plus,syndirella_placed

>  <smina_score_min>  (1883) 
-6.112

$$$$
P585735
     RDKit          3D

 20 22  0  0  0  0  0  0  0  0999 V2000
   10.1521   14.5963   24.8198 O   0  0  0  0  0  0  0  0  0  0  0  0
   10.2917   13.8446   23.9423 C   0  0  0  0  0  0  0  0  0  0  0  0
   11.2774   13.8554   22.7772 N   0  0  0  0  0  0  0  0  0  0  0  0
   12.2332   14.8283   22.3864 C   0  0  0  0  0  0  0  0  0  0  0  0
   12.3192   14.7928   20.9198 C   0  0  0  0  0  0  0  0  0  0  0  0
   11.2712   14.8533   20.0987 C   0  0  0  0  0  0  0  0  0  0  0  0
   11.4872   14.7748   18.4204 Cl  0  0  0  0  0  0  0  0  0  0  0  0
    9.4590   12.5965   23.9654 C   0  0  0  0  0  0  0  0  0  0  0  0
    9.8033   11.3843   23.3445 C   0  0  0  0  0  0  0  0  0  0  0  0
    9.1398   10.1987   23.6418 C   0  0  0  0  0  0  0  0  0  0  0  0
    8.1139   10.1890   24.5859 C   0  0  0  0  0  0  0  0  0  0  0  0
    7.6803   11.3953   25.1588 C   0  0  0  0  0  0  0  0  0  0  0  0
    6.7230   11.7417   26.1525 C   0  0  0  0  0  0  0  0  0  0  0  0
    6.7396   13.1137   26.2825 C   0  0  0  0  0  0  0  0  0  0  0  0
    7.7045   13.6090   25.4617 N   0  0  0  0  0  0  0  0  0  0  0  0
    8.3323   12.5732   24.7994 C   0  0  0  0  0  0  0  0  0  0  0  0
    5.9075   13.9315   27.2054 C   0  0  0  0  0  0  0  0  0  0  0  0
    4.7662   13.0703   27.7746 C   0  0  0  0  0  0  0  0  0  0  0  0
    5.2495   11.6653   28.1776 C   0  0  0  0  0  0  0  0  0  0  0  0
    5.8288   10.8868   26.9817 C   0  0  0  0  0  0  0  0  0  0  0  0
  1  2  2  0
  2  3  1  0
  3  4  1  0
  4  5  1  0
  5  6  2  0
  6  7  1  0
  2  8  1  0
  8  9  2  0
  9 10  1  0
 10 11  2  0
 11 12  1  0
 12 13  1  0
 13 14  2  0
 14 15  1  0
 15 16  1  0
 14 17  1  0
 17 18  1  0
 18 19  1  0
 19 20  1  0
 16  8  1  0
 16 12  2  0
 20 13  1  0
M  END
>  <alias>  (1884) 
None

>  <rmsd(smina/fragmenstein)>  (1884) 
0.242

>  <smiles>  (1884) 
O=C(NC/C=C/Cl)c1cccc2c3c([nH]c12)CCCC3

>  <gnina_score>  (1884) 
5.292

>  <inspiration_score>  (1884) 
None

>  <energy_score>  (1884) 
-5.599222

>  <distance_score>  (1884) 
1.046462

>  <gnina_score_min>  (1884) 
5.379

>  <inchikey>  (1884) 
OPQFRUMLPQLIED-RUDMXATFSA-N

>  <exports>  (1884) 
['/opt/xchem-fragalysis-2/maxwin/BulkDock/OUTPUTS/openbind_a71ev2a_c2_elabs_1LOUU54.sdf', '/opt/xchem-fragalysis-2/maxwin/BulkDock/OUTPUTS/openbind_a71ev2a_c2_elabs_1LSYIDY.sdf']

>  <name>  (1884) 
P585735

>  <ref_pdb>  (1884) 
A0566a

>  <subsites>  (1884) 
None

>  <HIPPO Pose ID>  (1884) 
585735

>  <ref_mols>  (1884) 
A0566a

>  <HIPPO Compound ID>  (1884) 
440918

>  <tags>  (1884) 
openbind_a71ev2a_c2_elabs,syndirella_product,openbind_a71ev2a_c2_elabs_fragonly_scored_top80percent,openbind_a71ev2a_c2_elabs_scored,BulkDock Fragalysis export,openbind_a71ev2a_c2_elabs_scored_top80percent,openbind_a71ev2a_c2_elabs_activefrags_only_scored_5.2plus,syndirella_placed

>  <smina_score_min>  (1884) 
-6.434

$$$$
P585738
     RDKit          3D

 20 22  0  0  0  0  0  0  0  0999 V2000
   12.5772   14.4631   22.8967 C   0  0  0  0  0  0  0  0  0  0  0  0
   12.3389   14.8138   21.4353 C   0  0  0  0  0  0  0  0  0  0  0  0
   10.8572   15.0432   21.1444 C   0  0  1  0  0  0  0  0  0  0  0  0
   10.5540   15.0915   19.6595 C   0  0  0  0  0  0  0  0  0  0  0  0
   10.1464   13.9875   21.8126 N   0  0  0  0  0  0  0  0  0  0  0  0
    9.4470   13.9651   23.1784 C   0  0  0  0  0  0  0  0  0  0  0  0
    9.2671   14.8200   23.9489 O   0  0  0  0  0  0  0  0  0  0  0  0
    9.0295   12.6051   23.6007 C   0  0  0  0  0  0  0  0  0  0  0  0
    9.6531   11.4223   23.1860 C   0  0  0  0  0  0  0  0  0  0  0  0
    9.2169   10.1854   23.6470 C   0  0  0  0  0  0  0  0  0  0  0  0
    8.1934   10.1104   24.5991 C   0  0  0  0  0  0  0  0  0  0  0  0
    7.6099   11.2846   25.1075 C   0  0  0  0  0  0  0  0  0  0  0  0
    6.6378   11.5856   26.1067 C   0  0  0  0  0  0  0  0  0  0  0  0
    6.4901   12.9569   26.1371 C   0  0  0  0  0  0  0  0  0  0  0  0
    7.3196   13.4992   25.2070 N   0  0  0  0  0  0  0  0  0  0  0  0
    8.0337   12.4993   24.5798 C   0  0  0  0  0  0  0  0  0  0  0  0
    5.6042   13.7440   27.0350 C   0  0  0  0  0  0  0  0  0  0  0  0
    4.5810   12.8112   27.7041 C   0  0  0  0  0  0  0  0  0  0  0  0
    5.2196   11.4930   28.1747 C   0  0  0  0  0  0  0  0  0  0  0  0
    5.8566   10.7009   27.0169 C   0  0  0  0  0  0  0  0  0  0  0  0
  1  2  1  0
  2  3  1  0
  3  4  1  6
  3  5  1  0
  5  6  1  0
  6  7  2  0
  6  8  1  0
  8  9  2  0
  9 10  1  0
 10 11  2  0
 11 12  1  0
 12 13  1  0
 13 14  2  0
 14 15  1  0
 15 16  1  0
 14 17  1  0
 17 18  1  0
 18 19  1  0
 19 20  1  0
 16  8  1  0
 16 12  2  0
 20 13  1  0
M  END
>  <alias>  (1885) 
None

>  <rmsd(smina/fragmenstein)>  (1885) 
0.37

>  <smiles>  (1885) 
CC[C@@H](C)NC(=O)c1cccc2c3c([nH]c12)CCCC3

>  <gnina_score>  (1885) 
5.419

>  <inspiration_score>  (1885) 
None

>  <energy_score>  (1885) 
-20.966624

>  <distance_score>  (1885) 
1.454187

>  <gnina_score_min>  (1885) 
5.336

>  <inchikey>  (1885) 
JABNUGRQTYLIEQ-LLVKDONJSA-N

>  <exports>  (1885) 
['/opt/xchem-fragalysis-2/maxwin/BulkDock/OUTPUTS/openbind_a71ev2a_c2_elabs_1LOUU54.sdf', '/opt/xchem-fragalysis-2/maxwin/BulkDock/OUTPUTS/openbind_a71ev2a_c2_elabs_1LSYIDY.sdf']

>  <name>  (1885) 
P585738

>  <ref_pdb>  (1885) 
A0566a

>  <subsites>  (1885) 
None

>  <HIPPO Pose ID>  (1885) 
585738

>  <ref_mols>  (1885) 
A0566a

>  <HIPPO Compound ID>  (1885) 
440922

>  <tags>  (1885) 
openbind_a71ev2a_c2_elabs,syndirella_product,openbind_a71ev2a_c2_elabs_fragonly_scored_top80percent,openbind_a71ev2a_c2_elabs_scored,BulkDock Fragalysis export,openbind_a71ev2a_c2_elabs_scored_top80percent,openbind_a71ev2a_c2_elabs_activefrags_only_scored_5.2plus,syndirella_placed

>  <smina_score_min>  (1885) 
-6.977

$$$$
P585740
     RDKit          3D

 20 22  0  0  0  0  0  0  0  0999 V2000
   10.1771   14.6319   24.3534 O   0  0  0  0  0  0  0  0  0  0  0  0
   10.1217   13.8843   23.4619 C   0  0  0  0  0  0  0  0  0  0  0  0
   10.5180   14.0596   21.9920 N   0  0  0  0  0  0  0  0  0  0  0  0
   11.1539   15.1572   21.3224 C   0  0  0  0  0  0  0  0  0  0  0  0
   10.5562   15.3507   19.9381 C   0  0  0  0  0  0  0  0  0  0  0  0
   11.3759   14.7706   18.7938 C   0  0  0  0  0  0  0  0  0  0  0  0
   12.3633   13.8484   19.2158 O   0  0  0  0  0  0  0  0  0  0  0  0
    9.4812   12.5763   23.7342 C   0  0  0  0  0  0  0  0  0  0  0  0
    9.8962   11.3692   23.1759 C   0  0  0  0  0  0  0  0  0  0  0  0
    9.2930   10.1686   23.5362 C   0  0  0  0  0  0  0  0  0  0  0  0
    8.2599   10.1524   24.4817 C   0  0  0  0  0  0  0  0  0  0  0  0
    7.7960   11.3561   25.0426 C   0  0  0  0  0  0  0  0  0  0  0  0
    6.8174   11.7080   26.0195 C   0  0  0  0  0  0  0  0  0  0  0  0
    6.8658   13.0795   26.1693 C   0  0  0  0  0  0  0  0  0  0  0  0
    7.7978   13.5769   25.3117 N   0  0  0  0  0  0  0  0  0  0  0  0
    8.4144   12.5391   24.6439 C   0  0  0  0  0  0  0  0  0  0  0  0
    6.0505   13.9034   27.1004 C   0  0  0  0  0  0  0  0  0  0  0  0
    5.4656   12.9970   28.1971 C   0  0  0  0  0  0  0  0  0  0  0  0
    4.8646   11.7112   27.6028 C   0  0  0  0  0  0  0  0  0  0  0  0
    5.9116   10.8617   26.8529 C   0  0  0  0  0  0  0  0  0  0  0  0
  1  2  2  0
  2  3  1  0
  3  4  1  0
  4  5  1  0
  5  6  1  0
  6  7  1  0
  2  8  1  0
  8  9  2  0
  9 10  1  0
 10 11  2  0
 11 12  1  0
 12 13  1  0
 13 14  2  0
 14 15  1  0
 15 16  1  0
 14 17  1  0
 17 18  1  0
 18 19  1  0
 19 20  1  0
 16  8  1  0
 16 12  2  0
 20 13  1  0
M  END
>  <alias>  (1886) 
None

>  <rmsd(smina/fragmenstein)>  (1886) 
0.401

>  <smiles>  (1886) 
O=C(NCCCO)c1cccc2c3c([nH]c12)CCCC3

>  <gnina_score>  (1886) 
5.447

>  <inspiration_score>  (1886) 
None

>  <energy_score>  (1886) 
-7.228749

>  <distance_score>  (1886) 
1.056784

>  <gnina_score_min>  (1886) 
5.563

>  <inchikey>  (1886) 
DJTFXASRDXZRPH-UHFFFAOYSA-N

>  <exports>  (1886) 
['/opt/xchem-fragalysis-2/maxwin/BulkDock/OUTPUTS/openbind_a71ev2a_c2_elabs_1LOUU54.sdf', '/opt/xchem-fragalysis-2/maxwin/BulkDock/OUTPUTS/openbind_a71ev2a_c2_elabs_1LSYIDY.sdf']

>  <name>  (1886) 
P585740

>  <ref_pdb>  (1886) 
A0566a

>  <subsites>  (1886) 
None

>  <HIPPO Pose ID>  (1886) 
585740

>  <ref_mols>  (1886) 
A0566a

>  <HIPPO Compound ID>  (1886) 
440926

>  <tags>  (1886) 
openbind_a71ev2a_c2_elabs,syndirella_product,openbind_a71ev2a_c2_elabs_fragonly_scored_top80percent,BulkDock Fragalysis export,openbind_a71ev2a_c2_elabs_scored,openbind_a71ev2a_c2_elabs_scored_top80percent,openbind_a71ev2a_c2_elabs_activefrags_only_scored_5.2plus,openbind_a71ev2a_c2_elabs_activefrags_only_scored_5.5plus,syndirella_placed

>  <smina_score_min>  (1886) 
-6.784

$$$$
P585741
     RDKit          3D

 20 22  0  0  0  0  0  0  0  0999 V2000
   11.4901   14.7700   18.6888 C   0  0  0  0  0  0  0  0  0  0  0  0
   10.5231   15.5104   19.2410 C   0  0  0  0  0  0  0  0  0  0  0  0
   10.3033   15.7742   20.6974 C   0  0  0  0  0  0  0  0  0  0  0  0
   11.3460   15.1719   21.6470 C   0  0  0  0  0  0  0  0  0  0  0  0
   10.7695   14.0308   22.2871 N   0  0  0  0  0  0  0  0  0  0  0  0
   10.1795   13.8697   23.6885 C   0  0  0  0  0  0  0  0  0  0  0  0
   10.1353   14.6177   24.5799 O   0  0  0  0  0  0  0  0  0  0  0  0
    9.4802   12.5724   23.8575 C   0  0  0  0  0  0  0  0  0  0  0  0
    9.8861   11.3773   23.2600 C   0  0  0  0  0  0  0  0  0  0  0  0
    9.2658   10.1730   23.5737 C   0  0  0  0  0  0  0  0  0  0  0  0
    8.2308   10.1393   24.5148 C   0  0  0  0  0  0  0  0  0  0  0  0
    7.7628   11.3326   25.0929 C   0  0  0  0  0  0  0  0  0  0  0  0
    6.7879   11.6658   26.0765 C   0  0  0  0  0  0  0  0  0  0  0  0
    6.7724   13.0400   26.1947 C   0  0  0  0  0  0  0  0  0  0  0  0
    7.7246   13.5514   25.3692 N   0  0  0  0  0  0  0  0  0  0  0  0
    8.3786   12.5241   24.7210 C   0  0  0  0  0  0  0  0  0  0  0  0
    5.9131   13.8496   27.0994 C   0  0  0  0  0  0  0  0  0  0  0  0
    4.7796   12.9730   27.6594 C   0  0  0  0  0  0  0  0  0  0  0  0
    5.2819   11.5804   28.0796 C   0  0  0  0  0  0  0  0  0  0  0  0
    5.8956   10.8033   26.8999 C   0  0  0  0  0  0  0  0  0  0  0  0
  1  2  2  0
  2  3  1  0
  3  4  1  0
  4  5  1  0
  5  6  1  0
  6  7  2  0
  6  8  1  0
  8  9  2  0
  9 10  1  0
 10 11  2  0
 11 12  1  0
 12 13  1  0
 13 14  2  0
 14 15  1  0
 15 16  1  0
 14 17  1  0
 17 18  1  0
 18 19  1  0
 19 20  1  0
 16  8  1  0
 16 12  2  0
 20 13  1  0
M  END
>  <alias>  (1887) 
None

>  <rmsd(smina/fragmenstein)>  (1887) 
0.334

>  <smiles>  (1887) 
C=CCCNC(=O)c1cccc2c3c([nH]c12)CCCC3

>  <gnina_score>  (1887) 
5.294

>  <inspiration_score>  (1887) 
None

>  <energy_score>  (1887) 
-6.434214

>  <distance_score>  (1887) 
1.031367

>  <gnina_score_min>  (1887) 
5.353

>  <inchikey>  (1887) 
XERRCEDQJPMCKR-UHFFFAOYSA-N

>  <exports>  (1887) 
['/opt/xchem-fragalysis-2/maxwin/BulkDock/OUTPUTS/openbind_a71ev2a_c2_elabs_1LOUU54.sdf', '/opt/xchem-fragalysis-2/maxwin/BulkDock/OUTPUTS/openbind_a71ev2a_c2_elabs_1LSYIDY.sdf']

>  <name>  (1887) 
P585741

>  <ref_pdb>  (1887) 
A0566a

>  <subsites>  (1887) 
None

>  <HIPPO Pose ID>  (1887) 
585741

>  <ref_mols>  (1887) 
A0566a

>  <HIPPO Compound ID>  (1887) 
440927

>  <tags>  (1887) 
openbind_a71ev2a_c2_elabs,syndirella_product,openbind_a71ev2a_c2_elabs_fragonly_scored_top80percent,openbind_a71ev2a_c2_elabs_scored,BulkDock Fragalysis export,openbind_a71ev2a_c2_elabs_scored_top80percent,openbind_a71ev2a_c2_elabs_activefrags_only_scored_5.2plus,syndirella_placed

>  <smina_score_min>  (1887) 
-6.32

$$$$
P585742
     RDKit          3D

 20 22  0  0  0  0  0  0  0  0999 V2000
   10.1033   15.9063   20.5527 C   0  0  0  0  0  0  0  0  0  0  0  0
   11.1752   14.8789   20.9399 C   0  0  0  0  0  0  0  0  0  0  0  0
   12.3219   15.3911   21.8138 C   0  0  0  0  0  0  0  0  0  0  0  0
   11.7550   14.3443   19.6308 C   0  0  0  0  0  0  0  0  0  0  0  0
   10.5292   13.8346   21.7117 N   0  0  0  0  0  0  0  0  0  0  0  0
    9.9896   13.8447   23.1531 C   0  0  0  0  0  0  0  0  0  0  0  0
    9.9087   14.7163   23.9240 O   0  0  0  0  0  0  0  0  0  0  0  0
    9.4020   12.5463   23.5694 C   0  0  0  0  0  0  0  0  0  0  0  0
    9.8602   11.3057   23.1254 C   0  0  0  0  0  0  0  0  0  0  0  0
    9.2912   10.1193   23.5729 C   0  0  0  0  0  0  0  0  0  0  0  0
    8.2652   10.1468   24.5214 C   0  0  0  0  0  0  0  0  0  0  0  0
    7.7941   11.3769   25.0126 C   0  0  0  0  0  0  0  0  0  0  0  0
    6.8288   11.7691   25.9828 C   0  0  0  0  0  0  0  0  0  0  0  0
    6.8031   13.1480   26.0043 C   0  0  0  0  0  0  0  0  0  0  0  0
    7.7157   13.6092   25.1065 N   0  0  0  0  0  0  0  0  0  0  0  0
    8.3621   12.5456   24.5103 C   0  0  0  0  0  0  0  0  0  0  0  0
    5.9547   14.0117   26.8686 C   0  0  0  0  0  0  0  0  0  0  0  0
    4.8417   13.1676   27.5144 C   0  0  0  0  0  0  0  0  0  0  0  0
    5.3608   11.8058   28.0111 C   0  0  0  0  0  0  0  0  0  0  0  0
    5.9446   10.9579   26.8656 C   0  0  0  0  0  0  0  0  0  0  0  0
  1  2  1  0
  2  3  1  0
  2  4  1  0
  2  5  1  0
  5  6  1  0
  6  7  2  0
  6  8  1  0
  8  9  2  0
  9 10  1  0
 10 11  2  0
 11 12  1  0
 12 13  1  0
 13 14  2  0
 14 15  1  0
 15 16  1  0
 14 17  1  0
 17 18  1  0
 18 19  1  0
 19 20  1  0
 16  8  1  0
 16 12  2  0
 20 13  1  0
M  END
>  <alias>  (1888) 
None

>  <rmsd(smina/fragmenstein)>  (1888) 
0.433

>  <smiles>  (1888) 
CC(C)(C)NC(=O)c1cccc2c3c([nH]c12)CCCC3

>  <gnina_score>  (1888) 
5.48

>  <inspiration_score>  (1888) 
None

>  <energy_score>  (1888) 
-25.270842

>  <distance_score>  (1888) 
1.190266

>  <gnina_score_min>  (1888) 
5.501

>  <inchikey>  (1888) 
AXRGNSRWELCSLD-UHFFFAOYSA-N

>  <exports>  (1888) 
['/opt/xchem-fragalysis-2/maxwin/BulkDock/OUTPUTS/openbind_a71ev2a_c2_elabs_1LOUU54.sdf', '/opt/xchem-fragalysis-2/maxwin/BulkDock/OUTPUTS/openbind_a71ev2a_c2_elabs_1LSYIDY.sdf']

>  <name>  (1888) 
P585742

>  <ref_pdb>  (1888) 
A0566a

>  <subsites>  (1888) 
None

>  <HIPPO Pose ID>  (1888) 
585742

>  <ref_mols>  (1888) 
A0566a

>  <HIPPO Compound ID>  (1888) 
440928

>  <tags>  (1888) 
openbind_a71ev2a_c2_elabs,syndirella_product,openbind_a71ev2a_c2_elabs_fragonly_scored_top80percent,BulkDock Fragalysis export,openbind_a71ev2a_c2_elabs_scored,openbind_a71ev2a_c2_elabs_scored_top80percent,openbind_a71ev2a_c2_elabs_activefrags_only_scored_5.2plus,openbind_a71ev2a_c2_elabs_activefrags_only_scored_5.5plus,syndirella_placed

>  <smina_score_min>  (1888) 
-7.075

$$$$
P585743
     RDKit          3D

 20 22  0  0  0  0  0  0  0  0999 V2000
   10.4374   14.6475   24.1325 O   0  0  0  0  0  0  0  0  0  0  0  0
   10.2422   13.8903   23.2690 C   0  0  0  0  0  0  0  0  0  0  0  0
   10.5075   14.0091   21.7633 N   0  0  0  0  0  0  0  0  0  0  0  0
   11.1518   15.0384   21.0133 C   0  0  0  0  0  0  0  0  0  0  0  0
   10.1823   16.0388   20.5669 C   0  0  0  0  0  0  0  0  0  0  0  0
    9.5255   16.9621   20.1666 C   0  0  0  0  0  0  0  0  0  0  0  0
    8.6262   18.5111   19.4754 Br  0  0  0  0  0  0  0  0  0  0  0  0
    9.5424   12.6310   23.6146 C   0  0  0  0  0  0  0  0  0  0  0  0
    9.9348   11.3890   23.1170 C   0  0  0  0  0  0  0  0  0  0  0  0
    9.3149   10.2136   23.5250 C   0  0  0  0  0  0  0  0  0  0  0  0
    8.2906   10.2567   24.4742 C   0  0  0  0  0  0  0  0  0  0  0  0
    7.8615   11.4943   24.9882 C   0  0  0  0  0  0  0  0  0  0  0  0
    6.8993   11.8980   25.9549 C   0  0  0  0  0  0  0  0  0  0  0  0
    6.9286   13.2758   26.0171 C   0  0  0  0  0  0  0  0  0  0  0  0
    7.8779   13.7266   25.1505 N   0  0  0  0  0  0  0  0  0  0  0  0
    8.4878   12.6552   24.5336 C   0  0  0  0  0  0  0  0  0  0  0  0
    6.1029   14.1453   26.8981 C   0  0  0  0  0  0  0  0  0  0  0  0
    4.9575   13.3239   27.5172 C   0  0  0  0  0  0  0  0  0  0  0  0
    5.4237   11.9290   27.9743 C   0  0  0  0  0  0  0  0  0  0  0  0
    5.9720   11.0964   26.8007 C   0  0  0  0  0  0  0  0  0  0  0  0
  1  2  2  0
  2  3  1  0
  3  4  1  0
  4  5  1  0
  5  6  3  0
  6  7  1  0
  2  8  1  0
  8  9  2  0
  9 10  1  0
 10 11  2  0
 11 12  1  0
 12 13  1  0
 13 14  2  0
 14 15  1  0
 15 16  1  0
 14 17  1  0
 17 18  1  0
 18 19  1  0
 19 20  1  0
 16  8  1  0
 16 12  2  0
 20 13  1  0
M  END
>  <alias>  (1889) 
None

>  <rmsd(smina/fragmenstein)>  (1889) 
0.454

>  <smiles>  (1889) 
O=C(NCC#CBr)c1cccc2c3c([nH]c12)CCCC3

>  <gnina_score>  (1889) 
5.551

>  <inspiration_score>  (1889) 
None

>  <energy_score>  (1889) 
-4.482526

>  <distance_score>  (1889) 
1.038275

>  <gnina_score_min>  (1889) 
5.577

>  <inchikey>  (1889) 
FUMYDTKAUQAEBU-UHFFFAOYSA-N

>  <exports>  (1889) 
['/opt/xchem-fragalysis-2/maxwin/BulkDock/OUTPUTS/openbind_a71ev2a_c2_elabs_1LOUU54.sdf', '/opt/xchem-fragalysis-2/maxwin/BulkDock/OUTPUTS/openbind_a71ev2a_c2_elabs_1LSYIDY.sdf']

>  <name>  (1889) 
P585743

>  <ref_pdb>  (1889) 
A0566a

>  <subsites>  (1889) 
None

>  <HIPPO Pose ID>  (1889) 
585743

>  <ref_mols>  (1889) 
A0566a

>  <HIPPO Compound ID>  (1889) 
440930

>  <tags>  (1889) 
openbind_a71ev2a_c2_elabs,syndirella_product,openbind_a71ev2a_c2_elabs_fragonly_scored_top80percent,BulkDock Fragalysis export,openbind_a71ev2a_c2_elabs_scored,openbind_a71ev2a_c2_elabs_scored_top80percent,openbind_a71ev2a_c2_elabs_activefrags_only_scored_5.2plus,openbind_a71ev2a_c2_elabs_activefrags_only_scored_5.5plus,syndirella_placed

>  <smina_score_min>  (1889) 
-6.672

$$$$
P585744
     RDKit          3D

 20 23  0  0  0  0  0  0  0  0999 V2000
   10.0561   14.6641   24.4242 O   0  0  0  0  0  0  0  0  0  0  0  0
    9.8942   13.9309   23.5339 C   0  0  0  0  0  0  0  0  0  0  0  0
   10.2154   14.0905   22.0438 N   0  0  0  0  0  0  0  0  0  0  0  0
   10.8948   15.1531   21.3379 C   0  0  0  0  0  0  0  0  0  0  0  0
   12.4089   15.1286   21.6404 C   0  0  0  0  0  0  0  0  0  0  0  0
   12.5657   14.2552   20.3922 C   0  0  0  0  0  0  0  0  0  0  0  0
   11.2337   14.8045   19.8791 C   0  0  0  0  0  0  0  0  0  0  0  0
    9.2859   12.6168   23.8101 C   0  0  0  0  0  0  0  0  0  0  0  0
    9.7737   11.4257   23.2636 C   0  0  0  0  0  0  0  0  0  0  0  0
    9.2197   10.2041   23.6241 C   0  0  0  0  0  0  0  0  0  0  0  0
    8.1907   10.1533   24.5727 C   0  0  0  0  0  0  0  0  0  0  0  0
    7.6855   11.3390   25.1395 C   0  0  0  0  0  0  0  0  0  0  0  0
    6.7146   11.6530   26.1328 C   0  0  0  0  0  0  0  0  0  0  0  0
    6.6544   13.0280   26.2319 C   0  0  0  0  0  0  0  0  0  0  0  0
    7.5676   13.5628   25.3767 N   0  0  0  0  0  0  0  0  0  0  0  0
    8.2332   12.5489   24.7229 C   0  0  0  0  0  0  0  0  0  0  0  0
    5.7802   13.8198   27.1384 C   0  0  0  0  0  0  0  0  0  0  0  0
    4.6771   12.9155   27.7143 C   0  0  0  0  0  0  0  0  0  0  0  0
    5.2241   11.5443   28.1480 C   0  0  0  0  0  0  0  0  0  0  0  0
    5.8606   10.7713   26.9776 C   0  0  0  0  0  0  0  0  0  0  0  0
  1  2  2  0
  2  3  1  0
  3  4  1  0
  4  5  1  0
  5  6  1  0
  6  7  1  0
  2  8  1  0
  8  9  2  0
  9 10  1  0
 10 11  2  0
 11 12  1  0
 12 13  1  0
 13 14  2  0
 14 15  1  0
 15 16  1  0
 14 17  1  0
 17 18  1  0
 18 19  1  0
 19 20  1  0
  7  4  1  0
 16  8  1  0
 16 12  2  0
 20 13  1  0
M  END
>  <alias>  (1890) 
None

>  <rmsd(smina/fragmenstein)>  (1890) 
0.337

>  <smiles>  (1890) 
O=C(NC1CCC1)c1cccc2c3c([nH]c12)CCCC3

>  <gnina_score>  (1890) 
5.238

>  <inspiration_score>  (1890) 
None

>  <energy_score>  (1890) 
-17.977773

>  <distance_score>  (1890) 
1.204932

>  <gnina_score_min>  (1890) 
5.313

>  <inchikey>  (1890) 
ZJFGWMJGMAWWBC-UHFFFAOYSA-N

>  <exports>  (1890) 
['/opt/xchem-fragalysis-2/maxwin/BulkDock/OUTPUTS/openbind_a71ev2a_c2_elabs_1LOUU54.sdf', '/opt/xchem-fragalysis-2/maxwin/BulkDock/OUTPUTS/openbind_a71ev2a_c2_elabs_1LSYIDY.sdf']

>  <name>  (1890) 
P585744

>  <ref_pdb>  (1890) 
A0566a

>  <subsites>  (1890) 
None

>  <HIPPO Pose ID>  (1890) 
585744

>  <ref_mols>  (1890) 
A0566a

>  <HIPPO Compound ID>  (1890) 
440931

>  <tags>  (1890) 
openbind_a71ev2a_c2_elabs,syndirella_product,openbind_a71ev2a_c2_elabs_fragonly_scored_top80percent,openbind_a71ev2a_c2_elabs_scored,BulkDock Fragalysis export,openbind_a71ev2a_c2_elabs_scored_top80percent,openbind_a71ev2a_c2_elabs_activefrags_only_scored_5.2plus,syndirella_placed

>  <smina_score_min>  (1890) 
-6.938

$$$$
P585745
     RDKit          3D

 20 22  0  0  0  0  0  0  0  0999 V2000
    9.9432   14.7132   24.2729 O   0  0  0  0  0  0  0  0  0  0  0  0
    9.8856   13.9292   23.4139 C   0  0  0  0  0  0  0  0  0  0  0  0
   10.3467   14.0174   21.9562 N   0  0  0  0  0  0  0  0  0  0  0  0
   11.0650   15.0548   21.2632 C   0  0  0  0  0  0  0  0  0  0  0  0
   12.5501   14.7564   21.3113 C   0  0  0  0  0  0  0  0  0  0  0  0
   12.8116   13.7550   20.4351 F   0  0  0  0  0  0  0  0  0  0  0  0
   12.8949   14.3214   22.5554 F   0  0  0  0  0  0  0  0  0  0  0  0
    9.2832   12.6141   23.7282 C   0  0  0  0  0  0  0  0  0  0  0  0
    9.7757   11.4109   23.2143 C   0  0  0  0  0  0  0  0  0  0  0  0
    9.2289   10.1934   23.6016 C   0  0  0  0  0  0  0  0  0  0  0  0
    8.1971   10.1551   24.5473 C   0  0  0  0  0  0  0  0  0  0  0  0
    7.6915   11.3485   25.0963 C   0  0  0  0  0  0  0  0  0  0  0  0
    6.7168   11.6734   26.0859 C   0  0  0  0  0  0  0  0  0  0  0  0
    6.7150   13.0473   26.2196 C   0  0  0  0  0  0  0  0  0  0  0  0
    7.6018   13.5716   25.3309 N   0  0  0  0  0  0  0  0  0  0  0  0
    8.2442   12.5518   24.6627 C   0  0  0  0  0  0  0  0  0  0  0  0
    5.8863   13.8480   27.1596 C   0  0  0  0  0  0  0  0  0  0  0  0
    5.3670   12.9322   28.2811 C   0  0  0  0  0  0  0  0  0  0  0  0
    4.8022   11.6167   27.7174 C   0  0  0  0  0  0  0  0  0  0  0  0
    5.8595   10.8008   26.9446 C   0  0  0  0  0  0  0  0  0  0  0  0
  1  2  2  0
  2  3  1  0
  3  4  1  0
  4  5  1  0
  5  6  1  0
  5  7  1  0
  2  8  1  0
  8  9  2  0
  9 10  1  0
 10 11  2  0
 11 12  1  0
 12 13  1  0
 13 14  2  0
 14 15  1  0
 15 16  1  0
 14 17  1  0
 17 18  1  0
 18 19  1  0
 19 20  1  0
 16  8  1  0
 16 12  2  0
 20 13  1  0
M  END
>  <alias>  (1891) 
None

>  <rmsd(smina/fragmenstein)>  (1891) 
0.333

>  <smiles>  (1891) 
O=C(NCC(F)F)c1cccc2c3c([nH]c12)CCCC3

>  <gnina_score>  (1891) 
5.133

>  <inspiration_score>  (1891) 
None

>  <energy_score>  (1891) 
-16.627684

>  <distance_score>  (1891) 
1.202363

>  <gnina_score_min>  (1891) 
5.241

>  <inchikey>  (1891) 
NFJDGHIQZHDIJW-UHFFFAOYSA-N

>  <exports>  (1891) 
['/opt/xchem-fragalysis-2/maxwin/BulkDock/OUTPUTS/openbind_a71ev2a_c2_elabs_1LOUU54.sdf', '/opt/xchem-fragalysis-2/maxwin/BulkDock/OUTPUTS/openbind_a71ev2a_c2_elabs_1LSYIDY.sdf']

>  <name>  (1891) 
P585745

>  <ref_pdb>  (1891) 
A0566a

>  <subsites>  (1891) 
None

>  <HIPPO Pose ID>  (1891) 
585745

>  <ref_mols>  (1891) 
A0566a

>  <HIPPO Compound ID>  (1891) 
440933

>  <tags>  (1891) 
openbind_a71ev2a_c2_elabs,syndirella_product,openbind_a71ev2a_c2_elabs_fragonly_scored_top80percent,openbind_a71ev2a_c2_elabs_scored,BulkDock Fragalysis export,openbind_a71ev2a_c2_elabs_scored_top80percent,openbind_a71ev2a_c2_elabs_activefrags_only_scored_5.2plus,syndirella_placed

>  <smina_score_min>  (1891) 
-6.715

$$$$
P585747
     RDKit          3D

 20 22  0  0  0  0  0  0  0  0999 V2000
   12.3624   14.7424   20.8407 C   0  0  0  0  0  0  0  0  0  0  0  0
   11.1523   15.0831   19.9866 C   0  0  1  0  0  0  0  0  0  0  0  0
   10.9067   14.0135   19.0981 O   0  0  0  0  0  0  0  0  0  0  0  0
    9.9151   15.4269   20.8153 C   0  0  0  0  0  0  0  0  0  0  0  0
    9.5364   14.3720   21.7251 N   0  0  0  0  0  0  0  0  0  0  0  0
   10.0319   14.0512   23.1422 C   0  0  0  0  0  0  0  0  0  0  0  0
   10.7683   14.6297   23.8332 O   0  0  0  0  0  0  0  0  0  0  0  0
    9.4341   12.7912   23.6061 C   0  0  0  0  0  0  0  0  0  0  0  0
    9.9105   11.5734   23.1212 C   0  0  0  0  0  0  0  0  0  0  0  0
    9.3485   10.3711   23.5319 C   0  0  0  0  0  0  0  0  0  0  0  0
    8.3177   10.3712   24.4769 C   0  0  0  0  0  0  0  0  0  0  0  0
    7.8358   11.5900   24.9965 C   0  0  0  0  0  0  0  0  0  0  0  0
    6.8598   11.9480   25.9662 C   0  0  0  0  0  0  0  0  0  0  0  0
    6.8258   13.3260   26.0290 C   0  0  0  0  0  0  0  0  0  0  0  0
    7.7422   13.8245   25.1517 N   0  0  0  0  0  0  0  0  0  0  0  0
    8.3973   12.7836   24.5349 C   0  0  0  0  0  0  0  0  0  0  0  0
    5.9626   14.1541   26.9153 C   0  0  0  0  0  0  0  0  0  0  0  0
    4.8560   13.2803   27.5326 C   0  0  0  0  0  0  0  0  0  0  0  0
    5.3845   11.9067   27.9860 C   0  0  0  0  0  0  0  0  0  0  0  0
    5.9702   11.1028   26.8108 C   0  0  0  0  0  0  0  0  0  0  0  0
  2  1  1  1
  2  3  1  0
  2  4  1  0
  4  5  1  0
  5  6  1  0
  6  7  2  0
  6  8  1  0
  8  9  2  0
  9 10  1  0
 10 11  2  0
 11 12  1  0
 12 13  1  0
 13 14  2  0
 14 15  1  0
 15 16  1  0
 14 17  1  0
 17 18  1  0
 18 19  1  0
 19 20  1  0
 16  8  1  0
 16 12  2  0
 20 13  1  0
M  END
>  <alias>  (1892) 
None

>  <rmsd(smina/fragmenstein)>  (1892) 
0.601

>  <smiles>  (1892) 
C[C@@H](O)CNC(=O)c1cccc2c3c([nH]c12)CCCC3

>  <gnina_score>  (1892) 
5.434

>  <inspiration_score>  (1892) 
None

>  <energy_score>  (1892) 
-21.163454

>  <distance_score>  (1892) 
1.278063

>  <gnina_score_min>  (1892) 
5.452

>  <inchikey>  (1892) 
WRISEMJHPATQBV-SNVBAGLBSA-N

>  <exports>  (1892) 
['/opt/xchem-fragalysis-2/maxwin/BulkDock/OUTPUTS/openbind_a71ev2a_c2_elabs_1LOUU54.sdf', '/opt/xchem-fragalysis-2/maxwin/BulkDock/OUTPUTS/openbind_a71ev2a_c2_elabs_1LSYIDY.sdf']

>  <name>  (1892) 
P585747

>  <ref_pdb>  (1892) 
A0566a

>  <subsites>  (1892) 
None

>  <HIPPO Pose ID>  (1892) 
585747

>  <ref_mols>  (1892) 
A0566a

>  <HIPPO Compound ID>  (1892) 
440934

>  <tags>  (1892) 
openbind_a71ev2a_c2_elabs,syndirella_product,openbind_a71ev2a_c2_elabs_fragonly_scored_top80percent,openbind_a71ev2a_c2_elabs_scored,BulkDock Fragalysis export,openbind_a71ev2a_c2_elabs_scored_top80percent,openbind_a71ev2a_c2_elabs_activefrags_only_scored_5.2plus,syndirella_placed

>  <smina_score_min>  (1892) 
-6.667

$$$$
P585748
     RDKit          3D

 20 22  0  0  0  0  0  0  0  0999 V2000
   12.5707   14.4439   20.4067 C   0  0  0  0  0  0  0  0  0  0  0  0
   11.3227   14.8265   20.1393 C   0  0  0  0  0  0  0  0  0  0  0  0
   10.4436   15.3500   21.2177 C   0  0  1  0  0  0  0  0  0  0  0  0
    9.2863   16.1349   20.6374 C   0  0  0  0  0  0  0  0  0  0  0  0
    9.9872   14.2051   21.9500 N   0  0  0  0  0  0  0  0  0  0  0  0
    9.6477   14.0438   23.4328 C   0  0  0  0  0  0  0  0  0  0  0  0
    9.6092   14.8317   24.2883 O   0  0  0  0  0  0  0  0  0  0  0  0
    9.2132   12.6691   23.7654 C   0  0  0  0  0  0  0  0  0  0  0  0
    9.7698   11.5110   23.2205 C   0  0  0  0  0  0  0  0  0  0  0  0
    9.2801   10.2582   23.5796 C   0  0  0  0  0  0  0  0  0  0  0  0
    8.2470   10.1430   24.5229 C   0  0  0  0  0  0  0  0  0  0  0  0
    7.6890   11.2931   25.1125 C   0  0  0  0  0  0  0  0  0  0  0  0
    6.6998   11.5549   26.1105 C   0  0  0  0  0  0  0  0  0  0  0  0
    6.6512   12.9237   26.2856 C   0  0  0  0  0  0  0  0  0  0  0  0
    7.5058   13.5041   25.4027 N   0  0  0  0  0  0  0  0  0  0  0  0
    8.1882   12.5273   24.7089 C   0  0  0  0  0  0  0  0  0  0  0  0
    5.8121   13.6709   27.2590 C   0  0  0  0  0  0  0  0  0  0  0  0
    5.3472   12.7084   28.3642 C   0  0  0  0  0  0  0  0  0  0  0  0
    4.8092   11.3959   27.7701 C   0  0  0  0  0  0  0  0  0  0  0  0
    5.8720   10.6345   26.9492 C   0  0  0  0  0  0  0  0  0  0  0  0
  1  2  2  0
  2  3  1  0
  3  4  1  6
  3  5  1  0
  5  6  1  0
  6  7  2  0
  6  8  1  0
  8  9  2  0
  9 10  1  0
 10 11  2  0
 11 12  1  0
 12 13  1  0
 13 14  2  0
 14 15  1  0
 15 16  1  0
 14 17  1  0
 17 18  1  0
 18 19  1  0
 19 20  1  0
 16  8  1  0
 16 12  2  0
 20 13  1  0
M  END
>  <alias>  (1893) 
None

>  <rmsd(smina/fragmenstein)>  (1893) 
1.004

>  <smiles>  (1893) 
C=C[C@@H](C)NC(=O)c1cccc2c3c([nH]c12)CCCC3

>  <gnina_score>  (1893) 
5.209

>  <inspiration_score>  (1893) 
None

>  <energy_score>  (1893) 
-15.293354

>  <distance_score>  (1893) 
1.366559

>  <gnina_score_min>  (1893) 
5.431

>  <inchikey>  (1893) 
UKDXDJZNRPZHTF-LLVKDONJSA-N

>  <exports>  (1893) 
['/opt/xchem-fragalysis-2/maxwin/BulkDock/OUTPUTS/openbind_a71ev2a_c2_elabs_1LOUU54.sdf', '/opt/xchem-fragalysis-2/maxwin/BulkDock/OUTPUTS/openbind_a71ev2a_c2_elabs_1LSYIDY.sdf']

>  <name>  (1893) 
P585748

>  <ref_pdb>  (1893) 
A0566a

>  <subsites>  (1893) 
None

>  <HIPPO Pose ID>  (1893) 
585748

>  <ref_mols>  (1893) 
A0566a

>  <HIPPO Compound ID>  (1893) 
440936

>  <tags>  (1893) 
openbind_a71ev2a_c2_elabs,syndirella_product,openbind_a71ev2a_c2_elabs_fragonly_scored_top80percent,openbind_a71ev2a_c2_elabs_scored,BulkDock Fragalysis export,openbind_a71ev2a_c2_elabs_scored_top80percent,openbind_a71ev2a_c2_elabs_activefrags_only_scored_5.2plus,syndirella_placed

>  <smina_score_min>  (1893) 
-6.442

$$$$
P585750
     RDKit          3D

 20 23  0  0  0  0  0  0  0  0999 V2000
   12.3873   15.3389   21.8600 C   0  0  0  0  0  0  0  0  0  0  0  0
   11.1318   14.8370   21.2113 C   0  0  0  0  0  0  0  0  0  0  0  0
   10.4958   13.8164   21.9345 N   0  0  0  0  0  0  0  0  0  0  0  0
    9.9895   13.7866   23.3864 C   0  0  0  0  0  0  0  0  0  0  0  0
    9.9502   14.6305   24.1914 O   0  0  0  0  0  0  0  0  0  0  0  0
    9.3793   12.4854   23.7359 C   0  0  0  0  0  0  0  0  0  0  0  0
    9.8150   11.2601   23.2289 C   0  0  0  0  0  0  0  0  0  0  0  0
    9.2240   10.0703   23.6302 C   0  0  0  0  0  0  0  0  0  0  0  0
    8.1963   10.0810   24.5793 C   0  0  0  0  0  0  0  0  0  0  0  0
    7.7314   11.2986   25.1064 C   0  0  0  0  0  0  0  0  0  0  0  0
    6.7660   11.6734   26.0834 C   0  0  0  0  0  0  0  0  0  0  0  0
    6.7434   13.0518   26.1333 C   0  0  0  0  0  0  0  0  0  0  0  0
    7.6723   13.5285   25.2611 N   0  0  0  0  0  0  0  0  0  0  0  0
    8.3197   12.4742   24.6508 C   0  0  0  0  0  0  0  0  0  0  0  0
    5.8870   13.8993   27.0053 C   0  0  0  0  0  0  0  0  0  0  0  0
    4.7591   13.0454   27.6104 C   0  0  0  0  0  0  0  0  0  0  0  0
    5.2678   11.6754   28.0935 C   0  0  0  0  0  0  0  0  0  0  0  0
    5.8816   10.8451   26.9505 C   0  0  0  0  0  0  0  0  0  0  0  0
   11.0686   14.8955   19.7067 C   0  0  0  0  0  0  0  0  0  0  0  0
   10.1631   15.7748   20.5075 C   0  0  0  0  0  0  0  0  0  0  0  0
  1  2  1  0
  2  3  1  0
  3  4  1  0
  4  5  2  0
  4  6  1  0
  6  7  2  0
  7  8  1  0
  8  9  2  0
  9 10  1  0
 10 11  1  0
 11 12  2  0
 12 13  1  0
 13 14  1  0
 12 15  1  0
 15 16  1  0
 16 17  1  0
 17 18  1  0
  2 19  1  0
 19 20  1  0
 20  2  1  0
 14  6  1  0
 14 10  2  0
 18 11  1  0
M  END
>  <alias>  (1894) 
None

>  <rmsd(smina/fragmenstein)>  (1894) 
0.342

>  <smiles>  (1894) 
CC1(NC(=O)c2cccc3c4c([nH]c23)CCCC4)CC1

>  <gnina_score>  (1894) 
5.507

>  <inspiration_score>  (1894) 
None

>  <energy_score>  (1894) 
-9.961987

>  <distance_score>  (1894) 
1.180415

>  <gnina_score_min>  (1894) 
5.561

>  <inchikey>  (1894) 
UIJXCKKYAWZCDT-UHFFFAOYSA-N

>  <exports>  (1894) 
['/opt/xchem-fragalysis-2/maxwin/BulkDock/OUTPUTS/openbind_a71ev2a_c2_elabs_1LOUU54.sdf', '/opt/xchem-fragalysis-2/maxwin/BulkDock/OUTPUTS/openbind_a71ev2a_c2_elabs_1LSYIDY.sdf']

>  <name>  (1894) 
P585750

>  <ref_pdb>  (1894) 
A0566a

>  <subsites>  (1894) 
None

>  <HIPPO Pose ID>  (1894) 
585750

>  <ref_mols>  (1894) 
A0566a

>  <HIPPO Compound ID>  (1894) 
440941

>  <tags>  (1894) 
openbind_a71ev2a_c2_elabs,syndirella_product,openbind_a71ev2a_c2_elabs_fragonly_scored_top80percent,BulkDock Fragalysis export,openbind_a71ev2a_c2_elabs_scored,openbind_a71ev2a_c2_elabs_scored_top80percent,openbind_a71ev2a_c2_elabs_activefrags_only_scored_5.2plus,openbind_a71ev2a_c2_elabs_activefrags_only_scored_5.5plus,syndirella_placed

>  <smina_score_min>  (1894) 
-7.514

$$$$
P585752
     RDKit          3D

 20 22  0  0  0  0  0  0  0  0999 V2000
   12.5443   15.2865   21.9710 C   0  0  0  0  0  0  0  0  0  0  0  0
   11.3879   14.8874   21.0671 C   0  0  1  0  0  0  0  0  0  0  0  0
   11.9352   14.3966   19.7216 C   0  0  0  0  0  0  0  0  0  0  0  0
   10.9508   14.0212   18.7821 O   0  0  0  0  0  0  0  0  0  0  0  0
   10.6207   13.8833   21.7613 N   0  0  0  0  0  0  0  0  0  0  0  0
   10.0433   13.8749   23.1866 C   0  0  0  0  0  0  0  0  0  0  0  0
   10.0292   14.7092   24.0015 O   0  0  0  0  0  0  0  0  0  0  0  0
    9.4070   12.5864   23.5592 C   0  0  0  0  0  0  0  0  0  0  0  0
    9.8631   11.3458   23.1108 C   0  0  0  0  0  0  0  0  0  0  0  0
    9.2927   10.1578   23.5527 C   0  0  0  0  0  0  0  0  0  0  0  0
    8.2681   10.1833   24.5023 C   0  0  0  0  0  0  0  0  0  0  0  0
    7.7973   11.4130   24.9953 C   0  0  0  0  0  0  0  0  0  0  0  0
    6.8348   11.8013   25.9695 C   0  0  0  0  0  0  0  0  0  0  0  0
    6.8132   13.1801   26.0011 C   0  0  0  0  0  0  0  0  0  0  0  0
    7.7265   13.6451   25.1056 N   0  0  0  0  0  0  0  0  0  0  0  0
    8.3659   12.5845   24.4979 C   0  0  0  0  0  0  0  0  0  0  0  0
    5.9706   14.0391   26.8758 C   0  0  0  0  0  0  0  0  0  0  0  0
    4.8604   13.1925   27.5233 C   0  0  0  0  0  0  0  0  0  0  0  0
    5.3800   11.8260   28.0066 C   0  0  0  0  0  0  0  0  0  0  0  0
    5.9519   10.9858   26.8496 C   0  0  0  0  0  0  0  0  0  0  0  0
  2  1  1  1
  2  3  1  0
  3  4  1  0
  2  5  1  0
  5  6  1  0
  6  7  2  0
  6  8  1  0
  8  9  2  0
  9 10  1  0
 10 11  2  0
 11 12  1  0
 12 13  1  0
 13 14  2  0
 14 15  1  0
 15 16  1  0
 14 17  1  0
 17 18  1  0
 18 19  1  0
 19 20  1  0
 16  8  1  0
 16 12  2  0
 20 13  1  0
M  END
>  <alias>  (1895) 
None

>  <rmsd(smina/fragmenstein)>  (1895) 
0.356

>  <smiles>  (1895) 
C[C@@H](CO)NC(=O)c1cccc2c3c([nH]c12)CCCC3

>  <gnina_score>  (1895) 
5.502

>  <inspiration_score>  (1895) 
None

>  <energy_score>  (1895) 
-17.595456

>  <distance_score>  (1895) 
1.126269

>  <gnina_score_min>  (1895) 
5.443

>  <inchikey>  (1895) 
IVTLGKUDTVPJNN-JTQLQIEISA-N

>  <exports>  (1895) 
['/opt/xchem-fragalysis-2/maxwin/BulkDock/OUTPUTS/openbind_a71ev2a_c2_elabs_1LOUU54.sdf', '/opt/xchem-fragalysis-2/maxwin/BulkDock/OUTPUTS/openbind_a71ev2a_c2_elabs_1LSYIDY.sdf']

>  <name>  (1895) 
P585752

>  <ref_pdb>  (1895) 
A0566a

>  <subsites>  (1895) 
None

>  <HIPPO Pose ID>  (1895) 
585752

>  <ref_mols>  (1895) 
A0566a

>  <HIPPO Compound ID>  (1895) 
440942

>  <tags>  (1895) 
openbind_a71ev2a_c2_elabs,syndirella_product,openbind_a71ev2a_c2_elabs_fragonly_scored_top80percent,openbind_a71ev2a_c2_elabs_scored,BulkDock Fragalysis export,openbind_a71ev2a_c2_elabs_scored_top80percent,openbind_a71ev2a_c2_elabs_activefrags_only_scored_5.2plus,syndirella_placed

>  <smina_score_min>  (1895) 
-7.186

$$$$
P585754
     RDKit          3D

 20 23  0  0  0  0  0  0  0  0999 V2000
   10.0040   15.4669   20.7524 C   0  0  0  0  0  0  0  0  0  0  0  0
   11.3806   15.5451   21.3281 C   0  0  2  0  0  0  0  0  0  0  0  0
   12.4293   14.6355   20.7598 C   0  0  0  0  0  0  0  0  0  0  0  0
   11.9979   14.4710   22.1672 C   0  0  2  0  0  0  0  0  0  0  0  0
   11.1101   13.5315   22.6527 N   0  0  0  0  0  0  0  0  0  0  0  0
   10.2248   13.5510   23.9020 C   0  0  0  0  0  0  0  0  0  0  0  0
   10.1557   14.3288   24.7673 O   0  0  0  0  0  0  0  0  0  0  0  0
    9.3596   12.3509   23.9817 C   0  0  0  0  0  0  0  0  0  0  0  0
    9.6906   11.1238   23.3980 C   0  0  0  0  0  0  0  0  0  0  0  0
    9.0078    9.9715   23.7397 C   0  0  0  0  0  0  0  0  0  0  0  0
    7.9808   10.0151   24.6854 C   0  0  0  0  0  0  0  0  0  0  0  0
    7.5669   11.2441   25.2236 C   0  0  0  0  0  0  0  0  0  0  0  0
    6.6185   11.6421   26.2071 C   0  0  0  0  0  0  0  0  0  0  0  0
    6.7004   13.0142   26.3237 C   0  0  0  0  0  0  0  0  0  0  0  0
    7.6546   13.4644   25.4637 N   0  0  0  0  0  0  0  0  0  0  0  0
    8.2438   12.3923   24.8260 C   0  0  0  0  0  0  0  0  0  0  0  0
    5.9023   13.8767   27.2347 C   0  0  0  0  0  0  0  0  0  0  0  0
    5.2981   13.0113   28.3550 C   0  0  0  0  0  0  0  0  0  0  0  0
    4.6837   11.7111   27.8042 C   0  0  0  0  0  0  0  0  0  0  0  0
    5.7242   10.8298   27.0840 C   0  0  0  0  0  0  0  0  0  0  0  0
  2  1  1  6
  2  3  1  0
  3  4  1  0
  4  5  1  6
  5  6  1  0
  6  7  2  0
  6  8  1  0
  8  9  2  0
  9 10  1  0
 10 11  2  0
 11 12  1  0
 12 13  1  0
 13 14  2  0
 14 15  1  0
 15 16  1  0
 14 17  1  0
 17 18  1  0
 18 19  1  0
 19 20  1  0
  4  2  1  0
 16  8  1  0
 16 12  2  0
 20 13  1  0
M  END
>  <alias>  (1896) 
None

>  <rmsd(smina/fragmenstein)>  (1896) 
0.263

>  <smiles>  (1896) 
C[C@@H]1C[C@@H]1NC(=O)c1cccc2c3c([nH]c12)CCCC3

>  <gnina_score>  (1896) 
5.382

>  <inspiration_score>  (1896) 
None

>  <energy_score>  (1896) 
-17.463676

>  <distance_score>  (1896) 
1.147531

>  <gnina_score_min>  (1896) 
5.417

>  <inchikey>  (1896) 
JNSYJPSRMHTJBU-BMIGLBTASA-N

>  <exports>  (1896) 
['/opt/xchem-fragalysis-2/maxwin/BulkDock/OUTPUTS/openbind_a71ev2a_c2_elabs_1LOUU54.sdf', '/opt/xchem-fragalysis-2/maxwin/BulkDock/OUTPUTS/openbind_a71ev2a_c2_elabs_1LSYIDY.sdf']

>  <name>  (1896) 
P585754

>  <ref_pdb>  (1896) 
A0566a

>  <subsites>  (1896) 
None

>  <HIPPO Pose ID>  (1896) 
585754

>  <ref_mols>  (1896) 
A0566a

>  <HIPPO Compound ID>  (1896) 
440945

>  <tags>  (1896) 
openbind_a71ev2a_c2_elabs,syndirella_product,openbind_a71ev2a_c2_elabs_fragonly_scored_top80percent,openbind_a71ev2a_c2_elabs_scored,BulkDock Fragalysis export,openbind_a71ev2a_c2_elabs_scored_top80percent,openbind_a71ev2a_c2_elabs_activefrags_only_scored_5.2plus,syndirella_placed

>  <smina_score_min>  (1896) 
-6.942

$$$$
P585757
     RDKit          3D

 20 22  0  0  0  0  0  0  0  0999 V2000
   12.5825   14.6926   21.3358 C   0  0  0  0  0  0  0  0  0  0  0  0
   11.1204   15.0670   21.3463 C   0  0  1  0  0  0  0  0  0  0  0  0
   10.5863   15.3119   20.0011 C   0  0  0  0  0  0  0  0  0  0  0  0
   10.1425   15.5230   18.9493 N   0  0  0  0  0  0  0  0  0  0  0  0
   10.3994   14.0282   22.0267 N   0  0  0  0  0  0  0  0  0  0  0  0
   10.0277   13.8790   23.5015 C   0  0  0  0  0  0  0  0  0  0  0  0
   10.1770   14.6092   24.3948 O   0  0  0  0  0  0  0  0  0  0  0  0
    9.3610   12.5875   23.7726 C   0  0  0  0  0  0  0  0  0  0  0  0
    9.8053   11.3788   23.2305 C   0  0  0  0  0  0  0  0  0  0  0  0
    9.2190   10.1750   23.5998 C   0  0  0  0  0  0  0  0  0  0  0  0
    8.1875   10.1569   24.5459 C   0  0  0  0  0  0  0  0  0  0  0  0
    7.7113   11.3592   25.1010 C   0  0  0  0  0  0  0  0  0  0  0  0
    6.7393   11.7007   26.0865 C   0  0  0  0  0  0  0  0  0  0  0  0
    6.7678   13.0732   26.2288 C   0  0  0  0  0  0  0  0  0  0  0  0
    7.6820   13.5818   25.3581 N   0  0  0  0  0  0  0  0  0  0  0  0
    8.3052   12.5508   24.6887 C   0  0  0  0  0  0  0  0  0  0  0  0
    5.9452   13.8869   27.1635 C   0  0  0  0  0  0  0  0  0  0  0  0
    5.3865   12.9765   28.2705 C   0  0  0  0  0  0  0  0  0  0  0  0
    4.8033   11.6760   27.6905 C   0  0  0  0  0  0  0  0  0  0  0  0
    5.8578   10.8420   26.9342 C   0  0  0  0  0  0  0  0  0  0  0  0
  2  1  1  6
  2  3  1  0
  3  4  3  0
  2  5  1  0
  5  6  1  0
  6  7  2  0
  6  8  1  0
  8  9  2  0
  9 10  1  0
 10 11  2  0
 11 12  1  0
 12 13  1  0
 13 14  2  0
 14 15  1  0
 15 16  1  0
 14 17  1  0
 17 18  1  0
 18 19  1  0
 19 20  1  0
 16  8  1  0
 16 12  2  0
 20 13  1  0
M  END
>  <alias>  (1897) 
None

>  <rmsd(smina/fragmenstein)>  (1897) 
0.298

>  <smiles>  (1897) 
C[C@@H](C#N)NC(=O)c1cccc2c3c([nH]c12)CCCC3

>  <gnina_score>  (1897) 
5.63

>  <inspiration_score>  (1897) 
None

>  <energy_score>  (1897) 
-13.837346

>  <distance_score>  (1897) 
1.12166

>  <gnina_score_min>  (1897) 
5.589

>  <inchikey>  (1897) 
BRNUEVCJWBULJX-JTQLQIEISA-N

>  <exports>  (1897) 
['/opt/xchem-fragalysis-2/maxwin/BulkDock/OUTPUTS/openbind_a71ev2a_c2_elabs_1LOUU54.sdf', '/opt/xchem-fragalysis-2/maxwin/BulkDock/OUTPUTS/openbind_a71ev2a_c2_elabs_1LSYIDY.sdf']

>  <name>  (1897) 
P585757

>  <ref_pdb>  (1897) 
A0566a

>  <subsites>  (1897) 
None

>  <HIPPO Pose ID>  (1897) 
585757

>  <ref_mols>  (1897) 
A0566a

>  <HIPPO Compound ID>  (1897) 
440946

>  <tags>  (1897) 
openbind_a71ev2a_c2_elabs,syndirella_product,openbind_a71ev2a_c2_elabs_fragonly_scored_top80percent,BulkDock Fragalysis export,openbind_a71ev2a_c2_elabs_scored,openbind_a71ev2a_c2_elabs_scored_top80percent,openbind_a71ev2a_c2_elabs_activefrags_only_scored_5.2plus,openbind_a71ev2a_c2_elabs_activefrags_only_scored_5.5plus,syndirella_placed

>  <smina_score_min>  (1897) 
-6.641

$$$$
P585759
     RDKit          3D

 20 23  0  0  0  0  0  0  0  0999 V2000
   10.5701   14.4943   24.3455 O   0  0  0  0  0  0  0  0  0  0  0  0
   10.4997   13.6945   23.5008 C   0  0  0  0  0  0  0  0  0  0  0  0
   11.0598   13.7036   22.0748 N   0  0  0  0  0  0  0  0  0  0  0  0
   11.7389   14.7258   21.3541 C   0  0  0  0  0  0  0  0  0  0  0  0
   10.6990   15.7138   20.9362 C   0  0  0  0  0  0  0  0  0  0  0  0
    9.2622   15.3414   20.6674 C   0  0  0  0  0  0  0  0  0  0  0  0
   10.1612   15.7320   19.5294 C   0  0  0  0  0  0  0  0  0  0  0  0
    9.6624   12.4913   23.7575 C   0  0  0  0  0  0  0  0  0  0  0  0
    9.9230   11.2336   23.2103 C   0  0  0  0  0  0  0  0  0  0  0  0
    9.2060   10.1082   23.5930 C   0  0  0  0  0  0  0  0  0  0  0  0
    8.1903   10.2152   24.5436 C   0  0  0  0  0  0  0  0  0  0  0  0
    7.8415   11.4782   25.0519 C   0  0  0  0  0  0  0  0  0  0  0  0
    6.8943   11.9448   26.0038 C   0  0  0  0  0  0  0  0  0  0  0  0
    7.0101   13.3178   26.0639 C   0  0  0  0  0  0  0  0  0  0  0  0
    8.0115   13.7017   25.2241 N   0  0  0  0  0  0  0  0  0  0  0  0
    8.5688   12.5898   24.6271 C   0  0  0  0  0  0  0  0  0  0  0  0
    6.2259   14.2408   26.9280 C   0  0  0  0  0  0  0  0  0  0  0  0
    5.0243   13.4928   27.5339 C   0  0  0  0  0  0  0  0  0  0  0  0
    5.3983   12.0738   28.0027 C   0  0  0  0  0  0  0  0  0  0  0  0
    5.9105   11.2036   26.8398 C   0  0  0  0  0  0  0  0  0  0  0  0
  1  2  2  0
  2  3  1  0
  3  4  1  0
  4  5  1  0
  5  6  1  0
  6  7  1  0
  2  8  1  0
  8  9  2  0
  9 10  1  0
 10 11  2  0
 11 12  1  0
 12 13  1  0
 13 14  2  0
 14 15  1  0
 15 16  1  0
 14 17  1  0
 17 18  1  0
 18 19  1  0
 19 20  1  0
  7  5  1  0
 16  8  1  0
 16 12  2  0
 20 13  1  0
M  END
>  <alias>  (1898) 
None

>  <rmsd(smina/fragmenstein)>  (1898) 
0.511

>  <smiles>  (1898) 
O=C(NCC1CC1)c1cccc2c3c([nH]c12)CCCC3

>  <gnina_score>  (1898) 
5.589

>  <inspiration_score>  (1898) 
None

>  <energy_score>  (1898) 
-8.384707

>  <distance_score>  (1898) 
0.93704

>  <gnina_score_min>  (1898) 
5.586

>  <inchikey>  (1898) 
ZNVQKLINGHTQJN-UHFFFAOYSA-N

>  <exports>  (1898) 
['/opt/xchem-fragalysis-2/maxwin/BulkDock/OUTPUTS/openbind_a71ev2a_c2_elabs_1LOUU54.sdf', '/opt/xchem-fragalysis-2/maxwin/BulkDock/OUTPUTS/openbind_a71ev2a_c2_elabs_1LSYIDY.sdf']

>  <name>  (1898) 
P585759

>  <ref_pdb>  (1898) 
A0566a

>  <subsites>  (1898) 
None

>  <HIPPO Pose ID>  (1898) 
585759

>  <ref_mols>  (1898) 
A0566a

>  <HIPPO Compound ID>  (1898) 
440948

>  <tags>  (1898) 
openbind_a71ev2a_c2_elabs,syndirella_product,openbind_a71ev2a_c2_elabs_fragonly_scored_top80percent,BulkDock Fragalysis export,openbind_a71ev2a_c2_elabs_scored,openbind_a71ev2a_c2_elabs_scored_top80percent,openbind_a71ev2a_c2_elabs_activefrags_only_scored_5.2plus,openbind_a71ev2a_c2_elabs_activefrags_only_scored_5.5plus,syndirella_placed

>  <smina_score_min>  (1898) 
-7.05

$$$$
P585760
     RDKit          3D

 20 22  0  0  0  0  0  0  0  0999 V2000
   11.1166   14.9952   18.7400 C   0  0  0  0  0  0  0  0  0  0  0  0
   12.2222   14.2635   19.9571 S   0  0  0  0  0  0  0  0  0  0  0  0
   12.1203   15.4910   21.2514 C   0  0  0  0  0  0  0  0  0  0  0  0
   12.1790   14.9835   22.6403 C   0  0  0  0  0  0  0  0  0  0  0  0
   11.1707   14.0572   22.9564 N   0  0  0  0  0  0  0  0  0  0  0  0
   11.2081   12.8338   23.8151 C   0  0  0  0  0  0  0  0  0  0  0  0
   12.0511   12.4095   24.4768 O   0  0  0  0  0  0  0  0  0  0  0  0
    9.8979   12.1749   23.8144 C   0  0  0  0  0  0  0  0  0  0  0  0
    9.8086   10.8868   23.3124 C   0  0  0  0  0  0  0  0  0  0  0  0
    8.8005   10.0565   23.7474 C   0  0  0  0  0  0  0  0  0  0  0  0
    7.8352   10.5045   24.6520 C   0  0  0  0  0  0  0  0  0  0  0  0
    7.8028   11.8612   25.0068 C   0  0  0  0  0  0  0  0  0  0  0  0
    6.9477   12.6585   25.8093 C   0  0  0  0  0  0  0  0  0  0  0  0
    7.4631   13.9381   25.8149 C   0  0  0  0  0  0  0  0  0  0  0  0
    8.6183   13.9399   25.0902 N   0  0  0  0  0  0  0  0  0  0  0  0
    8.8390   12.6875   24.5685 C   0  0  0  0  0  0  0  0  0  0  0  0
    6.9002   15.1159   26.5311 C   0  0  0  0  0  0  0  0  0  0  0  0
    5.4704   14.8044   27.0097 C   0  0  0  0  0  0  0  0  0  0  0  0
    5.3443   13.3802   27.5838 C   0  0  0  0  0  0  0  0  0  0  0  0
    5.6957   12.3074   26.5356 C   0  0  0  0  0  0  0  0  0  0  0  0
  1  2  1  0
  2  3  1  0
  3  4  1  0
  4  5  1  0
  5  6  1  0
  6  7  2  0
  6  8  1  0
  8  9  2  0
  9 10  1  0
 10 11  2  0
 11 12  1  0
 12 13  1  0
 13 14  2  0
 14 15  1  0
 15 16  1  0
 14 17  1  0
 17 18  1  0
 18 19  1  0
 19 20  1  0
 16  8  1  0
 16 12  2  0
 20 13  1  0
M  END
>  <alias>  (1899) 
None

>  <rmsd(smina/fragmenstein)>  (1899) 
1.079

>  <smiles>  (1899) 
CSCCNC(=O)c1cccc2c3c([nH]c12)CCCC3

>  <gnina_score>  (1899) 
5.34

>  <inspiration_score>  (1899) 
None

>  <energy_score>  (1899) 
-17.081453

>  <distance_score>  (1899) 
0.942681

>  <gnina_score_min>  (1899) 
5.592

>  <inchikey>  (1899) 
QRYIPMNNTBVKMX-UHFFFAOYSA-N

>  <exports>  (1899) 
['/opt/xchem-fragalysis-2/maxwin/BulkDock/OUTPUTS/openbind_a71ev2a_c2_elabs_1LOUU54.sdf', '/opt/xchem-fragalysis-2/maxwin/BulkDock/OUTPUTS/openbind_a71ev2a_c2_elabs_1LSYIDY.sdf']

>  <name>  (1899) 
P585760

>  <ref_pdb>  (1899) 
A0566a

>  <subsites>  (1899) 
None

>  <HIPPO Pose ID>  (1899) 
585760

>  <ref_mols>  (1899) 
A0566a

>  <HIPPO Compound ID>  (1899) 
440949

>  <tags>  (1899) 
openbind_a71ev2a_c2_elabs,syndirella_product,openbind_a71ev2a_c2_elabs_fragonly_scored_top80percent,BulkDock Fragalysis export,openbind_a71ev2a_c2_elabs_scored,openbind_a71ev2a_c2_elabs_scored_top80percent,openbind_a71ev2a_c2_elabs_activefrags_only_scored_5.2plus,openbind_a71ev2a_c2_elabs_activefrags_only_scored_5.5plus,syndirella_placed

>  <smina_score_min>  (1899) 
-6.099

$$$$
P585762
     RDKit          3D

 20 22  0  0  0  0  0  0  0  0999 V2000
   12.6254   15.2689   22.0400 C   0  0  0  0  0  0  0  0  0  0  0  0
   11.5203   14.6129   21.2438 C   0  0  2  0  0  0  0  0  0  0  0  0
   10.4847   15.6206   20.7094 C   0  0  0  0  0  0  0  0  0  0  0  0
    8.7936   15.0743   20.8744 Cl  0  0  0  0  0  0  0  0  0  0  0  0
   10.8869   13.6018   22.0379 N   0  0  0  0  0  0  0  0  0  0  0  0
   10.3059   13.6663   23.4548 C   0  0  0  0  0  0  0  0  0  0  0  0
   10.3161   14.5297   24.2369 O   0  0  0  0  0  0  0  0  0  0  0  0
    9.5413   12.4348   23.7811 C   0  0  0  0  0  0  0  0  0  0  0  0
    9.8476   11.1712   23.2697 C   0  0  0  0  0  0  0  0  0  0  0  0
    9.1562   10.0394   23.6726 C   0  0  0  0  0  0  0  0  0  0  0  0
    8.1347   10.1412   24.6180 C   0  0  0  0  0  0  0  0  0  0  0  0
    7.7629   11.4023   25.1137 C   0  0  0  0  0  0  0  0  0  0  0  0
    6.8167   11.8621   26.0697 C   0  0  0  0  0  0  0  0  0  0  0  0
    6.8944   13.2389   26.0985 C   0  0  0  0  0  0  0  0  0  0  0  0
    7.8717   13.6324   25.2357 N   0  0  0  0  0  0  0  0  0  0  0  0
    8.4558   12.5228   24.6603 C   0  0  0  0  0  0  0  0  0  0  0  0
    6.0908   14.1583   26.9480 C   0  0  0  0  0  0  0  0  0  0  0  0
    4.9093   13.3913   27.5693 C   0  0  0  0  0  0  0  0  0  0  0  0
    5.3236   11.9959   28.0727 C   0  0  0  0  0  0  0  0  0  0  0  0
    5.8656   11.1108   26.9346 C   0  0  0  0  0  0  0  0  0  0  0  0
  2  1  1  1
  2  3  1  0
  3  4  1  0
  2  5  1  0
  5  6  1  0
  6  7  2  0
  6  8  1  0
  8  9  2  0
  9 10  1  0
 10 11  2  0
 11 12  1  0
 12 13  1  0
 13 14  2  0
 14 15  1  0
 15 16  1  0
 14 17  1  0
 17 18  1  0
 18 19  1  0
 19 20  1  0
 16  8  1  0
 16 12  2  0
 20 13  1  0
M  END
>  <alias>  (1900) 
None

>  <rmsd(smina/fragmenstein)>  (1900) 
0.498

>  <smiles>  (1900) 
C[C@H](CCl)NC(=O)c1cccc2c3c([nH]c12)CCCC3

>  <gnina_score>  (1900) 
5.735

>  <inspiration_score>  (1900) 
None

>  <energy_score>  (1900) 
-9.785192

>  <distance_score>  (1900) 
1.067892

>  <gnina_score_min>  (1900) 
5.715

>  <inchikey>  (1900) 
BXAUNZYKKBDSPX-SNVBAGLBSA-N

>  <exports>  (1900) 
['/opt/xchem-fragalysis-2/maxwin/BulkDock/OUTPUTS/openbind_a71ev2a_c2_elabs_1LOUU54.sdf', '/opt/xchem-fragalysis-2/maxwin/BulkDock/OUTPUTS/openbind_a71ev2a_c2_elabs_1LSYIDY.sdf']

>  <name>  (1900) 
P585762

>  <ref_pdb>  (1900) 
A0566a

>  <subsites>  (1900) 
None

>  <HIPPO Pose ID>  (1900) 
585762

>  <ref_mols>  (1900) 
A0566a

>  <HIPPO Compound ID>  (1900) 
440951

>  <tags>  (1900) 
openbind_a71ev2a_c2_elabs,syndirella_product,openbind_a71ev2a_c2_elabs_fragonly_scored_top80percent,BulkDock Fragalysis export,openbind_a71ev2a_c2_elabs_scored,openbind_a71ev2a_c2_elabs_scored_top80percent,openbind_a71ev2a_c2_elabs_activefrags_only_scored_5.2plus,openbind_a71ev2a_c2_elabs_activefrags_only_scored_5.5plus,syndirella_placed

>  <smina_score_min>  (1900) 
-6.69

$$$$
P585763
     RDKit          3D

 20 22  0  0  0  0  0  0  0  0999 V2000
    9.0550   14.6799   23.5932 O   0  0  0  0  0  0  0  0  0  0  0  0
    9.7281   13.7367   23.5031 C   0  0  0  0  0  0  0  0  0  0  0  0
   11.2122   13.6074   23.1632 N   0  0  0  0  0  0  0  0  0  0  0  0
   12.1993   14.6022   22.9556 C   0  0  0  0  0  0  0  0  0  0  0  0
   11.9770   15.3068   21.6401 C   0  0  0  0  0  0  0  0  0  0  0  0
   12.3565   14.4294   20.4662 C   0  0  0  0  0  0  0  0  0  0  0  0
   11.3654   14.7549   19.0289 Cl  0  0  0  0  0  0  0  0  0  0  0  0
    9.1311   12.4212   23.8140 C   0  0  0  0  0  0  0  0  0  0  0  0
    9.5743   11.2115   23.2708 C   0  0  0  0  0  0  0  0  0  0  0  0
    9.0457   10.0093   23.7078 C   0  0  0  0  0  0  0  0  0  0  0  0
    8.0527    9.9934   24.6942 C   0  0  0  0  0  0  0  0  0  0  0  0
    7.5562   11.1951   25.2280 C   0  0  0  0  0  0  0  0  0  0  0  0
    6.5997   11.5437   26.2253 C   0  0  0  0  0  0  0  0  0  0  0  0
    6.5789   12.9216   26.3063 C   0  0  0  0  0  0  0  0  0  0  0  0
    7.4351   13.4218   25.3756 N   0  0  0  0  0  0  0  0  0  0  0  0
    8.0951   12.3843   24.7523 C   0  0  0  0  0  0  0  0  0  0  0  0
    5.7398   13.7452   27.2162 C   0  0  0  0  0  0  0  0  0  0  0  0
    5.2452   12.8671   28.3787 C   0  0  0  0  0  0  0  0  0  0  0  0
    4.7010   11.5179   27.8767 C   0  0  0  0  0  0  0  0  0  0  0  0
    5.7647   10.6904   27.1248 C   0  0  0  0  0  0  0  0  0  0  0  0
  1  2  2  0
  2  3  1  0
  3  4  1  0
  4  5  1  0
  5  6  1  0
  6  7  1  0
  2  8  1  0
  8  9  2  0
  9 10  1  0
 10 11  2  0
 11 12  1  0
 12 13  1  0
 13 14  2  0
 14 15  1  0
 15 16  1  0
 14 17  1  0
 17 18  1  0
 18 19  1  0
 19 20  1  0
 16  8  1  0
 16 12  2  0
 20 13  1  0
M  END
>  <alias>  (1901) 
None

>  <rmsd(smina/fragmenstein)>  (1901) 
0.352

>  <smiles>  (1901) 
O=C(NCCCCl)c1cccc2c3c([nH]c12)CCCC3

>  <gnina_score>  (1901) 
5.314

>  <inspiration_score>  (1901) 
None

>  <energy_score>  (1901) 
-20.360916

>  <distance_score>  (1901) 
1.407827

>  <gnina_score_min>  (1901) 
5.45

>  <inchikey>  (1901) 
QIYSTGIFFODDMP-UHFFFAOYSA-N

>  <exports>  (1901) 
['/opt/xchem-fragalysis-2/maxwin/BulkDock/OUTPUTS/openbind_a71ev2a_c2_elabs_1LOUU54.sdf', '/opt/xchem-fragalysis-2/maxwin/BulkDock/OUTPUTS/openbind_a71ev2a_c2_elabs_1LSYIDY.sdf']

>  <name>  (1901) 
P585763

>  <ref_pdb>  (1901) 
A0566a

>  <subsites>  (1901) 
None

>  <HIPPO Pose ID>  (1901) 
585763

>  <ref_mols>  (1901) 
A0566a

>  <HIPPO Compound ID>  (1901) 
440952

>  <tags>  (1901) 
openbind_a71ev2a_c2_elabs,syndirella_product,openbind_a71ev2a_c2_elabs_fragonly_scored_top80percent,openbind_a71ev2a_c2_elabs_scored,BulkDock Fragalysis export,openbind_a71ev2a_c2_elabs_scored_top80percent,openbind_a71ev2a_c2_elabs_activefrags_only_scored_5.2plus,syndirella_placed

>  <smina_score_min>  (1901) 
-5.885

$$$$
P585764
     RDKit          3D

 20 22  0  0  0  0  0  0  0  0999 V2000
   12.5580   14.7265   21.4599 C   0  0  0  0  0  0  0  0  0  0  0  0
   11.4756   15.6347   21.3914 O   0  0  0  0  0  0  0  0  0  0  0  0
   10.5263   15.2525   20.4015 C   0  0  0  0  0  0  0  0  0  0  0  0
    9.1376   15.2816   21.0130 C   0  0  0  0  0  0  0  0  0  0  0  0
    8.9405   14.2260   21.9722 N   0  0  0  0  0  0  0  0  0  0  0  0
    9.6479   13.9440   23.3030 C   0  0  0  0  0  0  0  0  0  0  0  0
   10.4502   14.5605   23.8763 O   0  0  0  0  0  0  0  0  0  0  0  0
    9.1959   12.6489   23.7996 C   0  0  0  0  0  0  0  0  0  0  0  0
    9.7213   11.4711   23.2682 C   0  0  0  0  0  0  0  0  0  0  0  0
    9.2112   10.2448   23.6678 C   0  0  0  0  0  0  0  0  0  0  0  0
    8.1903   10.1907   24.6282 C   0  0  0  0  0  0  0  0  0  0  0  0
    7.6643   11.3760   25.1835 C   0  0  0  0  0  0  0  0  0  0  0  0
    6.6864   11.6876   26.1691 C   0  0  0  0  0  0  0  0  0  0  0  0
    6.5894   13.0634   26.2344 C   0  0  0  0  0  0  0  0  0  0  0  0
    7.4765   13.6050   25.3540 N   0  0  0  0  0  0  0  0  0  0  0  0
    8.1710   12.5931   24.7344 C   0  0  0  0  0  0  0  0  0  0  0  0
    5.6898   13.8514   27.1199 C   0  0  0  0  0  0  0  0  0  0  0  0
    4.6062   12.9322   27.7089 C   0  0  0  0  0  0  0  0  0  0  0  0
    5.1827   11.5834   28.1740 C   0  0  0  0  0  0  0  0  0  0  0  0
    5.8465   10.8018   27.0246 C   0  0  0  0  0  0  0  0  0  0  0  0
  1  2  1  0
  2  3  1  0
  3  4  1  0
  4  5  1  0
  5  6  1  0
  6  7  2  0
  6  8  1  0
  8  9  2  0
  9 10  1  0
 10 11  2  0
 11 12  1  0
 12 13  1  0
 13 14  2  0
 14 15  1  0
 15 16  1  0
 14 17  1  0
 17 18  1  0
 18 19  1  0
 19 20  1  0
 16  8  1  0
 16 12  2  0
 20 13  1  0
M  END
>  <alias>  (1902) 
None

>  <rmsd(smina/fragmenstein)>  (1902) 
0.352

>  <smiles>  (1902) 
COCCNC(=O)c1cccc2c3c([nH]c12)CCCC3

>  <gnina_score>  (1902) 
5.226

>  <inspiration_score>  (1902) 
None

>  <energy_score>  (1902) 
-10.35564

>  <distance_score>  (1902) 
1.561233

>  <gnina_score_min>  (1902) 
5.247

>  <inchikey>  (1902) 
OXAFWANXESUPTL-UHFFFAOYSA-N

>  <exports>  (1902) 
['/opt/xchem-fragalysis-2/maxwin/BulkDock/OUTPUTS/openbind_a71ev2a_c2_elabs_1LOUU54.sdf', '/opt/xchem-fragalysis-2/maxwin/BulkDock/OUTPUTS/openbind_a71ev2a_c2_elabs_1LSYIDY.sdf']

>  <name>  (1902) 
P585764

>  <ref_pdb>  (1902) 
A0566a

>  <subsites>  (1902) 
None

>  <HIPPO Pose ID>  (1902) 
585764

>  <ref_mols>  (1902) 
A0566a

>  <HIPPO Compound ID>  (1902) 
440953

>  <tags>  (1902) 
openbind_a71ev2a_c2_elabs,syndirella_product,openbind_a71ev2a_c2_elabs_fragonly_scored_top80percent,openbind_a71ev2a_c2_elabs_scored,BulkDock Fragalysis export,openbind_a71ev2a_c2_elabs_scored_top80percent,openbind_a71ev2a_c2_elabs_activefrags_only_scored_5.2plus,syndirella_placed

>  <smina_score_min>  (1902) 
-5.946

$$$$
P585765
     RDKit          3D

 20 22  0  0  0  0  0  0  0  0999 V2000
   11.6082   14.8481   19.2192 C   0  0  0  0  0  0  0  0  0  0  0  0
   11.4100   14.7066   20.7198 C   0  0  0  0  0  0  0  0  0  0  0  0
   12.4642   15.3369   21.6223 C   0  0  0  0  0  0  0  0  0  0  0  0
    9.9940   15.1373   21.0963 C   0  0  0  0  0  0  0  0  0  0  0  0
    9.5001   14.1660   22.0197 N   0  0  0  0  0  0  0  0  0  0  0  0
    9.8294   13.9401   23.4929 C   0  0  0  0  0  0  0  0  0  0  0  0
   10.4979   14.5533   24.2183 O   0  0  0  0  0  0  0  0  0  0  0  0
    9.2188   12.6755   23.9020 C   0  0  0  0  0  0  0  0  0  0  0  0
    9.6892   11.4826   23.3380 C   0  0  0  0  0  0  0  0  0  0  0  0
    9.1343   10.2676   23.7073 C   0  0  0  0  0  0  0  0  0  0  0  0
    8.1162   10.2339   24.6677 C   0  0  0  0  0  0  0  0  0  0  0  0
    7.6293   11.4291   25.2376 C   0  0  0  0  0  0  0  0  0  0  0  0
    6.6651   11.7504   26.2314 C   0  0  0  0  0  0  0  0  0  0  0  0
    6.6099   13.1264   26.3249 C   0  0  0  0  0  0  0  0  0  0  0  0
    7.5239   13.6585   25.4657 N   0  0  0  0  0  0  0  0  0  0  0  0
    8.1826   12.6393   24.8211 C   0  0  0  0  0  0  0  0  0  0  0  0
    5.7312   13.9200   27.2265 C   0  0  0  0  0  0  0  0  0  0  0  0
    4.6225   13.0170   27.7950 C   0  0  0  0  0  0  0  0  0  0  0  0
    5.1650   11.6462   28.2374 C   0  0  0  0  0  0  0  0  0  0  0  0
    5.8072   10.8690   27.0732 C   0  0  0  0  0  0  0  0  0  0  0  0
  1  2  1  0
  2  3  1  0
  2  4  1  0
  4  5  1  0
  5  6  1  0
  6  7  2  0
  6  8  1  0
  8  9  2  0
  9 10  1  0
 10 11  2  0
 11 12  1  0
 12 13  1  0
 13 14  2  0
 14 15  1  0
 15 16  1  0
 14 17  1  0
 17 18  1  0
 18 19  1  0
 19 20  1  0
 16  8  1  0
 16 12  2  0
 20 13  1  0
M  END
>  <alias>  (1903) 
None

>  <rmsd(smina/fragmenstein)>  (1903) 
0.289

>  <smiles>  (1903) 
CC(C)CNC(=O)c1cccc2c3c([nH]c12)CCCC3

>  <gnina_score>  (1903) 
5.249

>  <inspiration_score>  (1903) 
None

>  <energy_score>  (1903) 
-7.598326

>  <distance_score>  (1903) 
1.377859

>  <gnina_score_min>  (1903) 
5.305

>  <inchikey>  (1903) 
JNPCQAJLJJSNGE-UHFFFAOYSA-N

>  <exports>  (1903) 
['/opt/xchem-fragalysis-2/maxwin/BulkDock/OUTPUTS/openbind_a71ev2a_c2_elabs_1LOUU54.sdf', '/opt/xchem-fragalysis-2/maxwin/BulkDock/OUTPUTS/openbind_a71ev2a_c2_elabs_1LSYIDY.sdf']

>  <name>  (1903) 
P585765

>  <ref_pdb>  (1903) 
A0566a

>  <subsites>  (1903) 
None

>  <HIPPO Pose ID>  (1903) 
585765

>  <ref_mols>  (1903) 
A0566a

>  <HIPPO Compound ID>  (1903) 
440954

>  <tags>  (1903) 
openbind_a71ev2a_c2_elabs,syndirella_product,openbind_a71ev2a_c2_elabs_fragonly_scored_top80percent,openbind_a71ev2a_c2_elabs_scored,BulkDock Fragalysis export,openbind_a71ev2a_c2_elabs_scored_top80percent,openbind_a71ev2a_c2_elabs_activefrags_only_scored_5.2plus,syndirella_placed

>  <smina_score_min>  (1903) 
-6.421

$$$$
P585766
     RDKit          3D

 20 22  0  0  0  0  0  0  0  0999 V2000
    8.7548   14.8292   23.8064 O   0  0  0  0  0  0  0  0  0  0  0  0
    9.0782   13.9471   23.1168 C   0  0  0  0  0  0  0  0  0  0  0  0
    9.8677   13.9510   21.8008 N   0  0  0  0  0  0  0  0  0  0  0  0
   10.5045   15.0198   21.1065 C   0  0  0  0  0  0  0  0  0  0  0  0
   11.6479   15.4556   22.0022 C   0  0  0  0  0  0  0  0  0  0  0  0
   12.6995   14.3958   22.1961 C   0  0  0  0  0  0  0  0  0  0  0  0
   12.4957   13.3971   24.0900 I   0  0  0  0  0  0  0  0  0  0  0  0
    8.7757   12.5702   23.6151 C   0  0  0  0  0  0  0  0  0  0  0  0
    9.4421   11.3944   23.2303 C   0  0  0  0  0  0  0  0  0  0  0  0
    9.0787   10.1577   23.7475 C   0  0  0  0  0  0  0  0  0  0  0  0
    8.0820   10.0718   24.7221 C   0  0  0  0  0  0  0  0  0  0  0  0
    7.4714   11.2358   25.2168 C   0  0  0  0  0  0  0  0  0  0  0  0
    6.5106   11.5214   26.2309 C   0  0  0  0  0  0  0  0  0  0  0  0
    6.3070   12.8852   26.2299 C   0  0  0  0  0  0  0  0  0  0  0  0
    7.0834   13.4334   25.2594 N   0  0  0  0  0  0  0  0  0  0  0  0
    7.8260   12.4496   24.6393 C   0  0  0  0  0  0  0  0  0  0  0  0
    5.4035   13.6574   27.1232 C   0  0  0  0  0  0  0  0  0  0  0  0
    4.4244   12.7015   27.8247 C   0  0  0  0  0  0  0  0  0  0  0  0
    5.1174   11.4196   28.3169 C   0  0  0  0  0  0  0  0  0  0  0  0
    5.7792   10.6262   27.1735 C   0  0  0  0  0  0  0  0  0  0  0  0
  1  2  2  0
  2  3  1  0
  3  4  1  0
  4  5  1  0
  5  6  1  0
  6  7  1  0
  2  8  1  0
  8  9  2  0
  9 10  1  0
 10 11  2  0
 11 12  1  0
 12 13  1  0
 13 14  2  0
 14 15  1  0
 15 16  1  0
 14 17  1  0
 17 18  1  0
 18 19  1  0
 19 20  1  0
 16  8  1  0
 16 12  2  0
 20 13  1  0
M  END
>  <alias>  (1904) 
None

>  <rmsd(smina/fragmenstein)>  (1904) 
0.689

>  <smiles>  (1904) 
O=C(NCCCI)c1cccc2c3c([nH]c12)CCCC3

>  <gnina_score>  (1904) 
5.563

>  <inspiration_score>  (1904) 
None

>  <energy_score>  (1904) 
-3.748423

>  <distance_score>  (1904) 
1.714219

>  <gnina_score_min>  (1904) 
5.491

>  <inchikey>  (1904) 
BRQQSLHZUFEHCI-UHFFFAOYSA-N

>  <exports>  (1904) 
['/opt/xchem-fragalysis-2/maxwin/BulkDock/OUTPUTS/openbind_a71ev2a_c2_elabs_1LOUU54.sdf', '/opt/xchem-fragalysis-2/maxwin/BulkDock/OUTPUTS/openbind_a71ev2a_c2_elabs_1LSYIDY.sdf']

>  <name>  (1904) 
P585766

>  <ref_pdb>  (1904) 
A0566a

>  <subsites>  (1904) 
None

>  <HIPPO Pose ID>  (1904) 
585766

>  <ref_mols>  (1904) 
A0566a

>  <HIPPO Compound ID>  (1904) 
440955

>  <tags>  (1904) 
openbind_a71ev2a_c2_elabs,syndirella_product,openbind_a71ev2a_c2_elabs_fragonly_scored_top80percent,openbind_a71ev2a_c2_elabs_scored,BulkDock Fragalysis export,openbind_a71ev2a_c2_elabs_scored_top80percent,openbind_a71ev2a_c2_elabs_activefrags_only_scored_5.2plus,syndirella_placed

>  <smina_score_min>  (1904) 
-5.687

$$$$
P585767
     RDKit          3D

 20 22  0  0  0  0  0  0  0  0999 V2000
   11.5529   14.7445   19.1902 C   0  0  0  0  0  0  0  0  0  0  0  0
   11.2490   14.9819   20.4707 C   0  0  0  0  0  0  0  0  0  0  0  0
   12.5385   14.9597   21.8262 Br  0  0  0  0  0  0  0  0  0  0  0  0
    9.8598   15.2353   20.9506 C   0  0  0  0  0  0  0  0  0  0  0  0
    9.5494   14.1293   21.8050 N   0  0  0  0  0  0  0  0  0  0  0  0
    9.3365   14.0711   23.3193 C   0  0  0  0  0  0  0  0  0  0  0  0
    9.3026   14.9241   24.1101 O   0  0  0  0  0  0  0  0  0  0  0  0
    9.0393   12.6916   23.7663 C   0  0  0  0  0  0  0  0  0  0  0  0
    9.6604   11.5445   23.2623 C   0  0  0  0  0  0  0  0  0  0  0  0
    9.2273   10.2822   23.6557 C   0  0  0  0  0  0  0  0  0  0  0  0
    8.2003   10.1490   24.6028 C   0  0  0  0  0  0  0  0  0  0  0  0
    7.6116   11.2895   25.1821 C   0  0  0  0  0  0  0  0  0  0  0  0
    6.6230   11.5345   26.1844 C   0  0  0  0  0  0  0  0  0  0  0  0
    6.5273   12.9038   26.3348 C   0  0  0  0  0  0  0  0  0  0  0  0
    7.3399   13.4983   25.4223 N   0  0  0  0  0  0  0  0  0  0  0  0
    8.0517   12.5338   24.7426 C   0  0  0  0  0  0  0  0  0  0  0  0
    5.6699   13.6380   27.3023 C   0  0  0  0  0  0  0  0  0  0  0  0
    5.2503   12.6797   28.4290 C   0  0  0  0  0  0  0  0  0  0  0  0
    4.7518   11.3392   27.8639 C   0  0  0  0  0  0  0  0  0  0  0  0
    5.8298   10.6002   27.0417 C   0  0  0  0  0  0  0  0  0  0  0  0
  1  2  2  0
  2  3  1  0
  2  4  1  0
  4  5  1  0
  5  6  1  0
  6  7  2  0
  6  8  1  0
  8  9  2  0
  9 10  1  0
 10 11  2  0
 11 12  1  0
 12 13  1  0
 13 14  2  0
 14 15  1  0
 15 16  1  0
 14 17  1  0
 17 18  1  0
 18 19  1  0
 19 20  1  0
 16  8  1  0
 16 12  2  0
 20 13  1  0
M  END
>  <alias>  (1905) 
None

>  <rmsd(smina/fragmenstein)>  (1905) 
0.225

>  <smiles>  (1905) 
C=C(Br)CNC(=O)c1cccc2c3c([nH]c12)CCCC3

>  <gnina_score>  (1905) 
5.35

>  <inspiration_score>  (1905) 
None

>  <energy_score>  (1905) 
-20.002096

>  <distance_score>  (1905) 
1.620345

>  <gnina_score_min>  (1905) 
5.434

>  <inchikey>  (1905) 
KFTSQXWMCQWYGI-UHFFFAOYSA-N

>  <exports>  (1905) 
['/opt/xchem-fragalysis-2/maxwin/BulkDock/OUTPUTS/openbind_a71ev2a_c2_elabs_1LOUU54.sdf', '/opt/xchem-fragalysis-2/maxwin/BulkDock/OUTPUTS/openbind_a71ev2a_c2_elabs_1LSYIDY.sdf']

>  <name>  (1905) 
P585767

>  <ref_pdb>  (1905) 
A0566a

>  <subsites>  (1905) 
None

>  <HIPPO Pose ID>  (1905) 
585767

>  <ref_mols>  (1905) 
A0566a

>  <HIPPO Compound ID>  (1905) 
440956

>  <tags>  (1905) 
openbind_a71ev2a_c2_elabs,syndirella_product,openbind_a71ev2a_c2_elabs_fragonly_scored_top80percent,openbind_a71ev2a_c2_elabs_scored,BulkDock Fragalysis export,openbind_a71ev2a_c2_elabs_scored_top80percent,openbind_a71ev2a_c2_elabs_activefrags_only_scored_5.2plus,syndirella_placed

>  <smina_score_min>  (1905) 
-6.53

$$$$
P585768
     RDKit          3D

 20 22  0  0  0  0  0  0  0  0999 V2000
   10.6154   14.5140   23.7638 O   0  0  0  0  0  0  0  0  0  0  0  0
    9.6980   13.9604   23.3132 C   0  0  0  0  0  0  0  0  0  0  0  0
    8.8247   14.3062   22.1010 N   0  0  0  0  0  0  0  0  0  0  0  0
    8.9510   15.3530   21.1309 C   0  0  0  0  0  0  0  0  0  0  0  0
   10.3724   15.7322   20.7838 C   0  0  0  0  0  0  0  0  0  0  0  0
   11.2281   14.5606   20.3626 C   0  0  0  0  0  0  0  0  0  0  0  0
   12.4902   14.9871   20.1287 F   0  0  0  0  0  0  0  0  0  0  0  0
    9.2493   12.6663   23.8273 C   0  0  0  0  0  0  0  0  0  0  0  0
    9.7579   11.4871   23.2826 C   0  0  0  0  0  0  0  0  0  0  0  0
    9.2259   10.2627   23.6619 C   0  0  0  0  0  0  0  0  0  0  0  0
    8.1931   10.2096   24.6097 C   0  0  0  0  0  0  0  0  0  0  0  0
    7.6739   11.3946   25.1718 C   0  0  0  0  0  0  0  0  0  0  0  0
    6.6859   11.7040   26.1511 C   0  0  0  0  0  0  0  0  0  0  0  0
    6.6527   13.0789   26.2763 C   0  0  0  0  0  0  0  0  0  0  0  0
    7.5298   13.6218   25.3868 N   0  0  0  0  0  0  0  0  0  0  0  0
    8.2103   12.6109   24.7499 C   0  0  0  0  0  0  0  0  0  0  0  0
    5.7928   13.8641   27.2026 C   0  0  0  0  0  0  0  0  0  0  0  0
    5.2851   12.9423   28.3243 C   0  0  0  0  0  0  0  0  0  0  0  0
    4.7546   11.6119   27.7626 C   0  0  0  0  0  0  0  0  0  0  0  0
    5.8350   10.8158   27.0010 C   0  0  0  0  0  0  0  0  0  0  0  0
  1  2  2  0
  2  3  1  0
  3  4  1  0
  4  5  1  0
  5  6  1  0
  6  7  1  0
  2  8  1  0
  8  9  2  0
  9 10  1  0
 10 11  2  0
 11 12  1  0
 12 13  1  0
 13 14  2  0
 14 15  1  0
 15 16  1  0
 14 17  1  0
 17 18  1  0
 18 19  1  0
 19 20  1  0
 16  8  1  0
 16 12  2  0
 20 13  1  0
M  END
>  <alias>  (1906) 
None

>  <rmsd(smina/fragmenstein)>  (1906) 
0.481

>  <smiles>  (1906) 
O=C(NCCCF)c1cccc2c3c([nH]c12)CCCC3

>  <gnina_score>  (1906) 
5.207

>  <inspiration_score>  (1906) 
None

>  <energy_score>  (1906) 
-8.179597

>  <distance_score>  (1906) 
1.565879

>  <gnina_score_min>  (1906) 
5.234

>  <inchikey>  (1906) 
NJSZONOGTGANHB-UHFFFAOYSA-N

>  <exports>  (1906) 
['/opt/xchem-fragalysis-2/maxwin/BulkDock/OUTPUTS/openbind_a71ev2a_c2_elabs_1LOUU54.sdf', '/opt/xchem-fragalysis-2/maxwin/BulkDock/OUTPUTS/openbind_a71ev2a_c2_elabs_1LSYIDY.sdf']

>  <name>  (1906) 
P585768

>  <ref_pdb>  (1906) 
A0566a

>  <subsites>  (1906) 
None

>  <HIPPO Pose ID>  (1906) 
585768

>  <ref_mols>  (1906) 
A0566a

>  <HIPPO Compound ID>  (1906) 
440957

>  <tags>  (1906) 
openbind_a71ev2a_c2_elabs,syndirella_product,openbind_a71ev2a_c2_elabs_fragonly_scored_top80percent,openbind_a71ev2a_c2_elabs_scored,BulkDock Fragalysis export,openbind_a71ev2a_c2_elabs_scored_top80percent,openbind_a71ev2a_c2_elabs_activefrags_only_scored_5.2plus,syndirella_placed

>  <smina_score_min>  (1906) 
-6.383

$$$$
P585769
     RDKit          3D

 20 23  0  0  0  0  0  0  0  0999 V2000
   10.4728   14.6611   24.3958 O   0  0  0  0  0  0  0  0  0  0  0  0
   10.3010   13.9340   23.4849 C   0  0  0  0  0  0  0  0  0  0  0  0
    9.5485   12.6847   23.7229 C   0  0  0  0  0  0  0  0  0  0  0  0
    9.9288   11.4733   23.1455 C   0  0  0  0  0  0  0  0  0  0  0  0
    9.3087   10.2803   23.4982 C   0  0  0  0  0  0  0  0  0  0  0  0
    8.2884   10.2789   24.4541 C   0  0  0  0  0  0  0  0  0  0  0  0
    7.8499   11.4923   25.0179 C   0  0  0  0  0  0  0  0  0  0  0  0
    6.8835   11.8528   25.9979 C   0  0  0  0  0  0  0  0  0  0  0  0
    6.9083   13.2268   26.1189 C   0  0  0  0  0  0  0  0  0  0  0  0
    7.8695   13.7154   25.2871 N   0  0  0  0  0  0  0  0  0  0  0  0
    8.4806   12.6730   24.6243 C   0  0  0  0  0  0  0  0  0  0  0  0
    6.0763   14.0560   27.0325 C   0  0  0  0  0  0  0  0  0  0  0  0
    4.9304   13.2061   27.6099 C   0  0  0  0  0  0  0  0  0  0  0  0
    5.4005   11.7962   28.0130 C   0  0  0  0  0  0  0  0  0  0  0  0
    5.9600   11.0138   26.8104 C   0  0  0  0  0  0  0  0  0  0  0  0
   10.7115   14.0643   22.0477 N   0  0  0  0  0  0  0  0  0  0  0  0
   11.5514   15.1104   21.3535 C   0  0  0  0  0  0  0  0  0  0  0  0
   10.6229   15.1755   20.1801 C   0  0  0  0  0  0  0  0  0  0  0  0
   10.8656   14.3408   19.1462 F   0  0  0  0  0  0  0  0  0  0  0  0
    9.6130   14.7811   21.2031 C   0  0  0  0  0  0  0  0  0  0  0  0
  1  2  2  0
  2  3  1  0
  3  4  2  0
  4  5  1  0
  5  6  2  0
  6  7  1  0
  7  8  1  0
  8  9  2  0
  9 10  1  0
 10 11  1  0
  9 12  1  0
 12 13  1  0
 13 14  1  0
 14 15  1  0
  2 16  1  0
 16 17  1  0
 17 18  1  0
 18 19  1  0
 18 20  1  0
 11  3  1  0
 20 16  1  0
 11  7  2  0
 15  8  1  0
M  END
>  <alias>  (1907) 
None

>  <rmsd(smina/fragmenstein)>  (1907) 
0.268

>  <smiles>  (1907) 
O=C(c1cccc2c3c([nH]c12)CCCC3)N1CC(F)C1

>  <gnina_score>  (1907) 
5.483

>  <inspiration_score>  (1907) 
None

>  <energy_score>  (1907) 
-14.292941

>  <distance_score>  (1907) 
0.946811

>  <gnina_score_min>  (1907) 
5.415

>  <inchikey>  (1907) 
IDUMLFLBCVNBLE-UHFFFAOYSA-N

>  <exports>  (1907) 
['/opt/xchem-fragalysis-2/maxwin/BulkDock/OUTPUTS/openbind_a71ev2a_c2_elabs_1LOUU54.sdf', '/opt/xchem-fragalysis-2/maxwin/BulkDock/OUTPUTS/openbind_a71ev2a_c2_elabs_1LSYIDY.sdf']

>  <name>  (1907) 
P585769

>  <ref_pdb>  (1907) 
A0566a

>  <subsites>  (1907) 
None

>  <HIPPO Pose ID>  (1907) 
585769

>  <ref_mols>  (1907) 
A0566a

>  <HIPPO Compound ID>  (1907) 
440958

>  <tags>  (1907) 
openbind_a71ev2a_c2_elabs,syndirella_product,openbind_a71ev2a_c2_elabs_fragonly_scored_top80percent,openbind_a71ev2a_c2_elabs_scored,BulkDock Fragalysis export,openbind_a71ev2a_c2_elabs_scored_top80percent,openbind_a71ev2a_c2_elabs_activefrags_only_scored_5.2plus,syndirella_placed

>  <smina_score_min>  (1907) 
-7.135

$$$$
P585770
     RDKit          3D

 20 22  0  0  0  0  0  0  0  0999 V2000
   12.5657   14.7755   21.3394 C   0  0  0  0  0  0  0  0  0  0  0  0
   11.0831   15.0558   21.2429 C   0  0  1  0  0  0  0  0  0  0  0  0
   10.5761   15.1421   19.8074 C   0  0  0  0  0  0  0  0  0  0  0  0
    9.2269   15.3311   19.8509 F   0  0  0  0  0  0  0  0  0  0  0  0
   10.3965   14.0133   21.9661 N   0  0  0  0  0  0  0  0  0  0  0  0
   10.1171   13.8592   23.4621 C   0  0  0  0  0  0  0  0  0  0  0  0
   10.3271   14.5843   24.3479 O   0  0  0  0  0  0  0  0  0  0  0  0
    9.4291   12.5856   23.7506 C   0  0  0  0  0  0  0  0  0  0  0  0
    9.8480   11.3670   23.2126 C   0  0  0  0  0  0  0  0  0  0  0  0
    9.2434   10.1750   23.5893 C   0  0  0  0  0  0  0  0  0  0  0  0
    8.2176   10.1808   24.5407 C   0  0  0  0  0  0  0  0  0  0  0  0
    7.7633   11.3969   25.0850 C   0  0  0  0  0  0  0  0  0  0  0  0
    6.8006   11.7650   26.0661 C   0  0  0  0  0  0  0  0  0  0  0  0
    6.7995   13.1424   26.1483 C   0  0  0  0  0  0  0  0  0  0  0  0
    7.7403   13.6268   25.2913 N   0  0  0  0  0  0  0  0  0  0  0  0
    8.3682   12.5767   24.6576 C   0  0  0  0  0  0  0  0  0  0  0  0
    5.9563   13.9814   27.0418 C   0  0  0  0  0  0  0  0  0  0  0  0
    4.8235   13.1279   27.6391 C   0  0  0  0  0  0  0  0  0  0  0  0
    5.3183   11.7398   28.0848 C   0  0  0  0  0  0  0  0  0  0  0  0
    5.9022   10.9307   26.9117 C   0  0  0  0  0  0  0  0  0  0  0  0
  2  1  1  6
  2  3  1  0
  3  4  1  0
  2  5  1  0
  5  6  1  0
  6  7  2  0
  6  8  1  0
  8  9  2  0
  9 10  1  0
 10 11  2  0
 11 12  1  0
 12 13  1  0
 13 14  2  0
 14 15  1  0
 15 16  1  0
 14 17  1  0
 17 18  1  0
 18 19  1  0
 19 20  1  0
 16  8  1  0
 16 12  2  0
 20 13  1  0
M  END
>  <alias>  (1908) 
None

>  <rmsd(smina/fragmenstein)>  (1908) 
0.346

>  <smiles>  (1908) 
C[C@@H](CF)NC(=O)c1cccc2c3c([nH]c12)CCCC3

>  <gnina_score>  (1908) 
5.568

>  <inspiration_score>  (1908) 
None

>  <energy_score>  (1908) 
-6.867526

>  <distance_score>  (1908) 
1.083179

>  <gnina_score_min>  (1908) 
5.531

>  <inchikey>  (1908) 
KQKLCCXMHAHIPA-JTQLQIEISA-N

>  <exports>  (1908) 
['/opt/xchem-fragalysis-2/maxwin/BulkDock/OUTPUTS/openbind_a71ev2a_c2_elabs_1LOUU54.sdf', '/opt/xchem-fragalysis-2/maxwin/BulkDock/OUTPUTS/openbind_a71ev2a_c2_elabs_1LSYIDY.sdf']

>  <name>  (1908) 
P585770

>  <ref_pdb>  (1908) 
A0566a

>  <subsites>  (1908) 
None

>  <HIPPO Pose ID>  (1908) 
585770

>  <ref_mols>  (1908) 
A0566a

>  <HIPPO Compound ID>  (1908) 
440959

>  <tags>  (1908) 
openbind_a71ev2a_c2_elabs,syndirella_product,openbind_a71ev2a_c2_elabs_fragonly_scored_top80percent,BulkDock Fragalysis export,openbind_a71ev2a_c2_elabs_scored,openbind_a71ev2a_c2_elabs_scored_top80percent,openbind_a71ev2a_c2_elabs_activefrags_only_scored_5.2plus,openbind_a71ev2a_c2_elabs_activefrags_only_scored_5.5plus,syndirella_placed

>  <smina_score_min>  (1908) 
-7.116

$$$$
P585774
     RDKit          3D

 20 22  0  0  0  0  0  0  0  0999 V2000
   12.7688   13.7211   24.0016 C   0  0  0  0  0  0  0  0  0  0  0  0
   12.6513   14.2334   22.9212 C   0  0  0  0  0  0  0  0  0  0  0  0
   12.4325   14.7640   21.5571 C   0  0  0  0  0  0  0  0  0  0  0  0
   10.9499   15.0025   21.2662 C   0  0  0  0  0  0  0  0  0  0  0  0
   10.1919   13.9773   21.9198 N   0  0  0  0  0  0  0  0  0  0  0  0
    9.5259   13.9572   23.3030 C   0  0  0  0  0  0  0  0  0  0  0  0
    9.4201   14.7982   24.1032 O   0  0  0  0  0  0  0  0  0  0  0  0
    9.0379   12.6068   23.6785 C   0  0  0  0  0  0  0  0  0  0  0  0
    9.6295   11.4175   23.2316 C   0  0  0  0  0  0  0  0  0  0  0  0
    9.1664   10.1820   23.6669 C   0  0  0  0  0  0  0  0  0  0  0  0
    8.1397   10.1113   24.6154 C   0  0  0  0  0  0  0  0  0  0  0  0
    7.5757   11.2875   25.1421 C   0  0  0  0  0  0  0  0  0  0  0  0
    6.6041   11.5842   26.1443 C   0  0  0  0  0  0  0  0  0  0  0  0
    6.5335   12.9587   26.2464 C   0  0  0  0  0  0  0  0  0  0  0  0
    7.3559   13.5058   25.3121 N   0  0  0  0  0  0  0  0  0  0  0  0
    8.0365   12.5058   24.6508 C   0  0  0  0  0  0  0  0  0  0  0  0
    5.6926   13.7389   27.1923 C   0  0  0  0  0  0  0  0  0  0  0  0
    5.2621   12.8264   28.3532 C   0  0  0  0  0  0  0  0  0  0  0  0
    4.7449   11.4711   27.8409 C   0  0  0  0  0  0  0  0  0  0  0  0
    5.8102   10.6901   27.0422 C   0  0  0  0  0  0  0  0  0  0  0  0
  1  2  3  0
  2  3  1  0
  3  4  1  0
  4  5  1  0
  5  6  1  0
  6  7  2  0
  6  8  1  0
  8  9  2  0
  9 10  1  0
 10 11  2  0
 11 12  1  0
 12 13  1  0
 13 14  2  0
 14 15  1  0
 15 16  1  0
 14 17  1  0
 17 18  1  0
 18 19  1  0
 19 20  1  0
 16  8  1  0
 16 12  2  0
 20 13  1  0
M  END
>  <alias>  (1909) 
None

>  <rmsd(smina/fragmenstein)>  (1909) 
0.425

>  <smiles>  (1909) 
C#CCCNC(=O)c1cccc2c3c([nH]c12)CCCC3

>  <gnina_score>  (1909) 
5.284

>  <inspiration_score>  (1909) 
None

>  <energy_score>  (1909) 
-12.680302

>  <distance_score>  (1909) 
1.411377

>  <gnina_score_min>  (1909) 
5.367

>  <inchikey>  (1909) 
VHMQEGAVKBRLLF-UHFFFAOYSA-N

>  <exports>  (1909) 
['/opt/xchem-fragalysis-2/maxwin/BulkDock/OUTPUTS/openbind_a71ev2a_c2_elabs_1LOUU54.sdf', '/opt/xchem-fragalysis-2/maxwin/BulkDock/OUTPUTS/openbind_a71ev2a_c2_elabs_1LSYIDY.sdf']

>  <name>  (1909) 
P585774

>  <ref_pdb>  (1909) 
A0566a

>  <subsites>  (1909) 
None

>  <HIPPO Pose ID>  (1909) 
585774

>  <ref_mols>  (1909) 
A0566a

>  <HIPPO Compound ID>  (1909) 
440965

>  <tags>  (1909) 
openbind_a71ev2a_c2_elabs,syndirella_product,openbind_a71ev2a_c2_elabs_fragonly_scored_top80percent,openbind_a71ev2a_c2_elabs_scored,BulkDock Fragalysis export,openbind_a71ev2a_c2_elabs_scored_top80percent,openbind_a71ev2a_c2_elabs_activefrags_only_scored_5.2plus,syndirella_placed

>  <smina_score_min>  (1909) 
-6.481

$$$$
P585776
     RDKit          3D

 20 22  0  0  0  0  0  0  0  0999 V2000
   10.1524   15.8031   19.1373 C   0  0  0  0  0  0  0  0  0  0  0  0
   10.5860   15.4419   20.1957 C   0  0  0  0  0  0  0  0  0  0  0  0
   11.1794   15.1172   21.4856 C   0  0  2  0  0  0  0  0  0  0  0  0
   12.6185   14.6832   21.3766 C   0  0  0  0  0  0  0  0  0  0  0  0
   10.4409   14.0824   22.1261 N   0  0  0  0  0  0  0  0  0  0  0  0
   10.0747   13.8881   23.5946 C   0  0  0  0  0  0  0  0  0  0  0  0
   10.2491   14.5795   24.5136 O   0  0  0  0  0  0  0  0  0  0  0  0
    9.3767   12.6076   23.8103 C   0  0  0  0  0  0  0  0  0  0  0  0
    9.8181   11.4108   23.2405 C   0  0  0  0  0  0  0  0  0  0  0  0
    9.2307   10.2015   23.5887 C   0  0  0  0  0  0  0  0  0  0  0  0
    8.2041   10.1695   24.5405 C   0  0  0  0  0  0  0  0  0  0  0  0
    7.7249   11.3650   25.1094 C   0  0  0  0  0  0  0  0  0  0  0  0
    6.7589   11.6974   26.1010 C   0  0  0  0  0  0  0  0  0  0  0  0
    6.7333   13.0728   26.2094 C   0  0  0  0  0  0  0  0  0  0  0  0
    7.6671   13.5896   25.3646 N   0  0  0  0  0  0  0  0  0  0  0  0
    8.3096   12.5630   24.7077 C   0  0  0  0  0  0  0  0  0  0  0  0
    5.8776   13.8803   27.1197 C   0  0  0  0  0  0  0  0  0  0  0  0
    4.7575   12.9976   27.6970 C   0  0  0  0  0  0  0  0  0  0  0  0
    5.2756   11.6114   28.1201 C   0  0  0  0  0  0  0  0  0  0  0  0
    5.8817   10.8322   26.9380 C   0  0  0  0  0  0  0  0  0  0  0  0
  1  2  3  0
  2  3  1  0
  3  4  1  6
  3  5  1  0
  5  6  1  0
  6  7  2  0
  6  8  1  0
  8  9  2  0
  9 10  1  0
 10 11  2  0
 11 12  1  0
 12 13  1  0
 13 14  2  0
 14 15  1  0
 15 16  1  0
 14 17  1  0
 17 18  1  0
 18 19  1  0
 19 20  1  0
 16  8  1  0
 16 12  2  0
 20 13  1  0
M  END
>  <alias>  (1910) 
None

>  <rmsd(smina/fragmenstein)>  (1910) 
0.238

>  <smiles>  (1910) 
C#C[C@H](C)NC(=O)c1cccc2c3c([nH]c12)CCCC3

>  <gnina_score>  (1910) 
5.435

>  <inspiration_score>  (1910) 
None

>  <energy_score>  (1910) 
-19.193742

>  <distance_score>  (1910) 
1.081676

>  <gnina_score_min>  (1910) 
5.49

>  <inchikey>  (1910) 
FOIGCPYJDMALFH-NSHDSACASA-N

>  <exports>  (1910) 
['/opt/xchem-fragalysis-2/maxwin/BulkDock/OUTPUTS/openbind_a71ev2a_c2_elabs_1LOUU54.sdf', '/opt/xchem-fragalysis-2/maxwin/BulkDock/OUTPUTS/openbind_a71ev2a_c2_elabs_1LSYIDY.sdf']

>  <name>  (1910) 
P585776

>  <ref_pdb>  (1910) 
A0566a

>  <subsites>  (1910) 
None

>  <HIPPO Pose ID>  (1910) 
585776

>  <ref_mols>  (1910) 
A0566a

>  <HIPPO Compound ID>  (1910) 
440967

>  <tags>  (1910) 
openbind_a71ev2a_c2_elabs,syndirella_product,openbind_a71ev2a_c2_elabs_fragonly_scored_top80percent,openbind_a71ev2a_c2_elabs_scored,BulkDock Fragalysis export,openbind_a71ev2a_c2_elabs_scored_top80percent,openbind_a71ev2a_c2_elabs_activefrags_only_scored_5.2plus,syndirella_placed

>  <smina_score_min>  (1910) 
-6.957

$$$$
P585778
     RDKit          3D

 21 23  0  0  0  0  0  0  0  0999 V2000
   10.9896   15.0418   18.9157 C   0  0  0  0  0  0  0  0  0  0  0  0
   12.2466   14.2996   19.9670 S   0  0  0  0  0  0  0  0  0  0  0  0
   12.1478   15.3748   21.4060 C   0  0  0  0  0  0  0  0  0  0  0  0
   12.2531   14.6105   22.6901 C   0  0  0  0  0  0  0  0  0  0  0  0
   11.1682   13.7307   22.9084 N   0  0  0  0  0  0  0  0  0  0  0  0
   10.0593   13.7652   23.9531 C   0  0  0  0  0  0  0  0  0  0  0  0
    9.8079   14.5641   24.7605 O   0  0  0  0  0  0  0  0  0  0  0  0
    9.2541   12.5049   23.9630 C   0  0  0  0  0  0  0  0  0  0  0  0
    9.6554   11.2953   23.3726 C   0  0  0  0  0  0  0  0  0  0  0  0
    9.0433   10.0949   23.7051 C   0  0  0  0  0  0  0  0  0  0  0  0
    8.0266   10.0668   24.6608 C   0  0  0  0  0  0  0  0  0  0  0  0
    7.5525   11.2637   25.2203 C   0  0  0  0  0  0  0  0  0  0  0  0
    6.6051   11.5940   26.2301 C   0  0  0  0  0  0  0  0  0  0  0  0
    6.5699   12.9681   26.3297 C   0  0  0  0  0  0  0  0  0  0  0  0
    7.4907   13.4817   25.4713 N   0  0  0  0  0  0  0  0  0  0  0  0
    8.1437   12.4565   24.8173 C   0  0  0  0  0  0  0  0  0  0  0  0
    5.7306   13.7753   27.2534 C   0  0  0  0  0  0  0  0  0  0  0  0
    4.6430   12.8846   27.8807 C   0  0  0  0  0  0  0  0  0  0  0  0
    5.2003   11.5072   28.3141 C   0  0  1  0  0  0  0  0  0  0  0  0
    4.1283   10.6868   29.0278 C   0  0  0  0  0  0  0  0  0  0  0  0
    5.7706   10.7226   27.1060 C   0  0  0  0  0  0  0  0  0  0  0  0
  1  2  1  0
  2  3  1  0
  3  4  1  0
  4  5  1  0
  5  6  1  0
  6  7  2  0
  6  8  1  0
  8  9  2  0
  9 10  1  0
 10 11  2  0
 11 12  1  0
 12 13  1  0
 13 14  2  0
 14 15  1  0
 15 16  1  0
 14 17  1  0
 17 18  1  0
 18 19  1  0
 19 20  1  6
 19 21  1  0
 16  8  1  0
 16 12  2  0
 21 13  1  0
M  END
>  <alias>  (1911) 
None

>  <rmsd(smina/fragmenstein)>  (1911) 
0.867

>  <smiles>  (1911) 
CSCCNC(=O)c1cccc2c3c([nH]c12)CC[C@@H](C)C3

>  <gnina_score>  (1911) 
5.48

>  <inspiration_score>  (1911) 
None

>  <energy_score>  (1911) 
-36.595491

>  <distance_score>  (1911) 
1.213814

>  <gnina_score_min>  (1911) 
5.678

>  <inchikey>  (1911) 
NXCMBYGLJYILOR-LLVKDONJSA-N

>  <exports>  (1911) 
['/opt/xchem-fragalysis-2/maxwin/BulkDock/OUTPUTS/openbind_a71ev2a_c2_elabs_1LOUU54.sdf', '/opt/xchem-fragalysis-2/maxwin/BulkDock/OUTPUTS/openbind_a71ev2a_c2_elabs_1LSYIDY.sdf']

>  <name>  (1911) 
P585778

>  <ref_pdb>  (1911) 
A0566a

>  <subsites>  (1911) 
None

>  <HIPPO Pose ID>  (1911) 
585778

>  <ref_mols>  (1911) 
A0566a

>  <HIPPO Compound ID>  (1911) 
440969

>  <tags>  (1911) 
openbind_a71ev2a_c2_elabs,syndirella_product,openbind_a71ev2a_c2_elabs_fragonly_scored_top80percent,BulkDock Fragalysis export,openbind_a71ev2a_c2_elabs_scored,openbind_a71ev2a_c2_elabs_scored_top80percent,openbind_a71ev2a_c2_elabs_activefrags_only_scored_5.2plus,openbind_a71ev2a_c2_elabs_activefrags_only_scored_5.5plus,syndirella_placed

>  <smina_score_min>  (1911) 
-6.235

$$$$
P585779
     RDKit          3D

 21 24  0  0  0  0  0  0  0  0999 V2000
    4.2651   11.0957   28.8448 C   0  0  0  0  0  0  0  0  0  0  0  0
    5.3684   11.8855   28.1449 C   0  0  2  0  0  0  0  0  0  0  0  0
    4.8624   13.2902   27.7326 C   0  0  0  0  0  0  0  0  0  0  0  0
    5.9775   14.1539   27.1144 C   0  0  0  0  0  0  0  0  0  0  0  0
    6.8127   13.3295   26.1992 C   0  0  0  0  0  0  0  0  0  0  0  0
    7.7538   13.8277   25.3476 N   0  0  0  0  0  0  0  0  0  0  0  0
    8.3903   12.7857   24.7163 C   0  0  0  0  0  0  0  0  0  0  0  0
    9.4560   12.7795   23.8275 C   0  0  0  0  0  0  0  0  0  0  0  0
   10.1337   14.0080   23.4002 C   0  0  0  0  0  0  0  0  0  0  0  0
   11.0156   14.4579   24.0081 O   0  0  0  0  0  0  0  0  0  0  0  0
    9.5361   14.4316   22.0603 N   0  0  0  0  0  0  0  0  0  0  0  0
    9.9531   15.4415   21.1310 C   0  0  0  0  0  0  0  0  0  0  0  0
   10.6460   14.6505   20.0834 C   0  0  0  0  0  0  0  0  0  0  0  0
   12.1401   14.6545   20.0263 C   0  0  0  0  0  0  0  0  0  0  0  0
   11.3232   15.1987   18.8748 C   0  0  0  0  0  0  0  0  0  0  0  0
    9.8664   11.5674   23.2624 C   0  0  0  0  0  0  0  0  0  0  0  0
    9.2519   10.3741   23.6150 C   0  0  0  0  0  0  0  0  0  0  0  0
    8.2213   10.3793   24.5602 C   0  0  0  0  0  0  0  0  0  0  0  0
    7.7750   11.5965   25.1168 C   0  0  0  0  0  0  0  0  0  0  0  0
    6.8057   11.9540   26.0922 C   0  0  0  0  0  0  0  0  0  0  0  0
    5.8973   11.1066   26.9155 C   0  0  0  0  0  0  0  0  0  0  0  0
  2  1  1  6
  2  3  1  0
  3  4  1  0
  4  5  1  0
  5  6  1  0
  6  7  1  0
  7  8  2  0
  8  9  1  0
  9 10  2  0
  9 11  1  0
 11 12  1  0
 12 13  1  0
 13 14  1  0
 14 15  1  0
  8 16  1  0
 16 17  2  0
 17 18  1  0
 18 19  2  0
 19 20  1  0
 20 21  1  0
 21  2  1  0
 20  5  2  0
 19  7  1  0
 15 13  1  0
M  END
>  <alias>  (1912) 
None

>  <rmsd(smina/fragmenstein)>  (1912) 
0.82

>  <smiles>  (1912) 
C[C@@H]1CCc2[nH]c3c(C(=O)NCC4CC4)cccc3c2C1

>  <gnina_score>  (1912) 
5.228

>  <inspiration_score>  (1912) 
None

>  <energy_score>  (1912) 
-9.684256

>  <distance_score>  (1912) 
1.225348

>  <gnina_score_min>  (1912) 
5.35

>  <inchikey>  (1912) 
YJCAWYDVWSMDKI-LLVKDONJSA-N

>  <exports>  (1912) 
['/opt/xchem-fragalysis-2/maxwin/BulkDock/OUTPUTS/openbind_a71ev2a_c2_elabs_1LOUU54.sdf', '/opt/xchem-fragalysis-2/maxwin/BulkDock/OUTPUTS/openbind_a71ev2a_c2_elabs_1LSYIDY.sdf']

>  <name>  (1912) 
P585779

>  <ref_pdb>  (1912) 
A0566a

>  <subsites>  (1912) 
None

>  <HIPPO Pose ID>  (1912) 
585779

>  <ref_mols>  (1912) 
A0566a

>  <HIPPO Compound ID>  (1912) 
440971

>  <tags>  (1912) 
openbind_a71ev2a_c2_elabs,syndirella_product,openbind_a71ev2a_c2_elabs_fragonly_scored_top80percent,openbind_a71ev2a_c2_elabs_scored,BulkDock Fragalysis export,openbind_a71ev2a_c2_elabs_scored_top80percent,openbind_a71ev2a_c2_elabs_activefrags_only_scored_5.2plus,syndirella_placed

>  <smina_score_min>  (1912) 
-6.57

$$$$
P585784
     RDKit          3D

 21 23  0  0  0  0  0  0  0  0999 V2000
    3.7504   12.9816   27.2887 C   0  0  0  0  0  0  0  0  0  0  0  0
    5.0859   12.5675   27.9115 C   0  0  2  0  0  0  0  0  0  0  0  0
    5.9307   13.8166   28.2641 C   0  0  0  0  0  0  0  0  0  0  0  0
    6.4353   14.5636   27.0190 C   0  0  0  0  0  0  0  0  0  0  0  0
    7.0553   13.5745   26.1017 C   0  0  0  0  0  0  0  0  0  0  0  0
    7.9928   13.8739   25.1634 N   0  0  0  0  0  0  0  0  0  0  0  0
    8.4688   12.7129   24.5931 C   0  0  0  0  0  0  0  0  0  0  0  0
    9.5186   12.5319   23.6804 C   0  0  0  0  0  0  0  0  0  0  0  0
   10.3524   13.7071   23.2833 C   0  0  0  0  0  0  0  0  0  0  0  0
   10.3919   14.6133   24.0132 O   0  0  0  0  0  0  0  0  0  0  0  0
   11.0228   13.4982   21.9229 N   0  0  0  0  0  0  0  0  0  0  0  0
   11.8108   14.3953   21.1210 C   0  0  2  0  0  0  0  0  0  0  0  0
   12.6473   15.3075   21.9797 C   0  0  0  0  0  0  0  0  0  0  0  0
   10.9439   15.1078   20.1629 C   0  0  0  0  0  0  0  0  0  0  0  0
   10.2534   15.6230   19.3823 N   0  0  0  0  0  0  0  0  0  0  0  0
    9.7677   11.2214   23.2593 C   0  0  0  0  0  0  0  0  0  0  0  0
    9.0294   10.1502   23.7445 C   0  0  0  0  0  0  0  0  0  0  0  0
    8.0177   10.3530   24.6863 C   0  0  0  0  0  0  0  0  0  0  0  0
    7.7177   11.6577   25.1153 C   0  0  0  0  0  0  0  0  0  0  0  0
    6.8172   12.2167   26.0725 C   0  0  0  0  0  0  0  0  0  0  0  0
    5.8537   11.5568   27.0098 C   0  0  0  0  0  0  0  0  0  0  0  0
  2  1  1  6
  2  3  1  0
  3  4  1  0
  4  5  1  0
  5  6  1  0
  6  7  1  0
  7  8  2  0
  8  9  1  0
  9 10  2  0
  9 11  1  0
 11 12  1  0
 12 13  1  1
 12 14  1  0
 14 15  3  0
  8 16  1  0
 16 17  2  0
 17 18  1  0
 18 19  2  0
 19 20  1  0
 20 21  1  0
 21  2  1  0
 20  5  2  0
 19  7  1  0
M  END
>  <alias>  (1913) 
None

>  <rmsd(smina/fragmenstein)>  (1913) 
0.524

>  <smiles>  (1913) 
C[C@@H]1CCc2[nH]c3c(C(=O)N[C@H](C)C#N)cccc3c2C1

>  <gnina_score>  (1913) 
5.705

>  <inspiration_score>  (1913) 
None

>  <energy_score>  (1913) 
-35.508037

>  <distance_score>  (1913) 
1.137982

>  <gnina_score_min>  (1913) 
5.7

>  <inchikey>  (1913) 
WEWMBYBWZBZQKN-GHMZBOCLSA-N

>  <exports>  (1913) 
['/opt/xchem-fragalysis-2/maxwin/BulkDock/OUTPUTS/openbind_a71ev2a_c2_elabs_1LOUU54.sdf', '/opt/xchem-fragalysis-2/maxwin/BulkDock/OUTPUTS/openbind_a71ev2a_c2_elabs_1LSYIDY.sdf']

>  <name>  (1913) 
P585784

>  <ref_pdb>  (1913) 
A0566a

>  <subsites>  (1913) 
None

>  <HIPPO Pose ID>  (1913) 
585784

>  <ref_mols>  (1913) 
A0566a

>  <HIPPO Compound ID>  (1913) 
440975

>  <tags>  (1913) 
openbind_a71ev2a_c2_elabs,syndirella_product,openbind_a71ev2a_c2_elabs_fragonly_scored_top80percent,BulkDock Fragalysis export,openbind_a71ev2a_c2_elabs_scored,openbind_a71ev2a_c2_elabs_scored_top80percent,openbind_a71ev2a_c2_elabs_activefrags_only_scored_5.2plus,openbind_a71ev2a_c2_elabs_activefrags_only_scored_5.5plus,syndirella_placed

>  <smina_score_min>  (1913) 
-6.986

$$$$
P585794
     RDKit          3D

 21 22  0  0  0  0  0  0  0  0999 V2000
    3.3397   16.0449   26.1392 C   0  0  0  0  0  0  0  0  0  0  0  0
    4.4419   15.8118   27.1552 C   0  0  0  0  0  0  0  0  0  0  0  0
    5.4473   14.9543   26.5958 O   0  0  0  0  0  0  0  0  0  0  0  0
    5.2465   13.6158   26.7451 C   0  0  0  0  0  0  0  0  0  0  0  0
    4.3224   13.0950   27.3548 O   0  0  0  0  0  0  0  0  0  0  0  0
    6.2980   12.9047   26.0606 C   0  0  0  0  0  0  0  0  0  0  0  0
    6.4978   11.5380   25.9639 C   0  0  0  0  0  0  0  0  0  0  0  0
    7.5891   11.3048   25.0902 C   0  0  0  0  0  0  0  0  0  0  0  0
    8.1978   10.1479   24.5636 C   0  0  0  0  0  0  0  0  0  0  0  0
    9.2547   10.2529   23.6567 C   0  0  0  0  0  0  0  0  0  0  0  0
    9.7320   11.5064   23.3125 C   0  0  0  0  0  0  0  0  0  0  0  0
    9.1491   12.6649   23.8478 C   0  0  0  0  0  0  0  0  0  0  0  0
    9.7086   13.9469   23.4300 C   0  0  0  0  0  0  0  0  0  0  0  0
   10.3876   14.5637   24.1434 O   0  0  0  0  0  0  0  0  0  0  0  0
    9.3229   14.1906   21.9705 N   0  0  0  0  0  0  0  0  0  0  0  0
    9.7667   15.1990   21.0391 C   0  0  0  0  0  0  0  0  0  0  0  0
   11.1606   14.7731   20.5691 C   0  0  1  0  0  0  0  0  0  0  0  0
   11.3847   15.0266   19.0916 C   0  0  0  0  0  0  0  0  0  0  0  0
   12.4797   15.3106   21.7012 S   0  0  0  0  0  0  0  0  0  0  0  0
    8.0755   12.5529   24.7158 C   0  0  0  0  0  0  0  0  0  0  0  0
    7.2987   13.5033   25.3263 N   0  0  0  0  0  0  0  0  0  0  0  0
  1  2  1  0
  2  3  1  0
  3  4  1  0
  4  5  2  0
  4  6  1  0
  6  7  2  0
  7  8  1  0
  8  9  2  0
  9 10  1  0
 10 11  2  0
 11 12  1  0
 12 13  1  0
 13 14  2  0
 13 15  1  0
 15 16  1  0
 16 17  1  0
 17 18  1  6
 17 19  1  0
 12 20  2  0
 20 21  1  0
 21  6  1  0
 20  8  1  0
M  END
>  <alias>  (1914) 
None

>  <rmsd(smina/fragmenstein)>  (1914) 
0.666

>  <smiles>  (1914) 
CCOC(=O)c1cc2cccc(C(=O)NC[C@@H](C)S)c2[nH]1

>  <gnina_score>  (1914) 
5.205

>  <inspiration_score>  (1914) 
None

>  <energy_score>  (1914) 
-13.616552

>  <distance_score>  (1914) 
1.436393

>  <gnina_score_min>  (1914) 
5.301

>  <inchikey>  (1914) 
MMTIPTLRVWOXMX-SECBINFHSA-N

>  <exports>  (1914) 
['/opt/xchem-fragalysis-2/maxwin/BulkDock/OUTPUTS/openbind_a71ev2a_c2_elabs_1LOUU54.sdf', '/opt/xchem-fragalysis-2/maxwin/BulkDock/OUTPUTS/openbind_a71ev2a_c2_elabs_1LSYIDY.sdf']

>  <name>  (1914) 
P585794

>  <ref_pdb>  (1914) 
A0566a

>  <subsites>  (1914) 
None

>  <HIPPO Pose ID>  (1914) 
585794

>  <ref_mols>  (1914) 
A0566a

>  <HIPPO Compound ID>  (1914) 
440984

>  <tags>  (1914) 
openbind_a71ev2a_c2_elabs,syndirella_product,openbind_a71ev2a_c2_elabs_fragonly_scored_top80percent,openbind_a71ev2a_c2_elabs_scored,BulkDock Fragalysis export,openbind_a71ev2a_c2_elabs_scored_top80percent,openbind_a71ev2a_c2_elabs_activefrags_only_scored_5.2plus,syndirella_placed

>  <smina_score_min>  (1914) 
-5.319

$$$$
P585796
     RDKit          3D

 21 23  0  0  0  0  0  0  0  0999 V2000
    4.0984   16.7384   26.3448 C   0  0  0  0  0  0  0  0  0  0  0  0
    4.8691   15.9740   27.4060 C   0  0  0  0  0  0  0  0  0  0  0  0
    5.5671   14.8744   26.8045 O   0  0  0  0  0  0  0  0  0  0  0  0
    6.8012   15.1637   26.3163 C   0  0  0  0  0  0  0  0  0  0  0  0
    7.3996   16.2222   26.4425 O   0  0  0  0  0  0  0  0  0  0  0  0
    7.3450   14.0286   25.6208 C   0  0  0  0  0  0  0  0  0  0  0  0
    7.0080   12.6882   25.6475 C   0  0  0  0  0  0  0  0  0  0  0  0
    7.9395   11.9855   24.8393 C   0  0  0  0  0  0  0  0  0  0  0  0
    8.1279   10.6208   24.5557 C   0  0  0  0  0  0  0  0  0  0  0  0
    9.1240   10.2453   23.6633 C   0  0  0  0  0  0  0  0  0  0  0  0
    9.9412   11.2136   23.1026 C   0  0  0  0  0  0  0  0  0  0  0  0
    9.8357   12.5767   23.4117 C   0  0  0  0  0  0  0  0  0  0  0  0
   10.8043   13.5020   22.7619 C   0  0  0  0  0  0  0  0  0  0  0  0
   11.9268   13.1511   22.6974 O   0  0  0  0  0  0  0  0  0  0  0  0
   10.1316   14.7266   22.1961 N   0  0  0  0  0  0  0  0  0  0  0  0
    9.5865   14.4679   20.7854 C   0  0  0  0  0  0  0  0  0  0  0  0
   10.7234   15.1955   20.1553 C   0  0  0  0  0  0  0  0  0  0  0  0
   10.1413   16.2760   18.7993 S   0  0  0  0  0  0  0  0  0  0  0  0
   10.7075   15.9202   21.4646 C   0  0  0  0  0  0  0  0  0  0  0  0
    8.7979   12.9342   24.2729 C   0  0  0  0  0  0  0  0  0  0  0  0
    8.3979   14.1560   24.7456 N   0  0  0  0  0  0  0  0  0  0  0  0
  1  2  1  0
  2  3  1  0
  3  4  1  0
  4  5  2  0
  4  6  1  0
  6  7  2  0
  7  8  1  0
  8  9  2  0
  9 10  1  0
 10 11  2  0
 11 12  1  0
 12 13  1  0
 13 14  2  0
 13 15  1  0
 15 16  1  0
 16 17  1  0
 17 18  1  0
 17 19  1  0
 12 20  2  0
 20 21  1  0
 21  6  1  0
 20  8  1  0
 19 15  1  0
M  END
>  <alias>  (1915) 
None

>  <rmsd(smina/fragmenstein)>  (1915) 
0.595

>  <smiles>  (1915) 
CCOC(=O)c1cc2cccc(C(=O)N3CC(S)C3)c2[nH]1

>  <gnina_score>  (1915) 
5.258

>  <inspiration_score>  (1915) 
None

>  <energy_score>  (1915) 
-9.730061

>  <distance_score>  (1915) 
1.088135

>  <gnina_score_min>  (1915) 
5.242

>  <inchikey>  (1915) 
ILKFTIADPIDEJO-UHFFFAOYSA-N

>  <exports>  (1915) 
['/opt/xchem-fragalysis-2/maxwin/BulkDock/OUTPUTS/openbind_a71ev2a_c2_elabs_1LOUU54.sdf', '/opt/xchem-fragalysis-2/maxwin/BulkDock/OUTPUTS/openbind_a71ev2a_c2_elabs_1LSYIDY.sdf']

>  <name>  (1915) 
P585796

>  <ref_pdb>  (1915) 
A0566a

>  <subsites>  (1915) 
None

>  <HIPPO Pose ID>  (1915) 
585796

>  <ref_mols>  (1915) 
A0566a

>  <HIPPO Compound ID>  (1915) 
440988

>  <tags>  (1915) 
openbind_a71ev2a_c2_elabs,syndirella_product,openbind_a71ev2a_c2_elabs_fragonly_scored_top80percent,openbind_a71ev2a_c2_elabs_scored,BulkDock Fragalysis export,openbind_a71ev2a_c2_elabs_scored_top80percent,openbind_a71ev2a_c2_elabs_activefrags_only_scored_5.2plus,syndirella_placed

>  <smina_score_min>  (1915) 
-4.829

$$$$
P585798
     RDKit          3D

 21 22  0  0  0  0  0  0  0  0999 V2000
    2.5101   12.6578   28.4623 C   0  0  0  0  0  0  0  0  0  0  0  0
    3.6268   13.6180   28.1003 C   0  0  0  0  0  0  0  0  0  0  0  0
    4.6099   12.8944   27.3518 O   0  0  0  0  0  0  0  0  0  0  0  0
    5.6370   13.6668   26.8986 C   0  0  0  0  0  0  0  0  0  0  0  0
    5.7772   14.8605   27.1237 O   0  0  0  0  0  0  0  0  0  0  0  0
    6.5484   12.8705   26.1178 C   0  0  0  0  0  0  0  0  0  0  0  0
    6.6028   11.5056   25.8972 C   0  0  0  0  0  0  0  0  0  0  0  0
    7.6824   11.2360   25.0191 C   0  0  0  0  0  0  0  0  0  0  0  0
    8.2156   10.0630   24.4592 C   0  0  0  0  0  0  0  0  0  0  0  0
    9.2793   10.1336   23.5624 C   0  0  0  0  0  0  0  0  0  0  0  0
    9.8601   11.3618   23.2866 C   0  0  0  0  0  0  0  0  0  0  0  0
    9.3980   12.5428   23.8868 C   0  0  0  0  0  0  0  0  0  0  0  0
   10.1524   13.8122   23.7780 C   0  0  0  0  0  0  0  0  0  0  0  0
   10.2687   14.4709   24.7306 O   0  0  0  0  0  0  0  0  0  0  0  0
   10.7481   13.9771   22.3796 N   0  0  0  0  0  0  0  0  0  0  0  0
   11.6851   14.9280   21.8769 C   0  0  0  0  0  0  0  0  0  0  0  0
   12.0741   14.5959   20.4467 C   0  0  0  0  0  0  0  0  0  0  0  0
   10.9769   14.8685   19.5101 N   0  0  0  0  0  0  0  0  0  0  0  0
   11.5776   14.7536   18.1887 O   0  0  0  0  0  0  0  0  0  0  0  0
    8.2831   12.4531   24.7231 C   0  0  0  0  0  0  0  0  0  0  0  0
    7.5958   13.4234   25.4150 N   0  0  0  0  0  0  0  0  0  0  0  0
  1  2  1  0
  2  3  1  0
  3  4  1  0
  4  5  2  0
  4  6  1  0
  6  7  2  0
  7  8  1  0
  8  9  2  0
  9 10  1  0
 10 11  2  0
 11 12  1  0
 12 13  1  0
 13 14  2  0
 13 15  1  0
 15 16  1  0
 16 17  1  0
 17 18  1  0
 18 19  1  0
 12 20  2  0
 20 21  1  0
 21  6  1  0
 20  8  1  0
M  END
>  <alias>  (1916) 
None

>  <rmsd(smina/fragmenstein)>  (1916) 
1.625

>  <smiles>  (1916) 
CCOC(=O)c1cc2cccc(C(=O)NCCNO)c2[nH]1

>  <gnina_score>  (1916) 
5.305

>  <inspiration_score>  (1916) 
None

>  <energy_score>  (1916) 
-23.060218

>  <distance_score>  (1916) 
1.004097

>  <gnina_score_min>  (1916) 
5.504

>  <inchikey>  (1916) 
FJWKJUNDZXPFCN-UHFFFAOYSA-N

>  <exports>  (1916) 
['/opt/xchem-fragalysis-2/maxwin/BulkDock/OUTPUTS/openbind_a71ev2a_c2_elabs_1LOUU54.sdf', '/opt/xchem-fragalysis-2/maxwin/BulkDock/OUTPUTS/openbind_a71ev2a_c2_elabs_1LSYIDY.sdf']

>  <name>  (1916) 
P585798

>  <ref_pdb>  (1916) 
A0566a

>  <subsites>  (1916) 
None

>  <HIPPO Pose ID>  (1916) 
585798

>  <ref_mols>  (1916) 
A0566a

>  <HIPPO Compound ID>  (1916) 
440991

>  <tags>  (1916) 
openbind_a71ev2a_c2_elabs,syndirella_product,openbind_a71ev2a_c2_elabs_fragonly_scored_top80percent,BulkDock Fragalysis export,openbind_a71ev2a_c2_elabs_scored,openbind_a71ev2a_c2_elabs_scored_top80percent,openbind_a71ev2a_c2_elabs_activefrags_only_scored_5.2plus,openbind_a71ev2a_c2_elabs_activefrags_only_scored_5.5plus,syndirella_placed

>  <smina_score_min>  (1916) 
-6.35

$$$$
P585799
     RDKit          3D

 21 22  0  0  0  0  0  0  0  0999 V2000
    2.7943   14.4917   27.0482 C   0  0  0  0  0  0  0  0  0  0  0  0
    3.8464   13.9424   27.9935 C   0  0  0  0  0  0  0  0  0  0  0  0
    4.8151   13.1795   27.2606 O   0  0  0  0  0  0  0  0  0  0  0  0
    5.8508   13.8944   26.7387 C   0  0  0  0  0  0  0  0  0  0  0  0
    6.0386   15.0921   26.8944 O   0  0  0  0  0  0  0  0  0  0  0  0
    6.7138   13.0283   25.9771 C   0  0  0  0  0  0  0  0  0  0  0  0
    6.7161   11.6534   25.8241 C   0  0  0  0  0  0  0  0  0  0  0  0
    7.7757   11.3026   24.9499 C   0  0  0  0  0  0  0  0  0  0  0  0
    8.2572   10.0840   24.4461 C   0  0  0  0  0  0  0  0  0  0  0  0
    9.3127   10.0756   23.5385 C   0  0  0  0  0  0  0  0  0  0  0  0
    9.9235   11.2695   23.1839 C   0  0  0  0  0  0  0  0  0  0  0  0
    9.5137   12.4980   23.7117 C   0  0  0  0  0  0  0  0  0  0  0  0
   10.2443   13.7656   23.4512 C   0  0  0  0  0  0  0  0  0  0  0  0
   10.2336   14.5731   24.2912 O   0  0  0  0  0  0  0  0  0  0  0  0
   10.8942   13.7843   22.0613 N   0  0  0  0  0  0  0  0  0  0  0  0
   11.5821   14.8238   21.3765 C   0  0  0  0  0  0  0  0  0  0  0  0
   10.6303   15.5318   20.5278 C   0  0  0  0  0  0  0  0  0  0  0  0
    9.9761   16.2488   19.8234 C   0  0  0  0  0  0  0  0  0  0  0  0
    9.2250   17.5914   18.7056 Br  0  0  0  0  0  0  0  0  0  0  0  0
    8.4124   12.4815   24.5779 C   0  0  0  0  0  0  0  0  0  0  0  0
    7.7581   13.5092   25.2200 N   0  0  0  0  0  0  0  0  0  0  0  0
  1  2  1  0
  2  3  1  0
  3  4  1  0
  4  5  2  0
  4  6  1  0
  6  7  2  0
  7  8  1  0
  8  9  2  0
  9 10  1  0
 10 11  2  0
 11 12  1  0
 12 13  1  0
 13 14  2  0
 13 15  1  0
 15 16  1  0
 16 17  1  0
 17 18  3  0
 18 19  1  0
 12 20  2  0
 20 21  1  0
 21  6  1  0
 20  8  1  0
M  END
>  <alias>  (1917) 
None

>  <rmsd(smina/fragmenstein)>  (1917) 
1.823

>  <smiles>  (1917) 
CCOC(=O)c1cc2cccc(C(=O)NCC#CBr)c2[nH]1

>  <gnina_score>  (1917) 
5.393

>  <inspiration_score>  (1917) 
None

>  <energy_score>  (1917) 
-4.009147

>  <distance_score>  (1917) 
0.993192

>  <gnina_score_min>  (1917) 
5.235

>  <inchikey>  (1917) 
CGRNQJKYDYQURP-UHFFFAOYSA-N

>  <exports>  (1917) 
['/opt/xchem-fragalysis-2/maxwin/BulkDock/OUTPUTS/openbind_a71ev2a_c2_elabs_1LOUU54.sdf', '/opt/xchem-fragalysis-2/maxwin/BulkDock/OUTPUTS/openbind_a71ev2a_c2_elabs_1LSYIDY.sdf']

>  <name>  (1917) 
P585799

>  <ref_pdb>  (1917) 
A0566a

>  <subsites>  (1917) 
None

>  <HIPPO Pose ID>  (1917) 
585799

>  <ref_mols>  (1917) 
A0566a

>  <HIPPO Compound ID>  (1917) 
440992

>  <tags>  (1917) 
openbind_a71ev2a_c2_elabs,syndirella_product,openbind_a71ev2a_c2_elabs_fragonly_scored_top80percent,openbind_a71ev2a_c2_elabs_scored,BulkDock Fragalysis export,openbind_a71ev2a_c2_elabs_scored_top80percent,openbind_a71ev2a_c2_elabs_activefrags_only_scored_5.2plus,syndirella_placed

>  <smina_score_min>  (1917) 
-6.268

$$$$
P585802
     RDKit          3D

 21 22  0  0  0  0  0  0  0  0999 V2000
    4.0232   13.0746   29.6865 C   0  0  0  0  0  0  0  0  0  0  0  0
    3.5801   13.0424   28.2361 C   0  0  0  0  0  0  0  0  0  0  0  0
    4.6028   12.4529   27.4207 O   0  0  0  0  0  0  0  0  0  0  0  0
    5.5487   13.3158   26.9547 C   0  0  0  0  0  0  0  0  0  0  0  0
    5.6022   14.5122   27.2008 O   0  0  0  0  0  0  0  0  0  0  0  0
    6.5023   12.6107   26.1370 C   0  0  0  0  0  0  0  0  0  0  0  0
    6.6503   11.2625   25.8647 C   0  0  0  0  0  0  0  0  0  0  0  0
    7.7438   11.1025   24.9761 C   0  0  0  0  0  0  0  0  0  0  0  0
    8.3504    9.9979   24.3597 C   0  0  0  0  0  0  0  0  0  0  0  0
    9.4205   10.1747   23.4837 C   0  0  0  0  0  0  0  0  0  0  0  0
    9.9311   11.4485   23.2717 C   0  0  0  0  0  0  0  0  0  0  0  0
    9.3800   12.5658   23.9109 C   0  0  0  0  0  0  0  0  0  0  0  0
    9.9492   13.9267   23.7970 C   0  0  0  0  0  0  0  0  0  0  0  0
    9.8191   14.6476   24.7022 O   0  0  0  0  0  0  0  0  0  0  0  0
   10.5462   14.1738   22.4086 N   0  0  0  0  0  0  0  0  0  0  0  0
   11.1923   15.3242   21.8695 C   0  0  0  0  0  0  0  0  0  0  0  0
   10.1786   16.1120   21.0378 C   0  0  0  0  0  0  0  0  0  0  0  0
    9.8577   15.5648   19.6681 C   0  0  0  0  0  0  0  0  0  0  0  0
   11.4775   14.7265   18.6799 I   0  0  0  0  0  0  0  0  0  0  0  0
    8.2654   12.3634   24.7335 C   0  0  0  0  0  0  0  0  0  0  0  0
    7.4999   13.2595   25.4458 N   0  0  0  0  0  0  0  0  0  0  0  0
  1  2  1  0
  2  3  1  0
  3  4  1  0
  4  5  2  0
  4  6  1  0
  6  7  2  0
  7  8  1  0
  8  9  2  0
  9 10  1  0
 10 11  2  0
 11 12  1  0
 12 13  1  0
 13 14  2  0
 13 15  1  0
 15 16  1  0
 16 17  1  0
 17 18  1  0
 18 19  1  0
 12 20  2  0
 20 21  1  0
 21  6  1  0
 20  8  1  0
M  END
>  <alias>  (1918) 
None

>  <rmsd(smina/fragmenstein)>  (1918) 
0.653

>  <smiles>  (1918) 
CCOC(=O)c1cc2cccc(C(=O)NCCCI)c2[nH]1

>  <gnina_score>  (1918) 
5.192

>  <inspiration_score>  (1918) 
None

>  <energy_score>  (1918) 
-4.117149

>  <distance_score>  (1918) 
1.118917

>  <gnina_score_min>  (1918) 
5.234

>  <inchikey>  (1918) 
NYWZQRSXXIDPKA-UHFFFAOYSA-N

>  <exports>  (1918) 
['/opt/xchem-fragalysis-2/maxwin/BulkDock/OUTPUTS/openbind_a71ev2a_c2_elabs_1LOUU54.sdf', '/opt/xchem-fragalysis-2/maxwin/BulkDock/OUTPUTS/openbind_a71ev2a_c2_elabs_1LSYIDY.sdf']

>  <name>  (1918) 
P585802

>  <ref_pdb>  (1918) 
A0566a

>  <subsites>  (1918) 
None

>  <HIPPO Pose ID>  (1918) 
585802

>  <ref_mols>  (1918) 
A0566a

>  <HIPPO Compound ID>  (1918) 
440996

>  <tags>  (1918) 
openbind_a71ev2a_c2_elabs,syndirella_product,openbind_a71ev2a_c2_elabs_fragonly_scored_top80percent,openbind_a71ev2a_c2_elabs_scored,BulkDock Fragalysis export,openbind_a71ev2a_c2_elabs_scored_top80percent,openbind_a71ev2a_c2_elabs_activefrags_only_scored_5.2plus,syndirella_placed

>  <smina_score_min>  (1918) 
-4.112

$$$$
P585803
     RDKit          3D

 21 22  0  0  0  0  0  0  0  0999 V2000
    2.5766   12.0804   28.7016 C   0  0  0  0  0  0  0  0  0  0  0  0
    3.5900   13.1254   28.2771 C   0  0  0  0  0  0  0  0  0  0  0  0
    4.5780   12.4846   27.4617 O   0  0  0  0  0  0  0  0  0  0  0  0
    5.5312   13.3355   26.9865 C   0  0  0  0  0  0  0  0  0  0  0  0
    5.5921   14.5324   27.2289 O   0  0  0  0  0  0  0  0  0  0  0  0
    6.4742   12.6187   26.1667 C   0  0  0  0  0  0  0  0  0  0  0  0
    6.6138   11.2667   25.9062 C   0  0  0  0  0  0  0  0  0  0  0  0
    7.7003   11.0920   25.0119 C   0  0  0  0  0  0  0  0  0  0  0  0
    8.3029    9.9792   24.4045 C   0  0  0  0  0  0  0  0  0  0  0  0
    9.3682   10.1421   23.5183 C   0  0  0  0  0  0  0  0  0  0  0  0
    9.8753   11.4118   23.2826 C   0  0  0  0  0  0  0  0  0  0  0  0
    9.3225   12.5352   23.9100 C   0  0  0  0  0  0  0  0  0  0  0  0
    9.9001   13.8847   23.7757 C   0  0  0  0  0  0  0  0  0  0  0  0
    9.8550   14.6010   24.6963 O   0  0  0  0  0  0  0  0  0  0  0  0
   10.4198   14.1272   22.3458 N   0  0  0  0  0  0  0  0  0  0  0  0
   11.0435   15.2070   21.8043 N   0  0  0  0  0  0  0  0  0  0  0  0
   12.4496   14.9206   21.5726 C   0  0  0  0  0  0  0  0  0  0  0  0
   10.2745   15.7385   20.6726 C   0  0  0  0  0  0  0  0  0  0  0  0
   10.6570   15.2184   19.2976 C   0  0  0  0  0  0  0  0  0  0  0  0
    8.2198   12.3490   24.7487 C   0  0  0  0  0  0  0  0  0  0  0  0
    7.4687   13.2571   25.4604 N   0  0  0  0  0  0  0  0  0  0  0  0
  1  2  1  0
  2  3  1  0
  3  4  1  0
  4  5  2  0
  4  6  1  0
  6  7  2  0
  7  8  1  0
  8  9  2  0
  9 10  1  0
 10 11  2  0
 11 12  1  0
 12 13  1  0
 13 14  2  0
 13 15  1  0
 15 16  1  0
 16 17  1  0
 16 18  1  0
 18 19  1  0
 12 20  2  0
 20 21  1  0
 21  6  1  0
 20  8  1  0
M  END
>  <alias>  (1919) 
None

>  <rmsd(smina/fragmenstein)>  (1919) 
0.58

>  <smiles>  (1919) 
CCOC(=O)c1cc2cccc(C(=O)NN(C)CC)c2[nH]1

>  <gnina_score>  (1919) 
5.388

>  <inspiration_score>  (1919) 
None

>  <energy_score>  (1919) 
-24.045014

>  <distance_score>  (1919) 
1.162175

>  <gnina_score_min>  (1919) 
5.373

>  <inchikey>  (1919) 
HVAPRSQKVPQPLB-UHFFFAOYSA-N

>  <exports>  (1919) 
['/opt/xchem-fragalysis-2/maxwin/BulkDock/OUTPUTS/openbind_a71ev2a_c2_elabs_1LOUU54.sdf', '/opt/xchem-fragalysis-2/maxwin/BulkDock/OUTPUTS/openbind_a71ev2a_c2_elabs_1LSYIDY.sdf']

>  <name>  (1919) 
P585803

>  <ref_pdb>  (1919) 
A0566a

>  <subsites>  (1919) 
None

>  <HIPPO Pose ID>  (1919) 
585803

>  <ref_mols>  (1919) 
A0566a

>  <HIPPO Compound ID>  (1919) 
440997

>  <tags>  (1919) 
openbind_a71ev2a_c2_elabs,syndirella_product,openbind_a71ev2a_c2_elabs_fragonly_scored_top80percent,openbind_a71ev2a_c2_elabs_scored,BulkDock Fragalysis export,openbind_a71ev2a_c2_elabs_scored_top80percent,openbind_a71ev2a_c2_elabs_activefrags_only_scored_5.2plus,syndirella_placed

>  <smina_score_min>  (1919) 
-5.843

$$$$
P585805
     RDKit          3D

 21 24  0  0  0  0  0  0  0  0999 V2000
    4.0617   11.6968   28.8250 C   0  0  0  0  0  0  0  0  0  0  0  0
    5.2773   12.3040   28.1280 C   0  0  2  0  0  0  0  0  0  0  0  0
    4.9497   13.7184   27.5869 C   0  0  0  0  0  0  0  0  0  0  0  0
    6.1791   14.4009   26.9582 C   0  0  0  0  0  0  0  0  0  0  0  0
    6.9272   13.4213   26.1264 C   0  0  0  0  0  0  0  0  0  0  0  0
    7.9322   13.7397   25.2630 N   0  0  0  0  0  0  0  0  0  0  0  0
    8.4389   12.5871   24.7022 C   0  0  0  0  0  0  0  0  0  0  0  0
    9.5146   12.4068   23.8312 C   0  0  0  0  0  0  0  0  0  0  0  0
   10.4090   13.5451   23.5090 C   0  0  0  0  0  0  0  0  0  0  0  0
   10.5510   14.4053   24.2839 O   0  0  0  0  0  0  0  0  0  0  0  0
   10.9862   13.3720   22.0957 N   0  0  0  0  0  0  0  0  0  0  0  0
   11.9031   14.1441   21.3940 C   0  0  2  0  0  0  0  0  0  0  0  0
   12.2915   15.5282   21.7139 C   0  0  0  0  0  0  0  0  0  0  0  0
   11.3757   15.2508   20.5371 C   0  0  2  0  0  0  0  0  0  0  0  0
    9.9562   15.7093   20.5785 C   0  0  0  0  0  0  0  0  0  0  0  0
    9.7530   11.1111   23.3576 C   0  0  0  0  0  0  0  0  0  0  0  0
    8.9978   10.0365   23.7882 C   0  0  0  0  0  0  0  0  0  0  0  0
    7.9830   10.2221   24.7256 C   0  0  0  0  0  0  0  0  0  0  0  0
    7.6833   11.5174   25.1807 C   0  0  0  0  0  0  0  0  0  0  0  0
    6.7653   12.0522   26.1222 C   0  0  0  0  0  0  0  0  0  0  0  0
    5.7698   11.3699   26.9950 C   0  0  0  0  0  0  0  0  0  0  0  0
  2  1  1  6
  2  3  1  0
  3  4  1  0
  4  5  1  0
  5  6  1  0
  6  7  1  0
  7  8  2  0
  8  9  1  0
  9 10  2  0
  9 11  1  0
 12 11  1  1
 12 13  1  0
 13 14  1  0
 14 15  1  1
  8 16  1  0
 16 17  2  0
 17 18  1  0
 18 19  2  0
 19 20  1  0
 20 21  1  0
 21  2  1  0
 20  5  2  0
 19  7  1  0
 14 12  1  0
M  END
>  <alias>  (1920) 
None

>  <rmsd(smina/fragmenstein)>  (1920) 
0.296

>  <smiles>  (1920) 
C[C@@H]1CCc2[nH]c3c(C(=O)N[C@@H]4C[C@@H]4C)cccc3c2C1

>  <gnina_score>  (1920) 
5.472

>  <inspiration_score>  (1920) 
None

>  <energy_score>  (1920) 
-21.317845

>  <distance_score>  (1920) 
1.113182

>  <gnina_score_min>  (1920) 
5.574

>  <inchikey>  (1920) 
RQRQLLKETQILPU-OHUAYANFSA-N

>  <exports>  (1920) 
['/opt/xchem-fragalysis-2/maxwin/BulkDock/OUTPUTS/openbind_a71ev2a_c2_elabs_1LOUU54.sdf', '/opt/xchem-fragalysis-2/maxwin/BulkDock/OUTPUTS/openbind_a71ev2a_c2_elabs_1LSYIDY.sdf']

>  <name>  (1920) 
P585805

>  <ref_pdb>  (1920) 
A0566a

>  <subsites>  (1920) 
None

>  <HIPPO Pose ID>  (1920) 
585805

>  <ref_mols>  (1920) 
A0566a

>  <HIPPO Compound ID>  (1920) 
440999

>  <tags>  (1920) 
openbind_a71ev2a_c2_elabs,syndirella_product,openbind_a71ev2a_c2_elabs_fragonly_scored_top80percent,BulkDock Fragalysis export,openbind_a71ev2a_c2_elabs_scored,openbind_a71ev2a_c2_elabs_scored_top80percent,openbind_a71ev2a_c2_elabs_activefrags_only_scored_5.2plus,openbind_a71ev2a_c2_elabs_activefrags_only_scored_5.5plus,syndirella_placed

>  <smina_score_min>  (1920) 
-6.931

$$$$
P585814
     RDKit          3D

 21 23  0  0  0  0  0  0  0  0999 V2000
   12.4910   15.0304   21.7682 C   0  0  0  0  0  0  0  0  0  0  0  0
   11.3962   14.7483   20.7509 C   0  0  0  0  0  0  0  0  0  0  0  0
   10.3097   15.8185   20.7267 C   0  0  0  0  0  0  0  0  0  0  0  0
    8.9086   15.3575   21.0985 C   0  0  0  0  0  0  0  0  0  0  0  0
    8.7957   14.2758   22.0312 N   0  0  0  0  0  0  0  0  0  0  0  0
    9.5382   14.0122   23.3440 C   0  0  0  0  0  0  0  0  0  0  0  0
   10.3058   14.6668   23.9201 O   0  0  0  0  0  0  0  0  0  0  0  0
    9.1461   12.6939   23.8336 C   0  0  0  0  0  0  0  0  0  0  0  0
    9.7004   11.5363   23.2866 C   0  0  0  0  0  0  0  0  0  0  0  0
    9.2150   10.2934   23.6691 C   0  0  0  0  0  0  0  0  0  0  0  0
    8.1941   10.2031   24.6280 C   0  0  0  0  0  0  0  0  0  0  0  0
    7.6440   11.3682   25.2026 C   0  0  0  0  0  0  0  0  0  0  0  0
    6.6637   11.6476   26.1965 C   0  0  0  0  0  0  0  0  0  0  0  0
    6.5449   13.0199   26.2871 C   0  0  0  0  0  0  0  0  0  0  0  0
    7.4114   13.5902   25.4051 N   0  0  0  0  0  0  0  0  0  0  0  0
    8.1251   12.6012   24.7703 C   0  0  0  0  0  0  0  0  0  0  0  0
    5.6529   13.7804   27.2036 C   0  0  0  0  0  0  0  0  0  0  0  0
    4.6213   12.8329   27.8416 C   0  0  0  0  0  0  0  0  0  0  0  0
    5.2533   11.4867   28.2692 C   0  0  1  0  0  0  0  0  0  0  0  0
    4.2330   10.6111   28.9927 C   0  0  0  0  0  0  0  0  0  0  0  0
    5.8482   10.7371   27.0513 C   0  0  0  0  0  0  0  0  0  0  0  0
  1  2  1  0
  2  3  1  0
  3  4  1  0
  4  5  1  0
  5  6  1  0
  6  7  2  0
  6  8  1  0
  8  9  2  0
  9 10  1  0
 10 11  2  0
 11 12  1  0
 12 13  1  0
 13 14  2  0
 14 15  1  0
 15 16  1  0
 14 17  1  0
 17 18  1  0
 18 19  1  0
 19 20  1  6
 19 21  1  0
 16  8  1  0
 16 12  2  0
 21 13  1  0
M  END
>  <alias>  (1921) 
None

>  <rmsd(smina/fragmenstein)>  (1921) 
0.512

>  <smiles>  (1921) 
CCCCNC(=O)c1cccc2c3c([nH]c12)CC[C@@H](C)C3

>  <gnina_score>  (1921) 
5.38

>  <inspiration_score>  (1921) 
None

>  <energy_score>  (1921) 
-10.361814

>  <distance_score>  (1921) 
1.64547

>  <gnina_score_min>  (1921) 
5.464

>  <inchikey>  (1921) 
IMDWBQMMFUEZOL-GFCCVEGCSA-N

>  <exports>  (1921) 
['/opt/xchem-fragalysis-2/maxwin/BulkDock/OUTPUTS/openbind_a71ev2a_c2_elabs_1LOUU54.sdf', '/opt/xchem-fragalysis-2/maxwin/BulkDock/OUTPUTS/openbind_a71ev2a_c2_elabs_1LSYIDY.sdf']

>  <name>  (1921) 
P585814

>  <ref_pdb>  (1921) 
A0566a

>  <subsites>  (1921) 
None

>  <HIPPO Pose ID>  (1921) 
585814

>  <ref_mols>  (1921) 
A0566a

>  <HIPPO Compound ID>  (1921) 
441002

>  <tags>  (1921) 
openbind_a71ev2a_c2_elabs,syndirella_product,openbind_a71ev2a_c2_elabs_fragonly_scored_top80percent,openbind_a71ev2a_c2_elabs_scored,BulkDock Fragalysis export,openbind_a71ev2a_c2_elabs_scored_top80percent,openbind_a71ev2a_c2_elabs_activefrags_only_scored_5.2plus,syndirella_placed

>  <smina_score_min>  (1921) 
-6.263

$$$$
P585824
     RDKit          3D

 21 24  0  0  0  0  0  0  0  0999 V2000
    4.1705   10.6871   28.8799 C   0  0  0  0  0  0  0  0  0  0  0  0
    4.7758   11.5452   27.7704 C   0  0  1  0  0  0  0  0  0  0  0  0
    5.3635   12.8542   28.3501 C   0  0  0  0  0  0  0  0  0  0  0  0
    5.8878   13.7797   27.2386 C   0  0  0  0  0  0  0  0  0  0  0  0
    6.7123   12.9862   26.2904 C   0  0  0  0  0  0  0  0  0  0  0  0
    7.6214   13.5143   25.4269 N   0  0  0  0  0  0  0  0  0  0  0  0
    8.2652   12.4966   24.7557 C   0  0  0  0  0  0  0  0  0  0  0  0
    9.3339   12.5581   23.8557 C   0  0  0  0  0  0  0  0  0  0  0  0
    9.9586   13.8740   23.5922 C   0  0  0  0  0  0  0  0  0  0  0  0
    9.9726   14.6598   24.4523 O   0  0  0  0  0  0  0  0  0  0  0  0
   10.4063   13.9916   22.1309 N   0  0  0  0  0  0  0  0  0  0  0  0
   11.0557   15.0717   21.4354 C   0  0  0  0  0  0  0  0  0  0  0  0
   12.1998   14.6060   20.5415 C   0  0  0  0  0  0  0  0  0  0  0  0
   11.3236   14.8620   19.3066 C   0  0  0  0  0  0  0  0  0  0  0  0
   10.2736   15.5394   20.1975 C   0  0  0  0  0  0  0  0  0  0  0  0
    9.7873   11.3628   23.2896 C   0  0  0  0  0  0  0  0  0  0  0  0
    9.2044   10.1495   23.6320 C   0  0  0  0  0  0  0  0  0  0  0  0
    8.1674   10.1080   24.5720 C   0  0  0  0  0  0  0  0  0  0  0  0
    7.6770   11.2960   25.1446 C   0  0  0  0  0  0  0  0  0  0  0  0
    6.6998   11.6155   26.1333 C   0  0  0  0  0  0  0  0  0  0  0  0
    5.8368   10.7349   26.9793 C   0  0  0  0  0  0  0  0  0  0  0  0
  2  1  1  1
  2  3  1  0
  3  4  1  0
  4  5  1  0
  5  6  1  0
  6  7  1  0
  7  8  2  0
  8  9  1  0
  9 10  2  0
  9 11  1  0
 11 12  1  0
 12 13  1  0
 13 14  1  0
 14 15  1  0
  8 16  1  0
 16 17  2  0
 17 18  1  0
 18 19  2  0
 19 20  1  0
 20 21  1  0
 21  2  1  0
 20  5  2  0
 19  7  1  0
 15 12  1  0
M  END
>  <alias>  (1922) 
None

>  <rmsd(smina/fragmenstein)>  (1922) 
0.392

>  <smiles>  (1922) 
C[C@H]1CCc2[nH]c3c(C(=O)NC4CCC4)cccc3c2C1

>  <gnina_score>  (1922) 
5.422

>  <inspiration_score>  (1922) 
None

>  <energy_score>  (1922) 
-10.638887

>  <distance_score>  (1922) 
1.183268

>  <gnina_score_min>  (1922) 
5.514

>  <inchikey>  (1922) 
WZFSSZQSTBYBCP-NSHDSACASA-N

>  <exports>  (1922) 
['/opt/xchem-fragalysis-2/maxwin/BulkDock/OUTPUTS/openbind_a71ev2a_c2_elabs_1LOUU54.sdf', '/opt/xchem-fragalysis-2/maxwin/BulkDock/OUTPUTS/openbind_a71ev2a_c2_elabs_1LSYIDY.sdf']

>  <name>  (1922) 
P585824

>  <ref_pdb>  (1922) 
A0566a

>  <subsites>  (1922) 
None

>  <HIPPO Pose ID>  (1922) 
585824

>  <ref_mols>  (1922) 
A0566a

>  <HIPPO Compound ID>  (1922) 
441009

>  <tags>  (1922) 
openbind_a71ev2a_c2_elabs,syndirella_product,openbind_a71ev2a_c2_elabs_fragonly_scored_top80percent,BulkDock Fragalysis export,openbind_a71ev2a_c2_elabs_scored,openbind_a71ev2a_c2_elabs_scored_top80percent,openbind_a71ev2a_c2_elabs_activefrags_only_scored_5.2plus,openbind_a71ev2a_c2_elabs_activefrags_only_scored_5.5plus,syndirella_placed

>  <smina_score_min>  (1922) 
-7.294

$$$$
P585825
     RDKit          3D

 21 23  0  0  0  0  0  0  0  0999 V2000
    4.2877   10.9242   28.8960 C   0  0  0  0  0  0  0  0  0  0  0  0
    5.3809   11.7120   28.1781 C   0  0  2  0  0  0  0  0  0  0  0  0
    4.8712   13.1173   27.7734 C   0  0  0  0  0  0  0  0  0  0  0  0
    5.9796   13.9775   27.1390 C   0  0  0  0  0  0  0  0  0  0  0  0
    6.7977   13.1501   26.2123 C   0  0  0  0  0  0  0  0  0  0  0  0
    7.7363   13.6444   25.3580 N   0  0  0  0  0  0  0  0  0  0  0  0
    8.3576   12.6010   24.7081 C   0  0  0  0  0  0  0  0  0  0  0  0
    9.4262   12.6137   23.8134 C   0  0  0  0  0  0  0  0  0  0  0  0
   10.1568   13.8722   23.5775 C   0  0  0  0  0  0  0  0  0  0  0  0
   10.4439   14.5336   24.4905 O   0  0  0  0  0  0  0  0  0  0  0  0
   10.4179   14.0747   22.0858 N   0  0  0  0  0  0  0  0  0  0  0  0
   11.1723   15.0879   21.3977 C   0  0  1  0  0  0  0  0  0  0  0  0
   12.5524   14.5320   21.1392 C   0  0  0  0  0  0  0  0  0  0  0  0
   10.4635   15.5305   20.1185 C   0  0  0  0  0  0  0  0  0  0  0  0
    9.3744   16.9425   20.4535 S   0  0  0  0  0  0  0  0  0  0  0  0
    9.8348   11.4035   23.2462 C   0  0  0  0  0  0  0  0  0  0  0  0
    9.2187   10.2099   23.5976 C   0  0  0  0  0  0  0  0  0  0  0  0
    8.1922   10.2070   24.5487 C   0  0  0  0  0  0  0  0  0  0  0  0
    7.7425   11.4175   25.1106 C   0  0  0  0  0  0  0  0  0  0  0  0
    6.7852   11.7751   26.1003 C   0  0  0  0  0  0  0  0  0  0  0  0
    5.8902   10.9312   26.9413 C   0  0  0  0  0  0  0  0  0  0  0  0
  2  1  1  6
  2  3  1  0
  3  4  1  0
  4  5  1  0
  5  6  1  0
  6  7  1  0
  7  8  2  0
  8  9  1  0
  9 10  2  0
  9 11  1  0
 11 12  1  0
 12 13  1  6
 12 14  1  0
 14 15  1  0
  8 16  1  0
 16 17  2  0
 17 18  1  0
 18 19  2  0
 19 20  1  0
 20 21  1  0
 21  2  1  0
 20  5  2  0
 19  7  1  0
M  END
>  <alias>  (1923) 
None

>  <rmsd(smina/fragmenstein)>  (1923) 
0.329

>  <smiles>  (1923) 
C[C@@H]1CCc2[nH]c3c(C(=O)N[C@@H](C)CS)cccc3c2C1

>  <gnina_score>  (1923) 
5.73

>  <inspiration_score>  (1923) 
None

>  <energy_score>  (1923) 
-20.239807

>  <distance_score>  (1923) 
1.049086

>  <gnina_score_min>  (1923) 
5.747

>  <inchikey>  (1923) 
IGCXPHRDDWMGSG-MNOVXSKESA-N

>  <exports>  (1923) 
['/opt/xchem-fragalysis-2/maxwin/BulkDock/OUTPUTS/openbind_a71ev2a_c2_elabs_1LOUU54.sdf', '/opt/xchem-fragalysis-2/maxwin/BulkDock/OUTPUTS/openbind_a71ev2a_c2_elabs_1LSYIDY.sdf']

>  <name>  (1923) 
P585825

>  <ref_pdb>  (1923) 
A0566a

>  <subsites>  (1923) 
None

>  <HIPPO Pose ID>  (1923) 
585825

>  <ref_mols>  (1923) 
A0566a

>  <HIPPO Compound ID>  (1923) 
441010

>  <tags>  (1923) 
openbind_a71ev2a_c2_elabs,syndirella_product,openbind_a71ev2a_c2_elabs_fragonly_scored_top80percent,BulkDock Fragalysis export,openbind_a71ev2a_c2_elabs_scored,openbind_a71ev2a_c2_elabs_scored_top80percent,openbind_a71ev2a_c2_elabs_activefrags_only_scored_5.2plus,openbind_a71ev2a_c2_elabs_activefrags_only_scored_5.5plus,syndirella_placed

>  <smina_score_min>  (1923) 
-6.934

$$$$
P585830
     RDKit          3D

 21 23  0  0  0  0  0  0  0  0999 V2000
    6.0539   11.6773   29.3721 C   0  0  0  0  0  0  0  0  0  0  0  0
    5.1499   11.5947   28.1374 C   0  0  1  0  0  0  0  0  0  0  0  0
    4.6725   12.9992   27.6930 C   0  0  0  0  0  0  0  0  0  0  0  0
    5.8060   13.8896   27.1539 C   0  0  0  0  0  0  0  0  0  0  0  0
    6.6878   13.0875   26.2650 C   0  0  0  0  0  0  0  0  0  0  0  0
    7.6329   13.6117   25.4368 N   0  0  0  0  0  0  0  0  0  0  0  0
    8.2786   12.5906   24.7773 C   0  0  0  0  0  0  0  0  0  0  0  0
    9.3445   12.6344   23.8834 C   0  0  0  0  0  0  0  0  0  0  0  0
   10.0477   13.9060   23.6589 C   0  0  0  0  0  0  0  0  0  0  0  0
   10.3862   14.5405   24.5718 O   0  0  0  0  0  0  0  0  0  0  0  0
   10.2269   14.1491   22.1645 N   0  0  0  0  0  0  0  0  0  0  0  0
   10.9432   15.1764   21.4665 C   0  0  0  0  0  0  0  0  0  0  0  0
   12.1437   14.5972   20.7432 C   0  0  2  0  0  0  0  0  0  0  0  0
   13.2104   15.3908   21.0159 F   0  0  0  0  0  0  0  0  0  0  0  0
   11.8237   14.5038   19.0091 Cl  0  0  0  0  0  0  0  0  0  0  0  0
    9.7821   11.4454   23.2916 C   0  0  0  0  0  0  0  0  0  0  0  0
    9.1924   10.2347   23.6276 C   0  0  0  0  0  0  0  0  0  0  0  0
    8.1685   10.1969   24.5827 C   0  0  0  0  0  0  0  0  0  0  0  0
    7.6919   11.3884   25.1649 C   0  0  0  0  0  0  0  0  0  0  0  0
    6.7234   11.7125   26.1571 C   0  0  0  0  0  0  0  0  0  0  0  0
    5.8438   10.8325   26.9798 C   0  0  0  0  0  0  0  0  0  0  0  0
  2  1  1  1
  2  3  1  0
  3  4  1  0
  4  5  1  0
  5  6  1  0
  6  7  1  0
  7  8  2  0
  8  9  1  0
  9 10  2  0
  9 11  1  0
 11 12  1  0
 12 13  1  0
 13 14  1  6
 13 15  1  0
  8 16  1  0
 16 17  2  0
 17 18  1  0
 18 19  2  0
 19 20  1  0
 20 21  1  0
 21  2  1  0
 20  5  2  0
 19  7  1  0
M  END
>  <alias>  (1924) 
None

>  <rmsd(smina/fragmenstein)>  (1924) 
0.238

>  <smiles>  (1924) 
C[C@H]1CCc2[nH]c3c(C(=O)NC[C@H](F)Cl)cccc3c2C1

>  <gnina_score>  (1924) 
5.23

>  <inspiration_score>  (1924) 
None

>  <energy_score>  (1924) 
-23.243334

>  <distance_score>  (1924) 
1.125714

>  <gnina_score_min>  (1924) 
5.411

>  <inchikey>  (1924) 
OCWRQHSPGAZJLO-XPTSAGLGSA-N

>  <exports>  (1924) 
['/opt/xchem-fragalysis-2/maxwin/BulkDock/OUTPUTS/openbind_a71ev2a_c2_elabs_1LOUU54.sdf', '/opt/xchem-fragalysis-2/maxwin/BulkDock/OUTPUTS/openbind_a71ev2a_c2_elabs_1LSYIDY.sdf']

>  <name>  (1924) 
P585830

>  <ref_pdb>  (1924) 
A0566a

>  <subsites>  (1924) 
None

>  <HIPPO Pose ID>  (1924) 
585830

>  <ref_mols>  (1924) 
A0566a

>  <HIPPO Compound ID>  (1924) 
441012

>  <tags>  (1924) 
openbind_a71ev2a_c2_elabs,syndirella_product,openbind_a71ev2a_c2_elabs_fragonly_scored_top80percent,openbind_a71ev2a_c2_elabs_scored,BulkDock Fragalysis export,openbind_a71ev2a_c2_elabs_scored_top80percent,openbind_a71ev2a_c2_elabs_activefrags_only_scored_5.2plus,syndirella_placed

>  <smina_score_min>  (1924) 
-6.671

$$$$
P585833
     RDKit          3D

 21 23  0  0  0  0  0  0  0  0999 V2000
    6.1034   11.8499   29.3577 C   0  0  0  0  0  0  0  0  0  0  0  0
    5.1783   11.7428   28.1409 C   0  0  1  0  0  0  0  0  0  0  0  0
    4.6965   13.1379   27.6711 C   0  0  0  0  0  0  0  0  0  0  0  0
    5.8229   14.0162   27.0971 C   0  0  0  0  0  0  0  0  0  0  0  0
    6.7003   13.1936   26.2219 C   0  0  0  0  0  0  0  0  0  0  0  0
    7.6326   13.6983   25.3659 N   0  0  0  0  0  0  0  0  0  0  0  0
    8.2795   12.6611   24.7359 C   0  0  0  0  0  0  0  0  0  0  0  0
    9.3205   12.6740   23.8165 C   0  0  0  0  0  0  0  0  0  0  0  0
    9.9525   13.9376   23.4155 C   0  0  0  0  0  0  0  0  0  0  0  0
   10.5212   14.5889   24.1914 O   0  0  0  0  0  0  0  0  0  0  0  0
    9.7961   14.1056   21.9061 N   0  0  0  0  0  0  0  0  0  0  0  0
   10.3811   15.0544   21.0110 C   0  0  0  0  0  0  0  0  0  0  0  0
   11.8403   14.6933   20.7868 C   0  0  2  0  0  0  0  0  0  0  0  0
   12.7381   15.3254   21.8239 C   0  0  0  0  0  0  0  0  0  0  0  0
   12.1808   15.0832   19.5347 F   0  0  0  0  0  0  0  0  0  0  0  0
    9.7705   11.4631   23.2773 C   0  0  0  0  0  0  0  0  0  0  0  0
    9.1927   10.2618   23.6604 C   0  0  0  0  0  0  0  0  0  0  0  0
    8.1708   10.2559   24.6163 C   0  0  0  0  0  0  0  0  0  0  0  0
    7.7026   11.4666   25.1671 C   0  0  0  0  0  0  0  0  0  0  0  0
    6.7350   11.8162   26.1493 C   0  0  0  0  0  0  0  0  0  0  0  0
    5.8506   10.9557   26.9878 C   0  0  0  0  0  0  0  0  0  0  0  0
  2  1  1  1
  2  3  1  0
  3  4  1  0
  4  5  1  0
  5  6  1  0
  6  7  1  0
  7  8  2  0
  8  9  1  0
  9 10  2  0
  9 11  1  0
 11 12  1  0
 12 13  1  0
 13 14  1  1
 13 15  1  0
  8 16  1  0
 16 17  2  0
 17 18  1  0
 18 19  2  0
 19 20  1  0
 20 21  1  0
 21  2  1  0
 20  5  2  0
 19  7  1  0
M  END
>  <alias>  (1925) 
None

>  <rmsd(smina/fragmenstein)>  (1925) 
0.341

>  <smiles>  (1925) 
C[C@H]1CCc2[nH]c3c(C(=O)NC[C@H](C)F)cccc3c2C1

>  <gnina_score>  (1925) 
5.415

>  <inspiration_score>  (1925) 
None

>  <energy_score>  (1925) 
-21.770453

>  <distance_score>  (1925) 
1.260743

>  <gnina_score_min>  (1925) 
5.377

>  <inchikey>  (1925) 
GYGYFEKJSGSWGQ-QWRGUYRKSA-N

>  <exports>  (1925) 
['/opt/xchem-fragalysis-2/maxwin/BulkDock/OUTPUTS/openbind_a71ev2a_c2_elabs_1LOUU54.sdf', '/opt/xchem-fragalysis-2/maxwin/BulkDock/OUTPUTS/openbind_a71ev2a_c2_elabs_1LSYIDY.sdf']

>  <name>  (1925) 
P585833

>  <ref_pdb>  (1925) 
A0566a

>  <subsites>  (1925) 
None

>  <HIPPO Pose ID>  (1925) 
585833

>  <ref_mols>  (1925) 
A0566a

>  <HIPPO Compound ID>  (1925) 
441014

>  <tags>  (1925) 
openbind_a71ev2a_c2_elabs,syndirella_product,openbind_a71ev2a_c2_elabs_fragonly_scored_top80percent,openbind_a71ev2a_c2_elabs_scored,BulkDock Fragalysis export,openbind_a71ev2a_c2_elabs_scored_top80percent,openbind_a71ev2a_c2_elabs_activefrags_only_scored_5.2plus,syndirella_placed

>  <smina_score_min>  (1925) 
-6.794

$$$$
P585838
     RDKit          3D

 21 23  0  0  0  0  0  0  0  0999 V2000
    4.3262   10.8434   28.8786 C   0  0  0  0  0  0  0  0  0  0  0  0
    5.4123   11.6395   28.1592 C   0  0  2  0  0  0  0  0  0  0  0  0
    4.8991   13.0489   27.7746 C   0  0  0  0  0  0  0  0  0  0  0  0
    6.0021   13.9163   27.1408 C   0  0  0  0  0  0  0  0  0  0  0  0
    6.8190   13.0983   26.2049 C   0  0  0  0  0  0  0  0  0  0  0  0
    7.7640   13.5995   25.3636 N   0  0  0  0  0  0  0  0  0  0  0  0
    8.3961   12.5636   24.7087 C   0  0  0  0  0  0  0  0  0  0  0  0
    9.4842   12.5948   23.8311 C   0  0  0  0  0  0  0  0  0  0  0  0
   10.1949   13.8779   23.6301 C   0  0  0  0  0  0  0  0  0  0  0  0
   10.2566   14.6113   24.5318 O   0  0  0  0  0  0  0  0  0  0  0  0
   10.6517   14.0471   22.1824 N   0  0  0  0  0  0  0  0  0  0  0  0
   11.3616   15.1066   21.5553 C   0  0  0  0  0  0  0  0  0  0  0  0
   10.3905   15.7086   20.5948 C   0  0  0  0  0  0  0  0  0  0  0  0
   10.4418   15.5640   19.2695 C   0  0  0  0  0  0  0  0  0  0  0  0
   11.6233   14.6148   18.4917 Cl  0  0  0  0  0  0  0  0  0  0  0  0
    9.8829   11.3929   23.2425 C   0  0  0  0  0  0  0  0  0  0  0  0
    9.2583   10.1950   23.5696 C   0  0  0  0  0  0  0  0  0  0  0  0
    8.2263   10.1766   24.5146 C   0  0  0  0  0  0  0  0  0  0  0  0
    7.7721   11.3783   25.0887 C   0  0  0  0  0  0  0  0  0  0  0  0
    6.8071   11.7249   26.0764 C   0  0  0  0  0  0  0  0  0  0  0  0
    5.9100   10.8742   26.9080 C   0  0  0  0  0  0  0  0  0  0  0  0
  2  1  1  6
  2  3  1  0
  3  4  1  0
  4  5  1  0
  5  6  1  0
  6  7  1  0
  7  8  2  0
  8  9  1  0
  9 10  2  0
  9 11  1  0
 11 12  1  0
 12 13  1  0
 13 14  2  0
 14 15  1  0
  8 16  1  0
 16 17  2  0
 17 18  1  0
 18 19  2  0
 19 20  1  0
 20 21  1  0
 21  2  1  0
 20  5  2  0
 19  7  1  0
M  END
>  <alias>  (1926) 
None

>  <rmsd(smina/fragmenstein)>  (1926) 
0.243

>  <smiles>  (1926) 
C[C@@H]1CCc2[nH]c3c(C(=O)NC/C=C\Cl)cccc3c2C1

>  <gnina_score>  (1926) 
5.596

>  <inspiration_score>  (1926) 
None

>  <energy_score>  (1926) 
-12.714665

>  <distance_score>  (1926) 
1.018632

>  <gnina_score_min>  (1926) 
5.606

>  <inchikey>  (1926) 
HQFPTEVHDJMZSN-UVYAAXSVSA-N

>  <exports>  (1926) 
['/opt/xchem-fragalysis-2/maxwin/BulkDock/OUTPUTS/openbind_a71ev2a_c2_elabs_1LOUU54.sdf', '/opt/xchem-fragalysis-2/maxwin/BulkDock/OUTPUTS/openbind_a71ev2a_c2_elabs_1LSYIDY.sdf']

>  <name>  (1926) 
P585838

>  <ref_pdb>  (1926) 
A0566a

>  <subsites>  (1926) 
None

>  <HIPPO Pose ID>  (1926) 
585838

>  <ref_mols>  (1926) 
A0566a

>  <HIPPO Compound ID>  (1926) 
441015

>  <tags>  (1926) 
openbind_a71ev2a_c2_elabs,syndirella_product,openbind_a71ev2a_c2_elabs_fragonly_scored_top80percent,BulkDock Fragalysis export,openbind_a71ev2a_c2_elabs_scored,openbind_a71ev2a_c2_elabs_scored_top80percent,openbind_a71ev2a_c2_elabs_activefrags_only_scored_5.2plus,openbind_a71ev2a_c2_elabs_activefrags_only_scored_5.5plus,syndirella_placed

>  <smina_score_min>  (1926) 
-6.77

$$$$
P585842
     RDKit          3D

 21 23  0  0  0  0  0  0  0  0999 V2000
    4.0853   11.4338   28.9426 C   0  0  0  0  0  0  0  0  0  0  0  0
    5.2561   12.0951   28.2187 C   0  0  2  0  0  0  0  0  0  0  0  0
    4.8561   13.4972   27.6950 C   0  0  0  0  0  0  0  0  0  0  0  0
    6.0405   14.2337   27.0415 C   0  0  0  0  0  0  0  0  0  0  0  0
    6.8057   13.2914   26.1831 C   0  0  0  0  0  0  0  0  0  0  0  0
    7.7764   13.6557   25.2994 N   0  0  0  0  0  0  0  0  0  0  0  0
    8.3139   12.5287   24.7156 C   0  0  0  0  0  0  0  0  0  0  0  0
    9.3847   12.3962   23.8293 C   0  0  0  0  0  0  0  0  0  0  0  0
   10.2685   13.5560   23.5721 C   0  0  0  0  0  0  0  0  0  0  0  0
   10.3971   14.3516   24.4116 O   0  0  0  0  0  0  0  0  0  0  0  0
   10.9545   13.4297   22.2136 N   0  0  0  0  0  0  0  0  0  0  0  0
   11.9972   14.1852   21.6397 C   0  0  0  0  0  0  0  0  0  0  0  0
   11.5605   15.0679   20.4978 C   0  0  2  0  0  0  0  0  0  0  0  0
   10.2276   15.7687   20.6751 C   0  0  0  0  0  0  0  0  0  0  0  0
   11.5695   14.3805   18.8389 S   0  0  0  0  0  0  0  0  0  0  0  0
    9.6832   11.1129   23.3552 C   0  0  0  0  0  0  0  0  0  0  0  0
    8.9766   10.0077   23.7886 C   0  0  0  0  0  0  0  0  0  0  0  0
    7.9626   10.1487   24.7352 C   0  0  0  0  0  0  0  0  0  0  0  0
    7.6151   11.4268   25.2036 C   0  0  0  0  0  0  0  0  0  0  0  0
    6.6991   11.9170   26.1714 C   0  0  0  0  0  0  0  0  0  0  0  0
    5.7594   11.1879   27.0686 C   0  0  0  0  0  0  0  0  0  0  0  0
  2  1  1  6
  2  3  1  0
  3  4  1  0
  4  5  1  0
  5  6  1  0
  6  7  1  0
  7  8  2  0
  8  9  1  0
  9 10  2  0
  9 11  1  0
 11 12  1  0
 12 13  1  0
 13 14  1  1
 13 15  1  0
  8 16  1  0
 16 17  2  0
 17 18  1  0
 18 19  2  0
 19 20  1  0
 20 21  1  0
 21  2  1  0
 20  5  2  0
 19  7  1  0
M  END
>  <alias>  (1927) 
None

>  <rmsd(smina/fragmenstein)>  (1927) 
0.394

>  <smiles>  (1927) 
C[C@@H]1CCc2[nH]c3c(C(=O)NC[C@H](C)S)cccc3c2C1

>  <gnina_score>  (1927) 
5.576

>  <inspiration_score>  (1927) 
None

>  <energy_score>  (1927) 
-9.831968

>  <distance_score>  (1927) 
1.135405

>  <gnina_score_min>  (1927) 
5.674

>  <inchikey>  (1927) 
VFSKKXIRBKIGMY-MNOVXSKESA-N

>  <exports>  (1927) 
['/opt/xchem-fragalysis-2/maxwin/BulkDock/OUTPUTS/openbind_a71ev2a_c2_elabs_1LOUU54.sdf', '/opt/xchem-fragalysis-2/maxwin/BulkDock/OUTPUTS/openbind_a71ev2a_c2_elabs_1LSYIDY.sdf']

>  <name>  (1927) 
P585842

>  <ref_pdb>  (1927) 
A0566a

>  <subsites>  (1927) 
None

>  <HIPPO Pose ID>  (1927) 
585842

>  <ref_mols>  (1927) 
A0566a

>  <HIPPO Compound ID>  (1927) 
441017

>  <tags>  (1927) 
openbind_a71ev2a_c2_elabs,syndirella_product,openbind_a71ev2a_c2_elabs_fragonly_scored_top80percent,BulkDock Fragalysis export,openbind_a71ev2a_c2_elabs_scored,openbind_a71ev2a_c2_elabs_scored_top80percent,openbind_a71ev2a_c2_elabs_activefrags_only_scored_5.2plus,openbind_a71ev2a_c2_elabs_activefrags_only_scored_5.5plus,syndirella_placed

>  <smina_score_min>  (1927) 
-6.315

$$$$
P585845
     RDKit          3D

 21 22  0  0  0  0  0  0  0  0999 V2000
    4.4588   15.2021   28.9354 C   0  0  0  0  0  0  0  0  0  0  0  0
    4.0514   14.9551   27.4952 C   0  0  0  0  0  0  0  0  0  0  0  0
    5.1038   14.2782   26.7947 O   0  0  0  0  0  0  0  0  0  0  0  0
    5.0948   12.9192   26.8683 C   0  0  0  0  0  0  0  0  0  0  0  0
    4.2911   12.2469   27.5017 O   0  0  0  0  0  0  0  0  0  0  0  0
    6.1835   12.3910   26.0853 C   0  0  0  0  0  0  0  0  0  0  0  0
    6.5735   11.0726   25.9240 C   0  0  0  0  0  0  0  0  0  0  0  0
    7.6408   11.0304   24.9919 C   0  0  0  0  0  0  0  0  0  0  0  0
    8.3993   10.0039   24.4080 C   0  0  0  0  0  0  0  0  0  0  0  0
    9.4196   10.2988   23.5025 C   0  0  0  0  0  0  0  0  0  0  0  0
    9.6861   11.6214   23.1756 C   0  0  0  0  0  0  0  0  0  0  0  0
    8.8896   12.6578   23.6834 C   0  0  0  0  0  0  0  0  0  0  0  0
    9.1383   14.0747   23.3751 C   0  0  0  0  0  0  0  0  0  0  0  0
    9.0470   14.8337   24.2540 O   0  0  0  0  0  0  0  0  0  0  0  0
    9.5832   14.2846   21.9207 N   0  0  0  0  0  0  0  0  0  0  0  0
   10.1031   15.4568   21.2594 C   0  0  2  0  0  0  0  0  0  0  0  0
   10.0889   15.3834   19.7426 C   0  0  0  0  0  0  0  0  0  0  0  0
   11.4801   15.6331   21.8979 C   0  0  0  0  0  0  0  0  0  0  0  0
   12.6236   14.4185   21.2683 S   0  0  0  0  0  0  0  0  0  0  0  0
    7.9008   12.3362   24.6137 C   0  0  0  0  0  0  0  0  0  0  0  0
    7.0330   13.1456   25.3088 N   0  0  0  0  0  0  0  0  0  0  0  0
  1  2  1  0
  2  3  1  0
  3  4  1  0
  4  5  2  0
  4  6  1  0
  6  7  2  0
  7  8  1  0
  8  9  2  0
  9 10  1  0
 10 11  2  0
 11 12  1  0
 12 13  1  0
 13 14  2  0
 13 15  1  0
 15 16  1  0
 16 17  1  6
 16 18  1  0
 18 19  1  0
 12 20  2  0
 20 21  1  0
 21  6  1  0
 20  8  1  0
M  END
>  <alias>  (1928) 
None

>  <rmsd(smina/fragmenstein)>  (1928) 
1.526

>  <smiles>  (1928) 
CCOC(=O)c1cc2cccc(C(=O)N[C@H](C)CS)c2[nH]1

>  <gnina_score>  (1928) 
5.347

>  <inspiration_score>  (1928) 
None

>  <energy_score>  (1928) 
-30.747743

>  <distance_score>  (1928) 
1.627709

>  <gnina_score_min>  (1928) 
5.277

>  <inchikey>  (1928) 
SEGBXEWUQWOSEP-SECBINFHSA-N

>  <exports>  (1928) 
['/opt/xchem-fragalysis-2/maxwin/BulkDock/OUTPUTS/openbind_a71ev2a_c2_elabs_1LOUU54.sdf', '/opt/xchem-fragalysis-2/maxwin/BulkDock/OUTPUTS/openbind_a71ev2a_c2_elabs_1LSYIDY.sdf']

>  <name>  (1928) 
P585845

>  <ref_pdb>  (1928) 
A0566a

>  <subsites>  (1928) 
None

>  <HIPPO Pose ID>  (1928) 
585845

>  <ref_mols>  (1928) 
A0566a

>  <HIPPO Compound ID>  (1928) 
441018

>  <tags>  (1928) 
openbind_a71ev2a_c2_elabs,syndirella_product,openbind_a71ev2a_c2_elabs_fragonly_scored_top80percent,openbind_a71ev2a_c2_elabs_scored,BulkDock Fragalysis export,openbind_a71ev2a_c2_elabs_scored_top80percent,openbind_a71ev2a_c2_elabs_activefrags_only_scored_5.2plus,syndirella_placed

>  <smina_score_min>  (1928) 
-5.154

$$$$
P585848
     RDKit          3D

 21 23  0  0  0  0  0  0  0  0999 V2000
    3.8691   12.1743   28.9862 C   0  0  0  0  0  0  0  0  0  0  0  0
    5.1258   12.6679   28.2724 C   0  0  2  0  0  0  0  0  0  0  0  0
    4.9013   14.0824   27.6813 C   0  0  0  0  0  0  0  0  0  0  0  0
    6.1768   14.6513   27.0318 C   0  0  0  0  0  0  0  0  0  0  0  0
    6.8488   13.5924   26.2324 C   0  0  0  0  0  0  0  0  0  0  0  0
    7.8726   13.8060   25.3593 N   0  0  0  0  0  0  0  0  0  0  0  0
    8.2880   12.6015   24.8379 C   0  0  0  0  0  0  0  0  0  0  0  0
    9.3553   12.3009   23.9946 C   0  0  0  0  0  0  0  0  0  0  0  0
   10.3962   13.3062   23.7214 C   0  0  0  0  0  0  0  0  0  0  0  0
   10.6435   14.1168   24.5181 O   0  0  0  0  0  0  0  0  0  0  0  0
   11.0577   13.0021   22.3797 N   0  0  0  0  0  0  0  0  0  0  0  0
   12.2059   13.5561   21.7769 C   0  0  0  0  0  0  0  0  0  0  0  0
   11.9774   14.9016   21.1588 C   0  0  2  0  0  0  0  0  0  0  0  0
   12.3730   15.8653   22.2218 C   0  0  0  0  0  0  0  0  0  0  0  0
   10.1652   15.2491   20.5503 Br  0  0  0  0  0  0  0  0  0  0  0  0
    9.5143   10.9799   23.5686 C   0  0  0  0  0  0  0  0  0  0  0  0
    8.6768    9.9934   24.0338 C   0  0  0  0  0  0  0  0  0  0  0  0
    7.6694   10.2794   24.9534 C   0  0  0  0  0  0  0  0  0  0  0  0
    7.4591   11.6075   25.3537 C   0  0  0  0  0  0  0  0  0  0  0  0
    6.5867   12.2397   26.2756 C   0  0  0  0  0  0  0  0  0  0  0  0
    5.5504   11.6602   27.1751 C   0  0  0  0  0  0  0  0  0  0  0  0
  2  1  1  6
  2  3  1  0
  3  4  1  0
  4  5  1  0
  5  6  1  0
  6  7  1  0
  7  8  2  0
  8  9  1  0
  9 10  2  0
  9 11  1  0
 11 12  1  0
 12 13  1  0
 13 14  1  1
 13 15  1  0
  8 16  1  0
 16 17  2  0
 17 18  1  0
 18 19  2  0
 19 20  1  0
 20 21  1  0
 21  2  1  0
 20  5  2  0
 19  7  1  0
M  END
>  <alias>  (1929) 
None

>  <rmsd(smina/fragmenstein)>  (1929) 
0.899

>  <smiles>  (1929) 
C[C@@H]1CCc2[nH]c3c(C(=O)NC[C@H](C)Br)cccc3c2C1

>  <gnina_score>  (1929) 
5.473

>  <inspiration_score>  (1929) 
None

>  <energy_score>  (1929) 
-5.052803

>  <distance_score>  (1929) 
1.330848

>  <gnina_score_min>  (1929) 
5.469

>  <inchikey>  (1929) 
XEBYHZGVAWZARH-MNOVXSKESA-N

>  <exports>  (1929) 
['/opt/xchem-fragalysis-2/maxwin/BulkDock/OUTPUTS/openbind_a71ev2a_c2_elabs_1LOUU54.sdf', '/opt/xchem-fragalysis-2/maxwin/BulkDock/OUTPUTS/openbind_a71ev2a_c2_elabs_1LSYIDY.sdf']

>  <name>  (1929) 
P585848

>  <ref_pdb>  (1929) 
A0566a

>  <subsites>  (1929) 
None

>  <HIPPO Pose ID>  (1929) 
585848

>  <ref_mols>  (1929) 
A0566a

>  <HIPPO Compound ID>  (1929) 
441019

>  <tags>  (1929) 
openbind_a71ev2a_c2_elabs,syndirella_product,openbind_a71ev2a_c2_elabs_fragonly_scored_top80percent,openbind_a71ev2a_c2_elabs_scored,BulkDock Fragalysis export,openbind_a71ev2a_c2_elabs_scored_top80percent,openbind_a71ev2a_c2_elabs_activefrags_only_scored_5.2plus,syndirella_placed

>  <smina_score_min>  (1929) 
-5.898

$$$$
P585850
     RDKit          3D

 21 23  0  0  0  0  0  0  0  0999 V2000
   12.7360   15.3215   21.7494 C   0  0  0  0  0  0  0  0  0  0  0  0
   11.9167   14.9166   20.7772 C   0  0  0  0  0  0  0  0  0  0  0  0
   12.4436   14.4270   19.6343 F   0  0  0  0  0  0  0  0  0  0  0  0
   10.4446   14.9846   20.9193 C   0  0  0  0  0  0  0  0  0  0  0  0
   10.1139   13.9106   21.7929 N   0  0  0  0  0  0  0  0  0  0  0  0
    9.6561   13.9209   23.2513 C   0  0  0  0  0  0  0  0  0  0  0  0
    9.5474   14.8033   24.0019 O   0  0  0  0  0  0  0  0  0  0  0  0
    9.2099   12.5798   23.6972 C   0  0  0  0  0  0  0  0  0  0  0  0
    9.7521   11.3778   23.2321 C   0  0  0  0  0  0  0  0  0  0  0  0
    9.2404   10.1564   23.6525 C   0  0  0  0  0  0  0  0  0  0  0  0
    8.2088   10.1138   24.5978 C   0  0  0  0  0  0  0  0  0  0  0  0
    7.6809   11.3055   25.1268 C   0  0  0  0  0  0  0  0  0  0  0  0
    6.7073   11.6321   26.1144 C   0  0  0  0  0  0  0  0  0  0  0  0
    6.6153   13.0074   26.1648 C   0  0  0  0  0  0  0  0  0  0  0  0
    7.4865   13.5290   25.2605 N   0  0  0  0  0  0  0  0  0  0  0  0
    8.1837   12.5102   24.6459 C   0  0  0  0  0  0  0  0  0  0  0  0
    5.7463   13.8143   27.0621 C   0  0  0  0  0  0  0  0  0  0  0  0
    4.7016   12.9078   27.7375 C   0  0  0  0  0  0  0  0  0  0  0  0
    5.3092   11.5616   28.1998 C   0  0  1  0  0  0  0  0  0  0  0  0
    4.2762   10.7291   28.9555 C   0  0  0  0  0  0  0  0  0  0  0  0
    5.8784   10.7643   26.9999 C   0  0  0  0  0  0  0  0  0  0  0  0
  1  2  2  0
  2  3  1  0
  2  4  1  0
  4  5  1  0
  5  6  1  0
  6  7  2  0
  6  8  1  0
  8  9  2  0
  9 10  1  0
 10 11  2  0
 11 12  1  0
 12 13  1  0
 13 14  2  0
 14 15  1  0
 15 16  1  0
 14 17  1  0
 17 18  1  0
 18 19  1  0
 19 20  1  6
 19 21  1  0
 16  8  1  0
 16 12  2  0
 21 13  1  0
M  END
>  <alias>  (1930) 
None

>  <rmsd(smina/fragmenstein)>  (1930) 
0.303

>  <smiles>  (1930) 
C=C(F)CNC(=O)c1cccc2c3c([nH]c12)CC[C@@H](C)C3

>  <gnina_score>  (1930) 
5.41

>  <inspiration_score>  (1930) 
None

>  <energy_score>  (1930) 
-22.407029

>  <distance_score>  (1930) 
1.415596

>  <gnina_score_min>  (1930) 
5.414

>  <inchikey>  (1930) 
DGXSYUNIFDDTAC-SNVBAGLBSA-N

>  <exports>  (1930) 
['/opt/xchem-fragalysis-2/maxwin/BulkDock/OUTPUTS/openbind_a71ev2a_c2_elabs_1LOUU54.sdf', '/opt/xchem-fragalysis-2/maxwin/BulkDock/OUTPUTS/openbind_a71ev2a_c2_elabs_1LSYIDY.sdf']

>  <name>  (1930) 
P585850

>  <ref_pdb>  (1930) 
A0566a

>  <subsites>  (1930) 
None

>  <HIPPO Pose ID>  (1930) 
585850

>  <ref_mols>  (1930) 
A0566a

>  <HIPPO Compound ID>  (1930) 
441020

>  <tags>  (1930) 
openbind_a71ev2a_c2_elabs,syndirella_product,openbind_a71ev2a_c2_elabs_fragonly_scored_top80percent,openbind_a71ev2a_c2_elabs_scored,BulkDock Fragalysis export,openbind_a71ev2a_c2_elabs_scored_top80percent,openbind_a71ev2a_c2_elabs_activefrags_only_scored_5.2plus,syndirella_placed

>  <smina_score_min>  (1930) 
-6.993

$$$$
P585852
     RDKit          3D

 21 23  0  0  0  0  0  0  0  0999 V2000
   10.8610   15.2603   19.0130 C   0  0  0  0  0  0  0  0  0  0  0  0
   10.5576   15.3475   20.4966 C   0  0  0  0  0  0  0  0  0  0  0  0
   11.5171   14.5278   21.2361 N   0  0  0  0  0  0  0  0  0  0  0  0
   12.5221   15.2589   21.9754 C   0  0  0  0  0  0  0  0  0  0  0  0
   10.8739   13.5979   21.9926 N   0  0  0  0  0  0  0  0  0  0  0  0
   10.2580   13.7050   23.4050 C   0  0  0  0  0  0  0  0  0  0  0  0
   10.2732   14.5858   24.1735 O   0  0  0  0  0  0  0  0  0  0  0  0
    9.4673   12.4946   23.7561 C   0  0  0  0  0  0  0  0  0  0  0  0
    9.7555   11.2114   23.2851 C   0  0  0  0  0  0  0  0  0  0  0  0
    9.0440   10.1071   23.7326 C   0  0  0  0  0  0  0  0  0  0  0  0
    8.0249   10.2524   24.6804 C   0  0  0  0  0  0  0  0  0  0  0  0
    7.6858   11.5323   25.1541 C   0  0  0  0  0  0  0  0  0  0  0  0
    6.7760   12.0381   26.1333 C   0  0  0  0  0  0  0  0  0  0  0  0
    6.9845   13.3994   26.2084 C   0  0  0  0  0  0  0  0  0  0  0  0
    7.9029   13.7530   25.2704 N   0  0  0  0  0  0  0  0  0  0  0  0
    8.4085   12.6211   24.6670 C   0  0  0  0  0  0  0  0  0  0  0  0
    6.3671   14.3382   27.1782 C   0  0  0  0  0  0  0  0  0  0  0  0
    5.9252   13.5319   28.4102 C   0  0  0  0  0  0  0  0  0  0  0  0
    5.0931   12.2802   28.0376 C   0  0  1  0  0  0  0  0  0  0  0  0
    3.7243   12.6943   27.4921 C   0  0  0  0  0  0  0  0  0  0  0  0
    5.8405   11.3247   27.0604 C   0  0  0  0  0  0  0  0  0  0  0  0
  1  2  1  0
  2  3  1  0
  3  4  1  0
  3  5  1  0
  5  6  1  0
  6  7  2  0
  6  8  1  0
  8  9  2  0
  9 10  1  0
 10 11  2  0
 11 12  1  0
 12 13  1  0
 13 14  2  0
 14 15  1  0
 15 16  1  0
 14 17  1  0
 17 18  1  0
 18 19  1  0
 19 20  1  6
 19 21  1  0
 16  8  1  0
 16 12  2  0
 21 13  1  0
M  END
>  <alias>  (1931) 
None

>  <rmsd(smina/fragmenstein)>  (1931) 
0.406

>  <smiles>  (1931) 
CCN(C)NC(=O)c1cccc2c3c([nH]c12)CC[C@@H](C)C3

>  <gnina_score>  (1931) 
5.801

>  <inspiration_score>  (1931) 
None

>  <energy_score>  (1931) 
-27.817933

>  <distance_score>  (1931) 
1.140049

>  <gnina_score_min>  (1931) 
5.896

>  <inchikey>  (1931) 
TWKUEFMRCXKCCH-LLVKDONJSA-N

>  <exports>  (1931) 
['/opt/xchem-fragalysis-2/maxwin/BulkDock/OUTPUTS/openbind_a71ev2a_c2_elabs_1LOUU54.sdf', '/opt/xchem-fragalysis-2/maxwin/BulkDock/OUTPUTS/openbind_a71ev2a_c2_elabs_1LSYIDY.sdf']

>  <name>  (1931) 
P585852

>  <ref_pdb>  (1931) 
A0566a

>  <subsites>  (1931) 
None

>  <HIPPO Pose ID>  (1931) 
585852

>  <ref_mols>  (1931) 
A0566a

>  <HIPPO Compound ID>  (1931) 
441023

>  <tags>  (1931) 
openbind_a71ev2a_c2_elabs,syndirella_product,openbind_a71ev2a_c2_elabs_fragonly_scored_top80percent,BulkDock Fragalysis export,openbind_a71ev2a_c2_elabs_scored,openbind_a71ev2a_c2_elabs_scored_top80percent,openbind_a71ev2a_c2_elabs_activefrags_only_scored_5.2plus,openbind_a71ev2a_c2_elabs_activefrags_only_scored_5.5plus,syndirella_placed

>  <smina_score_min>  (1931) 
-6.899

$$$$
P585853
     RDKit          3D

 21 23  0  0  0  0  0  0  0  0999 V2000
   13.1440   15.3023   21.6494 C   0  0  0  0  0  0  0  0  0  0  0  0
   12.0039   14.9325   22.5340 C   0  0  0  0  0  0  0  0  0  0  0  0
   12.3917   13.7034   23.3681 C   0  0  0  0  0  0  0  0  0  0  0  0
   10.7556   14.8095   21.6548 C   0  0  0  0  0  0  0  0  0  0  0  0
    9.9518   13.8389   22.2819 N   0  0  0  0  0  0  0  0  0  0  0  0
    9.2161   13.8731   23.6169 C   0  0  0  0  0  0  0  0  0  0  0  0
    9.0879   14.7359   24.3854 O   0  0  0  0  0  0  0  0  0  0  0  0
    8.6972   12.5262   23.9431 C   0  0  0  0  0  0  0  0  0  0  0  0
    9.3170   11.3447   23.4894 C   0  0  0  0  0  0  0  0  0  0  0  0
    8.8788   10.1041   23.9145 C   0  0  0  0  0  0  0  0  0  0  0  0
    7.8564   10.0200   24.8614 C   0  0  0  0  0  0  0  0  0  0  0  0
    7.2808   11.1835   25.4016 C   0  0  0  0  0  0  0  0  0  0  0  0
    6.3339   11.4558   26.4284 C   0  0  0  0  0  0  0  0  0  0  0  0
    6.2280   12.8272   26.5344 C   0  0  0  0  0  0  0  0  0  0  0  0
    7.0238   13.3977   25.5904 N   0  0  0  0  0  0  0  0  0  0  0  0
    7.7072   12.4121   24.9138 C   0  0  0  0  0  0  0  0  0  0  0  0
    5.3853   13.5799   27.5000 C   0  0  0  0  0  0  0  0  0  0  0  0
    4.9909   12.6518   28.6634 C   0  0  0  0  0  0  0  0  0  0  0  0
    4.5042   11.2728   28.1560 C   0  0  2  0  0  0  0  0  0  0  0  0
    4.0214   10.4049   29.3160 C   0  0  0  0  0  0  0  0  0  0  0  0
    5.6072   10.5333   27.3533 C   0  0  0  0  0  0  0  0  0  0  0  0
  1  2  1  0
  2  3  1  0
  2  4  1  0
  4  5  1  0
  5  6  1  0
  6  7  2  0
  6  8  1  0
  8  9  2  0
  9 10  1  0
 10 11  2  0
 11 12  1  0
 12 13  1  0
 13 14  2  0
 14 15  1  0
 15 16  1  0
 14 17  1  0
 17 18  1  0
 18 19  1  0
 19 20  1  1
 19 21  1  0
 16  8  1  0
 16 12  2  0
 21 13  1  0
M  END
>  <alias>  (1932) 
None

>  <rmsd(smina/fragmenstein)>  (1932) 
0.62

>  <smiles>  (1932) 
CC(C)CNC(=O)c1cccc2c3c([nH]c12)CC[C@H](C)C3

>  <gnina_score>  (1932) 
5.447

>  <inspiration_score>  (1932) 
None

>  <energy_score>  (1932) 
-24.535082

>  <distance_score>  (1932) 
1.698425

>  <gnina_score_min>  (1932) 
5.384

>  <inchikey>  (1932) 
CETXZTQGYZKUJZ-LBPRGKRZSA-N

>  <exports>  (1932) 
['/opt/xchem-fragalysis-2/maxwin/BulkDock/OUTPUTS/openbind_a71ev2a_c2_elabs_1LOUU54.sdf', '/opt/xchem-fragalysis-2/maxwin/BulkDock/OUTPUTS/openbind_a71ev2a_c2_elabs_1LSYIDY.sdf']

>  <name>  (1932) 
P585853

>  <ref_pdb>  (1932) 
A0566a

>  <subsites>  (1932) 
None

>  <HIPPO Pose ID>  (1932) 
585853

>  <ref_mols>  (1932) 
A0566a

>  <HIPPO Compound ID>  (1932) 
441025

>  <tags>  (1932) 
openbind_a71ev2a_c2_elabs,syndirella_product,openbind_a71ev2a_c2_elabs_fragonly_scored_top80percent,openbind_a71ev2a_c2_elabs_scored,BulkDock Fragalysis export,openbind_a71ev2a_c2_elabs_scored_top80percent,openbind_a71ev2a_c2_elabs_activefrags_only_scored_5.2plus,syndirella_placed

>  <smina_score_min>  (1932) 
-6.086

$$$$
P585856
     RDKit          3D

 21 24  0  0  0  0  0  0  0  0999 V2000
    6.0768   11.7611   29.3193 C   0  0  0  0  0  0  0  0  0  0  0  0
    5.1755   11.6547   28.0845 C   0  0  1  0  0  0  0  0  0  0  0  0
    4.7098   13.0515   27.6045 C   0  0  0  0  0  0  0  0  0  0  0  0
    5.8511   13.9196   27.0458 C   0  0  0  0  0  0  0  0  0  0  0  0
    6.7283   13.0889   26.1794 C   0  0  0  0  0  0  0  0  0  0  0  0
    7.6755   13.5844   25.3370 N   0  0  0  0  0  0  0  0  0  0  0  0
    8.3202   12.5434   24.7041 C   0  0  0  0  0  0  0  0  0  0  0  0
    9.3865   12.5674   23.8020 C   0  0  0  0  0  0  0  0  0  0  0  0
   10.0405   13.8600   23.5147 C   0  0  0  0  0  0  0  0  0  0  0  0
   10.1678   14.6201   24.3875 O   0  0  0  0  0  0  0  0  0  0  0  0
   10.3677   13.9948   22.0244 N   0  0  0  0  0  0  0  0  0  0  0  0
   11.0156   15.0686   21.2945 C   0  0  0  0  0  0  0  0  0  0  0  0
   12.2098   14.5765   20.4664 C   0  0  0  0  0  0  0  0  0  0  0  0
   11.3161   14.7967   18.9105 S   0  0  0  0  0  0  0  0  0  0  0  0
   10.1902   15.5775   20.0923 C   0  0  0  0  0  0  0  0  0  0  0  0
    9.8184   11.3557   23.2569 C   0  0  0  0  0  0  0  0  0  0  0  0
    9.2204   10.1578   23.6248 C   0  0  0  0  0  0  0  0  0  0  0  0
    8.1921   10.1495   24.5742 C   0  0  0  0  0  0  0  0  0  0  0  0
    7.7257   11.3573   25.1260 C   0  0  0  0  0  0  0  0  0  0  0  0
    6.7557   11.7119   26.1068 C   0  0  0  0  0  0  0  0  0  0  0  0
    5.8664   10.8589   26.9477 C   0  0  0  0  0  0  0  0  0  0  0  0
  2  1  1  1
  2  3  1  0
  3  4  1  0
  4  5  1  0
  5  6  1  0
  6  7  1  0
  7  8  2  0
  8  9  1  0
  9 10  2  0
  9 11  1  0
 11 12  1  0
 12 13  1  0
 13 14  1  0
 14 15  1  0
  8 16  1  0
 16 17  2  0
 17 18  1  0
 18 19  2  0
 19 20  1  0
 20 21  1  0
 21  2  1  0
 20  5  2  0
 19  7  1  0
 15 12  1  0
M  END
>  <alias>  (1933) 
None

>  <rmsd(smina/fragmenstein)>  (1933) 
0.279

>  <smiles>  (1933) 
C[C@H]1CCc2[nH]c3c(C(=O)NC4CSC4)cccc3c2C1

>  <gnina_score>  (1933) 
5.538

>  <inspiration_score>  (1933) 
None

>  <energy_score>  (1933) 
-14.276454

>  <distance_score>  (1933) 
1.139129

>  <gnina_score_min>  (1933) 
5.566

>  <inchikey>  (1933) 
DKCITTIYJZQYQY-JTQLQIEISA-N

>  <exports>  (1933) 
['/opt/xchem-fragalysis-2/maxwin/BulkDock/OUTPUTS/openbind_a71ev2a_c2_elabs_1LOUU54.sdf', '/opt/xchem-fragalysis-2/maxwin/BulkDock/OUTPUTS/openbind_a71ev2a_c2_elabs_1LSYIDY.sdf']

>  <name>  (1933) 
P585856

>  <ref_pdb>  (1933) 
A0566a

>  <subsites>  (1933) 
None

>  <HIPPO Pose ID>  (1933) 
585856

>  <ref_mols>  (1933) 
A0566a

>  <HIPPO Compound ID>  (1933) 
441026

>  <tags>  (1933) 
openbind_a71ev2a_c2_elabs,syndirella_product,openbind_a71ev2a_c2_elabs_fragonly_scored_top80percent,BulkDock Fragalysis export,openbind_a71ev2a_c2_elabs_scored,openbind_a71ev2a_c2_elabs_scored_top80percent,openbind_a71ev2a_c2_elabs_activefrags_only_scored_5.2plus,openbind_a71ev2a_c2_elabs_activefrags_only_scored_5.5plus,syndirella_placed

>  <smina_score_min>  (1933) 
-6.596

$$$$
P585857
     RDKit          3D

 21 23  0  0  0  0  0  0  0  0999 V2000
    9.3881   16.1449   20.3254 C   0  0  0  0  0  0  0  0  0  0  0  0
   10.3697   15.9111   19.3356 O   0  0  0  0  0  0  0  0  0  0  0  0
   11.2910   14.8593   19.6222 C   0  0  0  0  0  0  0  0  0  0  0  0
   11.7885   14.7240   21.0725 C   0  0  0  0  0  0  0  0  0  0  0  0
   10.9648   13.7906   21.8086 N   0  0  0  0  0  0  0  0  0  0  0  0
   10.4316   13.8495   23.2463 C   0  0  0  0  0  0  0  0  0  0  0  0
   10.5050   14.6943   24.0451 O   0  0  0  0  0  0  0  0  0  0  0  0
    9.6415   12.6339   23.6051 C   0  0  0  0  0  0  0  0  0  0  0  0
    9.9488   11.3542   23.1351 C   0  0  0  0  0  0  0  0  0  0  0  0
    9.2645   10.2226   23.5648 C   0  0  0  0  0  0  0  0  0  0  0  0
    8.2447   10.3409   24.5080 C   0  0  0  0  0  0  0  0  0  0  0  0
    7.8815   11.6134   24.9836 C   0  0  0  0  0  0  0  0  0  0  0  0
    6.9264   12.0871   25.9257 C   0  0  0  0  0  0  0  0  0  0  0  0
    7.0202   13.4622   25.9503 C   0  0  0  0  0  0  0  0  0  0  0  0
    8.0175   13.8417   25.1040 N   0  0  0  0  0  0  0  0  0  0  0  0
    8.5769   12.7292   24.5116 C   0  0  0  0  0  0  0  0  0  0  0  0
    6.2080   14.3949   26.7761 C   0  0  0  0  0  0  0  0  0  0  0  0
    4.9954   13.6464   27.3598 C   0  0  0  0  0  0  0  0  0  0  0  0
    5.3352   12.2278   27.8829 C   0  0  2  0  0  0  0  0  0  0  0  0
    6.2493   12.2859   29.1105 C   0  0  0  0  0  0  0  0  0  0  0  0
    5.9415   11.3444   26.7633 C   0  0  0  0  0  0  0  0  0  0  0  0
  1  2  1  0
  2  3  1  0
  3  4  1  0
  4  5  1  0
  5  6  1  0
  6  7  2  0
  6  8  1  0
  8  9  2  0
  9 10  1  0
 10 11  2  0
 11 12  1  0
 12 13  1  0
 13 14  2  0
 14 15  1  0
 15 16  1  0
 14 17  1  0
 17 18  1  0
 18 19  1  0
 19 20  1  1
 19 21  1  0
 16  8  1  0
 16 12  2  0
 21 13  1  0
M  END
>  <alias>  (1934) 
None

>  <rmsd(smina/fragmenstein)>  (1934) 
0.466

>  <smiles>  (1934) 
COCCNC(=O)c1cccc2c3c([nH]c12)CC[C@H](C)C3

>  <gnina_score>  (1934) 
5.486

>  <inspiration_score>  (1934) 
None

>  <energy_score>  (1934) 
-14.092472

>  <distance_score>  (1934) 
0.994252

>  <gnina_score_min>  (1934) 
5.59

>  <inchikey>  (1934) 
QGKQAILLDTXEKJ-NSHDSACASA-N

>  <exports>  (1934) 
['/opt/xchem-fragalysis-2/maxwin/BulkDock/OUTPUTS/openbind_a71ev2a_c2_elabs_1LOUU54.sdf', '/opt/xchem-fragalysis-2/maxwin/BulkDock/OUTPUTS/openbind_a71ev2a_c2_elabs_1LSYIDY.sdf']

>  <name>  (1934) 
P585857

>  <ref_pdb>  (1934) 
A0566a

>  <subsites>  (1934) 
None

>  <HIPPO Pose ID>  (1934) 
585857

>  <ref_mols>  (1934) 
A0566a

>  <HIPPO Compound ID>  (1934) 
441027

>  <tags>  (1934) 
openbind_a71ev2a_c2_elabs,syndirella_product,openbind_a71ev2a_c2_elabs_fragonly_scored_top80percent,BulkDock Fragalysis export,openbind_a71ev2a_c2_elabs_scored,openbind_a71ev2a_c2_elabs_scored_top80percent,openbind_a71ev2a_c2_elabs_activefrags_only_scored_5.2plus,openbind_a71ev2a_c2_elabs_activefrags_only_scored_5.5plus,syndirella_placed

>  <smina_score_min>  (1934) 
-6.66

$$$$
P585860
     RDKit          3D

 21 24  0  0  0  0  0  0  0  0999 V2000
    9.2825   17.1334   20.4090 C   0  0  0  0  0  0  0  0  0  0  0  0
    9.5344   15.8888   20.8002 C   0  0  0  0  0  0  0  0  0  0  0  0
    8.7539   14.8243   21.3864 C   0  0  0  0  0  0  0  0  0  0  0  0
   10.0546   13.9849   21.7655 N   0  0  0  0  0  0  0  0  0  0  0  0
   10.2200   13.8745   23.2497 C   0  0  0  0  0  0  0  0  0  0  0  0
   10.7911   14.5706   24.0058 O   0  0  0  0  0  0  0  0  0  0  0  0
    9.5271   12.6567   23.7030 C   0  0  0  0  0  0  0  0  0  0  0  0
    9.8760   11.4110   23.1768 C   0  0  0  0  0  0  0  0  0  0  0  0
    9.2369   10.2511   23.5906 C   0  0  0  0  0  0  0  0  0  0  0  0
    8.2256   10.3208   24.5523 C   0  0  0  0  0  0  0  0  0  0  0  0
    7.8337   11.5694   25.0754 C   0  0  0  0  0  0  0  0  0  0  0  0
    6.8791   11.9927   26.0393 C   0  0  0  0  0  0  0  0  0  0  0  0
    6.9488   13.3682   26.1152 C   0  0  0  0  0  0  0  0  0  0  0  0
    7.9138   13.8020   25.2552 N   0  0  0  0  0  0  0  0  0  0  0  0
    8.4915   12.7193   24.6322 C   0  0  0  0  0  0  0  0  0  0  0  0
    6.1497   14.2505   27.0074 C   0  0  0  0  0  0  0  0  0  0  0  0
    4.9880   13.4546   27.6313 C   0  0  0  0  0  0  0  0  0  0  0  0
    5.4207   12.0355   28.0775 C   0  0  1  0  0  0  0  0  0  0  0  0
    4.2713   11.3143   28.7775 C   0  0  0  0  0  0  0  0  0  0  0  0
    5.9254   11.2061   26.8711 C   0  0  0  0  0  0  0  0  0  0  0  0
   10.6628   14.9809   20.7559 C   0  0  0  0  0  0  0  0  0  0  0  0
  1  2  2  0
  2  3  1  0
  3  4  1  0
  4  5  1  0
  5  6  2  0
  5  7  1  0
  7  8  2  0
  8  9  1  0
  9 10  2  0
 10 11  1  0
 11 12  1  0
 12 13  2  0
 13 14  1  0
 14 15  1  0
 13 16  1  0
 16 17  1  0
 17 18  1  0
 18 19  1  6
 18 20  1  0
  4 21  1  0
 21  2  1  0
 15  7  1  0
 15 11  2  0
 20 12  1  0
M  END
>  <alias>  (1935) 
None

>  <rmsd(smina/fragmenstein)>  (1935) 
0.123

>  <smiles>  (1935) 
C=C1CN(C(=O)c2cccc3c4c([nH]c23)CC[C@@H](C)C4)C1

>  <gnina_score>  (1935) 
5.59

>  <inspiration_score>  (1935) 
None

>  <energy_score>  (1935) 
-22.782749

>  <distance_score>  (1935) 
1.1417

>  <gnina_score_min>  (1935) 
5.637

>  <inchikey>  (1935) 
IZJQTXAINWBGLI-LLVKDONJSA-N

>  <exports>  (1935) 
['/opt/xchem-fragalysis-2/maxwin/BulkDock/OUTPUTS/openbind_a71ev2a_c2_elabs_1LOUU54.sdf', '/opt/xchem-fragalysis-2/maxwin/BulkDock/OUTPUTS/openbind_a71ev2a_c2_elabs_1LSYIDY.sdf']

>  <name>  (1935) 
P585860

>  <ref_pdb>  (1935) 
A0566a

>  <subsites>  (1935) 
None

>  <HIPPO Pose ID>  (1935) 
585860

>  <ref_mols>  (1935) 
A0566a

>  <HIPPO Compound ID>  (1935) 
441028

>  <tags>  (1935) 
openbind_a71ev2a_c2_elabs,syndirella_product,openbind_a71ev2a_c2_elabs_fragonly_scored_top80percent,BulkDock Fragalysis export,openbind_a71ev2a_c2_elabs_scored,openbind_a71ev2a_c2_elabs_scored_top80percent,openbind_a71ev2a_c2_elabs_activefrags_only_scored_5.2plus,openbind_a71ev2a_c2_elabs_activefrags_only_scored_5.5plus,syndirella_placed

>  <smina_score_min>  (1935) 
-7.231

$$$$
P585861
     RDKit          3D

 21 23  0  0  0  0  0  0  0  0999 V2000
    4.2750   11.0855   28.7111 C   0  0  0  0  0  0  0  0  0  0  0  0
    4.8379   11.9225   27.5638 C   0  0  1  0  0  0  0  0  0  0  0  0
    5.3597   13.2827   28.0846 C   0  0  0  0  0  0  0  0  0  0  0  0
    5.8373   14.1819   26.9318 C   0  0  0  0  0  0  0  0  0  0  0  0
    6.7093   13.3904   26.0236 C   0  0  0  0  0  0  0  0  0  0  0  0
    7.5733   13.9282   25.1184 N   0  0  0  0  0  0  0  0  0  0  0  0
    8.2697   12.9196   24.4950 C   0  0  0  0  0  0  0  0  0  0  0  0
    9.3094   12.9780   23.5680 C   0  0  0  0  0  0  0  0  0  0  0  0
    9.8072   14.2625   23.0456 C   0  0  0  0  0  0  0  0  0  0  0  0
   10.8289   14.6751   23.4230 O   0  0  0  0  0  0  0  0  0  0  0  0
    8.8440   14.8085   21.9756 N   0  0  0  0  0  0  0  0  0  0  0  0
    8.9803   15.9276   21.0757 C   0  0  0  0  0  0  0  0  0  0  0  0
    9.8143   15.4954   19.9927 C   0  0  0  0  0  0  0  0  0  0  0  0
   10.8126   15.0156   19.5571 C   0  0  0  0  0  0  0  0  0  0  0  0
   12.4710   14.1828   19.6874 Br  0  0  0  0  0  0  0  0  0  0  0  0
    9.8843   11.7835   23.1306 C   0  0  0  0  0  0  0  0  0  0  0  0
    9.3782   10.5556   23.5453 C   0  0  0  0  0  0  0  0  0  0  0  0
    8.3246   10.5055   24.4659 C   0  0  0  0  0  0  0  0  0  0  0  0
    7.7705   11.7011   24.9694 C   0  0  0  0  0  0  0  0  0  0  0  0
    6.7699   12.0151   25.9353 C   0  0  0  0  0  0  0  0  0  0  0  0
    5.9347   11.1304   26.8041 C   0  0  0  0  0  0  0  0  0  0  0  0
  2  1  1  1
  2  3  1  0
  3  4  1  0
  4  5  1  0
  5  6  1  0
  6  7  1  0
  7  8  2  0
  8  9  1  0
  9 10  2  0
  9 11  1  0
 11 12  1  0
 12 13  1  0
 13 14  3  0
 14 15  1  0
  8 16  1  0
 16 17  2  0
 17 18  1  0
 18 19  2  0
 19 20  1  0
 20 21  1  0
 21  2  1  0
 20  5  2  0
 19  7  1  0
M  END
>  <alias>  (1936) 
None

>  <rmsd(smina/fragmenstein)>  (1936) 
0.581

>  <smiles>  (1936) 
C[C@H]1CCc2[nH]c3c(C(=O)NCC#CBr)cccc3c2C1

>  <gnina_score>  (1936) 
5.265

>  <inspiration_score>  (1936) 
None

>  <energy_score>  (1936) 
-3.186117

>  <distance_score>  (1936) 
1.545677

>  <gnina_score_min>  (1936) 
5.334

>  <inchikey>  (1936) 
YEIUZQAIBNPBMG-NSHDSACASA-N

>  <exports>  (1936) 
['/opt/xchem-fragalysis-2/maxwin/BulkDock/OUTPUTS/openbind_a71ev2a_c2_elabs_1LOUU54.sdf', '/opt/xchem-fragalysis-2/maxwin/BulkDock/OUTPUTS/openbind_a71ev2a_c2_elabs_1LSYIDY.sdf']

>  <name>  (1936) 
P585861

>  <ref_pdb>  (1936) 
A0566a

>  <subsites>  (1936) 
None

>  <HIPPO Pose ID>  (1936) 
585861

>  <ref_mols>  (1936) 
A0566a

>  <HIPPO Compound ID>  (1936) 
441029

>  <tags>  (1936) 
openbind_a71ev2a_c2_elabs,syndirella_product,openbind_a71ev2a_c2_elabs_fragonly_scored_top80percent,openbind_a71ev2a_c2_elabs_scored,BulkDock Fragalysis export,openbind_a71ev2a_c2_elabs_scored_top80percent,openbind_a71ev2a_c2_elabs_activefrags_only_scored_5.2plus,syndirella_placed

>  <smina_score_min>  (1936) 
-5.884

$$$$
P585862
     RDKit          3D

 21 23  0  0  0  0  0  0  0  0999 V2000
    3.7319   12.7171   27.4801 C   0  0  0  0  0  0  0  0  0  0  0  0
    5.1235   12.3476   27.9998 C   0  0  2  0  0  0  0  0  0  0  0  0
    5.9131   13.6248   28.3769 C   0  0  0  0  0  0  0  0  0  0  0  0
    6.3079   14.4605   27.1488 C   0  0  0  0  0  0  0  0  0  0  0  0
    6.9540   13.5573   26.1634 C   0  0  0  0  0  0  0  0  0  0  0  0
    7.8403   13.9624   25.2127 N   0  0  0  0  0  0  0  0  0  0  0  0
    8.3732   12.8589   24.5910 C   0  0  0  0  0  0  0  0  0  0  0  0
    9.3898   12.7670   23.6445 C   0  0  0  0  0  0  0  0  0  0  0  0
   10.0512   13.9754   23.1341 C   0  0  0  0  0  0  0  0  0  0  0  0
   10.9879   14.3969   23.6800 O   0  0  0  0  0  0  0  0  0  0  0  0
    9.3628   14.4333   21.8410 N   0  0  0  0  0  0  0  0  0  0  0  0
    9.7381   15.4550   20.8866 C   0  0  0  0  0  0  0  0  0  0  0  0
   10.8711   14.9973   19.9715 C   0  0  0  0  0  0  0  0  0  0  0  0
   12.0978   14.7937   20.7388 N   0  0  0  0  0  0  0  0  0  0  0  0
   12.9685   14.0792   19.8326 O   0  0  0  0  0  0  0  0  0  0  0  0
    9.7800   11.5077   23.1907 C   0  0  0  0  0  0  0  0  0  0  0  0
    9.1486   10.3622   23.6599 C   0  0  0  0  0  0  0  0  0  0  0  0
    8.1260   10.4618   24.6143 C   0  0  0  0  0  0  0  0  0  0  0  0
    7.7267   11.7270   25.0954 C   0  0  0  0  0  0  0  0  0  0  0  0
    6.7998   12.1884   26.0798 C   0  0  0  0  0  0  0  0  0  0  0  0
    5.8896   11.4324   26.9984 C   0  0  0  0  0  0  0  0  0  0  0  0
  2  1  1  6
  2  3  1  0
  3  4  1  0
  4  5  1  0
  5  6  1  0
  6  7  1  0
  7  8  2  0
  8  9  1  0
  9 10  2  0
  9 11  1  0
 11 12  1  0
 12 13  1  0
 13 14  1  0
 14 15  1  0
  8 16  1  0
 16 17  2  0
 17 18  1  0
 18 19  2  0
 19 20  1  0
 20 21  1  0
 21  2  1  0
 20  5  2  0
 19  7  1  0
M  END
>  <alias>  (1937) 
None

>  <rmsd(smina/fragmenstein)>  (1937) 
0.212

>  <smiles>  (1937) 
C[C@@H]1CCc2[nH]c3c(C(=O)NCCNO)cccc3c2C1

>  <gnina_score>  (1937) 
5.544

>  <inspiration_score>  (1937) 
None

>  <energy_score>  (1937) 
-19.858601

>  <distance_score>  (1937) 
1.348482

>  <gnina_score_min>  (1937) 
5.543

>  <inchikey>  (1937) 
QSNWXHBPASYFQQ-SNVBAGLBSA-N

>  <exports>  (1937) 
['/opt/xchem-fragalysis-2/maxwin/BulkDock/OUTPUTS/openbind_a71ev2a_c2_elabs_1LOUU54.sdf', '/opt/xchem-fragalysis-2/maxwin/BulkDock/OUTPUTS/openbind_a71ev2a_c2_elabs_1LSYIDY.sdf']

>  <name>  (1937) 
P585862

>  <ref_pdb>  (1937) 
A0566a

>  <subsites>  (1937) 
None

>  <HIPPO Pose ID>  (1937) 
585862

>  <ref_mols>  (1937) 
A0566a

>  <HIPPO Compound ID>  (1937) 
441030

>  <tags>  (1937) 
openbind_a71ev2a_c2_elabs,syndirella_product,openbind_a71ev2a_c2_elabs_fragonly_scored_top80percent,BulkDock Fragalysis export,openbind_a71ev2a_c2_elabs_scored,openbind_a71ev2a_c2_elabs_scored_top80percent,openbind_a71ev2a_c2_elabs_activefrags_only_scored_5.2plus,openbind_a71ev2a_c2_elabs_activefrags_only_scored_5.5plus,syndirella_placed

>  <smina_score_min>  (1937) 
-6.888

$$$$
P585864
     RDKit          3D

 21 24  0  0  0  0  0  0  0  0999 V2000
    3.8967   13.1702   27.8719 C   0  0  0  0  0  0  0  0  0  0  0  0
    4.8881   13.5329   26.7685 C   0  0  1  0  0  0  0  0  0  0  0  0
    5.6358   14.8461   27.1126 C   0  0  0  0  0  0  0  0  0  0  0  0
    6.5844   15.2942   25.9846 C   0  0  0  0  0  0  0  0  0  0  0  0
    7.3250   14.1187   25.4499 C   0  0  0  0  0  0  0  0  0  0  0  0
    8.3968   14.1851   24.6086 N   0  0  0  0  0  0  0  0  0  0  0  0
    8.7897   12.9185   24.2486 C   0  0  0  0  0  0  0  0  0  0  0  0
    9.8294   12.4744   23.4317 C   0  0  0  0  0  0  0  0  0  0  0  0
   10.8864   13.3000   22.7999 C   0  0  0  0  0  0  0  0  0  0  0  0
   11.9579   12.8180   22.7614 O   0  0  0  0  0  0  0  0  0  0  0  0
   10.3819   14.5848   22.2228 N   0  0  0  0  0  0  0  0  0  0  0  0
   11.1044   15.6868   21.5118 C   0  0  0  0  0  0  0  0  0  0  0  0
    9.8536   15.8961   20.6738 C   0  0  0  0  0  0  0  0  0  0  0  0
    9.9458   16.6146   19.0515 Cl  0  0  0  0  0  0  0  0  0  0  0  0
    9.8390   14.3890   20.7920 C   0  0  0  0  0  0  0  0  0  0  0  0
    9.8729   11.0970   23.1665 C   0  0  0  0  0  0  0  0  0  0  0  0
    9.0188   10.1911   23.7664 C   0  0  0  0  0  0  0  0  0  0  0  0
    8.0518   10.6396   24.6548 C   0  0  0  0  0  0  0  0  0  0  0  0
    7.9080   12.0219   24.8733 C   0  0  0  0  0  0  0  0  0  0  0  0
    7.0060   12.7935   25.6500 C   0  0  0  0  0  0  0  0  0  0  0  0
    5.8813   12.3682   26.5316 C   0  0  0  0  0  0  0  0  0  0  0  0
  2  1  1  1
  2  3  1  0
  3  4  1  0
  4  5  1  0
  5  6  1  0
  6  7  1  0
  7  8  2  0
  8  9  1  0
  9 10  2  0
  9 11  1  0
 11 12  1  0
 12 13  1  0
 13 14  1  0
 13 15  1  0
  8 16  1  0
 16 17  2  0
 17 18  1  0
 18 19  2  0
 19 20  1  0
 20 21  1  0
 21  2  1  0
 20  5  2  0
 19  7  1  0
 15 11  1  0
M  END
>  <alias>  (1938) 
None

>  <rmsd(smina/fragmenstein)>  (1938) 
0.513

>  <smiles>  (1938) 
C[C@H]1CCc2[nH]c3c(C(=O)N4CC(Cl)C4)cccc3c2C1

>  <gnina_score>  (1938) 
5.533

>  <inspiration_score>  (1938) 
None

>  <energy_score>  (1938) 
-4.308654

>  <distance_score>  (1938) 
1.082226

>  <gnina_score_min>  (1938) 
5.342

>  <inchikey>  (1938) 
OOFKXCIITVEYAA-JTQLQIEISA-N

>  <exports>  (1938) 
['/opt/xchem-fragalysis-2/maxwin/BulkDock/OUTPUTS/openbind_a71ev2a_c2_elabs_1LOUU54.sdf', '/opt/xchem-fragalysis-2/maxwin/BulkDock/OUTPUTS/openbind_a71ev2a_c2_elabs_1LSYIDY.sdf']

>  <name>  (1938) 
P585864

>  <ref_pdb>  (1938) 
A0566a

>  <subsites>  (1938) 
None

>  <HIPPO Pose ID>  (1938) 
585864

>  <ref_mols>  (1938) 
A0566a

>  <HIPPO Compound ID>  (1938) 
441031

>  <tags>  (1938) 
openbind_a71ev2a_c2_elabs,syndirella_product,openbind_a71ev2a_c2_elabs_fragonly_scored_top80percent,openbind_a71ev2a_c2_elabs_scored,BulkDock Fragalysis export,openbind_a71ev2a_c2_elabs_scored_top80percent,openbind_a71ev2a_c2_elabs_activefrags_only_scored_5.2plus,syndirella_placed

>  <smina_score_min>  (1938) 
-6.484

$$$$
P585865
     RDKit          3D

 21 24  0  0  0  0  0  0  0  0999 V2000
    4.0556   11.5518   28.5812 C   0  0  0  0  0  0  0  0  0  0  0  0
    4.7609   12.3373   27.4771 C   0  0  1  0  0  0  0  0  0  0  0  0
    5.3197   13.6699   28.0336 C   0  0  0  0  0  0  0  0  0  0  0  0
    5.9568   14.5301   26.9291 C   0  0  0  0  0  0  0  0  0  0  0  0
    6.8262   13.6763   26.0767 C   0  0  0  0  0  0  0  0  0  0  0  0
    7.7782   14.1500   25.2244 N   0  0  0  0  0  0  0  0  0  0  0  0
    8.4143   13.0955   24.6164 C   0  0  0  0  0  0  0  0  0  0  0  0
    9.4963   13.0729   23.7442 C   0  0  0  0  0  0  0  0  0  0  0  0
   10.2770   14.2701   23.3677 C   0  0  0  0  0  0  0  0  0  0  0  0
   11.1775   14.6076   24.0500 O   0  0  0  0  0  0  0  0  0  0  0  0
    9.7987   14.8126   22.0446 N   0  0  0  0  0  0  0  0  0  0  0  0
   10.2688   16.0287   21.2302 C   0  0  0  0  0  0  0  0  0  0  0  0
   10.0816   15.2232   19.9831 C   0  0  0  0  0  0  0  0  0  0  0  0
   11.3019   15.2550   18.6693 S   0  0  0  0  0  0  0  0  0  0  0  0
   10.4587   14.1240   20.9031 C   0  0  0  0  0  0  0  0  0  0  0  0
    9.9232   11.8270   23.2556 C   0  0  0  0  0  0  0  0  0  0  0  0
    9.2846   10.6449   23.6141 C   0  0  0  0  0  0  0  0  0  0  0  0
    8.2268   10.6801   24.5242 C   0  0  0  0  0  0  0  0  0  0  0  0
    7.7802   11.9172   25.0352 C   0  0  0  0  0  0  0  0  0  0  0  0
    6.7920   12.3007   25.9855 C   0  0  0  0  0  0  0  0  0  0  0  0
    5.8747   11.4761   26.8266 C   0  0  0  0  0  0  0  0  0  0  0  0
  2  1  1  1
  2  3  1  0
  3  4  1  0
  4  5  1  0
  5  6  1  0
  6  7  1  0
  7  8  2  0
  8  9  1  0
  9 10  2  0
  9 11  1  0
 11 12  1  0
 12 13  1  0
 13 14  1  0
 13 15  1  0
  8 16  1  0
 16 17  2  0
 17 18  1  0
 18 19  2  0
 19 20  1  0
 20 21  1  0
 21  2  1  0
 20  5  2  0
 19  7  1  0
 15 11  1  0
M  END
>  <alias>  (1939) 
None

>  <rmsd(smina/fragmenstein)>  (1939) 
0.247

>  <smiles>  (1939) 
C[C@H]1CCc2[nH]c3c(C(=O)N4CC(S)C4)cccc3c2C1

>  <gnina_score>  (1939) 
5.432

>  <inspiration_score>  (1939) 
None

>  <energy_score>  (1939) 
-12.69637

>  <distance_score>  (1939) 
1.202997

>  <gnina_score_min>  (1939) 
5.394

>  <inchikey>  (1939) 
BQLXATBZYJYFRY-JTQLQIEISA-N

>  <exports>  (1939) 
['/opt/xchem-fragalysis-2/maxwin/BulkDock/OUTPUTS/openbind_a71ev2a_c2_elabs_1LOUU54.sdf', '/opt/xchem-fragalysis-2/maxwin/BulkDock/OUTPUTS/openbind_a71ev2a_c2_elabs_1LSYIDY.sdf']

>  <name>  (1939) 
P585865

>  <ref_pdb>  (1939) 
A0566a

>  <subsites>  (1939) 
None

>  <HIPPO Pose ID>  (1939) 
585865

>  <ref_mols>  (1939) 
A0566a

>  <HIPPO Compound ID>  (1939) 
441033

>  <tags>  (1939) 
openbind_a71ev2a_c2_elabs,syndirella_product,openbind_a71ev2a_c2_elabs_fragonly_scored_top80percent,openbind_a71ev2a_c2_elabs_scored,BulkDock Fragalysis export,openbind_a71ev2a_c2_elabs_scored_top80percent,openbind_a71ev2a_c2_elabs_activefrags_only_scored_5.2plus,syndirella_placed

>  <smina_score_min>  (1939) 
-4.911

$$$$
P585867
     RDKit          3D

 21 23  0  0  0  0  0  0  0  0999 V2000
    6.2183   12.1940   29.1738 C   0  0  0  0  0  0  0  0  0  0  0  0
    5.3015   12.1364   27.9481 C   0  0  1  0  0  0  0  0  0  0  0  0
    4.9513   13.5555   27.4334 C   0  0  0  0  0  0  0  0  0  0  0  0
    6.1579   14.3150   26.8515 C   0  0  0  0  0  0  0  0  0  0  0  0
    6.9743   13.3918   26.0189 C   0  0  0  0  0  0  0  0  0  0  0  0
    7.9696   13.7826   25.1751 N   0  0  0  0  0  0  0  0  0  0  0  0
    8.5363   12.6755   24.5798 C   0  0  0  0  0  0  0  0  0  0  0  0
    9.6068   12.5869   23.6821 C   0  0  0  0  0  0  0  0  0  0  0  0
   10.3991   13.8044   23.3535 C   0  0  0  0  0  0  0  0  0  0  0  0
   10.5378   14.6053   24.1873 O   0  0  0  0  0  0  0  0  0  0  0  0
   10.8435   13.8096   21.8873 N   0  0  0  0  0  0  0  0  0  0  0  0
   11.6416   14.7647   21.1499 C   0  0  0  0  0  0  0  0  0  0  0  0
   11.1334   14.9228   19.7206 C   0  0  0  0  0  0  0  0  0  0  0  0
   10.4449   16.0812   19.5953 F   0  0  0  0  0  0  0  0  0  0  0  0
   12.1667   14.9368   18.8508 F   0  0  0  0  0  0  0  0  0  0  0  0
    9.9136   11.3169   23.1849 C   0  0  0  0  0  0  0  0  0  0  0  0
    9.2267   10.1820   23.5977 C   0  0  0  0  0  0  0  0  0  0  0  0
    8.2077   10.2887   24.5443 C   0  0  0  0  0  0  0  0  0  0  0  0
    7.8412   11.5541   25.0361 C   0  0  0  0  0  0  0  0  0  0  0  0
    6.8878   12.0163   25.9852 C   0  0  0  0  0  0  0  0  0  0  0  0
    5.9112   11.2627   26.8228 C   0  0  0  0  0  0  0  0  0  0  0  0
  2  1  1  1
  2  3  1  0
  3  4  1  0
  4  5  1  0
  5  6  1  0
  6  7  1  0
  7  8  2  0
  8  9  1  0
  9 10  2  0
  9 11  1  0
 11 12  1  0
 12 13  1  0
 13 14  1  0
 13 15  1  0
  8 16  1  0
 16 17  2  0
 17 18  1  0
 18 19  2  0
 19 20  1  0
 20 21  1  0
 21  2  1  0
 20  5  2  0
 19  7  1  0
M  END
>  <alias>  (1940) 
None

>  <rmsd(smina/fragmenstein)>  (1940) 
0.773

>  <smiles>  (1940) 
C[C@H]1CCc2[nH]c3c(C(=O)NCC(F)F)cccc3c2C1

>  <gnina_score>  (1940) 
5.406

>  <inspiration_score>  (1940) 
None

>  <energy_score>  (1940) 
-16.727866

>  <distance_score>  (1940) 
0.988801

>  <gnina_score_min>  (1940) 
5.581

>  <inchikey>  (1940) 
JMYHBQUEFBSPJW-VIFPVBQESA-N

>  <exports>  (1940) 
['/opt/xchem-fragalysis-2/maxwin/BulkDock/OUTPUTS/openbind_a71ev2a_c2_elabs_1LOUU54.sdf', '/opt/xchem-fragalysis-2/maxwin/BulkDock/OUTPUTS/openbind_a71ev2a_c2_elabs_1LSYIDY.sdf']

>  <name>  (1940) 
P585867

>  <ref_pdb>  (1940) 
A0566a

>  <subsites>  (1940) 
None

>  <HIPPO Pose ID>  (1940) 
585867

>  <ref_mols>  (1940) 
A0566a

>  <HIPPO Compound ID>  (1940) 
441034

>  <tags>  (1940) 
openbind_a71ev2a_c2_elabs,syndirella_product,openbind_a71ev2a_c2_elabs_fragonly_scored_top80percent,BulkDock Fragalysis export,openbind_a71ev2a_c2_elabs_scored,openbind_a71ev2a_c2_elabs_scored_top80percent,openbind_a71ev2a_c2_elabs_activefrags_only_scored_5.2plus,openbind_a71ev2a_c2_elabs_activefrags_only_scored_5.5plus,syndirella_placed

>  <smina_score_min>  (1940) 
-7.288

$$$$
P585869
     RDKit          3D

 21 24  0  0  0  0  0  0  0  0999 V2000
    4.0514   13.2730   28.0075 C   0  0  0  0  0  0  0  0  0  0  0  0
    5.4152   13.5894   27.3975 C   0  0  2  0  0  0  0  0  0  0  0  0
    5.3720   14.9297   26.6209 C   0  0  0  0  0  0  0  0  0  0  0  0
    6.7530   15.3281   26.0668 C   0  0  0  0  0  0  0  0  0  0  0  0
    7.4240   14.1352   25.4819 C   0  0  0  0  0  0  0  0  0  0  0  0
    8.5102   14.1739   24.6579 N   0  0  0  0  0  0  0  0  0  0  0  0
    8.8611   12.8989   24.2835 C   0  0  0  0  0  0  0  0  0  0  0  0
    9.8996   12.4265   23.4792 C   0  0  0  0  0  0  0  0  0  0  0  0
   11.0327   13.2198   22.9444 C   0  0  0  0  0  0  0  0  0  0  0  0
   12.0794   12.6913   22.9407 O   0  0  0  0  0  0  0  0  0  0  0  0
   10.6207   14.5428   22.4043 N   0  0  0  0  0  0  0  0  0  0  0  0
   10.1298   14.4297   20.8808 C   0  0  0  0  0  0  0  0  0  0  0  0
   10.2638   15.9297   20.8464 C   0  0  0  0  0  0  0  0  0  0  0  0
    9.6890   16.8678   20.3578 O   0  0  0  0  0  0  0  0  0  0  0  0
   11.4448   15.6611   21.7721 C   0  0  0  0  0  0  0  0  0  0  0  0
    9.8847   11.0585   23.1751 C   0  0  0  0  0  0  0  0  0  0  0  0
    8.9857   10.1787   23.7468 C   0  0  0  0  0  0  0  0  0  0  0  0
    8.0290   10.6462   24.6374 C   0  0  0  0  0  0  0  0  0  0  0  0
    7.9354   12.0279   24.8791 C   0  0  0  0  0  0  0  0  0  0  0  0
    7.0542   12.8205   25.6587 C   0  0  0  0  0  0  0  0  0  0  0  0
    5.8794   12.4250   26.4871 C   0  0  0  0  0  0  0  0  0  0  0  0
  2  1  1  6
  2  3  1  0
  3  4  1  0
  4  5  1  0
  5  6  1  0
  6  7  1  0
  7  8  2  0
  8  9  1  0
  9 10  2  0
  9 11  1  0
 11 12  1  0
 12 13  1  0
 13 14  2  0
 13 15  1  0
  8 16  1  0
 16 17  2  0
 17 18  1  0
 18 19  2  0
 19 20  1  0
 20 21  1  0
 21  2  1  0
 20  5  2  0
 19  7  1  0
 15 11  1  0
M  END
>  <alias>  (1941) 
None

>  <rmsd(smina/fragmenstein)>  (1941) 
0.455

>  <smiles>  (1941) 
C[C@@H]1CCc2[nH]c3c(C(=O)N4CC(=O)C4)cccc3c2C1

>  <gnina_score>  (1941) 
5.346

>  <inspiration_score>  (1941) 
None

>  <energy_score>  (1941) 
-12.098961

>  <distance_score>  (1941) 
1.01013

>  <gnina_score_min>  (1941) 
5.283

>  <inchikey>  (1941) 
MJSLRZOLNXOHLE-SNVBAGLBSA-N

>  <exports>  (1941) 
['/opt/xchem-fragalysis-2/maxwin/BulkDock/OUTPUTS/openbind_a71ev2a_c2_elabs_1LOUU54.sdf', '/opt/xchem-fragalysis-2/maxwin/BulkDock/OUTPUTS/openbind_a71ev2a_c2_elabs_1LSYIDY.sdf']

>  <name>  (1941) 
P585869

>  <ref_pdb>  (1941) 
A0566a

>  <subsites>  (1941) 
None

>  <HIPPO Pose ID>  (1941) 
585869

>  <ref_mols>  (1941) 
A0566a

>  <HIPPO Compound ID>  (1941) 
441037

>  <tags>  (1941) 
openbind_a71ev2a_c2_elabs,syndirella_product,openbind_a71ev2a_c2_elabs_fragonly_scored_top80percent,openbind_a71ev2a_c2_elabs_scored,BulkDock Fragalysis export,openbind_a71ev2a_c2_elabs_scored_top80percent,openbind_a71ev2a_c2_elabs_activefrags_only_scored_5.2plus,syndirella_placed

>  <smina_score_min>  (1941) 
-6.111

$$$$
P585870
     RDKit          3D

 21 23  0  0  0  0  0  0  0  0999 V2000
   11.6175   14.7549   18.6103 C   0  0  0  0  0  0  0  0  0  0  0  0
   11.9855   14.6293   19.7419 C   0  0  0  0  0  0  0  0  0  0  0  0
   12.4842   14.6546   21.1119 C   0  0  0  0  0  0  0  0  0  0  0  0
   11.4548   15.2630   22.0322 C   0  0  0  0  0  0  0  0  0  0  0  0
   10.5759   14.2442   22.5217 N   0  0  0  0  0  0  0  0  0  0  0  0
   10.0721   13.9637   23.9335 C   0  0  0  0  0  0  0  0  0  0  0  0
   10.2254   14.5584   24.9214 O   0  0  0  0  0  0  0  0  0  0  0  0
    9.3276   12.6862   23.9851 C   0  0  0  0  0  0  0  0  0  0  0  0
    9.7810   11.5301   23.3372 C   0  0  0  0  0  0  0  0  0  0  0  0
    9.1955   10.2973   23.6022 C   0  0  0  0  0  0  0  0  0  0  0  0
    8.1580   10.1996   24.5387 C   0  0  0  0  0  0  0  0  0  0  0  0
    7.6485   11.3556   25.1617 C   0  0  0  0  0  0  0  0  0  0  0  0
    6.6703   11.6181   26.1668 C   0  0  0  0  0  0  0  0  0  0  0  0
    6.6719   12.9795   26.3928 C   0  0  0  0  0  0  0  0  0  0  0  0
    7.5868   13.5571   25.5678 N   0  0  0  0  0  0  0  0  0  0  0  0
    8.2348   12.5793   24.8461 C   0  0  0  0  0  0  0  0  0  0  0  0
    5.8423   13.7180   27.3804 C   0  0  0  0  0  0  0  0  0  0  0  0
    5.3320   12.7358   28.4485 C   0  0  0  0  0  0  0  0  0  0  0  0
    4.7567   11.4491   27.8097 C   0  0  2  0  0  0  0  0  0  0  0  0
    4.1674   10.5328   28.8807 C   0  0  0  0  0  0  0  0  0  0  0  0
    5.8243   10.6899   26.9781 C   0  0  0  0  0  0  0  0  0  0  0  0
  1  2  3  0
  2  3  1  0
  3  4  1  0
  4  5  1  0
  5  6  1  0
  6  7  2  0
  6  8  1  0
  8  9  2  0
  9 10  1  0
 10 11  2  0
 11 12  1  0
 12 13  1  0
 13 14  2  0
 14 15  1  0
 15 16  1  0
 14 17  1  0
 17 18  1  0
 18 19  1  0
 19 20  1  1
 19 21  1  0
 16  8  1  0
 16 12  2  0
 21 13  1  0
M  END
>  <alias>  (1942) 
None

>  <rmsd(smina/fragmenstein)>  (1942) 
0.896

>  <smiles>  (1942) 
C#CCCNC(=O)c1cccc2c3c([nH]c12)CC[C@H](C)C3

>  <gnina_score>  (1942) 
5.187

>  <inspiration_score>  (1942) 
None

>  <energy_score>  (1942) 
-12.432903

>  <distance_score>  (1942) 
1.090912

>  <gnina_score_min>  (1942) 
5.543

>  <inchikey>  (1942) 
HGLSMHFTCVASLI-LBPRGKRZSA-N

>  <exports>  (1942) 
['/opt/xchem-fragalysis-2/maxwin/BulkDock/OUTPUTS/openbind_a71ev2a_c2_elabs_1LOUU54.sdf', '/opt/xchem-fragalysis-2/maxwin/BulkDock/OUTPUTS/openbind_a71ev2a_c2_elabs_1LSYIDY.sdf']

>  <name>  (1942) 
P585870

>  <ref_pdb>  (1942) 
A0566a

>  <subsites>  (1942) 
None

>  <HIPPO Pose ID>  (1942) 
585870

>  <ref_mols>  (1942) 
A0566a

>  <HIPPO Compound ID>  (1942) 
441038

>  <tags>  (1942) 
openbind_a71ev2a_c2_elabs,syndirella_product,openbind_a71ev2a_c2_elabs_fragonly_scored_top80percent,BulkDock Fragalysis export,openbind_a71ev2a_c2_elabs_scored,openbind_a71ev2a_c2_elabs_scored_top80percent,openbind_a71ev2a_c2_elabs_activefrags_only_scored_5.2plus,openbind_a71ev2a_c2_elabs_activefrags_only_scored_5.5plus,syndirella_placed

>  <smina_score_min>  (1942) 
-6.748

$$$$
P585875
     RDKit          3D

 21 23  0  0  0  0  0  0  0  0999 V2000
    9.6664   16.3462   20.2743 C   0  0  0  0  0  0  0  0  0  0  0  0
   10.4986   15.5683   20.6563 C   0  0  0  0  0  0  0  0  0  0  0  0
   11.5007   14.6241   21.1678 C   0  0  1  0  0  0  0  0  0  0  0  0
   12.5765   15.2825   22.0009 C   0  0  0  0  0  0  0  0  0  0  0  0
   10.8135   13.6454   21.9482 N   0  0  0  0  0  0  0  0  0  0  0  0
   10.2353   13.7278   23.3652 C   0  0  0  0  0  0  0  0  0  0  0  0
   10.2924   14.5815   24.1561 O   0  0  0  0  0  0  0  0  0  0  0  0
    9.4528   12.5149   23.7213 C   0  0  0  0  0  0  0  0  0  0  0  0
    9.7577   11.2345   23.2548 C   0  0  0  0  0  0  0  0  0  0  0  0
    9.0623   10.1222   23.7093 C   0  0  0  0  0  0  0  0  0  0  0  0
    8.0445   10.2593   24.6605 C   0  0  0  0  0  0  0  0  0  0  0  0
    7.6943   11.5366   25.1349 C   0  0  0  0  0  0  0  0  0  0  0  0
    6.7836   12.0350   26.1174 C   0  0  0  0  0  0  0  0  0  0  0  0
    6.9853   13.3973   26.1954 C   0  0  0  0  0  0  0  0  0  0  0  0
    7.8967   13.7590   25.2535 N   0  0  0  0  0  0  0  0  0  0  0  0
    8.4030   12.6322   24.6424 C   0  0  0  0  0  0  0  0  0  0  0  0
    6.3696   14.3293   27.1725 C   0  0  0  0  0  0  0  0  0  0  0  0
    5.9416   13.5162   28.4050 C   0  0  0  0  0  0  0  0  0  0  0  0
    5.1120   12.2624   28.0339 C   0  0  1  0  0  0  0  0  0  0  0  0
    3.7364   12.6732   27.5031 C   0  0  0  0  0  0  0  0  0  0  0  0
    5.8542   11.3146   27.0451 C   0  0  0  0  0  0  0  0  0  0  0  0
  1  2  3  0
  2  3  1  0
  3  4  1  1
  3  5  1  0
  5  6  1  0
  6  7  2  0
  6  8  1  0
  8  9  2  0
  9 10  1  0
 10 11  2  0
 11 12  1  0
 12 13  1  0
 13 14  2  0
 14 15  1  0
 15 16  1  0
 14 17  1  0
 17 18  1  0
 18 19  1  0
 19 20  1  6
 19 21  1  0
 16  8  1  0
 16 12  2  0
 21 13  1  0
M  END
>  <alias>  (1943) 
None

>  <rmsd(smina/fragmenstein)>  (1943) 
0.258

>  <smiles>  (1943) 
C#C[C@@H](C)NC(=O)c1cccc2c3c([nH]c12)CC[C@@H](C)C3

>  <gnina_score>  (1943) 
5.69

>  <inspiration_score>  (1943) 
None

>  <energy_score>  (1943) 
-19.524046

>  <distance_score>  (1943) 
1.131405

>  <gnina_score_min>  (1943) 
5.703

>  <inchikey>  (1943) 
SCJJWIVPEAWYEM-VXGBXAGGSA-N

>  <exports>  (1943) 
['/opt/xchem-fragalysis-2/maxwin/BulkDock/OUTPUTS/openbind_a71ev2a_c2_elabs_1LOUU54.sdf', '/opt/xchem-fragalysis-2/maxwin/BulkDock/OUTPUTS/openbind_a71ev2a_c2_elabs_1LSYIDY.sdf']

>  <name>  (1943) 
P585875

>  <ref_pdb>  (1943) 
A0566a

>  <subsites>  (1943) 
None

>  <HIPPO Pose ID>  (1943) 
585875

>  <ref_mols>  (1943) 
A0566a

>  <HIPPO Compound ID>  (1943) 
441040

>  <tags>  (1943) 
openbind_a71ev2a_c2_elabs,syndirella_product,openbind_a71ev2a_c2_elabs_fragonly_scored_top80percent,BulkDock Fragalysis export,openbind_a71ev2a_c2_elabs_scored,openbind_a71ev2a_c2_elabs_scored_top80percent,openbind_a71ev2a_c2_elabs_activefrags_only_scored_5.2plus,openbind_a71ev2a_c2_elabs_activefrags_only_scored_5.5plus,syndirella_placed

>  <smina_score_min>  (1943) 
-7.171

$$$$
P585876
     RDKit          3D

 21 23  0  0  0  0  0  0  0  0999 V2000
    3.6819   12.3447   27.7427 C   0  0  0  0  0  0  0  0  0  0  0  0
    5.1086   12.0013   28.1784 C   0  0  2  0  0  0  0  0  0  0  0  0
    5.8708   13.2901   28.5726 C   0  0  0  0  0  0  0  0  0  0  0  0
    6.1826   14.1848   27.3622 C   0  0  0  0  0  0  0  0  0  0  0  0
    6.8243   13.3428   26.3215 C   0  0  0  0  0  0  0  0  0  0  0  0
    7.6620   13.8145   25.3587 N   0  0  0  0  0  0  0  0  0  0  0  0
    8.2248   12.7532   24.6907 C   0  0  0  0  0  0  0  0  0  0  0  0
    9.2174   12.7394   23.7153 C   0  0  0  0  0  0  0  0  0  0  0  0
    9.8129   14.0027   23.2670 C   0  0  0  0  0  0  0  0  0  0  0  0
   10.4848   14.6066   24.0010 O   0  0  0  0  0  0  0  0  0  0  0  0
    9.4226   14.2890   21.8096 N   0  0  0  0  0  0  0  0  0  0  0  0
    9.8520   15.3303   20.9138 C   0  0  0  0  0  0  0  0  0  0  0  0
   10.9832   14.8654   20.0100 C   0  0  0  0  0  0  0  0  0  0  0  0
   12.1958   14.3178   20.7429 C   0  0  0  0  0  0  0  0  0  0  0  0
   12.8003   15.3938   21.9893 Cl  0  0  0  0  0  0  0  0  0  0  0  0
    9.6712   11.5155   23.2229 C   0  0  0  0  0  0  0  0  0  0  0  0
    9.1059   10.3289   23.6737 C   0  0  0  0  0  0  0  0  0  0  0  0
    8.0926   10.3527   24.6452 C   0  0  0  0  0  0  0  0  0  0  0  0
    7.6423   11.5809   25.1744 C   0  0  0  0  0  0  0  0  0  0  0  0
    6.7171   11.9728   26.1915 C   0  0  0  0  0  0  0  0  0  0  0  0
    5.8558   11.1538   27.1046 C   0  0  0  0  0  0  0  0  0  0  0  0
  2  1  1  6
  2  3  1  0
  3  4  1  0
  4  5  1  0
  5  6  1  0
  6  7  1  0
  7  8  2  0
  8  9  1  0
  9 10  2  0
  9 11  1  0
 11 12  1  0
 12 13  1  0
 13 14  1  0
 14 15  1  0
  8 16  1  0
 16 17  2  0
 17 18  1  0
 18 19  2  0
 19 20  1  0
 20 21  1  0
 21  2  1  0
 20  5  2  0
 19  7  1  0
M  END
>  <alias>  (1944) 
None

>  <rmsd(smina/fragmenstein)>  (1944) 
0.281

>  <smiles>  (1944) 
C[C@@H]1CCc2[nH]c3c(C(=O)NCCCCl)cccc3c2C1

>  <gnina_score>  (1944) 
5.293

>  <inspiration_score>  (1944) 
None

>  <energy_score>  (1944) 
-14.234798

>  <distance_score>  (1944) 
1.417196

>  <gnina_score_min>  (1944) 
5.388

>  <inchikey>  (1944) 
FBBQQDOBTYKVCM-LLVKDONJSA-N

>  <exports>  (1944) 
['/opt/xchem-fragalysis-2/maxwin/BulkDock/OUTPUTS/openbind_a71ev2a_c2_elabs_1LOUU54.sdf', '/opt/xchem-fragalysis-2/maxwin/BulkDock/OUTPUTS/openbind_a71ev2a_c2_elabs_1LSYIDY.sdf']

>  <name>  (1944) 
P585876

>  <ref_pdb>  (1944) 
A0566a

>  <subsites>  (1944) 
None

>  <HIPPO Pose ID>  (1944) 
585876

>  <ref_mols>  (1944) 
A0566a

>  <HIPPO Compound ID>  (1944) 
441041

>  <tags>  (1944) 
openbind_a71ev2a_c2_elabs,syndirella_product,openbind_a71ev2a_c2_elabs_fragonly_scored_top80percent,openbind_a71ev2a_c2_elabs_scored,BulkDock Fragalysis export,openbind_a71ev2a_c2_elabs_scored_top80percent,openbind_a71ev2a_c2_elabs_activefrags_only_scored_5.2plus,syndirella_placed

>  <smina_score_min>  (1944) 
-6.214

$$$$
P585878
     RDKit          3D

 21 23  0  0  0  0  0  0  0  0999 V2000
    4.3100   10.9258   28.8855 C   0  0  0  0  0  0  0  0  0  0  0  0
    5.3963   11.7180   28.1622 C   0  0  2  0  0  0  0  0  0  0  0  0
    4.8783   13.1203   27.7578 C   0  0  0  0  0  0  0  0  0  0  0  0
    5.9799   13.9851   27.1177 C   0  0  0  0  0  0  0  0  0  0  0  0
    6.8000   13.1604   26.1901 C   0  0  0  0  0  0  0  0  0  0  0  0
    7.7329   13.6579   25.3318 N   0  0  0  0  0  0  0  0  0  0  0  0
    8.3593   12.6173   24.6818 C   0  0  0  0  0  0  0  0  0  0  0  0
    9.4242   12.6359   23.7813 C   0  0  0  0  0  0  0  0  0  0  0  0
   10.1398   13.9024   23.5317 C   0  0  0  0  0  0  0  0  0  0  0  0
   10.3973   14.5833   24.4398 O   0  0  0  0  0  0  0  0  0  0  0  0
   10.4354   14.0819   22.0419 N   0  0  0  0  0  0  0  0  0  0  0  0
   11.1972   15.0941   21.3527 C   0  0  1  0  0  0  0  0  0  0  0  0
   12.6261   14.6125   21.2943 C   0  0  0  0  0  0  0  0  0  0  0  0
   10.6284   15.3803   19.9666 C   0  0  0  0  0  0  0  0  0  0  0  0
    9.3967   16.6577   20.0760 Cl  0  0  0  0  0  0  0  0  0  0  0  0
    9.8448   11.4233   23.2274 C   0  0  0  0  0  0  0  0  0  0  0  0
    9.2376   10.2265   23.5853 C   0  0  0  0  0  0  0  0  0  0  0  0
    8.2099   10.2209   24.5343 C   0  0  0  0  0  0  0  0  0  0  0  0
    7.7536   11.4309   25.0915 C   0  0  0  0  0  0  0  0  0  0  0  0
    6.7946   11.7853   26.0808 C   0  0  0  0  0  0  0  0  0  0  0  0
    5.9039   10.9387   26.9238 C   0  0  0  0  0  0  0  0  0  0  0  0
  2  1  1  6
  2  3  1  0
  3  4  1  0
  4  5  1  0
  5  6  1  0
  6  7  1  0
  7  8  2  0
  8  9  1  0
  9 10  2  0
  9 11  1  0
 11 12  1  0
 12 13  1  6
 12 14  1  0
 14 15  1  0
  8 16  1  0
 16 17  2  0
 17 18  1  0
 18 19  2  0
 19 20  1  0
 20 21  1  0
 21  2  1  0
 20  5  2  0
 19  7  1  0
M  END
>  <alias>  (1945) 
None

>  <rmsd(smina/fragmenstein)>  (1945) 
0.3

>  <smiles>  (1945) 
C[C@@H]1CCc2[nH]c3c(C(=O)N[C@@H](C)CCl)cccc3c2C1

>  <gnina_score>  (1945) 
5.723

>  <inspiration_score>  (1945) 
None

>  <energy_score>  (1945) 
-29.047845

>  <distance_score>  (1945) 
1.053063

>  <gnina_score_min>  (1945) 
5.723

>  <inchikey>  (1945) 
ZTIJSORODOUFQU-MNOVXSKESA-N

>  <exports>  (1945) 
['/opt/xchem-fragalysis-2/maxwin/BulkDock/OUTPUTS/openbind_a71ev2a_c2_elabs_1LOUU54.sdf', '/opt/xchem-fragalysis-2/maxwin/BulkDock/OUTPUTS/openbind_a71ev2a_c2_elabs_1LSYIDY.sdf']

>  <name>  (1945) 
P585878

>  <ref_pdb>  (1945) 
A0566a

>  <subsites>  (1945) 
None

>  <HIPPO Pose ID>  (1945) 
585878

>  <ref_mols>  (1945) 
A0566a

>  <HIPPO Compound ID>  (1945) 
441042

>  <tags>  (1945) 
openbind_a71ev2a_c2_elabs,syndirella_product,openbind_a71ev2a_c2_elabs_fragonly_scored_top80percent,BulkDock Fragalysis export,openbind_a71ev2a_c2_elabs_scored,openbind_a71ev2a_c2_elabs_scored_top80percent,openbind_a71ev2a_c2_elabs_activefrags_only_scored_5.2plus,openbind_a71ev2a_c2_elabs_activefrags_only_scored_5.5plus,syndirella_placed

>  <smina_score_min>  (1945) 
-7.347

$$$$
P585884
     RDKit          3D

 21 23  0  0  0  0  0  0  0  0999 V2000
    4.2962   10.6350   28.9642 C   0  0  0  0  0  0  0  0  0  0  0  0
    5.3502   11.4844   28.2582 C   0  0  2  0  0  0  0  0  0  0  0  0
    4.7916   12.8879   27.9199 C   0  0  0  0  0  0  0  0  0  0  0  0
    5.8637   13.8047   27.3033 C   0  0  0  0  0  0  0  0  0  0  0  0
    6.6884   13.0405   26.3294 C   0  0  0  0  0  0  0  0  0  0  0  0
    7.6152   13.5951   25.5008 N   0  0  0  0  0  0  0  0  0  0  0  0
    8.2528   12.5977   24.7975 C   0  0  0  0  0  0  0  0  0  0  0  0
    9.3295   12.6775   23.9187 C   0  0  0  0  0  0  0  0  0  0  0  0
   10.0542   13.9515   23.8029 C   0  0  0  0  0  0  0  0  0  0  0  0
   10.3686   14.4994   24.7783 O   0  0  0  0  0  0  0  0  0  0  0  0
   10.3364   14.2902   22.3430 N   0  0  0  0  0  0  0  0  0  0  0  0
   11.1456   15.3230   21.7658 C   0  0  0  0  0  0  0  0  0  0  0  0
   12.1322   14.7655   20.7538 C   0  0  2  0  0  0  0  0  0  0  0  0
   11.5439   14.7377   19.3532 C   0  0  0  0  0  0  0  0  0  0  0  0
   12.5528   13.4682   21.1399 O   0  0  0  0  0  0  0  0  0  0  0  0
    9.7890   11.5088   23.3036 C   0  0  0  0  0  0  0  0  0  0  0  0
    9.2055   10.2835   23.6003 C   0  0  0  0  0  0  0  0  0  0  0  0
    8.1714   10.2103   24.5432 C   0  0  0  0  0  0  0  0  0  0  0  0
    7.6750   11.3814   25.1496 C   0  0  0  0  0  0  0  0  0  0  0  0
    6.7132   11.6714   26.1583 C   0  0  0  0  0  0  0  0  0  0  0  0
    5.8594   10.7698   26.9821 C   0  0  0  0  0  0  0  0  0  0  0  0
  2  1  1  6
  2  3  1  0
  3  4  1  0
  4  5  1  0
  5  6  1  0
  6  7  1  0
  7  8  2  0
  8  9  1  0
  9 10  2  0
  9 11  1  0
 11 12  1  0
 12 13  1  0
 13 14  1  6
 13 15  1  0
  8 16  1  0
 16 17  2  0
 17 18  1  0
 18 19  2  0
 19 20  1  0
 20 21  1  0
 21  2  1  0
 20  5  2  0
 19  7  1  0
M  END
>  <alias>  (1946) 
None

>  <rmsd(smina/fragmenstein)>  (1946) 
0.353

>  <smiles>  (1946) 
C[C@@H]1CCc2[nH]c3c(C(=O)NC[C@H](C)O)cccc3c2C1

>  <gnina_score>  (1946) 
5.34

>  <inspiration_score>  (1946) 
None

>  <energy_score>  (1946) 
-22.408537

>  <distance_score>  (1946) 
1.086636

>  <gnina_score_min>  (1946) 
5.44

>  <inchikey>  (1946) 
KYOFYBKIHYOWOO-MNOVXSKESA-N

>  <exports>  (1946) 
['/opt/xchem-fragalysis-2/maxwin/BulkDock/OUTPUTS/openbind_a71ev2a_c2_elabs_1LOUU54.sdf', '/opt/xchem-fragalysis-2/maxwin/BulkDock/OUTPUTS/openbind_a71ev2a_c2_elabs_1LSYIDY.sdf']

>  <name>  (1946) 
P585884

>  <ref_pdb>  (1946) 
A0566a

>  <subsites>  (1946) 
None

>  <HIPPO Pose ID>  (1946) 
585884

>  <ref_mols>  (1946) 
A0566a

>  <HIPPO Compound ID>  (1946) 
441043

>  <tags>  (1946) 
openbind_a71ev2a_c2_elabs,syndirella_product,openbind_a71ev2a_c2_elabs_fragonly_scored_top80percent,openbind_a71ev2a_c2_elabs_scored,BulkDock Fragalysis export,openbind_a71ev2a_c2_elabs_scored_top80percent,openbind_a71ev2a_c2_elabs_activefrags_only_scored_5.2plus,syndirella_placed

>  <smina_score_min>  (1946) 
-6.284

$$$$
P585887
     RDKit          3D

 21 23  0  0  0  0  0  0  0  0999 V2000
   11.3496   14.9887   18.9460 C   0  0  0  0  0  0  0  0  0  0  0  0
   10.9999   15.2137   20.2147 C   0  0  0  0  0  0  0  0  0  0  0  0
    9.6166   16.1915   20.5515 Cl  0  0  0  0  0  0  0  0  0  0  0  0
   11.7650   14.7342   21.4018 C   0  0  0  0  0  0  0  0  0  0  0  0
   10.9342   13.7811   22.0607 N   0  0  0  0  0  0  0  0  0  0  0  0
   10.4928   13.6892   23.5202 C   0  0  0  0  0  0  0  0  0  0  0  0
   10.6710   14.4175   24.4097 O   0  0  0  0  0  0  0  0  0  0  0  0
    9.6300   12.5057   23.7553 C   0  0  0  0  0  0  0  0  0  0  0  0
    9.8969   11.2492   23.2080 C   0  0  0  0  0  0  0  0  0  0  0  0
    9.1824   10.1241   23.5942 C   0  0  0  0  0  0  0  0  0  0  0  0
    8.1681   10.2324   24.5474 C   0  0  0  0  0  0  0  0  0  0  0  0
    7.8220   11.4951   25.0602 C   0  0  0  0  0  0  0  0  0  0  0  0
    6.8830   11.9609   26.0201 C   0  0  0  0  0  0  0  0  0  0  0  0
    7.0152   13.3315   26.0985 C   0  0  0  0  0  0  0  0  0  0  0  0
    8.0151   13.7170   25.2566 N   0  0  0  0  0  0  0  0  0  0  0  0
    8.5489   12.6069   24.6362 C   0  0  0  0  0  0  0  0  0  0  0  0
    6.2568   14.2498   26.9888 C   0  0  0  0  0  0  0  0  0  0  0  0
    5.0615   13.5064   27.6141 C   0  0  0  0  0  0  0  0  0  0  0  0
    5.4317   12.0700   28.0615 C   0  0  1  0  0  0  0  0  0  0  0  0
    4.2513   11.4001   28.7611 C   0  0  0  0  0  0  0  0  0  0  0  0
    5.8999   11.2176   26.8561 C   0  0  0  0  0  0  0  0  0  0  0  0
  1  2  2  0
  2  3  1  0
  2  4  1  0
  4  5  1  0
  5  6  1  0
  6  7  2  0
  6  8  1  0
  8  9  2  0
  9 10  1  0
 10 11  2  0
 11 12  1  0
 12 13  1  0
 13 14  2  0
 14 15  1  0
 15 16  1  0
 14 17  1  0
 17 18  1  0
 18 19  1  0
 19 20  1  6
 19 21  1  0
 16  8  1  0
 16 12  2  0
 21 13  1  0
M  END
>  <alias>  (1947) 
None

>  <rmsd(smina/fragmenstein)>  (1947) 
0.19

>  <smiles>  (1947) 
C=C(Cl)CNC(=O)c1cccc2c3c([nH]c12)CC[C@@H](C)C3

>  <gnina_score>  (1947) 
5.751

>  <inspiration_score>  (1947) 
None

>  <energy_score>  (1947) 
-22.481391

>  <distance_score>  (1947) 
0.921362

>  <gnina_score_min>  (1947) 
5.723

>  <inchikey>  (1947) 
WRIVUBMCMVICJK-SNVBAGLBSA-N

>  <exports>  (1947) 
['/opt/xchem-fragalysis-2/maxwin/BulkDock/OUTPUTS/openbind_a71ev2a_c2_elabs_1LOUU54.sdf', '/opt/xchem-fragalysis-2/maxwin/BulkDock/OUTPUTS/openbind_a71ev2a_c2_elabs_1LSYIDY.sdf']

>  <name>  (1947) 
P585887

>  <ref_pdb>  (1947) 
A0566a

>  <subsites>  (1947) 
None

>  <HIPPO Pose ID>  (1947) 
585887

>  <ref_mols>  (1947) 
A0566a

>  <HIPPO Compound ID>  (1947) 
441044

>  <tags>  (1947) 
openbind_a71ev2a_c2_elabs,syndirella_product,openbind_a71ev2a_c2_elabs_fragonly_scored_top80percent,BulkDock Fragalysis export,openbind_a71ev2a_c2_elabs_scored,openbind_a71ev2a_c2_elabs_scored_top80percent,openbind_a71ev2a_c2_elabs_activefrags_only_scored_5.2plus,openbind_a71ev2a_c2_elabs_activefrags_only_scored_5.5plus,syndirella_placed

>  <smina_score_min>  (1947) 
-7.031

$$$$
P585888
     RDKit          3D

 21 23  0  0  0  0  0  0  0  0999 V2000
    9.6978   15.8119   20.3691 C   0  0  0  0  0  0  0  0  0  0  0  0
   10.9004   15.2605   20.1571 C   0  0  0  0  0  0  0  0  0  0  0  0
   11.7289   14.4760   21.1322 C   0  0  1  0  0  0  0  0  0  0  0  0
   12.6266   15.2956   22.0250 C   0  0  0  0  0  0  0  0  0  0  0  0
   10.8698   13.6009   21.8665 N   0  0  0  0  0  0  0  0  0  0  0  0
   10.2831   13.7321   23.2788 C   0  0  0  0  0  0  0  0  0  0  0  0
   10.3423   14.6100   24.0433 O   0  0  0  0  0  0  0  0  0  0  0  0
    9.5030   12.5226   23.6630 C   0  0  0  0  0  0  0  0  0  0  0  0
    9.8203   11.2352   23.2177 C   0  0  0  0  0  0  0  0  0  0  0  0
    9.1392   10.1164   23.6759 C   0  0  0  0  0  0  0  0  0  0  0  0
    8.1186   10.2530   24.6180 C   0  0  0  0  0  0  0  0  0  0  0  0
    7.7513   11.5328   25.0700 C   0  0  0  0  0  0  0  0  0  0  0  0
    6.8021   12.0259   26.0095 C   0  0  0  0  0  0  0  0  0  0  0  0
    6.9257   13.3992   26.0333 C   0  0  0  0  0  0  0  0  0  0  0  0
    7.9009   13.7621   25.1554 N   0  0  0  0  0  0  0  0  0  0  0  0
    8.4460   12.6373   24.5743 C   0  0  0  0  0  0  0  0  0  0  0  0
    6.1273   14.3487   26.8523 C   0  0  0  0  0  0  0  0  0  0  0  0
    5.4347   13.5844   27.9945 C   0  0  0  0  0  0  0  0  0  0  0  0
    4.7874   12.2675   27.4993 C   0  0  2  0  0  0  0  0  0  0  0  0
    4.0258   11.5834   28.6327 C   0  0  0  0  0  0  0  0  0  0  0  0
    5.8438   11.3043   26.8984 C   0  0  0  0  0  0  0  0  0  0  0  0
  1  2  2  0
  2  3  1  0
  3  4  1  1
  3  5  1  0
  5  6  1  0
  6  7  2  0
  6  8  1  0
  8  9  2  0
  9 10  1  0
 10 11  2  0
 11 12  1  0
 12 13  1  0
 13 14  2  0
 14 15  1  0
 15 16  1  0
 14 17  1  0
 17 18  1  0
 18 19  1  0
 19 20  1  1
 19 21  1  0
 16  8  1  0
 16 12  2  0
 21 13  1  0
M  END
>  <alias>  (1948) 
None

>  <rmsd(smina/fragmenstein)>  (1948) 
0.365

>  <smiles>  (1948) 
C=C[C@@H](C)NC(=O)c1cccc2c3c([nH]c12)CC[C@H](C)C3

>  <gnina_score>  (1948) 
5.62

>  <inspiration_score>  (1948) 
None

>  <energy_score>  (1948) 
-25.587211

>  <distance_score>  (1948) 
1.095735

>  <gnina_score_min>  (1948) 
5.673

>  <inchikey>  (1948) 
MXQUYELMFKQRQS-NWDGAFQWSA-N

>  <exports>  (1948) 
['/opt/xchem-fragalysis-2/maxwin/BulkDock/OUTPUTS/openbind_a71ev2a_c2_elabs_1LOUU54.sdf', '/opt/xchem-fragalysis-2/maxwin/BulkDock/OUTPUTS/openbind_a71ev2a_c2_elabs_1LSYIDY.sdf']

>  <name>  (1948) 
P585888

>  <ref_pdb>  (1948) 
A0566a

>  <subsites>  (1948) 
None

>  <HIPPO Pose ID>  (1948) 
585888

>  <ref_mols>  (1948) 
A0566a

>  <HIPPO Compound ID>  (1948) 
441045

>  <tags>  (1948) 
openbind_a71ev2a_c2_elabs,syndirella_product,openbind_a71ev2a_c2_elabs_fragonly_scored_top80percent,BulkDock Fragalysis export,openbind_a71ev2a_c2_elabs_scored,openbind_a71ev2a_c2_elabs_scored_top80percent,openbind_a71ev2a_c2_elabs_activefrags_only_scored_5.2plus,openbind_a71ev2a_c2_elabs_activefrags_only_scored_5.5plus,syndirella_placed

>  <smina_score_min>  (1948) 
-7.096

$$$$
P585892
     RDKit          3D

 21 23  0  0  0  0  0  0  0  0999 V2000
    8.9278   17.4147   20.3662 C   0  0  0  0  0  0  0  0  0  0  0  0
    9.9185   16.3558   20.5098 C   0  0  0  0  0  0  0  0  0  0  0  0
   10.7675   15.5465   20.7637 C   0  0  0  0  0  0  0  0  0  0  0  0
   11.7904   14.6237   21.2497 C   0  0  0  0  0  0  0  0  0  0  0  0
   11.0780   13.6473   22.0029 N   0  0  0  0  0  0  0  0  0  0  0  0
   10.5542   13.6871   23.4413 C   0  0  0  0  0  0  0  0  0  0  0  0
   10.6862   14.4940   24.2715 O   0  0  0  0  0  0  0  0  0  0  0  0
    9.6617   12.5309   23.7395 C   0  0  0  0  0  0  0  0  0  0  0  0
    9.8609   11.2452   23.2350 C   0  0  0  0  0  0  0  0  0  0  0  0
    9.0886   10.1729   23.6645 C   0  0  0  0  0  0  0  0  0  0  0  0
    8.0770   10.3604   24.6121 C   0  0  0  0  0  0  0  0  0  0  0  0
    7.7931   11.6553   25.0820 C   0  0  0  0  0  0  0  0  0  0  0  0
    6.8841   12.2037   26.0386 C   0  0  0  0  0  0  0  0  0  0  0  0
    7.1500   13.5549   26.1160 C   0  0  0  0  0  0  0  0  0  0  0  0
    8.1218   13.8621   25.2154 N   0  0  0  0  0  0  0  0  0  0  0  0
    8.5865   12.7082   24.6223 C   0  0  0  0  0  0  0  0  0  0  0  0
    6.5360   14.5269   27.0546 C   0  0  0  0  0  0  0  0  0  0  0  0
    6.0078   13.7504   28.2711 C   0  0  0  0  0  0  0  0  0  0  0  0
    5.1397   12.5322   27.8707 C   0  0  1  0  0  0  0  0  0  0  0  0
    3.8170   12.9974   27.2564 C   0  0  0  0  0  0  0  0  0  0  0  0
    5.8899   11.5363   26.9372 C   0  0  0  0  0  0  0  0  0  0  0  0
  1  2  1  0
  2  3  3  0
  3  4  1  0
  4  5  1  0
  5  6  1  0
  6  7  2  0
  6  8  1  0
  8  9  2  0
  9 10  1  0
 10 11  2  0
 11 12  1  0
 12 13  1  0
 13 14  2  0
 14 15  1  0
 15 16  1  0
 14 17  1  0
 17 18  1  0
 18 19  1  0
 19 20  1  6
 19 21  1  0
 16  8  1  0
 16 12  2  0
 21 13  1  0
M  END
>  <alias>  (1949) 
None

>  <rmsd(smina/fragmenstein)>  (1949) 
0.487

>  <smiles>  (1949) 
CC#CCNC(=O)c1cccc2c3c([nH]c12)CC[C@@H](C)C3

>  <gnina_score>  (1949) 
5.64

>  <inspiration_score>  (1949) 
None

>  <energy_score>  (1949) 
-19.894084

>  <distance_score>  (1949) 
0.996952

>  <gnina_score_min>  (1949) 
5.684

>  <inchikey>  (1949) 
DQZMRFBUTBEKCE-GFCCVEGCSA-N

>  <exports>  (1949) 
['/opt/xchem-fragalysis-2/maxwin/BulkDock/OUTPUTS/openbind_a71ev2a_c2_elabs_1LOUU54.sdf', '/opt/xchem-fragalysis-2/maxwin/BulkDock/OUTPUTS/openbind_a71ev2a_c2_elabs_1LSYIDY.sdf']

>  <name>  (1949) 
P585892

>  <ref_pdb>  (1949) 
A0566a

>  <subsites>  (1949) 
None

>  <HIPPO Pose ID>  (1949) 
585892

>  <ref_mols>  (1949) 
A0566a

>  <HIPPO Compound ID>  (1949) 
441046

>  <tags>  (1949) 
openbind_a71ev2a_c2_elabs,syndirella_product,openbind_a71ev2a_c2_elabs_fragonly_scored_top80percent,BulkDock Fragalysis export,openbind_a71ev2a_c2_elabs_scored,openbind_a71ev2a_c2_elabs_scored_top80percent,openbind_a71ev2a_c2_elabs_activefrags_only_scored_5.2plus,openbind_a71ev2a_c2_elabs_activefrags_only_scored_5.5plus,syndirella_placed

>  <smina_score_min>  (1949) 
-7.201

$$$$
P585894
     RDKit          3D

 21 23  0  0  0  0  0  0  0  0999 V2000
   12.3629   14.4303   20.6297 C   0  0  0  0  0  0  0  0  0  0  0  0
   11.0989   14.9040   19.9683 C   0  0  0  0  0  0  0  0  0  0  0  0
   10.9984   14.9545   18.7413 O   0  0  0  0  0  0  0  0  0  0  0  0
   10.0044   15.4301   20.8744 C   0  0  0  0  0  0  0  0  0  0  0  0
    9.5989   14.3909   21.7832 N   0  0  0  0  0  0  0  0  0  0  0  0
   10.0959   14.0502   23.1916 C   0  0  0  0  0  0  0  0  0  0  0  0
   10.8590   14.6001   23.8757 O   0  0  0  0  0  0  0  0  0  0  0  0
    9.4686   12.7987   23.6412 C   0  0  0  0  0  0  0  0  0  0  0  0
    9.9199   11.5778   23.1390 C   0  0  0  0  0  0  0  0  0  0  0  0
    9.3374   10.3809   23.5370 C   0  0  0  0  0  0  0  0  0  0  0  0
    8.3065   10.3894   24.4815 C   0  0  0  0  0  0  0  0  0  0  0  0
    7.8400   11.6118   25.0069 C   0  0  0  0  0  0  0  0  0  0  0  0
    6.8680   11.9761   25.9779 C   0  0  0  0  0  0  0  0  0  0  0  0
    6.8550   13.3533   26.0536 C   0  0  0  0  0  0  0  0  0  0  0  0
    7.7740   13.8466   25.1756 N   0  0  0  0  0  0  0  0  0  0  0  0
    8.4224   12.8011   24.5590 C   0  0  0  0  0  0  0  0  0  0  0  0
    6.0160   14.1871   26.9571 C   0  0  0  0  0  0  0  0  0  0  0  0
    4.9231   13.3220   27.6121 C   0  0  0  0  0  0  0  0  0  0  0  0
    5.4537   11.9325   28.0453 C   0  0  1  0  0  0  0  0  0  0  0  0
    4.3719   11.1436   28.7789 C   0  0  0  0  0  0  0  0  0  0  0  0
    5.9714   11.1367   26.8221 C   0  0  0  0  0  0  0  0  0  0  0  0
  1  2  1  0
  2  3  2  0
  2  4  1  0
  4  5  1  0
  5  6  1  0
  6  7  2  0
  6  8  1  0
  8  9  2  0
  9 10  1  0
 10 11  2  0
 11 12  1  0
 12 13  1  0
 13 14  2  0
 14 15  1  0
 15 16  1  0
 14 17  1  0
 17 18  1  0
 18 19  1  0
 19 20  1  6
 19 21  1  0
 16  8  1  0
 16 12  2  0
 21 13  1  0
M  END
>  <alias>  (1950) 
None

>  <rmsd(smina/fragmenstein)>  (1950) 
0.683

>  <smiles>  (1950) 
CC(=O)CNC(=O)c1cccc2c3c([nH]c12)CC[C@@H](C)C3

>  <gnina_score>  (1950) 
5.348

>  <inspiration_score>  (1950) 
None

>  <energy_score>  (1950) 
-7.775577

>  <distance_score>  (1950) 
1.235707

>  <gnina_score_min>  (1950) 
5.449

>  <inchikey>  (1950) 
POKMOSCTYPCUHS-SNVBAGLBSA-N

>  <exports>  (1950) 
['/opt/xchem-fragalysis-2/maxwin/BulkDock/OUTPUTS/openbind_a71ev2a_c2_elabs_1LOUU54.sdf', '/opt/xchem-fragalysis-2/maxwin/BulkDock/OUTPUTS/openbind_a71ev2a_c2_elabs_1LSYIDY.sdf']

>  <name>  (1950) 
P585894

>  <ref_pdb>  (1950) 
A0566a

>  <subsites>  (1950) 
None

>  <HIPPO Pose ID>  (1950) 
585894

>  <ref_mols>  (1950) 
A0566a

>  <HIPPO Compound ID>  (1950) 
441048

>  <tags>  (1950) 
openbind_a71ev2a_c2_elabs,syndirella_product,openbind_a71ev2a_c2_elabs_fragonly_scored_top80percent,openbind_a71ev2a_c2_elabs_scored,BulkDock Fragalysis export,openbind_a71ev2a_c2_elabs_scored_top80percent,openbind_a71ev2a_c2_elabs_activefrags_only_scored_5.2plus,syndirella_placed

>  <smina_score_min>  (1950) 
-6.676

$$$$
P585896
     RDKit          3D

 21 24  0  0  0  0  0  0  0  0999 V2000
    6.1004   11.8507   29.3034 C   0  0  0  0  0  0  0  0  0  0  0  0
    5.1868   11.7170   28.0805 C   0  0  1  0  0  0  0  0  0  0  0  0
    4.7283   13.1037   27.5648 C   0  0  0  0  0  0  0  0  0  0  0  0
    5.8716   13.9465   26.9720 C   0  0  0  0  0  0  0  0  0  0  0  0
    6.7351   13.0839   26.1237 C   0  0  0  0  0  0  0  0  0  0  0  0
    7.6796   13.5459   25.2601 N   0  0  0  0  0  0  0  0  0  0  0  0
    8.3150   12.4823   24.6536 C   0  0  0  0  0  0  0  0  0  0  0  0
    9.3802   12.4760   23.7449 C   0  0  0  0  0  0  0  0  0  0  0  0
   10.0395   13.7611   23.4212 C   0  0  0  0  0  0  0  0  0  0  0  0
    9.9945   14.6037   24.2271 O   0  0  0  0  0  0  0  0  0  0  0  0
   10.6289   13.7704   22.0006 N   0  0  0  0  0  0  0  0  0  0  0  0
   11.1891   14.8173   21.2527 C   0  0  0  0  0  0  0  0  0  0  0  0
   12.4407   15.3679   21.8674 C   0  0  0  0  0  0  0  0  0  0  0  0
   11.0767   14.8680   19.7509 C   0  0  0  0  0  0  0  0  0  0  0  0
   10.1738   15.7255   20.5771 C   0  0  0  0  0  0  0  0  0  0  0  0
    9.7993   11.2415   23.2439 C   0  0  0  0  0  0  0  0  0  0  0  0
    9.1932   10.0616   23.6500 C   0  0  0  0  0  0  0  0  0  0  0  0
    8.1663   10.0893   24.5987 C   0  0  0  0  0  0  0  0  0  0  0  0
    7.7135   11.3157   25.1158 C   0  0  0  0  0  0  0  0  0  0  0  0
    6.7511   11.7055   26.0906 C   0  0  0  0  0  0  0  0  0  0  0  0
    5.8607   10.8834   26.9606 C   0  0  0  0  0  0  0  0  0  0  0  0
  2  1  1  1
  2  3  1  0
  3  4  1  0
  4  5  1  0
  5  6  1  0
  6  7  1  0
  7  8  2  0
  8  9  1  0
  9 10  2  0
  9 11  1  0
 11 12  1  0
 12 13  1  0
 12 14  1  0
 14 15  1  0
  8 16  1  0
 16 17  2  0
 17 18  1  0
 18 19  2  0
 19 20  1  0
 20 21  1  0
 21  2  1  0
 20  5  2  0
 19  7  1  0
 15 12  1  0
M  END
>  <alias>  (1951) 
None

>  <rmsd(smina/fragmenstein)>  (1951) 
0.324

>  <smiles>  (1951) 
C[C@H]1CCc2[nH]c3c(C(=O)NC4(C)CC4)cccc3c2C1

>  <gnina_score>  (1951) 
5.645

>  <inspiration_score>  (1951) 
None

>  <energy_score>  (1951) 
-26.476638

>  <distance_score>  (1951) 
1.163295

>  <gnina_score_min>  (1951) 
5.707

>  <inchikey>  (1951) 
MGAGCYMOEPAHBF-NSHDSACASA-N

>  <exports>  (1951) 
['/opt/xchem-fragalysis-2/maxwin/BulkDock/OUTPUTS/openbind_a71ev2a_c2_elabs_1LOUU54.sdf', '/opt/xchem-fragalysis-2/maxwin/BulkDock/OUTPUTS/openbind_a71ev2a_c2_elabs_1LSYIDY.sdf']

>  <name>  (1951) 
P585896

>  <ref_pdb>  (1951) 
A0566a

>  <subsites>  (1951) 
None

>  <HIPPO Pose ID>  (1951) 
585896

>  <ref_mols>  (1951) 
A0566a

>  <HIPPO Compound ID>  (1951) 
441050

>  <tags>  (1951) 
openbind_a71ev2a_c2_elabs,syndirella_product,openbind_a71ev2a_c2_elabs_fragonly_scored_top80percent,BulkDock Fragalysis export,openbind_a71ev2a_c2_elabs_scored,openbind_a71ev2a_c2_elabs_scored_top80percent,openbind_a71ev2a_c2_elabs_activefrags_only_scored_5.2plus,openbind_a71ev2a_c2_elabs_activefrags_only_scored_5.5plus,syndirella_placed

>  <smina_score_min>  (1951) 
-7.618

$$$$
P585900
     RDKit          3D

 21 23  0  0  0  0  0  0  0  0999 V2000
    6.2377   12.3151   29.2200 C   0  0  0  0  0  0  0  0  0  0  0  0
    5.2839   12.2239   28.0247 C   0  0  1  0  0  0  0  0  0  0  0  0
    4.9295   13.6274   27.4709 C   0  0  0  0  0  0  0  0  0  0  0  0
    6.1241   14.3582   26.8296 C   0  0  0  0  0  0  0  0  0  0  0  0
    6.9165   13.3998   26.0144 C   0  0  0  0  0  0  0  0  0  0  0  0
    7.8961   13.7517   25.1363 N   0  0  0  0  0  0  0  0  0  0  0  0
    8.4544   12.6188   24.5818 C   0  0  0  0  0  0  0  0  0  0  0  0
    9.5208   12.4925   23.6823 C   0  0  0  0  0  0  0  0  0  0  0  0
   10.3083   13.7030   23.2986 C   0  0  0  0  0  0  0  0  0  0  0  0
   10.2832   14.6218   24.0148 O   0  0  0  0  0  0  0  0  0  0  0  0
   11.0291   13.5056   21.9591 N   0  0  0  0  0  0  0  0  0  0  0  0
   11.7965   14.4270   21.1659 C   0  0  2  0  0  0  0  0  0  0  0  0
   12.6446   15.3187   22.0328 C   0  0  0  0  0  0  0  0  0  0  0  0
   10.8656   15.1319   20.1734 C   0  0  0  0  0  0  0  0  0  0  0  0
    9.9252   16.0091   20.7763 O   0  0  0  0  0  0  0  0  0  0  0  0
    9.8200   11.1963   23.2446 C   0  0  0  0  0  0  0  0  0  0  0  0
    9.1246   10.0867   23.7020 C   0  0  0  0  0  0  0  0  0  0  0  0
    8.1081   10.2364   24.6430 C   0  0  0  0  0  0  0  0  0  0  0  0
    7.7577   11.5217   25.0889 C   0  0  0  0  0  0  0  0  0  0  0  0
    6.8201   12.0248   26.0317 C   0  0  0  0  0  0  0  0  0  0  0  0
    5.8547   11.3077   26.9130 C   0  0  0  0  0  0  0  0  0  0  0  0
  2  1  1  1
  2  3  1  0
  3  4  1  0
  4  5  1  0
  5  6  1  0
  6  7  1  0
  7  8  2  0
  8  9  1  0
  9 10  2  0
  9 11  1  0
 11 12  1  0
 12 13  1  1
 12 14  1  0
 14 15  1  0
  8 16  1  0
 16 17  2  0
 17 18  1  0
 18 19  2  0
 19 20  1  0
 20 21  1  0
 21  2  1  0
 20  5  2  0
 19  7  1  0
M  END
>  <alias>  (1952) 
None

>  <rmsd(smina/fragmenstein)>  (1952) 
0.495

>  <smiles>  (1952) 
C[C@H]1CCc2[nH]c3c(C(=O)N[C@H](C)CO)cccc3c2C1

>  <gnina_score>  (1952) 
5.414

>  <inspiration_score>  (1952) 
None

>  <energy_score>  (1952) 
-10.217203

>  <distance_score>  (1952) 
1.10613

>  <gnina_score_min>  (1952) 
5.469

>  <inchikey>  (1952) 
UQRFJYABDUZTCJ-WDEREUQCSA-N

>  <exports>  (1952) 
['/opt/xchem-fragalysis-2/maxwin/BulkDock/OUTPUTS/openbind_a71ev2a_c2_elabs_1LOUU54.sdf', '/opt/xchem-fragalysis-2/maxwin/BulkDock/OUTPUTS/openbind_a71ev2a_c2_elabs_1LSYIDY.sdf']

>  <name>  (1952) 
P585900

>  <ref_pdb>  (1952) 
A0566a

>  <subsites>  (1952) 
None

>  <HIPPO Pose ID>  (1952) 
585900

>  <ref_mols>  (1952) 
A0566a

>  <HIPPO Compound ID>  (1952) 
441051

>  <tags>  (1952) 
openbind_a71ev2a_c2_elabs,syndirella_product,openbind_a71ev2a_c2_elabs_fragonly_scored_top80percent,openbind_a71ev2a_c2_elabs_scored,BulkDock Fragalysis export,openbind_a71ev2a_c2_elabs_scored_top80percent,openbind_a71ev2a_c2_elabs_activefrags_only_scored_5.2plus,syndirella_placed

>  <smina_score_min>  (1952) 
-6.936

$$$$
P585905
     RDKit          3D

 21 23  0  0  0  0  0  0  0  0999 V2000
    4.1777   10.6028   28.8548 C   0  0  0  0  0  0  0  0  0  0  0  0
    4.7763   11.5079   27.7793 C   0  0  1  0  0  0  0  0  0  0  0  0
    5.3567   12.7955   28.4117 C   0  0  0  0  0  0  0  0  0  0  0  0
    5.8780   13.7673   27.3396 C   0  0  0  0  0  0  0  0  0  0  0  0
    6.7085   13.0172   26.3611 C   0  0  0  0  0  0  0  0  0  0  0  0
    7.6280   13.5843   25.5333 N   0  0  0  0  0  0  0  0  0  0  0  0
    8.2697   12.5983   24.8176 C   0  0  0  0  0  0  0  0  0  0  0  0
    9.3554   12.6897   23.9465 C   0  0  0  0  0  0  0  0  0  0  0  0
   10.0997   13.9624   23.8540 C   0  0  0  0  0  0  0  0  0  0  0  0
   10.3266   14.5500   24.8318 O   0  0  0  0  0  0  0  0  0  0  0  0
   10.4905   14.2577   22.4079 N   0  0  0  0  0  0  0  0  0  0  0  0
   11.3239   15.2866   21.8597 C   0  0  0  0  0  0  0  0  0  0  0  0
   12.4703   14.6802   21.0932 C   0  0  0  0  0  0  0  0  0  0  0  0
   12.0763   14.4559   19.7106 C   0  0  0  0  0  0  0  0  0  0  0  0
   11.7660   14.2938   18.6079 N   0  0  0  0  0  0  0  0  0  0  0  0
    9.8008   11.5262   23.3082 C   0  0  0  0  0  0  0  0  0  0  0  0
    9.2117   10.2987   23.5875 C   0  0  0  0  0  0  0  0  0  0  0  0
    8.1765   10.2152   24.5276 C   0  0  0  0  0  0  0  0  0  0  0  0
    7.6768   11.3794   25.1435 C   0  0  0  0  0  0  0  0  0  0  0  0
    6.6990   11.6544   26.1450 C   0  0  0  0  0  0  0  0  0  0  0  0
    5.8422   10.7365   26.9569 C   0  0  0  0  0  0  0  0  0  0  0  0
  2  1  1  1
  2  3  1  0
  3  4  1  0
  4  5  1  0
  5  6  1  0
  6  7  1  0
  7  8  2  0
  8  9  1  0
  9 10  2  0
  9 11  1  0
 11 12  1  0
 12 13  1  0
 13 14  1  0
 14 15  3  0
  8 16  1  0
 16 17  2  0
 17 18  1  0
 18 19  2  0
 19 20  1  0
 20 21  1  0
 21  2  1  0
 20  5  2  0
 19  7  1  0
M  END
>  <alias>  (1953) 
None

>  <rmsd(smina/fragmenstein)>  (1953) 
0.229

>  <smiles>  (1953) 
C[C@H]1CCc2[nH]c3c(C(=O)NCCC#N)cccc3c2C1

>  <gnina_score>  (1953) 
5.464

>  <inspiration_score>  (1953) 
None

>  <energy_score>  (1953) 
-31.508056

>  <distance_score>  (1953) 
1.067184

>  <gnina_score_min>  (1953) 
5.535

>  <inchikey>  (1953) 
JTUQHZUEMYKYHY-NSHDSACASA-N

>  <exports>  (1953) 
['/opt/xchem-fragalysis-2/maxwin/BulkDock/OUTPUTS/openbind_a71ev2a_c2_elabs_1LOUU54.sdf', '/opt/xchem-fragalysis-2/maxwin/BulkDock/OUTPUTS/openbind_a71ev2a_c2_elabs_1LSYIDY.sdf']

>  <name>  (1953) 
P585905

>  <ref_pdb>  (1953) 
A0566a

>  <subsites>  (1953) 
None

>  <HIPPO Pose ID>  (1953) 
585905

>  <ref_mols>  (1953) 
A0566a

>  <HIPPO Compound ID>  (1953) 
441053

>  <tags>  (1953) 
openbind_a71ev2a_c2_elabs,syndirella_product,openbind_a71ev2a_c2_elabs_fragonly_scored_top80percent,BulkDock Fragalysis export,openbind_a71ev2a_c2_elabs_scored,openbind_a71ev2a_c2_elabs_scored_top80percent,openbind_a71ev2a_c2_elabs_activefrags_only_scored_5.2plus,openbind_a71ev2a_c2_elabs_activefrags_only_scored_5.5plus,syndirella_placed

>  <smina_score_min>  (1953) 
-5.91

$$$$
P585907
     RDKit          3D

 21 24  0  0  0  0  0  0  0  0999 V2000
    6.2413   12.2602   29.2399 C   0  0  0  0  0  0  0  0  0  0  0  0
    5.2950   12.2237   28.0358 C   0  0  1  0  0  0  0  0  0  0  0  0
    5.0058   13.6476   27.4965 C   0  0  0  0  0  0  0  0  0  0  0  0
    6.2360   14.3327   26.8726 C   0  0  0  0  0  0  0  0  0  0  0  0
    6.9902   13.3508   26.0490 C   0  0  0  0  0  0  0  0  0  0  0  0
    8.0045   13.6666   25.1970 N   0  0  0  0  0  0  0  0  0  0  0  0
    8.5090   12.5167   24.6247 C   0  0  0  0  0  0  0  0  0  0  0  0
    9.5887   12.3447   23.7465 C   0  0  0  0  0  0  0  0  0  0  0  0
   10.4875   13.4934   23.4757 C   0  0  0  0  0  0  0  0  0  0  0  0
   10.5393   14.3365   24.2877 O   0  0  0  0  0  0  0  0  0  0  0  0
   11.1925   13.3793   22.0982 N   0  0  0  0  0  0  0  0  0  0  0  0
   11.9905   14.2746   21.4267 N   0  0  0  0  0  0  0  0  0  0  0  0
   11.8726   15.6457   21.9522 C   0  0  0  0  0  0  0  0  0  0  0  0
   10.5778   15.8128   21.1111 C   0  0  0  0  0  0  0  0  0  0  0  0
   11.2464   14.7590   20.2138 C   0  0  0  0  0  0  0  0  0  0  0  0
    9.8087   11.0582   23.2537 C   0  0  0  0  0  0  0  0  0  0  0  0
    9.0611    9.9813   23.6951 C   0  0  0  0  0  0  0  0  0  0  0  0
    8.0584   10.1569   24.6482 C   0  0  0  0  0  0  0  0  0  0  0  0
    7.7538   11.4486   25.1052 C   0  0  0  0  0  0  0  0  0  0  0  0
    6.8323   11.9814   26.0473 C   0  0  0  0  0  0  0  0  0  0  0  0
    5.8344   11.2963   26.9174 C   0  0  0  0  0  0  0  0  0  0  0  0
  2  1  1  1
  2  3  1  0
  3  4  1  0
  4  5  1  0
  5  6  1  0
  6  7  1  0
  7  8  2  0
  8  9  1  0
  9 10  2  0
  9 11  1  0
 11 12  1  0
 12 13  1  0
 13 14  1  0
 14 15  1  0
  8 16  1  0
 16 17  2  0
 17 18  1  0
 18 19  2  0
 19 20  1  0
 20 21  1  0
 21  2  1  0
 20  5  2  0
 19  7  1  0
 15 12  1  0
M  END
>  <alias>  (1954) 
None

>  <rmsd(smina/fragmenstein)>  (1954) 
0.474

>  <smiles>  (1954) 
C[C@H]1CCc2[nH]c3c(C(=O)NN4CCC4)cccc3c2C1

>  <gnina_score>  (1954) 
5.698

>  <inspiration_score>  (1954) 
None

>  <energy_score>  (1954) 
-14.641639

>  <distance_score>  (1954) 
1.035957

>  <gnina_score_min>  (1954) 
5.647

>  <inchikey>  (1954) 
CBJJSMWVUPYULU-NSHDSACASA-N

>  <exports>  (1954) 
['/opt/xchem-fragalysis-2/maxwin/BulkDock/OUTPUTS/openbind_a71ev2a_c2_elabs_1LOUU54.sdf', '/opt/xchem-fragalysis-2/maxwin/BulkDock/OUTPUTS/openbind_a71ev2a_c2_elabs_1LSYIDY.sdf']

>  <name>  (1954) 
P585907

>  <ref_pdb>  (1954) 
A0566a

>  <subsites>  (1954) 
None

>  <HIPPO Pose ID>  (1954) 
585907

>  <ref_mols>  (1954) 
A0566a

>  <HIPPO Compound ID>  (1954) 
441056

>  <tags>  (1954) 
openbind_a71ev2a_c2_elabs,syndirella_product,openbind_a71ev2a_c2_elabs_fragonly_scored_top80percent,BulkDock Fragalysis export,openbind_a71ev2a_c2_elabs_scored,openbind_a71ev2a_c2_elabs_scored_top80percent,openbind_a71ev2a_c2_elabs_activefrags_only_scored_5.2plus,openbind_a71ev2a_c2_elabs_activefrags_only_scored_5.5plus,syndirella_placed

>  <smina_score_min>  (1954) 
-6.271

$$$$
P585908
     RDKit          3D

 21 23  0  0  0  0  0  0  0  0999 V2000
    4.1296   10.4211   29.0658 C   0  0  0  0  0  0  0  0  0  0  0  0
    5.1449   11.3060   28.3461 C   0  0  2  0  0  0  0  0  0  0  0  0
    4.5000   12.6404   27.9046 C   0  0  0  0  0  0  0  0  0  0  0  0
    5.5260   13.5934   27.2675 C   0  0  0  0  0  0  0  0  0  0  0  0
    6.4179   12.8364   26.3498 C   0  0  0  0  0  0  0  0  0  0  0  0
    7.2715   13.4093   25.4606 N   0  0  0  0  0  0  0  0  0  0  0  0
    7.9856   12.4268   24.8102 C   0  0  0  0  0  0  0  0  0  0  0  0
    9.0066   12.5503   23.8677 C   0  0  0  0  0  0  0  0  0  0  0  0
    9.4574   13.9111   23.5367 C   0  0  0  0  0  0  0  0  0  0  0  0
    9.4876   14.6988   24.3932 O   0  0  0  0  0  0  0  0  0  0  0  0
    9.8669   14.0266   22.0691 N   0  0  0  0  0  0  0  0  0  0  0  0
   10.3100   15.1505   21.3186 C   0  0  0  0  0  0  0  0  0  0  0  0
   11.6236   15.5518   21.9465 C   0  0  0  0  0  0  0  0  0  0  0  0
   12.7497   14.6607   21.5143 C   0  0  0  0  0  0  0  0  0  0  0  0
   12.7769   14.5019   20.1087 O   0  0  0  0  0  0  0  0  0  0  0  0
    9.5884   11.3895   23.3467 C   0  0  0  0  0  0  0  0  0  0  0  0
    9.1162   10.1428   23.7313 C   0  0  0  0  0  0  0  0  0  0  0  0
    8.0931   10.0412   24.6852 C   0  0  0  0  0  0  0  0  0  0  0  0
    7.5257   11.1954   25.2569 C   0  0  0  0  0  0  0  0  0  0  0  0
    6.5551   11.4659   26.2659 C   0  0  0  0  0  0  0  0  0  0  0  0
    5.7710   10.5511   27.1464 C   0  0  0  0  0  0  0  0  0  0  0  0
  2  1  1  6
  2  3  1  0
  3  4  1  0
  4  5  1  0
  5  6  1  0
  6  7  1  0
  7  8  2  0
  8  9  1  0
  9 10  2  0
  9 11  1  0
 11 12  1  0
 12 13  1  0
 13 14  1  0
 14 15  1  0
  8 16  1  0
 16 17  2  0
 17 18  1  0
 18 19  2  0
 19 20  1  0
 20 21  1  0
 21  2  1  0
 20  5  2  0
 19  7  1  0
M  END
>  <alias>  (1955) 
None

>  <rmsd(smina/fragmenstein)>  (1955) 
0.573

>  <smiles>  (1955) 
C[C@@H]1CCc2[nH]c3c(C(=O)NCCCO)cccc3c2C1

>  <gnina_score>  (1955) 
5.328

>  <inspiration_score>  (1955) 
None

>  <energy_score>  (1955) 
-17.908682

>  <distance_score>  (1955) 
1.513559

>  <gnina_score_min>  (1955) 
5.474

>  <inchikey>  (1955) 
QIGHJZJLILWVJG-LLVKDONJSA-N

>  <exports>  (1955) 
['/opt/xchem-fragalysis-2/maxwin/BulkDock/OUTPUTS/openbind_a71ev2a_c2_elabs_1LOUU54.sdf', '/opt/xchem-fragalysis-2/maxwin/BulkDock/OUTPUTS/openbind_a71ev2a_c2_elabs_1LSYIDY.sdf']

>  <name>  (1955) 
P585908

>  <ref_pdb>  (1955) 
A0566a

>  <subsites>  (1955) 
None

>  <HIPPO Pose ID>  (1955) 
585908

>  <ref_mols>  (1955) 
A0566a

>  <HIPPO Compound ID>  (1955) 
441058

>  <tags>  (1955) 
openbind_a71ev2a_c2_elabs,syndirella_product,openbind_a71ev2a_c2_elabs_fragonly_scored_top80percent,openbind_a71ev2a_c2_elabs_scored,BulkDock Fragalysis export,openbind_a71ev2a_c2_elabs_scored_top80percent,openbind_a71ev2a_c2_elabs_activefrags_only_scored_5.2plus,syndirella_placed

>  <smina_score_min>  (1955) 
-6.524

$$$$
P585910
     RDKit          3D

 21 23  0  0  0  0  0  0  0  0999 V2000
    9.4633   16.6750   20.0873 C   0  0  0  0  0  0  0  0  0  0  0  0
   10.1404   15.8892   19.2441 C   0  0  0  0  0  0  0  0  0  0  0  0
   11.2226   14.9021   19.5885 C   0  0  0  0  0  0  0  0  0  0  0  0
   11.6695   14.7698   21.0542 C   0  0  0  0  0  0  0  0  0  0  0  0
   10.8589   13.8325   21.7862 N   0  0  0  0  0  0  0  0  0  0  0  0
   10.3659   13.8618   23.2397 C   0  0  0  0  0  0  0  0  0  0  0  0
   10.4716   14.6857   24.0567 O   0  0  0  0  0  0  0  0  0  0  0  0
    9.5889   12.6407   23.5991 C   0  0  0  0  0  0  0  0  0  0  0  0
    9.9183   11.3650   23.1355 C   0  0  0  0  0  0  0  0  0  0  0  0
    9.2480   10.2278   23.5733 C   0  0  0  0  0  0  0  0  0  0  0  0
    8.2228   10.3380   24.5146 C   0  0  0  0  0  0  0  0  0  0  0  0
    7.8401   11.6074   24.9849 C   0  0  0  0  0  0  0  0  0  0  0  0
    6.8788   12.0766   25.9262 C   0  0  0  0  0  0  0  0  0  0  0  0
    6.9933   13.4500   25.9755 C   0  0  0  0  0  0  0  0  0  0  0  0
    7.9724   13.8360   25.1121 N   0  0  0  0  0  0  0  0  0  0  0  0
    8.5283   12.7273   24.5110 C   0  0  0  0  0  0  0  0  0  0  0  0
    6.1855   14.3802   26.8073 C   0  0  0  0  0  0  0  0  0  0  0  0
    5.5016   13.5925   27.9377 C   0  0  0  0  0  0  0  0  0  0  0  0
    4.8601   12.2813   27.4209 C   0  0  2  0  0  0  0  0  0  0  0  0
    4.1102   11.5734   28.5478 C   0  0  0  0  0  0  0  0  0  0  0  0
    5.9173   11.3346   26.7952 C   0  0  0  0  0  0  0  0  0  0  0  0
  1  2  2  0
  2  3  1  0
  3  4  1  0
  4  5  1  0
  5  6  1  0
  6  7  2  0
  6  8  1  0
  8  9  2  0
  9 10  1  0
 10 11  2  0
 11 12  1  0
 12 13  1  0
 13 14  2  0
 14 15  1  0
 15 16  1  0
 14 17  1  0
 17 18  1  0
 18 19  1  0
 19 20  1  1
 19 21  1  0
 16  8  1  0
 16 12  2  0
 21 13  1  0
M  END
>  <alias>  (1956) 
None

>  <rmsd(smina/fragmenstein)>  (1956) 
0.423

>  <smiles>  (1956) 
C=CCCNC(=O)c1cccc2c3c([nH]c12)CC[C@H](C)C3

>  <gnina_score>  (1956) 
5.581

>  <inspiration_score>  (1956) 
None

>  <energy_score>  (1956) 
-16.871898

>  <distance_score>  (1956) 
1.017433

>  <gnina_score_min>  (1956) 
5.622

>  <inchikey>  (1956) 
GNOYXPTYKIRAFT-LBPRGKRZSA-N

>  <exports>  (1956) 
['/opt/xchem-fragalysis-2/maxwin/BulkDock/OUTPUTS/openbind_a71ev2a_c2_elabs_1LOUU54.sdf', '/opt/xchem-fragalysis-2/maxwin/BulkDock/OUTPUTS/openbind_a71ev2a_c2_elabs_1LSYIDY.sdf']

>  <name>  (1956) 
P585910

>  <ref_pdb>  (1956) 
A0566a

>  <subsites>  (1956) 
None

>  <HIPPO Pose ID>  (1956) 
585910

>  <ref_mols>  (1956) 
A0566a

>  <HIPPO Compound ID>  (1956) 
441059

>  <tags>  (1956) 
openbind_a71ev2a_c2_elabs,syndirella_product,openbind_a71ev2a_c2_elabs_fragonly_scored_top80percent,BulkDock Fragalysis export,openbind_a71ev2a_c2_elabs_scored,openbind_a71ev2a_c2_elabs_scored_top80percent,openbind_a71ev2a_c2_elabs_activefrags_only_scored_5.2plus,openbind_a71ev2a_c2_elabs_activefrags_only_scored_5.5plus,syndirella_placed

>  <smina_score_min>  (1956) 
-7.003

$$$$
P585912
     RDKit          3D

 21 23  0  0  0  0  0  0  0  0999 V2000
    4.3231   11.0429   28.8608 C   0  0  0  0  0  0  0  0  0  0  0  0
    5.4159   11.7923   28.1024 C   0  0  2  0  0  0  0  0  0  0  0  0
    4.9062   13.1751   27.6266 C   0  0  0  0  0  0  0  0  0  0  0  0
    6.0136   14.0006   26.9460 C   0  0  0  0  0  0  0  0  0  0  0  0
    6.8255   13.1260   26.0587 C   0  0  0  0  0  0  0  0  0  0  0  0
    7.7481   13.5739   25.1639 N   0  0  0  0  0  0  0  0  0  0  0  0
    8.3656   12.5002   24.5561 C   0  0  0  0  0  0  0  0  0  0  0  0
    9.4120   12.4798   23.6244 C   0  0  0  0  0  0  0  0  0  0  0  0
   10.0661   13.7571   23.2684 C   0  0  0  0  0  0  0  0  0  0  0  0
   10.1039   14.5683   24.1065 O   0  0  0  0  0  0  0  0  0  0  0  0
   10.5640   13.8024   21.8128 N   0  0  0  0  0  0  0  0  0  0  0  0
   11.1308   14.8907   21.0468 C   0  0  0  0  0  0  0  0  0  0  0  0
   11.6784   14.4327   19.6945 C   0  0  0  0  0  0  0  0  0  0  0  0
   12.2936   15.4086   21.8963 C   0  0  0  0  0  0  0  0  0  0  0  0
    9.9949   15.8927   20.7863 C   0  0  0  0  0  0  0  0  0  0  0  0
    9.8320   11.2377   23.1512 C   0  0  0  0  0  0  0  0  0  0  0  0
    9.2365   10.0631   23.5894 C   0  0  0  0  0  0  0  0  0  0  0  0
    8.2160   10.1058   24.5444 C   0  0  0  0  0  0  0  0  0  0  0  0
    7.7685   11.3412   25.0442 C   0  0  0  0  0  0  0  0  0  0  0  0
    6.8162   11.7474   26.0208 C   0  0  0  0  0  0  0  0  0  0  0  0
    5.9243   10.9477   26.9078 C   0  0  0  0  0  0  0  0  0  0  0  0
  2  1  1  6
  2  3  1  0
  3  4  1  0
  4  5  1  0
  5  6  1  0
  6  7  1  0
  7  8  2  0
  8  9  1  0
  9 10  2  0
  9 11  1  0
 11 12  1  0
 12 13  1  0
 12 14  1  0
 12 15  1  0
  8 16  1  0
 16 17  2  0
 17 18  1  0
 18 19  2  0
 19 20  1  0
 20 21  1  0
 21  2  1  0
 20  5  2  0
 19  7  1  0
M  END
>  <alias>  (1957) 
None

>  <rmsd(smina/fragmenstein)>  (1957) 
0.411

>  <smiles>  (1957) 
C[C@@H]1CCc2[nH]c3c(C(=O)NC(C)(C)C)cccc3c2C1

>  <gnina_score>  (1957) 
5.574

>  <inspiration_score>  (1957) 
None

>  <energy_score>  (1957) 
-20.806562

>  <distance_score>  (1957) 
1.139252

>  <gnina_score_min>  (1957) 
5.606

>  <inchikey>  (1957) 
LZPWGSWJYYIMAC-LLVKDONJSA-N

>  <exports>  (1957) 
['/opt/xchem-fragalysis-2/maxwin/BulkDock/OUTPUTS/openbind_a71ev2a_c2_elabs_1LOUU54.sdf', '/opt/xchem-fragalysis-2/maxwin/BulkDock/OUTPUTS/openbind_a71ev2a_c2_elabs_1LSYIDY.sdf']

>  <name>  (1957) 
P585912

>  <ref_pdb>  (1957) 
A0566a

>  <subsites>  (1957) 
None

>  <HIPPO Pose ID>  (1957) 
585912

>  <ref_mols>  (1957) 
A0566a

>  <HIPPO Compound ID>  (1957) 
441060

>  <tags>  (1957) 
openbind_a71ev2a_c2_elabs,syndirella_product,openbind_a71ev2a_c2_elabs_fragonly_scored_top80percent,BulkDock Fragalysis export,openbind_a71ev2a_c2_elabs_scored,openbind_a71ev2a_c2_elabs_scored_top80percent,openbind_a71ev2a_c2_elabs_activefrags_only_scored_5.2plus,openbind_a71ev2a_c2_elabs_activefrags_only_scored_5.5plus,syndirella_placed

>  <smina_score_min>  (1957) 
-7.074

$$$$
P585915
     RDKit          3D

 21 23  0  0  0  0  0  0  0  0999 V2000
    4.2630   11.5557   28.6906 C   0  0  0  0  0  0  0  0  0  0  0  0
    5.4484   12.2145   27.9889 C   0  0  2  0  0  0  0  0  0  0  0  0
    5.0789   13.6411   27.5099 C   0  0  0  0  0  0  0  0  0  0  0  0
    6.2777   14.3751   26.8801 C   0  0  0  0  0  0  0  0  0  0  0  0
    7.0447   13.4414   26.0129 C   0  0  0  0  0  0  0  0  0  0  0  0
    8.0380   13.8148   25.1577 N   0  0  0  0  0  0  0  0  0  0  0  0
    8.5772   12.6966   24.5576 C   0  0  0  0  0  0  0  0  0  0  0  0
    9.6441   12.5851   23.6593 C   0  0  0  0  0  0  0  0  0  0  0  0
   10.4772   13.7765   23.3376 C   0  0  0  0  0  0  0  0  0  0  0  0
   10.6673   14.5549   24.1833 O   0  0  0  0  0  0  0  0  0  0  0  0
   10.9132   13.7791   21.8670 N   0  0  0  0  0  0  0  0  0  0  0  0
   11.7538   14.6894   21.1458 C   0  0  0  0  0  0  0  0  0  0  0  0
   11.0786   15.0870   19.8415 C   0  0  0  0  0  0  0  0  0  0  0  0
    9.9463   16.0638   20.1019 C   0  0  0  0  0  0  0  0  0  0  0  0
    9.6678   17.2066   18.5554 Br  0  0  0  0  0  0  0  0  0  0  0  0
    9.9239   11.3083   23.1642 C   0  0  0  0  0  0  0  0  0  0  0  0
    9.2200   10.1864   23.5825 C   0  0  0  0  0  0  0  0  0  0  0  0
    8.2049   10.3142   24.5296 C   0  0  0  0  0  0  0  0  0  0  0  0
    7.8602   11.5886   25.0142 C   0  0  0  0  0  0  0  0  0  0  0  0
    6.9177   12.0695   25.9628 C   0  0  0  0  0  0  0  0  0  0  0  0
    5.9294   11.3396   26.8050 C   0  0  0  0  0  0  0  0  0  0  0  0
  2  1  1  6
  2  3  1  0
  3  4  1  0
  4  5  1  0
  5  6  1  0
  6  7  1  0
  7  8  2  0
  8  9  1  0
  9 10  2  0
  9 11  1  0
 11 12  1  0
 12 13  1  0
 13 14  1  0
 14 15  1  0
  8 16  1  0
 16 17  2  0
 17 18  1  0
 18 19  2  0
 19 20  1  0
 20 21  1  0
 21  2  1  0
 20  5  2  0
 19  7  1  0
M  END
>  <alias>  (1958) 
None

>  <rmsd(smina/fragmenstein)>  (1958) 
0.298

>  <smiles>  (1958) 
C[C@@H]1CCc2[nH]c3c(C(=O)NCCCBr)cccc3c2C1

>  <gnina_score>  (1958) 
5.667

>  <inspiration_score>  (1958) 
None

>  <energy_score>  (1958) 
-19.943398

>  <distance_score>  (1958) 
0.959994

>  <gnina_score_min>  (1958) 
5.687

>  <inchikey>  (1958) 
OHJRNPHICTWGKH-LLVKDONJSA-N

>  <exports>  (1958) 
['/opt/xchem-fragalysis-2/maxwin/BulkDock/OUTPUTS/openbind_a71ev2a_c2_elabs_1LOUU54.sdf', '/opt/xchem-fragalysis-2/maxwin/BulkDock/OUTPUTS/openbind_a71ev2a_c2_elabs_1LSYIDY.sdf']

>  <name>  (1958) 
P585915

>  <ref_pdb>  (1958) 
A0566a

>  <subsites>  (1958) 
None

>  <HIPPO Pose ID>  (1958) 
585915

>  <ref_mols>  (1958) 
A0566a

>  <HIPPO Compound ID>  (1958) 
441062

>  <tags>  (1958) 
openbind_a71ev2a_c2_elabs,syndirella_product,openbind_a71ev2a_c2_elabs_fragonly_scored_top80percent,BulkDock Fragalysis export,openbind_a71ev2a_c2_elabs_scored,openbind_a71ev2a_c2_elabs_scored_top80percent,openbind_a71ev2a_c2_elabs_activefrags_only_scored_5.2plus,openbind_a71ev2a_c2_elabs_activefrags_only_scored_5.5plus,syndirella_placed

>  <smina_score_min>  (1958) 
-6.6

$$$$
P585920
     RDKit          3D

 21 23  0  0  0  0  0  0  0  0999 V2000
    9.8534   15.9399   20.2791 C   0  0  0  0  0  0  0  0  0  0  0  0
   11.0170   15.0328   19.9109 C   0  0  0  0  0  0  0  0  0  0  0  0
   11.7673   14.4243   21.0969 C   0  0  1  0  0  0  0  0  0  0  0  0
   12.5600   15.3646   21.9654 C   0  0  0  0  0  0  0  0  0  0  0  0
   10.8752   13.5833   21.8465 N   0  0  0  0  0  0  0  0  0  0  0  0
   10.3588   13.7091   23.2876 C   0  0  0  0  0  0  0  0  0  0  0  0
   10.5123   14.5557   24.0745 O   0  0  0  0  0  0  0  0  0  0  0  0
    9.5480   12.5199   23.6708 C   0  0  0  0  0  0  0  0  0  0  0  0
    9.8373   11.2256   23.2215 C   0  0  0  0  0  0  0  0  0  0  0  0
    9.1361   10.1181   23.6742 C   0  0  0  0  0  0  0  0  0  0  0  0
    8.1227   10.2720   24.6182 C   0  0  0  0  0  0  0  0  0  0  0  0
    7.7847   11.5581   25.0740 C   0  0  0  0  0  0  0  0  0  0  0  0
    6.8517   12.0623   26.0192 C   0  0  0  0  0  0  0  0  0  0  0  0
    6.9749   13.4353   26.0297 C   0  0  0  0  0  0  0  0  0  0  0  0
    7.9576   13.7869   25.1537 N   0  0  0  0  0  0  0  0  0  0  0  0
    8.4931   12.6542   24.5788 C   0  0  0  0  0  0  0  0  0  0  0  0
    6.2069   14.3893   26.8733 C   0  0  0  0  0  0  0  0  0  0  0  0
    5.0051   13.6700   27.5144 C   0  0  0  0  0  0  0  0  0  0  0  0
    5.3761   12.2598   28.0382 C   0  0  1  0  0  0  0  0  0  0  0  0
    4.1872   11.6167   28.7487 C   0  0  0  0  0  0  0  0  0  0  0  0
    5.8724   11.3502   26.8872 C   0  0  0  0  0  0  0  0  0  0  0  0
  1  2  1  0
  2  3  1  0
  3  4  1  1
  3  5  1  0
  5  6  1  0
  6  7  2  0
  6  8  1  0
  8  9  2  0
  9 10  1  0
 10 11  2  0
 11 12  1  0
 12 13  1  0
 13 14  2  0
 14 15  1  0
 15 16  1  0
 14 17  1  0
 17 18  1  0
 18 19  1  0
 19 20  1  6
 19 21  1  0
 16  8  1  0
 16 12  2  0
 21 13  1  0
M  END
>  <alias>  (1959) 
None

>  <rmsd(smina/fragmenstein)>  (1959) 
0.467

>  <smiles>  (1959) 
CC[C@@H](C)NC(=O)c1cccc2c3c([nH]c12)CC[C@@H](C)C3

>  <gnina_score>  (1959) 
5.59

>  <inspiration_score>  (1959) 
None

>  <energy_score>  (1959) 
-39.899387

>  <distance_score>  (1959) 
1.068335

>  <gnina_score_min>  (1959) 
5.668

>  <inchikey>  (1959) 
QXWCUTYHRLVNMB-VXGBXAGGSA-N

>  <exports>  (1959) 
['/opt/xchem-fragalysis-2/maxwin/BulkDock/OUTPUTS/openbind_a71ev2a_c2_elabs_1LOUU54.sdf', '/opt/xchem-fragalysis-2/maxwin/BulkDock/OUTPUTS/openbind_a71ev2a_c2_elabs_1LSYIDY.sdf']

>  <name>  (1959) 
P585920

>  <ref_pdb>  (1959) 
A0566a

>  <subsites>  (1959) 
None

>  <HIPPO Pose ID>  (1959) 
585920

>  <ref_mols>  (1959) 
A0566a

>  <HIPPO Compound ID>  (1959) 
441063

>  <tags>  (1959) 
openbind_a71ev2a_c2_elabs,syndirella_product,openbind_a71ev2a_c2_elabs_fragonly_scored_top80percent,BulkDock Fragalysis export,openbind_a71ev2a_c2_elabs_scored,openbind_a71ev2a_c2_elabs_scored_top80percent,openbind_a71ev2a_c2_elabs_activefrags_only_scored_5.2plus,openbind_a71ev2a_c2_elabs_activefrags_only_scored_5.5plus,syndirella_placed

>  <smina_score_min>  (1959) 
-7.039

$$$$
P585923
     RDKit          3D

 21 24  0  0  0  0  0  0  0  0999 V2000
    4.0021   12.0231   28.3531 C   0  0  0  0  0  0  0  0  0  0  0  0
    4.8764   12.7010   27.2997 C   0  0  1  0  0  0  0  0  0  0  0  0
    5.5646   13.9537   27.8981 C   0  0  0  0  0  0  0  0  0  0  0  0
    6.3936   14.7177   26.8516 C   0  0  0  0  0  0  0  0  0  0  0  0
    7.1856   13.7536   26.0428 C   0  0  0  0  0  0  0  0  0  0  0  0
    8.2530   14.0878   25.2638 N   0  0  0  0  0  0  0  0  0  0  0  0
    8.7276   12.9676   24.6224 C   0  0  0  0  0  0  0  0  0  0  0  0
    9.7914   12.8153   23.7331 C   0  0  0  0  0  0  0  0  0  0  0  0
   10.7864   13.8847   23.4462 C   0  0  0  0  0  0  0  0  0  0  0  0
   11.3289   14.4400   24.3340 O   0  0  0  0  0  0  0  0  0  0  0  0
   10.9903   13.9947   21.9599 N   0  0  0  0  0  0  0  0  0  0  0  0
   12.0095   14.7663   21.1608 C   0  0  0  0  0  0  0  0  0  0  0  0
   10.9277   14.9509   20.1013 C   0  0  0  0  0  0  0  0  0  0  0  0
   10.0780   15.0934   21.3381 C   0  0  1  0  0  0  0  0  0  0  0  0
    8.6090   14.7808   21.3621 C   0  0  0  0  0  0  0  0  0  0  0  0
    9.9826   11.5442   23.1762 C   0  0  0  0  0  0  0  0  0  0  0  0
    9.2165   10.4483   23.5542 C   0  0  0  0  0  0  0  0  0  0  0  0
    8.2036   10.6069   24.4985 C   0  0  0  0  0  0  0  0  0  0  0  0
    7.9215   11.8885   25.0105 C   0  0  0  0  0  0  0  0  0  0  0  0
    6.9683   12.3964   25.9366 C   0  0  0  0  0  0  0  0  0  0  0  0
    5.9142   11.7001   26.7301 C   0  0  0  0  0  0  0  0  0  0  0  0
  2  1  1  1
  2  3  1  0
  3  4  1  0
  4  5  1  0
  5  6  1  0
  6  7  1  0
  7  8  2  0
  8  9  1  0
  9 10  2  0
  9 11  1  0
 11 12  1  0
 12 13  1  0
 13 14  1  0
 14 15  1  6
  8 16  1  0
 16 17  2  0
 17 18  1  0
 18 19  2  0
 19 20  1  0
 20 21  1  0
 21  2  1  0
 20  5  2  0
 19  7  1  0
 14 11  1  0
M  END
>  <alias>  (1960) 
None

>  <rmsd(smina/fragmenstein)>  (1960) 
0.21

>  <smiles>  (1960) 
C[C@H]1CCc2[nH]c3c(C(=O)N4CC[C@H]4C)cccc3c2C1

>  <gnina_score>  (1960) 
5.76

>  <inspiration_score>  (1960) 
None

>  <energy_score>  (1960) 
-9.101206

>  <distance_score>  (1960) 
0.890961

>  <gnina_score_min>  (1960) 
5.733

>  <inchikey>  (1960) 
SRPIVXNOQQVPOV-NWDGAFQWSA-N

>  <exports>  (1960) 
['/opt/xchem-fragalysis-2/maxwin/BulkDock/OUTPUTS/openbind_a71ev2a_c2_elabs_1LOUU54.sdf', '/opt/xchem-fragalysis-2/maxwin/BulkDock/OUTPUTS/openbind_a71ev2a_c2_elabs_1LSYIDY.sdf']

>  <name>  (1960) 
P585923

>  <ref_pdb>  (1960) 
A0566a

>  <subsites>  (1960) 
None

>  <HIPPO Pose ID>  (1960) 
585923

>  <ref_mols>  (1960) 
A0566a

>  <HIPPO Compound ID>  (1960) 
441065

>  <tags>  (1960) 
openbind_a71ev2a_c2_elabs,syndirella_product,openbind_a71ev2a_c2_elabs_fragonly_scored_top80percent,BulkDock Fragalysis export,openbind_a71ev2a_c2_elabs_scored,openbind_a71ev2a_c2_elabs_scored_top80percent,openbind_a71ev2a_c2_elabs_activefrags_only_scored_5.2plus,openbind_a71ev2a_c2_elabs_activefrags_only_scored_5.5plus,syndirella_placed

>  <smina_score_min>  (1960) 
-7.393

$$$$
P585924
     RDKit          3D

 21 23  0  0  0  0  0  0  0  0999 V2000
   12.2838   14.4347   20.3003 C   0  0  0  0  0  0  0  0  0  0  0  0
   11.1460   15.0108   19.8907 C   0  0  0  0  0  0  0  0  0  0  0  0
   10.8310   15.3615   18.0785 Br  0  0  0  0  0  0  0  0  0  0  0  0
   10.0877   15.4609   20.8544 C   0  0  0  0  0  0  0  0  0  0  0  0
    9.7499   14.3465   21.6997 N   0  0  0  0  0  0  0  0  0  0  0  0
   10.0841   14.0747   23.1708 C   0  0  0  0  0  0  0  0  0  0  0  0
   10.7505   14.6703   23.9157 O   0  0  0  0  0  0  0  0  0  0  0  0
    9.4668   12.8108   23.6040 C   0  0  0  0  0  0  0  0  0  0  0  0
    9.9346   11.5928   23.1112 C   0  0  0  0  0  0  0  0  0  0  0  0
    9.3638   10.3903   23.5111 C   0  0  0  0  0  0  0  0  0  0  0  0
    8.3305   10.3890   24.4533 C   0  0  0  0  0  0  0  0  0  0  0  0
    7.8548   11.6071   24.9801 C   0  0  0  0  0  0  0  0  0  0  0  0
    6.8825   11.9644   25.9541 C   0  0  0  0  0  0  0  0  0  0  0  0
    6.8657   13.3414   26.0365 C   0  0  0  0  0  0  0  0  0  0  0  0
    7.7800   13.8407   25.1571 N   0  0  0  0  0  0  0  0  0  0  0  0
    8.4270   12.8002   24.5306 C   0  0  0  0  0  0  0  0  0  0  0  0
    6.0317   14.1688   26.9499 C   0  0  0  0  0  0  0  0  0  0  0  0
    4.9476   13.2976   27.6119 C   0  0  0  0  0  0  0  0  0  0  0  0
    5.4856   11.9070   28.0324 C   0  0  1  0  0  0  0  0  0  0  0  0
    4.4133   11.1115   28.7725 C   0  0  0  0  0  0  0  0  0  0  0  0
    5.9921   11.1196   26.7991 C   0  0  0  0  0  0  0  0  0  0  0  0
  1  2  2  0
  2  3  1  0
  2  4  1  0
  4  5  1  0
  5  6  1  0
  6  7  2  0
  6  8  1  0
  8  9  2  0
  9 10  1  0
 10 11  2  0
 11 12  1  0
 12 13  1  0
 13 14  2  0
 14 15  1  0
 15 16  1  0
 14 17  1  0
 17 18  1  0
 18 19  1  0
 19 20  1  6
 19 21  1  0
 16  8  1  0
 16 12  2  0
 21 13  1  0
M  END
>  <alias>  (1961) 
None

>  <rmsd(smina/fragmenstein)>  (1961) 
0.805

>  <smiles>  (1961) 
C=C(Br)CNC(=O)c1cccc2c3c([nH]c12)CC[C@@H](C)C3

>  <gnina_score>  (1961) 
5.216

>  <inspiration_score>  (1961) 
None

>  <energy_score>  (1961) 
-25.341375

>  <distance_score>  (1961) 
1.223749

>  <gnina_score_min>  (1961) 
5.496

>  <inchikey>  (1961) 
AVILUHKRYWMNLW-SNVBAGLBSA-N

>  <exports>  (1961) 
['/opt/xchem-fragalysis-2/maxwin/BulkDock/OUTPUTS/openbind_a71ev2a_c2_elabs_1LOUU54.sdf', '/opt/xchem-fragalysis-2/maxwin/BulkDock/OUTPUTS/openbind_a71ev2a_c2_elabs_1LSYIDY.sdf']

>  <name>  (1961) 
P585924

>  <ref_pdb>  (1961) 
A0566a

>  <subsites>  (1961) 
None

>  <HIPPO Pose ID>  (1961) 
585924

>  <ref_mols>  (1961) 
A0566a

>  <HIPPO Compound ID>  (1961) 
441066

>  <tags>  (1961) 
openbind_a71ev2a_c2_elabs,syndirella_product,openbind_a71ev2a_c2_elabs_fragonly_scored_top80percent,openbind_a71ev2a_c2_elabs_scored,BulkDock Fragalysis export,openbind_a71ev2a_c2_elabs_scored_top80percent,openbind_a71ev2a_c2_elabs_activefrags_only_scored_5.2plus,syndirella_placed

>  <smina_score_min>  (1961) 
-6.366

$$$$
P585925
     RDKit          3D

 21 23  0  0  0  0  0  0  0  0999 V2000
    4.2901   10.7326   28.9367 C   0  0  0  0  0  0  0  0  0  0  0  0
    5.3530   11.5576   28.2151 C   0  0  2  0  0  0  0  0  0  0  0  0
    4.7983   12.9480   27.8209 C   0  0  0  0  0  0  0  0  0  0  0  0
    5.8775   13.8440   27.1865 C   0  0  0  0  0  0  0  0  0  0  0  0
    6.7149   13.0471   26.2501 C   0  0  0  0  0  0  0  0  0  0  0  0
    7.6322   13.5747   25.3943 N   0  0  0  0  0  0  0  0  0  0  0  0
    8.2818   12.5557   24.7330 C   0  0  0  0  0  0  0  0  0  0  0  0
    9.3411   12.6115   23.8279 C   0  0  0  0  0  0  0  0  0  0  0  0
    9.9872   13.9099   23.5729 C   0  0  0  0  0  0  0  0  0  0  0  0
   10.1814   14.6221   24.4722 O   0  0  0  0  0  0  0  0  0  0  0  0
   10.2373   14.1094   22.0786 N   0  0  0  0  0  0  0  0  0  0  0  0
   10.8623   15.1808   21.3797 C   0  0  0  0  0  0  0  0  0  0  0  0
   12.3409   14.9184   21.2689 C   0  0  0  0  0  0  0  0  0  0  0  0
   12.6471   14.1985   19.9853 C   0  0  0  0  0  0  0  0  0  0  0  0
   11.8395   14.5996   18.9739 F   0  0  0  0  0  0  0  0  0  0  0  0
    9.7982   11.4220   23.2555 C   0  0  0  0  0  0  0  0  0  0  0  0
    9.2236   10.2065   23.6033 C   0  0  0  0  0  0  0  0  0  0  0  0
    8.1969   10.1628   24.5557 C   0  0  0  0  0  0  0  0  0  0  0  0
    7.7093   11.3515   25.1324 C   0  0  0  0  0  0  0  0  0  0  0  0
    6.7447   11.6730   26.1291 C   0  0  0  0  0  0  0  0  0  0  0  0
    5.8800   10.7989   26.9720 C   0  0  0  0  0  0  0  0  0  0  0  0
  2  1  1  6
  2  3  1  0
  3  4  1  0
  4  5  1  0
  5  6  1  0
  6  7  1  0
  7  8  2  0
  8  9  1  0
  9 10  2  0
  9 11  1  0
 11 12  1  0
 12 13  1  0
 13 14  1  0
 14 15  1  0
  8 16  1  0
 16 17  2  0
 17 18  1  0
 18 19  2  0
 19 20  1  0
 20 21  1  0
 21  2  1  0
 20  5  2  0
 19  7  1  0
M  END
>  <alias>  (1962) 
None

>  <rmsd(smina/fragmenstein)>  (1962) 
0.326

>  <smiles>  (1962) 
C[C@@H]1CCc2[nH]c3c(C(=O)NCCCF)cccc3c2C1

>  <gnina_score>  (1962) 
5.191

>  <inspiration_score>  (1962) 
None

>  <energy_score>  (1962) 
-7.707862

>  <distance_score>  (1962) 
1.160676

>  <gnina_score_min>  (1962) 
5.297

>  <inchikey>  (1962) 
IIAYCLSGZBXNNG-LLVKDONJSA-N

>  <exports>  (1962) 
['/opt/xchem-fragalysis-2/maxwin/BulkDock/OUTPUTS/openbind_a71ev2a_c2_elabs_1LOUU54.sdf', '/opt/xchem-fragalysis-2/maxwin/BulkDock/OUTPUTS/openbind_a71ev2a_c2_elabs_1LSYIDY.sdf']

>  <name>  (1962) 
P585925

>  <ref_pdb>  (1962) 
A0566a

>  <subsites>  (1962) 
None

>  <HIPPO Pose ID>  (1962) 
585925

>  <ref_mols>  (1962) 
A0566a

>  <HIPPO Compound ID>  (1962) 
441067

>  <tags>  (1962) 
openbind_a71ev2a_c2_elabs,syndirella_product,openbind_a71ev2a_c2_elabs_fragonly_scored_top80percent,openbind_a71ev2a_c2_elabs_scored,BulkDock Fragalysis export,openbind_a71ev2a_c2_elabs_scored_top80percent,openbind_a71ev2a_c2_elabs_activefrags_only_scored_5.2plus,syndirella_placed

>  <smina_score_min>  (1962) 
-6.205

$$$$
P585928
     RDKit          3D

 21 24  0  0  0  0  0  0  0  0999 V2000
    6.3709   13.4286   28.8478 C   0  0  0  0  0  0  0  0  0  0  0  0
    5.4389   13.3916   27.6317 C   0  0  1  0  0  0  0  0  0  0  0  0
    5.3409   14.7784   26.9448 C   0  0  0  0  0  0  0  0  0  0  0  0
    6.6541   15.2425   26.2865 C   0  0  0  0  0  0  0  0  0  0  0  0
    7.3170   14.0913   25.6144 C   0  0  0  0  0  0  0  0  0  0  0  0
    8.3685   14.1936   24.7518 N   0  0  0  0  0  0  0  0  0  0  0  0
    8.7628   12.9410   24.3489 C   0  0  0  0  0  0  0  0  0  0  0  0
    9.8123   12.5263   23.5339 C   0  0  0  0  0  0  0  0  0  0  0  0
   10.8966   13.3733   22.9943 C   0  0  0  0  0  0  0  0  0  0  0  0
   11.9856   12.9296   23.0754 O   0  0  0  0  0  0  0  0  0  0  0  0
   10.4052   14.6356   22.3342 N   0  0  0  0  0  0  0  0  0  0  0  0
   11.1622   15.7554   21.6695 C   0  0  0  0  0  0  0  0  0  0  0  0
   11.4028   14.8334   20.4785 C   0  0  0  0  0  0  0  0  0  0  0  0
   11.5014   15.3855   19.2534 F   0  0  0  0  0  0  0  0  0  0  0  0
   10.0205   14.3924   20.8734 C   0  0  0  0  0  0  0  0  0  0  0  0
    9.8640   11.1631   23.2061 C   0  0  0  0  0  0  0  0  0  0  0  0
    8.9999   10.2337   23.7545 C   0  0  0  0  0  0  0  0  0  0  0  0
    8.0253   10.6476   24.6538 C   0  0  0  0  0  0  0  0  0  0  0  0
    7.8801   12.0198   24.9324 C   0  0  0  0  0  0  0  0  0  0  0  0
    6.9927   12.7593   25.7558 C   0  0  0  0  0  0  0  0  0  0  0  0
    5.8696   12.2981   26.6219 C   0  0  0  0  0  0  0  0  0  0  0  0
  2  1  1  1
  2  3  1  0
  3  4  1  0
  4  5  1  0
  5  6  1  0
  6  7  1  0
  7  8  2  0
  8  9  1  0
  9 10  2  0
  9 11  1  0
 11 12  1  0
 12 13  1  0
 13 14  1  0
 13 15  1  0
  8 16  1  0
 16 17  2  0
 17 18  1  0
 18 19  2  0
 19 20  1  0
 20 21  1  0
 21  2  1  0
 20  5  2  0
 19  7  1  0
 15 11  1  0
M  END
>  <alias>  (1963) 
None

>  <rmsd(smina/fragmenstein)>  (1963) 
0.98

>  <smiles>  (1963) 
C[C@H]1CCc2[nH]c3c(C(=O)N4CC(F)C4)cccc3c2C1

>  <gnina_score>  (1963) 
5.301

>  <inspiration_score>  (1963) 
None

>  <energy_score>  (1963) 
-13.579125

>  <distance_score>  (1963) 
1.012323

>  <gnina_score_min>  (1963) 
5.307

>  <inchikey>  (1963) 
OIPVGQWPPCOQHO-JTQLQIEISA-N

>  <exports>  (1963) 
['/opt/xchem-fragalysis-2/maxwin/BulkDock/OUTPUTS/openbind_a71ev2a_c2_elabs_1LOUU54.sdf', '/opt/xchem-fragalysis-2/maxwin/BulkDock/OUTPUTS/openbind_a71ev2a_c2_elabs_1LSYIDY.sdf']

>  <name>  (1963) 
P585928

>  <ref_pdb>  (1963) 
A0566a

>  <subsites>  (1963) 
None

>  <HIPPO Pose ID>  (1963) 
585928

>  <ref_mols>  (1963) 
A0566a

>  <HIPPO Compound ID>  (1963) 
441068

>  <tags>  (1963) 
openbind_a71ev2a_c2_elabs,syndirella_product,openbind_a71ev2a_c2_elabs_fragonly_scored_top80percent,openbind_a71ev2a_c2_elabs_scored,BulkDock Fragalysis export,openbind_a71ev2a_c2_elabs_scored_top80percent,openbind_a71ev2a_c2_elabs_activefrags_only_scored_5.2plus,syndirella_placed

>  <smina_score_min>  (1963) 
-6.189

$$$$
P585931
     RDKit          3D

 21 23  0  0  0  0  0  0  0  0999 V2000
    3.7452   12.4008   27.6757 C   0  0  0  0  0  0  0  0  0  0  0  0
    5.1571   12.0057   28.1159 C   0  0  2  0  0  0  0  0  0  0  0  0
    5.9595   13.2655   28.5237 C   0  0  0  0  0  0  0  0  0  0  0  0
    6.3093   14.1561   27.3208 C   0  0  0  0  0  0  0  0  0  0  0  0
    6.9338   13.2984   26.2833 C   0  0  0  0  0  0  0  0  0  0  0  0
    7.8155   13.7409   25.3476 N   0  0  0  0  0  0  0  0  0  0  0  0
    8.3598   12.6633   24.6851 C   0  0  0  0  0  0  0  0  0  0  0  0
    9.4017   12.6278   23.7530 C   0  0  0  0  0  0  0  0  0  0  0  0
   10.1225   13.8809   23.4387 C   0  0  0  0  0  0  0  0  0  0  0  0
   10.3225   14.6272   24.3094 O   0  0  0  0  0  0  0  0  0  0  0  0
   10.4088   14.0040   21.9407 N   0  0  0  0  0  0  0  0  0  0  0  0
   11.0912   15.0348   21.1986 C   0  0  2  0  0  0  0  0  0  0  0  0
   10.4733   15.1968   19.8197 C   0  0  0  0  0  0  0  0  0  0  0  0
   12.5704   14.6946   21.1546 C   0  0  0  0  0  0  0  0  0  0  0  0
   12.8022   13.8012   20.1553 F   0  0  0  0  0  0  0  0  0  0  0  0
    9.7749   11.3896   23.2290 C   0  0  0  0  0  0  0  0  0  0  0  0
    9.1345   10.2258   23.6391 C   0  0  0  0  0  0  0  0  0  0  0  0
    8.1125   10.2783   24.5986 C   0  0  0  0  0  0  0  0  0  0  0  0
    7.7042   11.5166   25.1322 C   0  0  0  0  0  0  0  0  0  0  0  0
    6.7784   11.9349   26.1397 C   0  0  0  0  0  0  0  0  0  0  0  0
    5.8804   11.1409   27.0390 C   0  0  0  0  0  0  0  0  0  0  0  0
  2  1  1  6
  2  3  1  0
  3  4  1  0
  4  5  1  0
  5  6  1  0
  6  7  1  0
  7  8  2  0
  8  9  1  0
  9 10  2  0
  9 11  1  0
 11 12  1  0
 12 13  1  6
 12 14  1  0
 14 15  1  0
  8 16  1  0
 16 17  2  0
 17 18  1  0
 18 19  2  0
 19 20  1  0
 20 21  1  0
 21  2  1  0
 20  5  2  0
 19  7  1  0
M  END
>  <alias>  (1964) 
None

>  <rmsd(smina/fragmenstein)>  (1964) 
0.3

>  <smiles>  (1964) 
C[C@@H]1CCc2[nH]c3c(C(=O)N[C@H](C)CF)cccc3c2C1

>  <gnina_score>  (1964) 
5.337

>  <inspiration_score>  (1964) 
None

>  <energy_score>  (1964) 
-30.435113

>  <distance_score>  (1964) 
1.132773

>  <gnina_score_min>  (1964) 
5.504

>  <inchikey>  (1964) 
ZKEVVEZXOONLFC-GHMZBOCLSA-N

>  <exports>  (1964) 
['/opt/xchem-fragalysis-2/maxwin/BulkDock/OUTPUTS/openbind_a71ev2a_c2_elabs_1LOUU54.sdf', '/opt/xchem-fragalysis-2/maxwin/BulkDock/OUTPUTS/openbind_a71ev2a_c2_elabs_1LSYIDY.sdf']

>  <name>  (1964) 
P585931

>  <ref_pdb>  (1964) 
A0566a

>  <subsites>  (1964) 
None

>  <HIPPO Pose ID>  (1964) 
585931

>  <ref_mols>  (1964) 
A0566a

>  <HIPPO Compound ID>  (1964) 
441069

>  <tags>  (1964) 
openbind_a71ev2a_c2_elabs,syndirella_product,openbind_a71ev2a_c2_elabs_fragonly_scored_top80percent,BulkDock Fragalysis export,openbind_a71ev2a_c2_elabs_scored,openbind_a71ev2a_c2_elabs_scored_top80percent,openbind_a71ev2a_c2_elabs_activefrags_only_scored_5.2plus,openbind_a71ev2a_c2_elabs_activefrags_only_scored_5.5plus,syndirella_placed

>  <smina_score_min>  (1964) 
-7.181

$$$$
P585934
     RDKit          3D

 21 23  0  0  0  0  0  0  0  0999 V2000
    4.1307   11.1884   28.6893 C   0  0  0  0  0  0  0  0  0  0  0  0
    4.8491   11.9456   27.5737 C   0  0  1  0  0  0  0  0  0  0  0  0
    5.5055   13.2335   28.1291 C   0  0  0  0  0  0  0  0  0  0  0  0
    6.1590   14.0679   27.0142 C   0  0  0  0  0  0  0  0  0  0  0  0
    6.9576   13.1732   26.1378 C   0  0  0  0  0  0  0  0  0  0  0  0
    7.9480   13.5912   25.3021 N   0  0  0  0  0  0  0  0  0  0  0  0
    8.5225   12.5001   24.6828 C   0  0  0  0  0  0  0  0  0  0  0  0
    9.6270   12.4423   23.8199 C   0  0  0  0  0  0  0  0  0  0  0  0
   10.3986   13.6882   23.5863 C   0  0  0  0  0  0  0  0  0  0  0  0
   10.4821   14.4373   24.4736 O   0  0  0  0  0  0  0  0  0  0  0  0
   10.8782   13.8079   22.1381 N   0  0  0  0  0  0  0  0  0  0  0  0
   11.4773   14.9076   21.4440 C   0  0  0  0  0  0  0  0  0  0  0  0
   10.4021   15.6227   20.5925 C   0  0  1  0  0  0  0  0  0  0  0  0
   10.5945   15.3328   19.1143 C   0  0  0  0  0  0  0  0  0  0  0  0
    8.7182   15.1732   21.0666 Cl  0  0  0  0  0  0  0  0  0  0  0  0
    9.9137   11.2114   23.2342 C   0  0  0  0  0  0  0  0  0  0  0  0
    9.2152   10.0653   23.5905 C   0  0  0  0  0  0  0  0  0  0  0  0
    8.1897   10.1298   24.5392 C   0  0  0  0  0  0  0  0  0  0  0  0
    7.8056   11.3713   25.0743 C   0  0  0  0  0  0  0  0  0  0  0  0
    6.8396   11.8030   26.0296 C   0  0  0  0  0  0  0  0  0  0  0  0
    5.8839   11.0255   26.8740 C   0  0  0  0  0  0  0  0  0  0  0  0
  2  1  1  1
  2  3  1  0
  3  4  1  0
  4  5  1  0
  5  6  1  0
  6  7  1  0
  7  8  2  0
  8  9  1  0
  9 10  2  0
  9 11  1  0
 11 12  1  0
 12 13  1  0
 13 14  1  6
 13 15  1  0
  8 16  1  0
 16 17  2  0
 17 18  1  0
 18 19  2  0
 19 20  1  0
 20 21  1  0
 21  2  1  0
 20  5  2  0
 19  7  1  0
M  END
>  <alias>  (1965) 
None

>  <rmsd(smina/fragmenstein)>  (1965) 
0.303

>  <smiles>  (1965) 
C[C@H]1CCc2[nH]c3c(C(=O)NC[C@@H](C)Cl)cccc3c2C1

>  <gnina_score>  (1965) 
5.805

>  <inspiration_score>  (1965) 
None

>  <energy_score>  (1965) 
-11.872697

>  <distance_score>  (1965) 
0.951942

>  <gnina_score_min>  (1965) 
5.823

>  <inchikey>  (1965) 
FMBZNYARLDBTLN-WDEREUQCSA-N

>  <exports>  (1965) 
['/opt/xchem-fragalysis-2/maxwin/BulkDock/OUTPUTS/openbind_a71ev2a_c2_elabs_1LOUU54.sdf', '/opt/xchem-fragalysis-2/maxwin/BulkDock/OUTPUTS/openbind_a71ev2a_c2_elabs_1LSYIDY.sdf']

>  <name>  (1965) 
P585934

>  <ref_pdb>  (1965) 
A0566a

>  <subsites>  (1965) 
None

>  <HIPPO Pose ID>  (1965) 
585934

>  <ref_mols>  (1965) 
A0566a

>  <HIPPO Compound ID>  (1965) 
441070

>  <tags>  (1965) 
openbind_a71ev2a_c2_elabs,syndirella_product,openbind_a71ev2a_c2_elabs_fragonly_scored_top80percent,BulkDock Fragalysis export,openbind_a71ev2a_c2_elabs_scored,openbind_a71ev2a_c2_elabs_scored_top80percent,openbind_a71ev2a_c2_elabs_activefrags_only_scored_5.2plus,openbind_a71ev2a_c2_elabs_activefrags_only_scored_5.5plus,syndirella_placed

>  <smina_score_min>  (1965) 
-6.869

$$$$
P585938
     RDKit          3D

 21 23  0  0  0  0  0  0  0  0999 V2000
    3.8684   11.4702   28.8283 C   0  0  0  0  0  0  0  0  0  0  0  0
    4.6391   12.1540   27.7013 C   0  0  1  0  0  0  0  0  0  0  0  0
    5.3061   13.4584   28.2053 C   0  0  0  0  0  0  0  0  0  0  0  0
    6.0121   14.2231   27.0702 C   0  0  0  0  0  0  0  0  0  0  0  0
    6.7857   13.2689   26.2330 C   0  0  0  0  0  0  0  0  0  0  0  0
    7.7760   13.6202   25.3655 N   0  0  0  0  0  0  0  0  0  0  0  0
    8.2886   12.4864   24.7732 C   0  0  0  0  0  0  0  0  0  0  0  0
    9.3709   12.3363   23.9051 C   0  0  0  0  0  0  0  0  0  0  0  0
   10.2915   13.4686   23.6908 C   0  0  0  0  0  0  0  0  0  0  0  0
   10.4528   14.2246   24.5584 O   0  0  0  0  0  0  0  0  0  0  0  0
   10.9589   13.3756   22.3239 N   0  0  0  0  0  0  0  0  0  0  0  0
   12.0223   14.1227   21.7675 C   0  0  0  0  0  0  0  0  0  0  0  0
   11.6149   15.0383   20.6374 C   0  0  0  0  0  0  0  0  0  0  0  0
   11.7493   14.3348   19.0260 Cl  0  0  0  0  0  0  0  0  0  0  0  0
   10.0098   15.7680   20.8260 Cl  0  0  0  0  0  0  0  0  0  0  0  0
    9.6485   11.0595   23.4095 C   0  0  0  0  0  0  0  0  0  0  0  0
    8.9190    9.9672   23.8294 C   0  0  0  0  0  0  0  0  0  0  0  0
    7.8982   10.1164   24.7699 C   0  0  0  0  0  0  0  0  0  0  0  0
    7.5579   11.3964   25.2387 C   0  0  0  0  0  0  0  0  0  0  0  0
    6.6328   11.8987   26.1930 C   0  0  0  0  0  0  0  0  0  0  0  0
    5.6839   11.1830   27.0948 C   0  0  0  0  0  0  0  0  0  0  0  0
  2  1  1  1
  2  3  1  0
  3  4  1  0
  4  5  1  0
  5  6  1  0
  6  7  1  0
  7  8  2  0
  8  9  1  0
  9 10  2  0
  9 11  1  0
 11 12  1  0
 12 13  1  0
 13 14  1  0
 13 15  1  0
  8 16  1  0
 16 17  2  0
 17 18  1  0
 18 19  2  0
 19 20  1  0
 20 21  1  0
 21  2  1  0
 20  5  2  0
 19  7  1  0
M  END
>  <alias>  (1966) 
None

>  <rmsd(smina/fragmenstein)>  (1966) 
0.356

>  <smiles>  (1966) 
C[C@H]1CCc2[nH]c3c(C(=O)NCC(Cl)Cl)cccc3c2C1

>  <gnina_score>  (1966) 
5.587

>  <inspiration_score>  (1966) 
None

>  <energy_score>  (1966) 
-16.02782

>  <distance_score>  (1966) 
1.15896

>  <gnina_score_min>  (1966) 
5.677

>  <inchikey>  (1966) 
VFOIVLGZWQXCQE-VIFPVBQESA-N

>  <exports>  (1966) 
['/opt/xchem-fragalysis-2/maxwin/BulkDock/OUTPUTS/openbind_a71ev2a_c2_elabs_1LOUU54.sdf', '/opt/xchem-fragalysis-2/maxwin/BulkDock/OUTPUTS/openbind_a71ev2a_c2_elabs_1LSYIDY.sdf']

>  <name>  (1966) 
P585938

>  <ref_pdb>  (1966) 
A0566a

>  <subsites>  (1966) 
None

>  <HIPPO Pose ID>  (1966) 
585938

>  <ref_mols>  (1966) 
A0566a

>  <HIPPO Compound ID>  (1966) 
441071

>  <tags>  (1966) 
openbind_a71ev2a_c2_elabs,syndirella_product,openbind_a71ev2a_c2_elabs_fragonly_scored_top80percent,BulkDock Fragalysis export,openbind_a71ev2a_c2_elabs_scored,openbind_a71ev2a_c2_elabs_scored_top80percent,openbind_a71ev2a_c2_elabs_activefrags_only_scored_5.2plus,openbind_a71ev2a_c2_elabs_activefrags_only_scored_5.5plus,syndirella_placed

>  <smina_score_min>  (1966) 
-6.818

$$$$
P585939
     RDKit          3D

 21 24  0  0  0  0  0  0  0  0999 V2000
    9.3309   15.3504   20.6762 C   0  0  0  0  0  0  0  0  0  0  0  0
   10.4464   14.4103   21.1153 C   0  0  1  0  0  0  0  0  0  0  0  0
   11.8826   14.7103   20.8185 C   0  0  0  0  0  0  0  0  0  0  0  0
   11.7305   15.5612   22.0594 C   0  0  0  0  0  0  0  0  0  0  0  0
   10.7789   14.5312   22.6251 N   0  0  0  0  0  0  0  0  0  0  0  0
   11.0433   13.1869   23.2402 C   0  0  0  0  0  0  0  0  0  0  0  0
   12.0498   12.5862   23.3548 O   0  0  0  0  0  0  0  0  0  0  0  0
    9.8407   12.4595   23.6831 C   0  0  0  0  0  0  0  0  0  0  0  0
    9.7911   11.0979   23.3405 C   0  0  0  0  0  0  0  0  0  0  0  0
    8.8429   10.2431   23.8643 C   0  0  0  0  0  0  0  0  0  0  0  0
    7.8719   10.7359   24.7263 C   0  0  0  0  0  0  0  0  0  0  0  0
    7.8016   12.1215   24.9700 C   0  0  0  0  0  0  0  0  0  0  0  0
    6.9055   12.9392   25.7218 C   0  0  0  0  0  0  0  0  0  0  0  0
    7.3153   14.2501   25.5476 C   0  0  0  0  0  0  0  0  0  0  0  0
    8.4554   14.2405   24.7875 N   0  0  0  0  0  0  0  0  0  0  0  0
    8.7792   12.9615   24.4264 C   0  0  0  0  0  0  0  0  0  0  0  0
    6.7102   15.5354   26.0185 C   0  0  0  0  0  0  0  0  0  0  0  0
    5.1933   15.4447   26.1696 C   0  0  0  0  0  0  0  0  0  0  0  0
    4.7196   14.6801   27.4102 C   0  0  0  0  0  0  0  0  0  0  0  0
    5.4281   13.3580   27.7265 C   0  0  0  0  0  0  0  0  0  0  0  0
    5.7144   12.4839   26.5053 C   0  0  0  0  0  0  0  0  0  0  0  0
  2  1  1  6
  2  3  1  0
  3  4  1  0
  4  5  1  0
  5  6  1  0
  6  7  2  0
  6  8  1  0
  8  9  2  0
  9 10  1  0
 10 11  2  0
 11 12  1  0
 12 13  1  0
 13 14  2  0
 14 15  1  0
 15 16  1  0
 14 17  1  0
 17 18  1  0
 18 19  1  0
 19 20  1  0
 20 21  1  0
  5  2  1  0
 16  8  1  0
 16 12  2  0
 21 13  1  0
M  END
>  <alias>  (1967) 
None

>  <rmsd(smina/fragmenstein)>  (1967) 
0.525

>  <smiles>  (1967) 
C[C@H]1CCN1C(=O)c1cccc2c3c([nH]c12)CCCCC3

>  <gnina_score>  (1967) 
5.48

>  <inspiration_score>  (1967) 
None

>  <energy_score>  (1967) 
-1.621283

>  <distance_score>  (1967) 
1.021818

>  <gnina_score_min>  (1967) 
5.488

>  <inchikey>  (1967) 
DJZSKDSBJBCGCD-LBPRGKRZSA-N

>  <exports>  (1967) 
['/opt/xchem-fragalysis-2/maxwin/BulkDock/OUTPUTS/openbind_a71ev2a_c2_elabs_1LOUU54.sdf', '/opt/xchem-fragalysis-2/maxwin/BulkDock/OUTPUTS/openbind_a71ev2a_c2_elabs_1LSYIDY.sdf']

>  <name>  (1967) 
P585939

>  <ref_pdb>  (1967) 
A0566a

>  <subsites>  (1967) 
None

>  <HIPPO Pose ID>  (1967) 
585939

>  <ref_mols>  (1967) 
A0566a

>  <HIPPO Compound ID>  (1967) 
441076

>  <tags>  (1967) 
openbind_a71ev2a_c2_elabs,syndirella_product,openbind_a71ev2a_c2_elabs_fragonly_scored_top80percent,openbind_a71ev2a_c2_elabs_scored,BulkDock Fragalysis export,openbind_a71ev2a_c2_elabs_scored_top80percent,openbind_a71ev2a_c2_elabs_activefrags_only_scored_5.2plus,syndirella_placed

>  <smina_score_min>  (1967) 
-6.884

$$$$
P585940
     RDKit          3D

 21 23  0  0  0  0  0  0  0  0999 V2000
   10.2718   14.6898   24.0101 O   0  0  0  0  0  0  0  0  0  0  0  0
    9.6745   14.0383   23.2531 C   0  0  0  0  0  0  0  0  0  0  0  0
    9.3457   14.2807   21.7730 N   0  0  0  0  0  0  0  0  0  0  0  0
    9.7619   15.3310   20.8832 C   0  0  0  0  0  0  0  0  0  0  0  0
   10.9065   14.8896   19.9774 C   0  0  0  0  0  0  0  0  0  0  0  0
   12.0914   14.2733   20.6841 C   0  0  0  0  0  0  0  0  0  0  0  0
   12.7644   15.3536   22.0931 Br  0  0  0  0  0  0  0  0  0  0  0  0
    9.1569   12.7418   23.6951 C   0  0  0  0  0  0  0  0  0  0  0  0
    9.6977   11.5484   23.2151 C   0  0  0  0  0  0  0  0  0  0  0  0
    9.1992   10.3303   23.6571 C   0  0  0  0  0  0  0  0  0  0  0  0
    8.1811   10.2970   24.6216 C   0  0  0  0  0  0  0  0  0  0  0  0
    7.6484   11.4963   25.1439 C   0  0  0  0  0  0  0  0  0  0  0  0
    6.6566   11.8310   26.1244 C   0  0  0  0  0  0  0  0  0  0  0  0
    6.5460   13.2107   26.1371 C   0  0  0  0  0  0  0  0  0  0  0  0
    7.4711   13.7178   25.2673 N   0  0  0  0  0  0  0  0  0  0  0  0
    8.1481   12.6967   24.6516 C   0  0  0  0  0  0  0  0  0  0  0  0
    5.6100   14.1033   26.8804 C   0  0  0  0  0  0  0  0  0  0  0  0
    5.5914   13.8243   28.3807 C   0  0  0  0  0  0  0  0  0  0  0  0
    4.9254   12.4992   28.7604 C   0  0  0  0  0  0  0  0  0  0  0  0
    5.7621   11.2573   28.4420 C   0  0  0  0  0  0  0  0  0  0  0  0
    5.8345   10.9023   26.9548 C   0  0  0  0  0  0  0  0  0  0  0  0
  1  2  2  0
  2  3  1  0
  3  4  1  0
  4  5  1  0
  5  6  1  0
  6  7  1  0
  2  8  1  0
  8  9  2  0
  9 10  1  0
 10 11  2  0
 11 12  1  0
 12 13  1  0
 13 14  2  0
 14 15  1  0
 15 16  1  0
 14 17  1  0
 17 18  1  0
 18 19  1  0
 19 20  1  0
 20 21  1  0
 16  8  1  0
 16 12  2  0
 21 13  1  0
M  END
>  <alias>  (1968) 
None

>  <rmsd(smina/fragmenstein)>  (1968) 
0.519

>  <smiles>  (1968) 
O=C(NCCCBr)c1cccc2c3c([nH]c12)CCCCC3

>  <gnina_score>  (1968) 
5.34

>  <inspiration_score>  (1968) 
None

>  <energy_score>  (1968) 
-7.861219

>  <distance_score>  (1968) 
1.468108

>  <gnina_score_min>  (1968) 
5.446

>  <inchikey>  (1968) 
KADMQVRWNAQOJP-UHFFFAOYSA-N

>  <exports>  (1968) 
['/opt/xchem-fragalysis-2/maxwin/BulkDock/OUTPUTS/openbind_a71ev2a_c2_elabs_1LOUU54.sdf', '/opt/xchem-fragalysis-2/maxwin/BulkDock/OUTPUTS/openbind_a71ev2a_c2_elabs_1LSYIDY.sdf']

>  <name>  (1968) 
P585940

>  <ref_pdb>  (1968) 
A0566a

>  <subsites>  (1968) 
None

>  <HIPPO Pose ID>  (1968) 
585940

>  <ref_mols>  (1968) 
A0566a

>  <HIPPO Compound ID>  (1968) 
441079

>  <tags>  (1968) 
openbind_a71ev2a_c2_elabs,syndirella_product,openbind_a71ev2a_c2_elabs_fragonly_scored_top80percent,openbind_a71ev2a_c2_elabs_scored,BulkDock Fragalysis export,openbind_a71ev2a_c2_elabs_scored_top80percent,openbind_a71ev2a_c2_elabs_activefrags_only_scored_5.2plus,syndirella_placed

>  <smina_score_min>  (1968) 
-6.014

$$$$
P585942
     RDKit          3D

 21 23  0  0  0  0  0  0  0  0999 V2000
   11.7272   14.3921   19.7087 C   0  0  0  0  0  0  0  0  0  0  0  0
   11.1817   14.8607   21.0560 C   0  0  0  0  0  0  0  0  0  0  0  0
   10.0270   15.8389   20.7815 C   0  0  0  0  0  0  0  0  0  0  0  0
   12.3369   15.4157   21.8904 C   0  0  0  0  0  0  0  0  0  0  0  0
   10.6264   13.7863   21.8507 N   0  0  0  0  0  0  0  0  0  0  0  0
   10.1538   13.7671   23.3136 C   0  0  0  0  0  0  0  0  0  0  0  0
   10.2070   14.5924   24.1366 O   0  0  0  0  0  0  0  0  0  0  0  0
    9.4337   12.5260   23.6813 C   0  0  0  0  0  0  0  0  0  0  0  0
    9.7593   11.2601   23.2033 C   0  0  0  0  0  0  0  0  0  0  0  0
    9.0871   10.1363   23.6678 C   0  0  0  0  0  0  0  0  0  0  0  0
    8.0777   10.2539   24.6367 C   0  0  0  0  0  0  0  0  0  0  0  0
    7.7217   11.5220   25.1379 C   0  0  0  0  0  0  0  0  0  0  0  0
    6.8265   12.0091   26.1596 C   0  0  0  0  0  0  0  0  0  0  0  0
    7.0564   13.3723   26.2740 C   0  0  0  0  0  0  0  0  0  0  0  0
    7.9078   13.7307   25.2663 N   0  0  0  0  0  0  0  0  0  0  0  0
    8.4068   12.6182   24.6336 C   0  0  0  0  0  0  0  0  0  0  0  0
    6.6289   14.3885   27.2812 C   0  0  0  0  0  0  0  0  0  0  0  0
    5.1552   14.3407   27.6497 C   0  0  0  0  0  0  0  0  0  0  0  0
    4.7457   13.0580   28.3715 C   0  0  0  0  0  0  0  0  0  0  0  0
    4.6156   11.8670   27.4258 C   0  0  0  0  0  0  0  0  0  0  0  0
    5.9296   11.1923   27.0371 C   0  0  0  0  0  0  0  0  0  0  0  0
  1  2  1  0
  2  3  1  0
  2  4  1  0
  2  5  1  0
  5  6  1  0
  6  7  2  0
  6  8  1  0
  8  9  2  0
  9 10  1  0
 10 11  2  0
 11 12  1  0
 12 13  1  0
 13 14  2  0
 14 15  1  0
 15 16  1  0
 14 17  1  0
 17 18  1  0
 18 19  1  0
 19 20  1  0
 20 21  1  0
 16  8  1  0
 16 12  2  0
 21 13  1  0
M  END
>  <alias>  (1969) 
None

>  <rmsd(smina/fragmenstein)>  (1969) 
0.7

>  <smiles>  (1969) 
CC(C)(C)NC(=O)c1cccc2c3c([nH]c12)CCCCC3

>  <gnina_score>  (1969) 
5.51

>  <inspiration_score>  (1969) 
None

>  <energy_score>  (1969) 
-20.767944

>  <distance_score>  (1969) 
1.163335

>  <gnina_score_min>  (1969) 
5.495

>  <inchikey>  (1969) 
BGAFWDVQPQSJIK-UHFFFAOYSA-N

>  <exports>  (1969) 
['/opt/xchem-fragalysis-2/maxwin/BulkDock/OUTPUTS/openbind_a71ev2a_c2_elabs_1LOUU54.sdf', '/opt/xchem-fragalysis-2/maxwin/BulkDock/OUTPUTS/openbind_a71ev2a_c2_elabs_1LSYIDY.sdf']

>  <name>  (1969) 
P585942

>  <ref_pdb>  (1969) 
A0566a

>  <subsites>  (1969) 
None

>  <HIPPO Pose ID>  (1969) 
585942

>  <ref_mols>  (1969) 
A0566a

>  <HIPPO Compound ID>  (1969) 
441081

>  <tags>  (1969) 
openbind_a71ev2a_c2_elabs,syndirella_product,openbind_a71ev2a_c2_elabs_fragonly_scored_top80percent,openbind_a71ev2a_c2_elabs_scored,BulkDock Fragalysis export,openbind_a71ev2a_c2_elabs_scored_top80percent,openbind_a71ev2a_c2_elabs_activefrags_only_scored_5.2plus,syndirella_placed

>  <smina_score_min>  (1969) 
-7.19

$$$$
P585943
     RDKit          3D

 21 23  0  0  0  0  0  0  0  0999 V2000
   11.4769   15.0722   18.8079 C   0  0  0  0  0  0  0  0  0  0  0  0
   11.0489   14.9071   20.0605 C   0  0  0  0  0  0  0  0  0  0  0  0
   10.2087   15.9037   20.7958 C   0  0  0  0  0  0  0  0  0  0  0  0
    8.8472   15.3626   21.1925 C   0  0  0  0  0  0  0  0  0  0  0  0
    8.8737   14.2158   22.0498 N   0  0  0  0  0  0  0  0  0  0  0  0
    9.7880   13.8770   23.2307 C   0  0  0  0  0  0  0  0  0  0  0  0
   10.7154   14.4369   23.6506 O   0  0  0  0  0  0  0  0  0  0  0  0
    9.3170   12.6109   23.7934 C   0  0  0  0  0  0  0  0  0  0  0  0
    9.7658   11.4029   23.2661 C   0  0  0  0  0  0  0  0  0  0  0  0
    9.1893   10.2113   23.6804 C   0  0  0  0  0  0  0  0  0  0  0  0
    8.1632   10.2217   24.6382 C   0  0  0  0  0  0  0  0  0  0  0  0
    7.6989   11.4397   25.1809 C   0  0  0  0  0  0  0  0  0  0  0  0
    6.7261   11.8087   26.1698 C   0  0  0  0  0  0  0  0  0  0  0  0
    6.7729   13.1907   26.2810 C   0  0  0  0  0  0  0  0  0  0  0  0
    7.6545   13.6634   25.3478 N   0  0  0  0  0  0  0  0  0  0  0  0
    8.2860   12.6162   24.7285 C   0  0  0  0  0  0  0  0  0  0  0  0
    6.0626   14.1192   27.2134 C   0  0  0  0  0  0  0  0  0  0  0  0
    6.0118   13.5381   28.6263 C   0  0  0  0  0  0  0  0  0  0  0  0
    4.9550   12.4484   28.8302 C   0  0  0  0  0  0  0  0  0  0  0  0
    4.6503   11.5462   27.6315 C   0  0  0  0  0  0  0  0  0  0  0  0
    5.8688   10.8848   26.9853 C   0  0  0  0  0  0  0  0  0  0  0  0
  1  2  2  0
  2  3  1  0
  3  4  1  0
  4  5  1  0
  5  6  1  0
  6  7  2  0
  6  8  1  0
  8  9  2  0
  9 10  1  0
 10 11  2  0
 11 12  1  0
 12 13  1  0
 13 14  2  0
 14 15  1  0
 15 16  1  0
 14 17  1  0
 17 18  1  0
 18 19  1  0
 19 20  1  0
 20 21  1  0
 16  8  1  0
 16 12  2  0
 21 13  1  0
M  END
>  <alias>  (1970) 
None

>  <rmsd(smina/fragmenstein)>  (1970) 
0.173

>  <smiles>  (1970) 
C=CCCNC(=O)c1cccc2c3c([nH]c12)CCCCC3

>  <gnina_score>  (1970) 
5.278

>  <inspiration_score>  (1970) 
None

>  <energy_score>  (1970) 
-16.156817

>  <distance_score>  (1970) 
1.556283

>  <gnina_score_min>  (1970) 
5.293

>  <inchikey>  (1970) 
GPVJFUMUVIEGEM-UHFFFAOYSA-N

>  <exports>  (1970) 
['/opt/xchem-fragalysis-2/maxwin/BulkDock/OUTPUTS/openbind_a71ev2a_c2_elabs_1LOUU54.sdf', '/opt/xchem-fragalysis-2/maxwin/BulkDock/OUTPUTS/openbind_a71ev2a_c2_elabs_1LSYIDY.sdf']

>  <name>  (1970) 
P585943

>  <ref_pdb>  (1970) 
A0566a

>  <subsites>  (1970) 
None

>  <HIPPO Pose ID>  (1970) 
585943

>  <ref_mols>  (1970) 
A0566a

>  <HIPPO Compound ID>  (1970) 
441082

>  <tags>  (1970) 
openbind_a71ev2a_c2_elabs,syndirella_product,openbind_a71ev2a_c2_elabs_fragonly_scored_top80percent,openbind_a71ev2a_c2_elabs_scored,BulkDock Fragalysis export,openbind_a71ev2a_c2_elabs_scored_top80percent,openbind_a71ev2a_c2_elabs_activefrags_only_scored_5.2plus,syndirella_placed

>  <smina_score_min>  (1970) 
-5.997

$$$$
P585944
     RDKit          3D

 21 24  0  0  0  0  0  0  0  0999 V2000
   10.3610   14.5029   24.6029 O   0  0  0  0  0  0  0  0  0  0  0  0
   10.0660   13.8654   23.6725 C   0  0  0  0  0  0  0  0  0  0  0  0
   10.2346   14.1538   22.1729 N   0  0  0  0  0  0  0  0  0  0  0  0
   10.8575   15.1947   21.5291 N   0  0  0  0  0  0  0  0  0  0  0  0
   12.3219   15.1398   21.7763 C   0  0  0  0  0  0  0  0  0  0  0  0
   12.4727   14.2913   20.5175 C   0  0  0  0  0  0  0  0  0  0  0  0
   11.1125   14.8548   20.1072 C   0  0  0  0  0  0  0  0  0  0  0  0
    9.3611   12.5918   23.8817 C   0  0  0  0  0  0  0  0  0  0  0  0
    9.7735   11.3993   23.2861 C   0  0  0  0  0  0  0  0  0  0  0  0
    9.1596   10.2016   23.6280 C   0  0  0  0  0  0  0  0  0  0  0  0
    8.1313   10.1828   24.5829 C   0  0  0  0  0  0  0  0  0  0  0  0
    7.6755   11.3819   25.1691 C   0  0  0  0  0  0  0  0  0  0  0  0
    6.7147   11.7233   26.1814 C   0  0  0  0  0  0  0  0  0  0  0  0
    6.7916   13.0968   26.3609 C   0  0  0  0  0  0  0  0  0  0  0  0
    7.7028   13.5913   25.4695 N   0  0  0  0  0  0  0  0  0  0  0  0
    8.2982   12.5615   24.7842 C   0  0  0  0  0  0  0  0  0  0  0  0
    6.1077   13.9957   27.3399 C   0  0  0  0  0  0  0  0  0  0  0  0
    6.0617   13.3548   28.7266 C   0  0  0  0  0  0  0  0  0  0  0  0
    4.9885   12.2753   28.8944 C   0  0  0  0  0  0  0  0  0  0  0  0
    4.6561   11.4301   27.6618 C   0  0  0  0  0  0  0  0  0  0  0  0
    5.8566   10.7798   26.9720 C   0  0  0  0  0  0  0  0  0  0  0  0
  1  2  2  0
  2  3  1  0
  3  4  1  0
  4  5  1  0
  5  6  1  0
  6  7  1  0
  2  8  1  0
  8  9  2  0
  9 10  1  0
 10 11  2  0
 11 12  1  0
 12 13  1  0
 13 14  2  0
 14 15  1  0
 15 16  1  0
 14 17  1  0
 17 18  1  0
 18 19  1  0
 19 20  1  0
 20 21  1  0
  7  4  1  0
 16  8  1  0
 16 12  2  0
 21 13  1  0
M  END
>  <alias>  (1971) 
None

>  <rmsd(smina/fragmenstein)>  (1971) 
0.36

>  <smiles>  (1971) 
O=C(NN1CCC1)c1cccc2c3c([nH]c12)CCCCC3

>  <gnina_score>  (1971) 
5.528

>  <inspiration_score>  (1971) 
None

>  <energy_score>  (1971) 
-18.860462

>  <distance_score>  (1971) 
1.132849

>  <gnina_score_min>  (1971) 
5.655

>  <inchikey>  (1971) 
VHLFLSLYHJVXEQ-UHFFFAOYSA-N

>  <exports>  (1971) 
['/opt/xchem-fragalysis-2/maxwin/BulkDock/OUTPUTS/openbind_a71ev2a_c2_elabs_1LOUU54.sdf', '/opt/xchem-fragalysis-2/maxwin/BulkDock/OUTPUTS/openbind_a71ev2a_c2_elabs_1LSYIDY.sdf']

>  <name>  (1971) 
P585944

>  <ref_pdb>  (1971) 
A0566a

>  <subsites>  (1971) 
None

>  <HIPPO Pose ID>  (1971) 
585944

>  <ref_mols>  (1971) 
A0566a

>  <HIPPO Compound ID>  (1971) 
441085

>  <tags>  (1971) 
openbind_a71ev2a_c2_elabs,syndirella_product,openbind_a71ev2a_c2_elabs_fragonly_scored_top80percent,BulkDock Fragalysis export,openbind_a71ev2a_c2_elabs_scored,openbind_a71ev2a_c2_elabs_scored_top80percent,openbind_a71ev2a_c2_elabs_activefrags_only_scored_5.2plus,openbind_a71ev2a_c2_elabs_activefrags_only_scored_5.5plus,syndirella_placed

>  <smina_score_min>  (1971) 
-6.846

$$$$
P585945
     RDKit          3D

 21 24  0  0  0  0  0  0  0  0999 V2000
   10.4773   15.4180   18.9522 O   0  0  0  0  0  0  0  0  0  0  0  0
   10.5191   15.1150   20.1215 C   0  0  0  0  0  0  0  0  0  0  0  0
   11.5400   14.9756   21.2083 C   0  0  0  0  0  0  0  0  0  0  0  0
   10.6571   13.9776   21.9913 N   0  0  0  0  0  0  0  0  0  0  0  0
   10.3223   13.9044   23.4467 C   0  0  0  0  0  0  0  0  0  0  0  0
   10.5897   14.6369   24.3269 O   0  0  0  0  0  0  0  0  0  0  0  0
    9.5479   12.6791   23.7333 C   0  0  0  0  0  0  0  0  0  0  0  0
    9.8980   11.4487   23.1730 C   0  0  0  0  0  0  0  0  0  0  0  0
    9.2547   10.2770   23.5487 C   0  0  0  0  0  0  0  0  0  0  0  0
    8.2377   10.3183   24.5061 C   0  0  0  0  0  0  0  0  0  0  0  0
    7.8252   11.5528   25.0484 C   0  0  0  0  0  0  0  0  0  0  0  0
    6.8553   11.9476   26.0241 C   0  0  0  0  0  0  0  0  0  0  0  0
    6.9061   13.3291   26.1162 C   0  0  0  0  0  0  0  0  0  0  0  0
    7.8996   13.7683   25.2840 N   0  0  0  0  0  0  0  0  0  0  0  0
    8.4853   12.7079   24.6376 C   0  0  0  0  0  0  0  0  0  0  0  0
    6.1093   14.2886   26.9424 C   0  0  0  0  0  0  0  0  0  0  0  0
    4.7006   13.7748   27.2340 C   0  0  0  0  0  0  0  0  0  0  0  0
    4.6296   12.6808   28.3052 C   0  0  0  0  0  0  0  0  0  0  0  0
    5.6779   11.5650   28.2284 C   0  0  0  0  0  0  0  0  0  0  0  0
    5.9503   11.0561   26.8126 C   0  0  0  0  0  0  0  0  0  0  0  0
    9.5239   14.7686   21.1664 C   0  0  0  0  0  0  0  0  0  0  0  0
  1  2  2  0
  2  3  1  0
  3  4  1  0
  4  5  1  0
  5  6  2  0
  5  7  1  0
  7  8  2  0
  8  9  1  0
  9 10  2  0
 10 11  1  0
 11 12  1  0
 12 13  2  0
 13 14  1  0
 14 15  1  0
 13 16  1  0
 16 17  1  0
 17 18  1  0
 18 19  1  0
 19 20  1  0
  4 21  1  0
 21  2  1  0
 15  7  1  0
 15 11  2  0
 20 12  1  0
M  END
>  <alias>  (1972) 
None

>  <rmsd(smina/fragmenstein)>  (1972) 
0.423

>  <smiles>  (1972) 
O=C1CN(C(=O)c2cccc3c4c([nH]c23)CCCCC4)C1

>  <gnina_score>  (1972) 
5.523

>  <inspiration_score>  (1972) 
None

>  <energy_score>  (1972) 
-6.105663

>  <distance_score>  (1972) 
0.977081

>  <gnina_score_min>  (1972) 
5.447

>  <inchikey>  (1972) 
QFPUBZZGROELLF-UHFFFAOYSA-N

>  <exports>  (1972) 
['/opt/xchem-fragalysis-2/maxwin/BulkDock/OUTPUTS/openbind_a71ev2a_c2_elabs_1LOUU54.sdf', '/opt/xchem-fragalysis-2/maxwin/BulkDock/OUTPUTS/openbind_a71ev2a_c2_elabs_1LSYIDY.sdf']

>  <name>  (1972) 
P585945

>  <ref_pdb>  (1972) 
A0566a

>  <subsites>  (1972) 
None

>  <HIPPO Pose ID>  (1972) 
585945

>  <ref_mols>  (1972) 
A0566a

>  <HIPPO Compound ID>  (1972) 
441086

>  <tags>  (1972) 
openbind_a71ev2a_c2_elabs,syndirella_product,openbind_a71ev2a_c2_elabs_fragonly_scored_top80percent,openbind_a71ev2a_c2_elabs_scored,BulkDock Fragalysis export,openbind_a71ev2a_c2_elabs_scored_top80percent,openbind_a71ev2a_c2_elabs_activefrags_only_scored_5.2plus,syndirella_placed

>  <smina_score_min>  (1972) 
-7.355

$$$$
P585946
     RDKit          3D

 21 23  0  0  0  0  0  0  0  0999 V2000
   12.5855   14.1895   19.9304 C   0  0  0  0  0  0  0  0  0  0  0  0
   12.3255   14.8925   21.2332 C   0  0  0  0  0  0  0  0  0  0  0  0
   10.8647   15.1949   21.5034 C   0  0  1  0  0  0  0  0  0  0  0  0
    9.9762   15.6697   20.3654 C   0  0  0  0  0  0  0  0  0  0  0  0
   10.2511   14.0860   22.1670 N   0  0  0  0  0  0  0  0  0  0  0  0
    9.9995   13.8333   23.6517 C   0  0  0  0  0  0  0  0  0  0  0  0
   10.1796   14.5178   24.5747 O   0  0  0  0  0  0  0  0  0  0  0  0
    9.3362   12.5379   23.8733 C   0  0  0  0  0  0  0  0  0  0  0  0
    9.7628   11.3487   23.2845 C   0  0  0  0  0  0  0  0  0  0  0  0
    9.1619   10.1462   23.6318 C   0  0  0  0  0  0  0  0  0  0  0  0
    8.1325   10.1186   24.5863 C   0  0  0  0  0  0  0  0  0  0  0  0
    7.6647   11.3125   25.1716 C   0  0  0  0  0  0  0  0  0  0  0  0
    6.7018   11.6483   26.1851 C   0  0  0  0  0  0  0  0  0  0  0  0
    6.7677   13.0226   26.3616 C   0  0  0  0  0  0  0  0  0  0  0  0
    7.6678   13.5211   25.4624 N   0  0  0  0  0  0  0  0  0  0  0  0
    8.2742   12.4952   24.7799 C   0  0  0  0  0  0  0  0  0  0  0  0
    6.0846   13.9176   27.3439 C   0  0  0  0  0  0  0  0  0  0  0  0
    6.0628   13.2821   28.7338 C   0  0  0  0  0  0  0  0  0  0  0  0
    5.0070   12.1884   28.9189 C   0  0  0  0  0  0  0  0  0  0  0  0
    4.6611   11.3432   27.6901 C   0  0  0  0  0  0  0  0  0  0  0  0
    5.8544   10.6998   26.9814 C   0  0  0  0  0  0  0  0  0  0  0  0
  1  2  1  0
  2  3  1  0
  3  4  1  6
  3  5  1  0
  5  6  1  0
  6  7  2  0
  6  8  1  0
  8  9  2  0
  9 10  1  0
 10 11  2  0
 11 12  1  0
 12 13  1  0
 13 14  2  0
 14 15  1  0
 15 16  1  0
 14 17  1  0
 17 18  1  0
 18 19  1  0
 19 20  1  0
 20 21  1  0
 16  8  1  0
 16 12  2  0
 21 13  1  0
M  END
>  <alias>  (1973) 
None

>  <rmsd(smina/fragmenstein)>  (1973) 
0.681

>  <smiles>  (1973) 
CC[C@@H](C)NC(=O)c1cccc2c3c([nH]c12)CCCCC3

>  <gnina_score>  (1973) 
5.344

>  <inspiration_score>  (1973) 
None

>  <energy_score>  (1973) 
-10.055774

>  <distance_score>  (1973) 
1.168453

>  <gnina_score_min>  (1973) 
5.495

>  <inchikey>  (1973) 
FAQMPCQAPVSGJR-GFCCVEGCSA-N

>  <exports>  (1973) 
['/opt/xchem-fragalysis-2/maxwin/BulkDock/OUTPUTS/openbind_a71ev2a_c2_elabs_1LOUU54.sdf', '/opt/xchem-fragalysis-2/maxwin/BulkDock/OUTPUTS/openbind_a71ev2a_c2_elabs_1LSYIDY.sdf']

>  <name>  (1973) 
P585946

>  <ref_pdb>  (1973) 
A0566a

>  <subsites>  (1973) 
None

>  <HIPPO Pose ID>  (1973) 
585946

>  <ref_mols>  (1973) 
A0566a

>  <HIPPO Compound ID>  (1973) 
441087

>  <tags>  (1973) 
openbind_a71ev2a_c2_elabs,syndirella_product,openbind_a71ev2a_c2_elabs_fragonly_scored_top80percent,openbind_a71ev2a_c2_elabs_scored,BulkDock Fragalysis export,openbind_a71ev2a_c2_elabs_scored_top80percent,openbind_a71ev2a_c2_elabs_activefrags_only_scored_5.2plus,syndirella_placed

>  <smina_score_min>  (1973) 
-6.706

$$$$
P585948
     RDKit          3D

 21 23  0  0  0  0  0  0  0  0999 V2000
    9.7710   14.7066   24.2431 O   0  0  0  0  0  0  0  0  0  0  0  0
    9.1674   13.9887   23.5556 C   0  0  0  0  0  0  0  0  0  0  0  0
    8.6396   14.1870   22.1305 N   0  0  0  0  0  0  0  0  0  0  0  0
    8.8212   15.2688   21.2156 C   0  0  0  0  0  0  0  0  0  0  0  0
   10.2663   15.6016   21.1374 C   0  0  0  0  0  0  0  0  0  0  0  0
   11.2558   14.7343   21.3645 C   0  0  0  0  0  0  0  0  0  0  0  0
   12.8545   15.2003   21.6600 Cl  0  0  0  0  0  0  0  0  0  0  0  0
    8.8373   12.6414   23.9986 C   0  0  0  0  0  0  0  0  0  0  0  0
    9.4227   11.5140   23.4196 C   0  0  0  0  0  0  0  0  0  0  0  0
    8.9906   10.2550   23.8060 C   0  0  0  0  0  0  0  0  0  0  0  0
    7.9895   10.1245   24.7846 C   0  0  0  0  0  0  0  0  0  0  0  0
    7.4275   11.2616   25.4057 C   0  0  0  0  0  0  0  0  0  0  0  0
    6.4696   11.4987   26.4491 C   0  0  0  0  0  0  0  0  0  0  0  0
    6.4150   12.8719   26.6419 C   0  0  0  0  0  0  0  0  0  0  0  0
    7.2034   13.4639   25.6964 N   0  0  0  0  0  0  0  0  0  0  0  0
    7.8740   12.5041   24.9856 C   0  0  0  0  0  0  0  0  0  0  0  0
    5.6905   13.6874   27.6643 C   0  0  0  0  0  0  0  0  0  0  0  0
    5.7625   13.0258   29.0406 C   0  0  0  0  0  0  0  0  0  0  0  0
    4.8030   11.8474   29.2329 C   0  0  0  0  0  0  0  0  0  0  0  0
    4.5003   10.9953   27.9978 C   0  0  0  0  0  0  0  0  0  0  0  0
    5.7286   10.4693   27.2522 C   0  0  0  0  0  0  0  0  0  0  0  0
  1  2  2  0
  2  3  1  0
  3  4  1  0
  4  5  1  0
  5  6  2  0
  6  7  1  0
  2  8  1  0
  8  9  2  0
  9 10  1  0
 10 11  2  0
 11 12  1  0
 12 13  1  0
 13 14  2  0
 14 15  1  0
 15 16  1  0
 14 17  1  0
 17 18  1  0
 18 19  1  0
 19 20  1  0
 20 21  1  0
 16  8  1  0
 16 12  2  0
 21 13  1  0
M  END
>  <alias>  (1974) 
None

>  <rmsd(smina/fragmenstein)>  (1974) 
0.568

>  <smiles>  (1974) 
O=C(NC/C=C/Cl)c1cccc2c3c([nH]c12)CCCCC3

>  <gnina_score>  (1974) 
5.415

>  <inspiration_score>  (1974) 
None

>  <energy_score>  (1974) 
-13.797909

>  <distance_score>  (1974) 
1.880018

>  <gnina_score_min>  (1974) 
5.357

>  <inchikey>  (1974) 
YBRWXCDXFMIRSZ-BJMVGYQFSA-N

>  <exports>  (1974) 
['/opt/xchem-fragalysis-2/maxwin/BulkDock/OUTPUTS/openbind_a71ev2a_c2_elabs_1LOUU54.sdf', '/opt/xchem-fragalysis-2/maxwin/BulkDock/OUTPUTS/openbind_a71ev2a_c2_elabs_1LSYIDY.sdf']

>  <name>  (1974) 
P585948

>  <ref_pdb>  (1974) 
A0566a

>  <subsites>  (1974) 
None

>  <HIPPO Pose ID>  (1974) 
585948

>  <ref_mols>  (1974) 
A0566a

>  <HIPPO Compound ID>  (1974) 
441091

>  <tags>  (1974) 
openbind_a71ev2a_c2_elabs,syndirella_product,openbind_a71ev2a_c2_elabs_fragonly_scored_top80percent,openbind_a71ev2a_c2_elabs_scored,BulkDock Fragalysis export,openbind_a71ev2a_c2_elabs_scored_top80percent,openbind_a71ev2a_c2_elabs_activefrags_only_scored_5.2plus,syndirella_placed

>  <smina_score_min>  (1974) 
-6.245

$$$$
P585950
     RDKit          3D

 21 23  0  0  0  0  0  0  0  0999 V2000
   10.4750   15.9940   18.7009 C   0  0  0  0  0  0  0  0  0  0  0  0
   10.8538   15.0425   19.8142 C   0  0  1  0  0  0  0  0  0  0  0  0
   12.2053   14.9795   19.9425 F   0  0  0  0  0  0  0  0  0  0  0  0
   10.2600   15.4924   21.1373 C   0  0  0  0  0  0  0  0  0  0  0  0
    9.8400   14.3896   21.9614 N   0  0  0  0  0  0  0  0  0  0  0  0
   10.2916   13.9648   23.3587 C   0  0  0  0  0  0  0  0  0  0  0  0
   11.0208   14.4789   24.1047 O   0  0  0  0  0  0  0  0  0  0  0  0
    9.5558   12.7539   23.7536 C   0  0  0  0  0  0  0  0  0  0  0  0
    9.8478   11.5046   23.2158 C   0  0  0  0  0  0  0  0  0  0  0  0
    9.1430   10.3814   23.6344 C   0  0  0  0  0  0  0  0  0  0  0  0
    8.1305   10.4986   24.6012 C   0  0  0  0  0  0  0  0  0  0  0  0
    7.8002   11.7645   25.1343 C   0  0  0  0  0  0  0  0  0  0  0  0
    6.8968   12.2476   26.1455 C   0  0  0  0  0  0  0  0  0  0  0  0
    7.1366   13.6068   26.2856 C   0  0  0  0  0  0  0  0  0  0  0  0
    8.0345   13.9727   25.3209 N   0  0  0  0  0  0  0  0  0  0  0  0
    8.5229   12.8635   24.6822 C   0  0  0  0  0  0  0  0  0  0  0  0
    6.6569   14.6100   27.2825 C   0  0  0  0  0  0  0  0  0  0  0  0
    5.1545   14.5906   27.5176 C   0  0  0  0  0  0  0  0  0  0  0  0
    4.6564   13.3137   28.1934 C   0  0  0  0  0  0  0  0  0  0  0  0
    4.6129   12.1147   27.2485 C   0  0  0  0  0  0  0  0  0  0  0  0
    5.9586   11.4408   26.9849 C   0  0  0  0  0  0  0  0  0  0  0  0
  2  1  1  6
  2  3  1  0
  2  4  1  0
  4  5  1  0
  5  6  1  0
  6  7  2  0
  6  8  1  0
  8  9  2  0
  9 10  1  0
 10 11  2  0
 11 12  1  0
 12 13  1  0
 13 14  2  0
 14 15  1  0
 15 16  1  0
 14 17  1  0
 17 18  1  0
 18 19  1  0
 19 20  1  0
 20 21  1  0
 16  8  1  0
 16 12  2  0
 21 13  1  0
M  END
>  <alias>  (1975) 
None

>  <rmsd(smina/fragmenstein)>  (1975) 
0.874

>  <smiles>  (1975) 
C[C@@H](F)CNC(=O)c1cccc2c3c([nH]c12)CCCCC3

>  <gnina_score>  (1975) 
5.325

>  <inspiration_score>  (1975) 
None

>  <energy_score>  (1975) 
-12.346436

>  <distance_score>  (1975) 
1.170925

>  <gnina_score_min>  (1975) 
5.56

>  <inchikey>  (1975) 
CPQFHAVZTZTLFY-LLVKDONJSA-N

>  <exports>  (1975) 
['/opt/xchem-fragalysis-2/maxwin/BulkDock/OUTPUTS/openbind_a71ev2a_c2_elabs_1LOUU54.sdf', '/opt/xchem-fragalysis-2/maxwin/BulkDock/OUTPUTS/openbind_a71ev2a_c2_elabs_1LSYIDY.sdf']

>  <name>  (1975) 
P585950

>  <ref_pdb>  (1975) 
A0566a

>  <subsites>  (1975) 
None

>  <HIPPO Pose ID>  (1975) 
585950

>  <ref_mols>  (1975) 
A0566a

>  <HIPPO Compound ID>  (1975) 
441092

>  <tags>  (1975) 
openbind_a71ev2a_c2_elabs,syndirella_product,openbind_a71ev2a_c2_elabs_fragonly_scored_top80percent,BulkDock Fragalysis export,openbind_a71ev2a_c2_elabs_scored,openbind_a71ev2a_c2_elabs_scored_top80percent,openbind_a71ev2a_c2_elabs_activefrags_only_scored_5.2plus,openbind_a71ev2a_c2_elabs_activefrags_only_scored_5.5plus,syndirella_placed

>  <smina_score_min>  (1975) 
-7.407

$$$$
P585952
     RDKit          3D

 21 23  0  0  0  0  0  0  0  0999 V2000
   10.3890   14.2873   24.6028 O   0  0  0  0  0  0  0  0  0  0  0  0
   10.2872   13.4810   23.7716 C   0  0  0  0  0  0  0  0  0  0  0  0
   11.0873   13.2745   22.4919 N   0  0  0  0  0  0  0  0  0  0  0  0
   12.2310   13.9451   22.0057 C   0  0  0  0  0  0  0  0  0  0  0  0
   11.9166   15.2188   21.2938 C   0  0  1  0  0  0  0  0  0  0  0  0
   13.0858   15.9061   21.2712 F   0  0  0  0  0  0  0  0  0  0  0  0
   11.3121   14.8921   19.6577 Cl  0  0  0  0  0  0  0  0  0  0  0  0
    9.3057   12.3847   23.9601 C   0  0  0  0  0  0  0  0  0  0  0  0
    9.5460   11.0858   23.4937 C   0  0  0  0  0  0  0  0  0  0  0  0
    8.7812   10.0246   23.9306 C   0  0  0  0  0  0  0  0  0  0  0  0
    7.7656   10.2182   24.8658 C   0  0  0  0  0  0  0  0  0  0  0  0
    7.4673   11.5159   25.3148 C   0  0  0  0  0  0  0  0  0  0  0  0
    6.5637   12.0522   26.2854 C   0  0  0  0  0  0  0  0  0  0  0  0
    6.7720   13.4212   26.3194 C   0  0  0  0  0  0  0  0  0  0  0  0
    7.7467   13.7207   25.4083 N   0  0  0  0  0  0  0  0  0  0  0  0
    8.2252   12.5730   24.8253 C   0  0  0  0  0  0  0  0  0  0  0  0
    6.1450   14.4830   27.1650 C   0  0  0  0  0  0  0  0  0  0  0  0
    5.9005   13.9891   28.5905 C   0  0  0  0  0  0  0  0  0  0  0  0
    4.6776   13.0798   28.7487 C   0  0  0  0  0  0  0  0  0  0  0  0
    4.4060   12.0785   27.6217 C   0  0  0  0  0  0  0  0  0  0  0  0
    5.6262   11.2795   27.1629 C   0  0  0  0  0  0  0  0  0  0  0  0
  1  2  2  0
  2  3  1  0
  3  4  1  0
  4  5  1  0
  5  6  1  6
  5  7  1  0
  2  8  1  0
  8  9  2  0
  9 10  1  0
 10 11  2  0
 11 12  1  0
 12 13  1  0
 13 14  2  0
 14 15  1  0
 15 16  1  0
 14 17  1  0
 17 18  1  0
 18 19  1  0
 19 20  1  0
 20 21  1  0
 16  8  1  0
 16 12  2  0
 21 13  1  0
M  END
>  <alias>  (1976) 
None

>  <rmsd(smina/fragmenstein)>  (1976) 
0.649

>  <smiles>  (1976) 
O=C(NC[C@@H](F)Cl)c1cccc2c3c([nH]c12)CCCCC3

>  <gnina_score>  (1976) 
5.306

>  <inspiration_score>  (1976) 
None

>  <energy_score>  (1976) 
-5.125935

>  <distance_score>  (1976) 
1.25817

>  <gnina_score_min>  (1976) 
5.388

>  <inchikey>  (1976) 
DZXFIHYAAABIBR-CQSZACIVSA-N

>  <exports>  (1976) 
['/opt/xchem-fragalysis-2/maxwin/BulkDock/OUTPUTS/openbind_a71ev2a_c2_elabs_1LOUU54.sdf', '/opt/xchem-fragalysis-2/maxwin/BulkDock/OUTPUTS/openbind_a71ev2a_c2_elabs_1LSYIDY.sdf']

>  <name>  (1976) 
P585952

>  <ref_pdb>  (1976) 
A0566a

>  <subsites>  (1976) 
None

>  <HIPPO Pose ID>  (1976) 
585952

>  <ref_mols>  (1976) 
A0566a

>  <HIPPO Compound ID>  (1976) 
441094

>  <tags>  (1976) 
openbind_a71ev2a_c2_elabs,syndirella_product,openbind_a71ev2a_c2_elabs_fragonly_scored_top80percent,openbind_a71ev2a_c2_elabs_scored,BulkDock Fragalysis export,openbind_a71ev2a_c2_elabs_scored_top80percent,openbind_a71ev2a_c2_elabs_activefrags_only_scored_5.2plus,syndirella_placed

>  <smina_score_min>  (1976) 
-6.504

$$$$
P585954
     RDKit          3D

 21 23  0  0  0  0  0  0  0  0999 V2000
   12.6464   15.2527   22.0707 C   0  0  0  0  0  0  0  0  0  0  0  0
   11.5437   14.6005   21.2686 C   0  0  2  0  0  0  0  0  0  0  0  0
   10.5058   15.6178   20.7472 C   0  0  0  0  0  0  0  0  0  0  0  0
    8.7565   15.1841   21.0262 S   0  0  0  0  0  0  0  0  0  0  0  0
   10.9048   13.5882   22.0549 N   0  0  0  0  0  0  0  0  0  0  0  0
   10.3490   13.6383   23.4830 C   0  0  0  0  0  0  0  0  0  0  0  0
   10.3891   14.4875   24.2803 O   0  0  0  0  0  0  0  0  0  0  0  0
    9.5675   12.4165   23.7985 C   0  0  0  0  0  0  0  0  0  0  0  0
    9.8529   11.1542   23.2767 C   0  0  0  0  0  0  0  0  0  0  0  0
    9.1454   10.0327   23.6774 C   0  0  0  0  0  0  0  0  0  0  0  0
    8.1232   10.1480   24.6220 C   0  0  0  0  0  0  0  0  0  0  0  0
    7.7600   11.4150   25.1144 C   0  0  0  0  0  0  0  0  0  0  0  0
    6.8049   11.8888   26.0689 C   0  0  0  0  0  0  0  0  0  0  0  0
    6.9006   13.2709   26.0918 C   0  0  0  0  0  0  0  0  0  0  0  0
    7.9060   13.6323   25.2380 N   0  0  0  0  0  0  0  0  0  0  0  0
    8.4756   12.5187   24.6679 C   0  0  0  0  0  0  0  0  0  0  0  0
    6.1403   14.2978   26.8681 C   0  0  0  0  0  0  0  0  0  0  0  0
    4.7227   13.8405   27.2068 C   0  0  0  0  0  0  0  0  0  0  0  0
    4.6379   12.8081   28.3367 C   0  0  0  0  0  0  0  0  0  0  0  0
    5.6444   11.6521   28.2997 C   0  0  0  0  0  0  0  0  0  0  0  0
    5.8784   11.0670   26.9065 C   0  0  0  0  0  0  0  0  0  0  0  0
  2  1  1  1
  2  3  1  0
  3  4  1  0
  2  5  1  0
  5  6  1  0
  6  7  2  0
  6  8  1  0
  8  9  2  0
  9 10  1  0
 10 11  2  0
 11 12  1  0
 12 13  1  0
 13 14  2  0
 14 15  1  0
 15 16  1  0
 14 17  1  0
 17 18  1  0
 18 19  1  0
 19 20  1  0
 20 21  1  0
 16  8  1  0
 16 12  2  0
 21 13  1  0
M  END
>  <alias>  (1977) 
None

>  <rmsd(smina/fragmenstein)>  (1977) 
0.195

>  <smiles>  (1977) 
C[C@H](CS)NC(=O)c1cccc2c3c([nH]c12)CCCCC3

>  <gnina_score>  (1977) 
5.859

>  <inspiration_score>  (1977) 
None

>  <energy_score>  (1977) 
-11.202943

>  <distance_score>  (1977) 
1.050979

>  <gnina_score_min>  (1977) 
5.867

>  <inchikey>  (1977) 
IRLGJHUUVFVUON-LLVKDONJSA-N

>  <exports>  (1977) 
['/opt/xchem-fragalysis-2/maxwin/BulkDock/OUTPUTS/openbind_a71ev2a_c2_elabs_1LOUU54.sdf', '/opt/xchem-fragalysis-2/maxwin/BulkDock/OUTPUTS/openbind_a71ev2a_c2_elabs_1LSYIDY.sdf']

>  <name>  (1977) 
P585954

>  <ref_pdb>  (1977) 
A0566a

>  <subsites>  (1977) 
None

>  <HIPPO Pose ID>  (1977) 
585954

>  <ref_mols>  (1977) 
A0566a

>  <HIPPO Compound ID>  (1977) 
441096

>  <tags>  (1977) 
openbind_a71ev2a_c2_elabs,syndirella_product,openbind_a71ev2a_c2_elabs_fragonly_scored_top80percent,BulkDock Fragalysis export,openbind_a71ev2a_c2_elabs_scored,openbind_a71ev2a_c2_elabs_scored_top80percent,openbind_a71ev2a_c2_elabs_activefrags_only_scored_5.2plus,openbind_a71ev2a_c2_elabs_activefrags_only_scored_5.5plus,syndirella_placed

>  <smina_score_min>  (1977) 
-6.542

$$$$
P585955
     RDKit          3D

 21 23  0  0  0  0  0  0  0  0999 V2000
   12.0408   14.1361   18.9348 O   0  0  0  0  0  0  0  0  0  0  0  0
   11.1743   14.8678   19.4913 C   0  0  0  0  0  0  0  0  0  0  0  0
   10.2063   15.4889   18.9571 O   0  0  0  0  0  0  0  0  0  0  0  0
   11.3071   14.9974   21.0287 C   0  0  0  0  0  0  0  0  0  0  0  0
   10.6166   13.9615   21.7762 N   0  0  0  0  0  0  0  0  0  0  0  0
   10.3127   13.8484   23.2736 C   0  0  0  0  0  0  0  0  0  0  0  0
   10.4985   14.6033   24.1417 O   0  0  0  0  0  0  0  0  0  0  0  0
    9.5779   12.6066   23.6200 C   0  0  0  0  0  0  0  0  0  0  0  0
    9.9074   11.3484   23.1249 C   0  0  0  0  0  0  0  0  0  0  0  0
    9.2421   10.2060   23.5574 C   0  0  0  0  0  0  0  0  0  0  0  0
    8.2236   10.3005   24.5141 C   0  0  0  0  0  0  0  0  0  0  0  0
    7.8433   11.5615   25.0147 C   0  0  0  0  0  0  0  0  0  0  0  0
    6.8892   12.0237   25.9848 C   0  0  0  0  0  0  0  0  0  0  0  0
    7.0374   13.4003   26.0699 C   0  0  0  0  0  0  0  0  0  0  0  0
    7.9888   13.7790   25.1637 N   0  0  0  0  0  0  0  0  0  0  0  0
    8.5295   12.6771   24.5472 C   0  0  0  0  0  0  0  0  0  0  0  0
    6.3717   14.4075   26.9495 C   0  0  0  0  0  0  0  0  0  0  0  0
    6.1801   13.8612   28.3636 C   0  0  0  0  0  0  0  0  0  0  0  0
    5.0108   12.8839   28.5129 C   0  0  0  0  0  0  0  0  0  0  0  0
    4.7325   11.9500   27.3315 C   0  0  0  0  0  0  0  0  0  0  0  0
    5.9498   11.1901   26.8019 C   0  0  0  0  0  0  0  0  0  0  0  0
  1  2  2  0
  2  3  1  0
  2  4  1  0
  4  5  1  0
  5  6  1  0
  6  7  2  0
  6  8  1  0
  8  9  2  0
  9 10  1  0
 10 11  2  0
 11 12  1  0
 12 13  1  0
 13 14  2  0
 14 15  1  0
 15 16  1  0
 14 17  1  0
 17 18  1  0
 18 19  1  0
 19 20  1  0
 20 21  1  0
 16  8  1  0
 16 12  2  0
 21 13  1  0
M  CHG  1   3  -1
M  END
>  <alias>  (1978) 
None

>  <rmsd(smina/fragmenstein)>  (1978) 
0.604

>  <smiles>  (1978) 
O=C([O-])CNC(=O)c1cccc2c3c([nH]c12)CCCCC3

>  <gnina_score>  (1978) 
5.389

>  <inspiration_score>  (1978) 
None

>  <energy_score>  (1978) 
-19.27737

>  <distance_score>  (1978) 
1.024499

>  <gnina_score_min>  (1978) 
5.423

>  <inchikey>  (1978) 
HAOXVEZZJHGBFT-UHFFFAOYSA-M

>  <exports>  (1978) 
['/opt/xchem-fragalysis-2/maxwin/BulkDock/OUTPUTS/openbind_a71ev2a_c2_elabs_1LOUU54.sdf', '/opt/xchem-fragalysis-2/maxwin/BulkDock/OUTPUTS/openbind_a71ev2a_c2_elabs_1LSYIDY.sdf']

>  <name>  (1978) 
P585955

>  <ref_pdb>  (1978) 
A0566a

>  <subsites>  (1978) 
None

>  <HIPPO Pose ID>  (1978) 
585955

>  <ref_mols>  (1978) 
A0566a

>  <HIPPO Compound ID>  (1978) 
441099

>  <tags>  (1978) 
openbind_a71ev2a_c2_elabs,syndirella_product,openbind_a71ev2a_c2_elabs_fragonly_scored_top80percent,openbind_a71ev2a_c2_elabs_scored,BulkDock Fragalysis export,openbind_a71ev2a_c2_elabs_scored_top80percent,openbind_a71ev2a_c2_elabs_activefrags_only_scored_5.2plus,syndirella_placed

>  <smina_score_min>  (1978) 
-7.161

$$$$
P585959
     RDKit          3D

 21 23  0  0  0  0  0  0  0  0999 V2000
   12.4181   15.0762   21.4606 C   0  0  0  0  0  0  0  0  0  0  0  0
   11.3765   15.0129   20.6206 C   0  0  0  0  0  0  0  0  0  0  0  0
   11.5838   14.6186   18.8188 Br  0  0  0  0  0  0  0  0  0  0  0  0
    9.9773   15.3184   21.0303 C   0  0  0  0  0  0  0  0  0  0  0  0
    9.5468   14.2530   21.8851 N   0  0  0  0  0  0  0  0  0  0  0  0
    9.7999   14.0084   23.3746 C   0  0  0  0  0  0  0  0  0  0  0  0
   10.3341   14.6705   24.1678 O   0  0  0  0  0  0  0  0  0  0  0  0
    9.2498   12.7058   23.7700 C   0  0  0  0  0  0  0  0  0  0  0  0
    9.7376   11.5153   23.2303 C   0  0  0  0  0  0  0  0  0  0  0  0
    9.1965   10.2983   23.6246 C   0  0  0  0  0  0  0  0  0  0  0  0
    8.1753   10.2604   24.5866 C   0  0  0  0  0  0  0  0  0  0  0  0
    7.6828   11.4545   25.1562 C   0  0  0  0  0  0  0  0  0  0  0  0
    6.7153   11.7782   26.1678 C   0  0  0  0  0  0  0  0  0  0  0  0
    6.7458   13.1564   26.3241 C   0  0  0  0  0  0  0  0  0  0  0  0
    7.6098   13.6703   25.3971 N   0  0  0  0  0  0  0  0  0  0  0  0
    8.2363   12.6541   24.7232 C   0  0  0  0  0  0  0  0  0  0  0  0
    6.0401   14.0450   27.2970 C   0  0  0  0  0  0  0  0  0  0  0  0
    6.0226   13.4195   28.6916 C   0  0  0  0  0  0  0  0  0  0  0  0
    4.9852   12.3086   28.8791 C   0  0  0  0  0  0  0  0  0  0  0  0
    4.6684   11.4432   27.6566 C   0  0  0  0  0  0  0  0  0  0  0  0
    5.8818   10.8183   26.9659 C   0  0  0  0  0  0  0  0  0  0  0  0
  1  2  2  0
  2  3  1  0
  2  4  1  0
  4  5  1  0
  5  6  1  0
  6  7  2  0
  6  8  1  0
  8  9  2  0
  9 10  1  0
 10 11  2  0
 11 12  1  0
 12 13  1  0
 13 14  2  0
 14 15  1  0
 15 16  1  0
 14 17  1  0
 17 18  1  0
 18 19  1  0
 19 20  1  0
 20 21  1  0
 16  8  1  0
 16 12  2  0
 21 13  1  0
M  END
>  <alias>  (1979) 
None

>  <rmsd(smina/fragmenstein)>  (1979) 
0.362

>  <smiles>  (1979) 
C=C(Br)CNC(=O)c1cccc2c3c([nH]c12)CCCCC3

>  <gnina_score>  (1979) 
5.424

>  <inspiration_score>  (1979) 
None

>  <energy_score>  (1979) 
-127.181491

>  <distance_score>  (1979) 
1.368402

>  <gnina_score_min>  (1979) 
5.475

>  <inchikey>  (1979) 
BJIPEPHFULLRGR-UHFFFAOYSA-N

>  <exports>  (1979) 
['/opt/xchem-fragalysis-2/maxwin/BulkDock/OUTPUTS/openbind_a71ev2a_c2_elabs_1LOUU54.sdf', '/opt/xchem-fragalysis-2/maxwin/BulkDock/OUTPUTS/openbind_a71ev2a_c2_elabs_1LSYIDY.sdf']

>  <name>  (1979) 
P585959

>  <ref_pdb>  (1979) 
A0566a

>  <subsites>  (1979) 
None

>  <HIPPO Pose ID>  (1979) 
585959

>  <ref_mols>  (1979) 
A0566a

>  <HIPPO Compound ID>  (1979) 
441105

>  <tags>  (1979) 
openbind_a71ev2a_c2_elabs,syndirella_product,openbind_a71ev2a_c2_elabs_fragonly_scored_top80percent,openbind_a71ev2a_c2_elabs_scored,BulkDock Fragalysis export,openbind_a71ev2a_c2_elabs_scored_top80percent,openbind_a71ev2a_c2_elabs_activefrags_only_scored_5.2plus,syndirella_placed

>  <smina_score_min>  (1979) 
-6.273

$$$$
P585960
     RDKit          3D

 21 23  0  0  0  0  0  0  0  0999 V2000
   11.0035   14.5253   23.8060 O   0  0  0  0  0  0  0  0  0  0  0  0
   10.1397   14.0575   23.1816 C   0  0  0  0  0  0  0  0  0  0  0  0
    9.5577   14.4696   21.8232 N   0  0  0  0  0  0  0  0  0  0  0  0
    9.9763   15.4893   20.8962 C   0  0  0  0  0  0  0  0  0  0  0  0
   10.9749   14.9394   19.9043 C   0  0  0  0  0  0  0  0  0  0  0  0
   12.2514   14.4790   20.5687 C   0  0  0  0  0  0  0  0  0  0  0  0
   13.0197   13.9323   19.5958 F   0  0  0  0  0  0  0  0  0  0  0  0
    9.4523   12.8502   23.6650 C   0  0  0  0  0  0  0  0  0  0  0  0
    9.8027   11.5871   23.1909 C   0  0  0  0  0  0  0  0  0  0  0  0
    9.1418   10.4541   23.6523 C   0  0  0  0  0  0  0  0  0  0  0  0
    8.1316   10.5709   24.6191 C   0  0  0  0  0  0  0  0  0  0  0  0
    7.7761   11.8420   25.1240 C   0  0  0  0  0  0  0  0  0  0  0  0
    6.8795   12.3212   26.1415 C   0  0  0  0  0  0  0  0  0  0  0  0
    7.0819   13.6892   26.2459 C   0  0  0  0  0  0  0  0  0  0  0  0
    7.9411   14.0609   25.2487 N   0  0  0  0  0  0  0  0  0  0  0  0
    8.4469   12.9539   24.6215 C   0  0  0  0  0  0  0  0  0  0  0  0
    6.5870   14.6970   27.2308 C   0  0  0  0  0  0  0  0  0  0  0  0
    5.0871   14.6419   27.4795 C   0  0  0  0  0  0  0  0  0  0  0  0
    4.6279   13.3677   28.1882 C   0  0  0  0  0  0  0  0  0  0  0  0
    4.6146   12.1436   27.2745 C   0  0  0  0  0  0  0  0  0  0  0  0
    5.9799   11.5082   27.0166 C   0  0  0  0  0  0  0  0  0  0  0  0
  1  2  2  0
  2  3  1  0
  3  4  1  0
  4  5  1  0
  5  6  1  0
  6  7  1  0
  2  8  1  0
  8  9  2  0
  9 10  1  0
 10 11  2  0
 11 12  1  0
 12 13  1  0
 13 14  2  0
 14 15  1  0
 15 16  1  0
 14 17  1  0
 17 18  1  0
 18 19  1  0
 19 20  1  0
 20 21  1  0
 16  8  1  0
 16 12  2  0
 21 13  1  0
M  END
>  <alias>  (1980) 
None

>  <rmsd(smina/fragmenstein)>  (1980) 
0.66

>  <smiles>  (1980) 
O=C(NCCCF)c1cccc2c3c([nH]c12)CCCCC3

>  <gnina_score>  (1980) 
4.932

>  <inspiration_score>  (1980) 
None

>  <energy_score>  (1980) 
-11.648635

>  <distance_score>  (1980) 
1.310278

>  <gnina_score_min>  (1980) 
5.261

>  <inchikey>  (1980) 
OQZKWXBALKJWNP-UHFFFAOYSA-N

>  <exports>  (1980) 
['/opt/xchem-fragalysis-2/maxwin/BulkDock/OUTPUTS/openbind_a71ev2a_c2_elabs_1LOUU54.sdf', '/opt/xchem-fragalysis-2/maxwin/BulkDock/OUTPUTS/openbind_a71ev2a_c2_elabs_1LSYIDY.sdf']

>  <name>  (1980) 
P585960

>  <ref_pdb>  (1980) 
A0566a

>  <subsites>  (1980) 
None

>  <HIPPO Pose ID>  (1980) 
585960

>  <ref_mols>  (1980) 
A0566a

>  <HIPPO Compound ID>  (1980) 
441106

>  <tags>  (1980) 
openbind_a71ev2a_c2_elabs,syndirella_product,openbind_a71ev2a_c2_elabs_fragonly_scored_top80percent,openbind_a71ev2a_c2_elabs_scored,BulkDock Fragalysis export,openbind_a71ev2a_c2_elabs_scored_top80percent,openbind_a71ev2a_c2_elabs_activefrags_only_scored_5.2plus,syndirella_placed

>  <smina_score_min>  (1980) 
-6.255

$$$$
P585961
     RDKit          3D

 21 24  0  0  0  0  0  0  0  0999 V2000
   11.9875   12.7809   22.8377 O   0  0  0  0  0  0  0  0  0  0  0  0
   10.9218   13.2767   22.8542 C   0  0  0  0  0  0  0  0  0  0  0  0
    9.8369   12.4580   23.4466 C   0  0  0  0  0  0  0  0  0  0  0  0
    9.8644   11.0850   23.1643 C   0  0  0  0  0  0  0  0  0  0  0  0
    8.9986   10.1861   23.7554 C   0  0  0  0  0  0  0  0  0  0  0  0
    8.0381   10.6392   24.6498 C   0  0  0  0  0  0  0  0  0  0  0  0
    7.9107   12.0216   24.8875 C   0  0  0  0  0  0  0  0  0  0  0  0
    7.0201   12.7952   25.6937 C   0  0  0  0  0  0  0  0  0  0  0  0
    7.3767   14.1218   25.5240 C   0  0  0  0  0  0  0  0  0  0  0  0
    8.4344   14.1690   24.6536 N   0  0  0  0  0  0  0  0  0  0  0  0
    8.8036   12.9065   24.2708 C   0  0  0  0  0  0  0  0  0  0  0  0
    6.7801   15.3701   26.0927 C   0  0  0  0  0  0  0  0  0  0  0  0
    6.2374   15.1548   27.5039 C   0  0  0  0  0  0  0  0  0  0  0  0
    4.8924   14.4252   27.5646 C   0  0  0  0  0  0  0  0  0  0  0  0
    4.7091   13.2213   26.6352 C   0  0  0  0  0  0  0  0  0  0  0  0
    5.9104   12.2790   26.5582 C   0  0  0  0  0  0  0  0  0  0  0  0
   10.4501   14.5742   22.2818 N   0  0  0  0  0  0  0  0  0  0  0  0
    9.9424   14.4042   20.8330 C   0  0  0  0  0  0  0  0  0  0  0  0
    9.9849   15.9125   20.7317 C   0  0  0  0  0  0  0  0  0  0  0  0
   10.1832   16.4307   19.5027 F   0  0  0  0  0  0  0  0  0  0  0  0
   11.2037   15.6734   21.6065 C   0  0  0  0  0  0  0  0  0  0  0  0
  1  2  2  0
  2  3  1  0
  3  4  2  0
  4  5  1  0
  5  6  2  0
  6  7  1  0
  7  8  1  0
  8  9  2  0
  9 10  1  0
 10 11  1  0
  9 12  1  0
 12 13  1  0
 13 14  1  0
 14 15  1  0
 15 16  1  0
  2 17  1  0
 17 18  1  0
 18 19  1  0
 19 20  1  0
 19 21  1  0
 11  3  1  0
 21 17  1  0
 11  7  2  0
 16  8  1  0
M  END
>  <alias>  (1981) 
None

>  <rmsd(smina/fragmenstein)>  (1981) 
0.583

>  <smiles>  (1981) 
O=C(c1cccc2c3c([nH]c12)CCCCC3)N1CC(F)C1

>  <gnina_score>  (1981) 
5.404

>  <inspiration_score>  (1981) 
None

>  <energy_score>  (1981) 
-134.115843

>  <distance_score>  (1981) 
1.054886

>  <gnina_score_min>  (1981) 
5.219

>  <inchikey>  (1981) 
RNGCAAFUYLVKFE-UHFFFAOYSA-N

>  <exports>  (1981) 
['/opt/xchem-fragalysis-2/maxwin/BulkDock/OUTPUTS/openbind_a71ev2a_c2_elabs_1LOUU54.sdf', '/opt/xchem-fragalysis-2/maxwin/BulkDock/OUTPUTS/openbind_a71ev2a_c2_elabs_1LSYIDY.sdf']

>  <name>  (1981) 
P585961

>  <ref_pdb>  (1981) 
A0566a

>  <subsites>  (1981) 
None

>  <HIPPO Pose ID>  (1981) 
585961

>  <ref_mols>  (1981) 
A0566a

>  <HIPPO Compound ID>  (1981) 
441107

>  <tags>  (1981) 
openbind_a71ev2a_c2_elabs,syndirella_product,openbind_a71ev2a_c2_elabs_fragonly_scored_top80percent,openbind_a71ev2a_c2_elabs_scored,BulkDock Fragalysis export,openbind_a71ev2a_c2_elabs_scored_top80percent,openbind_a71ev2a_c2_elabs_activefrags_only_scored_5.2plus,syndirella_placed

>  <smina_score_min>  (1981) 
-6.659

$$$$
P585962
     RDKit          3D

 21 23  0  0  0  0  0  0  0  0999 V2000
   10.3229   15.6927   20.5323 C   0  0  0  0  0  0  0  0  0  0  0  0
   11.3067   14.6527   21.0447 C   0  0  1  0  0  0  0  0  0  0  0  0
   12.5180   15.1609   21.8132 C   0  0  0  0  0  0  0  0  0  0  0  0
   12.1516   15.9570   22.8441 F   0  0  0  0  0  0  0  0  0  0  0  0
   10.5982   13.6738   21.8298 N   0  0  0  0  0  0  0  0  0  0  0  0
   10.0150   13.7637   23.2454 C   0  0  0  0  0  0  0  0  0  0  0  0
    9.9449   14.6667   23.9772 O   0  0  0  0  0  0  0  0  0  0  0  0
    9.3728   12.4948   23.6727 C   0  0  0  0  0  0  0  0  0  0  0  0
    9.7759   11.2305   23.2381 C   0  0  0  0  0  0  0  0  0  0  0  0
    9.1563   10.0803   23.7048 C   0  0  0  0  0  0  0  0  0  0  0  0
    8.1298   10.1666   24.6511 C   0  0  0  0  0  0  0  0  0  0  0  0
    7.6995   11.4240   25.1160 C   0  0  0  0  0  0  0  0  0  0  0  0
    6.7220   11.8762   26.0631 C   0  0  0  0  0  0  0  0  0  0  0  0
    6.7334   13.2590   26.0291 C   0  0  0  0  0  0  0  0  0  0  0  0
    7.7116   13.6492   25.1592 N   0  0  0  0  0  0  0  0  0  0  0  0
    8.3230   12.5524   24.5987 C   0  0  0  0  0  0  0  0  0  0  0  0
    5.8753   14.2561   26.7304 C   0  0  0  0  0  0  0  0  0  0  0  0
    5.8251   14.0300   28.2395 C   0  0  0  0  0  0  0  0  0  0  0  0
    5.0437   12.7817   28.6587 C   0  0  0  0  0  0  0  0  0  0  0  0
    5.7641   11.4584   28.3845 C   0  0  0  0  0  0  0  0  0  0  0  0
    5.8105   11.0522   26.9093 C   0  0  0  0  0  0  0  0  0  0  0  0
  2  1  1  1
  2  3  1  0
  3  4  1  0
  2  5  1  0
  5  6  1  0
  6  7  2  0
  6  8  1  0
  8  9  2  0
  9 10  1  0
 10 11  2  0
 11 12  1  0
 12 13  1  0
 13 14  2  0
 14 15  1  0
 15 16  1  0
 14 17  1  0
 17 18  1  0
 18 19  1  0
 19 20  1  0
 20 21  1  0
 16  8  1  0
 16 12  2  0
 21 13  1  0
M  END
>  <alias>  (1982) 
None

>  <rmsd(smina/fragmenstein)>  (1982) 
0.627

>  <smiles>  (1982) 
C[C@@H](CF)NC(=O)c1cccc2c3c([nH]c12)CCCCC3

>  <gnina_score>  (1982) 
5.759

>  <inspiration_score>  (1982) 
None

>  <energy_score>  (1982) 
-26.302612

>  <distance_score>  (1982) 
1.221346

>  <gnina_score_min>  (1982) 
5.642

>  <inchikey>  (1982) 
LMJWNJYMKQSDBT-NSHDSACASA-N

>  <exports>  (1982) 
['/opt/xchem-fragalysis-2/maxwin/BulkDock/OUTPUTS/openbind_a71ev2a_c2_elabs_1LOUU54.sdf', '/opt/xchem-fragalysis-2/maxwin/BulkDock/OUTPUTS/openbind_a71ev2a_c2_elabs_1LSYIDY.sdf']

>  <name>  (1982) 
P585962

>  <ref_pdb>  (1982) 
A0566a

>  <subsites>  (1982) 
None

>  <HIPPO Pose ID>  (1982) 
585962

>  <ref_mols>  (1982) 
A0566a

>  <HIPPO Compound ID>  (1982) 
441108

>  <tags>  (1982) 
openbind_a71ev2a_c2_elabs,syndirella_product,openbind_a71ev2a_c2_elabs_fragonly_scored_top80percent,BulkDock Fragalysis export,openbind_a71ev2a_c2_elabs_scored,openbind_a71ev2a_c2_elabs_scored_top80percent,openbind_a71ev2a_c2_elabs_activefrags_only_scored_5.2plus,openbind_a71ev2a_c2_elabs_activefrags_only_scored_5.5plus,syndirella_placed

>  <smina_score_min>  (1982) 
-6.696

$$$$
P585964
     RDKit          3D

 21 24  0  0  0  0  0  0  0  0999 V2000
   11.0181   14.4628   24.0302 O   0  0  0  0  0  0  0  0  0  0  0  0
   10.1397   14.0168   23.4147 C   0  0  0  0  0  0  0  0  0  0  0  0
    9.5589   14.4398   22.0670 N   0  0  0  0  0  0  0  0  0  0  0  0
    9.9928   15.4447   21.1377 C   0  0  0  0  0  0  0  0  0  0  0  0
   10.6630   14.6465   20.0823 C   0  0  0  0  0  0  0  0  0  0  0  0
   12.1567   14.6335   20.0143 C   0  0  0  0  0  0  0  0  0  0  0  0
   11.3388   15.1816   18.8661 C   0  0  0  0  0  0  0  0  0  0  0  0
    9.4513   12.7938   23.8425 C   0  0  0  0  0  0  0  0  0  0  0  0
    9.8504   11.5730   23.2911 C   0  0  0  0  0  0  0  0  0  0  0  0
    9.2205   10.3923   23.6592 C   0  0  0  0  0  0  0  0  0  0  0  0
    8.1849   10.4214   24.6011 C   0  0  0  0  0  0  0  0  0  0  0  0
    7.7410   11.6518   25.1364 C   0  0  0  0  0  0  0  0  0  0  0  0
    6.7397   12.0398   26.0837 C   0  0  0  0  0  0  0  0  0  0  0  0
    6.7436   13.4228   26.1368 C   0  0  0  0  0  0  0  0  0  0  0  0
    7.7439   13.8772   25.3214 N   0  0  0  0  0  0  0  0  0  0  0  0
    8.3774   12.8206   24.7220 C   0  0  0  0  0  0  0  0  0  0  0  0
    5.8561   14.3632   26.8803 C   0  0  0  0  0  0  0  0  0  0  0  0
    5.7782   14.0420   28.3710 C   0  0  0  0  0  0  0  0  0  0  0  0
    5.0010   12.7631   28.6958 C   0  0  0  0  0  0  0  0  0  0  0  0
    5.7358   11.4650   28.3485 C   0  0  0  0  0  0  0  0  0  0  0  0
    5.8121   11.1586   26.8509 C   0  0  0  0  0  0  0  0  0  0  0  0
  1  2  2  0
  2  3  1  0
  3  4  1  0
  4  5  1  0
  5  6  1  0
  6  7  1  0
  2  8  1  0
  8  9  2  0
  9 10  1  0
 10 11  2  0
 11 12  1  0
 12 13  1  0
 13 14  2  0
 14 15  1  0
 15 16  1  0
 14 17  1  0
 17 18  1  0
 18 19  1  0
 19 20  1  0
 20 21  1  0
  7  5  1  0
 16  8  1  0
 16 12  2  0
 21 13  1  0
M  END
>  <alias>  (1983) 
None

>  <rmsd(smina/fragmenstein)>  (1983) 
0.851

>  <smiles>  (1983) 
O=C(NCC1CC1)c1cccc2c3c([nH]c12)CCCCC3

>  <gnina_score>  (1983) 
5.223

>  <inspiration_score>  (1983) 
None

>  <energy_score>  (1983) 
-18.156699

>  <distance_score>  (1983) 
1.23465

>  <gnina_score_min>  (1983) 
5.331

>  <inchikey>  (1983) 
MUFOEKQTCKHTLS-UHFFFAOYSA-N

>  <exports>  (1983) 
['/opt/xchem-fragalysis-2/maxwin/BulkDock/OUTPUTS/openbind_a71ev2a_c2_elabs_1LOUU54.sdf', '/opt/xchem-fragalysis-2/maxwin/BulkDock/OUTPUTS/openbind_a71ev2a_c2_elabs_1LSYIDY.sdf']

>  <name>  (1983) 
P585964

>  <ref_pdb>  (1983) 
A0566a

>  <subsites>  (1983) 
None

>  <HIPPO Pose ID>  (1983) 
585964

>  <ref_mols>  (1983) 
A0566a

>  <HIPPO Compound ID>  (1983) 
441112

>  <tags>  (1983) 
openbind_a71ev2a_c2_elabs,syndirella_product,openbind_a71ev2a_c2_elabs_fragonly_scored_top80percent,openbind_a71ev2a_c2_elabs_scored,BulkDock Fragalysis export,openbind_a71ev2a_c2_elabs_scored_top80percent,openbind_a71ev2a_c2_elabs_activefrags_only_scored_5.2plus,syndirella_placed

>  <smina_score_min>  (1983) 
-6.506

$$$$
P585965
     RDKit          3D

 21 23  0  0  0  0  0  0  0  0999 V2000
   11.4117   14.5166   19.7025 C   0  0  0  0  0  0  0  0  0  0  0  0
   10.7143   15.0246   20.9506 C   0  0  2  0  0  0  0  0  0  0  0  0
   11.7056   15.6403   21.8220 C   0  0  0  0  0  0  0  0  0  0  0  0
   12.4262   16.0374   22.6321 N   0  0  0  0  0  0  0  0  0  0  0  0
   10.0802   14.0146   21.7619 N   0  0  0  0  0  0  0  0  0  0  0  0
   10.6518   13.1276   22.8786 C   0  0  0  0  0  0  0  0  0  0  0  0
   11.7049   13.1233   23.3747 O   0  0  0  0  0  0  0  0  0  0  0  0
    9.6402   12.2367   23.4233 C   0  0  0  0  0  0  0  0  0  0  0  0
    9.7378   10.8872   23.1411 C   0  0  0  0  0  0  0  0  0  0  0  0
    8.9132    9.9954   23.7879 C   0  0  0  0  0  0  0  0  0  0  0  0
    7.9581   10.4277   24.7137 C   0  0  0  0  0  0  0  0  0  0  0  0
    7.8196   11.8031   24.9803 C   0  0  0  0  0  0  0  0  0  0  0  0
    6.9952   12.5798   25.8544 C   0  0  0  0  0  0  0  0  0  0  0  0
    7.4055   13.8968   25.7333 C   0  0  0  0  0  0  0  0  0  0  0  0
    8.4005   13.9438   24.7941 N   0  0  0  0  0  0  0  0  0  0  0  0
    8.6764   12.6859   24.3273 C   0  0  0  0  0  0  0  0  0  0  0  0
    6.9676   15.1242   26.4602 C   0  0  0  0  0  0  0  0  0  0  0  0
    5.4544   15.3066   26.4775 C   0  0  0  0  0  0  0  0  0  0  0  0
    4.7172   14.2843   27.3450 C   0  0  0  0  0  0  0  0  0  0  0  0
    4.6392   12.8855   26.7314 C   0  0  0  0  0  0  0  0  0  0  0  0
    5.9389   12.0822   26.7862 C   0  0  0  0  0  0  0  0  0  0  0  0
  2  1  1  6
  2  3  1  0
  3  4  3  0
  2  5  1  0
  5  6  1  0
  6  7  2  0
  6  8  1  0
  8  9  2  0
  9 10  1  0
 10 11  2  0
 11 12  1  0
 12 13  1  0
 13 14  2  0
 14 15  1  0
 15 16  1  0
 14 17  1  0
 17 18  1  0
 18 19  1  0
 19 20  1  0
 20 21  1  0
 16  8  1  0
 16 12  2  0
 21 13  1  0
M  END
>  <alias>  (1984) 
None

>  <rmsd(smina/fragmenstein)>  (1984) 
0.647

>  <smiles>  (1984) 
C[C@H](C#N)NC(=O)c1cccc2c3c([nH]c12)CCCCC3

>  <gnina_score>  (1984) 
5.3

>  <inspiration_score>  (1984) 
None

>  <energy_score>  (1984) 
-1.669202

>  <distance_score>  (1984) 
1.157281

>  <gnina_score_min>  (1984) 
5.432

>  <inchikey>  (1984) 
XIECRVMCZDFJRP-LLVKDONJSA-N

>  <exports>  (1984) 
['/opt/xchem-fragalysis-2/maxwin/BulkDock/OUTPUTS/openbind_a71ev2a_c2_elabs_1LOUU54.sdf', '/opt/xchem-fragalysis-2/maxwin/BulkDock/OUTPUTS/openbind_a71ev2a_c2_elabs_1LSYIDY.sdf']

>  <name>  (1984) 
P585965

>  <ref_pdb>  (1984) 
A0566a

>  <subsites>  (1984) 
None

>  <HIPPO Pose ID>  (1984) 
585965

>  <ref_mols>  (1984) 
A0566a

>  <HIPPO Compound ID>  (1984) 
441114

>  <tags>  (1984) 
openbind_a71ev2a_c2_elabs,syndirella_product,openbind_a71ev2a_c2_elabs_fragonly_scored_top80percent,openbind_a71ev2a_c2_elabs_scored,BulkDock Fragalysis export,openbind_a71ev2a_c2_elabs_scored_top80percent,openbind_a71ev2a_c2_elabs_activefrags_only_scored_5.2plus,syndirella_placed

>  <smina_score_min>  (1984) 
-6.917

$$$$
P585966
     RDKit          3D

 21 24  0  0  0  0  0  0  0  0999 V2000
   11.6432   14.8823   19.0539 C   0  0  0  0  0  0  0  0  0  0  0  0
   12.0417   14.4382   20.4088 C   0  0  1  0  0  0  0  0  0  0  0  0
   12.5484   15.1826   21.6166 C   0  0  0  0  0  0  0  0  0  0  0  0
   11.1004   14.8924   21.4876 C   0  0  2  0  0  0  0  0  0  0  0  0
   10.4370   13.8924   22.1873 N   0  0  0  0  0  0  0  0  0  0  0  0
   10.0011   13.8247   23.6534 C   0  0  0  0  0  0  0  0  0  0  0  0
   10.0580   14.6266   24.4961 O   0  0  0  0  0  0  0  0  0  0  0  0
    9.3286   12.5382   23.9315 C   0  0  0  0  0  0  0  0  0  0  0  0
    9.7371   11.3215   23.3758 C   0  0  0  0  0  0  0  0  0  0  0  0
    9.1096   10.1377   23.7346 C   0  0  0  0  0  0  0  0  0  0  0  0
    8.0742   10.1484   24.6783 C   0  0  0  0  0  0  0  0  0  0  0  0
    7.6244   11.3636   25.2324 C   0  0  0  0  0  0  0  0  0  0  0  0
    6.6397   11.7395   26.2047 C   0  0  0  0  0  0  0  0  0  0  0  0
    6.6437   13.1209   26.2765 C   0  0  0  0  0  0  0  0  0  0  0  0
    7.6246   13.5814   25.4458 N   0  0  0  0  0  0  0  0  0  0  0  0
    8.2517   12.5312   24.8199 C   0  0  0  0  0  0  0  0  0  0  0  0
    5.7819   14.0524   27.0590 C   0  0  0  0  0  0  0  0  0  0  0  0
    5.7522   13.7111   28.5472 C   0  0  0  0  0  0  0  0  0  0  0  0
    4.9776   12.4328   28.8799 C   0  0  0  0  0  0  0  0  0  0  0  0
    5.6912   11.1339   28.4931 C   0  0  0  0  0  0  0  0  0  0  0  0
    5.7314   10.8532   26.9890 C   0  0  0  0  0  0  0  0  0  0  0  0
  2  1  1  6
  2  3  1  0
  3  4  1  0
  4  5  1  1
  5  6  1  0
  6  7  2  0
  6  8  1  0
  8  9  2  0
  9 10  1  0
 10 11  2  0
 11 12  1  0
 12 13  1  0
 13 14  2  0
 14 15  1  0
 15 16  1  0
 14 17  1  0
 17 18  1  0
 18 19  1  0
 19 20  1  0
 20 21  1  0
  4  2  1  0
 16  8  1  0
 16 12  2  0
 21 13  1  0
M  END
>  <alias>  (1985) 
None

>  <rmsd(smina/fragmenstein)>  (1985) 
0.28

>  <smiles>  (1985) 
C[C@H]1C[C@@H]1NC(=O)c1cccc2c3c([nH]c12)CCCCC3

>  <gnina_score>  (1985) 
5.415

>  <inspiration_score>  (1985) 
None

>  <energy_score>  (1985) 
-17.075117

>  <distance_score>  (1985) 
1.209191

>  <gnina_score_min>  (1985) 
5.472

>  <inchikey>  (1985) 
WMXAKXWKTFIWCK-ZBEGNZNMSA-N

>  <exports>  (1985) 
['/opt/xchem-fragalysis-2/maxwin/BulkDock/OUTPUTS/openbind_a71ev2a_c2_elabs_1LOUU54.sdf', '/opt/xchem-fragalysis-2/maxwin/BulkDock/OUTPUTS/openbind_a71ev2a_c2_elabs_1LSYIDY.sdf']

>  <name>  (1985) 
P585966

>  <ref_pdb>  (1985) 
A0566a

>  <subsites>  (1985) 
None

>  <HIPPO Pose ID>  (1985) 
585966

>  <ref_mols>  (1985) 
A0566a

>  <HIPPO Compound ID>  (1985) 
441115

>  <tags>  (1985) 
openbind_a71ev2a_c2_elabs,syndirella_product,openbind_a71ev2a_c2_elabs_fragonly_scored_top80percent,openbind_a71ev2a_c2_elabs_scored,BulkDock Fragalysis export,openbind_a71ev2a_c2_elabs_scored_top80percent,openbind_a71ev2a_c2_elabs_activefrags_only_scored_5.2plus,syndirella_placed

>  <smina_score_min>  (1985) 
-6.936

$$$$
P585971
     RDKit          3D

 21 23  0  0  0  0  0  0  0  0999 V2000
   10.2662   15.6755   20.3864 C   0  0  0  0  0  0  0  0  0  0  0  0
   11.2381   14.6972   21.0280 C   0  0  1  0  0  0  0  0  0  0  0  0
   12.3275   15.3145   21.9133 C   0  0  0  0  0  0  0  0  0  0  0  0
   12.8352   14.3548   22.8528 O   0  0  0  0  0  0  0  0  0  0  0  0
   10.5079   13.7160   21.7932 N   0  0  0  0  0  0  0  0  0  0  0  0
    9.8416   13.8203   23.1723 C   0  0  0  0  0  0  0  0  0  0  0  0
    9.7084   14.7363   23.8793 O   0  0  0  0  0  0  0  0  0  0  0  0
    9.2736   12.5232   23.6257 C   0  0  0  0  0  0  0  0  0  0  0  0
    9.7435   11.2719   23.2133 C   0  0  0  0  0  0  0  0  0  0  0  0
    9.1764   10.0976   23.6878 C   0  0  0  0  0  0  0  0  0  0  0  0
    8.1491   10.1468   24.6338 C   0  0  0  0  0  0  0  0  0  0  0  0
    7.6780   11.3869   25.1033 C   0  0  0  0  0  0  0  0  0  0  0  0
    6.7162   11.7969   26.0828 C   0  0  0  0  0  0  0  0  0  0  0  0
    6.6937   13.1820   26.0789 C   0  0  0  0  0  0  0  0  0  0  0  0
    7.6046   13.6098   25.1550 N   0  0  0  0  0  0  0  0  0  0  0  0
    8.2419   12.5394   24.5728 C   0  0  0  0  0  0  0  0  0  0  0  0
    5.8938   14.1582   26.8813 C   0  0  0  0  0  0  0  0  0  0  0  0
    4.5324   13.6007   27.2905 C   0  0  0  0  0  0  0  0  0  0  0  0
    4.5763   12.5791   28.4321 C   0  0  0  0  0  0  0  0  0  0  0  0
    5.6715   11.5084   28.3658 C   0  0  0  0  0  0  0  0  0  0  0  0
    5.8923   10.9206   26.9717 C   0  0  0  0  0  0  0  0  0  0  0  0
  2  1  1  1
  2  3  1  0
  3  4  1  0
  2  5  1  0
  5  6  1  0
  6  7  2  0
  6  8  1  0
  8  9  2  0
  9 10  1  0
 10 11  2  0
 11 12  1  0
 12 13  1  0
 13 14  2  0
 14 15  1  0
 15 16  1  0
 14 17  1  0
 17 18  1  0
 18 19  1  0
 19 20  1  0
 20 21  1  0
 16  8  1  0
 16 12  2  0
 21 13  1  0
M  END
>  <alias>  (1986) 
None

>  <rmsd(smina/fragmenstein)>  (1986) 
0.237

>  <smiles>  (1986) 
C[C@@H](CO)NC(=O)c1cccc2c3c([nH]c12)CCCCC3

>  <gnina_score>  (1986) 
5.544

>  <inspiration_score>  (1986) 
None

>  <energy_score>  (1986) 
-13.008273

>  <distance_score>  (1986) 
1.294051

>  <gnina_score_min>  (1986) 
5.563

>  <inchikey>  (1986) 
MXJMGUFZYXDSSE-NSHDSACASA-N

>  <exports>  (1986) 
['/opt/xchem-fragalysis-2/maxwin/BulkDock/OUTPUTS/openbind_a71ev2a_c2_elabs_1LOUU54.sdf', '/opt/xchem-fragalysis-2/maxwin/BulkDock/OUTPUTS/openbind_a71ev2a_c2_elabs_1LSYIDY.sdf']

>  <name>  (1986) 
P585971

>  <ref_pdb>  (1986) 
A0566a

>  <subsites>  (1986) 
None

>  <HIPPO Pose ID>  (1986) 
585971

>  <ref_mols>  (1986) 
A0566a

>  <HIPPO Compound ID>  (1986) 
441118

>  <tags>  (1986) 
openbind_a71ev2a_c2_elabs,syndirella_product,openbind_a71ev2a_c2_elabs_fragonly_scored_top80percent,BulkDock Fragalysis export,openbind_a71ev2a_c2_elabs_scored,openbind_a71ev2a_c2_elabs_scored_top80percent,openbind_a71ev2a_c2_elabs_activefrags_only_scored_5.2plus,openbind_a71ev2a_c2_elabs_activefrags_only_scored_5.5plus,syndirella_placed

>  <smina_score_min>  (1986) 
-6.762

$$$$
P585972
     RDKit          3D

 21 24  0  0  0  0  0  0  0  0999 V2000
   12.3914   15.3122   21.8488 C   0  0  0  0  0  0  0  0  0  0  0  0
   11.1373   14.8105   21.1946 C   0  0  0  0  0  0  0  0  0  0  0  0
   10.4724   13.8178   21.9354 N   0  0  0  0  0  0  0  0  0  0  0  0
   10.0860   13.7717   23.4227 C   0  0  0  0  0  0  0  0  0  0  0  0
   10.1884   14.5818   24.2566 O   0  0  0  0  0  0  0  0  0  0  0  0
    9.3917   12.5157   23.7810 C   0  0  0  0  0  0  0  0  0  0  0  0
    9.7251   11.2611   23.2754 C   0  0  0  0  0  0  0  0  0  0  0  0
    9.0525   10.1280   23.7133 C   0  0  0  0  0  0  0  0  0  0  0  0
    8.0381   10.2254   24.6794 C   0  0  0  0  0  0  0  0  0  0  0  0
    7.6736   11.4823   25.2026 C   0  0  0  0  0  0  0  0  0  0  0  0
    6.7736   11.9461   26.2311 C   0  0  0  0  0  0  0  0  0  0  0  0
    6.9920   13.3096   26.3657 C   0  0  0  0  0  0  0  0  0  0  0  0
    7.8422   13.6907   25.3641 N   0  0  0  0  0  0  0  0  0  0  0  0
    8.3566   12.5903   24.7232 C   0  0  0  0  0  0  0  0  0  0  0  0
    6.5596   14.3086   27.3881 C   0  0  0  0  0  0  0  0  0  0  0  0
    5.0939   14.2294   27.7812 C   0  0  0  0  0  0  0  0  0  0  0  0
    4.7205   12.9308   28.4938 C   0  0  0  0  0  0  0  0  0  0  0  0
    4.5801   11.7543   27.5324 C   0  0  0  0  0  0  0  0  0  0  0  0
    5.8906   11.1015   27.0979 C   0  0  0  0  0  0  0  0  0  0  0  0
   10.1788   15.7507   20.4781 C   0  0  0  0  0  0  0  0  0  0  0  0
   11.0861   14.8628   19.6899 C   0  0  0  0  0  0  0  0  0  0  0  0
  1  2  1  0
  2  3  1  0
  3  4  1  0
  4  5  2  0
  4  6  1  0
  6  7  2  0
  7  8  1  0
  8  9  2  0
  9 10  1  0
 10 11  1  0
 11 12  2  0
 12 13  1  0
 13 14  1  0
 12 15  1  0
 15 16  1  0
 16 17  1  0
 17 18  1  0
 18 19  1  0
  2 20  1  0
 20 21  1  0
 21  2  1  0
 14  6  1  0
 14 10  2  0
 19 11  1  0
M  END
>  <alias>  (1987) 
None

>  <rmsd(smina/fragmenstein)>  (1987) 
0.471

>  <smiles>  (1987) 
CC1(NC(=O)c2cccc3c4c([nH]c23)CCCCC4)CC1

>  <gnina_score>  (1987) 
5.592

>  <inspiration_score>  (1987) 
None

>  <energy_score>  (1987) 
-24.407809

>  <distance_score>  (1987) 
1.1938

>  <gnina_score_min>  (1987) 
5.647

>  <inchikey>  (1987) 
UXKLRNPWHVAASH-UHFFFAOYSA-N

>  <exports>  (1987) 
['/opt/xchem-fragalysis-2/maxwin/BulkDock/OUTPUTS/openbind_a71ev2a_c2_elabs_1LOUU54.sdf', '/opt/xchem-fragalysis-2/maxwin/BulkDock/OUTPUTS/openbind_a71ev2a_c2_elabs_1LSYIDY.sdf']

>  <name>  (1987) 
P585972

>  <ref_pdb>  (1987) 
A0566a

>  <subsites>  (1987) 
None

>  <HIPPO Pose ID>  (1987) 
585972

>  <ref_mols>  (1987) 
A0566a

>  <HIPPO Compound ID>  (1987) 
441119

>  <tags>  (1987) 
openbind_a71ev2a_c2_elabs,syndirella_product,openbind_a71ev2a_c2_elabs_fragonly_scored_top80percent,BulkDock Fragalysis export,openbind_a71ev2a_c2_elabs_scored,openbind_a71ev2a_c2_elabs_scored_top80percent,openbind_a71ev2a_c2_elabs_activefrags_only_scored_5.2plus,openbind_a71ev2a_c2_elabs_activefrags_only_scored_5.5plus,syndirella_placed

>  <smina_score_min>  (1987) 
-7.692

$$$$
P585973
     RDKit          3D

 21 23  0  0  0  0  0  0  0  0999 V2000
   10.8355   15.1664   18.9994 C   0  0  0  0  0  0  0  0  0  0  0  0
   11.8317   14.6002   19.9618 C   0  0  0  0  0  0  0  0  0  0  0  0
   12.6783   13.7923   19.5832 O   0  0  0  0  0  0  0  0  0  0  0  0
   11.6855   14.9585   21.4191 C   0  0  0  0  0  0  0  0  0  0  0  0
   10.9028   13.9401   22.0615 N   0  0  0  0  0  0  0  0  0  0  0  0
   10.3243   13.8747   23.4773 C   0  0  0  0  0  0  0  0  0  0  0  0
   10.3221   14.6682   24.3295 O   0  0  0  0  0  0  0  0  0  0  0  0
    9.5689   12.6181   23.7339 C   0  0  0  0  0  0  0  0  0  0  0  0
    9.9182   11.3766   23.2018 C   0  0  0  0  0  0  0  0  0  0  0  0
    9.2566   10.2140   23.5825 C   0  0  0  0  0  0  0  0  0  0  0  0
    8.2252   10.2677   24.5256 C   0  0  0  0  0  0  0  0  0  0  0  0
    7.8090   11.5089   25.0451 C   0  0  0  0  0  0  0  0  0  0  0  0
    6.8142   11.9307   25.9893 C   0  0  0  0  0  0  0  0  0  0  0  0
    6.8539   13.3125   26.0306 C   0  0  0  0  0  0  0  0  0  0  0  0
    7.8775   13.7254   25.2261 N   0  0  0  0  0  0  0  0  0  0  0  0
    8.4805   12.6498   24.6179 C   0  0  0  0  0  0  0  0  0  0  0  0
    5.9873   14.2899   26.7495 C   0  0  0  0  0  0  0  0  0  0  0  0
    5.8639   13.9847   28.2399 C   0  0  0  0  0  0  0  0  0  0  0  0
    5.0363   12.7356   28.5539 C   0  0  0  0  0  0  0  0  0  0  0  0
    5.7431   11.4130   28.2451 C   0  0  0  0  0  0  0  0  0  0  0  0
    5.8559   11.0822   26.7551 C   0  0  0  0  0  0  0  0  0  0  0  0
  1  2  1  0
  2  3  2  0
  2  4  1  0
  4  5  1  0
  5  6  1  0
  6  7  2  0
  6  8  1  0
  8  9  2  0
  9 10  1  0
 10 11  2  0
 11 12  1  0
 12 13  1  0
 13 14  2  0
 14 15  1  0
 15 16  1  0
 14 17  1  0
 17 18  1  0
 18 19  1  0
 19 20  1  0
 20 21  1  0
 16  8  1  0
 16 12  2  0
 21 13  1  0
M  END
>  <alias>  (1988) 
None

>  <rmsd(smina/fragmenstein)>  (1988) 
0.7

>  <smiles>  (1988) 
CC(=O)CNC(=O)c1cccc2c3c([nH]c12)CCCCC3

>  <gnina_score>  (1988) 
5.443

>  <inspiration_score>  (1988) 
None

>  <energy_score>  (1988) 
-15.211466

>  <distance_score>  (1988) 
0.976868

>  <gnina_score_min>  (1988) 
5.681

>  <inchikey>  (1988) 
PJNJZASCBJUORM-UHFFFAOYSA-N

>  <exports>  (1988) 
['/opt/xchem-fragalysis-2/maxwin/BulkDock/OUTPUTS/openbind_a71ev2a_c2_elabs_1LOUU54.sdf', '/opt/xchem-fragalysis-2/maxwin/BulkDock/OUTPUTS/openbind_a71ev2a_c2_elabs_1LSYIDY.sdf']

>  <name>  (1988) 
P585973

>  <ref_pdb>  (1988) 
A0566a

>  <subsites>  (1988) 
None

>  <HIPPO Pose ID>  (1988) 
585973

>  <ref_mols>  (1988) 
A0566a

>  <HIPPO Compound ID>  (1988) 
441121

>  <tags>  (1988) 
openbind_a71ev2a_c2_elabs,syndirella_product,openbind_a71ev2a_c2_elabs_fragonly_scored_top80percent,BulkDock Fragalysis export,openbind_a71ev2a_c2_elabs_scored,openbind_a71ev2a_c2_elabs_scored_top80percent,openbind_a71ev2a_c2_elabs_activefrags_only_scored_5.2plus,openbind_a71ev2a_c2_elabs_activefrags_only_scored_5.5plus,syndirella_placed

>  <smina_score_min>  (1988) 
-7.113

$$$$
P585975
     RDKit          3D

 21 23  0  0  0  0  0  0  0  0999 V2000
   10.5177   15.3659   19.1844 C   0  0  0  0  0  0  0  0  0  0  0  0
   10.3751   15.6542   20.6722 C   0  0  1  0  0  0  0  0  0  0  0  0
    8.6530   15.2160   21.2188 S   0  0  0  0  0  0  0  0  0  0  0  0
   11.4961   14.9342   21.4725 C   0  0  0  0  0  0  0  0  0  0  0  0
   10.9105   13.8352   22.1759 N   0  0  0  0  0  0  0  0  0  0  0  0
   10.4300   13.7240   23.6241 C   0  0  0  0  0  0  0  0  0  0  0  0
   10.5024   14.4833   24.5045 O   0  0  0  0  0  0  0  0  0  0  0  0
    9.6766   12.4676   23.8560 C   0  0  0  0  0  0  0  0  0  0  0  0
    9.9565   11.2467   23.2471 C   0  0  0  0  0  0  0  0  0  0  0  0
    9.2513   10.0978   23.5811 C   0  0  0  0  0  0  0  0  0  0  0  0
    8.2244   10.1544   24.5286 C   0  0  0  0  0  0  0  0  0  0  0  0
    7.8399   11.3923   25.0763 C   0  0  0  0  0  0  0  0  0  0  0  0
    6.8628   11.8177   26.0333 C   0  0  0  0  0  0  0  0  0  0  0  0
    6.9404   13.1989   26.1122 C   0  0  0  0  0  0  0  0  0  0  0  0
    7.9613   13.6035   25.2978 N   0  0  0  0  0  0  0  0  0  0  0  0
    8.5593   12.5186   24.6999 C   0  0  0  0  0  0  0  0  0  0  0  0
    6.1501   14.1869   26.9088 C   0  0  0  0  0  0  0  0  0  0  0  0
    4.7278   13.7051   27.1882 C   0  0  0  0  0  0  0  0  0  0  0  0
    4.6206   12.6276   28.2730 C   0  0  0  0  0  0  0  0  0  0  0  0
    5.6463   11.4890   28.2247 C   0  0  0  0  0  0  0  0  0  0  0  0
    5.9277   10.9572   26.8190 C   0  0  0  0  0  0  0  0  0  0  0  0
  2  1  1  6
  2  3  1  0
  2  4  1  0
  4  5  1  0
  5  6  1  0
  6  7  2  0
  6  8  1  0
  8  9  2  0
  9 10  1  0
 10 11  2  0
 11 12  1  0
 12 13  1  0
 13 14  2  0
 14 15  1  0
 15 16  1  0
 14 17  1  0
 17 18  1  0
 18 19  1  0
 19 20  1  0
 20 21  1  0
 16  8  1  0
 16 12  2  0
 21 13  1  0
M  END
>  <alias>  (1989) 
None

>  <rmsd(smina/fragmenstein)>  (1989) 
0.264

>  <smiles>  (1989) 
C[C@@H](S)CNC(=O)c1cccc2c3c([nH]c12)CCCCC3

>  <gnina_score>  (1989) 
5.9

>  <inspiration_score>  (1989) 
None

>  <energy_score>  (1989) 
-5.464849

>  <distance_score>  (1989) 
0.93076

>  <gnina_score_min>  (1989) 
5.864

>  <inchikey>  (1989) 
NABWLBSJIRIFMN-LLVKDONJSA-N

>  <exports>  (1989) 
['/opt/xchem-fragalysis-2/maxwin/BulkDock/OUTPUTS/openbind_a71ev2a_c2_elabs_1LOUU54.sdf', '/opt/xchem-fragalysis-2/maxwin/BulkDock/OUTPUTS/openbind_a71ev2a_c2_elabs_1LSYIDY.sdf']

>  <name>  (1989) 
P585975

>  <ref_pdb>  (1989) 
A0566a

>  <subsites>  (1989) 
None

>  <HIPPO Pose ID>  (1989) 
585975

>  <ref_mols>  (1989) 
A0566a

>  <HIPPO Compound ID>  (1989) 
441123

>  <tags>  (1989) 
openbind_a71ev2a_c2_elabs,syndirella_product,openbind_a71ev2a_c2_elabs_fragonly_scored_top80percent,BulkDock Fragalysis export,openbind_a71ev2a_c2_elabs_scored,openbind_a71ev2a_c2_elabs_scored_top80percent,openbind_a71ev2a_c2_elabs_activefrags_only_scored_5.2plus,openbind_a71ev2a_c2_elabs_activefrags_only_scored_5.5plus,syndirella_placed

>  <smina_score_min>  (1989) 
-6.644

$$$$
P585976
     RDKit          3D

 21 23  0  0  0  0  0  0  0  0999 V2000
    8.8302   18.0632   20.0029 C   0  0  0  0  0  0  0  0  0  0  0  0
    9.5518   16.8233   20.2841 C   0  0  0  0  0  0  0  0  0  0  0  0
   10.2606   15.8984   20.5772 C   0  0  0  0  0  0  0  0  0  0  0  0
   11.2498   14.9089   21.0072 C   0  0  0  0  0  0  0  0  0  0  0  0
   10.5859   13.9036   21.7676 N   0  0  0  0  0  0  0  0  0  0  0  0
   10.2703   13.8335   23.2653 C   0  0  0  0  0  0  0  0  0  0  0  0
   10.4331   14.6197   24.1091 O   0  0  0  0  0  0  0  0  0  0  0  0
    9.5594   12.5835   23.6263 C   0  0  0  0  0  0  0  0  0  0  0  0
    9.9218   11.3294   23.1377 C   0  0  0  0  0  0  0  0  0  0  0  0
    9.2792   10.1729   23.5609 C   0  0  0  0  0  0  0  0  0  0  0  0
    8.2558   10.2489   24.5092 C   0  0  0  0  0  0  0  0  0  0  0  0
    7.8433   11.5021   25.0025 C   0  0  0  0  0  0  0  0  0  0  0  0
    6.8739   11.9367   25.9625 C   0  0  0  0  0  0  0  0  0  0  0  0
    6.9194   13.3213   25.9912 C   0  0  0  0  0  0  0  0  0  0  0  0
    7.9013   13.7253   25.1285 N   0  0  0  0  0  0  0  0  0  0  0  0
    8.4969   12.6377   24.5357 C   0  0  0  0  0  0  0  0  0  0  0  0
    6.1241   14.3160   26.7750 C   0  0  0  0  0  0  0  0  0  0  0  0
    4.7187   13.8120   27.0978 C   0  0  0  0  0  0  0  0  0  0  0  0
    4.6567   12.7674   28.2178 C   0  0  0  0  0  0  0  0  0  0  0  0
    5.7069   11.6510   28.1858 C   0  0  0  0  0  0  0  0  0  0  0  0
    5.9737   11.0794   26.7930 C   0  0  0  0  0  0  0  0  0  0  0  0
  1  2  1  0
  2  3  3  0
  3  4  1  0
  4  5  1  0
  5  6  1  0
  6  7  2  0
  6  8  1  0
  8  9  2  0
  9 10  1  0
 10 11  2  0
 11 12  1  0
 12 13  1  0
 13 14  2  0
 14 15  1  0
 15 16  1  0
 14 17  1  0
 17 18  1  0
 18 19  1  0
 19 20  1  0
 20 21  1  0
 16  8  1  0
 16 12  2  0
 21 13  1  0
M  END
>  <alias>  (1990) 
None

>  <rmsd(smina/fragmenstein)>  (1990) 
0.563

>  <smiles>  (1990) 
CC#CCNC(=O)c1cccc2c3c([nH]c12)CCCCC3

>  <gnina_score>  (1990) 
5.674

>  <inspiration_score>  (1990) 
None

>  <energy_score>  (1990) 
-3.65816

>  <distance_score>  (1990) 
1.042151

>  <gnina_score_min>  (1990) 
5.611

>  <inchikey>  (1990) 
DFPMRSVQSAOHEA-UHFFFAOYSA-N

>  <exports>  (1990) 
['/opt/xchem-fragalysis-2/maxwin/BulkDock/OUTPUTS/openbind_a71ev2a_c2_elabs_1LOUU54.sdf', '/opt/xchem-fragalysis-2/maxwin/BulkDock/OUTPUTS/openbind_a71ev2a_c2_elabs_1LSYIDY.sdf']

>  <name>  (1990) 
P585976

>  <ref_pdb>  (1990) 
A0566a

>  <subsites>  (1990) 
None

>  <HIPPO Pose ID>  (1990) 
585976

>  <ref_mols>  (1990) 
A0566a

>  <HIPPO Compound ID>  (1990) 
441124

>  <tags>  (1990) 
openbind_a71ev2a_c2_elabs,syndirella_product,openbind_a71ev2a_c2_elabs_fragonly_scored_top80percent,BulkDock Fragalysis export,openbind_a71ev2a_c2_elabs_scored,openbind_a71ev2a_c2_elabs_scored_top80percent,openbind_a71ev2a_c2_elabs_activefrags_only_scored_5.2plus,openbind_a71ev2a_c2_elabs_activefrags_only_scored_5.5plus,syndirella_placed

>  <smina_score_min>  (1990) 
-7.204

$$$$
P585978
     RDKit          3D

 21 23  0  0  0  0  0  0  0  0999 V2000
   11.3466   14.5605   19.8827 C   0  0  0  0  0  0  0  0  0  0  0  0
   10.5544   15.6286   20.5993 C   0  0  2  0  0  0  0  0  0  0  0  0
   11.3438   16.0662   21.6976 O   0  0  0  0  0  0  0  0  0  0  0  0
    9.1418   15.2583   21.0371 C   0  0  0  0  0  0  0  0  0  0  0  0
    9.0103   14.1858   21.9810 N   0  0  0  0  0  0  0  0  0  0  0  0
    9.9423   13.7319   23.1076 C   0  0  0  0  0  0  0  0  0  0  0  0
   10.9304   14.1993   23.5031 O   0  0  0  0  0  0  0  0  0  0  0  0
    9.3818   12.5200   23.6979 C   0  0  0  0  0  0  0  0  0  0  0  0
    9.7944   11.2768   23.2329 C   0  0  0  0  0  0  0  0  0  0  0  0
    9.1863   10.1253   23.7031 C   0  0  0  0  0  0  0  0  0  0  0  0
    8.1629   10.2113   24.6582 C   0  0  0  0  0  0  0  0  0  0  0  0
    7.7239   11.4681   25.1289 C   0  0  0  0  0  0  0  0  0  0  0  0
    6.7372   11.9152   26.0656 C   0  0  0  0  0  0  0  0  0  0  0  0
    6.7321   13.2986   26.0216 C   0  0  0  0  0  0  0  0  0  0  0  0
    7.7092   13.6995   25.1521 N   0  0  0  0  0  0  0  0  0  0  0  0
    8.3381   12.6053   24.6153 C   0  0  0  0  0  0  0  0  0  0  0  0
    5.8508   14.2843   26.7125 C   0  0  0  0  0  0  0  0  0  0  0  0
    5.7980   14.0674   28.2229 C   0  0  0  0  0  0  0  0  0  0  0  0
    5.0338   12.8103   28.6479 C   0  0  0  0  0  0  0  0  0  0  0  0
    5.7723   11.4955   28.3816 C   0  0  0  0  0  0  0  0  0  0  0  0
    5.8277   11.0842   26.9083 C   0  0  0  0  0  0  0  0  0  0  0  0
  2  1  1  1
  2  3  1  0
  2  4  1  0
  4  5  1  0
  5  6  1  0
  6  7  2  0
  6  8  1  0
  8  9  2  0
  9 10  1  0
 10 11  2  0
 11 12  1  0
 12 13  1  0
 13 14  2  0
 14 15  1  0
 15 16  1  0
 14 17  1  0
 17 18  1  0
 18 19  1  0
 19 20  1  0
 20 21  1  0
 16  8  1  0
 16 12  2  0
 21 13  1  0
M  END
>  <alias>  (1991) 
None

>  <rmsd(smina/fragmenstein)>  (1991) 
0.484

>  <smiles>  (1991) 
C[C@H](O)CNC(=O)c1cccc2c3c([nH]c12)CCCCC3

>  <gnina_score>  (1991) 
5.106

>  <inspiration_score>  (1991) 
None

>  <energy_score>  (1991) 
-13.905526

>  <distance_score>  (1991) 
1.457547

>  <gnina_score_min>  (1991) 
5.312

>  <inchikey>  (1991) 
GCWVJKFAVYYRPD-NSHDSACASA-N

>  <exports>  (1991) 
['/opt/xchem-fragalysis-2/maxwin/BulkDock/OUTPUTS/openbind_a71ev2a_c2_elabs_1LOUU54.sdf', '/opt/xchem-fragalysis-2/maxwin/BulkDock/OUTPUTS/openbind_a71ev2a_c2_elabs_1LSYIDY.sdf']

>  <name>  (1991) 
P585978

>  <ref_pdb>  (1991) 
A0566a

>  <subsites>  (1991) 
None

>  <HIPPO Pose ID>  (1991) 
585978

>  <ref_mols>  (1991) 
A0566a

>  <HIPPO Compound ID>  (1991) 
441126

>  <tags>  (1991) 
openbind_a71ev2a_c2_elabs,syndirella_product,openbind_a71ev2a_c2_elabs_fragonly_scored_top80percent,openbind_a71ev2a_c2_elabs_scored,BulkDock Fragalysis export,openbind_a71ev2a_c2_elabs_scored_top80percent,openbind_a71ev2a_c2_elabs_activefrags_only_scored_5.2plus,syndirella_placed

>  <smina_score_min>  (1991) 
-6.487

$$$$
P585979
     RDKit          3D

 21 23  0  0  0  0  0  0  0  0999 V2000
   12.5150   14.5431   21.0740 C   0  0  0  0  0  0  0  0  0  0  0  0
   11.1352   15.0965   21.3474 C   0  0  1  0  0  0  0  0  0  0  0  0
   10.4065   15.5446   20.0814 C   0  0  0  0  0  0  0  0  0  0  0  0
    9.4267   16.9941   20.4159 Cl  0  0  0  0  0  0  0  0  0  0  0  0
   10.3992   14.0751   22.0507 N   0  0  0  0  0  0  0  0  0  0  0  0
   10.1266   13.8971   23.5443 C   0  0  0  0  0  0  0  0  0  0  0  0
   10.3850   14.5857   24.4460 O   0  0  0  0  0  0  0  0  0  0  0  0
    9.4104   12.6347   23.8088 C   0  0  0  0  0  0  0  0  0  0  0  0
    9.8161   11.4151   23.2630 C   0  0  0  0  0  0  0  0  0  0  0  0
    9.1945   10.2311   23.6382 C   0  0  0  0  0  0  0  0  0  0  0  0
    8.1649   10.2488   24.5885 C   0  0  0  0  0  0  0  0  0  0  0  0
    7.7156   11.4711   25.1305 C   0  0  0  0  0  0  0  0  0  0  0  0
    6.7261   11.8557   26.0951 C   0  0  0  0  0  0  0  0  0  0  0  0
    6.7291   13.2383   26.1521 C   0  0  0  0  0  0  0  0  0  0  0  0
    7.7236   13.6915   25.3314 N   0  0  0  0  0  0  0  0  0  0  0  0
    8.3424   12.6370   24.7068 C   0  0  0  0  0  0  0  0  0  0  0  0
    5.8511   14.1817   26.9021 C   0  0  0  0  0  0  0  0  0  0  0  0
    5.7742   13.8569   28.3917 C   0  0  0  0  0  0  0  0  0  0  0  0
    4.9899   12.5818   28.7124 C   0  0  0  0  0  0  0  0  0  0  0  0
    5.7230   11.2821   28.3689 C   0  0  0  0  0  0  0  0  0  0  0  0
    5.8075   10.9740   26.8721 C   0  0  0  0  0  0  0  0  0  0  0  0
  2  1  1  6
  2  3  1  0
  3  4  1  0
  2  5  1  0
  5  6  1  0
  6  7  2  0
  6  8  1  0
  8  9  2  0
  9 10  1  0
 10 11  2  0
 11 12  1  0
 12 13  1  0
 13 14  2  0
 14 15  1  0
 15 16  1  0
 14 17  1  0
 17 18  1  0
 18 19  1  0
 19 20  1  0
 20 21  1  0
 16  8  1  0
 16 12  2  0
 21 13  1  0
M  END
>  <alias>  (1992) 
None

>  <rmsd(smina/fragmenstein)>  (1992) 
0.382

>  <smiles>  (1992) 
C[C@@H](CCl)NC(=O)c1cccc2c3c([nH]c12)CCCCC3

>  <gnina_score>  (1992) 
5.751

>  <inspiration_score>  (1992) 
None

>  <energy_score>  (1992) 
-48.632458

>  <distance_score>  (1992) 
1.087017

>  <gnina_score_min>  (1992) 
5.766

>  <inchikey>  (1992) 
OLHCWAMSMFOZGJ-NSHDSACASA-N

>  <exports>  (1992) 
['/opt/xchem-fragalysis-2/maxwin/BulkDock/OUTPUTS/openbind_a71ev2a_c2_elabs_1LOUU54.sdf', '/opt/xchem-fragalysis-2/maxwin/BulkDock/OUTPUTS/openbind_a71ev2a_c2_elabs_1LSYIDY.sdf']

>  <name>  (1992) 
P585979

>  <ref_pdb>  (1992) 
A0566a

>  <subsites>  (1992) 
None

>  <HIPPO Pose ID>  (1992) 
585979

>  <ref_mols>  (1992) 
A0566a

>  <HIPPO Compound ID>  (1992) 
441127

>  <tags>  (1992) 
openbind_a71ev2a_c2_elabs,syndirella_product,openbind_a71ev2a_c2_elabs_fragonly_scored_top80percent,BulkDock Fragalysis export,openbind_a71ev2a_c2_elabs_scored,openbind_a71ev2a_c2_elabs_scored_top80percent,openbind_a71ev2a_c2_elabs_activefrags_only_scored_5.2plus,openbind_a71ev2a_c2_elabs_activefrags_only_scored_5.5plus,syndirella_placed

>  <smina_score_min>  (1992) 
-7.273

$$$$
P585981
     RDKit          3D

 21 23  0  0  0  0  0  0  0  0999 V2000
   12.4504   14.3631   19.9092 C   0  0  0  0  0  0  0  0  0  0  0  0
   11.5451   14.8104   20.5427 C   0  0  0  0  0  0  0  0  0  0  0  0
   10.5035   15.3105   21.4068 C   0  0  1  0  0  0  0  0  0  0  0  0
    9.4147   16.0127   20.6219 C   0  0  0  0  0  0  0  0  0  0  0  0
    9.9932   14.1843   22.1175 N   0  0  0  0  0  0  0  0  0  0  0  0
    9.7169   13.9927   23.6041 C   0  0  0  0  0  0  0  0  0  0  0  0
    9.7866   14.7452   24.4870 O   0  0  0  0  0  0  0  0  0  0  0  0
    9.1916   12.6417   23.8819 C   0  0  0  0  0  0  0  0  0  0  0  0
    9.6999   11.4763   23.3041 C   0  0  0  0  0  0  0  0  0  0  0  0
    9.1689   10.2388   23.6503 C   0  0  0  0  0  0  0  0  0  0  0  0
    8.1403   10.1501   24.6029 C   0  0  0  0  0  0  0  0  0  0  0  0
    7.6188   11.3128   25.2064 C   0  0  0  0  0  0  0  0  0  0  0  0
    6.6472   11.5924   26.2304 C   0  0  0  0  0  0  0  0  0  0  0  0
    6.6552   12.9655   26.4264 C   0  0  0  0  0  0  0  0  0  0  0  0
    7.5096   13.5164   25.5151 N   0  0  0  0  0  0  0  0  0  0  0  0
    8.1571   12.5290   24.8136 C   0  0  0  0  0  0  0  0  0  0  0  0
    5.9511   13.8164   27.4331 C   0  0  0  0  0  0  0  0  0  0  0  0
    5.9848   13.1627   28.8144 C   0  0  0  0  0  0  0  0  0  0  0  0
    4.9843   12.0188   29.0036 C   0  0  0  0  0  0  0  0  0  0  0  0
    4.6434   11.1856   27.7655 C   0  0  0  0  0  0  0  0  0  0  0  0
    5.8442   10.6000   27.0197 C   0  0  0  0  0  0  0  0  0  0  0  0
  1  2  3  0
  2  3  1  0
  3  4  1  6
  3  5  1  0
  5  6  1  0
  6  7  2  0
  6  8  1  0
  8  9  2  0
  9 10  1  0
 10 11  2  0
 11 12  1  0
 12 13  1  0
 13 14  2  0
 14 15  1  0
 15 16  1  0
 14 17  1  0
 17 18  1  0
 18 19  1  0
 19 20  1  0
 20 21  1  0
 16  8  1  0
 16 12  2  0
 21 13  1  0
M  END
>  <alias>  (1993) 
None

>  <rmsd(smina/fragmenstein)>  (1993) 
0.935

>  <smiles>  (1993) 
C#C[C@@H](C)NC(=O)c1cccc2c3c([nH]c12)CCCCC3

>  <gnina_score>  (1993) 
5.267

>  <inspiration_score>  (1993) 
None

>  <energy_score>  (1993) 
-28.024716

>  <distance_score>  (1993) 
1.352708

>  <gnina_score_min>  (1993) 
5.524

>  <inchikey>  (1993) 
IYFWYWZPAYFUSB-GFCCVEGCSA-N

>  <exports>  (1993) 
['/opt/xchem-fragalysis-2/maxwin/BulkDock/OUTPUTS/openbind_a71ev2a_c2_elabs_1LOUU54.sdf', '/opt/xchem-fragalysis-2/maxwin/BulkDock/OUTPUTS/openbind_a71ev2a_c2_elabs_1LSYIDY.sdf']

>  <name>  (1993) 
P585981

>  <ref_pdb>  (1993) 
A0566a

>  <subsites>  (1993) 
None

>  <HIPPO Pose ID>  (1993) 
585981

>  <ref_mols>  (1993) 
A0566a

>  <HIPPO Compound ID>  (1993) 
441129

>  <tags>  (1993) 
openbind_a71ev2a_c2_elabs,syndirella_product,openbind_a71ev2a_c2_elabs_fragonly_scored_top80percent,BulkDock Fragalysis export,openbind_a71ev2a_c2_elabs_scored,openbind_a71ev2a_c2_elabs_scored_top80percent,openbind_a71ev2a_c2_elabs_activefrags_only_scored_5.2plus,openbind_a71ev2a_c2_elabs_activefrags_only_scored_5.5plus,syndirella_placed

>  <smina_score_min>  (1993) 
-6.619

$$$$
P585983
     RDKit          3D

 21 23  0  0  0  0  0  0  0  0999 V2000
   10.4685   15.5780   17.7421 C   0  0  0  0  0  0  0  0  0  0  0  0
   10.3053   15.6348   18.9300 C   0  0  0  0  0  0  0  0  0  0  0  0
   10.1194   15.7475   20.3837 C   0  0  0  0  0  0  0  0  0  0  0  0
   11.2418   15.0361   21.1482 C   0  0  0  0  0  0  0  0  0  0  0  0
   10.7049   13.9355   21.9031 N   0  0  0  0  0  0  0  0  0  0  0  0
   10.2673   13.8528   23.3705 C   0  0  0  0  0  0  0  0  0  0  0  0
   10.3419   14.6396   24.2267 O   0  0  0  0  0  0  0  0  0  0  0  0
    9.5528   12.5907   23.6873 C   0  0  0  0  0  0  0  0  0  0  0  0
    9.9099   11.3428   23.1806 C   0  0  0  0  0  0  0  0  0  0  0  0
    9.2577   10.1850   23.5893 C   0  0  0  0  0  0  0  0  0  0  0  0
    8.2287   10.2521   24.5353 C   0  0  0  0  0  0  0  0  0  0  0  0
    7.8119   11.5006   25.0371 C   0  0  0  0  0  0  0  0  0  0  0  0
    6.8194   11.9372   25.9770 C   0  0  0  0  0  0  0  0  0  0  0  0
    6.8553   13.3200   25.9920 C   0  0  0  0  0  0  0  0  0  0  0  0
    7.8731   13.7216   25.1735 N   0  0  0  0  0  0  0  0  0  0  0  0
    8.4757   12.6354   24.5841 C   0  0  0  0  0  0  0  0  0  0  0  0
    5.9899   14.3093   26.6957 C   0  0  0  0  0  0  0  0  0  0  0  0
    5.8722   14.0316   28.1919 C   0  0  0  0  0  0  0  0  0  0  0  0
    5.0500   12.7857   28.5321 C   0  0  0  0  0  0  0  0  0  0  0  0
    5.7608   11.4602   28.2462 C   0  0  0  0  0  0  0  0  0  0  0  0
    5.8672   11.1000   26.7624 C   0  0  0  0  0  0  0  0  0  0  0  0
  1  2  3  0
  2  3  1  0
  3  4  1  0
  4  5  1  0
  5  6  1  0
  6  7  2  0
  6  8  1  0
  8  9  2  0
  9 10  1  0
 10 11  2  0
 11 12  1  0
 12 13  1  0
 13 14  2  0
 14 15  1  0
 15 16  1  0
 14 17  1  0
 17 18  1  0
 18 19  1  0
 19 20  1  0
 20 21  1  0
 16  8  1  0
 16 12  2  0
 21 13  1  0
M  END
>  <alias>  (1994) 
None

>  <rmsd(smina/fragmenstein)>  (1994) 
0.654

>  <smiles>  (1994) 
C#CCCNC(=O)c1cccc2c3c([nH]c12)CCCCC3

>  <gnina_score>  (1994) 
5.399

>  <inspiration_score>  (1994) 
None

>  <energy_score>  (1994) 
-14.681356

>  <distance_score>  (1994) 
1.035763

>  <gnina_score_min>  (1994) 
5.575

>  <inchikey>  (1994) 
HYDZQRRLWCDQMB-UHFFFAOYSA-N

>  <exports>  (1994) 
['/opt/xchem-fragalysis-2/maxwin/BulkDock/OUTPUTS/openbind_a71ev2a_c2_elabs_1LOUU54.sdf', '/opt/xchem-fragalysis-2/maxwin/BulkDock/OUTPUTS/openbind_a71ev2a_c2_elabs_1LSYIDY.sdf']

>  <name>  (1994) 
P585983

>  <ref_pdb>  (1994) 
A0566a

>  <subsites>  (1994) 
None

>  <HIPPO Pose ID>  (1994) 
585983

>  <ref_mols>  (1994) 
A0566a

>  <HIPPO Compound ID>  (1994) 
441131

>  <tags>  (1994) 
openbind_a71ev2a_c2_elabs,syndirella_product,openbind_a71ev2a_c2_elabs_fragonly_scored_top80percent,BulkDock Fragalysis export,openbind_a71ev2a_c2_elabs_scored,openbind_a71ev2a_c2_elabs_scored_top80percent,openbind_a71ev2a_c2_elabs_activefrags_only_scored_5.2plus,openbind_a71ev2a_c2_elabs_activefrags_only_scored_5.5plus,syndirella_placed

>  <smina_score_min>  (1994) 
-6.657

$$$$
P585986
     RDKit          3D

 21 23  0  0  0  0  0  0  0  0999 V2000
   10.4681   15.3593   18.9367 N   0  0  0  0  0  0  0  0  0  0  0  0
   11.3048   14.9349   19.6194 C   0  0  0  0  0  0  0  0  0  0  0  0
   12.3631   14.4526   20.5060 C   0  0  0  0  0  0  0  0  0  0  0  0
   12.0284   14.7248   21.9489 C   0  0  0  0  0  0  0  0  0  0  0  0
   11.0115   13.8461   22.4350 N   0  0  0  0  0  0  0  0  0  0  0  0
   10.3072   13.7957   23.7893 C   0  0  0  0  0  0  0  0  0  0  0  0
   10.3829   14.5081   24.7062 O   0  0  0  0  0  0  0  0  0  0  0  0
    9.4530   12.5837   23.9182 C   0  0  0  0  0  0  0  0  0  0  0  0
    9.7815   11.3448   23.3525 C   0  0  0  0  0  0  0  0  0  0  0  0
    9.0910   10.1917   23.7008 C   0  0  0  0  0  0  0  0  0  0  0  0
    8.0586   10.2494   24.6412 C   0  0  0  0  0  0  0  0  0  0  0  0
    7.6570   11.4887   25.1755 C   0  0  0  0  0  0  0  0  0  0  0  0
    6.6784   11.9064   26.1354 C   0  0  0  0  0  0  0  0  0  0  0  0
    6.7480   13.2851   26.2140 C   0  0  0  0  0  0  0  0  0  0  0  0
    7.7666   13.7011   25.4046 N   0  0  0  0  0  0  0  0  0  0  0  0
    8.3485   12.6269   24.7750 C   0  0  0  0  0  0  0  0  0  0  0  0
    5.9219   14.2524   26.9914 C   0  0  0  0  0  0  0  0  0  0  0  0
    5.8645   13.9080   28.4783 C   0  0  0  0  0  0  0  0  0  0  0  0
    5.0321   12.6636   28.8005 C   0  0  0  0  0  0  0  0  0  0  0  0
    5.6882   11.3355   28.4105 C   0  0  0  0  0  0  0  0  0  0  0  0
    5.7213   11.0600   26.9052 C   0  0  0  0  0  0  0  0  0  0  0  0
  1  2  3  0
  2  3  1  0
  3  4  1  0
  4  5  1  0
  5  6  1  0
  6  7  2  0
  6  8  1  0
  8  9  2  0
  9 10  1  0
 10 11  2  0
 11 12  1  0
 12 13  1  0
 13 14  2  0
 14 15  1  0
 15 16  1  0
 14 17  1  0
 17 18  1  0
 18 19  1  0
 19 20  1  0
 20 21  1  0
 16  8  1  0
 16 12  2  0
 21 13  1  0
M  END
>  <alias>  (1995) 
None

>  <rmsd(smina/fragmenstein)>  (1995) 
0.411

>  <smiles>  (1995) 
N#CCCNC(=O)c1cccc2c3c([nH]c12)CCCCC3

>  <gnina_score>  (1995) 
5.54

>  <inspiration_score>  (1995) 
None

>  <energy_score>  (1995) 
-35.887344

>  <distance_score>  (1995) 
1.028579

>  <gnina_score_min>  (1995) 
5.67

>  <inchikey>  (1995) 
UWKZCCRTTCWYDH-UHFFFAOYSA-N

>  <exports>  (1995) 
['/opt/xchem-fragalysis-2/maxwin/BulkDock/OUTPUTS/openbind_a71ev2a_c2_elabs_1LOUU54.sdf', '/opt/xchem-fragalysis-2/maxwin/BulkDock/OUTPUTS/openbind_a71ev2a_c2_elabs_1LSYIDY.sdf']

>  <name>  (1995) 
P585986

>  <ref_pdb>  (1995) 
A0566a

>  <subsites>  (1995) 
None

>  <HIPPO Pose ID>  (1995) 
585986

>  <ref_mols>  (1995) 
A0566a

>  <HIPPO Compound ID>  (1995) 
441133

>  <tags>  (1995) 
openbind_a71ev2a_c2_elabs,syndirella_product,openbind_a71ev2a_c2_elabs_fragonly_scored_top80percent,BulkDock Fragalysis export,openbind_a71ev2a_c2_elabs_scored,openbind_a71ev2a_c2_elabs_scored_top80percent,openbind_a71ev2a_c2_elabs_activefrags_only_scored_5.2plus,openbind_a71ev2a_c2_elabs_activefrags_only_scored_5.5plus,syndirella_placed

>  <smina_score_min>  (1995) 
-6.327

$$$$
P585988
     RDKit          3D

 21 23  0  0  0  0  0  0  0  0999 V2000
   12.3807   14.0774   20.1962 C   0  0  0  0  0  0  0  0  0  0  0  0
   11.9467   15.2123   21.0752 C   0  0  1  0  0  0  0  0  0  0  0  0
   10.2863   15.7304   20.6378 Cl  0  0  0  0  0  0  0  0  0  0  0  0
   12.0475   14.9974   22.5532 C   0  0  0  0  0  0  0  0  0  0  0  0
   11.0647   14.0920   23.0057 N   0  0  0  0  0  0  0  0  0  0  0  0
   11.1961   12.8225   23.7938 C   0  0  0  0  0  0  0  0  0  0  0  0
   12.1230   12.3332   24.2773 O   0  0  0  0  0  0  0  0  0  0  0  0
    9.8834   12.1697   23.8839 C   0  0  0  0  0  0  0  0  0  0  0  0
    9.7573   10.8759   23.4011 C   0  0  0  0  0  0  0  0  0  0  0  0
    8.7136   10.0917   23.8358 C   0  0  0  0  0  0  0  0  0  0  0  0
    7.7510   10.5910   24.7172 C   0  0  0  0  0  0  0  0  0  0  0  0
    7.7665   11.9520   25.0645 C   0  0  0  0  0  0  0  0  0  0  0  0
    6.9346   12.7876   25.8713 C   0  0  0  0  0  0  0  0  0  0  0  0
    7.5222   14.0392   25.8936 C   0  0  0  0  0  0  0  0  0  0  0  0
    8.6657   13.9863   25.1422 N   0  0  0  0  0  0  0  0  0  0  0  0
    8.8389   12.7271   24.6275 C   0  0  0  0  0  0  0  0  0  0  0  0
    7.1050   15.2848   26.5977 C   0  0  0  0  0  0  0  0  0  0  0  0
    5.6544   15.6621   26.3130 C   0  0  0  0  0  0  0  0  0  0  0  0
    4.6335   14.7377   26.9807 C   0  0  0  0  0  0  0  0  0  0  0  0
    4.5097   13.3507   26.3446 C   0  0  0  0  0  0  0  0  0  0  0  0
    5.6889   12.4103   26.6030 C   0  0  0  0  0  0  0  0  0  0  0  0
  2  1  1  6
  2  3  1  0
  2  4  1  0
  4  5  1  0
  5  6  1  0
  6  7  2  0
  6  8  1  0
  8  9  2  0
  9 10  1  0
 10 11  2  0
 11 12  1  0
 12 13  1  0
 13 14  2  0
 14 15  1  0
 15 16  1  0
 14 17  1  0
 17 18  1  0
 18 19  1  0
 19 20  1  0
 20 21  1  0
 16  8  1  0
 16 12  2  0
 21 13  1  0
M  END
>  <alias>  (1996) 
None

>  <rmsd(smina/fragmenstein)>  (1996) 
0.679

>  <smiles>  (1996) 
C[C@@H](Cl)CNC(=O)c1cccc2c3c([nH]c12)CCCCC3

>  <gnina_score>  (1996) 
5.495

>  <inspiration_score>  (1996) 
None

>  <energy_score>  (1996) 
-10.584677

>  <distance_score>  (1996) 
1.02298

>  <gnina_score_min>  (1996) 
5.717

>  <inchikey>  (1996) 
SXRJUXSIHPEAEZ-LLVKDONJSA-N

>  <exports>  (1996) 
['/opt/xchem-fragalysis-2/maxwin/BulkDock/OUTPUTS/openbind_a71ev2a_c2_elabs_1LOUU54.sdf', '/opt/xchem-fragalysis-2/maxwin/BulkDock/OUTPUTS/openbind_a71ev2a_c2_elabs_1LSYIDY.sdf']

>  <name>  (1996) 
P585988

>  <ref_pdb>  (1996) 
A0566a

>  <subsites>  (1996) 
None

>  <HIPPO Pose ID>  (1996) 
585988

>  <ref_mols>  (1996) 
A0566a

>  <HIPPO Compound ID>  (1996) 
441137

>  <tags>  (1996) 
openbind_a71ev2a_c2_elabs,syndirella_product,openbind_a71ev2a_c2_elabs_fragonly_scored_top80percent,BulkDock Fragalysis export,openbind_a71ev2a_c2_elabs_scored,openbind_a71ev2a_c2_elabs_scored_top80percent,openbind_a71ev2a_c2_elabs_activefrags_only_scored_5.2plus,openbind_a71ev2a_c2_elabs_activefrags_only_scored_5.5plus,syndirella_placed

>  <smina_score_min>  (1996) 
-7.009

$$$$
P585989
     RDKit          3D

 21 23  0  0  0  0  0  0  0  0999 V2000
   12.0585   16.1386   22.2600 C   0  0  0  0  0  0  0  0  0  0  0  0
   12.5240   14.9380   21.9917 C   0  0  0  0  0  0  0  0  0  0  0  0
   11.7919   14.1125   21.0392 C   0  0  2  0  0  0  0  0  0  0  0  0
   11.0454   14.7777   19.8828 C   0  0  0  0  0  0  0  0  0  0  0  0
   10.9055   13.2945   21.8208 N   0  0  0  0  0  0  0  0  0  0  0  0
   10.1172   13.6155   23.1041 C   0  0  0  0  0  0  0  0  0  0  0  0
   10.0007   14.6184   23.6898 O   0  0  0  0  0  0  0  0  0  0  0  0
    9.3958   12.4121   23.6158 C   0  0  0  0  0  0  0  0  0  0  0  0
    9.7271   11.0963   23.2712 C   0  0  0  0  0  0  0  0  0  0  0  0
    9.0535   10.0108   23.8022 C   0  0  0  0  0  0  0  0  0  0  0  0
    8.0355   10.2012   24.7329 C   0  0  0  0  0  0  0  0  0  0  0  0
    7.6784   11.5049   25.1179 C   0  0  0  0  0  0  0  0  0  0  0  0
    6.7463   12.0459   26.0575 C   0  0  0  0  0  0  0  0  0  0  0  0
    6.8358   13.4254   25.9710 C   0  0  0  0  0  0  0  0  0  0  0  0
    7.7981   13.7240   25.0460 N   0  0  0  0  0  0  0  0  0  0  0  0
    8.3529   12.5735   24.5373 C   0  0  0  0  0  0  0  0  0  0  0  0
    6.0967   14.5057   26.6939 C   0  0  0  0  0  0  0  0  0  0  0  0
    4.6950   14.0698   27.1169 C   0  0  0  0  0  0  0  0  0  0  0  0
    4.6567   13.1253   28.3237 C   0  0  0  0  0  0  0  0  0  0  0  0
    5.6603   11.9662   28.3339 C   0  0  0  0  0  0  0  0  0  0  0  0
    5.8472   11.2832   26.9788 C   0  0  0  0  0  0  0  0  0  0  0  0
  1  2  2  0
  2  3  1  0
  3  4  1  6
  3  5  1  0
  5  6  1  0
  6  7  2  0
  6  8  1  0
  8  9  2  0
  9 10  1  0
 10 11  2  0
 11 12  1  0
 12 13  1  0
 13 14  2  0
 14 15  1  0
 15 16  1  0
 14 17  1  0
 17 18  1  0
 18 19  1  0
 19 20  1  0
 20 21  1  0
 16  8  1  0
 16 12  2  0
 21 13  1  0
M  END
>  <alias>  (1997) 
None

>  <rmsd(smina/fragmenstein)>  (1997) 
0.809

>  <smiles>  (1997) 
C=C[C@H](C)NC(=O)c1cccc2c3c([nH]c12)CCCCC3

>  <gnina_score>  (1997) 
5.452

>  <inspiration_score>  (1997) 
None

>  <energy_score>  (1997) 
-18.018344

>  <distance_score>  (1997) 
1.2742

>  <gnina_score_min>  (1997) 
5.594

>  <inchikey>  (1997) 
KQHYLHZBJLMFMF-LBPRGKRZSA-N

>  <exports>  (1997) 
['/opt/xchem-fragalysis-2/maxwin/BulkDock/OUTPUTS/openbind_a71ev2a_c2_elabs_1LOUU54.sdf', '/opt/xchem-fragalysis-2/maxwin/BulkDock/OUTPUTS/openbind_a71ev2a_c2_elabs_1LSYIDY.sdf']

>  <name>  (1997) 
P585989

>  <ref_pdb>  (1997) 
A0566a

>  <subsites>  (1997) 
None

>  <HIPPO Pose ID>  (1997) 
585989

>  <ref_mols>  (1997) 
A0566a

>  <HIPPO Compound ID>  (1997) 
441138

>  <tags>  (1997) 
openbind_a71ev2a_c2_elabs,syndirella_product,openbind_a71ev2a_c2_elabs_fragonly_scored_top80percent,BulkDock Fragalysis export,openbind_a71ev2a_c2_elabs_scored,openbind_a71ev2a_c2_elabs_scored_top80percent,openbind_a71ev2a_c2_elabs_activefrags_only_scored_5.2plus,openbind_a71ev2a_c2_elabs_activefrags_only_scored_5.5plus,syndirella_placed

>  <smina_score_min>  (1997) 
-6.521

$$$$
P585991
     RDKit          3D

 21 23  0  0  0  0  0  0  0  0999 V2000
   12.0381   14.5103   19.5505 C   0  0  0  0  0  0  0  0  0  0  0  0
   11.5812   14.9196   20.7345 C   0  0  0  0  0  0  0  0  0  0  0  0
   12.6543   15.0608   22.0792 Cl  0  0  0  0  0  0  0  0  0  0  0  0
   10.1537   15.2025   21.0285 C   0  0  0  0  0  0  0  0  0  0  0  0
    9.7481   14.1158   21.8591 N   0  0  0  0  0  0  0  0  0  0  0  0
    9.4966   14.0566   23.3645 C   0  0  0  0  0  0  0  0  0  0  0  0
    9.5038   14.9007   24.1642 O   0  0  0  0  0  0  0  0  0  0  0  0
    9.1013   12.6962   23.7800 C   0  0  0  0  0  0  0  0  0  0  0  0
    9.6785   11.5276   23.2739 C   0  0  0  0  0  0  0  0  0  0  0  0
    9.2028   10.2836   23.6716 C   0  0  0  0  0  0  0  0  0  0  0  0
    8.1757   10.1927   24.6232 C   0  0  0  0  0  0  0  0  0  0  0  0
    7.6184   11.3583   25.1885 C   0  0  0  0  0  0  0  0  0  0  0  0
    6.6372   11.6422   26.1965 C   0  0  0  0  0  0  0  0  0  0  0  0
    6.5384   13.0208   26.3006 C   0  0  0  0  0  0  0  0  0  0  0  0
    7.4023   13.5674   25.3964 N   0  0  0  0  0  0  0  0  0  0  0  0
    8.0944   12.5802   24.7386 C   0  0  0  0  0  0  0  0  0  0  0  0
    5.7092   13.8893   27.1928 C   0  0  0  0  0  0  0  0  0  0  0  0
    4.3845   13.2387   27.5819 C   0  0  0  0  0  0  0  0  0  0  0  0
    4.4980   12.1306   28.6342 C   0  0  0  0  0  0  0  0  0  0  0  0
    5.6430   11.1258   28.4646 C   0  0  0  0  0  0  0  0  0  0  0  0
    5.8659   10.6653   27.0239 C   0  0  0  0  0  0  0  0  0  0  0  0
  1  2  2  0
  2  3  1  0
  2  4  1  0
  4  5  1  0
  5  6  1  0
  6  7  2  0
  6  8  1  0
  8  9  2  0
  9 10  1  0
 10 11  2  0
 11 12  1  0
 12 13  1  0
 13 14  2  0
 14 15  1  0
 15 16  1  0
 14 17  1  0
 17 18  1  0
 18 19  1  0
 19 20  1  0
 20 21  1  0
 16  8  1  0
 16 12  2  0
 21 13  1  0
M  END
>  <alias>  (1998) 
None

>  <rmsd(smina/fragmenstein)>  (1998) 
0.429

>  <smiles>  (1998) 
C=C(Cl)CNC(=O)c1cccc2c3c([nH]c12)CCCCC3

>  <gnina_score>  (1998) 
5.395

>  <inspiration_score>  (1998) 
None

>  <energy_score>  (1998) 
-2.07219

>  <distance_score>  (1998) 
1.514573

>  <gnina_score_min>  (1998) 
5.63

>  <inchikey>  (1998) 
MXDLMEDFEVRIJT-UHFFFAOYSA-N

>  <exports>  (1998) 
['/opt/xchem-fragalysis-2/maxwin/BulkDock/OUTPUTS/openbind_a71ev2a_c2_elabs_1LOUU54.sdf', '/opt/xchem-fragalysis-2/maxwin/BulkDock/OUTPUTS/openbind_a71ev2a_c2_elabs_1LSYIDY.sdf']

>  <name>  (1998) 
P585991

>  <ref_pdb>  (1998) 
A0566a

>  <subsites>  (1998) 
None

>  <HIPPO Pose ID>  (1998) 
585991

>  <ref_mols>  (1998) 
A0566a

>  <HIPPO Compound ID>  (1998) 
441140

>  <tags>  (1998) 
openbind_a71ev2a_c2_elabs,syndirella_product,openbind_a71ev2a_c2_elabs_fragonly_scored_top80percent,BulkDock Fragalysis export,openbind_a71ev2a_c2_elabs_scored,openbind_a71ev2a_c2_elabs_scored_top80percent,openbind_a71ev2a_c2_elabs_activefrags_only_scored_5.2plus,openbind_a71ev2a_c2_elabs_activefrags_only_scored_5.5plus,syndirella_placed

>  <smina_score_min>  (1998) 
-6.774

$$$$
P585992
     RDKit          3D

 21 23  0  0  0  0  0  0  0  0999 V2000
    9.8899   16.1568   19.9348 C   0  0  0  0  0  0  0  0  0  0  0  0
   10.8242   15.1981   19.9044 C   0  0  0  0  0  0  0  0  0  0  0  0
   11.0568   14.5908   18.7192 F   0  0  0  0  0  0  0  0  0  0  0  0
   11.6519   14.7839   21.0810 C   0  0  0  0  0  0  0  0  0  0  0  0
   10.8709   13.8541   21.8343 N   0  0  0  0  0  0  0  0  0  0  0  0
   10.5317   13.8188   23.3255 C   0  0  0  0  0  0  0  0  0  0  0  0
   10.7685   14.5824   24.1723 O   0  0  0  0  0  0  0  0  0  0  0  0
    9.6815   12.6477   23.6742 C   0  0  0  0  0  0  0  0  0  0  0  0
    9.8858   11.3594   23.1814 C   0  0  0  0  0  0  0  0  0  0  0  0
    9.1205   10.2869   23.6280 C   0  0  0  0  0  0  0  0  0  0  0  0
    8.1166   10.4814   24.5843 C   0  0  0  0  0  0  0  0  0  0  0  0
    7.8519   11.7777   25.0693 C   0  0  0  0  0  0  0  0  0  0  0  0
    6.9598   12.3334   26.0511 C   0  0  0  0  0  0  0  0  0  0  0  0
    7.2607   13.6823   26.1545 C   0  0  0  0  0  0  0  0  0  0  0  0
    8.2094   13.9678   25.2137 N   0  0  0  0  0  0  0  0  0  0  0  0
    8.6406   12.8210   24.5951 C   0  0  0  0  0  0  0  0  0  0  0  0
    6.7906   14.7379   27.0991 C   0  0  0  0  0  0  0  0  0  0  0  0
    5.2782   14.7984   27.2559 C   0  0  0  0  0  0  0  0  0  0  0  0
    4.6846   13.5757   27.9551 C   0  0  0  0  0  0  0  0  0  0  0  0
    4.6362   12.3337   27.0666 C   0  0  0  0  0  0  0  0  0  0  0  0
    5.9666   11.6016   26.8943 C   0  0  0  0  0  0  0  0  0  0  0  0
  1  2  2  0
  2  3  1  0
  2  4  1  0
  4  5  1  0
  5  6  1  0
  6  7  2  0
  6  8  1  0
  8  9  2  0
  9 10  1  0
 10 11  2  0
 11 12  1  0
 12 13  1  0
 13 14  2  0
 14 15  1  0
 15 16  1  0
 14 17  1  0
 17 18  1  0
 18 19  1  0
 19 20  1  0
 20 21  1  0
 16  8  1  0
 16 12  2  0
 21 13  1  0
M  END
>  <alias>  (1999) 
None

>  <rmsd(smina/fragmenstein)>  (1999) 
0.675

>  <smiles>  (1999) 
C=C(F)CNC(=O)c1cccc2c3c([nH]c12)CCCCC3

>  <gnina_score>  (1999) 
5.608

>  <inspiration_score>  (1999) 
None

>  <energy_score>  (1999) 
-20.632992

>  <distance_score>  (1999) 
1.017175

>  <gnina_score_min>  (1999) 
5.682

>  <inchikey>  (1999) 
BZARCNCGZBKKSN-UHFFFAOYSA-N

>  <exports>  (1999) 
['/opt/xchem-fragalysis-2/maxwin/BulkDock/OUTPUTS/openbind_a71ev2a_c2_elabs_1LOUU54.sdf', '/opt/xchem-fragalysis-2/maxwin/BulkDock/OUTPUTS/openbind_a71ev2a_c2_elabs_1LSYIDY.sdf']

>  <name>  (1999) 
P585992

>  <ref_pdb>  (1999) 
A0566a

>  <subsites>  (1999) 
None

>  <HIPPO Pose ID>  (1999) 
585992

>  <ref_mols>  (1999) 
A0566a

>  <HIPPO Compound ID>  (1999) 
441141

>  <tags>  (1999) 
openbind_a71ev2a_c2_elabs,syndirella_product,openbind_a71ev2a_c2_elabs_fragonly_scored_top80percent,BulkDock Fragalysis export,openbind_a71ev2a_c2_elabs_scored,openbind_a71ev2a_c2_elabs_scored_top80percent,openbind_a71ev2a_c2_elabs_activefrags_only_scored_5.2plus,openbind_a71ev2a_c2_elabs_activefrags_only_scored_5.5plus,syndirella_placed

>  <smina_score_min>  (1999) 
-7.351

$$$$
P585997
     RDKit          3D

 21 22  0  0  0  0  0  0  0  0999 V2000
    4.0636   13.0933   29.7150 C   0  0  0  0  0  0  0  0  0  0  0  0
    3.5314   12.8648   28.3129 C   0  0  0  0  0  0  0  0  0  0  0  0
    4.5614   12.3211   27.4760 O   0  0  0  0  0  0  0  0  0  0  0  0
    5.3637   13.2390   26.8660 C   0  0  0  0  0  0  0  0  0  0  0  0
    5.2755   14.4516   26.9941 O   0  0  0  0  0  0  0  0  0  0  0  0
    6.3558   12.5713   26.0632 C   0  0  0  0  0  0  0  0  0  0  0  0
    6.6455   11.2273   25.9045 C   0  0  0  0  0  0  0  0  0  0  0  0
    7.7185   11.1055   24.9857 C   0  0  0  0  0  0  0  0  0  0  0  0
    8.4092   10.0203   24.4251 C   0  0  0  0  0  0  0  0  0  0  0  0
    9.4641   10.2350   23.5384 C   0  0  0  0  0  0  0  0  0  0  0  0
    9.8227   11.5326   23.1972 C   0  0  0  0  0  0  0  0  0  0  0  0
    9.0893   12.6309   23.6669 C   0  0  0  0  0  0  0  0  0  0  0  0
    9.2902   14.0158   23.1811 C   0  0  0  0  0  0  0  0  0  0  0  0
    9.0897   14.8962   23.9163 O   0  0  0  0  0  0  0  0  0  0  0  0
    9.6529   14.0275   21.6883 N   0  0  0  0  0  0  0  0  0  0  0  0
    9.9388   15.1237   20.8061 C   0  0  0  0  0  0  0  0  0  0  0  0
   11.3412   14.9407   20.2520 C   0  0  0  0  0  0  0  0  0  0  0  0
   12.2739   15.0062   21.3801 C   0  0  0  0  0  0  0  0  0  0  0  0
   12.8887   15.0488   22.3619 N   0  0  0  0  0  0  0  0  0  0  0  0
    8.0719   12.3878   24.5954 C   0  0  0  0  0  0  0  0  0  0  0  0
    7.2308   13.2576   25.2520 N   0  0  0  0  0  0  0  0  0  0  0  0
  1  2  1  0
  2  3  1  0
  3  4  1  0
  4  5  2  0
  4  6  1  0
  6  7  2  0
  7  8  1  0
  8  9  2  0
  9 10  1  0
 10 11  2  0
 11 12  1  0
 12 13  1  0
 13 14  2  0
 13 15  1  0
 15 16  1  0
 16 17  1  0
 17 18  1  0
 18 19  3  0
 12 20  2  0
 20 21  1  0
 21  6  1  0
 20  8  1  0
M  END
>  <alias>  (2000) 
None

>  <rmsd(smina/fragmenstein)>  (2000) 
0.969

>  <smiles>  (2000) 
CCOC(=O)c1cc2cccc(C(=O)NCCC#N)c2[nH]1

>  <gnina_score>  (2000) 
5.155

>  <inspiration_score>  (2000) 
None

>  <energy_score>  (2000) 
-4.16584

>  <distance_score>  (2000) 
1.617756

>  <gnina_score_min>  (2000) 
5.223

>  <inchikey>  (2000) 
GBOPVJIYTFMBPU-UHFFFAOYSA-N

>  <exports>  (2000) 
['/opt/xchem-fragalysis-2/maxwin/BulkDock/OUTPUTS/openbind_a71ev2a_c2_elabs_1LOUU54.sdf', '/opt/xchem-fragalysis-2/maxwin/BulkDock/OUTPUTS/openbind_a71ev2a_c2_elabs_1LSYIDY.sdf']

>  <name>  (2000) 
P585997

>  <ref_pdb>  (2000) 
A0566a

>  <subsites>  (2000) 
None

>  <HIPPO Pose ID>  (2000) 
585997

>  <ref_mols>  (2000) 
A0566a

>  <HIPPO Compound ID>  (2000) 
441146

>  <tags>  (2000) 
openbind_a71ev2a_c2_elabs,syndirella_product,openbind_a71ev2a_c2_elabs_fragonly_scored_top80percent,openbind_a71ev2a_c2_elabs_scored,BulkDock Fragalysis export,openbind_a71ev2a_c2_elabs_scored_top80percent,openbind_a71ev2a_c2_elabs_activefrags_only_scored_5.2plus,syndirella_placed

>  <smina_score_min>  (2000) 
-5.653

$$$$
P586001
     RDKit          3D

 21 22  0  0  0  0  0  0  0  0999 V2000
    4.0421   16.5715   25.8491 C   0  0  0  0  0  0  0  0  0  0  0  0
    5.1216   16.2423   26.8619 C   0  0  0  0  0  0  0  0  0  0  0  0
    5.9943   15.2365   26.3293 O   0  0  0  0  0  0  0  0  0  0  0  0
    5.6475   13.9411   26.5603 C   0  0  0  0  0  0  0  0  0  0  0  0
    4.7008   13.5635   27.2373 O   0  0  0  0  0  0  0  0  0  0  0  0
    6.5827   13.0794   25.8803 C   0  0  0  0  0  0  0  0  0  0  0  0
    6.6401   11.6963   25.8527 C   0  0  0  0  0  0  0  0  0  0  0  0
    7.6967   11.3079   24.9879 C   0  0  0  0  0  0  0  0  0  0  0  0
    8.2029   10.0745   24.5463 C   0  0  0  0  0  0  0  0  0  0  0  0
    9.2607   10.0403   23.6371 C   0  0  0  0  0  0  0  0  0  0  0  0
    9.8316   11.2243   23.1941 C   0  0  0  0  0  0  0  0  0  0  0  0
    9.3587   12.4685   23.6194 C   0  0  0  0  0  0  0  0  0  0  0  0
    9.9533   13.7590   23.1985 C   0  0  0  0  0  0  0  0  0  0  0  0
    9.9135   14.6390   23.9595 O   0  0  0  0  0  0  0  0  0  0  0  0
   10.5026   13.7058   21.7667 N   0  0  0  0  0  0  0  0  0  0  0  0
   11.2076   14.6993   20.9961 C   0  0  1  0  0  0  0  0  0  0  0  0
   10.2398   15.7737   20.5288 C   0  0  0  0  0  0  0  0  0  0  0  0
   12.4541   15.1514   21.7484 C   0  0  0  0  0  0  0  0  0  0  0  0
   12.1443   15.9839   22.7688 F   0  0  0  0  0  0  0  0  0  0  0  0
    8.2859   12.4728   24.5170 C   0  0  0  0  0  0  0  0  0  0  0  0
    7.6109   13.5276   25.0851 N   0  0  0  0  0  0  0  0  0  0  0  0
  1  2  1  0
  2  3  1  0
  3  4  1  0
  4  5  2  0
  4  6  1  0
  6  7  2  0
  7  8  1  0
  8  9  2  0
  9 10  1  0
 10 11  2  0
 11 12  1  0
 12 13  1  0
 13 14  2  0
 13 15  1  0
 15 16  1  0
 16 17  1  1
 16 18  1  0
 18 19  1  0
 12 20  2  0
 20 21  1  0
 21  6  1  0
 20  8  1  0
M  END
>  <alias>  (2001) 
None

>  <rmsd(smina/fragmenstein)>  (2001) 
1.16

>  <smiles>  (2001) 
CCOC(=O)c1cc2cccc(C(=O)N[C@@H](C)CF)c2[nH]1

>  <gnina_score>  (2001) 
5.372

>  <inspiration_score>  (2001) 
None

>  <energy_score>  (2001) 
-6.240118

>  <distance_score>  (2001) 
1.214563

>  <gnina_score_min>  (2001) 
5.333

>  <inchikey>  (2001) 
XAEXJQMBMCSAQA-VIFPVBQESA-N

>  <exports>  (2001) 
['/opt/xchem-fragalysis-2/maxwin/BulkDock/OUTPUTS/openbind_a71ev2a_c2_elabs_1LOUU54.sdf', '/opt/xchem-fragalysis-2/maxwin/BulkDock/OUTPUTS/openbind_a71ev2a_c2_elabs_1LSYIDY.sdf']

>  <name>  (2001) 
P586001

>  <ref_pdb>  (2001) 
A0566a

>  <subsites>  (2001) 
None

>  <HIPPO Pose ID>  (2001) 
586001

>  <ref_mols>  (2001) 
A0566a

>  <HIPPO Compound ID>  (2001) 
441151

>  <tags>  (2001) 
openbind_a71ev2a_c2_elabs,syndirella_product,openbind_a71ev2a_c2_elabs_fragonly_scored_top80percent,openbind_a71ev2a_c2_elabs_scored,BulkDock Fragalysis export,openbind_a71ev2a_c2_elabs_scored_top80percent,openbind_a71ev2a_c2_elabs_activefrags_only_scored_5.2plus,syndirella_placed

>  <smina_score_min>  (2001) 
-6.181

$$$$
P586004
     RDKit          3D

 21 22  0  0  0  0  0  0  0  0999 V2000
   11.4786   14.8167   19.1231 C   0  0  0  0  0  0  0  0  0  0  0  0
   11.1922   15.0403   20.4100 C   0  0  0  0  0  0  0  0  0  0  0  0
   12.5008   14.9613   21.7516 Br  0  0  0  0  0  0  0  0  0  0  0  0
    9.8074   15.2926   20.9140 C   0  0  0  0  0  0  0  0  0  0  0  0
    9.5414   14.1717   21.7611 N   0  0  0  0  0  0  0  0  0  0  0  0
    9.0562   14.1136   23.2115 C   0  0  0  0  0  0  0  0  0  0  0  0
    8.7202   14.9651   23.9294 O   0  0  0  0  0  0  0  0  0  0  0  0
    8.9563   12.7084   23.6794 C   0  0  0  0  0  0  0  0  0  0  0  0
    9.7692   11.6642   23.2109 C   0  0  0  0  0  0  0  0  0  0  0  0
    9.4889   10.3426   23.5371 C   0  0  0  0  0  0  0  0  0  0  0  0
    8.4474   10.0516   24.4187 C   0  0  0  0  0  0  0  0  0  0  0  0
    7.6888   11.0856   24.9880 C   0  0  0  0  0  0  0  0  0  0  0  0
    6.6019   11.1361   25.8977 C   0  0  0  0  0  0  0  0  0  0  0  0
    6.1919   12.4529   26.0183 C   0  0  0  0  0  0  0  0  0  0  0  0
    5.0700   12.9852   26.7499 C   0  0  0  0  0  0  0  0  0  0  0  0
    4.2606   12.3191   27.3830 O   0  0  0  0  0  0  0  0  0  0  0  0
    5.0462   14.3392   26.6164 O   0  0  0  0  0  0  0  0  0  0  0  0
    3.9414   15.0163   27.2298 C   0  0  0  0  0  0  0  0  0  0  0  0
    2.7593   15.0480   26.2790 C   0  0  0  0  0  0  0  0  0  0  0  0
    7.0500   13.1995   25.2446 N   0  0  0  0  0  0  0  0  0  0  0  0
    7.9561   12.3884   24.6011 C   0  0  0  0  0  0  0  0  0  0  0  0
  1  2  2  0
  2  3  1  0
  2  4  1  0
  4  5  1  0
  5  6  1  0
  6  7  2  0
  6  8  1  0
  8  9  2  0
  9 10  1  0
 10 11  2  0
 11 12  1  0
 12 13  1  0
 13 14  2  0
 14 15  1  0
 15 16  2  0
 15 17  1  0
 17 18  1  0
 18 19  1  0
 14 20  1  0
 20 21  1  0
 21  8  1  0
 21 12  2  0
M  END
>  <alias>  (2002) 
None

>  <rmsd(smina/fragmenstein)>  (2002) 
0.67

>  <smiles>  (2002) 
C=C(Br)CNC(=O)c1cccc2cc(C(=O)OCC)[nH]c12

>  <gnina_score>  (2002) 
5.269

>  <inspiration_score>  (2002) 
None

>  <energy_score>  (2002) 
-10.30543

>  <distance_score>  (2002) 
1.741808

>  <gnina_score_min>  (2002) 
5.225

>  <inchikey>  (2002) 
BNXFEZHXTBCMLN-UHFFFAOYSA-N

>  <exports>  (2002) 
['/opt/xchem-fragalysis-2/maxwin/BulkDock/OUTPUTS/openbind_a71ev2a_c2_elabs_1LOUU54.sdf', '/opt/xchem-fragalysis-2/maxwin/BulkDock/OUTPUTS/openbind_a71ev2a_c2_elabs_1LSYIDY.sdf']

>  <name>  (2002) 
P586004

>  <ref_pdb>  (2002) 
A0566a

>  <subsites>  (2002) 
None

>  <HIPPO Pose ID>  (2002) 
586004

>  <ref_mols>  (2002) 
A0566a

>  <HIPPO Compound ID>  (2002) 
441153

>  <tags>  (2002) 
openbind_a71ev2a_c2_elabs,syndirella_product,openbind_a71ev2a_c2_elabs_fragonly_scored_top80percent,openbind_a71ev2a_c2_elabs_scored,BulkDock Fragalysis export,openbind_a71ev2a_c2_elabs_scored_top80percent,openbind_a71ev2a_c2_elabs_activefrags_only_scored_5.2plus,syndirella_placed

>  <smina_score_min>  (2002) 
-5.971

$$$$
P586006
     RDKit          3D

 21 23  0  0  0  0  0  0  0  0999 V2000
    3.2572   15.3297   27.3148 C   0  0  0  0  0  0  0  0  0  0  0  0
    4.1913   14.5519   28.2231 C   0  0  0  0  0  0  0  0  0  0  0  0
    5.0273   13.6842   27.4448 O   0  0  0  0  0  0  0  0  0  0  0  0
    6.1617   14.2515   26.9522 C   0  0  0  0  0  0  0  0  0  0  0  0
    6.5395   15.3957   27.1616 O   0  0  0  0  0  0  0  0  0  0  0  0
    6.8812   13.3020   26.1435 C   0  0  0  0  0  0  0  0  0  0  0  0
    6.6821   11.9506   25.9191 C   0  0  0  0  0  0  0  0  0  0  0  0
    7.6992   11.4891   25.0449 C   0  0  0  0  0  0  0  0  0  0  0  0
    8.0492   10.2285   24.5296 C   0  0  0  0  0  0  0  0  0  0  0  0
    9.0726   10.1211   23.5880 C   0  0  0  0  0  0  0  0  0  0  0  0
    9.8189   11.2367   23.2563 C   0  0  0  0  0  0  0  0  0  0  0  0
    9.6062   12.4614   23.8988 C   0  0  0  0  0  0  0  0  0  0  0  0
   10.7304   13.4109   23.9345 C   0  0  0  0  0  0  0  0  0  0  0  0
   11.1102   13.8150   24.9723 O   0  0  0  0  0  0  0  0  0  0  0  0
   11.2705   13.6235   22.5571 N   0  0  0  0  0  0  0  0  0  0  0  0
   12.5081   14.3274   22.0895 C   0  0  0  0  0  0  0  0  0  0  0  0
   11.8610   15.6317   22.3022 C   0  0  0  0  0  0  0  0  0  0  0  0
   10.6309   14.8837   21.8785 C   0  0  1  0  0  0  0  0  0  0  0  0
   10.2481   14.7258   20.4312 C   0  0  0  0  0  0  0  0  0  0  0  0
    8.4948   12.5867   24.7290 C   0  0  0  0  0  0  0  0  0  0  0  0
    7.9977   13.6611   25.4224 N   0  0  0  0  0  0  0  0  0  0  0  0
  1  2  1  0
  2  3  1  0
  3  4  1  0
  4  5  2  0
  4  6  1  0
  6  7  2  0
  7  8  1  0
  8  9  2  0
  9 10  1  0
 10 11  2  0
 11 12  1  0
 12 13  1  0
 13 14  2  0
 13 15  1  0
 15 16  1  0
 16 17  1  0
 17 18  1  0
 18 19  1  6
 12 20  2  0
 20 21  1  0
 21  6  1  0
 20  8  1  0
 18 15  1  0
M  END
>  <alias>  (2003) 
None

>  <rmsd(smina/fragmenstein)>  (2003) 
1.524

>  <smiles>  (2003) 
CCOC(=O)c1cc2cccc(C(=O)N3CC[C@H]3C)c2[nH]1

>  <gnina_score>  (2003) 
5.137

>  <inspiration_score>  (2003) 
None

>  <energy_score>  (2003) 
-2.075561

>  <distance_score>  (2003) 
0.88274

>  <gnina_score_min>  (2003) 
5.397

>  <inchikey>  (2003) 
MRYRMULTTTUJHJ-SNVBAGLBSA-N

>  <exports>  (2003) 
['/opt/xchem-fragalysis-2/maxwin/BulkDock/OUTPUTS/openbind_a71ev2a_c2_elabs_1LOUU54.sdf', '/opt/xchem-fragalysis-2/maxwin/BulkDock/OUTPUTS/openbind_a71ev2a_c2_elabs_1LSYIDY.sdf']

>  <name>  (2003) 
P586006

>  <ref_pdb>  (2003) 
A0566a

>  <subsites>  (2003) 
None

>  <HIPPO Pose ID>  (2003) 
586006

>  <ref_mols>  (2003) 
A0566a

>  <HIPPO Compound ID>  (2003) 
441154

>  <tags>  (2003) 
openbind_a71ev2a_c2_elabs,syndirella_product,openbind_a71ev2a_c2_elabs_fragonly_scored_top80percent,openbind_a71ev2a_c2_elabs_scored,BulkDock Fragalysis export,openbind_a71ev2a_c2_elabs_scored_top80percent,openbind_a71ev2a_c2_elabs_activefrags_only_scored_5.2plus,syndirella_placed

>  <smina_score_min>  (2003) 
-5.75

$$$$
P586008
     RDKit          3D

 21 22  0  0  0  0  0  0  0  0999 V2000
    2.5759   13.9950   27.2000 C   0  0  0  0  0  0  0  0  0  0  0  0
    3.7278   13.5532   28.0832 C   0  0  0  0  0  0  0  0  0  0  0  0
    4.7088   12.8508   27.3064 O   0  0  0  0  0  0  0  0  0  0  0  0
    5.6474   13.6346   26.7046 C   0  0  0  0  0  0  0  0  0  0  0  0
    5.7215   14.8514   26.7971 O   0  0  0  0  0  0  0  0  0  0  0  0
    6.5628   12.8198   25.9474 C   0  0  0  0  0  0  0  0  0  0  0  0
    6.6854   11.4462   25.8372 C   0  0  0  0  0  0  0  0  0  0  0  0
    7.7471   11.1628   24.9404 C   0  0  0  0  0  0  0  0  0  0  0  0
    8.3149    9.9809   24.4422 C   0  0  0  0  0  0  0  0  0  0  0  0
    9.3711   10.0367   23.5343 C   0  0  0  0  0  0  0  0  0  0  0  0
    9.8741   11.2674   23.1379 C   0  0  0  0  0  0  0  0  0  0  0  0
    9.3265   12.4653   23.6017 C   0  0  0  0  0  0  0  0  0  0  0  0
    9.8436   13.7982   23.2200 C   0  0  0  0  0  0  0  0  0  0  0  0
    9.7236   14.6452   24.0147 O   0  0  0  0  0  0  0  0  0  0  0  0
   10.4161   13.8443   21.7879 N   0  0  0  0  0  0  0  0  0  0  0  0
   11.0505   14.9242   21.0638 C   0  0  0  0  0  0  0  0  0  0  0  0
    9.9675   15.9793   20.7854 C   0  0  0  0  0  0  0  0  0  0  0  0
   12.2132   15.3806   21.9475 C   0  0  0  0  0  0  0  0  0  0  0  0
   11.6215   14.4620   19.7207 C   0  0  0  0  0  0  0  0  0  0  0  0
    8.2634   12.3772   24.5127 C   0  0  0  0  0  0  0  0  0  0  0  0
    7.5378   13.3639   25.1430 N   0  0  0  0  0  0  0  0  0  0  0  0
  1  2  1  0
  2  3  1  0
  3  4  1  0
  4  5  2  0
  4  6  1  0
  6  7  2  0
  7  8  1  0
  8  9  2  0
  9 10  1  0
 10 11  2  0
 11 12  1  0
 12 13  1  0
 13 14  2  0
 13 15  1  0
 15 16  1  0
 16 17  1  0
 16 18  1  0
 16 19  1  0
 12 20  2  0
 20 21  1  0
 21  6  1  0
 20  8  1  0
M  END
>  <alias>  (2004) 
None

>  <rmsd(smina/fragmenstein)>  (2004) 
1.207

>  <smiles>  (2004) 
CCOC(=O)c1cc2cccc(C(=O)NC(C)(C)C)c2[nH]1

>  <gnina_score>  (2004) 
5.184

>  <inspiration_score>  (2004) 
None

>  <energy_score>  (2004) 
-26.130578

>  <distance_score>  (2004) 
1.230066

>  <gnina_score_min>  (2004) 
5.212

>  <inchikey>  (2004) 
FCYDYVHTLFHSLT-UHFFFAOYSA-N

>  <exports>  (2004) 
['/opt/xchem-fragalysis-2/maxwin/BulkDock/OUTPUTS/openbind_a71ev2a_c2_elabs_1LOUU54.sdf', '/opt/xchem-fragalysis-2/maxwin/BulkDock/OUTPUTS/openbind_a71ev2a_c2_elabs_1LSYIDY.sdf']

>  <name>  (2004) 
P586008

>  <ref_pdb>  (2004) 
A0566a

>  <subsites>  (2004) 
None

>  <HIPPO Pose ID>  (2004) 
586008

>  <ref_mols>  (2004) 
A0566a

>  <HIPPO Compound ID>  (2004) 
441159

>  <tags>  (2004) 
openbind_a71ev2a_c2_elabs,syndirella_product,openbind_a71ev2a_c2_elabs_fragonly_scored_top80percent,openbind_a71ev2a_c2_elabs_scored,BulkDock Fragalysis export,openbind_a71ev2a_c2_elabs_scored_top80percent,openbind_a71ev2a_c2_elabs_activefrags_only_scored_5.2plus,syndirella_placed

>  <smina_score_min>  (2004) 
-6.2

$$$$
P586016
     RDKit          3D

 21 22  0  0  0  0  0  0  0  0999 V2000
    5.7435   16.3466   29.1724 C   0  0  0  0  0  0  0  0  0  0  0  0
    5.4573   16.4151   27.6842 C   0  0  0  0  0  0  0  0  0  0  0  0
    5.9302   15.2261   27.0353 O   0  0  0  0  0  0  0  0  0  0  0  0
    7.2233   15.2618   26.6227 C   0  0  0  0  0  0  0  0  0  0  0  0
    8.0235   16.1633   26.8331 O   0  0  0  0  0  0  0  0  0  0  0  0
    7.5539   14.0615   25.8994 C   0  0  0  0  0  0  0  0  0  0  0  0
    6.9054   12.8429   25.7897 C   0  0  0  0  0  0  0  0  0  0  0  0
    7.7327   11.9713   25.0373 C   0  0  0  0  0  0  0  0  0  0  0  0
    7.6811   10.6080   24.7196 C   0  0  0  0  0  0  0  0  0  0  0  0
    8.6436   10.0673   23.8631 C   0  0  0  0  0  0  0  0  0  0  0  0
    9.7053   10.8141   23.4104 C   0  0  0  0  0  0  0  0  0  0  0  0
    9.8574   12.1123   23.8692 C   0  0  0  0  0  0  0  0  0  0  0  0
   11.1853   12.7165   23.7727 C   0  0  0  0  0  0  0  0  0  0  0  0
   12.0794   12.2166   24.2990 O   0  0  0  0  0  0  0  0  0  0  0  0
   11.1135   13.9682   22.9619 N   0  0  0  0  0  0  0  0  0  0  0  0
   12.0886   14.9331   22.6898 C   0  0  0  0  0  0  0  0  0  0  0  0
   12.0854   15.4441   21.3039 C   0  0  2  0  0  0  0  0  0  0  0  0
   11.8526   14.4704   20.1796 C   0  0  0  0  0  0  0  0  0  0  0  0
   13.3296   15.9663   21.1703 F   0  0  0  0  0  0  0  0  0  0  0  0
    8.8373   12.7064   24.6195 C   0  0  0  0  0  0  0  0  0  0  0  0
    8.7214   13.9541   25.1781 N   0  0  0  0  0  0  0  0  0  0  0  0
  1  2  1  0
  2  3  1  0
  3  4  1  0
  4  5  2  0
  4  6  1  0
  6  7  2  0
  7  8  1  0
  8  9  2  0
  9 10  1  0
 10 11  2  0
 11 12  1  0
 12 13  1  0
 13 14  2  0
 13 15  1  0
 15 16  1  0
 16 17  1  0
 17 18  1  6
 17 19  1  0
 12 20  2  0
 20 21  1  0
 21  6  1  0
 20  8  1  0
M  END
>  <alias>  (2005) 
None

>  <rmsd(smina/fragmenstein)>  (2005) 
1.194

>  <smiles>  (2005) 
CCOC(=O)c1cc2cccc(C(=O)NC[C@H](C)F)c2[nH]1

>  <gnina_score>  (2005) 
5.039

>  <inspiration_score>  (2005) 
None

>  <energy_score>  (2005) 
-7.513976

>  <distance_score>  (2005) 
1.08056

>  <gnina_score_min>  (2005) 
5.224

>  <inchikey>  (2005) 
BVKCTFFRMTYNMZ-VIFPVBQESA-N

>  <exports>  (2005) 
['/opt/xchem-fragalysis-2/maxwin/BulkDock/OUTPUTS/openbind_a71ev2a_c2_elabs_1LOUU54.sdf', '/opt/xchem-fragalysis-2/maxwin/BulkDock/OUTPUTS/openbind_a71ev2a_c2_elabs_1LSYIDY.sdf']

>  <name>  (2005) 
P586016

>  <ref_pdb>  (2005) 
A0566a

>  <subsites>  (2005) 
None

>  <HIPPO Pose ID>  (2005) 
586016

>  <ref_mols>  (2005) 
A0566a

>  <HIPPO Compound ID>  (2005) 
441170

>  <tags>  (2005) 
openbind_a71ev2a_c2_elabs,syndirella_product,openbind_a71ev2a_c2_elabs_fragonly_scored_top80percent,openbind_a71ev2a_c2_elabs_scored,BulkDock Fragalysis export,openbind_a71ev2a_c2_elabs_scored_top80percent,openbind_a71ev2a_c2_elabs_activefrags_only_scored_5.2plus,syndirella_placed

>  <smina_score_min>  (2005) 
-6.119

$$$$
P586017
     RDKit          3D

 21 23  0  0  0  0  0  0  0  0999 V2000
    9.1897   15.1572   20.8999 C   0  0  0  0  0  0  0  0  0  0  0  0
   10.6731   15.4349   20.7233 C   0  0  2  0  0  0  0  0  0  0  0  0
   11.2267   14.8666   18.9419 Br  0  0  0  0  0  0  0  0  0  0  0  0
   11.6297   14.7922   21.7251 C   0  0  0  0  0  0  0  0  0  0  0  0
   10.9379   13.7348   22.3827 N   0  0  0  0  0  0  0  0  0  0  0  0
   10.3433   13.6606   23.7837 C   0  0  0  0  0  0  0  0  0  0  0  0
   10.3857   14.4210   24.6623 O   0  0  0  0  0  0  0  0  0  0  0  0
    9.5080   12.4490   23.9711 C   0  0  0  0  0  0  0  0  0  0  0  0
    9.7486   11.2095   23.3811 C   0  0  0  0  0  0  0  0  0  0  0  0
    8.9916   10.1040   23.7426 C   0  0  0  0  0  0  0  0  0  0  0  0
    7.9699   10.2151   24.6980 C   0  0  0  0  0  0  0  0  0  0  0  0
    7.6472   11.4714   25.2460 C   0  0  0  0  0  0  0  0  0  0  0  0
    6.7459   11.9446   26.2684 C   0  0  0  0  0  0  0  0  0  0  0  0
    7.0086   13.2960   26.4396 C   0  0  0  0  0  0  0  0  0  0  0  0
    7.9179   13.6625   25.4852 N   0  0  0  0  0  0  0  0  0  0  0  0
    8.4106   12.5545   24.8383 C   0  0  0  0  0  0  0  0  0  0  0  0
    6.5852   14.2880   27.4721 C   0  0  0  0  0  0  0  0  0  0  0  0
    5.1106   14.2433   27.8362 C   0  0  0  0  0  0  0  0  0  0  0  0
    4.6881   12.9439   28.5192 C   0  0  0  0  0  0  0  0  0  0  0  0
    4.5302   11.7883   27.5353 C   0  0  0  0  0  0  0  0  0  0  0  0
    5.8288   11.1086   27.1065 C   0  0  0  0  0  0  0  0  0  0  0  0
  2  1  1  1
  2  3  1  0
  2  4  1  0
  4  5  1  0
  5  6  1  0
  6  7  2  0
  6  8  1  0
  8  9  2  0
  9 10  1  0
 10 11  2  0
 11 12  1  0
 12 13  1  0
 13 14  2  0
 14 15  1  0
 15 16  1  0
 14 17  1  0
 17 18  1  0
 18 19  1  0
 19 20  1  0
 20 21  1  0
 16  8  1  0
 16 12  2  0
 21 13  1  0
M  END
>  <alias>  (2006) 
None

>  <rmsd(smina/fragmenstein)>  (2006) 
0.609

>  <smiles>  (2006) 
C[C@H](Br)CNC(=O)c1cccc2c3c([nH]c12)CCCCC3

>  <gnina_score>  (2006) 
5.682

>  <inspiration_score>  (2006) 
None

>  <energy_score>  (2006) 
-17.917727

>  <distance_score>  (2006) 
1.083087

>  <gnina_score_min>  (2006) 
5.762

>  <inchikey>  (2006) 
NPFUIUFMMUQADE-NSHDSACASA-N

>  <exports>  (2006) 
['/opt/xchem-fragalysis-2/maxwin/BulkDock/OUTPUTS/openbind_a71ev2a_c2_elabs_1LOUU54.sdf', '/opt/xchem-fragalysis-2/maxwin/BulkDock/OUTPUTS/openbind_a71ev2a_c2_elabs_1LSYIDY.sdf']

>  <name>  (2006) 
P586017

>  <ref_pdb>  (2006) 
A0566a

>  <subsites>  (2006) 
None

>  <HIPPO Pose ID>  (2006) 
586017

>  <ref_mols>  (2006) 
A0566a

>  <HIPPO Compound ID>  (2006) 
441171

>  <tags>  (2006) 
openbind_a71ev2a_c2_elabs,syndirella_product,openbind_a71ev2a_c2_elabs_fragonly_scored_top80percent,BulkDock Fragalysis export,openbind_a71ev2a_c2_elabs_scored,openbind_a71ev2a_c2_elabs_scored_top80percent,openbind_a71ev2a_c2_elabs_activefrags_only_scored_5.2plus,openbind_a71ev2a_c2_elabs_activefrags_only_scored_5.5plus,syndirella_placed

>  <smina_score_min>  (2006) 
-6.567

$$$$
P586019
     RDKit          3D

 21 22  0  0  0  0  0  0  0  0999 V2000
    4.6260   14.2676   29.5833 C   0  0  0  0  0  0  0  0  0  0  0  0
    4.1036   14.1714   28.1622 C   0  0  0  0  0  0  0  0  0  0  0  0
    4.9891   13.3743   27.3638 O   0  0  0  0  0  0  0  0  0  0  0  0
    6.0148   14.0517   26.7775 C   0  0  0  0  0  0  0  0  0  0  0  0
    6.2545   15.2422   26.9197 O   0  0  0  0  0  0  0  0  0  0  0  0
    6.8126   13.1538   25.9829 C   0  0  0  0  0  0  0  0  0  0  0  0
    6.7631   11.7794   25.8302 C   0  0  0  0  0  0  0  0  0  0  0  0
    7.8024   11.3903   24.9461 C   0  0  0  0  0  0  0  0  0  0  0  0
    8.2500   10.1530   24.4550 C   0  0  0  0  0  0  0  0  0  0  0  0
    9.2995   10.1101   23.5409 C   0  0  0  0  0  0  0  0  0  0  0  0
    9.9300   11.2864   23.1599 C   0  0  0  0  0  0  0  0  0  0  0  0
    9.5483   12.5330   23.6653 C   0  0  0  0  0  0  0  0  0  0  0  0
   10.2887   13.7862   23.3549 C   0  0  0  0  0  0  0  0  0  0  0  0
   10.3108   14.6161   24.1726 O   0  0  0  0  0  0  0  0  0  0  0  0
   10.8704   13.7732   21.9331 N   0  0  0  0  0  0  0  0  0  0  0  0
   11.6819   14.7372   21.2495 C   0  0  0  0  0  0  0  0  0  0  0  0
   11.0401   15.1182   19.9219 C   0  0  0  0  0  0  0  0  0  0  0  0
    9.9332   16.1431   20.1224 C   0  0  0  0  0  0  0  0  0  0  0  0
    9.6918   17.1159   18.6521 Cl  0  0  0  0  0  0  0  0  0  0  0  0
    8.4625   12.5493   24.5502 C   0  0  0  0  0  0  0  0  0  0  0  0
    7.8457   13.5995   25.1909 N   0  0  0  0  0  0  0  0  0  0  0  0
  1  2  1  0
  2  3  1  0
  3  4  1  0
  4  5  2  0
  4  6  1  0
  6  7  2  0
  7  8  1  0
  8  9  2  0
  9 10  1  0
 10 11  2  0
 11 12  1  0
 12 13  1  0
 13 14  2  0
 13 15  1  0
 15 16  1  0
 16 17  1  0
 17 18  1  0
 18 19  1  0
 12 20  2  0
 20 21  1  0
 21  6  1  0
 20  8  1  0
M  END
>  <alias>  (2007) 
None

>  <rmsd(smina/fragmenstein)>  (2007) 
0.572

>  <smiles>  (2007) 
CCOC(=O)c1cc2cccc(C(=O)NCCCCl)c2[nH]1

>  <gnina_score>  (2007) 
5.333

>  <inspiration_score>  (2007) 
None

>  <energy_score>  (2007) 
-22.026409

>  <distance_score>  (2007) 
0.99122

>  <gnina_score_min>  (2007) 
5.287

>  <inchikey>  (2007) 
DPHCXLTTZJSVGV-UHFFFAOYSA-N

>  <exports>  (2007) 
['/opt/xchem-fragalysis-2/maxwin/BulkDock/OUTPUTS/openbind_a71ev2a_c2_elabs_1LOUU54.sdf', '/opt/xchem-fragalysis-2/maxwin/BulkDock/OUTPUTS/openbind_a71ev2a_c2_elabs_1LSYIDY.sdf']

>  <name>  (2007) 
P586019

>  <ref_pdb>  (2007) 
A0566a

>  <subsites>  (2007) 
None

>  <HIPPO Pose ID>  (2007) 
586019

>  <ref_mols>  (2007) 
A0566a

>  <HIPPO Compound ID>  (2007) 
441172

>  <tags>  (2007) 
openbind_a71ev2a_c2_elabs,syndirella_product,openbind_a71ev2a_c2_elabs_fragonly_scored_top80percent,openbind_a71ev2a_c2_elabs_scored,BulkDock Fragalysis export,openbind_a71ev2a_c2_elabs_scored_top80percent,openbind_a71ev2a_c2_elabs_activefrags_only_scored_5.2plus,syndirella_placed

>  <smina_score_min>  (2007) 
-5.864

$$$$
P586022
     RDKit          3D

 21 24  0  0  0  0  0  0  0  0999 V2000
   10.4203   14.6859   24.4056 O   0  0  0  0  0  0  0  0  0  0  0  0
   10.2524   13.9391   23.5110 C   0  0  0  0  0  0  0  0  0  0  0  0
    9.5364   12.6743   23.7700 C   0  0  0  0  0  0  0  0  0  0  0  0
    9.9161   11.4691   23.1813 C   0  0  0  0  0  0  0  0  0  0  0  0
    9.2923   10.2770   23.5289 C   0  0  0  0  0  0  0  0  0  0  0  0
    8.2683   10.2752   24.4831 C   0  0  0  0  0  0  0  0  0  0  0  0
    7.8254   11.4876   25.0507 C   0  0  0  0  0  0  0  0  0  0  0  0
    6.8449   11.8481   26.0310 C   0  0  0  0  0  0  0  0  0  0  0  0
    6.8663   13.2290   26.1448 C   0  0  0  0  0  0  0  0  0  0  0  0
    7.8505   13.7003   25.3208 N   0  0  0  0  0  0  0  0  0  0  0  0
    8.4640   12.6609   24.6649 C   0  0  0  0  0  0  0  0  0  0  0  0
    6.0518   14.1603   26.9855 C   0  0  0  0  0  0  0  0  0  0  0  0
    4.6517   13.6178   27.2654 C   0  0  0  0  0  0  0  0  0  0  0  0
    4.5973   12.5046   28.3176 C   0  0  0  0  0  0  0  0  0  0  0  0
    5.6706   11.4136   28.2293 C   0  0  0  0  0  0  0  0  0  0  0  0
    5.9579   10.9296   26.8077 C   0  0  0  0  0  0  0  0  0  0  0  0
   10.5676   14.0852   22.0544 N   0  0  0  0  0  0  0  0  0  0  0  0
    9.3777   14.7046   21.2749 C   0  0  0  0  0  0  0  0  0  0  0  0
   10.3314   15.0150   20.1581 C   0  0  0  0  0  0  0  0  0  0  0  0
    9.8181   16.5104   19.2645 S   0  0  0  0  0  0  0  0  0  0  0  0
   11.2876   15.1908   21.3019 C   0  0  0  0  0  0  0  0  0  0  0  0
  1  2  2  0
  2  3  1  0
  3  4  2  0
  4  5  1  0
  5  6  2  0
  6  7  1  0
  7  8  1  0
  8  9  2  0
  9 10  1  0
 10 11  1  0
  9 12  1  0
 12 13  1  0
 13 14  1  0
 14 15  1  0
 15 16  1  0
  2 17  1  0
 17 18  1  0
 18 19  1  0
 19 20  1  0
 19 21  1  0
 11  3  1  0
 21 17  1  0
 11  7  2  0
 16  8  1  0
M  END
>  <alias>  (2008) 
None

>  <rmsd(smina/fragmenstein)>  (2008) 
0.264

>  <smiles>  (2008) 
O=C(c1cccc2c3c([nH]c12)CCCCC3)N1CC(S)C1

>  <gnina_score>  (2008) 
5.76

>  <inspiration_score>  (2008) 
None

>  <energy_score>  (2008) 
-13.646191

>  <distance_score>  (2008) 
1.000644

>  <gnina_score_min>  (2008) 
5.738

>  <inchikey>  (2008) 
OVXKATWXYFVXLW-UHFFFAOYSA-N

>  <exports>  (2008) 
['/opt/xchem-fragalysis-2/maxwin/BulkDock/OUTPUTS/openbind_a71ev2a_c2_elabs_1LOUU54.sdf', '/opt/xchem-fragalysis-2/maxwin/BulkDock/OUTPUTS/openbind_a71ev2a_c2_elabs_1LSYIDY.sdf']

>  <name>  (2008) 
P586022

>  <ref_pdb>  (2008) 
A0566a

>  <subsites>  (2008) 
None

>  <HIPPO Pose ID>  (2008) 
586022

>  <ref_mols>  (2008) 
A0566a

>  <HIPPO Compound ID>  (2008) 
441174

>  <tags>  (2008) 
openbind_a71ev2a_c2_elabs,syndirella_product,openbind_a71ev2a_c2_elabs_fragonly_scored_top80percent,BulkDock Fragalysis export,openbind_a71ev2a_c2_elabs_scored,openbind_a71ev2a_c2_elabs_scored_top80percent,openbind_a71ev2a_c2_elabs_activefrags_only_scored_5.2plus,openbind_a71ev2a_c2_elabs_activefrags_only_scored_5.5plus,syndirella_placed

>  <smina_score_min>  (2008) 
-7.084

$$$$
P586023
     RDKit          3D

 21 24  0  0  0  0  0  0  0  0999 V2000
   10.3574   14.6618   24.5251 O   0  0  0  0  0  0  0  0  0  0  0  0
   10.2870   13.9261   23.6071 C   0  0  0  0  0  0  0  0  0  0  0  0
    9.5242   12.6707   23.7924 C   0  0  0  0  0  0  0  0  0  0  0  0
    9.8925   11.4701   23.1882 C   0  0  0  0  0  0  0  0  0  0  0  0
    9.2572   10.2794   23.5247 C   0  0  0  0  0  0  0  0  0  0  0  0
    8.2319   10.2719   24.4802 C   0  0  0  0  0  0  0  0  0  0  0  0
    7.7948   11.4793   25.0616 C   0  0  0  0  0  0  0  0  0  0  0  0
    6.8261   11.8331   26.0636 C   0  0  0  0  0  0  0  0  0  0  0  0
    6.9209   13.2044   26.2454 C   0  0  0  0  0  0  0  0  0  0  0  0
    7.8542   13.6831   25.3697 N   0  0  0  0  0  0  0  0  0  0  0  0
    8.4464   12.6494   24.6861 C   0  0  0  0  0  0  0  0  0  0  0  0
    6.2338   14.1144   27.2118 C   0  0  0  0  0  0  0  0  0  0  0  0
    6.1552   13.4761   28.5979 C   0  0  0  0  0  0  0  0  0  0  0  0
    5.0647   12.4119   28.7474 C   0  0  0  0  0  0  0  0  0  0  0  0
    4.7384   11.5739   27.5082 C   0  0  0  0  0  0  0  0  0  0  0  0
    5.9379   10.9034   26.8365 C   0  0  0  0  0  0  0  0  0  0  0  0
   10.7851   14.0791   22.1992 N   0  0  0  0  0  0  0  0  0  0  0  0
    9.7039   14.7360   21.2782 C   0  0  0  0  0  0  0  0  0  0  0  0
   10.7189   15.3379   20.3782 C   0  0  0  0  0  0  0  0  0  0  0  0
   11.2333   14.6019   18.8356 Cl  0  0  0  0  0  0  0  0  0  0  0  0
   11.6141   15.1744   21.5565 C   0  0  0  0  0  0  0  0  0  0  0  0
  1  2  2  0
  2  3  1  0
  3  4  2  0
  4  5  1  0
  5  6  2  0
  6  7  1  0
  7  8  1  0
  8  9  2  0
  9 10  1  0
 10 11  1  0
  9 12  1  0
 12 13  1  0
 13 14  1  0
 14 15  1  0
 15 16  1  0
  2 17  1  0
 17 18  1  0
 18 19  1  0
 19 20  1  0
 19 21  1  0
 11  3  1  0
 21 17  1  0
 11  7  2  0
 16  8  1  0
M  END
>  <alias>  (2009) 
None

>  <rmsd(smina/fragmenstein)>  (2009) 
0.452

>  <smiles>  (2009) 
O=C(c1cccc2c3c([nH]c12)CCCCC3)N1CC(Cl)C1

>  <gnina_score>  (2009) 
5.672

>  <inspiration_score>  (2009) 
None

>  <energy_score>  (2009) 
-141.480937

>  <distance_score>  (2009) 
0.966399

>  <gnina_score_min>  (2009) 
5.743

>  <inchikey>  (2009) 
DJWPXRTVINNVII-UHFFFAOYSA-N

>  <exports>  (2009) 
['/opt/xchem-fragalysis-2/maxwin/BulkDock/OUTPUTS/openbind_a71ev2a_c2_elabs_1LOUU54.sdf', '/opt/xchem-fragalysis-2/maxwin/BulkDock/OUTPUTS/openbind_a71ev2a_c2_elabs_1LSYIDY.sdf']

>  <name>  (2009) 
P586023

>  <ref_pdb>  (2009) 
A0566a

>  <subsites>  (2009) 
None

>  <HIPPO Pose ID>  (2009) 
586023

>  <ref_mols>  (2009) 
A0566a

>  <HIPPO Compound ID>  (2009) 
441176

>  <tags>  (2009) 
openbind_a71ev2a_c2_elabs,syndirella_product,openbind_a71ev2a_c2_elabs_fragonly_scored_top80percent,BulkDock Fragalysis export,openbind_a71ev2a_c2_elabs_scored,openbind_a71ev2a_c2_elabs_scored_top80percent,openbind_a71ev2a_c2_elabs_activefrags_only_scored_5.2plus,openbind_a71ev2a_c2_elabs_activefrags_only_scored_5.5plus,syndirella_placed

>  <smina_score_min>  (2009) 
-7.363

$$$$
P586024
     RDKit          3D

 21 23  0  0  0  0  0  0  0  0999 V2000
   10.6287   14.5501   23.7345 O   0  0  0  0  0  0  0  0  0  0  0  0
    9.7851   13.9324   23.2286 C   0  0  0  0  0  0  0  0  0  0  0  0
    9.0140   14.1821   21.9304 N   0  0  0  0  0  0  0  0  0  0  0  0
    9.0491   15.2917   21.0260 C   0  0  0  0  0  0  0  0  0  0  0  0
   10.4592   15.7216   20.6492 C   0  0  0  0  0  0  0  0  0  0  0  0
   11.3134   14.6355   20.1395 N   0  0  0  0  0  0  0  0  0  0  0  0
   12.5105   14.6852   20.9767 O   0  0  0  0  0  0  0  0  0  0  0  0
    9.3196   12.6595   23.7767 C   0  0  0  0  0  0  0  0  0  0  0  0
    9.7937   11.4582   23.2523 C   0  0  0  0  0  0  0  0  0  0  0  0
    9.2362   10.2551   23.6586 C   0  0  0  0  0  0  0  0  0  0  0  0
    8.2085   10.2475   24.6126 C   0  0  0  0  0  0  0  0  0  0  0  0
    7.7195   11.4583   25.1507 C   0  0  0  0  0  0  0  0  0  0  0  0
    6.7353   11.8116   26.1284 C   0  0  0  0  0  0  0  0  0  0  0  0
    6.6940   13.1962   26.1888 C   0  0  0  0  0  0  0  0  0  0  0  0
    7.6186   13.6833   25.3057 N   0  0  0  0  0  0  0  0  0  0  0  0
    8.2817   12.6471   24.7007 C   0  0  0  0  0  0  0  0  0  0  0  0
    5.8605   14.1201   27.0201 C   0  0  0  0  0  0  0  0  0  0  0  0
    4.4978   13.5256   27.3682 C   0  0  0  0  0  0  0  0  0  0  0  0
    4.5290   12.4508   28.4603 C   0  0  0  0  0  0  0  0  0  0  0  0
    5.6405   11.3990   28.3689 C   0  0  0  0  0  0  0  0  0  0  0  0
    5.9019   10.8838   26.9537 C   0  0  0  0  0  0  0  0  0  0  0  0
  1  2  2  0
  2  3  1  0
  3  4  1  0
  4  5  1  0
  5  6  1  0
  6  7  1  0
  2  8  1  0
  8  9  2  0
  9 10  1  0
 10 11  2  0
 11 12  1  0
 12 13  1  0
 13 14  2  0
 14 15  1  0
 15 16  1  0
 14 17  1  0
 17 18  1  0
 18 19  1  0
 19 20  1  0
 20 21  1  0
 16  8  1  0
 16 12  2  0
 21 13  1  0
M  END
>  <alias>  (2010) 
None

>  <rmsd(smina/fragmenstein)>  (2010) 
0.396

>  <smiles>  (2010) 
O=C(NCCNO)c1cccc2c3c([nH]c12)CCCCC3

>  <gnina_score>  (2010) 
5.496

>  <inspiration_score>  (2010) 
None

>  <energy_score>  (2010) 
-21.435883

>  <distance_score>  (2010) 
1.521667

>  <gnina_score_min>  (2010) 
5.613

>  <inchikey>  (2010) 
PPKFEFKCZCMCCQ-UHFFFAOYSA-N

>  <exports>  (2010) 
['/opt/xchem-fragalysis-2/maxwin/BulkDock/OUTPUTS/openbind_a71ev2a_c2_elabs_1LOUU54.sdf', '/opt/xchem-fragalysis-2/maxwin/BulkDock/OUTPUTS/openbind_a71ev2a_c2_elabs_1LSYIDY.sdf']

>  <name>  (2010) 
P586024

>  <ref_pdb>  (2010) 
A0566a

>  <subsites>  (2010) 
None

>  <HIPPO Pose ID>  (2010) 
586024

>  <ref_mols>  (2010) 
A0566a

>  <HIPPO Compound ID>  (2010) 
441177

>  <tags>  (2010) 
openbind_a71ev2a_c2_elabs,syndirella_product,openbind_a71ev2a_c2_elabs_fragonly_scored_top80percent,BulkDock Fragalysis export,openbind_a71ev2a_c2_elabs_scored,openbind_a71ev2a_c2_elabs_scored_top80percent,openbind_a71ev2a_c2_elabs_activefrags_only_scored_5.2plus,openbind_a71ev2a_c2_elabs_activefrags_only_scored_5.5plus,syndirella_placed

>  <smina_score_min>  (2010) 
-6.68

$$$$
P586025
     RDKit          3D

 21 23  0  0  0  0  0  0  0  0999 V2000
   10.4330   14.5822   24.1922 O   0  0  0  0  0  0  0  0  0  0  0  0
   10.3904   13.7524   23.3761 C   0  0  0  0  0  0  0  0  0  0  0  0
   10.9979   13.7092   21.9710 N   0  0  0  0  0  0  0  0  0  0  0  0
   11.7012   14.7030   21.2376 C   0  0  0  0  0  0  0  0  0  0  0  0
   10.7372   15.4347   20.4226 C   0  0  0  0  0  0  0  0  0  0  0  0
   10.0575   16.1641   19.7562 C   0  0  0  0  0  0  0  0  0  0  0  0
    9.2604   17.5333   18.7054 Br  0  0  0  0  0  0  0  0  0  0  0  0
    9.5890   12.5341   23.6805 C   0  0  0  0  0  0  0  0  0  0  0  0
    9.8950   11.2654   23.1827 C   0  0  0  0  0  0  0  0  0  0  0  0
    9.2103   10.1321   23.5995 C   0  0  0  0  0  0  0  0  0  0  0  0
    8.1920   10.2404   24.5469 C   0  0  0  0  0  0  0  0  0  0  0  0
    7.8175   11.5068   25.0332 C   0  0  0  0  0  0  0  0  0  0  0  0
    6.8598   11.9686   25.9912 C   0  0  0  0  0  0  0  0  0  0  0  0
    6.9478   13.3505   26.0231 C   0  0  0  0  0  0  0  0  0  0  0  0
    7.9494   13.7240   25.1700 N   0  0  0  0  0  0  0  0  0  0  0  0
    8.5131   12.6208   24.5737 C   0  0  0  0  0  0  0  0  0  0  0  0
    6.1810   14.3667   26.8081 C   0  0  0  0  0  0  0  0  0  0  0  0
    4.7629   13.9015   27.1340 C   0  0  0  0  0  0  0  0  0  0  0  0
    4.6751   12.8589   28.2542 C   0  0  0  0  0  0  0  0  0  0  0  0
    5.6899   11.7104   28.2158 C   0  0  0  0  0  0  0  0  0  0  0  0
    5.9354   11.1353   26.8205 C   0  0  0  0  0  0  0  0  0  0  0  0
  1  2  2  0
  2  3  1  0
  3  4  1  0
  4  5  1  0
  5  6  3  0
  6  7  1  0
  2  8  1  0
  8  9  2  0
  9 10  1  0
 10 11  2  0
 11 12  1  0
 12 13  1  0
 13 14  2  0
 14 15  1  0
 15 16  1  0
 14 17  1  0
 17 18  1  0
 18 19  1  0
 19 20  1  0
 20 21  1  0
 16  8  1  0
 16 12  2  0
 21 13  1  0
M  END
>  <alias>  (2011) 
None

>  <rmsd(smina/fragmenstein)>  (2011) 
0.275

>  <smiles>  (2011) 
O=C(NCC#CBr)c1cccc2c3c([nH]c12)CCCCC3

>  <gnina_score>  (2011) 
5.721

>  <inspiration_score>  (2011) 
None

>  <energy_score>  (2011) 
-15.852124

>  <distance_score>  (2011) 
0.994798

>  <gnina_score_min>  (2011) 
5.668

>  <inchikey>  (2011) 
MHPVYLWWNZHZPI-UHFFFAOYSA-N

>  <exports>  (2011) 
['/opt/xchem-fragalysis-2/maxwin/BulkDock/OUTPUTS/openbind_a71ev2a_c2_elabs_1LOUU54.sdf', '/opt/xchem-fragalysis-2/maxwin/BulkDock/OUTPUTS/openbind_a71ev2a_c2_elabs_1LSYIDY.sdf']

>  <name>  (2011) 
P586025

>  <ref_pdb>  (2011) 
A0566a

>  <subsites>  (2011) 
None

>  <HIPPO Pose ID>  (2011) 
586025

>  <ref_mols>  (2011) 
A0566a

>  <HIPPO Compound ID>  (2011) 
441178

>  <tags>  (2011) 
openbind_a71ev2a_c2_elabs,syndirella_product,openbind_a71ev2a_c2_elabs_fragonly_scored_top80percent,BulkDock Fragalysis export,openbind_a71ev2a_c2_elabs_scored,openbind_a71ev2a_c2_elabs_scored_top80percent,openbind_a71ev2a_c2_elabs_activefrags_only_scored_5.2plus,openbind_a71ev2a_c2_elabs_activefrags_only_scored_5.5plus,syndirella_placed

>  <smina_score_min>  (2011) 
-6.739

$$$$
P586026
     RDKit          3D

 21 24  0  0  0  0  0  0  0  0999 V2000
    9.9115   16.5574   20.4793 C   0  0  0  0  0  0  0  0  0  0  0  0
   10.6743   15.6603   21.0905 C   0  0  0  0  0  0  0  0  0  0  0  0
   11.7417   15.5349   22.1230 C   0  0  0  0  0  0  0  0  0  0  0  0
   10.8693   14.4068   22.6241 N   0  0  0  0  0  0  0  0  0  0  0  0
   11.2221   13.1441   23.3234 C   0  0  0  0  0  0  0  0  0  0  0  0
   12.2723   12.6868   23.5834 O   0  0  0  0  0  0  0  0  0  0  0  0
   10.0035   12.3524   23.6219 C   0  0  0  0  0  0  0  0  0  0  0  0
    9.9492   11.0264   23.1945 C   0  0  0  0  0  0  0  0  0  0  0  0
    9.0046   10.1422   23.6782 C   0  0  0  0  0  0  0  0  0  0  0  0
    8.0402   10.5761   24.5810 C   0  0  0  0  0  0  0  0  0  0  0  0
    7.9580   11.9450   24.8947 C   0  0  0  0  0  0  0  0  0  0  0  0
    7.0656   12.7188   25.6975 C   0  0  0  0  0  0  0  0  0  0  0  0
    7.4793   14.0371   25.6035 C   0  0  0  0  0  0  0  0  0  0  0  0
    8.6093   14.0699   24.8280 N   0  0  0  0  0  0  0  0  0  0  0  0
    8.9338   12.8112   24.3945 C   0  0  0  0  0  0  0  0  0  0  0  0
    6.8976   15.2894   26.1799 C   0  0  0  0  0  0  0  0  0  0  0  0
    5.3890   15.1913   26.3959 C   0  0  0  0  0  0  0  0  0  0  0  0
    4.9690   14.3429   27.6011 C   0  0  0  0  0  0  0  0  0  0  0  0
    5.6610   12.9859   27.7748 C   0  0  0  0  0  0  0  0  0  0  0  0
    5.8869   12.2181   26.4722 C   0  0  0  0  0  0  0  0  0  0  0  0
   10.7407   14.1911   21.0788 C   0  0  0  0  0  0  0  0  0  0  0  0
  1  2  2  0
  2  3  1  0
  3  4  1  0
  4  5  1  0
  5  6  2  0
  5  7  1  0
  7  8  2  0
  8  9  1  0
  9 10  2  0
 10 11  1  0
 11 12  1  0
 12 13  2  0
 13 14  1  0
 14 15  1  0
 13 16  1  0
 16 17  1  0
 17 18  1  0
 18 19  1  0
 19 20  1  0
  4 21  1  0
 21  2  1  0
 15  7  1  0
 15 11  2  0
 20 12  1  0
M  END
>  <alias>  (2012) 
None

>  <rmsd(smina/fragmenstein)>  (2012) 
0.53

>  <smiles>  (2012) 
C=C1CN(C(=O)c2cccc3c4c([nH]c23)CCCCC4)C1

>  <gnina_score>  (2012) 
5.507

>  <inspiration_score>  (2012) 
None

>  <energy_score>  (2012) 
-2.536211

>  <distance_score>  (2012) 
0.855689

>  <gnina_score_min>  (2012) 
5.396

>  <inchikey>  (2012) 
WGIQJGNMPPCSTB-UHFFFAOYSA-N

>  <exports>  (2012) 
['/opt/xchem-fragalysis-2/maxwin/BulkDock/OUTPUTS/openbind_a71ev2a_c2_elabs_1LOUU54.sdf', '/opt/xchem-fragalysis-2/maxwin/BulkDock/OUTPUTS/openbind_a71ev2a_c2_elabs_1LSYIDY.sdf']

>  <name>  (2012) 
P586026

>  <ref_pdb>  (2012) 
A0566a

>  <subsites>  (2012) 
None

>  <HIPPO Pose ID>  (2012) 
586026

>  <ref_mols>  (2012) 
A0566a

>  <HIPPO Compound ID>  (2012) 
441179

>  <tags>  (2012) 
openbind_a71ev2a_c2_elabs,syndirella_product,openbind_a71ev2a_c2_elabs_fragonly_scored_top80percent,openbind_a71ev2a_c2_elabs_scored,BulkDock Fragalysis export,openbind_a71ev2a_c2_elabs_scored_top80percent,openbind_a71ev2a_c2_elabs_activefrags_only_scored_5.2plus,syndirella_placed

>  <smina_score_min>  (2012) 
-6.529

$$$$
P586027
     RDKit          3D

 21 23  0  0  0  0  0  0  0  0999 V2000
    9.9186   14.6386   24.1126 O   0  0  0  0  0  0  0  0  0  0  0  0
    9.9146   13.8094   23.2947 C   0  0  0  0  0  0  0  0  0  0  0  0
   10.5055   13.8059   21.8788 N   0  0  0  0  0  0  0  0  0  0  0  0
   11.3099   14.7856   21.1994 C   0  0  0  0  0  0  0  0  0  0  0  0
   12.5503   15.0813   22.0154 C   0  0  0  0  0  0  0  0  0  0  0  0
   12.2277   15.9232   23.0268 F   0  0  0  0  0  0  0  0  0  0  0  0
   13.4638   15.7213   21.2674 F   0  0  0  0  0  0  0  0  0  0  0  0
    9.2817   12.5194   23.6639 C   0  0  0  0  0  0  0  0  0  0  0  0
    9.7290   11.2766   23.2085 C   0  0  0  0  0  0  0  0  0  0  0  0
    9.1480   10.0993   23.6595 C   0  0  0  0  0  0  0  0  0  0  0  0
    8.1238   10.1375   24.6123 C   0  0  0  0  0  0  0  0  0  0  0  0
    7.6666   11.3705   25.1143 C   0  0  0  0  0  0  0  0  0  0  0  0
    6.7139   11.7662   26.1138 C   0  0  0  0  0  0  0  0  0  0  0  0
    6.7811   13.1477   26.2036 C   0  0  0  0  0  0  0  0  0  0  0  0
    7.6559   13.5898   25.2519 N   0  0  0  0  0  0  0  0  0  0  0  0
    8.2532   12.5271   24.6163 C   0  0  0  0  0  0  0  0  0  0  0  0
    6.1060   14.1014   27.1358 C   0  0  0  0  0  0  0  0  0  0  0  0
    6.0723   13.5418   28.5580 C   0  0  0  0  0  0  0  0  0  0  0  0
    5.0024   12.4723   28.7977 C   0  0  0  0  0  0  0  0  0  0  0  0
    4.6658   11.5531   27.6205 C   0  0  0  0  0  0  0  0  0  0  0  0
    5.8657   10.8670   26.9649 C   0  0  0  0  0  0  0  0  0  0  0  0
  1  2  2  0
  2  3  1  0
  3  4  1  0
  4  5  1  0
  5  6  1  0
  5  7  1  0
  2  8  1  0
  8  9  2  0
  9 10  1  0
 10 11  2  0
 11 12  1  0
 12 13  1  0
 13 14  2  0
 14 15  1  0
 15 16  1  0
 14 17  1  0
 17 18  1  0
 18 19  1  0
 19 20  1  0
 20 21  1  0
 16  8  1  0
 16 12  2  0
 21 13  1  0
M  END
>  <alias>  (2013) 
None

>  <rmsd(smina/fragmenstein)>  (2013) 
0.566

>  <smiles>  (2013) 
O=C(NCC(F)F)c1cccc2c3c([nH]c12)CCCCC3

>  <gnina_score>  (2013) 
5.39

>  <inspiration_score>  (2013) 
None

>  <energy_score>  (2013) 
-4.771825

>  <distance_score>  (2013) 
1.216182

>  <gnina_score_min>  (2013) 
5.34

>  <inchikey>  (2013) 
CXMKBFOHYXSYBM-UHFFFAOYSA-N

>  <exports>  (2013) 
['/opt/xchem-fragalysis-2/maxwin/BulkDock/OUTPUTS/openbind_a71ev2a_c2_elabs_1LOUU54.sdf', '/opt/xchem-fragalysis-2/maxwin/BulkDock/OUTPUTS/openbind_a71ev2a_c2_elabs_1LSYIDY.sdf']

>  <name>  (2013) 
P586027

>  <ref_pdb>  (2013) 
A0566a

>  <subsites>  (2013) 
None

>  <HIPPO Pose ID>  (2013) 
586027

>  <ref_mols>  (2013) 
A0566a

>  <HIPPO Compound ID>  (2013) 
441180

>  <tags>  (2013) 
openbind_a71ev2a_c2_elabs,syndirella_product,openbind_a71ev2a_c2_elabs_fragonly_scored_top80percent,openbind_a71ev2a_c2_elabs_scored,BulkDock Fragalysis export,openbind_a71ev2a_c2_elabs_scored_top80percent,openbind_a71ev2a_c2_elabs_activefrags_only_scored_5.2plus,syndirella_placed

>  <smina_score_min>  (2013) 
-6.354

$$$$
P586028
     RDKit          3D

 21 23  0  0  0  0  0  0  0  0999 V2000
   15.3204   11.6760   27.1866 C   0  0  0  0  0  0  0  0  0  0  0  0
   14.2046   12.4340   26.7231 O   0  0  0  0  0  0  0  0  0  0  0  0
   14.2466   12.5927   25.3060 C   0  0  0  0  0  0  0  0  0  0  0  0
   13.1588   13.5321   24.7290 C   0  0  0  0  0  0  0  0  0  0  0  0
   11.9486   12.9067   24.3104 N   0  0  0  0  0  0  0  0  0  0  0  0
   10.6251   13.5182   23.8251 C   0  0  0  0  0  0  0  0  0  0  0  0
   10.3381   14.6252   23.6167 O   0  0  0  0  0  0  0  0  0  0  0  0
    9.6028   12.4572   23.7303 C   0  0  0  0  0  0  0  0  0  0  0  0
    9.8667   11.2227   23.1475 C   0  0  0  0  0  0  0  0  0  0  0  0
    9.1558   10.0983   23.5317 C   0  0  0  0  0  0  0  0  0  0  0  0
    8.1524   10.2028   24.5024 C   0  0  0  0  0  0  0  0  0  0  0  0
    7.7774   11.4664   25.0016 C   0  0  0  0  0  0  0  0  0  0  0  0
    6.8389   11.9328   25.9760 C   0  0  0  0  0  0  0  0  0  0  0  0
    6.9483   13.3145   26.0229 C   0  0  0  0  0  0  0  0  0  0  0  0
    7.9594   13.6834   25.1776 N   0  0  0  0  0  0  0  0  0  0  0  0
    8.4909   12.5756   24.5657 C   0  0  0  0  0  0  0  0  0  0  0  0
    6.2006   14.3338   26.8221 C   0  0  0  0  0  0  0  0  0  0  0  0
    4.7808   13.8825   27.1594 C   0  0  0  0  0  0  0  0  0  0  0  0
    4.6930   12.8327   28.2729 C   0  0  0  0  0  0  0  0  0  0  0  0
    5.6956   11.6743   28.2152 C   0  0  0  0  0  0  0  0  0  0  0  0
    5.9175   11.1050   26.8135 C   0  0  0  0  0  0  0  0  0  0  0  0
  1  2  1  0
  2  3  1  0
  3  4  1  0
  4  5  1  0
  5  6  1  0
  6  7  2  0
  6  8  1  0
  8  9  2  0
  9 10  1  0
 10 11  2  0
 11 12  1  0
 12 13  1  0
 13 14  2  0
 14 15  1  0
 15 16  1  0
 14 17  1  0
 17 18  1  0
 18 19  1  0
 19 20  1  0
 20 21  1  0
 16  8  1  0
 16 12  2  0
 21 13  1  0
M  END
>  <alias>  (2014) 
None

>  <rmsd(smina/fragmenstein)>  (2014) 
1.333

>  <smiles>  (2014) 
COCCNC(=O)c1cccc2c3c([nH]c12)CCCCC3

>  <gnina_score>  (2014) 
5.248

>  <inspiration_score>  (2014) 
None

>  <energy_score>  (2014) 
-8.632585

>  <distance_score>  (2014) 
1.426581

>  <gnina_score_min>  (2014) 
5.32

>  <inchikey>  (2014) 
PGNBPFPNNVHHLI-UHFFFAOYSA-N

>  <exports>  (2014) 
['/opt/xchem-fragalysis-2/maxwin/BulkDock/OUTPUTS/openbind_a71ev2a_c2_elabs_1LOUU54.sdf', '/opt/xchem-fragalysis-2/maxwin/BulkDock/OUTPUTS/openbind_a71ev2a_c2_elabs_1LSYIDY.sdf']

>  <name>  (2014) 
P586028

>  <ref_pdb>  (2014) 
A0566a

>  <subsites>  (2014) 
None

>  <HIPPO Pose ID>  (2014) 
586028

>  <ref_mols>  (2014) 
A0566a

>  <HIPPO Compound ID>  (2014) 
441181

>  <tags>  (2014) 
openbind_a71ev2a_c2_elabs,syndirella_product,openbind_a71ev2a_c2_elabs_fragonly_scored_top80percent,openbind_a71ev2a_c2_elabs_scored,BulkDock Fragalysis export,openbind_a71ev2a_c2_elabs_scored_top80percent,openbind_a71ev2a_c2_elabs_activefrags_only_scored_5.2plus,syndirella_placed

>  <smina_score_min>  (2014) 
-4.627

$$$$
P586029
     RDKit          3D

 21 23  0  0  0  0  0  0  0  0999 V2000
   12.1904   14.5907   20.4481 C   0  0  0  0  0  0  0  0  0  0  0  0
   10.7485   14.8864   20.0463 C   0  0  0  0  0  0  0  0  0  0  0  0
   10.5780   15.7847   18.8340 C   0  0  0  0  0  0  0  0  0  0  0  0
    9.9616   15.4437   21.2164 C   0  0  0  0  0  0  0  0  0  0  0  0
    9.5656   14.3710   22.0800 N   0  0  0  0  0  0  0  0  0  0  0  0
   10.0985   13.9491   23.4480 C   0  0  0  0  0  0  0  0  0  0  0  0
   10.8936   14.4473   24.1338 O   0  0  0  0  0  0  0  0  0  0  0  0
    9.4339   12.6996   23.8344 C   0  0  0  0  0  0  0  0  0  0  0  0
    9.8260   11.4900   23.2628 C   0  0  0  0  0  0  0  0  0  0  0  0
    9.1987   10.3074   23.6312 C   0  0  0  0  0  0  0  0  0  0  0  0
    8.1715   10.3259   24.5861 C   0  0  0  0  0  0  0  0  0  0  0  0
    7.7378   11.5477   25.1461 C   0  0  0  0  0  0  0  0  0  0  0  0
    6.7696   11.9238   26.1370 C   0  0  0  0  0  0  0  0  0  0  0  0
    6.8532   13.3015   26.2772 C   0  0  0  0  0  0  0  0  0  0  0  0
    7.7717   13.7663   25.3759 N   0  0  0  0  0  0  0  0  0  0  0  0
    8.3760   12.7153   24.7373 C   0  0  0  0  0  0  0  0  0  0  0  0
    6.1507   14.2328   27.2122 C   0  0  0  0  0  0  0  0  0  0  0  0
    6.0447   13.6255   28.6106 C   0  0  0  0  0  0  0  0  0  0  0  0
    4.9460   12.5698   28.7637 C   0  0  0  0  0  0  0  0  0  0  0  0
    4.6585   11.6869   27.5462 C   0  0  0  0  0  0  0  0  0  0  0  0
    5.8825   11.0087   26.9285 C   0  0  0  0  0  0  0  0  0  0  0  0
  1  2  1  0
  2  3  1  0
  2  4  1  0
  4  5  1  0
  5  6  1  0
  6  7  2  0
  6  8  1  0
  8  9  2  0
  9 10  1  0
 10 11  2  0
 11 12  1  0
 12 13  1  0
 13 14  2  0
 14 15  1  0
 15 16  1  0
 14 17  1  0
 17 18  1  0
 18 19  1  0
 19 20  1  0
 20 21  1  0
 16  8  1  0
 16 12  2  0
 21 13  1  0
M  END
>  <alias>  (2015) 
None

>  <rmsd(smina/fragmenstein)>  (2015) 
0.503

>  <smiles>  (2015) 
CC(C)CNC(=O)c1cccc2c3c([nH]c12)CCCCC3

>  <gnina_score>  (2015) 
5.226

>  <inspiration_score>  (2015) 
None

>  <energy_score>  (2015) 
-5.844973

>  <distance_score>  (2015) 
1.233655

>  <gnina_score_min>  (2015) 
5.373

>  <inchikey>  (2015) 
MLQZUCQBQFUIOS-UHFFFAOYSA-N

>  <exports>  (2015) 
['/opt/xchem-fragalysis-2/maxwin/BulkDock/OUTPUTS/openbind_a71ev2a_c2_elabs_1LOUU54.sdf', '/opt/xchem-fragalysis-2/maxwin/BulkDock/OUTPUTS/openbind_a71ev2a_c2_elabs_1LSYIDY.sdf']

>  <name>  (2015) 
P586029

>  <ref_pdb>  (2015) 
A0566a

>  <subsites>  (2015) 
None

>  <HIPPO Pose ID>  (2015) 
586029

>  <ref_mols>  (2015) 
A0566a

>  <HIPPO Compound ID>  (2015) 
441182

>  <tags>  (2015) 
openbind_a71ev2a_c2_elabs,syndirella_product,openbind_a71ev2a_c2_elabs_fragonly_scored_top80percent,openbind_a71ev2a_c2_elabs_scored,BulkDock Fragalysis export,openbind_a71ev2a_c2_elabs_scored_top80percent,openbind_a71ev2a_c2_elabs_activefrags_only_scored_5.2plus,syndirella_placed

>  <smina_score_min>  (2015) 
-6.486

$$$$
P586030
     RDKit          3D

 21 23  0  0  0  0  0  0  0  0999 V2000
   11.8450   13.1183   24.4187 O   0  0  0  0  0  0  0  0  0  0  0  0
   10.9414   13.3067   23.7157 C   0  0  0  0  0  0  0  0  0  0  0  0
   10.7232   14.3717   22.6551 N   0  0  0  0  0  0  0  0  0  0  0  0
   11.5238   15.4939   22.2894 C   0  0  0  0  0  0  0  0  0  0  0  0
   12.7668   15.0927   21.5539 C   0  0  0  0  0  0  0  0  0  0  0  0
   12.5269   14.2765   20.3096 C   0  0  0  0  0  0  0  0  0  0  0  0
   11.0394   14.9903   19.0417 I   0  0  0  0  0  0  0  0  0  0  0  0
    9.7827   12.4115   23.7930 C   0  0  0  0  0  0  0  0  0  0  0  0
    9.8713   11.1407   23.2411 C   0  0  0  0  0  0  0  0  0  0  0  0
    9.0085   10.1414   23.6497 C   0  0  0  0  0  0  0  0  0  0  0  0
    8.0162   10.4126   24.5974 C   0  0  0  0  0  0  0  0  0  0  0  0
    7.8129   11.7334   25.0451 C   0  0  0  0  0  0  0  0  0  0  0  0
    6.9086   12.3534   25.9646 C   0  0  0  0  0  0  0  0  0  0  0  0
    7.2360   13.6999   26.0090 C   0  0  0  0  0  0  0  0  0  0  0  0
    8.3151   13.9009   25.1896 N   0  0  0  0  0  0  0  0  0  0  0  0
    8.6972   12.7186   24.6112 C   0  0  0  0  0  0  0  0  0  0  0  0
    6.6339   14.8262   26.7869 C   0  0  0  0  0  0  0  0  0  0  0  0
    6.1985   14.3772   28.1802 C   0  0  0  0  0  0  0  0  0  0  0  0
    4.8829   13.5940   28.2121 C   0  0  0  0  0  0  0  0  0  0  0  0
    4.6477   12.5785   27.0893 C   0  0  0  0  0  0  0  0  0  0  0  0
    5.8424   11.6795   26.7720 C   0  0  0  0  0  0  0  0  0  0  0  0
  1  2  2  0
  2  3  1  0
  3  4  1  0
  4  5  1  0
  5  6  1  0
  6  7  1  0
  2  8  1  0
  8  9  2  0
  9 10  1  0
 10 11  2  0
 11 12  1  0
 12 13  1  0
 13 14  2  0
 14 15  1  0
 15 16  1  0
 14 17  1  0
 17 18  1  0
 18 19  1  0
 19 20  1  0
 20 21  1  0
 16  8  1  0
 16 12  2  0
 21 13  1  0
M  END
>  <alias>  (2016) 
None

>  <rmsd(smina/fragmenstein)>  (2016) 
0.977

>  <smiles>  (2016) 
O=C(NCCCI)c1cccc2c3c([nH]c12)CCCCC3

>  <gnina_score>  (2016) 
5.204

>  <inspiration_score>  (2016) 
None

>  <energy_score>  (2016) 
-14.188046

>  <distance_score>  (2016) 
0.76854

>  <gnina_score_min>  (2016) 
5.715

>  <inchikey>  (2016) 
FQYZBQIASVFPJC-UHFFFAOYSA-N

>  <exports>  (2016) 
['/opt/xchem-fragalysis-2/maxwin/BulkDock/OUTPUTS/openbind_a71ev2a_c2_elabs_1LOUU54.sdf', '/opt/xchem-fragalysis-2/maxwin/BulkDock/OUTPUTS/openbind_a71ev2a_c2_elabs_1LSYIDY.sdf']

>  <name>  (2016) 
P586030

>  <ref_pdb>  (2016) 
A0566a

>  <subsites>  (2016) 
None

>  <HIPPO Pose ID>  (2016) 
586030

>  <ref_mols>  (2016) 
A0566a

>  <HIPPO Compound ID>  (2016) 
441183

>  <tags>  (2016) 
openbind_a71ev2a_c2_elabs,syndirella_product,openbind_a71ev2a_c2_elabs_fragonly_scored_top80percent,BulkDock Fragalysis export,openbind_a71ev2a_c2_elabs_scored,openbind_a71ev2a_c2_elabs_scored_top80percent,openbind_a71ev2a_c2_elabs_activefrags_only_scored_5.2plus,openbind_a71ev2a_c2_elabs_activefrags_only_scored_5.5plus,syndirella_placed

>  <smina_score_min>  (2016) 
-6.336

$$$$
P586031
     RDKit          3D

 21 23  0  0  0  0  0  0  0  0999 V2000
   12.7339   15.1778   21.8719 C   0  0  0  0  0  0  0  0  0  0  0  0
   11.6736   14.9130   20.8260 C   0  0  0  0  0  0  0  0  0  0  0  0
   10.4005   15.2983   21.4228 N   0  0  0  0  0  0  0  0  0  0  0  0
    9.4672   15.8495   20.4539 C   0  0  0  0  0  0  0  0  0  0  0  0
    9.8904   14.2431   22.1216 N   0  0  0  0  0  0  0  0  0  0  0  0
    9.8973   13.9472   23.6313 C   0  0  0  0  0  0  0  0  0  0  0  0
   10.2715   14.5937   24.5273 O   0  0  0  0  0  0  0  0  0  0  0  0
    9.2693   12.6467   23.8918 C   0  0  0  0  0  0  0  0  0  0  0  0
    9.7277   11.4714   23.2945 C   0  0  0  0  0  0  0  0  0  0  0  0
    9.1579   10.2526   23.6383 C   0  0  0  0  0  0  0  0  0  0  0  0
    8.1337   10.1979   24.5975 C   0  0  0  0  0  0  0  0  0  0  0  0
    7.6471   11.3788   25.1976 C   0  0  0  0  0  0  0  0  0  0  0  0
    6.6820   11.6856   26.2173 C   0  0  0  0  0  0  0  0  0  0  0  0
    6.7231   13.0591   26.4083 C   0  0  0  0  0  0  0  0  0  0  0  0
    7.6044   13.5869   25.5065 N   0  0  0  0  0  0  0  0  0  0  0  0
    8.2262   12.5805   24.8123 C   0  0  0  0  0  0  0  0  0  0  0  0
    6.0237   13.9296   27.4019 C   0  0  0  0  0  0  0  0  0  0  0  0
    6.0124   13.2763   28.7837 C   0  0  0  0  0  0  0  0  0  0  0  0
    4.9740   12.1638   28.9545 C   0  0  0  0  0  0  0  0  0  0  0  0
    4.6448   11.3268   27.7156 C   0  0  0  0  0  0  0  0  0  0  0  0
    5.8503   10.7129   27.0016 C   0  0  0  0  0  0  0  0  0  0  0  0
  1  2  1  0
  2  3  1  0
  3  4  1  0
  3  5  1  0
  5  6  1  0
  6  7  2  0
  6  8  1  0
  8  9  2  0
  9 10  1  0
 10 11  2  0
 11 12  1  0
 12 13  1  0
 13 14  2  0
 14 15  1  0
 15 16  1  0
 14 17  1  0
 17 18  1  0
 18 19  1  0
 19 20  1  0
 20 21  1  0
 16  8  1  0
 16 12  2  0
 21 13  1  0
M  END
>  <alias>  (2017) 
None

>  <rmsd(smina/fragmenstein)>  (2017) 
0.346

>  <smiles>  (2017) 
CCN(C)NC(=O)c1cccc2c3c([nH]c12)CCCCC3

>  <gnina_score>  (2017) 
5.739

>  <inspiration_score>  (2017) 
None

>  <energy_score>  (2017) 
-20.985945

>  <distance_score>  (2017) 
1.265152

>  <gnina_score_min>  (2017) 
5.801

>  <inchikey>  (2017) 
BIKXBTCEHHZYOW-UHFFFAOYSA-N

>  <exports>  (2017) 
['/opt/xchem-fragalysis-2/maxwin/BulkDock/OUTPUTS/openbind_a71ev2a_c2_elabs_1LOUU54.sdf', '/opt/xchem-fragalysis-2/maxwin/BulkDock/OUTPUTS/openbind_a71ev2a_c2_elabs_1LSYIDY.sdf']

>  <name>  (2017) 
P586031

>  <ref_pdb>  (2017) 
A0566a

>  <subsites>  (2017) 
None

>  <HIPPO Pose ID>  (2017) 
586031

>  <ref_mols>  (2017) 
A0566a

>  <HIPPO Compound ID>  (2017) 
441184

>  <tags>  (2017) 
openbind_a71ev2a_c2_elabs,syndirella_product,openbind_a71ev2a_c2_elabs_fragonly_scored_top80percent,BulkDock Fragalysis export,openbind_a71ev2a_c2_elabs_scored,openbind_a71ev2a_c2_elabs_scored_top80percent,openbind_a71ev2a_c2_elabs_activefrags_only_scored_5.2plus,openbind_a71ev2a_c2_elabs_activefrags_only_scored_5.5plus,syndirella_placed

>  <smina_score_min>  (2017) 
-6.84

$$$$
P586033
     RDKit          3D

 21 22  0  0  0  0  0  0  0  0999 V2000
    2.8336   14.8738   26.9947 C   0  0  0  0  0  0  0  0  0  0  0  0
    3.8566   14.3306   27.9749 C   0  0  0  0  0  0  0  0  0  0  0  0
    4.7909   13.4837   27.2909 O   0  0  0  0  0  0  0  0  0  0  0  0
    5.8574   14.1190   26.7318 C   0  0  0  0  0  0  0  0  0  0  0  0
    6.1028   15.3135   26.8185 O   0  0  0  0  0  0  0  0  0  0  0  0
    6.6772   13.1739   26.0182 C   0  0  0  0  0  0  0  0  0  0  0  0
    6.6110   11.7949   25.9267 C   0  0  0  0  0  0  0  0  0  0  0  0
    7.6547   11.3524   25.0753 C   0  0  0  0  0  0  0  0  0  0  0  0
    8.0750   10.0908   24.6258 C   0  0  0  0  0  0  0  0  0  0  0  0
    9.1317    9.9935   23.7251 C   0  0  0  0  0  0  0  0  0  0  0  0
    9.8002   11.1346   23.3195 C   0  0  0  0  0  0  0  0  0  0  0  0
    9.4459   12.4053   23.7902 C   0  0  0  0  0  0  0  0  0  0  0  0
   10.2010   13.6346   23.4343 C   0  0  0  0  0  0  0  0  0  0  0  0
   10.2347   14.5146   24.1962 O   0  0  0  0  0  0  0  0  0  0  0  0
   10.7838   13.5203   22.0214 N   0  0  0  0  0  0  0  0  0  0  0  0
   11.6122   14.4249   21.2785 C   0  0  2  0  0  0  0  0  0  0  0  0
   12.4988   15.2805   22.1445 C   0  0  0  0  0  0  0  0  0  0  0  0
   10.7266   15.1759   20.2888 C   0  0  0  0  0  0  0  0  0  0  0  0
   11.3922   14.9789   18.6587 Cl  0  0  0  0  0  0  0  0  0  0  0  0
    8.3489   12.4809   24.6548 C   0  0  0  0  0  0  0  0  0  0  0  0
    7.7457   13.5673   25.2456 N   0  0  0  0  0  0  0  0  0  0  0  0
  1  2  1  0
  2  3  1  0
  3  4  1  0
  4  5  2  0
  4  6  1  0
  6  7  2  0
  7  8  1  0
  8  9  2  0
  9 10  1  0
 10 11  2  0
 11 12  1  0
 12 13  1  0
 13 14  2  0
 13 15  1  0
 15 16  1  0
 16 17  1  1
 16 18  1  0
 18 19  1  0
 12 20  2  0
 20 21  1  0
 21  6  1  0
 20  8  1  0
M  END
>  <alias>  (2018) 
None

>  <rmsd(smina/fragmenstein)>  (2018) 
1.355

>  <smiles>  (2018) 
CCOC(=O)c1cc2cccc(C(=O)N[C@H](C)CCl)c2[nH]1

>  <gnina_score>  (2018) 
5.274

>  <inspiration_score>  (2018) 
None

>  <energy_score>  (2018) 
-15.292236

>  <distance_score>  (2018) 
1.126711

>  <gnina_score_min>  (2018) 
5.415

>  <inchikey>  (2018) 
QRTICWGSRPTDMK-SECBINFHSA-N

>  <exports>  (2018) 
['/opt/xchem-fragalysis-2/maxwin/BulkDock/OUTPUTS/openbind_a71ev2a_c2_elabs_1LOUU54.sdf', '/opt/xchem-fragalysis-2/maxwin/BulkDock/OUTPUTS/openbind_a71ev2a_c2_elabs_1LSYIDY.sdf']

>  <name>  (2018) 
P586033

>  <ref_pdb>  (2018) 
A0566a

>  <subsites>  (2018) 
None

>  <HIPPO Pose ID>  (2018) 
586033

>  <ref_mols>  (2018) 
A0566a

>  <HIPPO Compound ID>  (2018) 
441187

>  <tags>  (2018) 
openbind_a71ev2a_c2_elabs,syndirella_product,openbind_a71ev2a_c2_elabs_fragonly_scored_top80percent,openbind_a71ev2a_c2_elabs_scored,BulkDock Fragalysis export,openbind_a71ev2a_c2_elabs_scored_top80percent,openbind_a71ev2a_c2_elabs_activefrags_only_scored_5.2plus,syndirella_placed

>  <smina_score_min>  (2018) 
-6.226

$$$$
P586036
     RDKit          3D

 21 22  0  0  0  0  0  0  0  0999 V2000
   10.4398   15.5965   19.1442 C   0  0  0  0  0  0  0  0  0  0  0  0
   10.2147   15.6512   20.4617 C   0  0  0  0  0  0  0  0  0  0  0  0
   11.0967   15.1424   21.5571 C   0  0  2  0  0  0  0  0  0  0  0  0
   12.4850   14.6425   21.2181 C   0  0  0  0  0  0  0  0  0  0  0  0
   10.3814   14.0747   22.1759 N   0  0  0  0  0  0  0  0  0  0  0  0
    9.9229   13.8924   23.6246 C   0  0  0  0  0  0  0  0  0  0  0  0
    9.9861   14.6171   24.5333 O   0  0  0  0  0  0  0  0  0  0  0  0
    9.3237   12.5603   23.8270 C   0  0  0  0  0  0  0  0  0  0  0  0
    9.8686   11.4120   23.2391 C   0  0  0  0  0  0  0  0  0  0  0  0
    9.3595   10.1527   23.5197 C   0  0  0  0  0  0  0  0  0  0  0  0
    8.2994   10.0233   24.4173 C   0  0  0  0  0  0  0  0  0  0  0  0
    7.7130   11.1605   24.9974 C   0  0  0  0  0  0  0  0  0  0  0  0
    6.6355   11.3691   25.8955 C   0  0  0  0  0  0  0  0  0  0  0  0
    6.5093   12.7291   26.1193 C   0  0  0  0  0  0  0  0  0  0  0  0
    5.5786   13.4763   26.9265 C   0  0  0  0  0  0  0  0  0  0  0  0
    5.6480   14.6810   27.1226 O   0  0  0  0  0  0  0  0  0  0  0  0
    4.6315   12.6436   27.4437 O   0  0  0  0  0  0  0  0  0  0  0  0
    3.6387   13.2763   28.2642 C   0  0  0  0  0  0  0  0  0  0  0  0
    2.4975   13.7904   27.4065 C   0  0  0  0  0  0  0  0  0  0  0  0
    7.5018   13.3404   25.3857 N   0  0  0  0  0  0  0  0  0  0  0  0
    8.2369   12.4081   24.6906 C   0  0  0  0  0  0  0  0  0  0  0  0
  1  2  2  0
  2  3  1  0
  3  4  1  6
  3  5  1  0
  5  6  1  0
  6  7  2  0
  6  8  1  0
  8  9  2  0
  9 10  1  0
 10 11  2  0
 11 12  1  0
 12 13  1  0
 13 14  2  0
 14 15  1  0
 15 16  2  0
 15 17  1  0
 17 18  1  0
 18 19  1  0
 14 20  1  0
 20 21  1  0
 21  8  1  0
 21 12  2  0
M  END
>  <alias>  (2019) 
None

>  <rmsd(smina/fragmenstein)>  (2019) 
0.805

>  <smiles>  (2019) 
C=C[C@H](C)NC(=O)c1cccc2cc(C(=O)OCC)[nH]c12

>  <gnina_score>  (2019) 
5.163

>  <inspiration_score>  (2019) 
None

>  <energy_score>  (2019) 
-42.223688

>  <distance_score>  (2019) 
1.133505

>  <gnina_score_min>  (2019) 
5.293

>  <inchikey>  (2019) 
MUIWGBUBHDVMCA-JTQLQIEISA-N

>  <exports>  (2019) 
['/opt/xchem-fragalysis-2/maxwin/BulkDock/OUTPUTS/openbind_a71ev2a_c2_elabs_1LOUU54.sdf', '/opt/xchem-fragalysis-2/maxwin/BulkDock/OUTPUTS/openbind_a71ev2a_c2_elabs_1LSYIDY.sdf']

>  <name>  (2019) 
P586036

>  <ref_pdb>  (2019) 
A0566a

>  <subsites>  (2019) 
None

>  <HIPPO Pose ID>  (2019) 
586036

>  <ref_mols>  (2019) 
A0566a

>  <HIPPO Compound ID>  (2019) 
441191

>  <tags>  (2019) 
openbind_a71ev2a_c2_elabs,syndirella_product,openbind_a71ev2a_c2_elabs_fragonly_scored_top80percent,openbind_a71ev2a_c2_elabs_scored,BulkDock Fragalysis export,openbind_a71ev2a_c2_elabs_scored_top80percent,openbind_a71ev2a_c2_elabs_activefrags_only_scored_5.2plus,syndirella_placed

>  <smina_score_min>  (2019) 
-6.329

$$$$
P586038
     RDKit          3D

 21 22  0  0  0  0  0  0  0  0999 V2000
    2.7638   12.8300   28.3873 C   0  0  0  0  0  0  0  0  0  0  0  0
    3.8481   13.7854   27.9274 C   0  0  0  0  0  0  0  0  0  0  0  0
    4.8139   13.0365   27.1814 O   0  0  0  0  0  0  0  0  0  0  0  0
    5.8148   13.7973   26.6555 C   0  0  0  0  0  0  0  0  0  0  0  0
    5.9479   15.0016   26.8203 O   0  0  0  0  0  0  0  0  0  0  0  0
    6.7123   12.9731   25.8879 C   0  0  0  0  0  0  0  0  0  0  0  0
    6.7817   11.5995   25.7415 C   0  0  0  0  0  0  0  0  0  0  0  0
    7.8487   11.2975   24.8576 C   0  0  0  0  0  0  0  0  0  0  0  0
    8.3803   10.1021   24.3497 C   0  0  0  0  0  0  0  0  0  0  0  0
    9.4406   10.1421   23.4485 C   0  0  0  0  0  0  0  0  0  0  0  0
    9.9933   11.3651   23.0881 C   0  0  0  0  0  0  0  0  0  0  0  0
    9.5089   12.5756   23.5851 C   0  0  0  0  0  0  0  0  0  0  0  0
   10.1382   13.8860   23.2739 C   0  0  0  0  0  0  0  0  0  0  0  0
   10.0414   14.7077   24.0959 O   0  0  0  0  0  0  0  0  0  0  0  0
   10.7555   13.9515   21.8654 N   0  0  0  0  0  0  0  0  0  0  0  0
   11.4670   15.0113   21.2065 C   0  0  0  0  0  0  0  0  0  0  0  0
   11.2902   14.9458   19.6948 C   0  0  0  0  0  0  0  0  0  0  0  0
   10.3155   15.9112   19.0716 C   0  0  0  0  0  0  0  0  0  0  0  0
   11.8625   14.0873   19.0196 O   0  0  0  0  0  0  0  0  0  0  0  0
    8.4219   12.5042   24.4711 C   0  0  0  0  0  0  0  0  0  0  0  0
    7.7230   13.5008   25.1168 N   0  0  0  0  0  0  0  0  0  0  0  0
  1  2  1  0
  2  3  1  0
  3  4  1  0
  4  5  2  0
  4  6  1  0
  6  7  2  0
  7  8  1  0
  8  9  2  0
  9 10  1  0
 10 11  2  0
 11 12  1  0
 12 13  1  0
 13 14  2  0
 13 15  1  0
 15 16  1  0
 16 17  1  0
 17 18  1  0
 17 19  2  0
 12 20  2  0
 20 21  1  0
 21  6  1  0
 20  8  1  0
M  END
>  <alias>  (2020) 
None

>  <rmsd(smina/fragmenstein)>  (2020) 
1.954

>  <smiles>  (2020) 
CCOC(=O)c1cc2cccc(C(=O)NCC(C)=O)c2[nH]1

>  <gnina_score>  (2020) 
5.14

>  <inspiration_score>  (2020) 
None

>  <energy_score>  (2020) 
-15.618988

>  <distance_score>  (2020) 
1.026152

>  <gnina_score_min>  (2020) 
5.251

>  <inchikey>  (2020) 
YZISHRSCRJISJW-UHFFFAOYSA-N

>  <exports>  (2020) 
['/opt/xchem-fragalysis-2/maxwin/BulkDock/OUTPUTS/openbind_a71ev2a_c2_elabs_1LOUU54.sdf', '/opt/xchem-fragalysis-2/maxwin/BulkDock/OUTPUTS/openbind_a71ev2a_c2_elabs_1LSYIDY.sdf']

>  <name>  (2020) 
P586038

>  <ref_pdb>  (2020) 
A0566a

>  <subsites>  (2020) 
None

>  <HIPPO Pose ID>  (2020) 
586038

>  <ref_mols>  (2020) 
A0566a

>  <HIPPO Compound ID>  (2020) 
441194

>  <tags>  (2020) 
openbind_a71ev2a_c2_elabs,syndirella_product,openbind_a71ev2a_c2_elabs_fragonly_scored_top80percent,openbind_a71ev2a_c2_elabs_scored,BulkDock Fragalysis export,openbind_a71ev2a_c2_elabs_scored_top80percent,openbind_a71ev2a_c2_elabs_activefrags_only_scored_5.2plus,syndirella_placed

>  <smina_score_min>  (2020) 
-6.451

$$$$
P586040
     RDKit          3D

 21 22  0  0  0  0  0  0  0  0999 V2000
    2.9696   13.9333   28.4877 C   0  0  0  0  0  0  0  0  0  0  0  0
    4.1827   14.6949   27.9896 C   0  0  0  0  0  0  0  0  0  0  0  0
    5.0185   13.7786   27.2741 O   0  0  0  0  0  0  0  0  0  0  0  0
    6.1188   14.3551   26.7171 C   0  0  0  0  0  0  0  0  0  0  0  0
    6.4459   15.5269   26.8400 O   0  0  0  0  0  0  0  0  0  0  0  0
    6.8668   13.3770   25.9706 C   0  0  0  0  0  0  0  0  0  0  0  0
    6.7272   12.0034   25.8700 C   0  0  0  0  0  0  0  0  0  0  0  0
    7.7441   11.5124   25.0119 C   0  0  0  0  0  0  0  0  0  0  0  0
    8.1132   10.2292   24.5741 C   0  0  0  0  0  0  0  0  0  0  0  0
    9.1550   10.0855   23.6614 C   0  0  0  0  0  0  0  0  0  0  0  0
    9.8561   11.2013   23.2339 C   0  0  0  0  0  0  0  0  0  0  0  0
    9.5591   12.4880   23.6992 C   0  0  0  0  0  0  0  0  0  0  0  0
   10.3950   13.6644   23.3441 C   0  0  0  0  0  0  0  0  0  0  0  0
   10.6084   14.4708   24.1587 O   0  0  0  0  0  0  0  0  0  0  0  0
   10.8718   13.5700   21.8859 N   0  0  0  0  0  0  0  0  0  0  0  0
   11.7911   14.3984   21.1442 C   0  0  2  0  0  0  0  0  0  0  0  0
   12.5561   15.3605   22.0096 C   0  0  0  0  0  0  0  0  0  0  0  0
   11.0716   15.0091   19.9357 C   0  0  0  0  0  0  0  0  0  0  0  0
   10.0859   15.9586   20.3197 O   0  0  0  0  0  0  0  0  0  0  0  0
    8.4799   12.6115   24.5782 C   0  0  0  0  0  0  0  0  0  0  0  0
    7.9365   13.7235   25.1771 N   0  0  0  0  0  0  0  0  0  0  0  0
  1  2  1  0
  2  3  1  0
  3  4  1  0
  4  5  2  0
  4  6  1  0
  6  7  2  0
  7  8  1  0
  8  9  2  0
  9 10  1  0
 10 11  2  0
 11 12  1  0
 12 13  1  0
 13 14  2  0
 13 15  1  0
 15 16  1  0
 16 17  1  1
 16 18  1  0
 18 19  1  0
 12 20  2  0
 20 21  1  0
 21  6  1  0
 20  8  1  0
M  END
>  <alias>  (2021) 
None

>  <rmsd(smina/fragmenstein)>  (2021) 
1.411

>  <smiles>  (2021) 
CCOC(=O)c1cc2cccc(C(=O)N[C@H](C)CO)c2[nH]1

>  <gnina_score>  (2021) 
4.922

>  <inspiration_score>  (2021) 
None

>  <energy_score>  (2021) 
-15.280198

>  <distance_score>  (2021) 
1.028435

>  <gnina_score_min>  (2021) 
5.223

>  <inchikey>  (2021) 
QUXONGCHWXOOSH-SECBINFHSA-N

>  <exports>  (2021) 
['/opt/xchem-fragalysis-2/maxwin/BulkDock/OUTPUTS/openbind_a71ev2a_c2_elabs_1LOUU54.sdf', '/opt/xchem-fragalysis-2/maxwin/BulkDock/OUTPUTS/openbind_a71ev2a_c2_elabs_1LSYIDY.sdf']

>  <name>  (2021) 
P586040

>  <ref_pdb>  (2021) 
A0566a

>  <subsites>  (2021) 
None

>  <HIPPO Pose ID>  (2021) 
586040

>  <ref_mols>  (2021) 
A0566a

>  <HIPPO Compound ID>  (2021) 
441197

>  <tags>  (2021) 
openbind_a71ev2a_c2_elabs,syndirella_product,openbind_a71ev2a_c2_elabs_fragonly_scored_top80percent,openbind_a71ev2a_c2_elabs_scored,BulkDock Fragalysis export,openbind_a71ev2a_c2_elabs_scored_top80percent,openbind_a71ev2a_c2_elabs_activefrags_only_scored_5.2plus,syndirella_placed

>  <smina_score_min>  (2021) 
-6.117

$$$$
P586046
     RDKit          3D

 21 22  0  0  0  0  0  0  0  0999 V2000
    4.4824   13.9412   29.5466 C   0  0  0  0  0  0  0  0  0  0  0  0
    3.9681   13.8227   28.1243 C   0  0  0  0  0  0  0  0  0  0  0  0
    4.9048   13.0929   27.3200 O   0  0  0  0  0  0  0  0  0  0  0  0
    5.8843   13.8421   26.7413 C   0  0  0  0  0  0  0  0  0  0  0  0
    6.0410   15.0453   26.8900 O   0  0  0  0  0  0  0  0  0  0  0  0
    6.7436   13.0047   25.9445 C   0  0  0  0  0  0  0  0  0  0  0  0
    6.7844   11.6313   25.7834 C   0  0  0  0  0  0  0  0  0  0  0  0
    7.8419   11.3175   24.8916 C   0  0  0  0  0  0  0  0  0  0  0  0
    8.3573   10.1170   24.3766 C   0  0  0  0  0  0  0  0  0  0  0  0
    9.4166   10.1459   23.4724 C   0  0  0  0  0  0  0  0  0  0  0  0
    9.9811   11.3627   23.1122 C   0  0  0  0  0  0  0  0  0  0  0  0
    9.5096   12.5755   23.6174 C   0  0  0  0  0  0  0  0  0  0  0  0
   10.1320   13.8788   23.2756 C   0  0  0  0  0  0  0  0  0  0  0  0
   10.1312   14.7000   24.1011 O   0  0  0  0  0  0  0  0  0  0  0  0
   10.6041   13.9354   21.8156 N   0  0  0  0  0  0  0  0  0  0  0  0
   11.0902   15.0448   21.0287 C   0  0  1  0  0  0  0  0  0  0  0  0
   11.7061   14.5435   19.7297 C   0  0  0  0  0  0  0  0  0  0  0  0
    9.9939   15.9758   20.7004 C   0  0  0  0  0  0  0  0  0  0  0  0
    9.1575   16.7212   20.4005 N   0  0  0  0  0  0  0  0  0  0  0  0
    8.4291   12.5186   24.5078 C   0  0  0  0  0  0  0  0  0  0  0  0
    7.7463   13.5226   25.1568 N   0  0  0  0  0  0  0  0  0  0  0  0
  1  2  1  0
  2  3  1  0
  3  4  1  0
  4  5  2  0
  4  6  1  0
  6  7  2  0
  7  8  1  0
  8  9  2  0
  9 10  1  0
 10 11  2  0
 11 12  1  0
 12 13  1  0
 13 14  2  0
 13 15  1  0
 15 16  1  0
 16 17  1  6
 16 18  1  0
 18 19  3  0
 12 20  2  0
 20 21  1  0
 21  6  1  0
 20  8  1  0
M  END
>  <alias>  (2022) 
None

>  <rmsd(smina/fragmenstein)>  (2022) 
1.624

>  <smiles>  (2022) 
CCOC(=O)c1cc2cccc(C(=O)N[C@@H](C)C#N)c2[nH]1

>  <gnina_score>  (2022) 
5.309

>  <inspiration_score>  (2022) 
None

>  <energy_score>  (2022) 
-13.676164

>  <distance_score>  (2022) 
1.070885

>  <gnina_score_min>  (2022) 
5.333

>  <inchikey>  (2022) 
LOKFKDBUJFDECM-VIFPVBQESA-N

>  <exports>  (2022) 
['/opt/xchem-fragalysis-2/maxwin/BulkDock/OUTPUTS/openbind_a71ev2a_c2_elabs_1LOUU54.sdf', '/opt/xchem-fragalysis-2/maxwin/BulkDock/OUTPUTS/openbind_a71ev2a_c2_elabs_1LSYIDY.sdf']

>  <name>  (2022) 
P586046

>  <ref_pdb>  (2022) 
A0566a

>  <subsites>  (2022) 
None

>  <HIPPO Pose ID>  (2022) 
586046

>  <ref_mols>  (2022) 
A0566a

>  <HIPPO Compound ID>  (2022) 
441201

>  <tags>  (2022) 
openbind_a71ev2a_c2_elabs,syndirella_product,openbind_a71ev2a_c2_elabs_fragonly_scored_top80percent,openbind_a71ev2a_c2_elabs_scored,BulkDock Fragalysis export,openbind_a71ev2a_c2_elabs_scored_top80percent,openbind_a71ev2a_c2_elabs_activefrags_only_scored_5.2plus,syndirella_placed

>  <smina_score_min>  (2022) 
-6.007

$$$$
P586048
     RDKit          3D

 21 23  0  0  0  0  0  0  0  0999 V2000
    5.7819   16.9939   27.9130 C   0  0  0  0  0  0  0  0  0  0  0  0
    5.1932   16.4141   26.6422 C   0  0  0  0  0  0  0  0  0  0  0  0
    6.0622   15.3903   26.1363 O   0  0  0  0  0  0  0  0  0  0  0  0
    5.7631   14.1117   26.4925 C   0  0  0  0  0  0  0  0  0  0  0  0
    4.8685   13.7704   27.2540 O   0  0  0  0  0  0  0  0  0  0  0  0
    6.6791   13.2154   25.8313 C   0  0  0  0  0  0  0  0  0  0  0  0
    6.6828   11.8317   25.8167 C   0  0  0  0  0  0  0  0  0  0  0  0
    7.7302   11.3961   24.9649 C   0  0  0  0  0  0  0  0  0  0  0  0
    8.1822   10.1365   24.5391 C   0  0  0  0  0  0  0  0  0  0  0  0
    9.2341   10.0503   23.6296 C   0  0  0  0  0  0  0  0  0  0  0  0
    9.8712   11.2038   23.1985 C   0  0  0  0  0  0  0  0  0  0  0  0
    9.4857   12.4715   23.6438 C   0  0  0  0  0  0  0  0  0  0  0  0
   10.2390   13.7054   23.3070 C   0  0  0  0  0  0  0  0  0  0  0  0
   10.2977   14.5437   24.1191 O   0  0  0  0  0  0  0  0  0  0  0  0
   10.8364   13.6464   21.8838 N   0  0  0  0  0  0  0  0  0  0  0  0
   11.6926   14.5457   21.2095 C   0  0  0  0  0  0  0  0  0  0  0  0
   12.4484   15.4772   22.0841 C   0  0  0  0  0  0  0  0  0  0  0  0
   12.5129   14.0964   20.0356 C   0  0  0  0  0  0  0  0  0  0  0  0
   11.2707   14.8707   19.7861 C   0  0  0  0  0  0  0  0  0  0  0  0
    8.3855   12.5336   24.5063 C   0  0  0  0  0  0  0  0  0  0  0  0
    7.7394   13.6177   25.0528 N   0  0  0  0  0  0  0  0  0  0  0  0
  1  2  1  0
  2  3  1  0
  3  4  1  0
  4  5  2  0
  4  6  1  0
  6  7  2  0
  7  8  1  0
  8  9  2  0
  9 10  1  0
 10 11  2  0
 11 12  1  0
 12 13  1  0
 13 14  2  0
 13 15  1  0
 15 16  1  0
 16 17  1  0
 16 18  1  0
 18 19  1  0
 12 20  2  0
 20 21  1  0
 21  6  1  0
 20  8  1  0
 19 16  1  0
M  END
>  <alias>  (2023) 
None

>  <rmsd(smina/fragmenstein)>  (2023) 
0.948

>  <smiles>  (2023) 
CCOC(=O)c1cc2cccc(C(=O)NC3(C)CC3)c2[nH]1

>  <gnina_score>  (2023) 
5.125

>  <inspiration_score>  (2023) 
None

>  <energy_score>  (2023) 
-9.095928

>  <distance_score>  (2023) 
1.054872

>  <gnina_score_min>  (2023) 
5.234

>  <inchikey>  (2023) 
AYLRMLCWRSTTMJ-UHFFFAOYSA-N

>  <exports>  (2023) 
['/opt/xchem-fragalysis-2/maxwin/BulkDock/OUTPUTS/openbind_a71ev2a_c2_elabs_1LOUU54.sdf', '/opt/xchem-fragalysis-2/maxwin/BulkDock/OUTPUTS/openbind_a71ev2a_c2_elabs_1LSYIDY.sdf']

>  <name>  (2023) 
P586048

>  <ref_pdb>  (2023) 
A0566a

>  <subsites>  (2023) 
None

>  <HIPPO Pose ID>  (2023) 
586048

>  <ref_mols>  (2023) 
A0566a

>  <HIPPO Compound ID>  (2023) 
441203

>  <tags>  (2023) 
openbind_a71ev2a_c2_elabs,syndirella_product,openbind_a71ev2a_c2_elabs_fragonly_scored_top80percent,openbind_a71ev2a_c2_elabs_scored,BulkDock Fragalysis export,openbind_a71ev2a_c2_elabs_scored_top80percent,openbind_a71ev2a_c2_elabs_activefrags_only_scored_5.2plus,syndirella_placed

>  <smina_score_min>  (2023) 
-6.648

$$$$
P586049
     RDKit          3D

 22 24  0  0  0  0  0  0  0  0999 V2000
   11.9819   14.2509   18.9663 N   0  0  0  0  0  0  0  0  0  0  0  0
   11.5349   14.7147   19.9309 C   0  0  0  0  0  0  0  0  0  0  0  0
   10.9587   15.2608   21.1645 C   0  0  0  0  0  0  0  0  0  0  0  0
   10.2886   14.2387   21.9252 N   0  0  0  0  0  0  0  0  0  0  0  0
   10.2834   13.9611   23.4306 C   0  0  0  0  0  0  0  0  0  0  0  0
   10.7568   14.5578   24.3088 O   0  0  0  0  0  0  0  0  0  0  0  0
    9.5468   12.7142   23.7200 C   0  0  0  0  0  0  0  0  0  0  0  0
   10.0442   11.5447   23.1289 C   0  0  0  0  0  0  0  0  0  0  0  0
    9.5038   10.2987   23.3938 C   0  0  0  0  0  0  0  0  0  0  0  0
    8.4494   10.1996   24.2903 C   0  0  0  0  0  0  0  0  0  0  0  0
    7.8995   11.3535   24.8808 C   0  0  0  0  0  0  0  0  0  0  0  0
    6.8271   11.5319   25.7872 C   0  0  0  0  0  0  0  0  0  0  0  0
    6.7075   12.8757   26.0191 C   0  0  0  0  0  0  0  0  0  0  0  0
    7.6785   13.5347   25.2956 N   0  0  0  0  0  0  0  0  0  0  0  0
    7.7278   14.9937   25.2476 C   0  0  0  0  0  0  0  0  0  0  0  0
    8.1531   15.6060   26.5646 C   0  0  0  0  0  0  0  0  0  0  0  0
    7.2877   16.4802   27.2406 C   0  0  0  0  0  0  0  0  0  0  0  0
    7.6828   17.0977   28.4291 C   0  0  0  0  0  0  0  0  0  0  0  0
    8.9446   16.8468   28.9622 C   0  0  0  0  0  0  0  0  0  0  0  0
    9.8131   15.9790   28.3069 C   0  0  0  0  0  0  0  0  0  0  0  0
    9.4223   15.3699   27.1130 C   0  0  0  0  0  0  0  0  0  0  0  0
    8.4440   12.6178   24.5910 C   0  0  0  0  0  0  0  0  0  0  0  0
  1  2  3  0
  2  3  1  0
  3  4  1  0
  4  5  1  0
  5  6  2  0
  5  7  1  0
  7  8  2  0
  8  9  1  0
  9 10  2  0
 10 11  1  0
 11 12  1  0
 12 13  2  0
 13 14  1  0
 14 15  1  0
 15 16  1  0
 16 17  2  0
 17 18  1  0
 18 19  2  0
 19 20  1  0
 20 21  2  0
 14 22  1  0
 22  7  1  0
 22 11  2  0
 21 16  1  0
M  END
>  <alias>  (2024) 
None

>  <rmsd(smina/fragmenstein)>  (2024) 
0.321

>  <smiles>  (2024) 
N#CCNC(=O)c1cccc2ccn(Cc3ccccc3)c12

>  <gnina_score>  (2024) 
5.541

>  <inspiration_score>  (2024) 
None

>  <energy_score>  (2024) 
-7.102087

>  <distance_score>  (2024) 
0.947435

>  <gnina_score_min>  (2024) 
5.592

>  <inchikey>  (2024) 
KDMVHNYAQJXZCM-UHFFFAOYSA-N

>  <exports>  (2024) 
['/opt/xchem-fragalysis-2/maxwin/BulkDock/OUTPUTS/openbind_a71ev2a_c2_elabs_1LOUU54.sdf', '/opt/xchem-fragalysis-2/maxwin/BulkDock/OUTPUTS/openbind_a71ev2a_c2_elabs_1LSYIDY.sdf']

>  <name>  (2024) 
P586049

>  <ref_pdb>  (2024) 
A0566a

>  <subsites>  (2024) 
None

>  <HIPPO Pose ID>  (2024) 
586049

>  <ref_mols>  (2024) 
A0566a

>  <HIPPO Compound ID>  (2024) 
441204

>  <tags>  (2024) 
openbind_a71ev2a_c2_elabs,syndirella_product,openbind_a71ev2a_c2_elabs_fragonly_scored_top80percent,BulkDock Fragalysis export,openbind_a71ev2a_c2_elabs_scored,openbind_a71ev2a_c2_elabs_scored_top80percent,openbind_a71ev2a_c2_elabs_activefrags_only_scored_5.2plus,openbind_a71ev2a_c2_elabs_activefrags_only_scored_5.5plus,syndirella_placed

>  <smina_score_min>  (2024) 
-6.444

$$$$
P586050
     RDKit          3D

 22 25  0  0  0  0  0  0  0  0999 V2000
   10.2096   14.2741   24.7148 O   0  0  0  0  0  0  0  0  0  0  0  0
   10.1534   13.5515   23.8024 C   0  0  0  0  0  0  0  0  0  0  0  0
   10.9490   13.5416   22.4910 N   0  0  0  0  0  0  0  0  0  0  0  0
   12.0075   14.3289   22.0760 C   0  0  0  0  0  0  0  0  0  0  0  0
   11.7061   15.6952   21.6029 C   0  0  0  0  0  0  0  0  0  0  0  0
   12.1989   14.6594   20.6350 C   0  0  0  0  0  0  0  0  0  0  0  0
    9.2662   12.3726   23.8775 C   0  0  0  0  0  0  0  0  0  0  0  0
    9.7155   11.1458   23.3568 C   0  0  0  0  0  0  0  0  0  0  0  0
    9.1148    9.9534   23.6947 C   0  0  0  0  0  0  0  0  0  0  0  0
    8.0770    9.9585   24.6167 C   0  0  0  0  0  0  0  0  0  0  0  0
    7.5678   11.1684   25.1169 C   0  0  0  0  0  0  0  0  0  0  0  0
    6.5760   11.4705   26.0791 C   0  0  0  0  0  0  0  0  0  0  0  0
    6.5040   12.8370   26.1787 C   0  0  0  0  0  0  0  0  0  0  0  0
    7.3111   13.3770   25.1996 N   0  0  0  0  0  0  0  0  0  0  0  0
    7.1264   14.7405   24.6876 C   0  0  0  0  0  0  0  0  0  0  0  0
    5.8302   14.8326   23.9059 C   0  0  0  0  0  0  0  0  0  0  0  0
    5.8186   14.6195   22.5198 C   0  0  0  0  0  0  0  0  0  0  0  0
    4.6075   14.5394   21.8267 C   0  0  0  0  0  0  0  0  0  0  0  0
    3.3983   14.6749   22.5058 C   0  0  0  0  0  0  0  0  0  0  0  0
    3.3977   14.9321   23.8748 C   0  0  0  0  0  0  0  0  0  0  0  0
    4.6059   15.0268   24.5673 C   0  0  0  0  0  0  0  0  0  0  0  0
    8.1168   12.3775   24.6807 C   0  0  0  0  0  0  0  0  0  0  0  0
  1  2  2  0
  2  3  1  0
  3  4  1  0
  4  5  1  0
  5  6  1  0
  2  7  1  0
  7  8  2  0
  8  9  1  0
  9 10  2  0
 10 11  1  0
 11 12  1  0
 12 13  2  0
 13 14  1  0
 14 15  1  0
 15 16  1  0
 16 17  2  0
 17 18  1  0
 18 19  2  0
 19 20  1  0
 20 21  2  0
 14 22  1  0
  6  4  1  0
 22  7  1  0
 22 11  2  0
 21 16  1  0
M  END
>  <alias>  (2025) 
None

>  <rmsd(smina/fragmenstein)>  (2025) 
0.92

>  <smiles>  (2025) 
O=C(NC1CC1)c1cccc2ccn(Cc3ccccc3)c12

>  <gnina_score>  (2025) 
5.447

>  <inspiration_score>  (2025) 
None

>  <energy_score>  (2025) 
-2.964465

>  <distance_score>  (2025) 
1.142341

>  <gnina_score_min>  (2025) 
5.358

>  <inchikey>  (2025) 
MNQLDOZNLPPMRS-UHFFFAOYSA-N

>  <exports>  (2025) 
['/opt/xchem-fragalysis-2/maxwin/BulkDock/OUTPUTS/openbind_a71ev2a_c2_elabs_1LOUU54.sdf', '/opt/xchem-fragalysis-2/maxwin/BulkDock/OUTPUTS/openbind_a71ev2a_c2_elabs_1LSYIDY.sdf']

>  <name>  (2025) 
P586050

>  <ref_pdb>  (2025) 
A0566a

>  <subsites>  (2025) 
None

>  <HIPPO Pose ID>  (2025) 
586050

>  <ref_mols>  (2025) 
A0566a

>  <HIPPO Compound ID>  (2025) 
441207

>  <tags>  (2025) 
openbind_a71ev2a_c2_elabs,syndirella_product,openbind_a71ev2a_c2_elabs_fragonly_scored_top80percent,openbind_a71ev2a_c2_elabs_scored,BulkDock Fragalysis export,openbind_a71ev2a_c2_elabs_scored_top80percent,openbind_a71ev2a_c2_elabs_activefrags_only_scored_5.2plus,syndirella_placed

>  <smina_score_min>  (2025) 
-6.774

$$$$
P586051
     RDKit          3D

 22 24  0  0  0  0  0  0  0  0999 V2000
   12.8371   15.3023   21.6959 C   0  0  0  0  0  0  0  0  0  0  0  0
   11.6778   15.3060   21.4018 C   0  0  0  0  0  0  0  0  0  0  0  0
   10.2629   15.2568   21.0967 C   0  0  0  0  0  0  0  0  0  0  0  0
    9.7587   14.1718   21.8651 N   0  0  0  0  0  0  0  0  0  0  0  0
    9.5759   14.0240   23.3794 C   0  0  0  0  0  0  0  0  0  0  0  0
    9.7358   14.7933   24.2372 O   0  0  0  0  0  0  0  0  0  0  0  0
    9.1149   12.6729   23.7188 C   0  0  0  0  0  0  0  0  0  0  0  0
    9.8178   11.5688   23.2085 C   0  0  0  0  0  0  0  0  0  0  0  0
    9.4320   10.2754   23.5116 C   0  0  0  0  0  0  0  0  0  0  0  0
    8.3869   10.0737   24.4076 C   0  0  0  0  0  0  0  0  0  0  0  0
    7.6999   11.1618   24.9778 C   0  0  0  0  0  0  0  0  0  0  0  0
    6.6707   11.2508   25.9433 C   0  0  0  0  0  0  0  0  0  0  0  0
    6.3882   12.5809   26.1243 C   0  0  0  0  0  0  0  0  0  0  0  0
    7.1233   13.3102   25.2169 N   0  0  0  0  0  0  0  0  0  0  0  0
    6.9345   14.7471   24.9554 C   0  0  0  0  0  0  0  0  0  0  0  0
    5.5360   15.2609   25.2284 C   0  0  0  0  0  0  0  0  0  0  0  0
    4.4336   14.7763   24.5085 C   0  0  0  0  0  0  0  0  0  0  0  0
    3.1443   15.2407   24.7744 C   0  0  0  0  0  0  0  0  0  0  0  0
    2.9434   16.2189   25.7446 C   0  0  0  0  0  0  0  0  0  0  0  0
    4.0320   16.7327   26.4460 C   0  0  0  0  0  0  0  0  0  0  0  0
    5.3204   16.2572   26.1907 C   0  0  0  0  0  0  0  0  0  0  0  0
    8.0362   12.4643   24.5953 C   0  0  0  0  0  0  0  0  0  0  0  0
  1  2  3  0
  2  3  1  0
  3  4  1  0
  4  5  1  0
  5  6  2  0
  5  7  1  0
  7  8  2  0
  8  9  1  0
  9 10  2  0
 10 11  1  0
 11 12  1  0
 12 13  2  0
 13 14  1  0
 14 15  1  0
 15 16  1  0
 16 17  2  0
 17 18  1  0
 18 19  2  0
 19 20  1  0
 20 21  2  0
 14 22  1  0
 22  7  1  0
 22 11  2  0
 21 16  1  0
M  END
>  <alias>  (2026) 
None

>  <rmsd(smina/fragmenstein)>  (2026) 
0.344

>  <smiles>  (2026) 
C#CCNC(=O)c1cccc2ccn(Cc3ccccc3)c12

>  <gnina_score>  (2026) 
5.331

>  <inspiration_score>  (2026) 
None

>  <energy_score>  (2026) 
-11.505466

>  <distance_score>  (2026) 
1.415051

>  <gnina_score_min>  (2026) 
5.314

>  <inchikey>  (2026) 
LIXSAZYXCKMQGX-UHFFFAOYSA-N

>  <exports>  (2026) 
['/opt/xchem-fragalysis-2/maxwin/BulkDock/OUTPUTS/openbind_a71ev2a_c2_elabs_1LOUU54.sdf', '/opt/xchem-fragalysis-2/maxwin/BulkDock/OUTPUTS/openbind_a71ev2a_c2_elabs_1LSYIDY.sdf']

>  <name>  (2026) 
P586051

>  <ref_pdb>  (2026) 
A0566a

>  <subsites>  (2026) 
None

>  <HIPPO Pose ID>  (2026) 
586051

>  <ref_mols>  (2026) 
A0566a

>  <HIPPO Compound ID>  (2026) 
441208

>  <tags>  (2026) 
openbind_a71ev2a_c2_elabs,syndirella_product,openbind_a71ev2a_c2_elabs_fragonly_scored_top80percent,openbind_a71ev2a_c2_elabs_scored,BulkDock Fragalysis export,openbind_a71ev2a_c2_elabs_scored_top80percent,openbind_a71ev2a_c2_elabs_activefrags_only_scored_5.2plus,syndirella_placed

>  <smina_score_min>  (2026) 
-6.42

$$$$
P586052
     RDKit          3D

 22 24  0  0  0  0  0  0  0  0999 V2000
    9.4096   14.7450   24.2292 O   0  0  0  0  0  0  0  0  0  0  0  0
    9.4228   13.9489   23.3811 C   0  0  0  0  0  0  0  0  0  0  0  0
   10.0644   13.9913   21.9854 N   0  0  0  0  0  0  0  0  0  0  0  0
   10.8994   14.9757   21.3792 C   0  0  0  0  0  0  0  0  0  0  0  0
   12.3586   14.6015   21.6591 C   0  0  0  0  0  0  0  0  0  0  0  0
   12.6046   13.6910   23.7831 I   0  0  0  0  0  0  0  0  0  0  0  0
    8.8191   12.6306   23.6884 C   0  0  0  0  0  0  0  0  0  0  0  0
    9.5109   11.4711   23.2490 C   0  0  0  0  0  0  0  0  0  0  0  0
    9.1606   10.1982   23.6504 C   0  0  0  0  0  0  0  0  0  0  0  0
    8.1488   10.0549   24.5820 C   0  0  0  0  0  0  0  0  0  0  0  0
    7.4782   11.1764   25.1028 C   0  0  0  0  0  0  0  0  0  0  0  0
    6.4678   11.2881   26.0849 C   0  0  0  0  0  0  0  0  0  0  0  0
    6.1764   12.6167   26.2208 C   0  0  0  0  0  0  0  0  0  0  0  0
    6.9556   13.3341   25.3357 N   0  0  0  0  0  0  0  0  0  0  0  0
    6.7376   14.7747   25.1618 C   0  0  0  0  0  0  0  0  0  0  0  0
    7.1741   15.5914   26.3646 C   0  0  0  0  0  0  0  0  0  0  0  0
    6.3670   16.6491   26.8087 C   0  0  0  0  0  0  0  0  0  0  0  0
    6.7557   17.4437   27.8906 C   0  0  0  0  0  0  0  0  0  0  0  0
    7.9602   17.1975   28.5445 C   0  0  0  0  0  0  0  0  0  0  0  0
    8.7819   16.1621   28.1104 C   0  0  0  0  0  0  0  0  0  0  0  0
    8.3942   15.3733   27.0245 C   0  0  0  0  0  0  0  0  0  0  0  0
    7.7948   12.4666   24.6451 C   0  0  0  0  0  0  0  0  0  0  0  0
  1  2  2  0
  2  3  1  0
  3  4  1  0
  4  5  1  0
  5  6  1  0
  2  7  1  0
  7  8  2  0
  8  9  1  0
  9 10  2  0
 10 11  1  0
 11 12  1  0
 12 13  2  0
 13 14  1  0
 14 15  1  0
 15 16  1  0
 16 17  2  0
 17 18  1  0
 18 19  2  0
 19 20  1  0
 20 21  2  0
 14 22  1  0
 22  7  1  0
 22 11  2  0
 21 16  1  0
M  END
>  <alias>  (2027) 
None

>  <rmsd(smina/fragmenstein)>  (2027) 
1.005

>  <smiles>  (2027) 
O=C(NCCI)c1cccc2ccn(Cc3ccccc3)c12

>  <gnina_score>  (2027) 
5.477

>  <inspiration_score>  (2027) 
None

>  <energy_score>  (2027) 
-5.89049

>  <distance_score>  (2027) 
1.499788

>  <gnina_score_min>  (2027) 
5.212

>  <inchikey>  (2027) 
ZBGQLXNRMSKMTL-UHFFFAOYSA-N

>  <exports>  (2027) 
['/opt/xchem-fragalysis-2/maxwin/BulkDock/OUTPUTS/openbind_a71ev2a_c2_elabs_1LOUU54.sdf', '/opt/xchem-fragalysis-2/maxwin/BulkDock/OUTPUTS/openbind_a71ev2a_c2_elabs_1LSYIDY.sdf']

>  <name>  (2027) 
P586052

>  <ref_pdb>  (2027) 
A0566a

>  <subsites>  (2027) 
None

>  <HIPPO Pose ID>  (2027) 
586052

>  <ref_mols>  (2027) 
A0566a

>  <HIPPO Compound ID>  (2027) 
441209

>  <tags>  (2027) 
openbind_a71ev2a_c2_elabs,syndirella_product,openbind_a71ev2a_c2_elabs_fragonly_scored_top80percent,openbind_a71ev2a_c2_elabs_scored,BulkDock Fragalysis export,openbind_a71ev2a_c2_elabs_scored_top80percent,openbind_a71ev2a_c2_elabs_activefrags_only_scored_5.2plus,syndirella_placed

>  <smina_score_min>  (2027) 
-6.021

$$$$
P586053
     RDKit          3D

 22 24  0  0  0  0  0  0  0  0999 V2000
   12.3738   14.4800   20.6016 C   0  0  0  0  0  0  0  0  0  0  0  0
   11.0687   14.9343   19.9735 C   0  0  0  0  0  0  0  0  0  0  0  0
   10.1106   15.4640   21.0251 C   0  0  0  0  0  0  0  0  0  0  0  0
    9.6240   14.3834   21.8395 N   0  0  0  0  0  0  0  0  0  0  0  0
    9.8524   14.0731   23.3238 C   0  0  0  0  0  0  0  0  0  0  0  0
   10.4074   14.6820   24.1452 O   0  0  0  0  0  0  0  0  0  0  0  0
    9.2829   12.7637   23.6519 C   0  0  0  0  0  0  0  0  0  0  0  0
    9.9320   11.6393   23.1257 C   0  0  0  0  0  0  0  0  0  0  0  0
    9.5046   10.3573   23.4267 C   0  0  0  0  0  0  0  0  0  0  0  0
    8.4642   10.1853   24.3340 C   0  0  0  0  0  0  0  0  0  0  0  0
    7.8179   11.2991   24.9044 C   0  0  0  0  0  0  0  0  0  0  0  0
    6.7995   11.4232   25.8790 C   0  0  0  0  0  0  0  0  0  0  0  0
    6.5537   12.7622   26.0476 C   0  0  0  0  0  0  0  0  0  0  0  0
    7.2904   13.4567   25.1102 N   0  0  0  0  0  0  0  0  0  0  0  0
    6.9761   14.8412   24.7414 C   0  0  0  0  0  0  0  0  0  0  0  0
    5.6832   14.8903   23.9534 C   0  0  0  0  0  0  0  0  0  0  0  0
    4.4474   14.9844   24.6154 C   0  0  0  0  0  0  0  0  0  0  0  0
    3.2487   14.8617   23.9102 C   0  0  0  0  0  0  0  0  0  0  0  0
    3.2693   14.6619   22.5318 C   0  0  0  0  0  0  0  0  0  0  0  0
    4.4874   14.6162   21.8559 C   0  0  0  0  0  0  0  0  0  0  0  0
    5.6890   14.7358   22.5597 C   0  0  0  0  0  0  0  0  0  0  0  0
    8.1946   12.5932   24.5166 C   0  0  0  0  0  0  0  0  0  0  0  0
  1  2  1  0
  2  3  1  0
  3  4  1  0
  4  5  1  0
  5  6  2  0
  5  7  1  0
  7  8  2  0
  8  9  1  0
  9 10  2  0
 10 11  1  0
 11 12  1  0
 12 13  2  0
 13 14  1  0
 14 15  1  0
 15 16  1  0
 16 17  2  0
 17 18  1  0
 18 19  2  0
 19 20  1  0
 20 21  2  0
 14 22  1  0
 22  7  1  0
 22 11  2  0
 21 16  1  0
M  END
>  <alias>  (2028) 
None

>  <rmsd(smina/fragmenstein)>  (2028) 
0.57

>  <smiles>  (2028) 
CCCNC(=O)c1cccc2ccn(Cc3ccccc3)c12

>  <gnina_score>  (2028) 
5.317

>  <inspiration_score>  (2028) 
None

>  <energy_score>  (2028) 
-6.229912

>  <distance_score>  (2028) 
1.26843

>  <gnina_score_min>  (2028) 
5.354

>  <inchikey>  (2028) 
VUXJEEZBERXJBH-UHFFFAOYSA-N

>  <exports>  (2028) 
['/opt/xchem-fragalysis-2/maxwin/BulkDock/OUTPUTS/openbind_a71ev2a_c2_elabs_1LOUU54.sdf', '/opt/xchem-fragalysis-2/maxwin/BulkDock/OUTPUTS/openbind_a71ev2a_c2_elabs_1LSYIDY.sdf']

>  <name>  (2028) 
P586053

>  <ref_pdb>  (2028) 
A0566a

>  <subsites>  (2028) 
None

>  <HIPPO Pose ID>  (2028) 
586053

>  <ref_mols>  (2028) 
A0566a

>  <HIPPO Compound ID>  (2028) 
441210

>  <tags>  (2028) 
openbind_a71ev2a_c2_elabs,syndirella_product,openbind_a71ev2a_c2_elabs_fragonly_scored_top80percent,openbind_a71ev2a_c2_elabs_scored,BulkDock Fragalysis export,openbind_a71ev2a_c2_elabs_scored_top80percent,openbind_a71ev2a_c2_elabs_activefrags_only_scored_5.2plus,syndirella_placed

>  <smina_score_min>  (2028) 
-6.823

$$$$
P586054
     RDKit          3D

 22 24  0  0  0  0  0  0  0  0999 V2000
   12.4848   14.8323   21.4929 C   0  0  0  0  0  0  0  0  0  0  0  0
   11.0139   15.1228   21.2620 C   0  0  0  0  0  0  0  0  0  0  0  0
   10.6413   15.1166   19.7859 C   0  0  0  0  0  0  0  0  0  0  0  0
   10.2676   14.1055   21.9535 N   0  0  0  0  0  0  0  0  0  0  0  0
    9.9468   13.9450   23.4444 C   0  0  0  0  0  0  0  0  0  0  0  0
   10.1682   14.6491   24.3443 O   0  0  0  0  0  0  0  0  0  0  0  0
    9.2861   12.6537   23.6924 C   0  0  0  0  0  0  0  0  0  0  0  0
    9.8903   11.4942   23.1804 C   0  0  0  0  0  0  0  0  0  0  0  0
    9.4176   10.2320   23.4930 C   0  0  0  0  0  0  0  0  0  0  0  0
    8.3721   10.1101   24.4009 C   0  0  0  0  0  0  0  0  0  0  0  0
    7.7549   11.2524   24.9445 C   0  0  0  0  0  0  0  0  0  0  0  0
    6.7387   11.4253   25.9139 C   0  0  0  0  0  0  0  0  0  0  0  0
    6.5281   12.7738   26.0517 C   0  0  0  0  0  0  0  0  0  0  0  0
    7.2814   13.4254   25.0966 N   0  0  0  0  0  0  0  0  0  0  0  0
    6.9884   14.8000   24.6739 C   0  0  0  0  0  0  0  0  0  0  0  0
    5.6894   14.8477   23.8947 C   0  0  0  0  0  0  0  0  0  0  0  0
    5.6877   14.6738   22.5029 C   0  0  0  0  0  0  0  0  0  0  0  0
    4.4815   14.5706   21.8043 C   0  0  0  0  0  0  0  0  0  0  0  0
    3.2669   14.6481   22.4837 C   0  0  0  0  0  0  0  0  0  0  0  0
    3.2551   14.8629   23.8602 C   0  0  0  0  0  0  0  0  0  0  0  0
    4.4584   14.9731   24.5598 C   0  0  0  0  0  0  0  0  0  0  0  0
    8.1739   12.5256   24.5368 C   0  0  0  0  0  0  0  0  0  0  0  0
  1  2  1  0
  2  3  1  0
  2  4  1  0
  4  5  1  0
  5  6  2  0
  5  7  1  0
  7  8  2  0
  8  9  1  0
  9 10  2  0
 10 11  1  0
 11 12  1  0
 12 13  2  0
 13 14  1  0
 14 15  1  0
 15 16  1  0
 16 17  2  0
 17 18  1  0
 18 19  2  0
 19 20  1  0
 20 21  2  0
 14 22  1  0
 22  7  1  0
 22 11  2  0
 21 16  1  0
M  END
>  <alias>  (2029) 
None

>  <rmsd(smina/fragmenstein)>  (2029) 
0.353

>  <smiles>  (2029) 
CC(C)NC(=O)c1cccc2ccn(Cc3ccccc3)c12

>  <gnina_score>  (2029) 
5.527

>  <inspiration_score>  (2029) 
None

>  <energy_score>  (2029) 
-8.952749

>  <distance_score>  (2029) 
1.137013

>  <gnina_score_min>  (2029) 
5.391

>  <inchikey>  (2029) 
XGJSTMAXSMIPNT-UHFFFAOYSA-N

>  <exports>  (2029) 
['/opt/xchem-fragalysis-2/maxwin/BulkDock/OUTPUTS/openbind_a71ev2a_c2_elabs_1LOUU54.sdf', '/opt/xchem-fragalysis-2/maxwin/BulkDock/OUTPUTS/openbind_a71ev2a_c2_elabs_1LSYIDY.sdf']

>  <name>  (2029) 
P586054

>  <ref_pdb>  (2029) 
A0566a

>  <subsites>  (2029) 
None

>  <HIPPO Pose ID>  (2029) 
586054

>  <ref_mols>  (2029) 
A0566a

>  <HIPPO Compound ID>  (2029) 
441211

>  <tags>  (2029) 
openbind_a71ev2a_c2_elabs,syndirella_product,openbind_a71ev2a_c2_elabs_fragonly_scored_top80percent,openbind_a71ev2a_c2_elabs_scored,BulkDock Fragalysis export,openbind_a71ev2a_c2_elabs_scored_top80percent,openbind_a71ev2a_c2_elabs_activefrags_only_scored_5.2plus,syndirella_placed

>  <smina_score_min>  (2029) 
-7.39

$$$$
P586056
     RDKit          3D

 22 24  0  0  0  0  0  0  0  0999 V2000
   10.4578   14.5578   24.4437 O   0  0  0  0  0  0  0  0  0  0  0  0
   10.0878   13.9386   23.5314 C   0  0  0  0  0  0  0  0  0  0  0  0
   10.3049   14.1547   22.0295 N   0  0  0  0  0  0  0  0  0  0  0  0
   11.1020   15.1241   21.3322 C   0  0  0  0  0  0  0  0  0  0  0  0
   12.5648   14.7687   21.4994 C   0  0  0  0  0  0  0  0  0  0  0  0
   12.8784   14.7230   22.8250 F   0  0  0  0  0  0  0  0  0  0  0  0
    9.3657   12.6804   23.7755 C   0  0  0  0  0  0  0  0  0  0  0  0
    9.9042   11.5183   23.1968 C   0  0  0  0  0  0  0  0  0  0  0  0
    9.3965   10.2635   23.4777 C   0  0  0  0  0  0  0  0  0  0  0  0
    8.3489   10.1499   24.3826 C   0  0  0  0  0  0  0  0  0  0  0  0
    7.7707   11.2946   24.9659 C   0  0  0  0  0  0  0  0  0  0  0  0
    6.7101   11.4589   25.8883 C   0  0  0  0  0  0  0  0  0  0  0  0
    6.5571   12.8031   26.1031 C   0  0  0  0  0  0  0  0  0  0  0  0
    7.4909   13.4792   25.3462 N   0  0  0  0  0  0  0  0  0  0  0  0
    7.4739   14.9391   25.2422 C   0  0  0  0  0  0  0  0  0  0  0  0
    7.8447   15.6283   26.5382 C   0  0  0  0  0  0  0  0  0  0  0  0
    6.9608   16.5561   27.1110 C   0  0  0  0  0  0  0  0  0  0  0  0
    7.3063   17.2486   28.2737 C   0  0  0  0  0  0  0  0  0  0  0  0
    8.5391   17.0248   28.8815 C   0  0  0  0  0  0  0  0  0  0  0  0
    9.4289   16.1104   28.3258 C   0  0  0  0  0  0  0  0  0  0  0  0
    9.0854   15.4226   27.1599 C   0  0  0  0  0  0  0  0  0  0  0  0
    8.2721   12.5678   24.6515 C   0  0  0  0  0  0  0  0  0  0  0  0
  1  2  2  0
  2  3  1  0
  3  4  1  0
  4  5  1  0
  5  6  1  0
  2  7  1  0
  7  8  2  0
  8  9  1  0
  9 10  2  0
 10 11  1  0
 11 12  1  0
 12 13  2  0
 13 14  1  0
 14 15  1  0
 15 16  1  0
 16 17  2  0
 17 18  1  0
 18 19  2  0
 19 20  1  0
 20 21  2  0
 14 22  1  0
 22  7  1  0
 22 11  2  0
 21 16  1  0
M  END
>  <alias>  (2030) 
None

>  <rmsd(smina/fragmenstein)>  (2030) 
0.48

>  <smiles>  (2030) 
O=C(NCCF)c1cccc2ccn(Cc3ccccc3)c12

>  <gnina_score>  (2030) 
5.343

>  <inspiration_score>  (2030) 
None

>  <energy_score>  (2030) 
-12.020784

>  <distance_score>  (2030) 
1.043877

>  <gnina_score_min>  (2030) 
5.346

>  <inchikey>  (2030) 
KCULGCLSEBDSAC-UHFFFAOYSA-N

>  <exports>  (2030) 
['/opt/xchem-fragalysis-2/maxwin/BulkDock/OUTPUTS/openbind_a71ev2a_c2_elabs_1LOUU54.sdf', '/opt/xchem-fragalysis-2/maxwin/BulkDock/OUTPUTS/openbind_a71ev2a_c2_elabs_1LSYIDY.sdf']

>  <name>  (2030) 
P586056

>  <ref_pdb>  (2030) 
A0566a

>  <subsites>  (2030) 
None

>  <HIPPO Pose ID>  (2030) 
586056

>  <ref_mols>  (2030) 
A0566a

>  <HIPPO Compound ID>  (2030) 
441213

>  <tags>  (2030) 
openbind_a71ev2a_c2_elabs,syndirella_product,openbind_a71ev2a_c2_elabs_fragonly_scored_top80percent,openbind_a71ev2a_c2_elabs_scored,BulkDock Fragalysis export,openbind_a71ev2a_c2_elabs_scored_top80percent,openbind_a71ev2a_c2_elabs_activefrags_only_scored_5.2plus,syndirella_placed

>  <smina_score_min>  (2030) 
-6.828

$$$$
P586057
     RDKit          3D

 22 24  0  0  0  0  0  0  0  0999 V2000
   10.1836   14.7253   24.0552 O   0  0  0  0  0  0  0  0  0  0  0  0
    9.6027   14.0804   23.2810 C   0  0  0  0  0  0  0  0  0  0  0  0
    9.3148   14.3295   21.7944 N   0  0  0  0  0  0  0  0  0  0  0  0
    9.7622   15.3820   20.9174 C   0  0  0  0  0  0  0  0  0  0  0  0
   11.0401   14.9804   20.2127 C   0  0  0  0  0  0  0  0  0  0  0  0
   12.4757   14.8532   21.5133 Br  0  0  0  0  0  0  0  0  0  0  0  0
    9.1101   12.7611   23.6667 C   0  0  0  0  0  0  0  0  0  0  0  0
    9.8125   11.6534   23.1664 C   0  0  0  0  0  0  0  0  0  0  0  0
    9.4346   10.3639   23.4948 C   0  0  0  0  0  0  0  0  0  0  0  0
    8.4006   10.1740   24.4070 C   0  0  0  0  0  0  0  0  0  0  0  0
    7.7201   11.2745   24.9662 C   0  0  0  0  0  0  0  0  0  0  0  0
    6.7048   11.3814   25.9457 C   0  0  0  0  0  0  0  0  0  0  0  0
    6.4155   12.7143   26.0950 C   0  0  0  0  0  0  0  0  0  0  0  0
    7.1277   13.4212   25.1480 N   0  0  0  0  0  0  0  0  0  0  0  0
    6.7968   14.8073   24.7968 C   0  0  0  0  0  0  0  0  0  0  0  0
    5.5203   14.8539   23.9821 C   0  0  0  0  0  0  0  0  0  0  0  0
    4.2684   14.9064   24.6180 C   0  0  0  0  0  0  0  0  0  0  0  0
    3.0876   14.7959   23.8807 C   0  0  0  0  0  0  0  0  0  0  0  0
    3.1419   14.6439   22.4970 C   0  0  0  0  0  0  0  0  0  0  0  0
    4.3757   14.6360   21.8486 C   0  0  0  0  0  0  0  0  0  0  0  0
    5.5588   14.7494   22.5843 C   0  0  0  0  0  0  0  0  0  0  0  0
    8.0446   12.5734   24.5517 C   0  0  0  0  0  0  0  0  0  0  0  0
  1  2  2  0
  2  3  1  0
  3  4  1  0
  4  5  1  0
  5  6  1  0
  2  7  1  0
  7  8  2  0
  8  9  1  0
  9 10  2  0
 10 11  1  0
 11 12  1  0
 12 13  2  0
 13 14  1  0
 14 15  1  0
 15 16  1  0
 16 17  2  0
 17 18  1  0
 18 19  2  0
 19 20  1  0
 20 21  2  0
 14 22  1  0
 22  7  1  0
 22 11  2  0
 21 16  1  0
M  END
>  <alias>  (2031) 
None

>  <rmsd(smina/fragmenstein)>  (2031) 
0.384

>  <smiles>  (2031) 
O=C(NCCBr)c1cccc2ccn(Cc3ccccc3)c12

>  <gnina_score>  (2031) 
5.406

>  <inspiration_score>  (2031) 
None

>  <energy_score>  (2031) 
-19.956455

>  <distance_score>  (2031) 
1.459661

>  <gnina_score_min>  (2031) 
5.242

>  <inchikey>  (2031) 
QCMNLWFYVZFIPL-UHFFFAOYSA-N

>  <exports>  (2031) 
['/opt/xchem-fragalysis-2/maxwin/BulkDock/OUTPUTS/openbind_a71ev2a_c2_elabs_1LOUU54.sdf', '/opt/xchem-fragalysis-2/maxwin/BulkDock/OUTPUTS/openbind_a71ev2a_c2_elabs_1LSYIDY.sdf']

>  <name>  (2031) 
P586057

>  <ref_pdb>  (2031) 
A0566a

>  <subsites>  (2031) 
None

>  <HIPPO Pose ID>  (2031) 
586057

>  <ref_mols>  (2031) 
A0566a

>  <HIPPO Compound ID>  (2031) 
441214

>  <tags>  (2031) 
openbind_a71ev2a_c2_elabs,syndirella_product,openbind_a71ev2a_c2_elabs_fragonly_scored_top80percent,openbind_a71ev2a_c2_elabs_scored,BulkDock Fragalysis export,openbind_a71ev2a_c2_elabs_scored_top80percent,openbind_a71ev2a_c2_elabs_activefrags_only_scored_5.2plus,syndirella_placed

>  <smina_score_min>  (2031) 
-6.513

$$$$
P586058
     RDKit          3D

 22 25  0  0  0  0  0  0  0  0999 V2000
   10.1718   14.7079   24.4345 O   0  0  0  0  0  0  0  0  0  0  0  0
   10.0441   13.9811   23.5164 C   0  0  0  0  0  0  0  0  0  0  0  0
    9.3703   12.6818   23.7207 C   0  0  0  0  0  0  0  0  0  0  0  0
    9.9401   11.5379   23.1394 C   0  0  0  0  0  0  0  0  0  0  0  0
    9.4660   10.2650   23.4076 C   0  0  0  0  0  0  0  0  0  0  0  0
    8.4310   10.1094   24.3193 C   0  0  0  0  0  0  0  0  0  0  0  0
    7.8273   11.2305   24.9160 C   0  0  0  0  0  0  0  0  0  0  0  0
    6.8088   11.3593   25.8887 C   0  0  0  0  0  0  0  0  0  0  0  0
    6.6313   12.6984   26.1202 C   0  0  0  0  0  0  0  0  0  0  0  0
    7.4103   13.3998   25.2254 N   0  0  0  0  0  0  0  0  0  0  0  0
    7.2654   14.8395   24.9628 C   0  0  0  0  0  0  0  0  0  0  0  0
    5.8467   15.3408   25.1408 C   0  0  0  0  0  0  0  0  0  0  0  0
    5.5542   16.3350   26.0839 C   0  0  0  0  0  0  0  0  0  0  0  0
    4.2396   16.7649   26.2797 C   0  0  0  0  0  0  0  0  0  0  0  0
    3.2006   16.2018   25.5421 C   0  0  0  0  0  0  0  0  0  0  0  0
    3.4783   15.2262   24.5885 C   0  0  0  0  0  0  0  0  0  0  0  0
    4.7945   14.8133   24.3761 C   0  0  0  0  0  0  0  0  0  0  0  0
    8.2669   12.5183   24.5793 C   0  0  0  0  0  0  0  0  0  0  0  0
   10.5421   14.1025   22.1024 N   0  0  0  0  0  0  0  0  0  0  0  0
   11.4359   15.1348   21.4579 C   0  0  0  0  0  0  0  0  0  0  0  0
   10.6070   15.0686   20.2068 C   0  0  0  0  0  0  0  0  0  0  0  0
    9.5074   14.8318   21.1938 C   0  0  0  0  0  0  0  0  0  0  0  0
  1  2  2  0
  2  3  1  0
  3  4  2  0
  4  5  1  0
  5  6  2  0
  6  7  1  0
  7  8  1  0
  8  9  2  0
  9 10  1  0
 10 11  1  0
 11 12  1  0
 12 13  2  0
 13 14  1  0
 14 15  2  0
 15 16  1  0
 16 17  2  0
 10 18  1  0
  2 19  1  0
 19 20  1  0
 20 21  1  0
 21 22  1  0
 18  3  1  0
 22 19  1  0
 18  7  2  0
 17 12  1  0
M  END
>  <alias>  (2032) 
None

>  <rmsd(smina/fragmenstein)>  (2032) 
0.36

>  <smiles>  (2032) 
O=C(c1cccc2ccn(Cc3ccccc3)c12)N1CCC1

>  <gnina_score>  (2032) 
5.451

>  <inspiration_score>  (2032) 
None

>  <energy_score>  (2032) 
-15.139385

>  <distance_score>  (2032) 
1.033637

>  <gnina_score_min>  (2032) 
5.325

>  <inchikey>  (2032) 
AYSDKNFDSWCWRZ-UHFFFAOYSA-N

>  <exports>  (2032) 
['/opt/xchem-fragalysis-2/maxwin/BulkDock/OUTPUTS/openbind_a71ev2a_c2_elabs_1LOUU54.sdf', '/opt/xchem-fragalysis-2/maxwin/BulkDock/OUTPUTS/openbind_a71ev2a_c2_elabs_1LSYIDY.sdf']

>  <name>  (2032) 
P586058

>  <ref_pdb>  (2032) 
A0566a

>  <subsites>  (2032) 
None

>  <HIPPO Pose ID>  (2032) 
586058

>  <ref_mols>  (2032) 
A0566a

>  <HIPPO Compound ID>  (2032) 
441215

>  <tags>  (2032) 
openbind_a71ev2a_c2_elabs,syndirella_product,openbind_a71ev2a_c2_elabs_fragonly_scored_top80percent,openbind_a71ev2a_c2_elabs_scored,BulkDock Fragalysis export,openbind_a71ev2a_c2_elabs_scored_top80percent,openbind_a71ev2a_c2_elabs_activefrags_only_scored_5.2plus,syndirella_placed

>  <smina_score_min>  (2032) 
-6.759

$$$$
P586059
     RDKit          3D

 22 24  0  0  0  0  0  0  0  0999 V2000
   10.3405   14.6680   23.9250 O   0  0  0  0  0  0  0  0  0  0  0  0
    9.6300   13.9818   23.3157 C   0  0  0  0  0  0  0  0  0  0  0  0
    8.9518   14.2067   21.9649 N   0  0  0  0  0  0  0  0  0  0  0  0
    8.9258   15.3594   21.1180 C   0  0  0  0  0  0  0  0  0  0  0  0
   10.2810   15.8978   20.7068 C   0  0  0  0  0  0  0  0  0  0  0  0
   11.1553   14.8218   19.5272 S   0  0  0  0  0  0  0  0  0  0  0  0
    9.2395   12.6570   23.7856 C   0  0  0  0  0  0  0  0  0  0  0  0
    9.8898   11.5608   23.2080 C   0  0  0  0  0  0  0  0  0  0  0  0
    9.4758   10.2709   23.4858 C   0  0  0  0  0  0  0  0  0  0  0  0
    8.4337   10.0723   24.3888 C   0  0  0  0  0  0  0  0  0  0  0  0
    7.7785   11.1622   24.9939 C   0  0  0  0  0  0  0  0  0  0  0  0
    6.7399   11.2552   25.9484 C   0  0  0  0  0  0  0  0  0  0  0  0
    6.5042   12.5883   26.1718 C   0  0  0  0  0  0  0  0  0  0  0  0
    7.2766   13.3212   25.2977 N   0  0  0  0  0  0  0  0  0  0  0  0
    7.1566   14.7729   25.0977 C   0  0  0  0  0  0  0  0  0  0  0  0
    5.7673   15.3184   25.3517 C   0  0  0  0  0  0  0  0  0  0  0  0
    4.6628   14.8506   24.6208 C   0  0  0  0  0  0  0  0  0  0  0  0
    3.3810   15.3443   24.8680 C   0  0  0  0  0  0  0  0  0  0  0  0
    3.1902   16.3344   25.8280 C   0  0  0  0  0  0  0  0  0  0  0  0
    4.2810   16.8296   26.5395 C   0  0  0  0  0  0  0  0  0  0  0  0
    5.5620   16.3248   26.3047 C   0  0  0  0  0  0  0  0  0  0  0  0
    8.1603   12.4649   24.6575 C   0  0  0  0  0  0  0  0  0  0  0  0
  1  2  2  0
  2  3  1  0
  3  4  1  0
  4  5  1  0
  5  6  1  0
  2  7  1  0
  7  8  2  0
  8  9  1  0
  9 10  2  0
 10 11  1  0
 11 12  1  0
 12 13  2  0
 13 14  1  0
 14 15  1  0
 15 16  1  0
 16 17  2  0
 17 18  1  0
 18 19  2  0
 19 20  1  0
 20 21  2  0
 14 22  1  0
 22  7  1  0
 22 11  2  0
 21 16  1  0
M  END
>  <alias>  (2033) 
None

>  <rmsd(smina/fragmenstein)>  (2033) 
0.44

>  <smiles>  (2033) 
O=C(NCCS)c1cccc2ccn(Cc3ccccc3)c12

>  <gnina_score>  (2033) 
5.359

>  <inspiration_score>  (2033) 
None

>  <energy_score>  (2033) 
-11.978445

>  <distance_score>  (2033) 
1.565746

>  <gnina_score_min>  (2033) 
5.412

>  <inchikey>  (2033) 
FVXYBNORFQBQSW-UHFFFAOYSA-N

>  <exports>  (2033) 
['/opt/xchem-fragalysis-2/maxwin/BulkDock/OUTPUTS/openbind_a71ev2a_c2_elabs_1LOUU54.sdf', '/opt/xchem-fragalysis-2/maxwin/BulkDock/OUTPUTS/openbind_a71ev2a_c2_elabs_1LSYIDY.sdf']

>  <name>  (2033) 
P586059

>  <ref_pdb>  (2033) 
A0566a

>  <subsites>  (2033) 
None

>  <HIPPO Pose ID>  (2033) 
586059

>  <ref_mols>  (2033) 
A0566a

>  <HIPPO Compound ID>  (2033) 
441216

>  <tags>  (2033) 
openbind_a71ev2a_c2_elabs,syndirella_product,openbind_a71ev2a_c2_elabs_fragonly_scored_top80percent,openbind_a71ev2a_c2_elabs_scored,BulkDock Fragalysis export,openbind_a71ev2a_c2_elabs_scored_top80percent,openbind_a71ev2a_c2_elabs_activefrags_only_scored_5.2plus,syndirella_placed

>  <smina_score_min>  (2033) 
-5.72

$$$$
P586060
     RDKit          3D

 23 25  0  0  0  0  0  0  0  0999 V2000
   10.8443   13.8936   24.7915 O   0  0  0  0  0  0  0  0  0  0  0  0
   10.5298   13.2902   23.8510 C   0  0  0  0  0  0  0  0  0  0  0  0
   11.1242   13.2666   22.4468 N   0  0  0  0  0  0  0  0  0  0  0  0
   12.2815   13.9021   21.9231 C   0  0  0  0  0  0  0  0  0  0  0  0
   12.0347   15.3223   21.5210 C   0  0  2  0  0  0  0  0  0  0  0  0
   11.9962   16.0831   22.6440 F   0  0  0  0  0  0  0  0  0  0  0  0
   10.5160   15.4928   20.5980 Cl  0  0  0  0  0  0  0  0  0  0  0  0
    9.4489   12.2888   23.9639 C   0  0  0  0  0  0  0  0  0  0  0  0
    9.7182   11.0246   23.4091 C   0  0  0  0  0  0  0  0  0  0  0  0
    8.9928    9.9124   23.7518 C   0  0  0  0  0  0  0  0  0  0  0  0
    7.9610   10.0330   24.6669 C   0  0  0  0  0  0  0  0  0  0  0  0
    7.5787   11.2967   25.1471 C   0  0  0  0  0  0  0  0  0  0  0  0
    6.5368   11.6974   26.0130 C   0  0  0  0  0  0  0  0  0  0  0  0
    6.6148   13.0570   26.1410 C   0  0  0  0  0  0  0  0  0  0  0  0
    7.6947   13.5080   25.4116 N   0  0  0  0  0  0  0  0  0  0  0  0
    7.9599   14.9348   25.2493 C   0  0  0  0  0  0  0  0  0  0  0  0
    8.2340   15.6288   26.5678 C   0  0  0  0  0  0  0  0  0  0  0  0
    7.2730   16.4918   27.1194 C   0  0  0  0  0  0  0  0  0  0  0  0
    7.5244   17.1701   28.3134 C   0  0  0  0  0  0  0  0  0  0  0  0
    8.7342   16.9893   28.9785 C   0  0  0  0  0  0  0  0  0  0  0  0
    9.6931   16.1292   28.4510 C   0  0  0  0  0  0  0  0  0  0  0  0
    9.4457   15.4573   27.2522 C   0  0  0  0  0  0  0  0  0  0  0  0
    8.3153   12.4366   24.7858 C   0  0  0  0  0  0  0  0  0  0  0  0
  1  2  2  0
  2  3  1  0
  3  4  1  0
  4  5  1  0
  5  6  1  1
  5  7  1  0
  2  8  1  0
  8  9  2  0
  9 10  1  0
 10 11  2  0
 11 12  1  0
 12 13  1  0
 13 14  2  0
 14 15  1  0
 15 16  1  0
 16 17  1  0
 17 18  2  0
 18 19  1  0
 19 20  2  0
 20 21  1  0
 21 22  2  0
 15 23  1  0
 23  8  1  0
 23 12  2  0
 22 17  1  0
M  END
>  <alias>  (2034) 
None

>  <rmsd(smina/fragmenstein)>  (2034) 
0.552

>  <smiles>  (2034) 
O=C(NC[C@H](F)Cl)c1cccc2ccn(Cc3ccccc3)c12

>  <gnina_score>  (2034) 
5.541

>  <inspiration_score>  (2034) 
None

>  <energy_score>  (2034) 
-0.636647

>  <distance_score>  (2034) 
1.091738

>  <gnina_score_min>  (2034) 
5.529

>  <inchikey>  (2034) 
IXXPORLTXHBJEK-INIZCTEOSA-N

>  <exports>  (2034) 
['/opt/xchem-fragalysis-2/maxwin/BulkDock/OUTPUTS/openbind_a71ev2a_c2_elabs_1LOUU54.sdf', '/opt/xchem-fragalysis-2/maxwin/BulkDock/OUTPUTS/openbind_a71ev2a_c2_elabs_1LSYIDY.sdf']

>  <name>  (2034) 
P586060

>  <ref_pdb>  (2034) 
A0566a

>  <subsites>  (2034) 
None

>  <HIPPO Pose ID>  (2034) 
586060

>  <ref_mols>  (2034) 
A0566a

>  <HIPPO Compound ID>  (2034) 
441221

>  <tags>  (2034) 
openbind_a71ev2a_c2_elabs,syndirella_product,openbind_a71ev2a_c2_elabs_fragonly_scored_top80percent,BulkDock Fragalysis export,openbind_a71ev2a_c2_elabs_scored,openbind_a71ev2a_c2_elabs_scored_top80percent,openbind_a71ev2a_c2_elabs_activefrags_only_scored_5.2plus,openbind_a71ev2a_c2_elabs_activefrags_only_scored_5.5plus,syndirella_placed

>  <smina_score_min>  (2034) 
-6.377

$$$$
P586062
     RDKit          3D

 23 26  0  0  0  0  0  0  0  0999 V2000
   10.0930   14.6176   24.4904 O   0  0  0  0  0  0  0  0  0  0  0  0
    9.7755   13.9767   23.5713 C   0  0  0  0  0  0  0  0  0  0  0  0
    9.9711   14.2248   22.0695 N   0  0  0  0  0  0  0  0  0  0  0  0
   10.6865   15.2732   21.3752 C   0  0  0  0  0  0  0  0  0  0  0  0
   12.1699   15.2968   21.8127 C   0  0  0  0  0  0  0  0  0  0  0  0
   12.4599   14.3608   20.6356 C   0  0  0  0  0  0  0  0  0  0  0  0
   11.1670   14.8492   19.9745 C   0  0  0  0  0  0  0  0  0  0  0  0
    9.1689   12.6616   23.7870 C   0  0  0  0  0  0  0  0  0  0  0  0
    9.8163   11.5402   23.2403 C   0  0  0  0  0  0  0  0  0  0  0  0
    9.3827   10.2580   23.5234 C   0  0  0  0  0  0  0  0  0  0  0  0
    8.3406   10.0835   24.4289 C   0  0  0  0  0  0  0  0  0  0  0  0
    7.6871   11.1907   25.0037 C   0  0  0  0  0  0  0  0  0  0  0  0
    6.6636   11.3101   25.9733 C   0  0  0  0  0  0  0  0  0  0  0  0
    6.4141   12.6483   26.1464 C   0  0  0  0  0  0  0  0  0  0  0  0
    7.1623   13.3493   25.2234 N   0  0  0  0  0  0  0  0  0  0  0  0
    6.8614   14.7413   24.8692 C   0  0  0  0  0  0  0  0  0  0  0  0
    5.5969   14.8129   24.0385 C   0  0  0  0  0  0  0  0  0  0  0  0
    5.6554   14.7081   22.6410 C   0  0  0  0  0  0  0  0  0  0  0  0
    4.4803   14.6241   21.8891 C   0  0  0  0  0  0  0  0  0  0  0  0
    3.2376   14.6576   22.5199 C   0  0  0  0  0  0  0  0  0  0  0  0
    3.1661   14.8087   23.9030 C   0  0  0  0  0  0  0  0  0  0  0  0
    4.3380   14.8929   24.6571 C   0  0  0  0  0  0  0  0  0  0  0  0
    8.0674   12.4847   24.6315 C   0  0  0  0  0  0  0  0  0  0  0  0
  1  2  2  0
  2  3  1  0
  3  4  1  0
  4  5  1  0
  5  6  1  0
  6  7  1  0
  2  8  1  0
  8  9  2  0
  9 10  1  0
 10 11  2  0
 11 12  1  0
 12 13  1  0
 13 14  2  0
 14 15  1  0
 15 16  1  0
 16 17  1  0
 17 18  2  0
 18 19  1  0
 19 20  2  0
 20 21  1  0
 21 22  2  0
 15 23  1  0
  7  4  1  0
 23  8  1  0
 23 12  2  0
 22 17  1  0
M  END
>  <alias>  (2035) 
None

>  <rmsd(smina/fragmenstein)>  (2035) 
0.42

>  <smiles>  (2035) 
O=C(NC1CCC1)c1cccc2ccn(Cc3ccccc3)c12

>  <gnina_score>  (2035) 
5.516

>  <inspiration_score>  (2035) 
None

>  <energy_score>  (2035) 
-6.054894

>  <distance_score>  (2035) 
1.246529

>  <gnina_score_min>  (2035) 
5.397

>  <inchikey>  (2035) 
VVVCCHJJBHNMOA-UHFFFAOYSA-N

>  <exports>  (2035) 
['/opt/xchem-fragalysis-2/maxwin/BulkDock/OUTPUTS/openbind_a71ev2a_c2_elabs_1LOUU54.sdf', '/opt/xchem-fragalysis-2/maxwin/BulkDock/OUTPUTS/openbind_a71ev2a_c2_elabs_1LSYIDY.sdf']

>  <name>  (2035) 
P586062

>  <ref_pdb>  (2035) 
A0566a

>  <subsites>  (2035) 
None

>  <HIPPO Pose ID>  (2035) 
586062

>  <ref_mols>  (2035) 
A0566a

>  <HIPPO Compound ID>  (2035) 
441224

>  <tags>  (2035) 
openbind_a71ev2a_c2_elabs,syndirella_product,openbind_a71ev2a_c2_elabs_fragonly_scored_top80percent,openbind_a71ev2a_c2_elabs_scored,BulkDock Fragalysis export,openbind_a71ev2a_c2_elabs_scored_top80percent,openbind_a71ev2a_c2_elabs_activefrags_only_scored_5.2plus,syndirella_placed

>  <smina_score_min>  (2035) 
-7.254

$$$$
P586065
     RDKit          3D

 23 25  0  0  0  0  0  0  0  0999 V2000
   10.5307   15.1157   19.8148 C   0  0  0  0  0  0  0  0  0  0  0  0
   10.8520   15.0616   21.2983 C   0  0  2  0  0  0  0  0  0  0  0  0
   12.3402   14.7654   21.5555 C   0  0  0  0  0  0  0  0  0  0  0  0
   12.6531   14.1134   23.2440 S   0  0  0  0  0  0  0  0  0  0  0  0
   10.0578   14.0474   21.9462 N   0  0  0  0  0  0  0  0  0  0  0  0
    9.4823   13.9881   23.3706 C   0  0  0  0  0  0  0  0  0  0  0  0
    9.4920   14.7820   24.2224 O   0  0  0  0  0  0  0  0  0  0  0  0
    8.9254   12.6541   23.6799 C   0  0  0  0  0  0  0  0  0  0  0  0
    9.6109   11.5052   23.2264 C   0  0  0  0  0  0  0  0  0  0  0  0
    9.2370   10.2316   23.6120 C   0  0  0  0  0  0  0  0  0  0  0  0
    8.2160   10.0852   24.5401 C   0  0  0  0  0  0  0  0  0  0  0  0
    7.5437   11.2078   25.0574 C   0  0  0  0  0  0  0  0  0  0  0  0
    6.5454   11.3481   26.0486 C   0  0  0  0  0  0  0  0  0  0  0  0
    6.2692   12.6854   26.1696 C   0  0  0  0  0  0  0  0  0  0  0  0
    6.9714   13.3658   25.2002 N   0  0  0  0  0  0  0  0  0  0  0  0
    6.7591   14.7862   24.8699 C   0  0  0  0  0  0  0  0  0  0  0  0
    5.3565   15.2963   25.1348 C   0  0  0  0  0  0  0  0  0  0  0  0
    5.1419   16.3372   26.0494 C   0  0  0  0  0  0  0  0  0  0  0  0
    3.8516   16.8084   26.3033 C   0  0  0  0  0  0  0  0  0  0  0  0
    2.7589   16.2462   25.6473 C   0  0  0  0  0  0  0  0  0  0  0  0
    2.9580   15.2254   24.7217 C   0  0  0  0  0  0  0  0  0  0  0  0
    4.2494   14.7650   24.4574 C   0  0  0  0  0  0  0  0  0  0  0  0
    7.8651   12.4884   24.5906 C   0  0  0  0  0  0  0  0  0  0  0  0
  2  1  1  6
  2  3  1  0
  3  4  1  0
  2  5  1  0
  5  6  1  0
  6  7  2  0
  6  8  1  0
  8  9  2  0
  9 10  1  0
 10 11  2  0
 11 12  1  0
 12 13  1  0
 13 14  2  0
 14 15  1  0
 15 16  1  0
 16 17  1  0
 17 18  2  0
 18 19  1  0
 19 20  2  0
 20 21  1  0
 21 22  2  0
 15 23  1  0
 23  8  1  0
 23 12  2  0
 22 17  1  0
M  END
>  <alias>  (2036) 
None

>  <rmsd(smina/fragmenstein)>  (2036) 
0.438

>  <smiles>  (2036) 
C[C@H](CS)NC(=O)c1cccc2ccn(Cc3ccccc3)c12

>  <gnina_score>  (2036) 
5.792

>  <inspiration_score>  (2036) 
None

>  <energy_score>  (2036) 
-13.2177

>  <distance_score>  (2036) 
1.446355

>  <gnina_score_min>  (2036) 
5.687

>  <inchikey>  (2036) 
FWWOHNCZDANGFI-CQSZACIVSA-N

>  <exports>  (2036) 
['/opt/xchem-fragalysis-2/maxwin/BulkDock/OUTPUTS/openbind_a71ev2a_c2_elabs_1LOUU54.sdf', '/opt/xchem-fragalysis-2/maxwin/BulkDock/OUTPUTS/openbind_a71ev2a_c2_elabs_1LSYIDY.sdf']

>  <name>  (2036) 
P586065

>  <ref_pdb>  (2036) 
A0566a

>  <subsites>  (2036) 
None

>  <HIPPO Pose ID>  (2036) 
586065

>  <ref_mols>  (2036) 
A0566a

>  <HIPPO Compound ID>  (2036) 
441226

>  <tags>  (2036) 
openbind_a71ev2a_c2_elabs,syndirella_product,openbind_a71ev2a_c2_elabs_fragonly_scored_top80percent,BulkDock Fragalysis export,openbind_a71ev2a_c2_elabs_scored,openbind_a71ev2a_c2_elabs_scored_top80percent,openbind_a71ev2a_c2_elabs_activefrags_only_scored_5.2plus,openbind_a71ev2a_c2_elabs_activefrags_only_scored_5.5plus,syndirella_placed

>  <smina_score_min>  (2036) 
-6.108

$$$$
P586066
     RDKit          3D

 23 25  0  0  0  0  0  0  0  0999 V2000
   10.4132   14.6850   24.0318 O   0  0  0  0  0  0  0  0  0  0  0  0
    9.7576   14.0838   23.2819 C   0  0  0  0  0  0  0  0  0  0  0  0
    9.3920   14.3790   21.8199 N   0  0  0  0  0  0  0  0  0  0  0  0
    9.8310   15.4250   20.9426 C   0  0  0  0  0  0  0  0  0  0  0  0
   10.9167   14.8495   20.1017 C   0  0  0  0  0  0  0  0  0  0  0  0
   12.1682   14.6271   20.5087 C   0  0  0  0  0  0  0  0  0  0  0  0
   12.7519   15.0179   22.0607 Cl  0  0  0  0  0  0  0  0  0  0  0  0
    9.2356   12.7791   23.6852 C   0  0  0  0  0  0  0  0  0  0  0  0
    9.8694   11.6547   23.1383 C   0  0  0  0  0  0  0  0  0  0  0  0
    9.4498   10.3739   23.4513 C   0  0  0  0  0  0  0  0  0  0  0  0
    8.4103   10.2048   24.3606 C   0  0  0  0  0  0  0  0  0  0  0  0
    7.7785   11.3190   24.9497 C   0  0  0  0  0  0  0  0  0  0  0  0
    6.7250   11.4376   25.8878 C   0  0  0  0  0  0  0  0  0  0  0  0
    6.5151   12.7749   26.1056 C   0  0  0  0  0  0  0  0  0  0  0  0
    7.4031   13.4908   25.3325 N   0  0  0  0  0  0  0  0  0  0  0  0
    7.3824   14.9532   25.2915 C   0  0  0  0  0  0  0  0  0  0  0  0
    7.9506   15.5799   26.5463 C   0  0  0  0  0  0  0  0  0  0  0  0
    7.1781   16.4909   27.2830 C   0  0  0  0  0  0  0  0  0  0  0  0
    7.7016   17.1180   28.4160 C   0  0  0  0  0  0  0  0  0  0  0  0
    9.0023   16.8429   28.8311 C   0  0  0  0  0  0  0  0  0  0  0  0
    9.7829   15.9440   28.1105 C   0  0  0  0  0  0  0  0  0  0  0  0
    9.2639   15.3270   26.9705 C   0  0  0  0  0  0  0  0  0  0  0  0
    8.1940   12.6149   24.6083 C   0  0  0  0  0  0  0  0  0  0  0  0
  1  2  2  0
  2  3  1  0
  3  4  1  0
  4  5  1  0
  5  6  2  0
  6  7  1  0
  2  8  1  0
  8  9  2  0
  9 10  1  0
 10 11  2  0
 11 12  1  0
 12 13  1  0
 13 14  2  0
 14 15  1  0
 15 16  1  0
 16 17  1  0
 17 18  2  0
 18 19  1  0
 19 20  2  0
 20 21  1  0
 21 22  2  0
 15 23  1  0
 23  8  1  0
 23 12  2  0
 22 17  1  0
M  END
>  <alias>  (2037) 
None

>  <rmsd(smina/fragmenstein)>  (2037) 
0.367

>  <smiles>  (2037) 
O=C(NC/C=C\Cl)c1cccc2ccn(Cc3ccccc3)c12

>  <gnina_score>  (2037) 
5.521

>  <inspiration_score>  (2037) 
None

>  <energy_score>  (2037) 
-3.832687

>  <distance_score>  (2037) 
1.360877

>  <gnina_score_min>  (2037) 
5.512

>  <inchikey>  (2037) 
JWRRGRMRFVAGTR-WZUFQYTHSA-N

>  <exports>  (2037) 
['/opt/xchem-fragalysis-2/maxwin/BulkDock/OUTPUTS/openbind_a71ev2a_c2_elabs_1LOUU54.sdf', '/opt/xchem-fragalysis-2/maxwin/BulkDock/OUTPUTS/openbind_a71ev2a_c2_elabs_1LSYIDY.sdf']

>  <name>  (2037) 
P586066

>  <ref_pdb>  (2037) 
A0566a

>  <subsites>  (2037) 
None

>  <HIPPO Pose ID>  (2037) 
586066

>  <ref_mols>  (2037) 
A0566a

>  <HIPPO Compound ID>  (2037) 
441227

>  <tags>  (2037) 
openbind_a71ev2a_c2_elabs,syndirella_product,openbind_a71ev2a_c2_elabs_fragonly_scored_top80percent,BulkDock Fragalysis export,openbind_a71ev2a_c2_elabs_scored,openbind_a71ev2a_c2_elabs_scored_top80percent,openbind_a71ev2a_c2_elabs_activefrags_only_scored_5.2plus,openbind_a71ev2a_c2_elabs_activefrags_only_scored_5.5plus,syndirella_placed

>  <smina_score_min>  (2037) 
-6.817

$$$$
P586067
     RDKit          3D

 23 25  0  0  0  0  0  0  0  0999 V2000
    9.8562   15.9583   20.2527 C   0  0  0  0  0  0  0  0  0  0  0  0
   11.0133   15.0213   19.9410 C   0  0  0  0  0  0  0  0  0  0  0  0
   11.7060   14.4239   21.1676 C   0  0  1  0  0  0  0  0  0  0  0  0
   12.5206   15.3675   22.0101 C   0  0  0  0  0  0  0  0  0  0  0  0
   10.7575   13.6425   21.9168 N   0  0  0  0  0  0  0  0  0  0  0  0
   10.4010   13.6679   23.4146 C   0  0  0  0  0  0  0  0  0  0  0  0
   10.7628   14.3774   24.2653 O   0  0  0  0  0  0  0  0  0  0  0  0
    9.5252   12.5095   23.7476 C   0  0  0  0  0  0  0  0  0  0  0  0
    9.9126   11.2590   23.2263 C   0  0  0  0  0  0  0  0  0  0  0  0
    9.2920   10.0748   23.5663 C   0  0  0  0  0  0  0  0  0  0  0  0
    8.2475   10.1094   24.4717 C   0  0  0  0  0  0  0  0  0  0  0  0
    7.7835   11.3351   24.9821 C   0  0  0  0  0  0  0  0  0  0  0  0
    6.7225   11.6322   25.8687 C   0  0  0  0  0  0  0  0  0  0  0  0
    6.6921   12.9898   26.0229 C   0  0  0  0  0  0  0  0  0  0  0  0
    7.7158   13.5409   25.2804 N   0  0  0  0  0  0  0  0  0  0  0  0
    7.8730   14.9881   25.1873 C   0  0  0  0  0  0  0  0  0  0  0  0
    8.2866   15.6007   26.5097 C   0  0  0  0  0  0  0  0  0  0  0  0
    7.4042   16.4496   27.1969 C   0  0  0  0  0  0  0  0  0  0  0  0
    7.7831   17.0492   28.3996 C   0  0  0  0  0  0  0  0  0  0  0  0
    9.0434   16.8018   28.9379 C   0  0  0  0  0  0  0  0  0  0  0  0
    9.9260   15.9544   28.2744 C   0  0  0  0  0  0  0  0  0  0  0  0
    9.5524   15.3647   27.0655 C   0  0  0  0  0  0  0  0  0  0  0  0
    8.4170   12.5410   24.6216 C   0  0  0  0  0  0  0  0  0  0  0  0
  1  2  1  0
  2  3  1  0
  3  4  1  1
  3  5  1  0
  5  6  1  0
  6  7  2  0
  6  8  1  0
  8  9  2  0
  9 10  1  0
 10 11  2  0
 11 12  1  0
 12 13  1  0
 13 14  2  0
 14 15  1  0
 15 16  1  0
 16 17  1  0
 17 18  2  0
 18 19  1  0
 19 20  2  0
 20 21  1  0
 21 22  2  0
 15 23  1  0
 23  8  1  0
 23 12  2  0
 22 17  1  0
M  END
>  <alias>  (2038) 
None

>  <rmsd(smina/fragmenstein)>  (2038) 
0.598

>  <smiles>  (2038) 
CC[C@@H](C)NC(=O)c1cccc2ccn(Cc3ccccc3)c12

>  <gnina_score>  (2038) 
5.642

>  <inspiration_score>  (2038) 
None

>  <energy_score>  (2038) 
-8.801281

>  <distance_score>  (2038) 
0.972607

>  <gnina_score_min>  (2038) 
5.542

>  <inchikey>  (2038) 
ULZSDXRDOIJDBO-OAHLLOKOSA-N

>  <exports>  (2038) 
['/opt/xchem-fragalysis-2/maxwin/BulkDock/OUTPUTS/openbind_a71ev2a_c2_elabs_1LOUU54.sdf', '/opt/xchem-fragalysis-2/maxwin/BulkDock/OUTPUTS/openbind_a71ev2a_c2_elabs_1LSYIDY.sdf']

>  <name>  (2038) 
P586067

>  <ref_pdb>  (2038) 
A0566a

>  <subsites>  (2038) 
None

>  <HIPPO Pose ID>  (2038) 
586067

>  <ref_mols>  (2038) 
A0566a

>  <HIPPO Compound ID>  (2038) 
441228

>  <tags>  (2038) 
openbind_a71ev2a_c2_elabs,syndirella_product,openbind_a71ev2a_c2_elabs_fragonly_scored_top80percent,BulkDock Fragalysis export,openbind_a71ev2a_c2_elabs_scored,openbind_a71ev2a_c2_elabs_scored_top80percent,openbind_a71ev2a_c2_elabs_activefrags_only_scored_5.2plus,openbind_a71ev2a_c2_elabs_activefrags_only_scored_5.5plus,syndirella_placed

>  <smina_score_min>  (2038) 
-7.14

$$$$
P586069
     RDKit          3D

 23 25  0  0  0  0  0  0  0  0999 V2000
   10.0863   15.3607   19.8154 O   0  0  0  0  0  0  0  0  0  0  0  0
   11.2391   14.8708   20.0067 C   0  0  0  0  0  0  0  0  0  0  0  0
   12.0437   14.3418   19.1874 O   0  0  0  0  0  0  0  0  0  0  0  0
   11.6603   14.8324   21.4975 C   0  0  0  0  0  0  0  0  0  0  0  0
   10.8906   13.8054   22.1677 N   0  0  0  0  0  0  0  0  0  0  0  0
   10.2949   13.7682   23.5781 C   0  0  0  0  0  0  0  0  0  0  0  0
   10.3907   14.5248   24.4593 O   0  0  0  0  0  0  0  0  0  0  0  0
    9.4731   12.5411   23.7615 C   0  0  0  0  0  0  0  0  0  0  0  0
    9.9217   11.3194   23.2336 C   0  0  0  0  0  0  0  0  0  0  0  0
    9.3272   10.1105   23.5500 C   0  0  0  0  0  0  0  0  0  0  0  0
    8.2861   10.0911   24.4675 C   0  0  0  0  0  0  0  0  0  0  0  0
    7.7766   11.2941   24.9862 C   0  0  0  0  0  0  0  0  0  0  0  0
    6.7740   11.5782   25.9448 C   0  0  0  0  0  0  0  0  0  0  0  0
    6.6888   12.9433   26.0558 C   0  0  0  0  0  0  0  0  0  0  0  0
    7.4867   13.4957   25.0739 N   0  0  0  0  0  0  0  0  0  0  0  0
    7.2577   14.8394   24.5262 C   0  0  0  0  0  0  0  0  0  0  0  0
    5.9274   14.8888   23.7996 C   0  0  0  0  0  0  0  0  0  0  0  0
    5.8672   14.6381   22.4215 C   0  0  0  0  0  0  0  0  0  0  0  0
    4.6322   14.5235   21.7777 C   0  0  0  0  0  0  0  0  0  0  0  0
    3.4471   14.6616   22.4975 C   0  0  0  0  0  0  0  0  0  0  0  0
    3.4941   14.9539   23.8589 C   0  0  0  0  0  0  0  0  0  0  0  0
    4.7263   15.0849   24.5019 C   0  0  0  0  0  0  0  0  0  0  0  0
    8.3253   12.5148   24.5711 C   0  0  0  0  0  0  0  0  0  0  0  0
  1  2  2  0
  2  3  1  0
  2  4  1  0
  4  5  1  0
  5  6  1  0
  6  7  2  0
  6  8  1  0
  8  9  2  0
  9 10  1  0
 10 11  2  0
 11 12  1  0
 12 13  1  0
 13 14  2  0
 14 15  1  0
 15 16  1  0
 16 17  1  0
 17 18  2  0
 18 19  1  0
 19 20  2  0
 20 21  1  0
 21 22  2  0
 15 23  1  0
 23  8  1  0
 23 12  2  0
 22 17  1  0
M  CHG  1   3  -1
M  END
>  <alias>  (2039) 
None

>  <rmsd(smina/fragmenstein)>  (2039) 
0.408

>  <smiles>  (2039) 
O=C([O-])CNC(=O)c1cccc2ccn(Cc3ccccc3)c12

>  <gnina_score>  (2039) 
5.419

>  <inspiration_score>  (2039) 
None

>  <energy_score>  (2039) 
-11.516541

>  <distance_score>  (2039) 
0.970155

>  <gnina_score_min>  (2039) 
5.308

>  <inchikey>  (2039) 
NHRDUZFNIVJHGN-UHFFFAOYSA-M

>  <exports>  (2039) 
['/opt/xchem-fragalysis-2/maxwin/BulkDock/OUTPUTS/openbind_a71ev2a_c2_elabs_1LOUU54.sdf', '/opt/xchem-fragalysis-2/maxwin/BulkDock/OUTPUTS/openbind_a71ev2a_c2_elabs_1LSYIDY.sdf']

>  <name>  (2039) 
P586069

>  <ref_pdb>  (2039) 
A0566a

>  <subsites>  (2039) 
None

>  <HIPPO Pose ID>  (2039) 
586069

>  <ref_mols>  (2039) 
A0566a

>  <HIPPO Compound ID>  (2039) 
441231

>  <tags>  (2039) 
openbind_a71ev2a_c2_elabs,syndirella_product,openbind_a71ev2a_c2_elabs_fragonly_scored_top80percent,openbind_a71ev2a_c2_elabs_scored,BulkDock Fragalysis export,openbind_a71ev2a_c2_elabs_scored_top80percent,openbind_a71ev2a_c2_elabs_activefrags_only_scored_5.2plus,syndirella_placed

>  <smina_score_min>  (2039) 
-7.168

$$$$
P586070
     RDKit          3D

 23 26  0  0  0  0  0  0  0  0999 V2000
   10.7688   14.4193   24.5453 O   0  0  0  0  0  0  0  0  0  0  0  0
   10.2678   13.8856   23.6388 C   0  0  0  0  0  0  0  0  0  0  0  0
   10.2422   14.2636   22.1488 N   0  0  0  0  0  0  0  0  0  0  0  0
   10.8729   15.2728   21.4786 N   0  0  0  0  0  0  0  0  0  0  0  0
   12.0240   14.7422   20.7312 C   0  0  0  0  0  0  0  0  0  0  0  0
   11.2455   14.8922   19.4173 C   0  0  0  0  0  0  0  0  0  0  0  0
   10.1681   15.6167   20.2290 C   0  0  0  0  0  0  0  0  0  0  0  0
    9.5059   12.6479   23.8445 C   0  0  0  0  0  0  0  0  0  0  0  0
    9.9870   11.4938   23.2115 C   0  0  0  0  0  0  0  0  0  0  0  0
    9.4283   10.2523   23.4533 C   0  0  0  0  0  0  0  0  0  0  0  0
    8.3729   10.1514   24.3526 C   0  0  0  0  0  0  0  0  0  0  0  0
    7.8239   11.3016   24.9531 C   0  0  0  0  0  0  0  0  0  0  0  0
    6.7491   11.4882   25.8547 C   0  0  0  0  0  0  0  0  0  0  0  0
    6.6375   12.8339   26.0889 C   0  0  0  0  0  0  0  0  0  0  0  0
    7.6168   13.4880   25.3720 N   0  0  0  0  0  0  0  0  0  0  0  0
    7.6582   14.9477   25.2828 C   0  0  0  0  0  0  0  0  0  0  0  0
    7.9982   15.6098   26.5997 C   0  0  0  0  0  0  0  0  0  0  0  0
    7.0786   16.4835   27.2006 C   0  0  0  0  0  0  0  0  0  0  0  0
    7.3962   17.1481   28.3868 C   0  0  0  0  0  0  0  0  0  0  0  0
    8.6357   16.9494   28.9897 C   0  0  0  0  0  0  0  0  0  0  0  0
    9.5595   16.0872   28.4062 C   0  0  0  0  0  0  0  0  0  0  0  0
    9.2440   15.4266   27.2173 C   0  0  0  0  0  0  0  0  0  0  0  0
    8.3839   12.5599   24.6846 C   0  0  0  0  0  0  0  0  0  0  0  0
  1  2  2  0
  2  3  1  0
  3  4  1  0
  4  5  1  0
  5  6  1  0
  6  7  1  0
  2  8  1  0
  8  9  2  0
  9 10  1  0
 10 11  2  0
 11 12  1  0
 12 13  1  0
 13 14  2  0
 14 15  1  0
 15 16  1  0
 16 17  1  0
 17 18  2  0
 18 19  1  0
 19 20  2  0
 20 21  1  0
 21 22  2  0
 15 23  1  0
  7  4  1  0
 23  8  1  0
 23 12  2  0
 22 17  1  0
M  END
>  <alias>  (2040) 
None

>  <rmsd(smina/fragmenstein)>  (2040) 
0.396

>  <smiles>  (2040) 
O=C(NN1CCC1)c1cccc2ccn(Cc3ccccc3)c12

>  <gnina_score>  (2040) 
5.758

>  <inspiration_score>  (2040) 
None

>  <energy_score>  (2040) 
-32.626058

>  <distance_score>  (2040) 
0.953204

>  <gnina_score_min>  (2040) 
5.751

>  <inchikey>  (2040) 
HHIGCUDRCDXPGN-UHFFFAOYSA-N

>  <exports>  (2040) 
['/opt/xchem-fragalysis-2/maxwin/BulkDock/OUTPUTS/openbind_a71ev2a_c2_elabs_1LOUU54.sdf', '/opt/xchem-fragalysis-2/maxwin/BulkDock/OUTPUTS/openbind_a71ev2a_c2_elabs_1LSYIDY.sdf']

>  <name>  (2040) 
P586070

>  <ref_pdb>  (2040) 
A0566a

>  <subsites>  (2040) 
None

>  <HIPPO Pose ID>  (2040) 
586070

>  <ref_mols>  (2040) 
A0566a

>  <HIPPO Compound ID>  (2040) 
441233

>  <tags>  (2040) 
openbind_a71ev2a_c2_elabs,syndirella_product,openbind_a71ev2a_c2_elabs_fragonly_scored_top80percent,BulkDock Fragalysis export,openbind_a71ev2a_c2_elabs_scored,openbind_a71ev2a_c2_elabs_scored_top80percent,openbind_a71ev2a_c2_elabs_activefrags_only_scored_5.2plus,openbind_a71ev2a_c2_elabs_activefrags_only_scored_5.5plus,syndirella_placed

>  <smina_score_min>  (2040) 
-7.122

$$$$
P586071
     RDKit          3D

 23 25  0  0  0  0  0  0  0  0999 V2000
    8.8509   14.6171   22.5120 O   0  0  0  0  0  0  0  0  0  0  0  0
    9.6096   13.8773   22.9856 C   0  0  0  0  0  0  0  0  0  0  0  0
   11.1426   13.9134   23.0227 N   0  0  0  0  0  0  0  0  0  0  0  0
   12.0668   14.8153   22.4048 C   0  0  0  0  0  0  0  0  0  0  0  0
   12.1341   14.6263   20.9014 C   0  0  0  0  0  0  0  0  0  0  0  0
   10.8428   14.9938   20.1777 C   0  0  0  0  0  0  0  0  0  0  0  0
   11.0599   15.1260   18.7771 O   0  0  0  0  0  0  0  0  0  0  0  0
    9.1135   12.6265   23.5874 C   0  0  0  0  0  0  0  0  0  0  0  0
    9.7309   11.4359   23.1468 C   0  0  0  0  0  0  0  0  0  0  0  0
    9.3220   10.1914   23.5787 C   0  0  0  0  0  0  0  0  0  0  0  0
    8.3126   10.1171   24.5242 C   0  0  0  0  0  0  0  0  0  0  0  0
    7.6971   11.2824   25.0210 C   0  0  0  0  0  0  0  0  0  0  0  0
    6.7125   11.4687   26.0171 C   0  0  0  0  0  0  0  0  0  0  0  0
    6.4751   12.8127   26.1054 C   0  0  0  0  0  0  0  0  0  0  0  0
    7.1621   13.4462   25.0852 N   0  0  0  0  0  0  0  0  0  0  0  0
    6.8093   14.8197   24.7043 C   0  0  0  0  0  0  0  0  0  0  0  0
    5.5209   14.8463   23.9077 C   0  0  0  0  0  0  0  0  0  0  0  0
    5.5309   14.7190   22.5121 C   0  0  0  0  0  0  0  0  0  0  0  0
    4.3340   14.6037   21.7982 C   0  0  0  0  0  0  0  0  0  0  0  0
    3.1116   14.6286   22.4665 C   0  0  0  0  0  0  0  0  0  0  0  0
    3.0832   14.7979   23.8487 C   0  0  0  0  0  0  0  0  0  0  0  0
    4.2785   14.9126   24.5630 C   0  0  0  0  0  0  0  0  0  0  0  0
    8.0526   12.5460   24.5109 C   0  0  0  0  0  0  0  0  0  0  0  0
  1  2  2  0
  2  3  1  0
  3  4  1  0
  4  5  1  0
  5  6  1  0
  6  7  1  0
  2  8  1  0
  8  9  2  0
  9 10  1  0
 10 11  2  0
 11 12  1  0
 12 13  1  0
 13 14  2  0
 14 15  1  0
 15 16  1  0
 16 17  1  0
 17 18  2  0
 18 19  1  0
 19 20  2  0
 20 21  1  0
 21 22  2  0
 15 23  1  0
 23  8  1  0
 23 12  2  0
 22 17  1  0
M  END
>  <alias>  (2041) 
None

>  <rmsd(smina/fragmenstein)>  (2041) 
0.481

>  <smiles>  (2041) 
O=C(NCCCO)c1cccc2ccn(Cc3ccccc3)c12

>  <gnina_score>  (2041) 
5.436

>  <inspiration_score>  (2041) 
None

>  <energy_score>  (2041) 
-0.047259

>  <distance_score>  (2041) 
1.43775

>  <gnina_score_min>  (2041) 
5.423

>  <inchikey>  (2041) 
POWBLWOLUNZFKU-UHFFFAOYSA-N

>  <exports>  (2041) 
['/opt/xchem-fragalysis-2/maxwin/BulkDock/OUTPUTS/openbind_a71ev2a_c2_elabs_1LOUU54.sdf', '/opt/xchem-fragalysis-2/maxwin/BulkDock/OUTPUTS/openbind_a71ev2a_c2_elabs_1LSYIDY.sdf']

>  <name>  (2041) 
P586071

>  <ref_pdb>  (2041) 
A0566a

>  <subsites>  (2041) 
None

>  <HIPPO Pose ID>  (2041) 
586071

>  <ref_mols>  (2041) 
A0566a

>  <HIPPO Compound ID>  (2041) 
441235

>  <tags>  (2041) 
openbind_a71ev2a_c2_elabs,syndirella_product,openbind_a71ev2a_c2_elabs_fragonly_scored_top80percent,openbind_a71ev2a_c2_elabs_scored,BulkDock Fragalysis export,openbind_a71ev2a_c2_elabs_scored_top80percent,openbind_a71ev2a_c2_elabs_activefrags_only_scored_5.2plus,syndirella_placed

>  <smina_score_min>  (2041) 
-7.259

$$$$
P586073
     RDKit          3D

 23 25  0  0  0  0  0  0  0  0999 V2000
   12.3094   14.0435   23.6129 C   0  0  0  0  0  0  0  0  0  0  0  0
   12.1035   14.2904   22.1143 C   0  0  0  0  0  0  0  0  0  0  0  0
   12.9767   15.4031   21.6448 C   0  0  0  0  0  0  0  0  0  0  0  0
   10.6840   14.6706   21.6871 C   0  0  0  0  0  0  0  0  0  0  0  0
    9.8418   13.7733   22.3626 N   0  0  0  0  0  0  0  0  0  0  0  0
    9.2731   13.8210   23.7752 C   0  0  0  0  0  0  0  0  0  0  0  0
    9.3433   14.6470   24.5879 O   0  0  0  0  0  0  0  0  0  0  0  0
    8.6398   12.5279   24.0639 C   0  0  0  0  0  0  0  0  0  0  0  0
    9.3019   11.3580   23.6136 C   0  0  0  0  0  0  0  0  0  0  0  0
    8.8699   10.1041   23.9765 C   0  0  0  0  0  0  0  0  0  0  0  0
    7.8217   10.0014   24.8801 C   0  0  0  0  0  0  0  0  0  0  0  0
    7.1829   11.1466   25.3929 C   0  0  0  0  0  0  0  0  0  0  0  0
    6.1818   11.3326   26.3723 C   0  0  0  0  0  0  0  0  0  0  0  0
    5.9529   12.6816   26.4809 C   0  0  0  0  0  0  0  0  0  0  0  0
    6.6913   13.3265   25.5163 N   0  0  0  0  0  0  0  0  0  0  0  0
    6.5414   14.7475   25.1611 C   0  0  0  0  0  0  0  0  0  0  0  0
    5.1441   15.3063   25.3431 C   0  0  0  0  0  0  0  0  0  0  0  0
    4.0364   14.7341   24.6995 C   0  0  0  0  0  0  0  0  0  0  0  0
    2.7546   15.2597   24.8743 C   0  0  0  0  0  0  0  0  0  0  0  0
    2.5661   16.3828   25.6753 C   0  0  0  0  0  0  0  0  0  0  0  0
    3.6602   16.9838   26.2931 C   0  0  0  0  0  0  0  0  0  0  0  0
    4.9408   16.4511   26.1269 C   0  0  0  0  0  0  0  0  0  0  0  0
    7.5584   12.4116   24.9370 C   0  0  0  0  0  0  0  0  0  0  0  0
  1  2  1  0
  2  3  1  0
  2  4  1  0
  4  5  1  0
  5  6  1  0
  6  7  2  0
  6  8  1  0
  8  9  2  0
  9 10  1  0
 10 11  2  0
 11 12  1  0
 12 13  1  0
 13 14  2  0
 14 15  1  0
 15 16  1  0
 16 17  1  0
 17 18  2  0
 18 19  1  0
 19 20  2  0
 20 21  1  0
 21 22  2  0
 15 23  1  0
 23  8  1  0
 23 12  2  0
 22 17  1  0
M  END
>  <alias>  (2042) 
None

>  <rmsd(smina/fragmenstein)>  (2042) 
0.464

>  <smiles>  (2042) 
CC(C)CNC(=O)c1cccc2ccn(Cc3ccccc3)c12

>  <gnina_score>  (2042) 
5.505

>  <inspiration_score>  (2042) 
None

>  <energy_score>  (2042) 
-1.884312

>  <distance_score>  (2042) 
1.738571

>  <gnina_score_min>  (2042) 
5.344

>  <inchikey>  (2042) 
OPYQRIFSDWMXHQ-UHFFFAOYSA-N

>  <exports>  (2042) 
['/opt/xchem-fragalysis-2/maxwin/BulkDock/OUTPUTS/openbind_a71ev2a_c2_elabs_1LOUU54.sdf', '/opt/xchem-fragalysis-2/maxwin/BulkDock/OUTPUTS/openbind_a71ev2a_c2_elabs_1LSYIDY.sdf']

>  <name>  (2042) 
P586073

>  <ref_pdb>  (2042) 
A0566a

>  <subsites>  (2042) 
None

>  <HIPPO Pose ID>  (2042) 
586073

>  <ref_mols>  (2042) 
A0566a

>  <HIPPO Compound ID>  (2042) 
441241

>  <tags>  (2042) 
openbind_a71ev2a_c2_elabs,syndirella_product,openbind_a71ev2a_c2_elabs_fragonly_scored_top80percent,openbind_a71ev2a_c2_elabs_scored,BulkDock Fragalysis export,openbind_a71ev2a_c2_elabs_scored_top80percent,openbind_a71ev2a_c2_elabs_activefrags_only_scored_5.2plus,syndirella_placed

>  <smina_score_min>  (2042) 
-6.205

$$$$
P586074
     RDKit          3D

 23 25  0  0  0  0  0  0  0  0999 V2000
   12.7424   13.5951   24.1469 C   0  0  0  0  0  0  0  0  0  0  0  0
   12.6479   13.2494   22.7810 O   0  0  0  0  0  0  0  0  0  0  0  0
   12.2787   14.3098   21.8900 C   0  0  0  0  0  0  0  0  0  0  0  0
   10.8482   14.8113   22.1140 C   0  0  0  0  0  0  0  0  0  0  0  0
   10.0402   13.7912   22.7210 N   0  0  0  0  0  0  0  0  0  0  0  0
    9.6785   13.5686   24.0886 C   0  0  0  0  0  0  0  0  0  0  0  0
    9.8892   14.2210   25.0687 O   0  0  0  0  0  0  0  0  0  0  0  0
    9.0184   12.2456   24.2813 C   0  0  0  0  0  0  0  0  0  0  0  0
    9.5626   11.1726   23.5368 C   0  0  0  0  0  0  0  0  0  0  0  0
    9.1110    9.8830   23.6840 C   0  0  0  0  0  0  0  0  0  0  0  0
    8.0999    9.6378   24.5973 C   0  0  0  0  0  0  0  0  0  0  0  0
    7.5250   10.6473   25.3710 C   0  0  0  0  0  0  0  0  0  0  0  0
    6.4820   10.6235   26.3292 C   0  0  0  0  0  0  0  0  0  0  0  0
    6.3313   11.9014   26.7853 C   0  0  0  0  0  0  0  0  0  0  0  0
    7.2148   12.7012   26.0959 N   0  0  0  0  0  0  0  0  0  0  0  0
    7.1105   14.1447   26.1524 C   0  0  0  0  0  0  0  0  0  0  0  0
    6.4575   14.6940   24.9202 C   0  0  0  0  0  0  0  0  0  0  0  0
    6.2667   13.9638   23.7294 C   0  0  0  0  0  0  0  0  0  0  0  0
    5.7255   14.5225   22.5924 C   0  0  0  0  0  0  0  0  0  0  0  0
    5.3315   15.8289   22.6566 C   0  0  0  0  0  0  0  0  0  0  0  0
    5.4506   16.5534   23.8402 C   0  0  0  0  0  0  0  0  0  0  0  0
    6.0291   16.0072   24.9651 C   0  0  0  0  0  0  0  0  0  0  0  0
    8.0049   11.9508   25.2345 C   0  0  0  0  0  0  0  0  0  0  0  0
  1  2  1  0
  2  3  1  0
  3  4  1  0
  4  5  1  0
  5  6  1  0
  6  7  2  0
  6  8  1  0
  8  9  2  0
  9 10  1  0
 10 11  2  0
 11 12  1  0
 12 13  1  0
 13 14  2  0
 14 15  1  0
 15 16  1  0
 16 17  1  0
 17 18  2  0
 18 19  1  0
 19 20  2  0
 20 21  1  0
 21 22  2  0
 15 23  1  0
 23  8  1  0
 23 12  2  0
 22 17  1  0
M  END
>  <alias>  (2043) 
None

>  <rmsd(smina/fragmenstein)>  (2043) 
1.081

>  <smiles>  (2043) 
COCCNC(=O)c1cccc2ccn(Cc3ccccc3)c12

>  <gnina_score>  (2043) 
5.262

>  <inspiration_score>  (2043) 
None

>  <energy_score>  (2043) 
-5.46432

>  <distance_score>  (2043) 
1.556971

>  <gnina_score_min>  (2043) 
5.382

>  <inchikey>  (2043) 
RSEWRJBOMAHOOR-UHFFFAOYSA-N

>  <exports>  (2043) 
['/opt/xchem-fragalysis-2/maxwin/BulkDock/OUTPUTS/openbind_a71ev2a_c2_elabs_1LOUU54.sdf', '/opt/xchem-fragalysis-2/maxwin/BulkDock/OUTPUTS/openbind_a71ev2a_c2_elabs_1LSYIDY.sdf']

>  <name>  (2043) 
P586074

>  <ref_pdb>  (2043) 
A0566a

>  <subsites>  (2043) 
None

>  <HIPPO Pose ID>  (2043) 
586074

>  <ref_mols>  (2043) 
A0566a

>  <HIPPO Compound ID>  (2043) 
441242

>  <tags>  (2043) 
openbind_a71ev2a_c2_elabs,syndirella_product,openbind_a71ev2a_c2_elabs_fragonly_scored_top80percent,openbind_a71ev2a_c2_elabs_scored,BulkDock Fragalysis export,openbind_a71ev2a_c2_elabs_scored_top80percent,openbind_a71ev2a_c2_elabs_activefrags_only_scored_5.2plus,syndirella_placed

>  <smina_score_min>  (2043) 
-6.067

$$$$
P586075
     RDKit          3D

 23 26  0  0  0  0  0  0  0  0999 V2000
   10.4115   15.8805   18.8769 C   0  0  0  0  0  0  0  0  0  0  0  0
    9.7933   15.5890   20.0149 C   0  0  0  0  0  0  0  0  0  0  0  0
    9.3353   14.3796   20.6436 C   0  0  0  0  0  0  0  0  0  0  0  0
    9.1465   14.9881   22.0196 N   0  0  0  0  0  0  0  0  0  0  0  0
   10.1053   14.3882   23.0258 C   0  0  0  0  0  0  0  0  0  0  0  0
   11.1932   14.7218   23.3364 O   0  0  0  0  0  0  0  0  0  0  0  0
    9.5424   13.1296   23.5946 C   0  0  0  0  0  0  0  0  0  0  0  0
   10.1677   11.9695   23.0967 C   0  0  0  0  0  0  0  0  0  0  0  0
    9.6894   10.6908   23.3476 C   0  0  0  0  0  0  0  0  0  0  0  0
    8.5920   10.5271   24.1767 C   0  0  0  0  0  0  0  0  0  0  0  0
    7.9666   11.6545   24.7411 C   0  0  0  0  0  0  0  0  0  0  0  0
    6.8567   11.7718   25.6138 C   0  0  0  0  0  0  0  0  0  0  0  0
    6.6659   13.1055   25.8534 C   0  0  0  0  0  0  0  0  0  0  0  0
    7.6343   13.8113   25.1758 N   0  0  0  0  0  0  0  0  0  0  0  0
    7.7688   15.2535   25.3180 C   0  0  0  0  0  0  0  0  0  0  0  0
    8.5037   15.6112   26.5926 C   0  0  0  0  0  0  0  0  0  0  0  0
    7.8481   16.3349   27.5998 C   0  0  0  0  0  0  0  0  0  0  0  0
    8.5183   16.6893   28.7718 C   0  0  0  0  0  0  0  0  0  0  0  0
    9.8480   16.3186   28.9567 C   0  0  0  0  0  0  0  0  0  0  0  0
   10.5120   15.5995   27.9665 C   0  0  0  0  0  0  0  0  0  0  0  0
    9.8486   15.2590   26.7867 C   0  0  0  0  0  0  0  0  0  0  0  0
    8.4378   12.9528   24.4482 C   0  0  0  0  0  0  0  0  0  0  0  0
    9.2565   16.3139   21.1418 C   0  0  0  0  0  0  0  0  0  0  0  0
  1  2  2  0
  2  3  1  0
  3  4  1  0
  4  5  1  0
  5  6  2  0
  5  7  1  0
  7  8  2  0
  8  9  1  0
  9 10  2  0
 10 11  1  0
 11 12  1  0
 12 13  2  0
 13 14  1  0
 14 15  1  0
 15 16  1  0
 16 17  2  0
 17 18  1  0
 18 19  2  0
 19 20  1  0
 20 21  2  0
 14 22  1  0
  4 23  1  0
 23  2  1  0
 22  7  1  0
 22 11  2  0
 21 16  1  0
M  END
>  <alias>  (2044) 
None

>  <rmsd(smina/fragmenstein)>  (2044) 
0.531

>  <smiles>  (2044) 
C=C1CN(C(=O)c2cccc3ccn(Cc4ccccc4)c23)C1

>  <gnina_score>  (2044) 
5.365

>  <inspiration_score>  (2044) 
None

>  <energy_score>  (2044) 
-0.177416

>  <distance_score>  (2044) 
1.381274

>  <gnina_score_min>  (2044) 
5.282

>  <inchikey>  (2044) 
ZXEWFCVLZPIESA-UHFFFAOYSA-N

>  <exports>  (2044) 
['/opt/xchem-fragalysis-2/maxwin/BulkDock/OUTPUTS/openbind_a71ev2a_c2_elabs_1LOUU54.sdf', '/opt/xchem-fragalysis-2/maxwin/BulkDock/OUTPUTS/openbind_a71ev2a_c2_elabs_1LSYIDY.sdf']

>  <name>  (2044) 
P586075

>  <ref_pdb>  (2044) 
A0566a

>  <subsites>  (2044) 
None

>  <HIPPO Pose ID>  (2044) 
586075

>  <ref_mols>  (2044) 
A0566a

>  <HIPPO Compound ID>  (2044) 
441244

>  <tags>  (2044) 
openbind_a71ev2a_c2_elabs,syndirella_product,openbind_a71ev2a_c2_elabs_fragonly_scored_top80percent,openbind_a71ev2a_c2_elabs_scored,BulkDock Fragalysis export,openbind_a71ev2a_c2_elabs_scored_top80percent,openbind_a71ev2a_c2_elabs_activefrags_only_scored_5.2plus,syndirella_placed

>  <smina_score_min>  (2044) 
-6.643

$$$$
P586076
     RDKit          3D

 23 25  0  0  0  0  0  0  0  0999 V2000
    8.6807   14.5112   22.0968 O   0  0  0  0  0  0  0  0  0  0  0  0
    9.4701   13.8933   22.6823 C   0  0  0  0  0  0  0  0  0  0  0  0
   10.9887   14.0642   22.7844 N   0  0  0  0  0  0  0  0  0  0  0  0
   11.8705   14.9730   22.1134 C   0  0  0  0  0  0  0  0  0  0  0  0
   12.2104   14.5228   20.6913 C   0  0  0  0  0  0  0  0  0  0  0  0
   11.1322   14.7346   19.7134 N   0  0  0  0  0  0  0  0  0  0  0  0
   11.7910   14.7752   18.4208 O   0  0  0  0  0  0  0  0  0  0  0  0
    9.0546   12.6823   23.4215 C   0  0  0  0  0  0  0  0  0  0  0  0
    9.7308   11.4890   23.0884 C   0  0  0  0  0  0  0  0  0  0  0  0
    9.3529   10.2613   23.5936 C   0  0  0  0  0  0  0  0  0  0  0  0
    8.3365   10.2136   24.5334 C   0  0  0  0  0  0  0  0  0  0  0  0
    7.7005   11.3934   24.9661 C   0  0  0  0  0  0  0  0  0  0  0  0
    6.7250   11.6204   25.9630 C   0  0  0  0  0  0  0  0  0  0  0  0
    6.4552   12.9616   25.9676 C   0  0  0  0  0  0  0  0  0  0  0  0
    7.1081   13.5423   24.8956 N   0  0  0  0  0  0  0  0  0  0  0  0
    6.7390   14.8878   24.4382 C   0  0  0  0  0  0  0  0  0  0  0  0
    5.4186   14.8690   23.6951 C   0  0  0  0  0  0  0  0  0  0  0  0
    4.2011   14.9565   24.3926 C   0  0  0  0  0  0  0  0  0  0  0  0
    2.9808   14.8095   23.7273 C   0  0  0  0  0  0  0  0  0  0  0  0
    2.9584   14.5910   22.3515 C   0  0  0  0  0  0  0  0  0  0  0  0
    4.1552   14.5400   21.6404 C   0  0  0  0  0  0  0  0  0  0  0  0
    5.3763   14.6831   22.3069 C   0  0  0  0  0  0  0  0  0  0  0  0
    8.0137   12.6303   24.3682 C   0  0  0  0  0  0  0  0  0  0  0  0
  1  2  2  0
  2  3  1  0
  3  4  1  0
  4  5  1  0
  5  6  1  0
  6  7  1  0
  2  8  1  0
  8  9  2  0
  9 10  1  0
 10 11  2  0
 11 12  1  0
 12 13  1  0
 13 14  2  0
 14 15  1  0
 15 16  1  0
 16 17  1  0
 17 18  2  0
 18 19  1  0
 19 20  2  0
 20 21  1  0
 21 22  2  0
 15 23  1  0
 23  8  1  0
 23 12  2  0
 22 17  1  0
M  END
>  <alias>  (2045) 
None

>  <rmsd(smina/fragmenstein)>  (2045) 
0.261

>  <smiles>  (2045) 
O=C(NCCNO)c1cccc2ccn(Cc3ccccc3)c12

>  <gnina_score>  (2045) 
5.686

>  <inspiration_score>  (2045) 
None

>  <energy_score>  (2045) 
-15.716513

>  <distance_score>  (2045) 
1.524159

>  <gnina_score_min>  (2045) 
5.703

>  <inchikey>  (2045) 
VQIZFNAYGSUNOK-UHFFFAOYSA-N

>  <exports>  (2045) 
['/opt/xchem-fragalysis-2/maxwin/BulkDock/OUTPUTS/openbind_a71ev2a_c2_elabs_1LOUU54.sdf', '/opt/xchem-fragalysis-2/maxwin/BulkDock/OUTPUTS/openbind_a71ev2a_c2_elabs_1LSYIDY.sdf']

>  <name>  (2045) 
P586076

>  <ref_pdb>  (2045) 
A0566a

>  <subsites>  (2045) 
None

>  <HIPPO Pose ID>  (2045) 
586076

>  <ref_mols>  (2045) 
A0566a

>  <HIPPO Compound ID>  (2045) 
441246

>  <tags>  (2045) 
openbind_a71ev2a_c2_elabs,syndirella_product,openbind_a71ev2a_c2_elabs_fragonly_scored_top80percent,BulkDock Fragalysis export,openbind_a71ev2a_c2_elabs_scored,openbind_a71ev2a_c2_elabs_scored_top80percent,openbind_a71ev2a_c2_elabs_activefrags_only_scored_5.2plus,openbind_a71ev2a_c2_elabs_activefrags_only_scored_5.5plus,syndirella_placed

>  <smina_score_min>  (2045) 
-7.516

$$$$
P586077
     RDKit          3D

 23 26  0  0  0  0  0  0  0  0999 V2000
   11.0437   14.6347   24.0796 O   0  0  0  0  0  0  0  0  0  0  0  0
   10.1768   14.2514   23.3770 C   0  0  0  0  0  0  0  0  0  0  0  0
    9.4642   13.0033   23.7359 C   0  0  0  0  0  0  0  0  0  0  0  0
   10.0314   11.8339   23.1884 C   0  0  0  0  0  0  0  0  0  0  0  0
    9.5193   10.5698   23.4334 C   0  0  0  0  0  0  0  0  0  0  0  0
    8.4409   10.4369   24.2940 C   0  0  0  0  0  0  0  0  0  0  0  0
    7.8548   11.5780   24.8772 C   0  0  0  0  0  0  0  0  0  0  0  0
    6.7677   11.7258   25.7730 C   0  0  0  0  0  0  0  0  0  0  0  0
    6.6223   13.0643   26.0233 C   0  0  0  0  0  0  0  0  0  0  0  0
    7.5909   13.7472   25.3226 N   0  0  0  0  0  0  0  0  0  0  0  0
    7.6898   15.2009   25.3647 C   0  0  0  0  0  0  0  0  0  0  0  0
    8.2950   15.6889   26.6631 C   0  0  0  0  0  0  0  0  0  0  0  0
    9.6023   15.3465   27.0395 C   0  0  0  0  0  0  0  0  0  0  0  0
   10.1565   15.8316   28.2250 C   0  0  0  0  0  0  0  0  0  0  0  0
    9.4192   16.6860   29.0398 C   0  0  0  0  0  0  0  0  0  0  0  0
    8.1238   17.0451   28.6753 C   0  0  0  0  0  0  0  0  0  0  0  0
    7.5630   16.5476   27.4974 C   0  0  0  0  0  0  0  0  0  0  0  0
    8.3653   12.8616   24.5965 C   0  0  0  0  0  0  0  0  0  0  0  0
    9.6907   14.7794   22.0459 N   0  0  0  0  0  0  0  0  0  0  0  0
   10.4113   14.1417   20.9106 C   0  0  0  0  0  0  0  0  0  0  0  0
    9.9818   15.2270   19.9960 C   0  0  0  0  0  0  0  0  0  0  0  0
   11.2075   15.3374   18.6943 S   0  0  0  0  0  0  0  0  0  0  0  0
   10.1055   16.0337   21.2483 C   0  0  0  0  0  0  0  0  0  0  0  0
  1  2  2  0
  2  3  1  0
  3  4  2  0
  4  5  1  0
  5  6  2  0
  6  7  1  0
  7  8  1  0
  8  9  2  0
  9 10  1  0
 10 11  1  0
 11 12  1  0
 12 13  2  0
 13 14  1  0
 14 15  2  0
 15 16  1  0
 16 17  2  0
 10 18  1  0
  2 19  1  0
 19 20  1  0
 20 21  1  0
 21 22  1  0
 21 23  1  0
 18  3  1  0
 23 19  1  0
 18  7  2  0
 17 12  1  0
M  END
>  <alias>  (2046) 
None

>  <rmsd(smina/fragmenstein)>  (2046) 
0.302

>  <smiles>  (2046) 
O=C(c1cccc2ccn(Cc3ccccc3)c12)N1CC(S)C1

>  <gnina_score>  (2046) 
5.477

>  <inspiration_score>  (2046) 
None

>  <energy_score>  (2046) 
-1.465057

>  <distance_score>  (2046) 
1.147103

>  <gnina_score_min>  (2046) 
5.402

>  <inchikey>  (2046) 
MLGFQIDZLFAKDI-UHFFFAOYSA-N

>  <exports>  (2046) 
['/opt/xchem-fragalysis-2/maxwin/BulkDock/OUTPUTS/openbind_a71ev2a_c2_elabs_1LOUU54.sdf', '/opt/xchem-fragalysis-2/maxwin/BulkDock/OUTPUTS/openbind_a71ev2a_c2_elabs_1LSYIDY.sdf']

>  <name>  (2046) 
P586077

>  <ref_pdb>  (2046) 
A0566a

>  <subsites>  (2046) 
None

>  <HIPPO Pose ID>  (2046) 
586077

>  <ref_mols>  (2046) 
A0566a

>  <HIPPO Compound ID>  (2046) 
441249

>  <tags>  (2046) 
openbind_a71ev2a_c2_elabs,syndirella_product,openbind_a71ev2a_c2_elabs_fragonly_scored_top80percent,openbind_a71ev2a_c2_elabs_scored,BulkDock Fragalysis export,openbind_a71ev2a_c2_elabs_scored_top80percent,openbind_a71ev2a_c2_elabs_activefrags_only_scored_5.2plus,syndirella_placed

>  <smina_score_min>  (2046) 
-5.283

$$$$
P586078
     RDKit          3D

 23 25  0  0  0  0  0  0  0  0999 V2000
   10.1392   15.9460   19.4143 C   0  0  0  0  0  0  0  0  0  0  0  0
   11.0314   15.0603   19.8702 C   0  0  0  0  0  0  0  0  0  0  0  0
   11.6157   14.2324   18.9735 F   0  0  0  0  0  0  0  0  0  0  0  0
   11.4599   14.9709   21.2966 C   0  0  0  0  0  0  0  0  0  0  0  0
   10.6478   13.9828   21.9363 N   0  0  0  0  0  0  0  0  0  0  0  0
   10.1844   13.8641   23.3949 C   0  0  0  0  0  0  0  0  0  0  0  0
   10.3250   14.5918   24.2938 O   0  0  0  0  0  0  0  0  0  0  0  0
    9.4380   12.6059   23.6303 C   0  0  0  0  0  0  0  0  0  0  0  0
    9.9630   11.4023   23.1393 C   0  0  0  0  0  0  0  0  0  0  0  0
    9.4269   10.1700   23.4727 C   0  0  0  0  0  0  0  0  0  0  0  0
    8.3821   10.1140   24.3846 C   0  0  0  0  0  0  0  0  0  0  0  0
    7.8248   11.2968   24.9011 C   0  0  0  0  0  0  0  0  0  0  0  0
    6.8202   11.5372   25.8687 C   0  0  0  0  0  0  0  0  0  0  0  0
    6.6769   12.8964   25.9798 C   0  0  0  0  0  0  0  0  0  0  0  0
    7.4465   13.4861   24.9979 N   0  0  0  0  0  0  0  0  0  0  0  0
    7.1781   14.8404   24.5003 C   0  0  0  0  0  0  0  0  0  0  0  0
    5.8510   14.8781   23.7692 C   0  0  0  0  0  0  0  0  0  0  0  0
    4.6495   15.0672   24.4718 C   0  0  0  0  0  0  0  0  0  0  0  0
    3.4185   14.9357   23.8270 C   0  0  0  0  0  0  0  0  0  0  0  0
    3.3728   14.6467   22.4648 C   0  0  0  0  0  0  0  0  0  0  0  0
    4.5579   14.5079   21.7452 C   0  0  0  0  0  0  0  0  0  0  0  0
    5.7919   14.6235   22.3913 C   0  0  0  0  0  0  0  0  0  0  0  0
    8.3097   12.5395   24.4683 C   0  0  0  0  0  0  0  0  0  0  0  0
  1  2  2  0
  2  3  1  0
  2  4  1  0
  4  5  1  0
  5  6  1  0
  6  7  2  0
  6  8  1  0
  8  9  2  0
  9 10  1  0
 10 11  2  0
 11 12  1  0
 12 13  1  0
 13 14  2  0
 14 15  1  0
 15 16  1  0
 16 17  1  0
 17 18  2  0
 18 19  1  0
 19 20  2  0
 20 21  1  0
 21 22  2  0
 15 23  1  0
 23  8  1  0
 23 12  2  0
 22 17  1  0
M  END
>  <alias>  (2047) 
None

>  <rmsd(smina/fragmenstein)>  (2047) 
0.533

>  <smiles>  (2047) 
C=C(F)CNC(=O)c1cccc2ccn(Cc3ccccc3)c12

>  <gnina_score>  (2047) 
5.614

>  <inspiration_score>  (2047) 
None

>  <energy_score>  (2047) 
-9.990219

>  <distance_score>  (2047) 
0.994325

>  <gnina_score_min>  (2047) 
5.418

>  <inchikey>  (2047) 
QLRTXJUFSRJBNF-UHFFFAOYSA-N

>  <exports>  (2047) 
['/opt/xchem-fragalysis-2/maxwin/BulkDock/OUTPUTS/openbind_a71ev2a_c2_elabs_1LOUU54.sdf', '/opt/xchem-fragalysis-2/maxwin/BulkDock/OUTPUTS/openbind_a71ev2a_c2_elabs_1LSYIDY.sdf']

>  <name>  (2047) 
P586078

>  <ref_pdb>  (2047) 
A0566a

>  <subsites>  (2047) 
None

>  <HIPPO Pose ID>  (2047) 
586078

>  <ref_mols>  (2047) 
A0566a

>  <HIPPO Compound ID>  (2047) 
441250

>  <tags>  (2047) 
openbind_a71ev2a_c2_elabs,syndirella_product,openbind_a71ev2a_c2_elabs_fragonly_scored_top80percent,openbind_a71ev2a_c2_elabs_scored,BulkDock Fragalysis export,openbind_a71ev2a_c2_elabs_scored_top80percent,openbind_a71ev2a_c2_elabs_activefrags_only_scored_5.2plus,syndirella_placed

>  <smina_score_min>  (2047) 
-7.32

$$$$
P586079
     RDKit          3D

 23 25  0  0  0  0  0  0  0  0999 V2000
   10.8476   15.2788   19.3790 C   0  0  0  0  0  0  0  0  0  0  0  0
   10.5797   15.6074   20.8348 C   0  0  1  0  0  0  0  0  0  0  0  0
    8.8015   15.2695   21.1692 S   0  0  0  0  0  0  0  0  0  0  0  0
   11.5855   14.8706   21.7396 C   0  0  0  0  0  0  0  0  0  0  0  0
   10.9116   13.7850   22.3704 N   0  0  0  0  0  0  0  0  0  0  0  0
   10.4833   13.5924   23.8239 C   0  0  0  0  0  0  0  0  0  0  0  0
   10.6774   14.2521   24.7603 O   0  0  0  0  0  0  0  0  0  0  0  0
    9.6082   12.4043   23.9543 C   0  0  0  0  0  0  0  0  0  0  0  0
    9.9631   11.2136   23.3042 C   0  0  0  0  0  0  0  0  0  0  0  0
    9.3083   10.0232   23.5445 C   0  0  0  0  0  0  0  0  0  0  0  0
    8.2574   10.0069   24.4481 C   0  0  0  0  0  0  0  0  0  0  0  0
    7.7807   11.2006   25.0162 C   0  0  0  0  0  0  0  0  0  0  0  0
    6.7039   11.4648   25.8938 C   0  0  0  0  0  0  0  0  0  0  0  0
    6.6603   12.8183   26.0884 C   0  0  0  0  0  0  0  0  0  0  0  0
    7.6843   13.4004   25.3695 N   0  0  0  0  0  0  0  0  0  0  0  0
    7.7489   14.8518   25.1963 C   0  0  0  0  0  0  0  0  0  0  0  0
    7.9552   15.5952   26.4997 C   0  0  0  0  0  0  0  0  0  0  0  0
    6.9716   16.4866   26.9567 C   0  0  0  0  0  0  0  0  0  0  0  0
    7.1630   17.2230   28.1276 C   0  0  0  0  0  0  0  0  0  0  0  0
    8.3375   17.0777   28.8611 C   0  0  0  0  0  0  0  0  0  0  0  0
    9.3220   16.1960   28.4244 C   0  0  0  0  0  0  0  0  0  0  0  0
    9.1324   15.4630   27.2510 C   0  0  0  0  0  0  0  0  0  0  0  0
    8.4352   12.4117   24.7429 C   0  0  0  0  0  0  0  0  0  0  0  0
  2  1  1  6
  2  3  1  0
  2  4  1  0
  4  5  1  0
  5  6  1  0
  6  7  2  0
  6  8  1  0
  8  9  2  0
  9 10  1  0
 10 11  2  0
 11 12  1  0
 12 13  1  0
 13 14  2  0
 14 15  1  0
 15 16  1  0
 16 17  1  0
 17 18  2  0
 18 19  1  0
 19 20  2  0
 20 21  1  0
 21 22  2  0
 15 23  1  0
 23  8  1  0
 23 12  2  0
 22 17  1  0
M  END
>  <alias>  (2048) 
None

>  <rmsd(smina/fragmenstein)>  (2048) 
0.326

>  <smiles>  (2048) 
C[C@@H](S)CNC(=O)c1cccc2ccn(Cc3ccccc3)c12

>  <gnina_score>  (2048) 
5.748

>  <inspiration_score>  (2048) 
None

>  <energy_score>  (2048) 
-8.267717

>  <distance_score>  (2048) 
0.896453

>  <gnina_score_min>  (2048) 
5.715

>  <inchikey>  (2048) 
SRTPDPMSRWFNOJ-CQSZACIVSA-N

>  <exports>  (2048) 
['/opt/xchem-fragalysis-2/maxwin/BulkDock/OUTPUTS/openbind_a71ev2a_c2_elabs_1LOUU54.sdf', '/opt/xchem-fragalysis-2/maxwin/BulkDock/OUTPUTS/openbind_a71ev2a_c2_elabs_1LSYIDY.sdf']

>  <name>  (2048) 
P586079

>  <ref_pdb>  (2048) 
A0566a

>  <subsites>  (2048) 
None

>  <HIPPO Pose ID>  (2048) 
586079

>  <ref_mols>  (2048) 
A0566a

>  <HIPPO Compound ID>  (2048) 
441253

>  <tags>  (2048) 
openbind_a71ev2a_c2_elabs,syndirella_product,openbind_a71ev2a_c2_elabs_fragonly_scored_top80percent,BulkDock Fragalysis export,openbind_a71ev2a_c2_elabs_scored,openbind_a71ev2a_c2_elabs_scored_top80percent,openbind_a71ev2a_c2_elabs_activefrags_only_scored_5.2plus,openbind_a71ev2a_c2_elabs_activefrags_only_scored_5.5plus,syndirella_placed

>  <smina_score_min>  (2048) 
-6.604

$$$$
P586080
     RDKit          3D

 23 25  0  0  0  0  0  0  0  0999 V2000
   12.2025   14.4331   20.1335 C   0  0  0  0  0  0  0  0  0  0  0  0
   11.2859   14.8864   19.2719 C   0  0  0  0  0  0  0  0  0  0  0  0
   10.0619   15.6845   19.6027 C   0  0  0  0  0  0  0  0  0  0  0  0
    9.7472   15.8894   21.0772 C   0  0  0  0  0  0  0  0  0  0  0  0
    9.4390   14.6952   21.8454 N   0  0  0  0  0  0  0  0  0  0  0  0
   10.0420   14.1686   23.1627 C   0  0  0  0  0  0  0  0  0  0  0  0
   10.8270   14.6479   23.8797 O   0  0  0  0  0  0  0  0  0  0  0  0
    9.4600   12.8722   23.5408 C   0  0  0  0  0  0  0  0  0  0  0  0
   10.0809   11.7372   23.0161 C   0  0  0  0  0  0  0  0  0  0  0  0
    9.6282   10.4591   23.3056 C   0  0  0  0  0  0  0  0  0  0  0  0
    8.5656   10.2945   24.1853 C   0  0  0  0  0  0  0  0  0  0  0  0
    7.9433   11.4159   24.7661 C   0  0  0  0  0  0  0  0  0  0  0  0
    6.8716   11.5388   25.6837 C   0  0  0  0  0  0  0  0  0  0  0  0
    6.6793   12.8757   25.9118 C   0  0  0  0  0  0  0  0  0  0  0  0
    7.6064   13.5827   25.1771 N   0  0  0  0  0  0  0  0  0  0  0  0
    7.6544   15.0415   25.2071 C   0  0  0  0  0  0  0  0  0  0  0  0
    8.2409   15.5632   26.5014 C   0  0  0  0  0  0  0  0  0  0  0  0
    7.4762   16.3951   27.3334 C   0  0  0  0  0  0  0  0  0  0  0  0
    8.0184   16.9192   28.5088 C   0  0  0  0  0  0  0  0  0  0  0  0
    9.3276   16.6141   28.8733 C   0  0  0  0  0  0  0  0  0  0  0  0
   10.0978   15.7873   28.0606 C   0  0  0  0  0  0  0  0  0  0  0  0
    9.5616   15.2759   26.8776 C   0  0  0  0  0  0  0  0  0  0  0  0
    8.3915   12.7092   24.4432 C   0  0  0  0  0  0  0  0  0  0  0  0
  1  2  2  0
  2  3  1  0
  3  4  1  0
  4  5  1  0
  5  6  1  0
  6  7  2  0
  6  8  1  0
  8  9  2  0
  9 10  1  0
 10 11  2  0
 11 12  1  0
 12 13  1  0
 13 14  2  0
 14 15  1  0
 15 16  1  0
 16 17  1  0
 17 18  2  0
 18 19  1  0
 19 20  2  0
 20 21  1  0
 21 22  2  0
 15 23  1  0
 23  8  1  0
 23 12  2  0
 22 17  1  0
M  END
>  <alias>  (2049) 
None

>  <rmsd(smina/fragmenstein)>  (2049) 
0.348

>  <smiles>  (2049) 
C=CCCNC(=O)c1cccc2ccn(Cc3ccccc3)c12

>  <gnina_score>  (2049) 
5.374

>  <inspiration_score>  (2049) 
None

>  <energy_score>  (2049) 
-17.929048

>  <distance_score>  (2049) 
1.228216

>  <gnina_score_min>  (2049) 
5.361

>  <inchikey>  (2049) 
USTZZHWRZDWSNX-UHFFFAOYSA-N

>  <exports>  (2049) 
['/opt/xchem-fragalysis-2/maxwin/BulkDock/OUTPUTS/openbind_a71ev2a_c2_elabs_1LOUU54.sdf', '/opt/xchem-fragalysis-2/maxwin/BulkDock/OUTPUTS/openbind_a71ev2a_c2_elabs_1LSYIDY.sdf']

>  <name>  (2049) 
P586080

>  <ref_pdb>  (2049) 
A0566a

>  <subsites>  (2049) 
None

>  <HIPPO Pose ID>  (2049) 
586080

>  <ref_mols>  (2049) 
A0566a

>  <HIPPO Compound ID>  (2049) 
441254

>  <tags>  (2049) 
openbind_a71ev2a_c2_elabs,syndirella_product,openbind_a71ev2a_c2_elabs_fragonly_scored_top80percent,openbind_a71ev2a_c2_elabs_scored,BulkDock Fragalysis export,openbind_a71ev2a_c2_elabs_scored_top80percent,openbind_a71ev2a_c2_elabs_activefrags_only_scored_5.2plus,syndirella_placed

>  <smina_score_min>  (2049) 
-6.409

$$$$
P586081
     RDKit          3D

 23 25  0  0  0  0  0  0  0  0999 V2000
   10.0226   15.9570   20.8370 C   0  0  0  0  0  0  0  0  0  0  0  0
   11.1354   14.9293   21.0991 C   0  0  0  0  0  0  0  0  0  0  0  0
   12.3219   15.4247   21.9268 C   0  0  0  0  0  0  0  0  0  0  0  0
   11.6635   14.4451   19.7459 C   0  0  0  0  0  0  0  0  0  0  0  0
   10.5407   13.8532   21.8632 N   0  0  0  0  0  0  0  0  0  0  0  0
   10.2026   13.7590   23.3631 C   0  0  0  0  0  0  0  0  0  0  0  0
   10.4192   14.5018   24.2340 O   0  0  0  0  0  0  0  0  0  0  0  0
    9.4536   12.5264   23.6800 C   0  0  0  0  0  0  0  0  0  0  0  0
    9.9416   11.3242   23.1464 C   0  0  0  0  0  0  0  0  0  0  0  0
    9.4020   10.0965   23.4745 C   0  0  0  0  0  0  0  0  0  0  0  0
    8.3579   10.0485   24.3845 C   0  0  0  0  0  0  0  0  0  0  0  0
    7.8160   11.2284   24.9253 C   0  0  0  0  0  0  0  0  0  0  0  0
    6.7576   11.4420   25.8387 C   0  0  0  0  0  0  0  0  0  0  0  0
    6.6316   12.7931   26.0046 C   0  0  0  0  0  0  0  0  0  0  0  0
    7.5819   13.4248   25.2273 N   0  0  0  0  0  0  0  0  0  0  0  0
    7.5854   14.8819   25.1004 C   0  0  0  0  0  0  0  0  0  0  0  0
    7.9634   15.5712   26.3961 C   0  0  0  0  0  0  0  0  0  0  0  0
    7.0661   16.4680   26.9970 C   0  0  0  0  0  0  0  0  0  0  0  0
    7.4105   17.1455   28.1688 C   0  0  0  0  0  0  0  0  0  0  0  0
    8.6536   16.9344   28.7601 C   0  0  0  0  0  0  0  0  0  0  0  0
    9.5548   16.0471   28.1793 C   0  0  0  0  0  0  0  0  0  0  0  0
    9.2137   15.3765   27.0028 C   0  0  0  0  0  0  0  0  0  0  0  0
    8.3522   12.4771   24.5646 C   0  0  0  0  0  0  0  0  0  0  0  0
  1  2  1  0
  2  3  1  0
  2  4  1  0
  2  5  1  0
  5  6  1  0
  6  7  2  0
  6  8  1  0
  8  9  2  0
  9 10  1  0
 10 11  2  0
 11 12  1  0
 12 13  1  0
 13 14  2  0
 14 15  1  0
 15 16  1  0
 16 17  1  0
 17 18  2  0
 18 19  1  0
 19 20  2  0
 20 21  1  0
 21 22  2  0
 15 23  1  0
 23  8  1  0
 23 12  2  0
 22 17  1  0
M  END
>  <alias>  (2050) 
None

>  <rmsd(smina/fragmenstein)>  (2050) 
0.333

>  <smiles>  (2050) 
CC(C)(C)NC(=O)c1cccc2ccn(Cc3ccccc3)c12

>  <gnina_score>  (2050) 
5.608

>  <inspiration_score>  (2050) 
None

>  <energy_score>  (2050) 
-15.169371

>  <distance_score>  (2050) 
1.037103

>  <gnina_score_min>  (2050) 
5.606

>  <inchikey>  (2050) 
ABBKOZDURRURHR-UHFFFAOYSA-N

>  <exports>  (2050) 
['/opt/xchem-fragalysis-2/maxwin/BulkDock/OUTPUTS/openbind_a71ev2a_c2_elabs_1LOUU54.sdf', '/opt/xchem-fragalysis-2/maxwin/BulkDock/OUTPUTS/openbind_a71ev2a_c2_elabs_1LSYIDY.sdf']

>  <name>  (2050) 
P586081

>  <ref_pdb>  (2050) 
A0566a

>  <subsites>  (2050) 
None

>  <HIPPO Pose ID>  (2050) 
586081

>  <ref_mols>  (2050) 
A0566a

>  <HIPPO Compound ID>  (2050) 
441257

>  <tags>  (2050) 
openbind_a71ev2a_c2_elabs,syndirella_product,openbind_a71ev2a_c2_elabs_fragonly_scored_top80percent,BulkDock Fragalysis export,openbind_a71ev2a_c2_elabs_scored,openbind_a71ev2a_c2_elabs_scored_top80percent,openbind_a71ev2a_c2_elabs_activefrags_only_scored_5.2plus,openbind_a71ev2a_c2_elabs_activefrags_only_scored_5.5plus,syndirella_placed

>  <smina_score_min>  (2050) 
-7.042

$$$$
P586082
     RDKit          3D

 23 25  0  0  0  0  0  0  0  0999 V2000
    9.4487   14.8672   24.1153 O   0  0  0  0  0  0  0  0  0  0  0  0
    9.3901   14.0401   23.2992 C   0  0  0  0  0  0  0  0  0  0  0  0
    9.8282   14.0603   21.8296 N   0  0  0  0  0  0  0  0  0  0  0  0
   10.5135   15.0618   21.0802 C   0  0  0  0  0  0  0  0  0  0  0  0
   11.9941   14.7159   21.0973 C   0  0  0  0  0  0  0  0  0  0  0  0
   12.6448   15.0778   22.4086 C   0  0  0  0  0  0  0  0  0  0  0  0
   12.5727   13.6472   23.7442 Br  0  0  0  0  0  0  0  0  0  0  0  0
    8.9164   12.6935   23.6856 C   0  0  0  0  0  0  0  0  0  0  0  0
    9.6254   11.5602   23.2308 C   0  0  0  0  0  0  0  0  0  0  0  0
    9.2718   10.2789   23.6103 C   0  0  0  0  0  0  0  0  0  0  0  0
    8.2486   10.1113   24.5335 C   0  0  0  0  0  0  0  0  0  0  0  0
    7.5623   11.2219   25.0604 C   0  0  0  0  0  0  0  0  0  0  0  0
    6.5581   11.3443   26.0483 C   0  0  0  0  0  0  0  0  0  0  0  0
    6.2610   12.6773   26.1727 C   0  0  0  0  0  0  0  0  0  0  0  0
    6.9571   13.3716   25.2085 N   0  0  0  0  0  0  0  0  0  0  0  0
    6.7303   14.7899   24.8792 C   0  0  0  0  0  0  0  0  0  0  0  0
    5.3305   15.2930   25.1705 C   0  0  0  0  0  0  0  0  0  0  0  0
    5.1247   16.3160   26.1072 C   0  0  0  0  0  0  0  0  0  0  0  0
    3.8369   16.7831   26.3800 C   0  0  0  0  0  0  0  0  0  0  0  0
    2.7390   16.2360   25.7196 C   0  0  0  0  0  0  0  0  0  0  0  0
    2.9297   15.2322   24.7736 C   0  0  0  0  0  0  0  0  0  0  0  0
    4.2180   14.7734   24.4928 C   0  0  0  0  0  0  0  0  0  0  0  0
    7.8661   12.5097   24.6015 C   0  0  0  0  0  0  0  0  0  0  0  0
  1  2  2  0
  2  3  1  0
  3  4  1  0
  4  5  1  0
  5  6  1  0
  6  7  1  0
  2  8  1  0
  8  9  2  0
  9 10  1  0
 10 11  2  0
 11 12  1  0
 12 13  1  0
 13 14  2  0
 14 15  1  0
 15 16  1  0
 16 17  1  0
 17 18  2  0
 18 19  1  0
 19 20  2  0
 20 21  1  0
 21 22  2  0
 15 23  1  0
 23  8  1  0
 23 12  2  0
 22 17  1  0
M  END
>  <alias>  (2051) 
None

>  <rmsd(smina/fragmenstein)>  (2051) 
0.467

>  <smiles>  (2051) 
O=C(NCCCBr)c1cccc2ccn(Cc3ccccc3)c12

>  <gnina_score>  (2051) 
5.736

>  <inspiration_score>  (2051) 
None

>  <energy_score>  (2051) 
-1.897903

>  <distance_score>  (2051) 
1.527445

>  <gnina_score_min>  (2051) 
5.56

>  <inchikey>  (2051) 
QWEYTYYVDHYGOX-UHFFFAOYSA-N

>  <exports>  (2051) 
['/opt/xchem-fragalysis-2/maxwin/BulkDock/OUTPUTS/openbind_a71ev2a_c2_elabs_1LOUU54.sdf', '/opt/xchem-fragalysis-2/maxwin/BulkDock/OUTPUTS/openbind_a71ev2a_c2_elabs_1LSYIDY.sdf']

>  <name>  (2051) 
P586082

>  <ref_pdb>  (2051) 
A0566a

>  <subsites>  (2051) 
None

>  <HIPPO Pose ID>  (2051) 
586082

>  <ref_mols>  (2051) 
A0566a

>  <HIPPO Compound ID>  (2051) 
441259

>  <tags>  (2051) 
openbind_a71ev2a_c2_elabs,syndirella_product,openbind_a71ev2a_c2_elabs_fragonly_scored_top80percent,BulkDock Fragalysis export,openbind_a71ev2a_c2_elabs_scored,openbind_a71ev2a_c2_elabs_scored_top80percent,openbind_a71ev2a_c2_elabs_activefrags_only_scored_5.2plus,openbind_a71ev2a_c2_elabs_activefrags_only_scored_5.5plus,syndirella_placed

>  <smina_score_min>  (2051) 
-5.805

$$$$
P586083
     RDKit          3D

 23 25  0  0  0  0  0  0  0  0999 V2000
   11.1626   15.1290   18.3874 C   0  0  0  0  0  0  0  0  0  0  0  0
   11.6813   14.9463   19.7232 C   0  0  0  0  0  0  0  0  0  0  0  0
   12.0144   14.8865   20.8694 C   0  0  0  0  0  0  0  0  0  0  0  0
   12.1518   14.8004   22.2981 C   0  0  0  0  0  0  0  0  0  0  0  0
   11.0770   13.9678   22.7127 N   0  0  0  0  0  0  0  0  0  0  0  0
   10.4849   13.7320   24.0921 C   0  0  0  0  0  0  0  0  0  0  0  0
   10.7244   14.2348   25.1099 O   0  0  0  0  0  0  0  0  0  0  0  0
    9.5249   12.5968   24.0457 C   0  0  0  0  0  0  0  0  0  0  0  0
    9.9137   11.4239   23.3668 C   0  0  0  0  0  0  0  0  0  0  0  0
    9.2700   10.2161   23.5620 C   0  0  0  0  0  0  0  0  0  0  0  0
    8.2116   10.1576   24.4564 C   0  0  0  0  0  0  0  0  0  0  0  0
    7.7108   11.3310   25.0500 C   0  0  0  0  0  0  0  0  0  0  0  0
    6.6308   11.5626   25.9343 C   0  0  0  0  0  0  0  0  0  0  0  0
    6.5784   12.9101   26.1756 C   0  0  0  0  0  0  0  0  0  0  0  0
    7.6028   13.5197   25.4844 N   0  0  0  0  0  0  0  0  0  0  0  0
    7.6803   14.9738   25.3445 C   0  0  0  0  0  0  0  0  0  0  0  0
    7.8438   15.6988   26.6627 C   0  0  0  0  0  0  0  0  0  0  0  0
    8.9761   15.5222   27.4710 C   0  0  0  0  0  0  0  0  0  0  0  0
    9.1355   16.2496   28.6523 C   0  0  0  0  0  0  0  0  0  0  0  0
    8.1650   17.1689   29.0405 C   0  0  0  0  0  0  0  0  0  0  0  0
    7.0352   17.3587   28.2494 C   0  0  0  0  0  0  0  0  0  0  0  0
    6.8747   16.6292   27.0698 C   0  0  0  0  0  0  0  0  0  0  0  0
    8.3500   12.5587   24.8182 C   0  0  0  0  0  0  0  0  0  0  0  0
  1  2  1  0
  2  3  3  0
  3  4  1  0
  4  5  1  0
  5  6  1  0
  6  7  2  0
  6  8  1  0
  8  9  2  0
  9 10  1  0
 10 11  2  0
 11 12  1  0
 12 13  1  0
 13 14  2  0
 14 15  1  0
 15 16  1  0
 16 17  1  0
 17 18  2  0
 18 19  1  0
 19 20  2  0
 20 21  1  0
 21 22  2  0
 15 23  1  0
 23  8  1  0
 23 12  2  0
 22 17  1  0
M  END
>  <alias>  (2052) 
None

>  <rmsd(smina/fragmenstein)>  (2052) 
0.318

>  <smiles>  (2052) 
CC#CCNC(=O)c1cccc2ccn(Cc3ccccc3)c12

>  <gnina_score>  (2052) 
5.291

>  <inspiration_score>  (2052) 
None

>  <energy_score>  (2052) 
-2.873153

>  <distance_score>  (2052) 
0.90525

>  <gnina_score_min>  (2052) 
5.257

>  <inchikey>  (2052) 
RCHRGMYZZCIDDQ-UHFFFAOYSA-N

>  <exports>  (2052) 
['/opt/xchem-fragalysis-2/maxwin/BulkDock/OUTPUTS/openbind_a71ev2a_c2_elabs_1LOUU54.sdf', '/opt/xchem-fragalysis-2/maxwin/BulkDock/OUTPUTS/openbind_a71ev2a_c2_elabs_1LSYIDY.sdf']

>  <name>  (2052) 
P586083

>  <ref_pdb>  (2052) 
A0566a

>  <subsites>  (2052) 
None

>  <HIPPO Pose ID>  (2052) 
586083

>  <ref_mols>  (2052) 
A0566a

>  <HIPPO Compound ID>  (2052) 
441260

>  <tags>  (2052) 
openbind_a71ev2a_c2_elabs,syndirella_product,openbind_a71ev2a_c2_elabs_fragonly_scored_top80percent,openbind_a71ev2a_c2_elabs_scored,BulkDock Fragalysis export,openbind_a71ev2a_c2_elabs_scored_top80percent,openbind_a71ev2a_c2_elabs_activefrags_only_scored_5.2plus,syndirella_placed

>  <smina_score_min>  (2052) 
-6.16

$$$$
P586084
     RDKit          3D

 23 25  0  0  0  0  0  0  0  0999 V2000
   12.2640   14.4442   20.5553 C   0  0  0  0  0  0  0  0  0  0  0  0
   10.9595   14.9679   20.0152 C   0  0  0  0  0  0  0  0  0  0  0  0
   10.7423   15.0609   18.8055 O   0  0  0  0  0  0  0  0  0  0  0  0
    9.9633   15.4944   21.0234 C   0  0  0  0  0  0  0  0  0  0  0  0
    9.5518   14.4370   21.9086 N   0  0  0  0  0  0  0  0  0  0  0  0
   10.0817   14.0301   23.2877 C   0  0  0  0  0  0  0  0  0  0  0  0
   10.8839   14.5299   23.9647 O   0  0  0  0  0  0  0  0  0  0  0  0
    9.4586   12.7635   23.6951 C   0  0  0  0  0  0  0  0  0  0  0  0
   10.0031   11.6054   23.1278 C   0  0  0  0  0  0  0  0  0  0  0  0
    9.5000   10.3490   23.4179 C   0  0  0  0  0  0  0  0  0  0  0  0
    8.4440   10.2339   24.3141 C   0  0  0  0  0  0  0  0  0  0  0  0
    7.8669   11.3813   24.8937 C   0  0  0  0  0  0  0  0  0  0  0  0
    6.7931   11.5526   25.8001 C   0  0  0  0  0  0  0  0  0  0  0  0
    6.6511   12.8978   26.0191 C   0  0  0  0  0  0  0  0  0  0  0  0
    7.6110   13.5643   25.2895 N   0  0  0  0  0  0  0  0  0  0  0  0
    7.6958   15.0220   25.2831 C   0  0  0  0  0  0  0  0  0  0  0  0
    8.2746   15.5642   26.5708 C   0  0  0  0  0  0  0  0  0  0  0  0
    7.4993   16.3950   27.3939 C   0  0  0  0  0  0  0  0  0  0  0  0
    8.0324   16.9326   28.5671 C   0  0  0  0  0  0  0  0  0  0  0  0
    9.3431   16.6420   28.9377 C   0  0  0  0  0  0  0  0  0  0  0  0
   10.1236   15.8166   28.1334 C   0  0  0  0  0  0  0  0  0  0  0  0
    9.5966   15.2920   26.9522 C   0  0  0  0  0  0  0  0  0  0  0  0
    8.3751   12.6536   24.5803 C   0  0  0  0  0  0  0  0  0  0  0  0
  1  2  1  0
  2  3  2  0
  2  4  1  0
  4  5  1  0
  5  6  1  0
  6  7  2  0
  6  8  1  0
  8  9  2  0
  9 10  1  0
 10 11  2  0
 11 12  1  0
 12 13  1  0
 13 14  2  0
 14 15  1  0
 15 16  1  0
 16 17  1  0
 17 18  2  0
 18 19  1  0
 19 20  2  0
 20 21  1  0
 21 22  2  0
 15 23  1  0
 23  8  1  0
 23 12  2  0
 22 17  1  0
M  END
>  <alias>  (2053) 
None

>  <rmsd(smina/fragmenstein)>  (2053) 
0.314

>  <smiles>  (2053) 
CC(=O)CNC(=O)c1cccc2ccn(Cc3ccccc3)c12

>  <gnina_score>  (2053) 
5.397

>  <inspiration_score>  (2053) 
None

>  <energy_score>  (2053) 
-7.72799

>  <distance_score>  (2053) 
1.180542

>  <gnina_score_min>  (2053) 
5.341

>  <inchikey>  (2053) 
XFWOJHBQTGDPHV-UHFFFAOYSA-N

>  <exports>  (2053) 
['/opt/xchem-fragalysis-2/maxwin/BulkDock/OUTPUTS/openbind_a71ev2a_c2_elabs_1LOUU54.sdf', '/opt/xchem-fragalysis-2/maxwin/BulkDock/OUTPUTS/openbind_a71ev2a_c2_elabs_1LSYIDY.sdf']

>  <name>  (2053) 
P586084

>  <ref_pdb>  (2053) 
A0566a

>  <subsites>  (2053) 
None

>  <HIPPO Pose ID>  (2053) 
586084

>  <ref_mols>  (2053) 
A0566a

>  <HIPPO Compound ID>  (2053) 
441262

>  <tags>  (2053) 
openbind_a71ev2a_c2_elabs,syndirella_product,openbind_a71ev2a_c2_elabs_fragonly_scored_top80percent,openbind_a71ev2a_c2_elabs_scored,BulkDock Fragalysis export,openbind_a71ev2a_c2_elabs_scored_top80percent,openbind_a71ev2a_c2_elabs_activefrags_only_scored_5.2plus,syndirella_placed

>  <smina_score_min>  (2053) 
-6.85

$$$$
P586085
     RDKit          3D

 23 26  0  0  0  0  0  0  0  0999 V2000
   11.8146   14.2872   19.7877 C   0  0  0  0  0  0  0  0  0  0  0  0
   11.2263   14.6531   21.1191 C   0  0  0  0  0  0  0  0  0  0  0  0
   10.6433   13.6269   21.8885 N   0  0  0  0  0  0  0  0  0  0  0  0
   10.2892   13.5769   23.3949 C   0  0  0  0  0  0  0  0  0  0  0  0
   10.4960   14.3482   24.2469 O   0  0  0  0  0  0  0  0  0  0  0  0
    9.4821   12.3858   23.7202 C   0  0  0  0  0  0  0  0  0  0  0  0
    9.9024   11.1594   23.1859 C   0  0  0  0  0  0  0  0  0  0  0  0
    9.3148    9.9638   23.5356 C   0  0  0  0  0  0  0  0  0  0  0  0
    8.2776    9.9733   24.4536 C   0  0  0  0  0  0  0  0  0  0  0  0
    7.7826   11.1817   24.9737 C   0  0  0  0  0  0  0  0  0  0  0  0
    6.7291   11.4502   25.8771 C   0  0  0  0  0  0  0  0  0  0  0  0
    6.6552   12.8072   26.0203 C   0  0  0  0  0  0  0  0  0  0  0  0
    7.6365   13.3889   25.2419 N   0  0  0  0  0  0  0  0  0  0  0  0
    7.6915   14.8423   25.0923 C   0  0  0  0  0  0  0  0  0  0  0  0
    8.0641   15.5390   26.3855 C   0  0  0  0  0  0  0  0  0  0  0  0
    7.1536   16.4182   26.9931 C   0  0  0  0  0  0  0  0  0  0  0  0
    7.4901   17.0962   28.1669 C   0  0  0  0  0  0  0  0  0  0  0  0
    8.7372   16.9011   28.7550 C   0  0  0  0  0  0  0  0  0  0  0  0
    9.6500   16.0290   28.1693 C   0  0  0  0  0  0  0  0  0  0  0  0
    9.3175   15.3593   26.9898 C   0  0  0  0  0  0  0  0  0  0  0  0
    8.3732   12.4009   24.5986 C   0  0  0  0  0  0  0  0  0  0  0  0
   11.8436   15.7871   21.8496 C   0  0  0  0  0  0  0  0  0  0  0  0
   10.5144   15.9607   21.1194 C   0  0  0  0  0  0  0  0  0  0  0  0
  1  2  1  0
  2  3  1  0
  3  4  1  0
  4  5  2  0
  4  6  1  0
  6  7  2  0
  7  8  1  0
  8  9  2  0
  9 10  1  0
 10 11  1  0
 11 12  2  0
 12 13  1  0
 13 14  1  0
 14 15  1  0
 15 16  2  0
 16 17  1  0
 17 18  2  0
 18 19  1  0
 19 20  2  0
 13 21  1  0
  2 22  1  0
 22 23  1  0
 23  2  1  0
 21  6  1  0
 21 10  2  0
 20 15  1  0
M  END
>  <alias>  (2054) 
None

>  <rmsd(smina/fragmenstein)>  (2054) 
0.604

>  <smiles>  (2054) 
CC1(NC(=O)c2cccc3ccn(Cc4ccccc4)c23)CC1

>  <gnina_score>  (2054) 
5.453

>  <inspiration_score>  (2054) 
None

>  <energy_score>  (2054) 
-9.818227

>  <distance_score>  (2054) 
1.048057

>  <gnina_score_min>  (2054) 
5.43

>  <inchikey>  (2054) 
NCPALLIQFIRKKY-UHFFFAOYSA-N

>  <exports>  (2054) 
['/opt/xchem-fragalysis-2/maxwin/BulkDock/OUTPUTS/openbind_a71ev2a_c2_elabs_1LOUU54.sdf', '/opt/xchem-fragalysis-2/maxwin/BulkDock/OUTPUTS/openbind_a71ev2a_c2_elabs_1LSYIDY.sdf']

>  <name>  (2054) 
P586085

>  <ref_pdb>  (2054) 
A0566a

>  <subsites>  (2054) 
None

>  <HIPPO Pose ID>  (2054) 
586085

>  <ref_mols>  (2054) 
A0566a

>  <HIPPO Compound ID>  (2054) 
441264

>  <tags>  (2054) 
openbind_a71ev2a_c2_elabs,syndirella_product,openbind_a71ev2a_c2_elabs_fragonly_scored_top80percent,openbind_a71ev2a_c2_elabs_scored,BulkDock Fragalysis export,openbind_a71ev2a_c2_elabs_scored_top80percent,openbind_a71ev2a_c2_elabs_activefrags_only_scored_5.2plus,syndirella_placed

>  <smina_score_min>  (2054) 
-5.715

$$$$
P586086
     RDKit          3D

 23 25  0  0  0  0  0  0  0  0999 V2000
   10.1460   15.7601   20.4032 C   0  0  0  0  0  0  0  0  0  0  0  0
   11.1016   14.7640   21.0442 C   0  0  1  0  0  0  0  0  0  0  0  0
   12.2548   15.3779   21.8335 C   0  0  0  0  0  0  0  0  0  0  0  0
   12.8973   14.4296   22.6819 O   0  0  0  0  0  0  0  0  0  0  0  0
   10.3623   13.8241   21.8376 N   0  0  0  0  0  0  0  0  0  0  0  0
   10.0155   13.8360   23.3340 C   0  0  0  0  0  0  0  0  0  0  0  0
   10.2076   14.6465   24.1463 O   0  0  0  0  0  0  0  0  0  0  0  0
    9.3450   12.5759   23.7257 C   0  0  0  0  0  0  0  0  0  0  0  0
    9.8872   11.3732   23.2330 C   0  0  0  0  0  0  0  0  0  0  0  0
    9.3681   10.1366   23.5601 C   0  0  0  0  0  0  0  0  0  0  0  0
    8.3091   10.0749   24.4506 C   0  0  0  0  0  0  0  0  0  0  0  0
    7.7433   11.2480   24.9836 C   0  0  0  0  0  0  0  0  0  0  0  0
    6.6812   11.4442   25.8964 C   0  0  0  0  0  0  0  0  0  0  0  0
    6.5267   12.7932   26.0562 C   0  0  0  0  0  0  0  0  0  0  0  0
    7.4569   13.4417   25.2685 N   0  0  0  0  0  0  0  0  0  0  0  0
    7.4332   14.8995   25.1474 C   0  0  0  0  0  0  0  0  0  0  0  0
    7.8751   15.5906   26.4221 C   0  0  0  0  0  0  0  0  0  0  0  0
    9.1416   15.3717   26.9858 C   0  0  0  0  0  0  0  0  0  0  0  0
    9.5405   16.0428   28.1438 C   0  0  0  0  0  0  0  0  0  0  0  0
    8.6827   16.9573   28.7476 C   0  0  0  0  0  0  0  0  0  0  0  0
    7.4259   17.1958   28.1969 C   0  0  0  0  0  0  0  0  0  0  0  0
    7.0236   16.5172   27.0440 C   0  0  0  0  0  0  0  0  0  0  0  0
    8.2484   12.5074   24.6124 C   0  0  0  0  0  0  0  0  0  0  0  0
  2  1  1  1
  2  3  1  0
  3  4  1  0
  2  5  1  0
  5  6  1  0
  6  7  2  0
  6  8  1  0
  8  9  2  0
  9 10  1  0
 10 11  2  0
 11 12  1  0
 12 13  1  0
 13 14  2  0
 14 15  1  0
 15 16  1  0
 16 17  1  0
 17 18  2  0
 18 19  1  0
 19 20  2  0
 20 21  1  0
 21 22  2  0
 15 23  1  0
 23  8  1  0
 23 12  2  0
 22 17  1  0
M  END
>  <alias>  (2055) 
None

>  <rmsd(smina/fragmenstein)>  (2055) 
0.576

>  <smiles>  (2055) 
C[C@@H](CO)NC(=O)c1cccc2ccn(Cc3ccccc3)c12

>  <gnina_score>  (2055) 
5.461

>  <inspiration_score>  (2055) 
None

>  <energy_score>  (2055) 
-12.003937

>  <distance_score>  (2055) 
1.161968

>  <gnina_score_min>  (2055) 
5.421

>  <inchikey>  (2055) 
WICHENFKFXAXFJ-AWEZNQCLSA-N

>  <exports>  (2055) 
['/opt/xchem-fragalysis-2/maxwin/BulkDock/OUTPUTS/openbind_a71ev2a_c2_elabs_1LOUU54.sdf', '/opt/xchem-fragalysis-2/maxwin/BulkDock/OUTPUTS/openbind_a71ev2a_c2_elabs_1LSYIDY.sdf']

>  <name>  (2055) 
P586086

>  <ref_pdb>  (2055) 
A0566a

>  <subsites>  (2055) 
None

>  <HIPPO Pose ID>  (2055) 
586086

>  <ref_mols>  (2055) 
A0566a

>  <HIPPO Compound ID>  (2055) 
441265

>  <tags>  (2055) 
openbind_a71ev2a_c2_elabs,syndirella_product,openbind_a71ev2a_c2_elabs_fragonly_scored_top80percent,openbind_a71ev2a_c2_elabs_scored,BulkDock Fragalysis export,openbind_a71ev2a_c2_elabs_scored_top80percent,openbind_a71ev2a_c2_elabs_activefrags_only_scored_5.2plus,syndirella_placed

>  <smina_score_min>  (2055) 
-6.906

$$$$
P586088
     RDKit          3D

 23 25  0  0  0  0  0  0  0  0999 V2000
   10.2061   15.8671   19.2318 C   0  0  0  0  0  0  0  0  0  0  0  0
   10.4091   15.7115   20.5462 C   0  0  0  0  0  0  0  0  0  0  0  0
   11.3646   14.7237   21.1372 C   0  0  1  0  0  0  0  0  0  0  0  0
   12.4824   15.3017   21.9805 C   0  0  0  0  0  0  0  0  0  0  0  0
   10.5520   13.8182   21.8892 N   0  0  0  0  0  0  0  0  0  0  0  0
   10.2694   13.7473   23.3986 C   0  0  0  0  0  0  0  0  0  0  0  0
   10.5912   14.4604   24.2614 O   0  0  0  0  0  0  0  0  0  0  0  0
    9.4783   12.5385   23.7259 C   0  0  0  0  0  0  0  0  0  0  0  0
    9.9298   11.3192   23.1912 C   0  0  0  0  0  0  0  0  0  0  0  0
    9.3574   10.1062   23.5177 C   0  0  0  0  0  0  0  0  0  0  0  0
    8.3110   10.0861   24.4249 C   0  0  0  0  0  0  0  0  0  0  0  0
    7.7991   11.2827   24.9595 C   0  0  0  0  0  0  0  0  0  0  0  0
    6.7377   11.5275   25.8617 C   0  0  0  0  0  0  0  0  0  0  0  0
    6.6509   12.8819   26.0287 C   0  0  0  0  0  0  0  0  0  0  0  0
    7.6329   13.4842   25.2688 N   0  0  0  0  0  0  0  0  0  0  0  0
    7.7043   14.9394   25.1596 C   0  0  0  0  0  0  0  0  0  0  0  0
    8.1028   15.5920   26.4677 C   0  0  0  0  0  0  0  0  0  0  0  0
    7.2158   16.4698   27.1106 C   0  0  0  0  0  0  0  0  0  0  0  0
    7.5812   17.1124   28.2954 C   0  0  0  0  0  0  0  0  0  0  0  0
    8.8340   16.8827   28.8587 C   0  0  0  0  0  0  0  0  0  0  0  0
    9.7235   16.0110   28.2372 C   0  0  0  0  0  0  0  0  0  0  0  0
    9.3623   15.3765   27.0471 C   0  0  0  0  0  0  0  0  0  0  0  0
    8.3752   12.5167   24.6056 C   0  0  0  0  0  0  0  0  0  0  0  0
  1  2  2  0
  2  3  1  0
  3  4  1  1
  3  5  1  0
  5  6  1  0
  6  7  2  0
  6  8  1  0
  8  9  2  0
  9 10  1  0
 10 11  2  0
 11 12  1  0
 12 13  1  0
 13 14  2  0
 14 15  1  0
 15 16  1  0
 16 17  1  0
 17 18  2  0
 18 19  1  0
 19 20  2  0
 20 21  1  0
 21 22  2  0
 15 23  1  0
 23  8  1  0
 23 12  2  0
 22 17  1  0
M  END
>  <alias>  (2056) 
None

>  <rmsd(smina/fragmenstein)>  (2056) 
0.357

>  <smiles>  (2056) 
C=C[C@@H](C)NC(=O)c1cccc2ccn(Cc3ccccc3)c12

>  <gnina_score>  (2056) 
5.638

>  <inspiration_score>  (2056) 
None

>  <energy_score>  (2056) 
-5.462342

>  <distance_score>  (2056) 
1.000992

>  <gnina_score_min>  (2056) 
5.558

>  <inchikey>  (2056) 
IFKVBPAKQGHBOP-OAHLLOKOSA-N

>  <exports>  (2056) 
['/opt/xchem-fragalysis-2/maxwin/BulkDock/OUTPUTS/openbind_a71ev2a_c2_elabs_1LOUU54.sdf', '/opt/xchem-fragalysis-2/maxwin/BulkDock/OUTPUTS/openbind_a71ev2a_c2_elabs_1LSYIDY.sdf']

>  <name>  (2056) 
P586088

>  <ref_pdb>  (2056) 
A0566a

>  <subsites>  (2056) 
None

>  <HIPPO Pose ID>  (2056) 
586088

>  <ref_mols>  (2056) 
A0566a

>  <HIPPO Compound ID>  (2056) 
441267

>  <tags>  (2056) 
openbind_a71ev2a_c2_elabs,syndirella_product,openbind_a71ev2a_c2_elabs_fragonly_scored_top80percent,BulkDock Fragalysis export,openbind_a71ev2a_c2_elabs_scored,openbind_a71ev2a_c2_elabs_scored_top80percent,openbind_a71ev2a_c2_elabs_activefrags_only_scored_5.2plus,openbind_a71ev2a_c2_elabs_activefrags_only_scored_5.5plus,syndirella_placed

>  <smina_score_min>  (2056) 
-7.413

$$$$
P586090
     RDKit          3D

 23 26  0  0  0  0  0  0  0  0999 V2000
   10.4576   14.6687   24.3912 O   0  0  0  0  0  0  0  0  0  0  0  0
   10.2377   13.9399   23.4955 C   0  0  0  0  0  0  0  0  0  0  0  0
    9.5013   12.6833   23.7527 C   0  0  0  0  0  0  0  0  0  0  0  0
    9.9973   11.5184   23.1467 C   0  0  0  0  0  0  0  0  0  0  0  0
    9.4701   10.2670   23.4094 C   0  0  0  0  0  0  0  0  0  0  0  0
    8.4273   10.1556   24.3162 C   0  0  0  0  0  0  0  0  0  0  0  0
    7.8678   11.3012   24.9123 C   0  0  0  0  0  0  0  0  0  0  0  0
    6.8014   11.4594   25.8287 C   0  0  0  0  0  0  0  0  0  0  0  0
    6.6573   12.8002   26.0587 C   0  0  0  0  0  0  0  0  0  0  0  0
    7.5996   13.4792   25.3138 N   0  0  0  0  0  0  0  0  0  0  0  0
    7.5646   14.9381   25.2195 C   0  0  0  0  0  0  0  0  0  0  0  0
    7.9327   15.6219   26.5196 C   0  0  0  0  0  0  0  0  0  0  0  0
    9.1722   15.4162   27.1441 C   0  0  0  0  0  0  0  0  0  0  0  0
    9.5092   16.0966   28.3161 C   0  0  0  0  0  0  0  0  0  0  0  0
    8.6144   17.0040   28.8754 C   0  0  0  0  0  0  0  0  0  0  0  0
    7.3822   17.2267   28.2662 C   0  0  0  0  0  0  0  0  0  0  0  0
    7.0427   16.5408   27.0979 C   0  0  0  0  0  0  0  0  0  0  0  0
    8.3926   12.5737   24.6206 C   0  0  0  0  0  0  0  0  0  0  0  0
   10.5560   14.0728   22.0349 N   0  0  0  0  0  0  0  0  0  0  0  0
   11.3413   15.1307   21.2865 C   0  0  0  0  0  0  0  0  0  0  0  0
   10.3729   15.0259   20.1378 C   0  0  0  0  0  0  0  0  0  0  0  0
   10.0996   16.1654   19.3002 O   0  0  0  0  0  0  0  0  0  0  0  0
    9.4059   14.7719   21.2641 C   0  0  0  0  0  0  0  0  0  0  0  0
  1  2  2  0
  2  3  1  0
  3  4  2  0
  4  5  1  0
  5  6  2  0
  6  7  1  0
  7  8  1  0
  8  9  2  0
  9 10  1  0
 10 11  1  0
 11 12  1  0
 12 13  2  0
 13 14  1  0
 14 15  2  0
 15 16  1  0
 16 17  2  0
 10 18  1  0
  2 19  1  0
 19 20  1  0
 20 21  1  0
 21 22  1  0
 21 23  1  0
 18  3  1  0
 23 19  1  0
 18  7  2  0
 17 12  1  0
M  END
>  <alias>  (2057) 
None

>  <rmsd(smina/fragmenstein)>  (2057) 
0.439

>  <smiles>  (2057) 
O=C(c1cccc2ccn(Cc3ccccc3)c12)N1CC(O)C1

>  <gnina_score>  (2057) 
5.418

>  <inspiration_score>  (2057) 
None

>  <energy_score>  (2057) 
-12.159611

>  <distance_score>  (2057) 
0.961464

>  <gnina_score_min>  (2057) 
5.286

>  <inchikey>  (2057) 
VZVVMFQTCLENHT-UHFFFAOYSA-N

>  <exports>  (2057) 
['/opt/xchem-fragalysis-2/maxwin/BulkDock/OUTPUTS/openbind_a71ev2a_c2_elabs_1LOUU54.sdf', '/opt/xchem-fragalysis-2/maxwin/BulkDock/OUTPUTS/openbind_a71ev2a_c2_elabs_1LSYIDY.sdf']

>  <name>  (2057) 
P586090

>  <ref_pdb>  (2057) 
A0566a

>  <subsites>  (2057) 
None

>  <HIPPO Pose ID>  (2057) 
586090

>  <ref_mols>  (2057) 
A0566a

>  <HIPPO Compound ID>  (2057) 
441268

>  <tags>  (2057) 
openbind_a71ev2a_c2_elabs,syndirella_product,openbind_a71ev2a_c2_elabs_fragonly_scored_top80percent,openbind_a71ev2a_c2_elabs_scored,BulkDock Fragalysis export,openbind_a71ev2a_c2_elabs_scored_top80percent,openbind_a71ev2a_c2_elabs_activefrags_only_scored_5.2plus,syndirella_placed

>  <smina_score_min>  (2057) 
-7.344

$$$$
P586091
     RDKit          3D

 23 25  0  0  0  0  0  0  0  0999 V2000
   12.4365   15.2763   21.9163 C   0  0  0  0  0  0  0  0  0  0  0  0
   11.2348   14.7903   21.1305 C   0  0  2  0  0  0  0  0  0  0  0  0
   10.3166   15.8601   20.7040 C   0  0  0  0  0  0  0  0  0  0  0  0
    9.5519   16.6692   20.3763 N   0  0  0  0  0  0  0  0  0  0  0  0
   10.4948   13.8330   21.9069 N   0  0  0  0  0  0  0  0  0  0  0  0
   10.2454   13.7547   23.4170 C   0  0  0  0  0  0  0  0  0  0  0  0
   10.5333   14.4927   24.2677 O   0  0  0  0  0  0  0  0  0  0  0  0
    9.4723   12.5376   23.7464 C   0  0  0  0  0  0  0  0  0  0  0  0
    9.9308   11.3272   23.1985 C   0  0  0  0  0  0  0  0  0  0  0  0
    9.3637   10.1095   23.5163 C   0  0  0  0  0  0  0  0  0  0  0  0
    8.3172   10.0785   24.4239 C   0  0  0  0  0  0  0  0  0  0  0  0
    7.7974   11.2683   24.9666 C   0  0  0  0  0  0  0  0  0  0  0  0
    6.7347   11.5019   25.8700 C   0  0  0  0  0  0  0  0  0  0  0  0
    6.6374   12.8551   26.0415 C   0  0  0  0  0  0  0  0  0  0  0  0
    7.6112   13.4687   25.2800 N   0  0  0  0  0  0  0  0  0  0  0  0
    7.6579   14.9255   25.1637 C   0  0  0  0  0  0  0  0  0  0  0  0
    8.0556   15.5918   26.4651 C   0  0  0  0  0  0  0  0  0  0  0  0
    9.3116   15.3791   27.0531 C   0  0  0  0  0  0  0  0  0  0  0  0
    9.6712   16.0292   28.2355 C   0  0  0  0  0  0  0  0  0  0  0  0
    8.7834   16.9142   28.8403 C   0  0  0  0  0  0  0  0  0  0  0  0
    7.5347   17.1425   28.2678 C   0  0  0  0  0  0  0  0  0  0  0  0
    7.1712   16.4846   27.0908 C   0  0  0  0  0  0  0  0  0  0  0  0
    8.3657   12.5075   24.6204 C   0  0  0  0  0  0  0  0  0  0  0  0
  2  1  1  1
  2  3  1  0
  3  4  3  0
  2  5  1  0
  5  6  1  0
  6  7  2  0
  6  8  1  0
  8  9  2  0
  9 10  1  0
 10 11  2  0
 11 12  1  0
 12 13  1  0
 13 14  2  0
 14 15  1  0
 15 16  1  0
 16 17  1  0
 17 18  2  0
 18 19  1  0
 19 20  2  0
 20 21  1  0
 21 22  2  0
 15 23  1  0
 23  8  1  0
 23 12  2  0
 22 17  1  0
M  END
>  <alias>  (2058) 
None

>  <rmsd(smina/fragmenstein)>  (2058) 
0.328

>  <smiles>  (2058) 
C[C@H](C#N)NC(=O)c1cccc2ccn(Cc3ccccc3)c12

>  <gnina_score>  (2058) 
5.698

>  <inspiration_score>  (2058) 
None

>  <energy_score>  (2058) 
-5.241705

>  <distance_score>  (2058) 
1.023558

>  <gnina_score_min>  (2058) 
5.622

>  <inchikey>  (2058) 
WEZMLRXYEKZQLP-CQSZACIVSA-N

>  <exports>  (2058) 
['/opt/xchem-fragalysis-2/maxwin/BulkDock/OUTPUTS/openbind_a71ev2a_c2_elabs_1LOUU54.sdf', '/opt/xchem-fragalysis-2/maxwin/BulkDock/OUTPUTS/openbind_a71ev2a_c2_elabs_1LSYIDY.sdf']

>  <name>  (2058) 
P586091

>  <ref_pdb>  (2058) 
A0566a

>  <subsites>  (2058) 
None

>  <HIPPO Pose ID>  (2058) 
586091

>  <ref_mols>  (2058) 
A0566a

>  <HIPPO Compound ID>  (2058) 
441269

>  <tags>  (2058) 
openbind_a71ev2a_c2_elabs,syndirella_product,openbind_a71ev2a_c2_elabs_fragonly_scored_top80percent,BulkDock Fragalysis export,openbind_a71ev2a_c2_elabs_scored,openbind_a71ev2a_c2_elabs_scored_top80percent,openbind_a71ev2a_c2_elabs_activefrags_only_scored_5.2plus,openbind_a71ev2a_c2_elabs_activefrags_only_scored_5.5plus,syndirella_placed

>  <smina_score_min>  (2058) 
-7.124

$$$$
P586092
     RDKit          3D

 23 25  0  0  0  0  0  0  0  0999 V2000
   10.4043   15.9459   18.9113 C   0  0  0  0  0  0  0  0  0  0  0  0
   11.4692   14.5006   19.1576 S   0  0  0  0  0  0  0  0  0  0  0  0
   12.2675   14.7559   20.7783 C   0  0  0  0  0  0  0  0  0  0  0  0
   11.4086   15.2658   21.9100 C   0  0  0  0  0  0  0  0  0  0  0  0
   10.5269   14.2518   22.3906 N   0  0  0  0  0  0  0  0  0  0  0  0
   10.0257   13.9596   23.8045 C   0  0  0  0  0  0  0  0  0  0  0  0
   10.1876   14.5428   24.7980 O   0  0  0  0  0  0  0  0  0  0  0  0
    9.3051   12.6747   23.8428 C   0  0  0  0  0  0  0  0  0  0  0  0
    9.8985   11.5521   23.2401 C   0  0  0  0  0  0  0  0  0  0  0  0
    9.4168   10.2738   23.4663 C   0  0  0  0  0  0  0  0  0  0  0  0
    8.3695   10.0959   24.3636 C   0  0  0  0  0  0  0  0  0  0  0  0
    7.7385   11.2022   24.9612 C   0  0  0  0  0  0  0  0  0  0  0  0
    6.7070   11.3217   25.9231 C   0  0  0  0  0  0  0  0  0  0  0  0
    6.4915   12.6609   26.1317 C   0  0  0  0  0  0  0  0  0  0  0  0
    7.2694   13.3637   25.2358 N   0  0  0  0  0  0  0  0  0  0  0  0
    6.9900   14.7585   24.8754 C   0  0  0  0  0  0  0  0  0  0  0  0
    5.7130   14.8426   24.0644 C   0  0  0  0  0  0  0  0  0  0  0  0
    5.7458   14.7013   22.6691 C   0  0  0  0  0  0  0  0  0  0  0  0
    4.5572   14.6188   21.9391 C   0  0  0  0  0  0  0  0  0  0  0  0
    3.3266   14.6843   22.5905 C   0  0  0  0  0  0  0  0  0  0  0  0
    3.2811   14.8716   23.9705 C   0  0  0  0  0  0  0  0  0  0  0  0
    4.4668   14.9598   24.7020 C   0  0  0  0  0  0  0  0  0  0  0  0
    8.1679   12.4945   24.6412 C   0  0  0  0  0  0  0  0  0  0  0  0
  1  2  1  0
  2  3  1  0
  3  4  1  0
  4  5  1  0
  5  6  1  0
  6  7  2  0
  6  8  1  0
  8  9  2  0
  9 10  1  0
 10 11  2  0
 11 12  1  0
 12 13  1  0
 13 14  2  0
 14 15  1  0
 15 16  1  0
 16 17  1  0
 17 18  2  0
 18 19  1  0
 19 20  2  0
 20 21  1  0
 21 22  2  0
 15 23  1  0
 23  8  1  0
 23 12  2  0
 22 17  1  0
M  END
>  <alias>  (2059) 
None

>  <rmsd(smina/fragmenstein)>  (2059) 
0.646

>  <smiles>  (2059) 
CSCCNC(=O)c1cccc2ccn(Cc3ccccc3)c12

>  <gnina_score>  (2059) 
5.67

>  <inspiration_score>  (2059) 
None

>  <energy_score>  (2059) 
-9.485351

>  <distance_score>  (2059) 
1.043126

>  <gnina_score_min>  (2059) 
5.703

>  <inchikey>  (2059) 
FVKMVWBOUYLZJK-UHFFFAOYSA-N

>  <exports>  (2059) 
['/opt/xchem-fragalysis-2/maxwin/BulkDock/OUTPUTS/openbind_a71ev2a_c2_elabs_1LOUU54.sdf', '/opt/xchem-fragalysis-2/maxwin/BulkDock/OUTPUTS/openbind_a71ev2a_c2_elabs_1LSYIDY.sdf']

>  <name>  (2059) 
P586092

>  <ref_pdb>  (2059) 
A0566a

>  <subsites>  (2059) 
None

>  <HIPPO Pose ID>  (2059) 
586092

>  <ref_mols>  (2059) 
A0566a

>  <HIPPO Compound ID>  (2059) 
441272

>  <tags>  (2059) 
openbind_a71ev2a_c2_elabs,syndirella_product,openbind_a71ev2a_c2_elabs_fragonly_scored_top80percent,BulkDock Fragalysis export,openbind_a71ev2a_c2_elabs_scored,openbind_a71ev2a_c2_elabs_scored_top80percent,openbind_a71ev2a_c2_elabs_activefrags_only_scored_5.2plus,openbind_a71ev2a_c2_elabs_activefrags_only_scored_5.5plus,syndirella_placed

>  <smina_score_min>  (2059) 
-6.526

$$$$
P586093
     RDKit          3D

 23 25  0  0  0  0  0  0  0  0999 V2000
   12.4755   14.4400   20.7435 C   0  0  0  0  0  0  0  0  0  0  0  0
   11.1548   14.9123   20.1789 C   0  0  0  0  0  0  0  0  0  0  0  0
   10.3175   15.4759   21.2453 N   0  0  0  0  0  0  0  0  0  0  0  0
    9.2425   16.2585   20.6422 C   0  0  0  0  0  0  0  0  0  0  0  0
    9.8169   14.4515   22.0237 N   0  0  0  0  0  0  0  0  0  0  0  0
   10.1721   14.0205   23.4620 C   0  0  0  0  0  0  0  0  0  0  0  0
   10.8874   14.5090   24.2430 O   0  0  0  0  0  0  0  0  0  0  0  0
    9.4881   12.7602   23.7710 C   0  0  0  0  0  0  0  0  0  0  0  0
   10.0090   11.6119   23.1617 C   0  0  0  0  0  0  0  0  0  0  0  0
    9.4847   10.3569   23.4173 C   0  0  0  0  0  0  0  0  0  0  0  0
    8.4281   10.2349   24.3127 C   0  0  0  0  0  0  0  0  0  0  0  0
    7.8598   11.3763   24.9136 C   0  0  0  0  0  0  0  0  0  0  0  0
    6.7846   11.5430   25.8193 C   0  0  0  0  0  0  0  0  0  0  0  0
    6.6550   12.8859   26.0614 C   0  0  0  0  0  0  0  0  0  0  0  0
    7.6230   13.5566   25.3461 N   0  0  0  0  0  0  0  0  0  0  0  0
    7.6878   15.0166   25.3205 C   0  0  0  0  0  0  0  0  0  0  0  0
    8.1880   15.5994   26.6230 C   0  0  0  0  0  0  0  0  0  0  0  0
    9.4851   15.3466   27.0925 C   0  0  0  0  0  0  0  0  0  0  0  0
    9.9446   15.9252   28.2769 C   0  0  0  0  0  0  0  0  0  0  0  0
    9.1194   16.7825   28.9987 C   0  0  0  0  0  0  0  0  0  0  0  0
    7.8321   17.0531   28.5414 C   0  0  0  0  0  0  0  0  0  0  0  0
    7.3676   16.4643   27.3635 C   0  0  0  0  0  0  0  0  0  0  0  0
    8.3885   12.6476   24.6350 C   0  0  0  0  0  0  0  0  0  0  0  0
  1  2  1  0
  2  3  1  0
  3  4  1  0
  3  5  1  0
  5  6  1  0
  6  7  2  0
  6  8  1  0
  8  9  2  0
  9 10  1  0
 10 11  2  0
 11 12  1  0
 12 13  1  0
 13 14  2  0
 14 15  1  0
 15 16  1  0
 16 17  1  0
 17 18  2  0
 18 19  1  0
 19 20  2  0
 20 21  1  0
 21 22  2  0
 15 23  1  0
 23  8  1  0
 23 12  2  0
 22 17  1  0
M  END
>  <alias>  (2060) 
None

>  <rmsd(smina/fragmenstein)>  (2060) 
0.28

>  <smiles>  (2060) 
CCN(C)NC(=O)c1cccc2ccn(Cc3ccccc3)c12

>  <gnina_score>  (2060) 
5.727

>  <inspiration_score>  (2060) 
None

>  <energy_score>  (2060) 
-22.30997

>  <distance_score>  (2060) 
1.066696

>  <gnina_score_min>  (2060) 
5.718

>  <inchikey>  (2060) 
QYHWJNMCYLUBLX-UHFFFAOYSA-N

>  <exports>  (2060) 
['/opt/xchem-fragalysis-2/maxwin/BulkDock/OUTPUTS/openbind_a71ev2a_c2_elabs_1LOUU54.sdf', '/opt/xchem-fragalysis-2/maxwin/BulkDock/OUTPUTS/openbind_a71ev2a_c2_elabs_1LSYIDY.sdf']

>  <name>  (2060) 
P586093

>  <ref_pdb>  (2060) 
A0566a

>  <subsites>  (2060) 
None

>  <HIPPO Pose ID>  (2060) 
586093

>  <ref_mols>  (2060) 
A0566a

>  <HIPPO Compound ID>  (2060) 
441275

>  <tags>  (2060) 
openbind_a71ev2a_c2_elabs,syndirella_product,openbind_a71ev2a_c2_elabs_fragonly_scored_top80percent,BulkDock Fragalysis export,openbind_a71ev2a_c2_elabs_scored,openbind_a71ev2a_c2_elabs_scored_top80percent,openbind_a71ev2a_c2_elabs_activefrags_only_scored_5.2plus,openbind_a71ev2a_c2_elabs_activefrags_only_scored_5.5plus,syndirella_placed

>  <smina_score_min>  (2060) 
-6.27

$$$$
P586095
     RDKit          3D

 23 26  0  0  0  0  0  0  0  0999 V2000
    9.9439   15.7428   20.5434 C   0  0  0  0  0  0  0  0  0  0  0  0
   11.3546   15.2599   20.5811 C   0  0  1  0  0  0  0  0  0  0  0  0
   12.2169   15.5416   21.7939 C   0  0  0  0  0  0  0  0  0  0  0  0
   11.8087   14.1620   21.4884 C   0  0  1  0  0  0  0  0  0  0  0  0
   10.8306   13.4087   22.1259 N   0  0  0  0  0  0  0  0  0  0  0  0
   10.2066   13.5570   23.5288 C   0  0  0  0  0  0  0  0  0  0  0  0
   10.3592   14.3804   24.3413 O   0  0  0  0  0  0  0  0  0  0  0  0
    9.3588   12.3687   23.8141 C   0  0  0  0  0  0  0  0  0  0  0  0
    9.7788   11.1161   23.3212 C   0  0  0  0  0  0  0  0  0  0  0  0
    9.1670    9.9341   23.6718 C   0  0  0  0  0  0  0  0  0  0  0  0
    8.1327    9.9654   24.5896 C   0  0  0  0  0  0  0  0  0  0  0  0
    7.6697   11.1870   25.1029 C   0  0  0  0  0  0  0  0  0  0  0  0
    6.6903   11.4893   26.0746 C   0  0  0  0  0  0  0  0  0  0  0  0
    6.6769   12.8497   26.2244 C   0  0  0  0  0  0  0  0  0  0  0  0
    7.4931   13.3986   25.2569 N   0  0  0  0  0  0  0  0  0  0  0  0
    7.4286   14.8084   24.8463 C   0  0  0  0  0  0  0  0  0  0  0  0
    6.0268   15.3699   24.9869 C   0  0  0  0  0  0  0  0  0  0  0  0
    5.7419   16.3564   25.9401 C   0  0  0  0  0  0  0  0  0  0  0  0
    4.4294   16.7887   26.1445 C   0  0  0  0  0  0  0  0  0  0  0  0
    3.3852   16.2304   25.4111 C   0  0  0  0  0  0  0  0  0  0  0  0
    3.6558   15.2599   24.4498 C   0  0  0  0  0  0  0  0  0  0  0  0
    4.9698   14.8485   24.2240 C   0  0  0  0  0  0  0  0  0  0  0  0
    8.2477   12.3914   24.6749 C   0  0  0  0  0  0  0  0  0  0  0  0
  2  1  1  1
  2  3  1  0
  3  4  1  0
  4  5  1  1
  5  6  1  0
  6  7  2  0
  6  8  1  0
  8  9  2  0
  9 10  1  0
 10 11  2  0
 11 12  1  0
 12 13  1  0
 13 14  2  0
 14 15  1  0
 15 16  1  0
 16 17  1  0
 17 18  2  0
 18 19  1  0
 19 20  2  0
 20 21  1  0
 21 22  2  0
 15 23  1  0
  4  2  1  0
 23  8  1  0
 23 12  2  0
 22 17  1  0
M  END
>  <alias>  (2061) 
None

>  <rmsd(smina/fragmenstein)>  (2061) 
0.343

>  <smiles>  (2061) 
C[C@H]1C[C@H]1NC(=O)c1cccc2ccn(Cc3ccccc3)c12

>  <gnina_score>  (2061) 
5.614

>  <inspiration_score>  (2061) 
None

>  <energy_score>  (2061) 
-9.564461

>  <distance_score>  (2061) 
1.133264

>  <gnina_score_min>  (2061) 
5.566

>  <inchikey>  (2061) 
QFZNEQVNUXTOHH-KBXCAEBGSA-N

>  <exports>  (2061) 
['/opt/xchem-fragalysis-2/maxwin/BulkDock/OUTPUTS/openbind_a71ev2a_c2_elabs_1LOUU54.sdf', '/opt/xchem-fragalysis-2/maxwin/BulkDock/OUTPUTS/openbind_a71ev2a_c2_elabs_1LSYIDY.sdf']

>  <name>  (2061) 
P586095

>  <ref_pdb>  (2061) 
A0566a

>  <subsites>  (2061) 
None

>  <HIPPO Pose ID>  (2061) 
586095

>  <ref_mols>  (2061) 
A0566a

>  <HIPPO Compound ID>  (2061) 
441276

>  <tags>  (2061) 
openbind_a71ev2a_c2_elabs,syndirella_product,openbind_a71ev2a_c2_elabs_fragonly_scored_top80percent,BulkDock Fragalysis export,openbind_a71ev2a_c2_elabs_scored,openbind_a71ev2a_c2_elabs_scored_top80percent,openbind_a71ev2a_c2_elabs_activefrags_only_scored_5.2plus,openbind_a71ev2a_c2_elabs_activefrags_only_scored_5.5plus,syndirella_placed

>  <smina_score_min>  (2061) 
-6.848

$$$$
P586096
     RDKit          3D

 23 25  0  0  0  0  0  0  0  0999 V2000
    9.8864   16.2466   19.8219 C   0  0  0  0  0  0  0  0  0  0  0  0
   10.8264   15.3398   20.1101 C   0  0  0  0  0  0  0  0  0  0  0  0
   11.5979   14.4968   18.8241 Cl  0  0  0  0  0  0  0  0  0  0  0  0
   11.3767   15.0748   21.4697 C   0  0  0  0  0  0  0  0  0  0  0  0
   10.5792   14.0576   22.0784 N   0  0  0  0  0  0  0  0  0  0  0  0
   10.1272   13.8825   23.5342 C   0  0  0  0  0  0  0  0  0  0  0  0
   10.2671   14.5787   24.4573 O   0  0  0  0  0  0  0  0  0  0  0  0
    9.4139   12.5991   23.7277 C   0  0  0  0  0  0  0  0  0  0  0  0
    9.9584   11.4313   23.1707 C   0  0  0  0  0  0  0  0  0  0  0  0
    9.4451   10.1754   23.4442 C   0  0  0  0  0  0  0  0  0  0  0  0
    8.3983   10.0593   24.3471 C   0  0  0  0  0  0  0  0  0  0  0  0
    7.8196   11.2023   24.9240 C   0  0  0  0  0  0  0  0  0  0  0  0
    6.8006   11.3683   25.8900 C   0  0  0  0  0  0  0  0  0  0  0  0
    6.6569   12.7140   26.1035 C   0  0  0  0  0  0  0  0  0  0  0  0
    7.4532   13.3832   25.1987 N   0  0  0  0  0  0  0  0  0  0  0  0
    7.3316   14.8183   24.9006 C   0  0  0  0  0  0  0  0  0  0  0  0
    5.9211   15.3414   25.0846 C   0  0  0  0  0  0  0  0  0  0  0  0
    4.8605   14.8312   24.3197 C   0  0  0  0  0  0  0  0  0  0  0  0
    3.5483   15.2469   24.5500 C   0  0  0  0  0  0  0  0  0  0  0  0
    3.2833   16.2096   25.5205 C   0  0  0  0  0  0  0  0  0  0  0  0
    4.3311   16.7553   26.2588 C   0  0  0  0  0  0  0  0  0  0  0  0
    5.6417   16.3211   26.0467 C   0  0  0  0  0  0  0  0  0  0  0  0
    8.2953   12.4730   24.5738 C   0  0  0  0  0  0  0  0  0  0  0  0
  1  2  2  0
  2  3  1  0
  2  4  1  0
  4  5  1  0
  5  6  1  0
  6  7  2  0
  6  8  1  0
  8  9  2  0
  9 10  1  0
 10 11  2  0
 11 12  1  0
 12 13  1  0
 13 14  2  0
 14 15  1  0
 15 16  1  0
 16 17  1  0
 17 18  2  0
 18 19  1  0
 19 20  2  0
 20 21  1  0
 21 22  2  0
 15 23  1  0
 23  8  1  0
 23 12  2  0
 22 17  1  0
M  END
>  <alias>  (2062) 
None

>  <rmsd(smina/fragmenstein)>  (2062) 
0.375

>  <smiles>  (2062) 
C=C(Cl)CNC(=O)c1cccc2ccn(Cc3ccccc3)c12

>  <gnina_score>  (2062) 
5.632

>  <inspiration_score>  (2062) 
None

>  <energy_score>  (2062) 
-7.798726

>  <distance_score>  (2062) 
1.002523

>  <gnina_score_min>  (2062) 
5.571

>  <inchikey>  (2062) 
MFXUAVFNAHNHQY-UHFFFAOYSA-N

>  <exports>  (2062) 
['/opt/xchem-fragalysis-2/maxwin/BulkDock/OUTPUTS/openbind_a71ev2a_c2_elabs_1LOUU54.sdf', '/opt/xchem-fragalysis-2/maxwin/BulkDock/OUTPUTS/openbind_a71ev2a_c2_elabs_1LSYIDY.sdf']

>  <name>  (2062) 
P586096

>  <ref_pdb>  (2062) 
A0566a

>  <subsites>  (2062) 
None

>  <HIPPO Pose ID>  (2062) 
586096

>  <ref_mols>  (2062) 
A0566a

>  <HIPPO Compound ID>  (2062) 
441277

>  <tags>  (2062) 
openbind_a71ev2a_c2_elabs,syndirella_product,openbind_a71ev2a_c2_elabs_fragonly_scored_top80percent,BulkDock Fragalysis export,openbind_a71ev2a_c2_elabs_scored,openbind_a71ev2a_c2_elabs_scored_top80percent,openbind_a71ev2a_c2_elabs_activefrags_only_scored_5.2plus,openbind_a71ev2a_c2_elabs_activefrags_only_scored_5.5plus,syndirella_placed

>  <smina_score_min>  (2062) 
-6.836

$$$$
P586098
     RDKit          3D

 23 25  0  0  0  0  0  0  0  0999 V2000
   10.6446   15.6358   20.9868 C   0  0  0  0  0  0  0  0  0  0  0  0
   11.9936   15.3368   21.6439 C   0  0  1  0  0  0  0  0  0  0  0  0
   12.0537   15.8899   22.9495 O   0  0  0  0  0  0  0  0  0  0  0  0
   12.2592   13.8612   21.7611 C   0  0  0  0  0  0  0  0  0  0  0  0
   11.1300   13.1900   22.3113 N   0  0  0  0  0  0  0  0  0  0  0  0
   10.5017   13.2787   23.7018 C   0  0  0  0  0  0  0  0  0  0  0  0
   10.7558   13.9700   24.6005 O   0  0  0  0  0  0  0  0  0  0  0  0
    9.4641   12.2437   23.8761 C   0  0  0  0  0  0  0  0  0  0  0  0
    9.7538   10.9793   23.3385 C   0  0  0  0  0  0  0  0  0  0  0  0
    9.0565    9.8578   23.7029 C   0  0  0  0  0  0  0  0  0  0  0  0
    8.0288    9.9700   24.6229 C   0  0  0  0  0  0  0  0  0  0  0  0
    7.6291   11.2298   25.0980 C   0  0  0  0  0  0  0  0  0  0  0  0
    6.5885   11.6139   25.9727 C   0  0  0  0  0  0  0  0  0  0  0  0
    6.6373   12.9752   26.0865 C   0  0  0  0  0  0  0  0  0  0  0  0
    7.6956   13.4446   25.3359 N   0  0  0  0  0  0  0  0  0  0  0  0
    7.9119   14.8785   25.1613 C   0  0  0  0  0  0  0  0  0  0  0  0
    8.2074   15.5806   26.4711 C   0  0  0  0  0  0  0  0  0  0  0  0
    7.2517   16.4413   27.0353 C   0  0  0  0  0  0  0  0  0  0  0  0
    7.5186   17.1239   28.2237 C   0  0  0  0  0  0  0  0  0  0  0  0
    8.7388   16.9494   28.8712 C   0  0  0  0  0  0  0  0  0  0  0  0
    9.6927   16.0914   28.3316 C   0  0  0  0  0  0  0  0  0  0  0  0
    9.4301   15.4161   27.1380 C   0  0  0  0  0  0  0  0  0  0  0  0
    8.3377   12.3811   24.7152 C   0  0  0  0  0  0  0  0  0  0  0  0
  2  1  1  1
  2  3  1  0
  2  4  1  0
  4  5  1  0
  5  6  1  0
  6  7  2  0
  6  8  1  0
  8  9  2  0
  9 10  1  0
 10 11  2  0
 11 12  1  0
 12 13  1  0
 13 14  2  0
 14 15  1  0
 15 16  1  0
 16 17  1  0
 17 18  2  0
 18 19  1  0
 19 20  2  0
 20 21  1  0
 21 22  2  0
 15 23  1  0
 23  8  1  0
 23 12  2  0
 22 17  1  0
M  END
>  <alias>  (2063) 
None

>  <rmsd(smina/fragmenstein)>  (2063) 
0.703

>  <smiles>  (2063) 
C[C@@H](O)CNC(=O)c1cccc2ccn(Cc3ccccc3)c12

>  <gnina_score>  (2063) 
5.268

>  <inspiration_score>  (2063) 
None

>  <energy_score>  (2063) 
-7.687226

>  <distance_score>  (2063) 
1.086141

>  <gnina_score_min>  (2063) 
5.283

>  <inchikey>  (2063) 
IXRBHVRSDHPOIA-CQSZACIVSA-N

>  <exports>  (2063) 
['/opt/xchem-fragalysis-2/maxwin/BulkDock/OUTPUTS/openbind_a71ev2a_c2_elabs_1LOUU54.sdf', '/opt/xchem-fragalysis-2/maxwin/BulkDock/OUTPUTS/openbind_a71ev2a_c2_elabs_1LSYIDY.sdf']

>  <name>  (2063) 
P586098

>  <ref_pdb>  (2063) 
A0566a

>  <subsites>  (2063) 
None

>  <HIPPO Pose ID>  (2063) 
586098

>  <ref_mols>  (2063) 
A0566a

>  <HIPPO Compound ID>  (2063) 
441278

>  <tags>  (2063) 
openbind_a71ev2a_c2_elabs,syndirella_product,openbind_a71ev2a_c2_elabs_fragonly_scored_top80percent,openbind_a71ev2a_c2_elabs_scored,BulkDock Fragalysis export,openbind_a71ev2a_c2_elabs_scored_top80percent,openbind_a71ev2a_c2_elabs_activefrags_only_scored_5.2plus,syndirella_placed

>  <smina_score_min>  (2063) 
-6.17

$$$$
P586099
     RDKit          3D

 23 25  0  0  0  0  0  0  0  0999 V2000
   12.5115   14.9216   21.5887 C   0  0  0  0  0  0  0  0  0  0  0  0
   11.0314   15.1955   21.3715 C   0  0  1  0  0  0  0  0  0  0  0  0
   10.5344   15.3602   19.9300 C   0  0  0  0  0  0  0  0  0  0  0  0
   11.5192   14.4907   18.7489 Cl  0  0  0  0  0  0  0  0  0  0  0  0
   10.3069   14.1621   22.0710 N   0  0  0  0  0  0  0  0  0  0  0  0
   10.1674   13.8857   23.5700 C   0  0  0  0  0  0  0  0  0  0  0  0
   10.5498   14.4897   24.4868 O   0  0  0  0  0  0  0  0  0  0  0  0
    9.4317   12.6338   23.7986 C   0  0  0  0  0  0  0  0  0  0  0  0
    9.9432   11.4719   23.2010 C   0  0  0  0  0  0  0  0  0  0  0  0
    9.4109   10.2246   23.4688 C   0  0  0  0  0  0  0  0  0  0  0  0
    8.3600   10.1215   24.3717 C   0  0  0  0  0  0  0  0  0  0  0  0
    7.7958   11.2707   24.9588 C   0  0  0  0  0  0  0  0  0  0  0  0
    6.7293   11.4473   25.8719 C   0  0  0  0  0  0  0  0  0  0  0  0
    6.5929   12.7929   26.0885 C   0  0  0  0  0  0  0  0  0  0  0  0
    7.5447   13.4576   25.3439 N   0  0  0  0  0  0  0  0  0  0  0  0
    7.5431   14.9171   25.2344 C   0  0  0  0  0  0  0  0  0  0  0  0
    7.8835   15.6075   26.5376 C   0  0  0  0  0  0  0  0  0  0  0  0
    9.1191   15.4203   27.1746 C   0  0  0  0  0  0  0  0  0  0  0  0
    9.4344   16.1082   28.3483 C   0  0  0  0  0  0  0  0  0  0  0  0
    8.5205   17.0030   28.8970 C   0  0  0  0  0  0  0  0  0  0  0  0
    7.2919   17.2075   28.2742 C   0  0  0  0  0  0  0  0  0  0  0  0
    6.9748   16.5155   27.1034 C   0  0  0  0  0  0  0  0  0  0  0  0
    8.3233   12.5362   24.6588 C   0  0  0  0  0  0  0  0  0  0  0  0
  2  1  1  6
  2  3  1  0
  3  4  1  0
  2  5  1  0
  5  6  1  0
  6  7  2  0
  6  8  1  0
  8  9  2  0
  9 10  1  0
 10 11  2  0
 11 12  1  0
 12 13  1  0
 13 14  2  0
 14 15  1  0
 15 16  1  0
 16 17  1  0
 17 18  2  0
 18 19  1  0
 19 20  2  0
 20 21  1  0
 21 22  2  0
 15 23  1  0
 23  8  1  0
 23 12  2  0
 22 17  1  0
M  END
>  <alias>  (2064) 
None

>  <rmsd(smina/fragmenstein)>  (2064) 
0.377

>  <smiles>  (2064) 
C[C@@H](CCl)NC(=O)c1cccc2ccn(Cc3ccccc3)c12

>  <gnina_score>  (2064) 
5.586

>  <inspiration_score>  (2064) 
None

>  <energy_score>  (2064) 
-4.707787

>  <distance_score>  (2064) 
1.003602

>  <gnina_score_min>  (2064) 
5.584

>  <inchikey>  (2064) 
OKGNWAYQBLWIRP-AWEZNQCLSA-N

>  <exports>  (2064) 
['/opt/xchem-fragalysis-2/maxwin/BulkDock/OUTPUTS/openbind_a71ev2a_c2_elabs_1LOUU54.sdf', '/opt/xchem-fragalysis-2/maxwin/BulkDock/OUTPUTS/openbind_a71ev2a_c2_elabs_1LSYIDY.sdf']

>  <name>  (2064) 
P586099

>  <ref_pdb>  (2064) 
A0566a

>  <subsites>  (2064) 
None

>  <HIPPO Pose ID>  (2064) 
586099

>  <ref_mols>  (2064) 
A0566a

>  <HIPPO Compound ID>  (2064) 
441279

>  <tags>  (2064) 
openbind_a71ev2a_c2_elabs,syndirella_product,openbind_a71ev2a_c2_elabs_fragonly_scored_top80percent,BulkDock Fragalysis export,openbind_a71ev2a_c2_elabs_scored,openbind_a71ev2a_c2_elabs_scored_top80percent,openbind_a71ev2a_c2_elabs_activefrags_only_scored_5.2plus,openbind_a71ev2a_c2_elabs_activefrags_only_scored_5.5plus,syndirella_placed

>  <smina_score_min>  (2064) 
-7.275

$$$$
P586100
     RDKit          3D

 23 26  0  0  0  0  0  0  0  0999 V2000
   12.7104   15.0368   21.6121 C   0  0  0  0  0  0  0  0  0  0  0  0
   11.2981   15.5480   21.8954 C   0  0  1  0  0  0  0  0  0  0  0  0
   10.2381   15.7613   20.8346 C   0  0  0  0  0  0  0  0  0  0  0  0
   10.0997   14.2796   20.9991 C   0  0  0  0  0  0  0  0  0  0  0  0
   10.4254   14.4718   22.4987 N   0  0  0  0  0  0  0  0  0  0  0  0
   10.7862   13.1740   23.1544 C   0  0  0  0  0  0  0  0  0  0  0  0
   11.8350   12.6502   23.2839 O   0  0  0  0  0  0  0  0  0  0  0  0
    9.6617   12.3411   23.6403 C   0  0  0  0  0  0  0  0  0  0  0  0
    9.8049   11.0214   23.1546 C   0  0  0  0  0  0  0  0  0  0  0  0
    9.0805    9.9525   23.6166 C   0  0  0  0  0  0  0  0  0  0  0  0
    8.0978   10.1755   24.5563 C   0  0  0  0  0  0  0  0  0  0  0  0
    7.7941   11.4883   24.9554 C   0  0  0  0  0  0  0  0  0  0  0  0
    6.7657   11.9737   25.7960 C   0  0  0  0  0  0  0  0  0  0  0  0
    6.9236   13.3266   25.8795 C   0  0  0  0  0  0  0  0  0  0  0  0
    8.0551   13.6747   25.1757 N   0  0  0  0  0  0  0  0  0  0  0  0
    8.5346   15.0410   25.1728 C   0  0  0  0  0  0  0  0  0  0  0  0
    9.2624   15.3719   26.4548 C   0  0  0  0  0  0  0  0  0  0  0  0
   10.6154   15.0426   26.6163 C   0  0  0  0  0  0  0  0  0  0  0  0
   11.2645   15.2973   27.8249 C   0  0  0  0  0  0  0  0  0  0  0  0
   10.5743   15.8982   28.8760 C   0  0  0  0  0  0  0  0  0  0  0  0
    9.2380   16.2536   28.7184 C   0  0  0  0  0  0  0  0  0  0  0  0
    8.5832   15.9882   27.5165 C   0  0  0  0  0  0  0  0  0  0  0  0
    8.5827   12.5796   24.5162 C   0  0  0  0  0  0  0  0  0  0  0  0
  2  1  1  6
  2  3  1  0
  3  4  1  0
  4  5  1  0
  5  6  1  0
  6  7  2  0
  6  8  1  0
  8  9  2  0
  9 10  1  0
 10 11  2  0
 11 12  1  0
 12 13  1  0
 13 14  2  0
 14 15  1  0
 15 16  1  0
 16 17  1  0
 17 18  2  0
 18 19  1  0
 19 20  2  0
 20 21  1  0
 21 22  2  0
 15 23  1  0
  5  2  1  0
 23  8  1  0
 23 12  2  0
 22 17  1  0
M  END
>  <alias>  (2065) 
None

>  <rmsd(smina/fragmenstein)>  (2065) 
0.409

>  <smiles>  (2065) 
C[C@H]1CCN1C(=O)c1cccc2ccn(Cc3ccccc3)c12

>  <gnina_score>  (2065) 
5.322

>  <inspiration_score>  (2065) 
None

>  <energy_score>  (2065) 
-1.757997

>  <distance_score>  (2065) 
0.852019

>  <gnina_score_min>  (2065) 
5.304

>  <inchikey>  (2065) 
IZXKETZLKLUAPN-HNNXBMFYSA-N

>  <exports>  (2065) 
['/opt/xchem-fragalysis-2/maxwin/BulkDock/OUTPUTS/openbind_a71ev2a_c2_elabs_1LOUU54.sdf', '/opt/xchem-fragalysis-2/maxwin/BulkDock/OUTPUTS/openbind_a71ev2a_c2_elabs_1LSYIDY.sdf']

>  <name>  (2065) 
P586100

>  <ref_pdb>  (2065) 
A0566a

>  <subsites>  (2065) 
None

>  <HIPPO Pose ID>  (2065) 
586100

>  <ref_mols>  (2065) 
A0566a

>  <HIPPO Compound ID>  (2065) 
441281

>  <tags>  (2065) 
openbind_a71ev2a_c2_elabs,syndirella_product,openbind_a71ev2a_c2_elabs_fragonly_scored_top80percent,openbind_a71ev2a_c2_elabs_scored,BulkDock Fragalysis export,openbind_a71ev2a_c2_elabs_scored_top80percent,openbind_a71ev2a_c2_elabs_activefrags_only_scored_5.2plus,syndirella_placed

>  <smina_score_min>  (2065) 
-6.876

$$$$
P586102
     RDKit          3D

 23 25  0  0  0  0  0  0  0  0999 V2000
   12.3387   15.0584   21.4866 C   0  0  0  0  0  0  0  0  0  0  0  0
   11.3092   15.0324   20.6293 C   0  0  0  0  0  0  0  0  0  0  0  0
   11.5550   14.6498   18.8256 Br  0  0  0  0  0  0  0  0  0  0  0  0
    9.9040   15.3587   21.0151 C   0  0  0  0  0  0  0  0  0  0  0  0
    9.4407   14.3023   21.8633 N   0  0  0  0  0  0  0  0  0  0  0  0
    9.6538   14.0620   23.3610 C   0  0  0  0  0  0  0  0  0  0  0  0
   10.1749   14.7219   24.1641 O   0  0  0  0  0  0  0  0  0  0  0  0
    9.1668   12.7293   23.7167 C   0  0  0  0  0  0  0  0  0  0  0  0
    9.8436   11.6290   23.1706 C   0  0  0  0  0  0  0  0  0  0  0  0
    9.4513   10.3355   23.4668 C   0  0  0  0  0  0  0  0  0  0  0  0
    8.4159   10.1319   24.3751 C   0  0  0  0  0  0  0  0  0  0  0  0
    7.7475   11.2224   24.9651 C   0  0  0  0  0  0  0  0  0  0  0  0
    6.7243   11.3159   25.9367 C   0  0  0  0  0  0  0  0  0  0  0  0
    6.4730   12.6491   26.1446 C   0  0  0  0  0  0  0  0  0  0  0  0
    7.2193   13.3786   25.2467 N   0  0  0  0  0  0  0  0  0  0  0  0
    7.0656   14.8216   25.0069 C   0  0  0  0  0  0  0  0  0  0  0  0
    5.6675   15.3434   25.2607 C   0  0  0  0  0  0  0  0  0  0  0  0
    5.4469   16.3567   26.2032 C   0  0  0  0  0  0  0  0  0  0  0  0
    4.1566   16.8342   26.4446 C   0  0  0  0  0  0  0  0  0  0  0  0
    3.0711   16.3042   25.7505 C   0  0  0  0  0  0  0  0  0  0  0  0
    3.2766   15.3075   24.8004 C   0  0  0  0  0  0  0  0  0  0  0  0
    4.5677   14.8416   24.5463 C   0  0  0  0  0  0  0  0  0  0  0  0
    8.1021   12.5262   24.6014 C   0  0  0  0  0  0  0  0  0  0  0  0
  1  2  2  0
  2  3  1  0
  2  4  1  0
  4  5  1  0
  5  6  1  0
  6  7  2  0
  6  8  1  0
  8  9  2  0
  9 10  1  0
 10 11  2  0
 11 12  1  0
 12 13  1  0
 13 14  2  0
 14 15  1  0
 15 16  1  0
 16 17  1  0
 17 18  2  0
 18 19  1  0
 19 20  2  0
 20 21  1  0
 21 22  2  0
 15 23  1  0
 23  8  1  0
 23 12  2  0
 22 17  1  0
M  END
>  <alias>  (2066) 
None

>  <rmsd(smina/fragmenstein)>  (2066) 
0.348

>  <smiles>  (2066) 
C=C(Br)CNC(=O)c1cccc2ccn(Cc3ccccc3)c12

>  <gnina_score>  (2066) 
5.511

>  <inspiration_score>  (2066) 
None

>  <energy_score>  (2066) 
-20.101796

>  <distance_score>  (2066) 
1.399224

>  <gnina_score_min>  (2066) 
5.415

>  <inchikey>  (2066) 
LRXIKUMSMGVTQK-UHFFFAOYSA-N

>  <exports>  (2066) 
['/opt/xchem-fragalysis-2/maxwin/BulkDock/OUTPUTS/openbind_a71ev2a_c2_elabs_1LOUU54.sdf', '/opt/xchem-fragalysis-2/maxwin/BulkDock/OUTPUTS/openbind_a71ev2a_c2_elabs_1LSYIDY.sdf']

>  <name>  (2066) 
P586102

>  <ref_pdb>  (2066) 
A0566a

>  <subsites>  (2066) 
None

>  <HIPPO Pose ID>  (2066) 
586102

>  <ref_mols>  (2066) 
A0566a

>  <HIPPO Compound ID>  (2066) 
441282

>  <tags>  (2066) 
openbind_a71ev2a_c2_elabs,syndirella_product,openbind_a71ev2a_c2_elabs_fragonly_scored_top80percent,openbind_a71ev2a_c2_elabs_scored,BulkDock Fragalysis export,openbind_a71ev2a_c2_elabs_scored_top80percent,openbind_a71ev2a_c2_elabs_activefrags_only_scored_5.2plus,syndirella_placed

>  <smina_score_min>  (2066) 
-6.325

$$$$
P586103
     RDKit          3D

 23 25  0  0  0  0  0  0  0  0999 V2000
   10.7905   14.3749   24.7500 O   0  0  0  0  0  0  0  0  0  0  0  0
   10.3064   13.9134   23.8004 C   0  0  0  0  0  0  0  0  0  0  0  0
   10.4127   14.3261   22.3348 N   0  0  0  0  0  0  0  0  0  0  0  0
   11.2083   15.3330   21.7099 C   0  0  0  0  0  0  0  0  0  0  0  0
   12.1449   14.7136   20.6997 C   0  0  0  0  0  0  0  0  0  0  0  0
   11.5172   14.6498   19.3222 C   0  0  0  0  0  0  0  0  0  0  0  0
   10.9561   15.8358   18.9784 F   0  0  0  0  0  0  0  0  0  0  0  0
    9.4929   12.6942   23.9121 C   0  0  0  0  0  0  0  0  0  0  0  0
    9.9697   11.5551   23.2452 C   0  0  0  0  0  0  0  0  0  0  0  0
    9.4066   10.3093   23.4555 C   0  0  0  0  0  0  0  0  0  0  0  0
    8.3521   10.1887   24.3539 C   0  0  0  0  0  0  0  0  0  0  0  0
    7.7999   11.3271   24.9745 C   0  0  0  0  0  0  0  0  0  0  0  0
    6.7253   11.4980   25.8800 C   0  0  0  0  0  0  0  0  0  0  0  0
    6.6148   12.8396   26.1409 C   0  0  0  0  0  0  0  0  0  0  0  0
    7.5926   13.5059   25.4350 N   0  0  0  0  0  0  0  0  0  0  0  0
    7.6180   14.9656   25.3400 C   0  0  0  0  0  0  0  0  0  0  0  0
    7.9358   15.6489   26.6510 C   0  0  0  0  0  0  0  0  0  0  0  0
    7.0253   16.5687   27.1942 C   0  0  0  0  0  0  0  0  0  0  0  0
    7.3264   17.2644   28.3670 C   0  0  0  0  0  0  0  0  0  0  0  0
    8.5405   17.0514   29.0143 C   0  0  0  0  0  0  0  0  0  0  0  0
    9.4552   16.1435   28.4891 C   0  0  0  0  0  0  0  0  0  0  0  0
    9.1560   15.4516   27.3136 C   0  0  0  0  0  0  0  0  0  0  0  0
    8.3623   12.5898   24.7355 C   0  0  0  0  0  0  0  0  0  0  0  0
  1  2  2  0
  2  3  1  0
  3  4  1  0
  4  5  1  0
  5  6  1  0
  6  7  1  0
  2  8  1  0
  8  9  2  0
  9 10  1  0
 10 11  2  0
 11 12  1  0
 12 13  1  0
 13 14  2  0
 14 15  1  0
 15 16  1  0
 16 17  1  0
 17 18  2  0
 18 19  1  0
 19 20  2  0
 20 21  1  0
 21 22  2  0
 15 23  1  0
 23  8  1  0
 23 12  2  0
 22 17  1  0
M  END
>  <alias>  (2067) 
None

>  <rmsd(smina/fragmenstein)>  (2067) 
0.859

>  <smiles>  (2067) 
O=C(NCCCF)c1cccc2ccn(Cc3ccccc3)c12

>  <gnina_score>  (2067) 
5.364

>  <inspiration_score>  (2067) 
None

>  <energy_score>  (2067) 
-2.432925

>  <distance_score>  (2067) 
0.901963

>  <gnina_score_min>  (2067) 
5.459

>  <inchikey>  (2067) 
AOBYDAOSIDATSL-UHFFFAOYSA-N

>  <exports>  (2067) 
['/opt/xchem-fragalysis-2/maxwin/BulkDock/OUTPUTS/openbind_a71ev2a_c2_elabs_1LOUU54.sdf', '/opt/xchem-fragalysis-2/maxwin/BulkDock/OUTPUTS/openbind_a71ev2a_c2_elabs_1LSYIDY.sdf']

>  <name>  (2067) 
P586103

>  <ref_pdb>  (2067) 
A0566a

>  <subsites>  (2067) 
None

>  <HIPPO Pose ID>  (2067) 
586103

>  <ref_mols>  (2067) 
A0566a

>  <HIPPO Compound ID>  (2067) 
441283

>  <tags>  (2067) 
openbind_a71ev2a_c2_elabs,syndirella_product,openbind_a71ev2a_c2_elabs_fragonly_scored_top80percent,openbind_a71ev2a_c2_elabs_scored,BulkDock Fragalysis export,openbind_a71ev2a_c2_elabs_scored_top80percent,openbind_a71ev2a_c2_elabs_activefrags_only_scored_5.2plus,syndirella_placed

>  <smina_score_min>  (2067) 
-6.773

$$$$
P586104
     RDKit          3D

 23 25  0  0  0  0  0  0  0  0999 V2000
   10.3608   15.6601   20.4471 C   0  0  0  0  0  0  0  0  0  0  0  0
   11.2874   14.6757   21.1460 C   0  0  1  0  0  0  0  0  0  0  0  0
   12.3807   15.2739   22.0132 C   0  0  0  0  0  0  0  0  0  0  0  0
   13.3876   15.7379   21.2486 F   0  0  0  0  0  0  0  0  0  0  0  0
   10.4868   13.7619   21.9156 N   0  0  0  0  0  0  0  0  0  0  0  0
   10.1926   13.7180   23.4206 C   0  0  0  0  0  0  0  0  0  0  0  0
   10.4876   14.4577   24.2686 O   0  0  0  0  0  0  0  0  0  0  0  0
    9.4205   12.5036   23.7591 C   0  0  0  0  0  0  0  0  0  0  0  0
    9.8842   11.2837   23.2344 C   0  0  0  0  0  0  0  0  0  0  0  0
    9.3148   10.0723   23.5672 C   0  0  0  0  0  0  0  0  0  0  0  0
    8.2656   10.0555   24.4720 C   0  0  0  0  0  0  0  0  0  0  0  0
    7.7469   11.2529   24.9984 C   0  0  0  0  0  0  0  0  0  0  0  0
    6.6862   11.5000   25.9004 C   0  0  0  0  0  0  0  0  0  0  0  0
    6.5901   12.8556   26.0533 C   0  0  0  0  0  0  0  0  0  0  0  0
    7.5636   13.4574   25.2822 N   0  0  0  0  0  0  0  0  0  0  0  0
    7.6152   14.9124   25.1489 C   0  0  0  0  0  0  0  0  0  0  0  0
    7.9999   15.5927   26.4463 C   0  0  0  0  0  0  0  0  0  0  0  0
    7.1072   16.4861   27.0590 C   0  0  0  0  0  0  0  0  0  0  0  0
    7.4573   17.1492   28.2371 C   0  0  0  0  0  0  0  0  0  0  0  0
    8.7008   16.9258   28.8228 C   0  0  0  0  0  0  0  0  0  0  0  0
    9.5976   16.0422   28.2291 C   0  0  0  0  0  0  0  0  0  0  0  0
    9.2515   15.3868   27.0458 C   0  0  0  0  0  0  0  0  0  0  0  0
    8.3146   12.4865   24.6339 C   0  0  0  0  0  0  0  0  0  0  0  0
  2  1  1  1
  2  3  1  0
  3  4  1  0
  2  5  1  0
  5  6  1  0
  6  7  2  0
  6  8  1  0
  8  9  2  0
  9 10  1  0
 10 11  2  0
 11 12  1  0
 12 13  1  0
 13 14  2  0
 14 15  1  0
 15 16  1  0
 16 17  1  0
 17 18  2  0
 18 19  1  0
 19 20  2  0
 20 21  1  0
 21 22  2  0
 15 23  1  0
 23  8  1  0
 23 12  2  0
 22 17  1  0
M  END
>  <alias>  (2068) 
None

>  <rmsd(smina/fragmenstein)>  (2068) 
0.459

>  <smiles>  (2068) 
C[C@@H](CF)NC(=O)c1cccc2ccn(Cc3ccccc3)c12

>  <gnina_score>  (2068) 
5.541

>  <inspiration_score>  (2068) 
None

>  <energy_score>  (2068) 
-7.723416

>  <distance_score>  (2068) 
1.063909

>  <gnina_score_min>  (2068) 
5.468

>  <inchikey>  (2068) 
CJLYSUZJQRLQAT-AWEZNQCLSA-N

>  <exports>  (2068) 
['/opt/xchem-fragalysis-2/maxwin/BulkDock/OUTPUTS/openbind_a71ev2a_c2_elabs_1LOUU54.sdf', '/opt/xchem-fragalysis-2/maxwin/BulkDock/OUTPUTS/openbind_a71ev2a_c2_elabs_1LSYIDY.sdf']

>  <name>  (2068) 
P586104

>  <ref_pdb>  (2068) 
A0566a

>  <subsites>  (2068) 
None

>  <HIPPO Pose ID>  (2068) 
586104

>  <ref_mols>  (2068) 
A0566a

>  <HIPPO Compound ID>  (2068) 
441285

>  <tags>  (2068) 
openbind_a71ev2a_c2_elabs,syndirella_product,openbind_a71ev2a_c2_elabs_fragonly_scored_top80percent,openbind_a71ev2a_c2_elabs_scored,BulkDock Fragalysis export,openbind_a71ev2a_c2_elabs_scored_top80percent,openbind_a71ev2a_c2_elabs_activefrags_only_scored_5.2plus,syndirella_placed

>  <smina_score_min>  (2068) 
-7.002

$$$$
P586106
     RDKit          3D

 23 25  0  0  0  0  0  0  0  0999 V2000
   10.5114   15.3404   19.2187 C   0  0  0  0  0  0  0  0  0  0  0  0
   10.2793   15.7276   20.6698 C   0  0  1  0  0  0  0  0  0  0  0  0
    8.5996   15.2425   21.1500 Cl  0  0  0  0  0  0  0  0  0  0  0  0
   11.3462   15.0836   21.5877 C   0  0  0  0  0  0  0  0  0  0  0  0
   10.7681   13.9522   22.2530 N   0  0  0  0  0  0  0  0  0  0  0  0
   10.2631   13.7930   23.6952 C   0  0  0  0  0  0  0  0  0  0  0  0
   10.3061   14.5302   24.5963 O   0  0  0  0  0  0  0  0  0  0  0  0
    9.5339   12.5104   23.8623 C   0  0  0  0  0  0  0  0  0  0  0  0
   10.0091   11.3489   23.2359 C   0  0  0  0  0  0  0  0  0  0  0  0
    9.4438   10.1056   23.4556 C   0  0  0  0  0  0  0  0  0  0  0  0
    8.3918    9.9967   24.3517 C   0  0  0  0  0  0  0  0  0  0  0  0
    7.8450   11.1380   24.9585 C   0  0  0  0  0  0  0  0  0  0  0  0
    6.8090   11.3046   25.9057 C   0  0  0  0  0  0  0  0  0  0  0  0
    6.7020   12.6461   26.1579 C   0  0  0  0  0  0  0  0  0  0  0  0
    7.5400   13.3163   25.2914 N   0  0  0  0  0  0  0  0  0  0  0  0
    7.4508   14.7601   25.0284 C   0  0  0  0  0  0  0  0  0  0  0  0
    6.0418   15.3000   25.1707 C   0  0  0  0  0  0  0  0  0  0  0  0
    5.7387   16.2611   26.1445 C   0  0  0  0  0  0  0  0  0  0  0  0
    4.4270   16.7098   26.3144 C   0  0  0  0  0  0  0  0  0  0  0  0
    3.4026   16.1979   25.5209 C   0  0  0  0  0  0  0  0  0  0  0  0
    3.6928   15.2543   24.5387 C   0  0  0  0  0  0  0  0  0  0  0  0
    5.0065   14.8237   24.3511 C   0  0  0  0  0  0  0  0  0  0  0  0
    8.3804   12.4000   24.6690 C   0  0  0  0  0  0  0  0  0  0  0  0
  2  1  1  6
  2  3  1  0
  2  4  1  0
  4  5  1  0
  5  6  1  0
  6  7  2  0
  6  8  1  0
  8  9  2  0
  9 10  1  0
 10 11  2  0
 11 12  1  0
 12 13  1  0
 13 14  2  0
 14 15  1  0
 15 16  1  0
 16 17  1  0
 17 18  2  0
 18 19  1  0
 19 20  2  0
 20 21  1  0
 21 22  2  0
 15 23  1  0
 23  8  1  0
 23 12  2  0
 22 17  1  0
M  END
>  <alias>  (2069) 
None

>  <rmsd(smina/fragmenstein)>  (2069) 
0.511

>  <smiles>  (2069) 
C[C@@H](Cl)CNC(=O)c1cccc2ccn(Cc3ccccc3)c12

>  <gnina_score>  (2069) 
5.733

>  <inspiration_score>  (2069) 
None

>  <energy_score>  (2069) 
-12.830245

>  <distance_score>  (2069) 
0.969028

>  <gnina_score_min>  (2069) 
5.664

>  <inchikey>  (2069) 
QOJXYRSKPGBXRM-CQSZACIVSA-N

>  <exports>  (2069) 
['/opt/xchem-fragalysis-2/maxwin/BulkDock/OUTPUTS/openbind_a71ev2a_c2_elabs_1LOUU54.sdf', '/opt/xchem-fragalysis-2/maxwin/BulkDock/OUTPUTS/openbind_a71ev2a_c2_elabs_1LSYIDY.sdf']

>  <name>  (2069) 
P586106

>  <ref_pdb>  (2069) 
A0566a

>  <subsites>  (2069) 
None

>  <HIPPO Pose ID>  (2069) 
586106

>  <ref_mols>  (2069) 
A0566a

>  <HIPPO Compound ID>  (2069) 
441286

>  <tags>  (2069) 
openbind_a71ev2a_c2_elabs,syndirella_product,openbind_a71ev2a_c2_elabs_fragonly_scored_top80percent,BulkDock Fragalysis export,openbind_a71ev2a_c2_elabs_scored,openbind_a71ev2a_c2_elabs_scored_top80percent,openbind_a71ev2a_c2_elabs_activefrags_only_scored_5.2plus,openbind_a71ev2a_c2_elabs_activefrags_only_scored_5.5plus,syndirella_placed

>  <smina_score_min>  (2069) 
-6.553

$$$$
P586107
     RDKit          3D

 23 25  0  0  0  0  0  0  0  0999 V2000
   10.1826   14.6423   24.1494 O   0  0  0  0  0  0  0  0  0  0  0  0
    9.5404   13.9526   23.4720 C   0  0  0  0  0  0  0  0  0  0  0  0
    9.0263   14.1616   22.0481 N   0  0  0  0  0  0  0  0  0  0  0  0
    9.1113   15.2987   21.1881 C   0  0  0  0  0  0  0  0  0  0  0  0
   10.5068   15.7058   20.7156 C   0  0  0  0  0  0  0  0  0  0  0  0
   10.9133   14.9858   19.1362 Cl  0  0  0  0  0  0  0  0  0  0  0  0
   11.8636   15.3483   21.8172 Cl  0  0  0  0  0  0  0  0  0  0  0  0
    9.1359   12.6278   23.9089 C   0  0  0  0  0  0  0  0  0  0  0  0
    9.7626   11.5286   23.3051 C   0  0  0  0  0  0  0  0  0  0  0  0
    9.3370   10.2453   23.5873 C   0  0  0  0  0  0  0  0  0  0  0  0
    8.2989   10.0614   24.5001 C   0  0  0  0  0  0  0  0  0  0  0  0
    7.6642   11.1579   25.1198 C   0  0  0  0  0  0  0  0  0  0  0  0
    6.6067   11.2629   26.0540 C   0  0  0  0  0  0  0  0  0  0  0  0
    6.3874   12.5980   26.2848 C   0  0  0  0  0  0  0  0  0  0  0  0
    7.2615   13.3276   25.5091 N   0  0  0  0  0  0  0  0  0  0  0  0
    7.1708   14.7871   25.4110 C   0  0  0  0  0  0  0  0  0  0  0  0
    7.7375   15.5110   26.6123 C   0  0  0  0  0  0  0  0  0  0  0  0
    6.9547   16.4658   27.2798 C   0  0  0  0  0  0  0  0  0  0  0  0
    7.4715   17.1884   28.3580 C   0  0  0  0  0  0  0  0  0  0  0  0
    8.7785   16.9696   28.7856 C   0  0  0  0  0  0  0  0  0  0  0  0
    9.5722   16.0337   28.1300 C   0  0  0  0  0  0  0  0  0  0  0  0
    9.0582   15.3205   27.0446 C   0  0  0  0  0  0  0  0  0  0  0  0
    8.0805   12.4563   24.8099 C   0  0  0  0  0  0  0  0  0  0  0  0
  1  2  2  0
  2  3  1  0
  3  4  1  0
  4  5  1  0
  5  6  1  0
  5  7  1  0
  2  8  1  0
  8  9  2  0
  9 10  1  0
 10 11  2  0
 11 12  1  0
 12 13  1  0
 13 14  2  0
 14 15  1  0
 15 16  1  0
 16 17  1  0
 17 18  2  0
 18 19  1  0
 19 20  2  0
 20 21  1  0
 21 22  2  0
 15 23  1  0
 23  8  1  0
 23 12  2  0
 22 17  1  0
M  END
>  <alias>  (2070) 
None

>  <rmsd(smina/fragmenstein)>  (2070) 
0.492

>  <smiles>  (2070) 
O=C(NCC(Cl)Cl)c1cccc2ccn(Cc3ccccc3)c12

>  <gnina_score>  (2070) 
5.632

>  <inspiration_score>  (2070) 
None

>  <energy_score>  (2070) 
-3.878053

>  <distance_score>  (2070) 
1.593852

>  <gnina_score_min>  (2070) 
5.652

>  <inchikey>  (2070) 
FULYNBSHSYFBLE-UHFFFAOYSA-N

>  <exports>  (2070) 
['/opt/xchem-fragalysis-2/maxwin/BulkDock/OUTPUTS/openbind_a71ev2a_c2_elabs_1LOUU54.sdf', '/opt/xchem-fragalysis-2/maxwin/BulkDock/OUTPUTS/openbind_a71ev2a_c2_elabs_1LSYIDY.sdf']

>  <name>  (2070) 
P586107

>  <ref_pdb>  (2070) 
A0566a

>  <subsites>  (2070) 
None

>  <HIPPO Pose ID>  (2070) 
586107

>  <ref_mols>  (2070) 
A0566a

>  <HIPPO Compound ID>  (2070) 
441287

>  <tags>  (2070) 
openbind_a71ev2a_c2_elabs,syndirella_product,openbind_a71ev2a_c2_elabs_fragonly_scored_top80percent,BulkDock Fragalysis export,openbind_a71ev2a_c2_elabs_scored,openbind_a71ev2a_c2_elabs_scored_top80percent,openbind_a71ev2a_c2_elabs_activefrags_only_scored_5.2plus,openbind_a71ev2a_c2_elabs_activefrags_only_scored_5.5plus,syndirella_placed

>  <smina_score_min>  (2070) 
-7.032

$$$$
P586108
     RDKit          3D

 23 25  0  0  0  0  0  0  0  0999 V2000
   11.7394   14.2597   19.0705 N   0  0  0  0  0  0  0  0  0  0  0  0
   11.0869   14.9341   19.7531 C   0  0  0  0  0  0  0  0  0  0  0  0
   10.3331   15.8605   20.6046 C   0  0  0  0  0  0  0  0  0  0  0  0
    8.9671   15.3578   21.0052 C   0  0  0  0  0  0  0  0  0  0  0  0
    8.9251   14.2882   21.9602 N   0  0  0  0  0  0  0  0  0  0  0  0
    9.8429   13.9762   23.1469 C   0  0  0  0  0  0  0  0  0  0  0  0
   10.7346   14.5766   23.5883 O   0  0  0  0  0  0  0  0  0  0  0  0
    9.4079   12.6974   23.7147 C   0  0  0  0  0  0  0  0  0  0  0  0
    9.9770   11.5493   23.1577 C   0  0  0  0  0  0  0  0  0  0  0  0
    9.4954   10.2899   23.4690 C   0  0  0  0  0  0  0  0  0  0  0  0
    8.4393   10.1690   24.3679 C   0  0  0  0  0  0  0  0  0  0  0  0
    7.8497   11.3114   24.9453 C   0  0  0  0  0  0  0  0  0  0  0  0
    6.7724   11.4826   25.8477 C   0  0  0  0  0  0  0  0  0  0  0  0
    6.6155   12.8296   26.0519 C   0  0  0  0  0  0  0  0  0  0  0  0
    7.5663   13.4984   25.3129 N   0  0  0  0  0  0  0  0  0  0  0  0
    7.6631   14.9566   25.3198 C   0  0  0  0  0  0  0  0  0  0  0  0
    8.3686   15.4720   26.5542 C   0  0  0  0  0  0  0  0  0  0  0  0
    7.6764   16.2701   27.4771 C   0  0  0  0  0  0  0  0  0  0  0  0
    8.3205   16.7681   28.6114 C   0  0  0  0  0  0  0  0  0  0  0  0
    9.6603   16.4676   28.8443 C   0  0  0  0  0  0  0  0  0  0  0  0
   10.3606   15.6770   27.9377 C   0  0  0  0  0  0  0  0  0  0  0  0
    9.7236   15.1974   26.7921 C   0  0  0  0  0  0  0  0  0  0  0  0
    8.3372   12.5843   24.6151 C   0  0  0  0  0  0  0  0  0  0  0  0
  1  2  3  0
  2  3  1  0
  3  4  1  0
  4  5  1  0
  5  6  1  0
  6  7  2  0
  6  8  1  0
  8  9  2  0
  9 10  1  0
 10 11  2  0
 11 12  1  0
 12 13  1  0
 13 14  2  0
 14 15  1  0
 15 16  1  0
 16 17  1  0
 17 18  2  0
 18 19  1  0
 19 20  2  0
 20 21  1  0
 21 22  2  0
 15 23  1  0
 23  8  1  0
 23 12  2  0
 22 17  1  0
M  END
>  <alias>  (2071) 
None

>  <rmsd(smina/fragmenstein)>  (2071) 
0.266

>  <smiles>  (2071) 
N#CCCNC(=O)c1cccc2ccn(Cc3ccccc3)c12

>  <gnina_score>  (2071) 
5.81

>  <inspiration_score>  (2071) 
None

>  <energy_score>  (2071) 
-2.687433

>  <distance_score>  (2071) 
1.475629

>  <gnina_score_min>  (2071) 
5.75

>  <inchikey>  (2071) 
KGWDVQPHLNWQOR-UHFFFAOYSA-N

>  <exports>  (2071) 
['/opt/xchem-fragalysis-2/maxwin/BulkDock/OUTPUTS/openbind_a71ev2a_c2_elabs_1LOUU54.sdf', '/opt/xchem-fragalysis-2/maxwin/BulkDock/OUTPUTS/openbind_a71ev2a_c2_elabs_1LSYIDY.sdf']

>  <name>  (2071) 
P586108

>  <ref_pdb>  (2071) 
A0566a

>  <subsites>  (2071) 
None

>  <HIPPO Pose ID>  (2071) 
586108

>  <ref_mols>  (2071) 
A0566a

>  <HIPPO Compound ID>  (2071) 
441290

>  <tags>  (2071) 
openbind_a71ev2a_c2_elabs,syndirella_product,openbind_a71ev2a_c2_elabs_fragonly_scored_top80percent,BulkDock Fragalysis export,openbind_a71ev2a_c2_elabs_scored,openbind_a71ev2a_c2_elabs_scored_top80percent,openbind_a71ev2a_c2_elabs_activefrags_only_scored_5.2plus,openbind_a71ev2a_c2_elabs_activefrags_only_scored_5.5plus,syndirella_placed

>  <smina_score_min>  (2071) 
-6.715

$$$$
P586110
     RDKit          3D

 23 25  0  0  0  0  0  0  0  0999 V2000
   12.9815   15.3043   21.8221 C   0  0  0  0  0  0  0  0  0  0  0  0
   11.8416   15.3434   21.4702 C   0  0  0  0  0  0  0  0  0  0  0  0
   10.4355   15.3788   21.1148 C   0  0  1  0  0  0  0  0  0  0  0  0
   10.2569   15.2576   19.6186 C   0  0  0  0  0  0  0  0  0  0  0  0
    9.8452   14.3128   21.8686 N   0  0  0  0  0  0  0  0  0  0  0  0
    9.8700   14.0245   23.3766 C   0  0  0  0  0  0  0  0  0  0  0  0
   10.3082   14.6473   24.2570 O   0  0  0  0  0  0  0  0  0  0  0  0
    9.2806   12.7206   23.6856 C   0  0  0  0  0  0  0  0  0  0  0  0
    9.9004   11.5909   23.1332 C   0  0  0  0  0  0  0  0  0  0  0  0
    9.4628   10.3130   23.4319 C   0  0  0  0  0  0  0  0  0  0  0  0
    8.4205   10.1498   24.3378 C   0  0  0  0  0  0  0  0  0  0  0  0
    7.7926   11.2651   24.9267 C   0  0  0  0  0  0  0  0  0  0  0  0
    6.7390   11.3829   25.8644 C   0  0  0  0  0  0  0  0  0  0  0  0
    6.5263   12.7195   26.0781 C   0  0  0  0  0  0  0  0  0  0  0  0
    7.4105   13.4361   25.2996 N   0  0  0  0  0  0  0  0  0  0  0  0
    7.3369   14.8956   25.2094 C   0  0  0  0  0  0  0  0  0  0  0  0
    7.7705   15.5894   26.4835 C   0  0  0  0  0  0  0  0  0  0  0  0
    6.9187   16.5252   27.0905 C   0  0  0  0  0  0  0  0  0  0  0  0
    7.3187   17.2195   28.2347 C   0  0  0  0  0  0  0  0  0  0  0  0
    8.5754   16.9903   28.7894 C   0  0  0  0  0  0  0  0  0  0  0  0
    9.4351   16.0695   28.1981 C   0  0  0  0  0  0  0  0  0  0  0  0
    9.0374   15.3812   27.0499 C   0  0  0  0  0  0  0  0  0  0  0  0
    8.2182   12.5590   24.5915 C   0  0  0  0  0  0  0  0  0  0  0  0
  1  2  3  0
  2  3  1  0
  3  4  1  6
  3  5  1  0
  5  6  1  0
  6  7  2  0
  6  8  1  0
  8  9  2  0
  9 10  1  0
 10 11  2  0
 11 12  1  0
 12 13  1  0
 13 14  2  0
 14 15  1  0
 15 16  1  0
 16 17  1  0
 17 18  2  0
 18 19  1  0
 19 20  2  0
 20 21  1  0
 21 22  2  0
 15 23  1  0
 23  8  1  0
 23 12  2  0
 22 17  1  0
M  END
>  <alias>  (2072) 
None

>  <rmsd(smina/fragmenstein)>  (2072) 
0.361

>  <smiles>  (2072) 
C#C[C@@H](C)NC(=O)c1cccc2ccn(Cc3ccccc3)c12

>  <gnina_score>  (2072) 
5.457

>  <inspiration_score>  (2072) 
None

>  <energy_score>  (2072) 
-5.935554

>  <distance_score>  (2072) 
1.209543

>  <gnina_score_min>  (2072) 
5.469

>  <inchikey>  (2072) 
BQONOZQPJHOQQQ-OAHLLOKOSA-N

>  <exports>  (2072) 
['/opt/xchem-fragalysis-2/maxwin/BulkDock/OUTPUTS/openbind_a71ev2a_c2_elabs_1LOUU54.sdf', '/opt/xchem-fragalysis-2/maxwin/BulkDock/OUTPUTS/openbind_a71ev2a_c2_elabs_1LSYIDY.sdf']

>  <name>  (2072) 
P586110

>  <ref_pdb>  (2072) 
A0566a

>  <subsites>  (2072) 
None

>  <HIPPO Pose ID>  (2072) 
586110

>  <ref_mols>  (2072) 
A0566a

>  <HIPPO Compound ID>  (2072) 
441294

>  <tags>  (2072) 
openbind_a71ev2a_c2_elabs,syndirella_product,openbind_a71ev2a_c2_elabs_fragonly_scored_top80percent,openbind_a71ev2a_c2_elabs_scored,BulkDock Fragalysis export,openbind_a71ev2a_c2_elabs_scored_top80percent,openbind_a71ev2a_c2_elabs_activefrags_only_scored_5.2plus,syndirella_placed

>  <smina_score_min>  (2072) 
-7.084

$$$$
P586112
     RDKit          3D

 23 25  0  0  0  0  0  0  0  0999 V2000
   10.6168   14.5406   24.6123 O   0  0  0  0  0  0  0  0  0  0  0  0
   10.0258   13.9868   23.7817 C   0  0  0  0  0  0  0  0  0  0  0  0
    9.8710   14.3040   22.3010 N   0  0  0  0  0  0  0  0  0  0  0  0
   10.4879   15.3227   21.4922 C   0  0  0  0  0  0  0  0  0  0  0  0
   10.9818   14.5441   20.2928 C   0  0  0  0  0  0  0  0  0  0  0  0
   11.2248   15.2052   18.9764 C   0  0  0  0  0  0  0  0  0  0  0  0
   10.0625   16.4840   18.6102 Cl  0  0  0  0  0  0  0  0  0  0  0  0
    9.3355   12.7091   24.0058 C   0  0  0  0  0  0  0  0  0  0  0  0
    9.8852   11.5887   23.3513 C   0  0  0  0  0  0  0  0  0  0  0  0
    9.3735   10.3188   23.5460 C   0  0  0  0  0  0  0  0  0  0  0  0
    8.3251   10.1490   24.4436 C   0  0  0  0  0  0  0  0  0  0  0  0
    7.7315   11.2589   25.0773 C   0  0  0  0  0  0  0  0  0  0  0  0
    6.6945   11.3804   26.0324 C   0  0  0  0  0  0  0  0  0  0  0  0
    6.5232   12.7184   26.2858 C   0  0  0  0  0  0  0  0  0  0  0  0
    7.3279   13.4251   25.4168 N   0  0  0  0  0  0  0  0  0  0  0  0
    7.0735   14.8300   25.0812 C   0  0  0  0  0  0  0  0  0  0  0  0
    5.8220   14.9272   24.2335 C   0  0  0  0  0  0  0  0  0  0  0  0
    4.5585   15.0245   24.8408 C   0  0  0  0  0  0  0  0  0  0  0  0
    3.3927   14.9164   24.0819 C   0  0  0  0  0  0  0  0  0  0  0  0
    3.4752   14.7288   22.7044 C   0  0  0  0  0  0  0  0  0  0  0  0
    4.7219   14.6903   22.0824 C   0  0  0  0  0  0  0  0  0  0  0  0
    5.8909   14.7941   22.8395 C   0  0  0  0  0  0  0  0  0  0  0  0
    8.2051   12.5500   24.8057 C   0  0  0  0  0  0  0  0  0  0  0  0
  1  2  2  0
  2  3  1  0
  3  4  1  0
  4  5  1  0
  5  6  1  0
  6  7  1  0
  2  8  1  0
  8  9  2  0
  9 10  1  0
 10 11  2  0
 11 12  1  0
 12 13  1  0
 13 14  2  0
 14 15  1  0
 15 16  1  0
 16 17  1  0
 17 18  2  0
 18 19  1  0
 19 20  2  0
 20 21  1  0
 21 22  2  0
 15 23  1  0
 23  8  1  0
 23 12  2  0
 22 17  1  0
M  END
>  <alias>  (2073) 
None

>  <rmsd(smina/fragmenstein)>  (2073) 
0.756

>  <smiles>  (2073) 
O=C(NCCCCl)c1cccc2ccn(Cc3ccccc3)c12

>  <gnina_score>  (2073) 
5.523

>  <inspiration_score>  (2073) 
None

>  <energy_score>  (2073) 
-0.384425

>  <distance_score>  (2073) 
1.164306

>  <gnina_score_min>  (2073) 
5.584

>  <inchikey>  (2073) 
BXENIASCEQVLOR-UHFFFAOYSA-N

>  <exports>  (2073) 
['/opt/xchem-fragalysis-2/maxwin/BulkDock/OUTPUTS/openbind_a71ev2a_c2_elabs_1LOUU54.sdf', '/opt/xchem-fragalysis-2/maxwin/BulkDock/OUTPUTS/openbind_a71ev2a_c2_elabs_1LSYIDY.sdf']

>  <name>  (2073) 
P586112

>  <ref_pdb>  (2073) 
A0566a

>  <subsites>  (2073) 
None

>  <HIPPO Pose ID>  (2073) 
586112

>  <ref_mols>  (2073) 
A0566a

>  <HIPPO Compound ID>  (2073) 
441295

>  <tags>  (2073) 
openbind_a71ev2a_c2_elabs,syndirella_product,openbind_a71ev2a_c2_elabs_fragonly_scored_top80percent,BulkDock Fragalysis export,openbind_a71ev2a_c2_elabs_scored,openbind_a71ev2a_c2_elabs_scored_top80percent,openbind_a71ev2a_c2_elabs_activefrags_only_scored_5.2plus,openbind_a71ev2a_c2_elabs_activefrags_only_scored_5.5plus,syndirella_placed

>  <smina_score_min>  (2073) 
-7.011

$$$$
