A71EV2A-x3868_A_201_1_A71EV2A-x0911+A+147+1__LIG
     RDKit          3D

 21 22  0  0  0  0  0  0  0  0999 V2000
   10.5760   16.7720   19.1710 O   0  0  0  0  0  0  0  0  0  0  0  0
   10.9050   15.6110   19.4300 C   0  0  0  0  0  0  0  0  0  0  0  0
   11.1470   14.7040   18.4940 N   0  0  0  0  0  0  0  0  0  0  0  0
   11.0830   15.1520   20.8680 C   0  0  1  0  0  0  0  0  0  0  0  0
   11.9630   16.1410   21.6550 C   0  0  0  0  0  0  0  0  0  0  0  0
   12.1240   15.7060   23.1140 C   0  0  0  0  0  0  0  0  0  0  0  0
   10.7750   15.5650   23.7770 C   0  0  0  0  0  0  0  0  0  0  0  0
    9.7370   15.0760   21.5900 C   0  0  0  0  0  0  0  0  0  0  0  0
    9.9140   14.6740   22.9900 N   0  0  0  0  0  0  0  0  0  0  0  0
    9.5090   13.5280   23.6210 C   0  0  0  0  0  0  0  0  0  0  0  0
   10.2780   12.9170   24.3510 O   0  0  0  0  0  0  0  0  0  0  0  0
    8.1950   13.1270   23.4810 N   0  0  0  0  0  0  0  0  0  0  0  0
    7.4130   13.6440   22.3610 C   0  0  0  0  0  0  0  0  0  0  0  0
    7.5460   12.1830   24.3500 C   0  0  0  0  0  0  0  0  0  0  0  0
    7.9060   10.8300   24.3290 C   0  0  0  0  0  0  0  0  0  0  0  0
    9.0220   10.5190   23.5910 O   0  0  0  0  0  0  0  0  0  0  0  0
    9.3900    9.1410   23.4700 C   0  0  0  0  0  0  0  0  0  0  0  0
    6.5160   12.6220   25.1750 C   0  0  0  0  0  0  0  0  0  0  0  0
    5.8310   11.7070   25.9610 C   0  0  0  0  0  0  0  0  0  0  0  0
    6.1550   10.3670   25.9140 C   0  0  0  0  0  0  0  0  0  0  0  0
    7.1870    9.9220   25.0940 C   0  0  0  0  0  0  0  0  0  0  0  0
 17 16  1  0
 16 15  1  0
 15 21  2  0
 21 20  1  0
 20 19  2  0
 19 18  1  0
 18 14  2  0
 15 14  1  0
 14 12  1  0
 13 12  1  0
 12 10  1  0
 11 10  2  0
 10  9  1  0
  9  7  1  0
  7  6  1  0
  6  5  1  0
  5  4  1  0
  4  2  1  6
  3  2  1  0
  2  1  2  0
  8  4  1  0
  9  8  1  0
M  END
$$$$
