A71EV2A-x4947_A_201_1_A71EV2A-x0911+A+147+1__LIG
     RDKit          3D

 20 22  0  0  0  0  0  0  0  0999 V2000
    9.9880   16.5460   18.8740 O   0  0  0  0  0  0  0  0  0  0  0  0
   10.5480   15.5410   19.3020 C   0  0  0  0  0  0  0  0  0  0  0  0
   11.0560   14.6170   18.4960 N   0  0  0  0  0  0  0  0  0  0  0  0
   10.6030   15.2850   20.8010 C   0  0  2  0  0  0  0  0  0  0  0  0
   11.6360   15.9950   21.6420 C   0  0  0  0  0  0  0  0  0  0  0  0
   11.6440   14.4920   21.5690 C   0  0  1  0  0  0  0  0  0  0  0  0
   10.9350   13.7660   22.7070 C   0  0  0  0  0  0  0  0  0  0  0  0
    9.2560   15.0660   21.4830 C   0  0  0  0  0  0  0  0  0  0  0  0
    9.5650   14.2910   22.6850 N   0  0  0  0  0  0  0  0  0  0  0  0
    8.5970   14.1040   23.6140 C   0  0  0  0  0  0  0  0  0  0  0  0
    7.4430   14.4970   23.4500 O   0  0  0  0  0  0  0  0  0  0  0  0
    8.9840   13.3390   24.8650 C   0  0  0  0  0  0  0  0  0  0  0  0
    7.9220   12.3130   25.2030 C   0  0  0  0  0  0  0  0  0  0  0  0
    7.9710   11.0030   24.7100 C   0  0  0  0  0  0  0  0  0  0  0  0
    9.1440   10.6710   23.4230 S   0  0  0  0  0  0  0  0  0  0  0  0
    9.1680    8.8760   23.3480 C   0  0  0  0  0  0  0  0  0  0  0  0
    6.9210   12.6370   26.1210 C   0  0  0  0  0  0  0  0  0  0  0  0
    6.0410   11.6740   26.5860 C   0  0  0  0  0  0  0  0  0  0  0  0
    6.1310   10.3770   26.1290 C   0  0  0  0  0  0  0  0  0  0  0  0
    7.0880   10.0350   25.1860 C   0  0  0  0  0  0  0  0  0  0  0  0
 16 15  1  0
 15 14  1  0
 14 20  2  0
 20 19  1  0
 19 18  2  0
 18 17  1  0
 17 13  2  0
 14 13  1  0
 13 12  1  0
 12 10  1  0
 11 10  2  0
 10  9  1  0
  9  7  1  0
  6  7  1  1
  6  5  1  0
  5  4  1  0
  6  4  1  0
  4  2  1  6
  3  2  1  0
  2  1  2  0
  8  4  1  0
  9  8  1  0
M  END
$$$$
