A71EV2A-x3417_A_201_1_A71EV2A-x0911+A+147+1__LIG
     RDKit          3D

 16 17  0  0  0  0  0  0  0  0999 V2000
    7.6620   12.8210   22.7760 O   0  0  0  0  0  0  0  0  0  0  0  0
    8.6400   13.1870   23.4040 C   0  0  0  0  0  0  0  0  0  0  0  0
    9.0980   12.5100   24.4760 N   0  0  0  0  0  0  0  0  0  0  0  0
    8.3850   11.3710   25.0620 C   0  0  0  0  0  0  0  0  0  0  0  0
    9.0560   10.0410   24.7390 C   0  0  0  0  0  0  0  0  0  0  0  0
    9.8050    9.8250   23.4690 C   0  0  0  0  0  0  0  0  0  0  0  0
   10.5560    9.9180   24.7510 C   0  0  0  0  0  0  0  0  0  0  0  0
    9.2740   14.3570   23.0920 N   0  0  0  0  0  0  0  0  0  0  0  0
   10.3780   14.9280   23.8790 C   0  0  0  0  0  0  0  0  0  0  0  0
   11.6970   14.6950   23.1530 C   0  0  0  0  0  0  0  0  0  0  0  0
   11.6290   15.3010   21.7480 C   0  0  0  0  0  0  0  0  0  0  0  0
    9.1540   14.8980   21.7340 C   0  0  0  0  0  0  0  0  0  0  0  0
   10.4560   14.6720   20.9580 C   0  0  1  0  0  0  0  0  0  0  0  0
   10.3570   15.2200   19.5450 C   0  0  0  0  0  0  0  0  0  0  0  0
    9.9440   16.3680   19.3360 O   0  0  0  0  0  0  0  0  0  0  0  0
   10.7250   14.3890   18.5690 N   0  0  0  0  0  0  0  0  0  0  0  0
 16 14  1  0
 15 14  2  0
 13 14  1  6
 13 11  1  0
 11 10  1  0
 10  9  1  0
  9  8  1  0
  8  2  1  0
  2  1  2  0
  3  2  1  0
  4  3  1  0
  5  4  1  0
  5  7  1  0
  7  6  1  0
  6  5  1  0
 12  8  1  0
 13 12  1  0
M  END
$$$$
