A71EV2A-x3436_A_201_1_A71EV2A-x0911+A+147+1__LIG
     RDKit          3D

 16 17  0  0  0  0  0  0  0  0999 V2000
    9.8530   14.0780   24.5590 O   0  0  0  0  0  0  0  0  0  0  0  0
    9.9480   13.1890   23.7050 C   0  0  0  0  0  0  0  0  0  0  0  0
    9.2540   11.8970   23.8760 C   0  0  0  0  0  0  0  0  0  0  0  0
    8.2030   11.5270   24.7270 C   0  0  0  0  0  0  0  0  0  0  0  0
    7.9810   10.2250   24.5800 N   0  0  0  0  0  0  0  0  0  0  0  0
    9.6790   10.8060   23.2070 N   0  0  0  0  0  0  0  0  0  0  0  0
    8.8990    9.8410   23.6880 N   0  0  0  0  0  0  0  0  0  0  0  0
    9.0710    8.4490   23.2970 C   0  0  0  0  0  0  0  0  0  0  0  0
   10.7550   13.2800   22.6360 N   0  0  0  0  0  0  0  0  0  0  0  0
   11.7860   14.3100   22.5380 C   0  0  0  0  0  0  0  0  0  0  0  0
   12.1130   14.6700   21.1020 C   0  0  0  0  0  0  0  0  0  0  0  0
   10.9650   15.3900   20.4700 C   0  0  0  0  0  0  0  0  0  0  0  0
   10.3300   16.4570   21.1030 N   0  0  0  0  0  0  0  0  0  0  0  0
    9.4430   16.8340   20.2580 C   0  0  0  0  0  0  0  0  0  0  0  0
    9.4140   16.1320   19.1040 O   0  0  0  0  0  0  0  0  0  0  0  0
   10.3990   15.2040   19.2710 C   0  0  0  0  0  0  0  0  0  0  0  0
  8  7  1  0
  7  5  1  0
  5  4  2  0
  4  3  1  0
  3  2  1  0
  2  1  2  0
  9  2  1  0
 10  9  1  0
 11 10  1  0
 12 11  1  0
 12 16  2  0
 16 15  1  0
 15 14  1  0
 14 13  2  0
 13 12  1  0
  6  3  2  0
  7  6  1  0
M  END
$$$$
