A71EV2A-x3706_C_201_1_A71EV2A-x0911+A+147+1__LIG
     RDKit          3D

 20 21  0  0  0  0  0  0  0  0999 V2000
   10.4730   16.8120   19.0570 O   0  0  0  0  0  0  0  0  0  0  0  0
   10.8300   15.6550   19.3610 C   0  0  0  0  0  0  0  0  0  0  0  0
   11.0460   14.7030   18.4570 N   0  0  0  0  0  0  0  0  0  0  0  0
   10.9170   15.2150   20.8130 C   0  0  1  0  0  0  0  0  0  0  0  0
   12.2420   15.6270   21.4690 C   0  0  0  0  0  0  0  0  0  0  0  0
   12.3100   15.1750   22.9350 C   0  0  0  0  0  0  0  0  0  0  0  0
   11.1100   15.6550   23.7410 C   0  0  0  0  0  0  0  0  0  0  0  0
    9.8250   15.8830   21.6410 C   0  0  0  0  0  0  0  0  0  0  0  0
    9.8580   15.3930   23.0230 N   0  0  0  0  0  0  0  0  0  0  0  0
    8.7300   14.7860   23.5030 C   0  0  0  0  0  0  0  0  0  0  0  0
    7.7760   14.5140   22.7760 O   0  0  0  0  0  0  0  0  0  0  0  0
    8.7290   14.4680   24.8100 N   0  0  0  0  0  0  0  0  0  0  0  0
    7.5820   13.7930   25.4020 C   0  0  0  0  0  0  0  0  0  0  0  0
    7.5560   12.2990   25.1710 C   0  0  0  0  0  0  0  0  0  0  0  0
    6.6760   11.5310   25.9110 C   0  0  0  0  0  0  0  0  0  0  0  0
    6.6800   10.1610   25.8050 C   0  0  0  0  0  0  0  0  0  0  0  0
    7.5490    9.5340   24.9310 C   0  0  0  0  0  0  0  0  0  0  0  0
    8.4700   11.6480   24.3440 C   0  0  0  0  0  0  0  0  0  0  0  0
    8.4910   10.2610   24.2240 C   0  0  0  0  0  0  0  0  0  0  0  0
    9.5530    9.5630   23.4070 C   0  0  0  0  0  0  0  0  0  0  0  0
 20 19  1  0
 19 17  2  0
 17 16  1  0
 16 15  2  0
 15 14  1  0
 14 13  1  0
 13 12  1  0
 12 10  1  0
 11 10  2  0
 10  9  1  0
  9  7  1  0
  7  6  1  0
  6  5  1  0
  5  4  1  0
  4  2  1  6
  3  2  1  0
  2  1  2  0
  8  4  1  0
  9  8  1  0
 18 14  2  0
 19 18  1  0
M  END
$$$$
