XX01ZVNS2B-x0827_B_203_1_XX01ZVNS2B-x4590+B+203+1__LIG
     RDKit          3D

 15 17  0  0  0  0  0  0  0  0999 V2000
   -5.6650    5.9410  -16.3950 C   0  0  0  0  0  0  0  0  0  0  0  0
   -5.1380    5.8180  -17.6380 C   0  0  0  0  0  0  0  0  0  0  0  0
   -6.0550    5.2530  -18.4840 N   0  0  0  0  0  0  0  0  0  0  0  0
   -7.0010    5.4120  -16.4560 C   0  0  0  0  0  0  0  0  0  0  0  0
   -7.2100    4.9870  -17.7860 C   0  0  0  0  0  0  0  0  0  0  0  0
   -8.3850    4.3690  -18.1920 C   0  0  0  0  0  0  0  0  0  0  0  0
   -9.3610    4.1270  -17.2470 C   0  0  0  0  0  0  0  0  0  0  0  0
   -9.1800    4.5200  -15.9320 C   0  0  0  0  0  0  0  0  0  0  0  0
   -8.0320    5.1860  -15.5170 C   0  0  0  0  0  0  0  0  0  0  0  0
   -7.9580    5.7230  -14.0920 C   0  0  1  0  0  0  0  0  0  0  0  0
   -8.2460    4.6490  -13.0310 C   0  0  0  0  0  0  0  0  0  0  0  0
   -7.9160    5.1390  -11.6210 C   0  0  0  0  0  0  0  0  0  0  0  0
   -6.7290    6.5650  -13.7140 C   0  0  0  0  0  0  0  0  0  0  0  0
   -5.8220    5.8110  -12.8380 N   0  0  0  0  0  0  0  0  0  0  0  0
   -6.4360    5.5190  -11.5180 C   0  0  0  0  0  0  0  0  0  0  0  0
 12 15  1  0
 15 14  1  0
 14 13  1  0
 13 10  1  0
 11 10  1  0
 12 11  1  0
 10  9  1  6
  9  8  1  0
  8  7  2  0
  7  6  1  0
  6  5  2  0
  5  3  1  0
  3  2  1  0
  2  1  2  0
  4  1  1  0
  9  4  2  0
  5  4  1  0
M  END
$$$$
