XX01ZVNS2B-x0687_B_301_1_XX01ZVNS2B-x4590+B+203+1__LIG
     RDKit          3D

 11 11  0  0  0  0  0  0  0  0999 V2000
   -8.3620    3.8940  -14.9330 O   0  0  0  0  0  0  0  0  0  0  0  0
   -7.7590    4.9560  -14.8210 C   0  0  0  0  0  0  0  0  0  0  0  0
   -7.4580    5.5580  -13.4800 C   0  0  0  0  0  0  0  0  0  0  0  0
   -7.2780    5.6520  -15.8840 N   0  0  0  0  0  0  0  0  0  0  0  0
   -6.5910    5.2180  -17.0470 C   0  0  0  0  0  0  0  0  0  0  0  0
   -7.3110    4.7810  -18.1660 C   0  0  0  0  0  0  0  0  0  0  0  0
   -8.7820    4.4550  -18.1090 C   0  0  0  0  0  0  0  0  0  0  0  0
   -6.5850    4.6200  -19.3410 C   0  0  0  0  0  0  0  0  0  0  0  0
   -5.2710    4.8290  -19.4620 N   0  0  0  0  0  0  0  0  0  0  0  0
   -4.6110    5.1990  -18.3600 C   0  0  0  0  0  0  0  0  0  0  0  0
   -5.2150    5.4020  -17.1350 C   0  0  0  0  0  0  0  0  0  0  0  0
  3  2  1  0
  2  1  2  0
  4  2  1  0
  5  4  1  0
  5 11  2  0
 11 10  1  0
 10  9  2  0
  9  8  1  0
  8  6  2  0
  6  5  1  0
  7  6  1  0
M  END
$$$$
