A71EV2A-x4472_A_201_3_A71EV2A-x0911+A+147+1__LIG
     RDKit          3D

 19 21  0  0  0  0  0  0  0  0999 V2000
    7.6410   13.0950   22.7760 O   0  0  0  0  0  0  0  0  0  0  0  0
    8.4620   13.6540   23.4720 C   0  0  0  0  0  0  0  0  0  0  0  0
    8.3820   13.5660   24.9950 C   0  0  2  0  0  0  0  0  0  0  0  0
    7.4830   12.4770   25.5310 C   0  0  0  0  0  0  0  0  0  0  0  0
    7.5840   11.1260   25.6760 N   0  0  0  0  0  0  0  0  0  0  0  0
    6.6260   10.5990   26.3710 N   0  0  0  0  0  0  0  0  0  0  0  0
    5.5240   11.7600   26.8960 S   0  0  0  0  0  0  0  0  0  0  0  0
    6.3910   13.0120   26.1420 C   0  0  0  0  0  0  0  0  0  0  0  0
    6.3360   14.4990   25.9940 C   0  0  0  0  0  0  0  0  0  0  0  0
    7.7840   14.8330   25.6590 C   0  0  0  0  0  0  0  0  0  0  0  0
    9.3980   14.4540   22.9230 N   0  0  0  0  0  0  0  0  0  0  0  0
   10.5610   14.9420   23.6890 C   0  0  0  0  0  0  0  0  0  0  0  0
   11.8470   14.8560   22.8890 C   0  0  0  0  0  0  0  0  0  0  0  0
   11.6570   15.5040   21.5280 C   0  0  0  0  0  0  0  0  0  0  0  0
    9.2400   14.9620   21.5500 C   0  0  0  0  0  0  0  0  0  0  0  0
   10.5360   14.7850   20.7600 C   0  0  1  0  0  0  0  0  0  0  0  0
   10.4810   15.2540   19.3170 C   0  0  0  0  0  0  0  0  0  0  0  0
    9.9880   16.3480   19.0240 O   0  0  0  0  0  0  0  0  0  0  0  0
   11.0900   14.4800   18.4340 N   0  0  0  0  0  0  0  0  0  0  0  0
 19 17  1  0
 18 17  2  0
 16 17  1  6
 16 14  1  0
 14 13  1  0
 13 12  1  0
 12 11  1  0
 11  2  1  0
  2  1  2  0
  3  2  1  6
  3 10  1  0
 10  9  1  0
  9  8  1  0
  8  7  1  0
  7  6  1  0
  6  5  2  0
  5  4  1  0
  8  4  2  0
  4  3  1  0
 15 11  1  0
 16 15  1  0
M  END
$$$$
