A71EV2A-x4514_A_201_1_A71EV2A-x0911+A+147+1__LIG
     RDKit          3D

 20 22  0  0  0  0  0  0  0  0999 V2000
    7.1590   13.1980   22.3790 O   0  0  0  0  0  0  0  0  0  0  0  0
    7.9140   13.6450   23.2210 C   0  0  0  0  0  0  0  0  0  0  0  0
    8.9370   14.4650   22.8930 N   0  0  0  0  0  0  0  0  0  0  0  0
   10.0340   14.8490   23.7970 C   0  0  0  0  0  0  0  0  0  0  0  0
   11.4030   14.6750   23.1530 C   0  0  0  0  0  0  0  0  0  0  0  0
   11.4430   15.3500   21.7840 C   0  0  0  0  0  0  0  0  0  0  0  0
    8.9750   15.0840   21.5620 C   0  0  0  0  0  0  0  0  0  0  0  0
   10.3230   14.8110   20.8820 C   0  0  1  0  0  0  0  0  0  0  0  0
   10.4430   15.3640   19.4720 C   0  0  0  0  0  0  0  0  0  0  0  0
   10.0450   16.4990   19.1990 O   0  0  0  0  0  0  0  0  0  0  0  0
   10.9690   14.5470   18.5690 N   0  0  0  0  0  0  0  0  0  0  0  0
    7.6340   13.2550   24.6940 C   0  0  0  0  0  0  0  0  0  0  0  0
    8.0570   14.1760   25.8750 C   0  0  0  0  0  0  0  0  0  0  0  0
    6.6800   13.9640   26.5110 C   0  0  0  0  0  0  0  0  0  0  0  0
    6.1660   13.4200   25.1670 C   0  0  0  0  0  0  0  0  0  0  0  0
    8.1210   11.8330   24.8460 C   0  0  0  0  0  0  0  0  0  0  0  0
    7.5260   10.7760   25.4590 C   0  0  0  0  0  0  0  0  0  0  0  0
    8.2110    9.6200   25.2040 O   0  0  0  0  0  0  0  0  0  0  0  0
    9.3020    9.9760   24.4280 C   0  0  0  0  0  0  0  0  0  0  0  0
    9.2930   11.2960   24.1940 C   0  0  0  0  0  0  0  0  0  0  0  0
 11  9  1  0
 10  9  2  0
  8  9  1  6
  8  6  1  0
  6  5  1  0
  5  4  1  0
  4  3  1  0
  3  2  1  0
  2  1  2  0
 12  2  1  0
 16 12  1  0
 16 20  1  0
 20 19  2  0
 19 18  1  0
 18 17  1  0
 17 16  2  0
 12 15  1  0
 15 14  1  0
 14 13  1  0
 13 12  1  0
  7  3  1  0
  8  7  1  0
M  END
$$$$
