A71EV2A-x3992_A_201_1_A71EV2A-x0911+A+147+1__LIG
     RDKit          3D

 20 21  0  0  0  0  0  0  0  0999 V2000
   10.4270   16.5940   19.3150 O   0  0  0  0  0  0  0  0  0  0  0  0
   10.9000   15.4680   19.4830 C   0  0  0  0  0  0  0  0  0  0  0  0
   11.1600   14.6360   18.4760 N   0  0  0  0  0  0  0  0  0  0  0  0
   11.0910   14.8970   20.8790 C   0  0  1  0  0  0  0  0  0  0  0  0
   11.8240   15.8230   21.8760 C   0  0  0  0  0  0  0  0  0  0  0  0
   11.5210   15.1800   23.2270 C   0  0  0  0  0  0  0  0  0  0  0  0
    9.7620   14.6850   21.6130 C   0  0  0  0  0  0  0  0  0  0  0  0
   10.2130   14.5330   23.0000 N   0  0  0  0  0  0  0  0  0  0  0  0
    9.5830   13.7930   23.9560 C   0  0  0  0  0  0  0  0  0  0  0  0
   10.1120   13.5990   25.0450 O   0  0  0  0  0  0  0  0  0  0  0  0
    8.3730   13.2620   23.6070 N   0  0  0  0  0  0  0  0  0  0  0  0
    7.7000   12.3420   24.4710 C   0  0  0  0  0  0  0  0  0  0  0  0
    7.9170   10.9610   24.3360 C   0  0  0  0  0  0  0  0  0  0  0  0
    8.9000   10.6100   23.4460 O   0  0  0  0  0  0  0  0  0  0  0  0
    9.2280    9.2190   23.3010 C   0  0  0  0  0  0  0  0  0  0  0  0
    6.7660   12.7770   25.4100 C   0  0  0  0  0  0  0  0  0  0  0  0
    6.4030   14.4650   25.5380 Cl  0  0  0  0  0  0  0  0  0  0  0  0
    6.0550   11.8950   26.1990 C   0  0  0  0  0  0  0  0  0  0  0  0
    6.2540   10.5360   26.0360 C   0  0  0  0  0  0  0  0  0  0  0  0
    7.1780   10.0660   25.1040 C   0  0  0  0  0  0  0  0  0  0  0  0
 15 14  1  0
 14 13  1  0
 13 20  2  0
 20 19  1  0
 19 18  2  0
 18 16  1  0
 17 16  1  0
 16 12  2  0
 13 12  1  0
 12 11  1  0
 11  9  1  0
 10  9  2  0
  9  8  1  0
  8  6  1  0
  6  5  1  0
  5  4  1  0
  4  2  1  6
  3  2  1  0
  2  1  2  0
  7  4  1  0
  8  7  1  0
M  END
$$$$
