A71EV2A-x3488_A_201_1_A71EV2A-x0911+A+147+1__LIG
     RDKit          3D

 24 25  0  0  0  0  0  0  0  0999 V2000
    9.9740   16.2240   19.0950 O   0  0  0  0  0  0  0  0  0  0  0  0
   10.7260   15.2750   19.3810 C   0  0  0  0  0  0  0  0  0  0  0  0
   11.4240   14.6130   18.4700 N   0  0  0  0  0  0  0  0  0  0  0  0
   10.8760   14.8580   20.8200 C   0  0  0  0  0  0  0  0  0  0  0  0
   12.1280   14.7240   21.4070 C   0  0  0  0  0  0  0  0  0  0  0  0
   12.2420   14.3890   22.7460 C   0  0  0  0  0  0  0  0  0  0  0  0
   11.1140   14.1670   23.5140 C   0  0  0  0  0  0  0  0  0  0  0  0
    9.7360   14.6120   21.5810 C   0  0  0  0  0  0  0  0  0  0  0  0
    9.8640   14.2620   22.9170 C   0  0  0  0  0  0  0  0  0  0  0  0
    8.6960   14.0290   23.6390 O   0  0  0  0  0  0  0  0  0  0  0  0
    8.3890   12.7340   24.0180 C   0  0  0  0  0  0  0  0  0  0  0  0
    8.9750   11.6190   23.4330 C   0  0  0  0  0  0  0  0  0  0  0  0
    8.5950   10.3370   23.8200 C   0  0  0  0  0  0  0  0  0  0  0  0
    9.2290    9.1140   23.1990 C   0  0  0  0  0  0  0  0  0  0  0  0
    7.6290   10.2070   24.8090 C   0  0  0  0  0  0  0  0  0  0  0  0
    7.0700   11.3170   25.4080 C   0  0  0  0  0  0  0  0  0  0  0  0
    5.9080   11.0790   26.6730 Cl  0  0  0  0  0  0  0  0  0  0  0  0
    7.4210   12.6090   25.0270 C   0  0  0  0  0  0  0  0  0  0  0  0
    6.8190   13.7720   25.6290 N   0  0  0  0  0  0  0  0  0  0  0  0
    7.5480   14.7780   26.1930 C   0  0  0  0  0  0  0  0  0  0  0  0
    8.7490   14.7000   26.4370 O   0  0  0  0  0  0  0  0  0  0  0  0
    6.8300   16.0850   26.4440 C   0  0  0  0  0  0  0  0  0  0  0  0
    5.4650   15.9940   26.0980 O   0  0  0  0  0  0  0  0  0  0  0  0
    4.6780   16.9750   26.7750 C   0  0  0  0  0  0  0  0  0  0  0  0
 24 23  1  0
 23 22  1  0
 22 20  1  0
 21 20  2  0
 20 19  1  0
 19 18  1  0
 18 16  1  0
 17 16  1  0
 16 15  2  0
 15 13  1  0
 14 13  1  0
 13 12  2  0
 12 11  1  0
 18 11  2  0
 11 10  1  0
 10  9  1  0
  9  7  1  0
  7  6  2  0
  6  5  1  0
  5  4  2  0
  4  2  1  0
  3  2  1  0
  2  1  2  0
  8  4  1  0
  9  8  2  0
M  END
$$$$
