XX01ZVNS2B-x4090_B_203_1_XX01ZVNS2B-x4590+B+203+1__LIG
     RDKit          3D

 26 30  0  0  0  0  0  0  0  0999 V2000
  -10.3890    3.8430  -18.1820 Br  0  0  0  0  0  0  0  0  0  0  0  0
   -8.7750    4.2110  -17.2360 C   0  0  0  0  0  0  0  0  0  0  0  0
   -8.7760    4.2280  -15.8400 C   0  0  0  0  0  0  0  0  0  0  0  0
   -7.6360    4.4650  -17.9650 C   0  0  0  0  0  0  0  0  0  0  0  0
   -6.4620    4.7320  -17.2820 C   0  0  0  0  0  0  0  0  0  0  0  0
   -5.1990    4.9800  -17.7340 N   0  0  0  0  0  0  0  0  0  0  0  0
   -4.7650    5.0540  -19.1340 C   0  0  0  0  0  0  0  0  0  0  0  0
   -4.6880    6.4370  -19.8090 C   0  0  0  0  0  0  0  0  0  0  0  0
   -3.4620    5.9500  -20.4890 N   0  0  0  0  0  0  0  0  0  0  0  0
   -3.2570    4.9220  -19.4390 C   0  0  0  0  0  0  0  0  0  0  0  0
   -4.3260    5.1700  -16.6990 N   0  0  0  0  0  0  0  0  0  0  0  0
   -5.0370    5.0540  -15.5920 C   0  0  0  0  0  0  0  0  0  0  0  0
   -6.3970    4.7690  -15.8750 C   0  0  0  0  0  0  0  0  0  0  0  0
   -7.5840    4.5180  -15.1480 C   0  0  0  0  0  0  0  0  0  0  0  0
   -7.5500    4.6540  -13.6400 C   0  0  0  0  0  0  0  0  0  0  0  0
   -6.6740    5.3310  -13.1030 O   0  0  0  0  0  0  0  0  0  0  0  0
   -8.4760    3.9770  -12.9060 N   0  0  0  0  0  0  0  0  0  0  0  0
   -8.5630    3.9690  -11.4700 C   0  0  0  0  0  0  0  0  0  0  0  0
   -8.7460    2.7700  -10.7800 C   0  0  0  0  0  0  0  0  0  0  0  0
   -8.8050    2.7610   -9.3840 C   0  0  0  0  0  0  0  0  0  0  0  0
   -9.0780    1.6160   -8.4530 C   0  0  0  0  0  0  0  0  0  0  0  0
   -8.7920    2.2050   -7.1280 N   0  0  0  0  0  0  0  0  0  0  0  0
   -8.7680    3.6880   -7.1950 C   0  0  0  0  0  0  0  0  0  0  0  0
   -8.6700    3.9450   -8.6710 C   0  0  0  0  0  0  0  0  0  0  0  0
   -8.4980    5.1470   -9.3570 C   0  0  0  0  0  0  0  0  0  0  0  0
   -8.4500    5.1610  -10.7460 C   0  0  0  0  0  0  0  0  0  0  0  0
 16 15  2  0
 17 15  1  0
 18 17  1  0
 18 26  2  0
 26 25  1  0
 25 24  2  0
 24 20  1  0
 20 19  2  0
 19 18  1  0
 21 20  1  0
 22 21  1  0
 23 22  1  0
 24 23  1  0
 15 14  1  0
 14  3  1  0
  3  2  2  0
  2  1  1  0
  4  2  1  0
  5  4  2  0
  5 13  1  0
 14 13  2  0
 13 12  1  0
 12 11  2  0
 11  6  1  0
  6  5  1  0
  7  6  1  0
  7 10  1  0
 10  9  1  0
  9  8  1  0
  8  7  1  0
M  END
$$$$
