A71EV2A-x5666_A_201_4_A71EV2A-x0911+A+147+1__LIG
     RDKit          3D

 29 32  0  0  0  0  0  0  0  0999 V2000
   10.3220   16.5870   19.1860 O   0  0  0  0  0  0  0  0  0  0  0  0
   10.7320   15.4530   19.4410 C   0  0  0  0  0  0  0  0  0  0  0  0
   11.2010   14.6370   18.5120 N   0  0  0  0  0  0  0  0  0  0  0  0
   10.7330   14.9190   20.8630 C   0  0  1  0  0  0  0  0  0  0  0  0
   11.7690   15.6430   21.7320 C   0  0  0  0  0  0  0  0  0  0  0  0
   11.8390   15.0260   23.1280 C   0  0  0  0  0  0  0  0  0  0  0  0
   10.4750   15.0580   23.7860 C   0  0  0  0  0  0  0  0  0  0  0  0
    9.3660   14.9730   21.5640 C   0  0  0  0  0  0  0  0  0  0  0  0
    9.4530   14.4310   22.9250 N   0  0  0  0  0  0  0  0  0  0  0  0
    8.5720   13.5020   23.3660 C   0  0  0  0  0  0  0  0  0  0  0  0
    7.6880   13.0550   22.6500 O   0  0  0  0  0  0  0  0  0  0  0  0
    8.6940   13.0710   24.8160 C   0  0  0  0  0  0  0  0  0  0  0  0
    7.8220   11.8820   25.1560 C   0  0  0  0  0  0  0  0  0  0  0  0
    8.1080   10.5740   24.7230 C   0  0  0  0  0  0  0  0  0  0  0  0
    9.3950   10.3590   23.5420 S   0  0  0  0  0  0  0  0  0  0  0  0
    9.4230    8.5870   23.3120 C   0  0  0  0  0  0  0  0  0  0  0  0
    6.7220   11.9920   26.0550 C   0  0  0  0  0  0  0  0  0  0  0  0
    6.0460   10.9250   26.5040 N   0  0  0  0  0  0  0  0  0  0  0  0
    6.4620    9.7540   26.0270 C   0  0  0  0  0  0  0  0  0  0  0  0
    7.4340    9.5060   25.1510 N   0  0  0  0  0  0  0  0  0  0  0  0
    6.2640   13.2610   26.4870 N   0  0  0  0  0  0  0  0  0  0  0  0
    5.7330   14.1900   25.4910 C   0  0  0  0  0  0  0  0  0  0  0  0
    4.2390   14.1640   25.5450 C   0  0  0  0  0  0  0  0  0  0  0  0
    3.2160   14.6720   24.2390 S   0  0  0  0  0  0  0  0  0  0  0  0
    1.8000   14.3280   25.1440 C   0  0  0  0  0  0  0  0  0  0  0  0
    2.0980   13.8440   26.3850 C   0  0  0  0  0  0  0  0  0  0  0  0
    3.5040   13.7520   26.6120 C   0  0  0  0  0  0  0  0  0  0  0  0
    4.1890   13.2680   27.8680 C   0  0  0  0  0  0  0  0  0  0  0  0
    5.7140   13.4500   27.8390 C   0  0  0  0  0  0  0  0  0  0  0  0
 16 15  1  0
 15 14  1  0
 14 20  2  0
 20 19  1  0
 19 18  2  0
 18 17  1  0
 21 17  1  0
 21 29  1  0
 29 28  1  0
 28 27  1  0
 27 26  1  0
 26 25  2  0
 25 24  1  0
 24 23  1  0
 27 23  2  0
 23 22  1  0
 22 21  1  0
 17 13  2  0
 14 13  1  0
 13 12  1  0
 12 10  1  0
 11 10  2  0
 10  9  1  0
  9  7  1  0
  7  6  1  0
  6  5  1  0
  5  4  1  0
  4  2  1  6
  3  2  1  0
  2  1  2  0
  8  4  1  0
  9  8  1  0
M  END
$$$$
