XX01ZVNS2B-x3711_B_203_1_XX01ZVNS2B-x4590+B+203+1__LIG
     RDKit          3D

 29 33  0  0  0  0  0  0  0  0999 V2000
   -6.5550    5.4950  -12.5690 O   0  0  0  0  0  0  0  0  0  0  0  0
   -7.3220    4.7340  -13.1540 C   0  0  0  0  0  0  0  0  0  0  0  0
   -8.2280    3.9560  -12.5110 N   0  0  0  0  0  0  0  0  0  0  0  0
   -8.4290    3.8930  -11.1120 C   0  0  0  0  0  0  0  0  0  0  0  0
   -8.7040    2.6740  -10.4980 C   0  0  0  0  0  0  0  0  0  0  0  0
   -8.8130    2.5980   -9.1120 C   0  0  0  0  0  0  0  0  0  0  0  0
   -9.1780    1.4270   -8.2490 C   0  0  0  0  0  0  0  0  0  0  0  0
   -8.8620    1.9440   -6.9170 N   0  0  0  0  0  0  0  0  0  0  0  0
   -8.7720    3.4070   -6.8780 C   0  0  0  0  0  0  0  0  0  0  0  0
   -8.6270    3.7340   -8.3360 C   0  0  0  0  0  0  0  0  0  0  0  0
   -8.3590    4.9520   -8.9510 C   0  0  0  0  0  0  0  0  0  0  0  0
   -8.2760    5.0360  -10.3300 C   0  0  0  0  0  0  0  0  0  0  0  0
   -7.2630    4.5950  -14.6410 C   0  0  0  0  0  0  0  0  0  0  0  0
   -8.3440    4.2290  -15.4390 C   0  0  0  0  0  0  0  0  0  0  0  0
   -6.0580    4.9620  -15.2390 C   0  0  0  0  0  0  0  0  0  0  0  0
   -5.9320    5.0000  -16.6140 C   0  0  0  0  0  0  0  0  0  0  0  0
   -6.9960    4.6390  -17.4360 C   0  0  0  0  0  0  0  0  0  0  0  0
   -8.2040    4.2440  -16.8210 C   0  0  0  0  0  0  0  0  0  0  0  0
   -9.3890    3.7690  -18.0000 S   0  0  0  0  0  0  0  0  0  0  0  0
   -8.2970    4.0880  -19.2920 C   0  0  0  0  0  0  0  0  0  0  0  0
   -7.0720    4.5350  -18.8880 C   0  0  0  0  0  0  0  0  0  0  0  0
   -5.9680    4.7780  -19.8600 C   0  0  0  0  0  0  0  0  0  0  0  0
   -5.8030    3.9360  -20.9550 C   0  0  0  0  0  0  0  0  0  0  0  0
   -4.8490    4.2180  -21.9180 C   0  0  0  0  0  0  0  0  0  0  0  0
   -4.0420    5.3330  -21.7890 C   0  0  0  0  0  0  0  0  0  0  0  0
   -5.1430    5.8980  -19.7390 C   0  0  0  0  0  0  0  0  0  0  0  0
   -4.1630    6.1710  -20.6940 C   0  0  0  0  0  0  0  0  0  0  0  0
   -3.1740    7.2930  -20.5110 C   0  0  0  0  0  0  0  0  0  0  0  0
   -3.8690    8.4960  -20.0660 N   0  0  0  0  0  0  0  0  0  0  0  0
 29 28  1  0
 28 27  1  0
 27 25  2  0
 25 24  1  0
 24 23  2  0
 23 22  1  0
 22 21  1  0
 21 20  2  0
 20 19  1  0
 19 18  1  0
 18 14  2  0
 14 13  1  0
 13  2  1  0
  2  1  2  0
  3  2  1  0
  4  3  1  0
  4 12  2  0
 12 11  1  0
 11 10  2  0
 10  6  1  0
  6  5  2  0
  5  4  1  0
  7  6  1  0
  8  7  1  0
  9  8  1  0
 10  9  1  0
 15 13  2  0
 16 15  1  0
 17 16  2  0
 21 17  1  0
 18 17  1  0
 26 22  2  0
 27 26  1  0
M  END
$$$$
