A71EV2A-x5073_A_201_1_A71EV2A-x0911+A+147+1__LIG
     RDKit          3D

 20 22  0  0  0  0  0  0  0  0999 V2000
   10.6740   14.2740   25.0260 O   0  0  0  0  0  0  0  0  0  0  0  0
   10.6530   14.5930   23.8510 C   0  0  0  0  0  0  0  0  0  0  0  0
   11.9180   15.0890   23.1930 C   0  0  0  0  0  0  0  0  0  0  0  0
   11.7520   15.6900   21.7960 C   0  0  0  0  0  0  0  0  0  0  0  0
    9.5300   14.4920   23.0950 N   0  0  0  0  0  0  0  0  0  0  0  0
    9.4150   14.9480   21.7030 C   0  0  0  0  0  0  0  0  0  0  0  0
   10.7560   14.8770   20.9600 C   0  0  1  0  0  0  0  0  0  0  0  0
   10.6390   15.4280   19.5490 C   0  0  0  0  0  0  0  0  0  0  0  0
   10.2010   16.5640   19.3410 O   0  0  0  0  0  0  0  0  0  0  0  0
   11.0100   14.6110   18.5770 N   0  0  0  0  0  0  0  0  0  0  0  0
    8.3010   13.9520   23.6980 C   0  0  1  0  0  0  0  0  0  0  0  0
    8.3650   12.4680   24.0210 C   0  0  0  0  0  0  0  0  0  0  0  0
    9.2620   11.6530   23.3320 C   0  0  0  0  0  0  0  0  0  0  0  0
    9.2710   10.2860   23.5280 C   0  0  0  0  0  0  0  0  0  0  0  0
    8.3880    9.7130   24.4110 C   0  0  0  0  0  0  0  0  0  0  0  0
    7.5130   10.5070   25.1310 C   0  0  0  0  0  0  0  0  0  0  0  0
    7.4880   11.8890   24.9510 C   0  0  0  0  0  0  0  0  0  0  0  0
    6.5510   12.7290   25.7880 C   0  0  0  0  0  0  0  0  0  0  0  0
    6.4250   14.1840   25.3150 C   0  0  0  0  0  0  0  0  0  0  0  0
    7.7890   14.7370   24.9080 C   0  0  0  0  0  0  0  0  0  0  0  0
 10  8  1  0
  9  8  2  0
  7  8  1  6
  7  4  1  0
  4  3  1  0
  3  2  1  0
  2  1  2  0
  5  2  1  0
 11  5  1  1
 11 20  1  0
 20 19  1  0
 19 18  1  0
 18 17  1  0
 17 16  1  0
 16 15  2  0
 15 14  1  0
 14 13  2  0
 13 12  1  0
 17 12  2  0
 12 11  1  0
  6  5  1  0
  7  6  1  0
M  END
$$$$
