XX01ZVNS2B-x1716_B_301_1_XX01ZVNS2B-x4590+B+203+1__LIG
     RDKit          3D

 18 19  0  0  0  0  0  0  0  0999 V2000
   -4.9450    8.6350  -13.4330 C   0  0  0  0  0  0  0  0  0  0  0  0
   -4.0990    7.8660  -12.4900 C   0  0  0  0  0  0  0  0  0  0  0  0
   -3.6240    6.6580  -13.1650 O   0  0  0  0  0  0  0  0  0  0  0  0
   -4.3960    5.5690  -13.0870 C   0  0  0  0  0  0  0  0  0  0  0  0
   -4.4740    4.8690  -12.1080 O   0  0  0  0  0  0  0  0  0  0  0  0
   -5.1590    5.3110  -14.3410 C   0  0  0  0  0  0  0  0  0  0  0  0
   -4.4800    5.3510  -15.5860 C   0  0  0  0  0  0  0  0  0  0  0  0
   -5.0610    5.1390  -16.7470 N   0  0  0  0  0  0  0  0  0  0  0  0
   -6.4030    4.8610  -16.7680 C   0  0  0  0  0  0  0  0  0  0  0  0
   -7.0320    4.6300  -18.0250 C   0  0  0  0  0  0  0  0  0  0  0  0
   -8.3810    4.3440  -18.0790 C   0  0  0  0  0  0  0  0  0  0  0  0
   -9.1510    4.2780  -16.8970 C   0  0  0  0  0  0  0  0  0  0  0  0
   -8.5660    4.4960  -15.6840 C   0  0  0  0  0  0  0  0  0  0  0  0
   -7.1890    4.7920  -15.5790 C   0  0  0  0  0  0  0  0  0  0  0  0
   -6.5400    5.0240  -14.3320 C   0  0  0  0  0  0  0  0  0  0  0  0
   -7.2480    4.9690  -13.1560 N   0  0  0  0  0  0  0  0  0  0  0  0
   -6.2580    4.6970  -19.2380 C   0  0  0  0  0  0  0  0  0  0  0  0
   -5.6800    4.7660  -20.2260 N   0  0  0  0  0  0  0  0  0  0  0  0
  1  2  1  0
  2  3  1  0
  3  4  1  0
  4  5  2  0
  4  6  1  0
  6  7  2  0
  7  8  1  0
  8  9  2  0
  9 10  1  0
 10 11  2  0
 11 12  1  0
 12 13  2  0
 13 14  1  0
 14 15  2  0
 15 16  1  0
 10 17  1  0
 17 18  3  0
  6 15  1  0
  9 14  1  0
M  END
$$$$
