A71EV2A-x5393_A_201_5_A71EV2A-x0911+A+147+1__LIG
     RDKit          3D

 19 20  0  0  0  0  0  0  0  0999 V2000
   10.4960   16.8020   19.1710 O   0  0  0  0  0  0  0  0  0  0  0  0
   10.7740   15.6260   19.4270 C   0  0  0  0  0  0  0  0  0  0  0  0
   11.0450   14.7320   18.4910 N   0  0  0  0  0  0  0  0  0  0  0  0
   10.8300   15.1250   20.8600 C   0  0  1  0  0  0  0  0  0  0  0  0
   11.8950   15.8810   21.6720 C   0  0  0  0  0  0  0  0  0  0  0  0
   12.0120   15.3130   23.0940 C   0  0  0  0  0  0  0  0  0  0  0  0
   10.6640   15.3310   23.7950 C   0  0  0  0  0  0  0  0  0  0  0  0
    9.5030   15.2790   21.6150 C   0  0  0  0  0  0  0  0  0  0  0  0
    9.6230   14.7060   22.9610 N   0  0  0  0  0  0  0  0  0  0  0  0
    8.8210   13.6900   23.3560 C   0  0  0  0  0  0  0  0  0  0  0  0
    7.8870   13.3000   22.6720 O   0  0  0  0  0  0  0  0  0  0  0  0
    9.1360   13.0480   24.6970 C   0  0  0  0  0  0  0  0  0  0  0  0
    8.1330   11.9870   25.1030 C   0  0  0  0  0  0  0  0  0  0  0  0
    8.2370   10.6610   24.6480 C   0  0  0  0  0  0  0  0  0  0  0  0
    9.3660   10.2040   23.7560 C   0  0  0  0  0  0  0  0  0  0  0  0
    7.1060   12.3320   25.9820 C   0  0  0  0  0  0  0  0  0  0  0  0
    6.1870   11.3850   26.4080 C   0  0  0  0  0  0  0  0  0  0  0  0
    6.2770   10.0890   25.9530 C   0  0  0  0  0  0  0  0  0  0  0  0
    7.2890    9.7320   25.0790 C   0  0  0  0  0  0  0  0  0  0  0  0
 15 14  1  0
 14 19  2  0
 19 18  1  0
 18 17  2  0
 17 16  1  0
 16 13  2  0
 14 13  1  0
 13 12  1  0
 12 10  1  0
 11 10  2  0
 10  9  1  0
  9  7  1  0
  7  6  1  0
  6  5  1  0
  5  4  1  0
  4  2  1  6
  3  2  1  0
  2  1  2  0
  8  4  1  0
  9  8  1  0
M  END
$$$$
