A71EV2A-x4429_A_201_1_A71EV2A-x0911+A+147+1__LIG
     RDKit          3D

 24 25  0  0  0  0  0  0  0  0999 V2000
   10.4170   16.6790   19.2490 O   0  0  0  0  0  0  0  0  0  0  0  0
   10.7740   15.5160   19.4760 C   0  0  0  0  0  0  0  0  0  0  0  0
   11.1060   14.6640   18.5190 N   0  0  0  0  0  0  0  0  0  0  0  0
   10.7870   14.9630   20.8910 C   0  0  1  0  0  0  0  0  0  0  0  0
   11.8110   15.6900   21.7770 C   0  0  0  0  0  0  0  0  0  0  0  0
   11.8600   15.0600   23.1700 C   0  0  0  0  0  0  0  0  0  0  0  0
   10.4890   15.0860   23.8080 C   0  0  0  0  0  0  0  0  0  0  0  0
    9.4220   15.1050   21.5630 C   0  0  0  0  0  0  0  0  0  0  0  0
    9.4600   14.5300   22.9140 N   0  0  0  0  0  0  0  0  0  0  0  0
    8.5570   13.5660   23.2590 C   0  0  0  0  0  0  0  0  0  0  0  0
    7.7060   13.1710   22.4710 O   0  0  0  0  0  0  0  0  0  0  0  0
    8.5950   13.1530   24.5510 N   0  0  0  0  0  0  0  0  0  0  0  0
    7.7710   12.1520   25.1120 C   0  0  0  0  0  0  0  0  0  0  0  0
    7.9950   10.8290   24.7160 C   0  0  0  0  0  0  0  0  0  0  0  0
    9.0010   10.6670   23.8020 O   0  0  0  0  0  0  0  0  0  0  0  0
    9.3730    9.3330   23.4530 C   0  0  0  0  0  0  0  0  0  0  0  0
    6.7600   12.4290   26.0280 C   0  0  0  0  0  0  0  0  0  0  0  0
    5.9760   11.4020   26.5380 C   0  0  0  0  0  0  0  0  0  0  0  0
    4.8860   11.7190   27.5110 C   0  0  0  0  0  0  0  0  0  0  0  0
    4.2110   12.8070   27.1930 F   0  0  0  0  0  0  0  0  0  0  0  0
    3.9530   10.7670   27.5870 F   0  0  0  0  0  0  0  0  0  0  0  0
    5.3560   11.9320   28.7350 F   0  0  0  0  0  0  0  0  0  0  0  0
    6.2150   10.0940   26.1420 C   0  0  0  0  0  0  0  0  0  0  0  0
    7.2170    9.8000   25.2310 C   0  0  0  0  0  0  0  0  0  0  0  0
 16 15  1  0
 15 14  1  0
 14 24  2  0
 24 23  1  0
 23 18  2  0
 19 18  1  0
 22 19  1  0
 21 19  1  0
 20 19  1  0
 18 17  1  0
 17 13  2  0
 14 13  1  0
 13 12  1  0
 12 10  1  0
 11 10  2  0
 10  9  1  0
  9  7  1  0
  7  6  1  0
  6  5  1  0
  5  4  1  0
  4  2  1  6
  3  2  1  0
  2  1  2  0
  8  4  1  0
  9  8  1  0
M  END
$$$$
