XX01ZVNS2B-x5136_B_203_7_XX01ZVNS2B-x4590+B+203+1__LIG
     RDKit          3D

 24 27  0  0  0  0  0  0  0  0999 V2000
  -10.1430    3.7810  -17.6380 F   0  0  0  0  0  0  0  0  0  0  0  0
   -8.9700    4.0880  -17.0230 C   0  0  0  0  0  0  0  0  0  0  0  0
   -8.9470    4.1810  -15.6490 C   0  0  0  0  0  0  0  0  0  0  0  0
   -7.8780    4.3240  -17.8140 C   0  0  0  0  0  0  0  0  0  0  0  0
   -6.6830    4.6820  -17.2000 C   0  0  0  0  0  0  0  0  0  0  0  0
   -5.4930    4.9550  -18.0230 C   0  0  0  0  0  0  0  0  0  0  0  0
   -4.2380    5.1390  -17.4690 N   0  0  0  0  0  0  0  0  0  0  0  0
   -3.4850    5.3910  -18.4790 C   0  0  0  0  0  0  0  0  0  0  0  0
   -4.1330    5.3820  -19.6900 O   0  0  0  0  0  0  0  0  0  0  0  0
   -5.4220    5.0980  -19.3550 C   0  0  0  0  0  0  0  0  0  0  0  0
   -6.6190    4.7880  -15.8110 C   0  0  0  0  0  0  0  0  0  0  0  0
   -7.7460    4.5320  -15.0300 C   0  0  0  0  0  0  0  0  0  0  0  0
   -7.6090    4.6630  -13.5380 C   0  0  0  0  0  0  0  0  0  0  0  0
   -6.7620    5.4070  -13.0480 O   0  0  0  0  0  0  0  0  0  0  0  0
   -8.4540    3.9150  -12.7790 N   0  0  0  0  0  0  0  0  0  0  0  0
   -8.5250    3.8860  -11.3540 C   0  0  0  0  0  0  0  0  0  0  0  0
   -8.7890    2.6980  -10.6730 C   0  0  0  0  0  0  0  0  0  0  0  0
   -8.8420    2.6790   -9.2800 C   0  0  0  0  0  0  0  0  0  0  0  0
   -9.1730    1.5580   -8.3390 C   0  0  0  0  0  0  0  0  0  0  0  0
   -8.9000    2.1450   -7.0170 N   0  0  0  0  0  0  0  0  0  0  0  0
   -8.7640    3.5980   -7.0910 C   0  0  0  0  0  0  0  0  0  0  0  0
   -8.6180    3.8500   -8.5650 C   0  0  0  0  0  0  0  0  0  0  0  0
   -8.3670    5.0370   -9.2410 C   0  0  0  0  0  0  0  0  0  0  0  0
   -8.3270    5.0590  -10.6270 C   0  0  0  0  0  0  0  0  0  0  0  0
 14 13  2  0
 15 13  1  0
 16 15  1  0
 16 24  2  0
 24 23  1  0
 23 22  2  0
 22 18  1  0
 18 17  2  0
 17 16  1  0
 19 18  1  0
 20 19  1  0
 21 20  1  0
 22 21  1  0
 13 12  1  0
 12  3  1  0
  3  2  2  0
  2  1  1  0
  4  2  1  0
  5  4  2  0
  6  5  1  0
  6 10  2  0
 10  9  1  0
  9  8  1  0
  8  7  2  0
  7  6  1  0
 11  5  1  0
 12 11  2  0
M  END
$$$$
