A71EV2A-x4778_A_201_1_A71EV2A-x0911+A+147+1__LIG
     RDKit          3D

 24 25  0  0  0  0  0  0  0  0999 V2000
   10.0850   16.7750   19.0460 O   0  0  0  0  0  0  0  0  0  0  0  0
   10.4740   15.6450   19.3470 C   0  0  0  0  0  0  0  0  0  0  0  0
   10.9780   14.8010   18.4620 N   0  0  0  0  0  0  0  0  0  0  0  0
   10.4780   15.1480   20.7860 C   0  0  1  0  0  0  0  0  0  0  0  0
   11.8280   16.1430   21.4700 S   0  0  0  0  0  0  0  0  0  0  0  0
   11.8240   15.3500   23.0950 C   0  0  0  0  0  0  0  0  0  0  0  0
   10.4890   15.4690   23.7840 C   0  0  0  0  0  0  0  0  0  0  0  0
    9.2430   15.3610   21.6540 C   0  0  0  0  0  0  0  0  0  0  0  0
    9.4290   14.8270   23.0070 N   0  0  0  0  0  0  0  0  0  0  0  0
    8.6900   13.7980   23.4550 C   0  0  0  0  0  0  0  0  0  0  0  0
    7.8400   13.2740   22.7720 O   0  0  0  0  0  0  0  0  0  0  0  0
    8.9850   13.3070   24.8610 C   0  0  0  0  0  0  0  0  0  0  0  0
    8.0310   12.2180   25.2940 C   0  0  0  0  0  0  0  0  0  0  0  0
    8.1380   10.9290   24.7760 C   0  0  0  0  0  0  0  0  0  0  0  0
    9.1770   10.7390   23.9190 O   0  0  0  0  0  0  0  0  0  0  0  0
    9.1820    9.5360   23.1680 C   0  0  0  0  0  0  0  0  0  0  0  0
    6.9780   12.4930   26.1520 C   0  0  0  0  0  0  0  0  0  0  0  0
    6.0160   11.5410   26.4620 C   0  0  0  0  0  0  0  0  0  0  0  0
    4.8380   11.9200   27.3030 C   0  0  0  0  0  0  0  0  0  0  0  0
    4.1830   12.9240   26.8480 F   0  0  0  0  0  0  0  0  0  0  0  0
    5.1970   12.2610   28.5080 F   0  0  0  0  0  0  0  0  0  0  0  0
    3.9230   10.9950   27.3530 F   0  0  0  0  0  0  0  0  0  0  0  0
    6.1510   10.2600   25.9390 C   0  0  0  0  0  0  0  0  0  0  0  0
    7.2120    9.9450   25.1060 C   0  0  0  0  0  0  0  0  0  0  0  0
 16 15  1  0
 15 14  1  0
 14 24  2  0
 24 23  1  0
 23 18  2  0
 19 18  1  0
 22 19  1  0
 21 19  1  0
 20 19  1  0
 18 17  1  0
 17 13  2  0
 14 13  1  0
 13 12  1  0
 12 10  1  0
 11 10  2  0
 10  9  1  0
  9  7  1  0
  7  6  1  0
  6  5  1  0
  5  4  1  0
  4  2  1  6
  3  2  1  0
  2  1  2  0
  8  4  1  0
  9  8  1  0
M  END
$$$$
