A71EV2A-x3408_A_201_1_A71EV2A-x0911+A+147+1__LIG
     RDKit          3D

 14 14  0  0  0  0  0  0  0  0999 V2000
   10.1880   16.1510   19.1070 O   0  0  0  0  0  0  0  0  0  0  0  0
   10.4360   14.9650   19.3210 C   0  0  0  0  0  0  0  0  0  0  0  0
   10.7050   14.0970   18.3550 N   0  0  0  0  0  0  0  0  0  0  0  0
   10.3570   14.3880   20.7230 C   0  0  1  0  0  0  0  0  0  0  0  0
   11.3360   15.0490   21.6830 C   0  0  0  0  0  0  0  0  0  0  0  0
   11.2450   14.4250   23.0750 C   0  0  0  0  0  0  0  0  0  0  0  0
    9.8110   14.3460   23.5810 C   0  0  0  0  0  0  0  0  0  0  0  0
    8.9810   14.6730   21.3020 C   0  0  0  0  0  0  0  0  0  0  0  0
    8.8630   13.8960   22.5430 N   0  0  0  0  0  0  0  0  0  0  0  0
    7.3210   13.5800   23.0240 S   0  0  0  0  0  0  0  0  0  0  0  0
    6.6620   12.9810   21.9470 O   0  0  0  0  0  0  0  0  0  0  0  0
    7.4030   13.0160   24.2350 O   0  0  0  0  0  0  0  0  0  0  0  0
    6.8060   15.0560   22.8530 C   0  0  0  0  0  0  0  0  0  0  0  0
    6.4490   15.7910   23.7460 C   0  0  0  0  0  0  0  0  0  0  0  0
 14 13  2  0
 13 10  1  0
 11 10  2  0
 12 10  2  0
 10  9  1  0
  9  7  1  0
  7  6  1  0
  6  5  1  0
  5  4  1  0
  4  2  1  6
  3  2  1  0
  2  1  2  0
  8  4  1  0
  9  8  1  0
M  END
$$$$
