XX01ZVNS2B-x5246_B_203_6_XX01ZVNS2B-x4590+B+203+1__LIG
     RDKit          3D

 27 31  0  0  0  0  0  0  0  0999 V2000
   -9.6550    3.7850  -18.1340 Cl  0  0  0  0  0  0  0  0  0  0  0  0
   -8.3300    4.2770  -17.1200 C   0  0  0  0  0  0  0  0  0  0  0  0
   -8.4710    4.2390  -15.7410 C   0  0  0  0  0  0  0  0  0  0  0  0
   -7.1340    4.6910  -17.7120 C   0  0  0  0  0  0  0  0  0  0  0  0
   -6.0790    5.0650  -16.8760 C   0  0  0  0  0  0  0  0  0  0  0  0
   -5.0380    5.4740  -17.7100 N   0  0  0  0  0  0  0  0  0  0  0  0
   -5.5110    5.3620  -18.9430 C   0  0  0  0  0  0  0  0  0  0  0  0
   -4.8220    5.7140  -20.0600 N   0  0  0  0  0  0  0  0  0  0  0  0
   -3.4510    6.2240  -20.1280 C   0  0  0  0  0  0  0  0  0  0  0  0
   -2.8630    6.4320  -21.5400 C   0  0  0  0  0  0  0  0  0  0  0  0
   -1.9860    5.2590  -21.3220 N   0  0  0  0  0  0  0  0  0  0  0  0
   -2.3100    5.2150  -19.8790 C   0  0  0  0  0  0  0  0  0  0  0  0
   -6.7830    4.8850  -19.0340 N   0  0  0  0  0  0  0  0  0  0  0  0
   -6.2080    5.0450  -15.4840 C   0  0  0  0  0  0  0  0  0  0  0  0
   -7.4150    4.6370  -14.9160 C   0  0  0  0  0  0  0  0  0  0  0  0
   -7.4440    4.7620  -13.4200 C   0  0  0  0  0  0  0  0  0  0  0  0
   -6.6350    5.4770  -12.8360 O   0  0  0  0  0  0  0  0  0  0  0  0
   -8.3720    4.0330  -12.7500 N   0  0  0  0  0  0  0  0  0  0  0  0
   -8.5340    4.0230  -11.3320 C   0  0  0  0  0  0  0  0  0  0  0  0
   -8.7260    2.8250  -10.6460 C   0  0  0  0  0  0  0  0  0  0  0  0
   -8.8300    2.8160   -9.2530 C   0  0  0  0  0  0  0  0  0  0  0  0
   -9.1250    1.6830   -8.3120 C   0  0  0  0  0  0  0  0  0  0  0  0
   -8.8020    2.2760   -6.9910 N   0  0  0  0  0  0  0  0  0  0  0  0
   -8.8280    3.7440   -7.0680 C   0  0  0  0  0  0  0  0  0  0  0  0
   -8.7040    4.0040   -8.5420 C   0  0  0  0  0  0  0  0  0  0  0  0
   -8.5070    5.2000   -9.2240 C   0  0  0  0  0  0  0  0  0  0  0  0
   -8.4380    5.2150  -10.6110 C   0  0  0  0  0  0  0  0  0  0  0  0
 17 16  2  0
 18 16  1  0
 19 18  1  0
 19 27  2  0
 27 26  1  0
 26 25  2  0
 25 21  1  0
 21 20  2  0
 20 19  1  0
 22 21  1  0
 23 22  1  0
 24 23  1  0
 25 24  1  0
 16 15  1  0
 15  3  1  0
  3  2  2  0
  2  1  1  0
  4  2  1  0
  4 13  1  0
 13  7  1  0
  8  7  1  0
  9  8  1  0
  9 12  1  0
 12 11  1  0
 11 10  1  0
 10  9  1  0
  7  6  2  0
  6  5  1  0
  5  4  2  0
 14  5  1  0
 15 14  2  0
M  END
$$$$
