A71EV2A-x4559_A_201_1_A71EV2A-x0911+A+147+1__LIG
     RDKit          3D

 22 24  0  0  0  0  0  0  0  0999 V2000
   10.3510   16.6780   19.1580 O   0  0  0  0  0  0  0  0  0  0  0  0
   10.7120   15.5250   19.4040 C   0  0  0  0  0  0  0  0  0  0  0  0
   10.9840   14.6350   18.4580 N   0  0  0  0  0  0  0  0  0  0  0  0
   10.7990   15.0200   20.8330 C   0  0  1  0  0  0  0  0  0  0  0  0
   11.9380   15.7030   21.6080 C   0  0  0  0  0  0  0  0  0  0  0  0
   11.9840   15.2020   23.0540 C   0  0  0  0  0  0  0  0  0  0  0  0
   10.6180   15.3620   23.7240 C   0  0  0  0  0  0  0  0  0  0  0  0
    9.4610   15.2590   21.5390 C   0  0  0  0  0  0  0  0  0  0  0  0
    9.5520   14.7540   22.9110 N   0  0  0  0  0  0  0  0  0  0  0  0
    8.7910   13.7100   23.2990 C   0  0  0  0  0  0  0  0  0  0  0  0
    7.8750   13.2730   22.6180 O   0  0  0  0  0  0  0  0  0  0  0  0
    9.1290   13.0860   24.6470 C   0  0  0  0  0  0  0  0  0  0  0  0
    8.2700   11.9270   24.8710 N   0  0  0  0  0  0  0  0  0  0  0  0
    7.0970   11.9080   25.6050 C   0  0  0  0  0  0  0  0  0  0  0  0
    6.3350   12.9420   26.1310 C   0  0  0  0  0  0  0  0  0  0  0  0
    5.1750   12.6230   26.8190 C   0  0  0  0  0  0  0  0  0  0  0  0
    8.5870   10.6270   24.5320 C   0  0  0  0  0  0  0  0  0  0  0  0
    7.6820    9.7740   25.0550 C   0  0  0  0  0  0  0  0  0  0  0  0
    6.7110   10.5680   25.7540 C   0  0  0  0  0  0  0  0  0  0  0  0
    5.5420   10.2880   26.4530 C   0  0  0  0  0  0  0  0  0  0  0  0
    4.7540   11.3040   26.9770 C   0  0  0  0  0  0  0  0  0  0  0  0
    3.4310   10.9880   27.6330 C   0  0  0  0  0  0  0  0  0  0  0  0
 22 21  1  0
 21 16  1  0
 16 15  2  0
 15 14  1  0
 14 19  2  0
 19 18  1  0
 18 17  2  0
 17 13  1  0
 14 13  1  0
 13 12  1  0
 12 10  1  0
 11 10  2  0
 10  9  1  0
  9  7  1  0
  7  6  1  0
  6  5  1  0
  5  4  1  0
  4  2  1  6
  3  2  1  0
  2  1  2  0
  8  4  1  0
  9  8  1  0
 20 19  1  0
 21 20  2  0
M  END
$$$$
