A71EV2A-x4571_A_201_1_A71EV2A-x0911+A+147+1__LIG
     RDKit          3D

 23 24  0  0  0  0  0  0  0  0999 V2000
    9.7950   10.8660   23.0810 F   0  0  0  0  0  0  0  0  0  0  0  0
    9.5640   10.2070   24.2120 C   0  0  0  0  0  0  0  0  0  0  0  0
    9.5630    8.9240   23.8970 F   0  0  0  0  0  0  0  0  0  0  0  0
   10.6150   10.3970   24.9640 F   0  0  0  0  0  0  0  0  0  0  0  0
    8.2950   10.6490   24.8950 C   0  0  0  0  0  0  0  0  0  0  0  0
    7.5040    9.7230   25.3570 N   0  0  0  0  0  0  0  0  0  0  0  0
    6.5140   10.4590   25.9480 N   0  0  0  0  0  0  0  0  0  0  0  0
    5.5010    9.7800   26.7450 C   0  0  0  0  0  0  0  0  0  0  0  0
    6.6810   11.7860   25.8080 C   0  0  0  0  0  0  0  0  0  0  0  0
    7.8490   11.9470   25.1460 C   0  0  0  0  0  0  0  0  0  0  0  0
    8.5360   13.2760   24.8900 C   0  0  2  0  0  0  0  0  0  0  0  0
    7.8650   14.4100   25.6780 C   0  0  0  0  0  0  0  0  0  0  0  0
    8.5370   13.5970   23.4040 C   0  0  0  0  0  0  0  0  0  0  0  0
    7.6890   13.1350   22.6600 O   0  0  0  0  0  0  0  0  0  0  0  0
    9.4710   14.4650   22.9510 N   0  0  0  0  0  0  0  0  0  0  0  0
    9.3740   15.0350   21.6010 C   0  0  0  0  0  0  0  0  0  0  0  0
   10.6810   14.7980   20.8350 C   0  0  1  0  0  0  0  0  0  0  0  0
   10.6730   15.3020   19.4020 C   0  0  0  0  0  0  0  0  0  0  0  0
   10.1530   16.3860   19.1120 O   0  0  0  0  0  0  0  0  0  0  0  0
   11.2260   14.4960   18.5080 N   0  0  0  0  0  0  0  0  0  0  0  0
   11.8650   15.3680   21.6250 C   0  0  0  0  0  0  0  0  0  0  0  0
   11.9290   14.7330   23.0140 C   0  0  0  0  0  0  0  0  0  0  0  0
   10.6190   14.9490   23.7410 C   0  0  0  0  0  0  0  0  0  0  0  0
 11 12  1  1
 13 11  1  0
 14 13  2  0
 15 13  1  0
 15 23  1  0
 23 22  1  0
 22 21  1  0
 21 17  1  0
 17 18  1  6
 20 18  1  0
 19 18  2  0
 17 16  1  0
 16 15  1  0
 11 10  1  0
 10  9  2  0
  9  7  1  0
  8  7  1  0
  7  6  1  0
  6  5  2  0
 10  5  1  0
  5  2  1  0
  3  2  1  0
  4  2  1  0
  2  1  1  0
M  END
$$$$
