A71EV2A-x5151_A_201_2_A71EV2A-x0911+A+147+1__LIG
     RDKit          3D

 21 23  0  0  0  0  0  0  0  0999 V2000
    7.7460   13.4130   22.3950 O   0  0  0  0  0  0  0  0  0  0  0  0
    8.5480   13.9680   23.1310 C   0  0  0  0  0  0  0  0  0  0  0  0
    9.3920   14.9190   22.6820 N   0  0  0  0  0  0  0  0  0  0  0  0
   10.3880   15.5910   23.5210 C   0  0  0  0  0  0  0  0  0  0  0  0
   11.7780   15.4130   22.9500 C   0  0  0  0  0  0  0  0  0  0  0  0
   11.8250   15.8570   21.4910 C   0  0  0  0  0  0  0  0  0  0  0  0
    9.3950   15.3800   21.2930 C   0  0  0  0  0  0  0  0  0  0  0  0
   10.7660   15.1310   20.6590 C   0  0  1  0  0  0  0  0  0  0  0  0
   10.7480   15.6520   19.2320 C   0  0  0  0  0  0  0  0  0  0  0  0
   10.5480   16.8460   18.9920 O   0  0  0  0  0  0  0  0  0  0  0  0
   10.9590   14.7550   18.2830 N   0  0  0  0  0  0  0  0  0  0  0  0
    8.6380   13.6120   24.6040 C   0  0  0  0  0  0  0  0  0  0  0  0
    8.0670   12.2420   24.8930 C   0  0  0  0  0  0  0  0  0  0  0  0
    8.6160   11.0720   24.3460 C   0  0  0  0  0  0  0  0  0  0  0  0
   10.0150   11.0090   23.2840 S   0  0  0  0  0  0  0  0  0  0  0  0
   10.1730    9.2130   23.5310 C   0  0  0  0  0  0  0  0  0  0  0  0
    8.8040    8.6880   23.9400 C   0  0  0  0  0  0  0  0  0  0  0  0
    8.0710    9.8170   24.6140 C   0  0  0  0  0  0  0  0  0  0  0  0
    6.9600    9.7270   25.4440 C   0  0  0  0  0  0  0  0  0  0  0  0
    6.4070   10.8700   25.9950 C   0  0  0  0  0  0  0  0  0  0  0  0
    6.9560   12.1130   25.7220 C   0  0  0  0  0  0  0  0  0  0  0  0
 11  9  1  0
 10  9  2  0
  8  9  1  6
  8  6  1  0
  6  5  1  0
  5  4  1  0
  4  3  1  0
  3  2  1  0
  2  1  2  0
 12  2  1  0
 13 12  1  0
 13 21  2  0
 21 20  1  0
 20 19  2  0
 19 18  1  0
 18 14  2  0
 14 13  1  0
 15 14  1  0
 16 15  1  0
 17 16  1  0
 18 17  1  0
  7  3  1  0
  8  7  1  0
M  END
$$$$
