A71EV2A-x4914_A_201_2_A71EV2A-x0911+A+147+1__LIG
     RDKit          3D

 20 21  0  0  0  0  0  0  0  0999 V2000
   10.5530   16.9520   19.3940 O   0  0  0  0  0  0  0  0  0  0  0  0
   10.7850   15.7430   19.4930 C   0  0  0  0  0  0  0  0  0  0  0  0
   11.0190   14.9670   18.4480 N   0  0  0  0  0  0  0  0  0  0  0  0
   10.8640   15.0680   20.8510 C   0  0  1  0  0  0  0  0  0  0  0  0
   11.9060   15.7610   21.7390 C   0  0  0  0  0  0  0  0  0  0  0  0
   12.0000   15.0860   23.1040 C   0  0  0  0  0  0  0  0  0  0  0  0
   10.6500   15.0970   23.7870 C   0  0  0  0  0  0  0  0  0  0  0  0
    9.5140   15.1080   21.5780 C   0  0  0  0  0  0  0  0  0  0  0  0
    9.6060   14.5200   22.9210 N   0  0  0  0  0  0  0  0  0  0  0  0
    8.6970   13.6140   23.3490 C   0  0  0  0  0  0  0  0  0  0  0  0
    7.8520   13.1390   22.6060 O   0  0  0  0  0  0  0  0  0  0  0  0
    8.7330   13.2340   24.8180 C   0  0  0  0  0  0  0  0  0  0  0  0
    7.9850   11.9660   25.1210 C   0  0  0  0  0  0  0  0  0  0  0  0
    8.4090   10.6900   24.6490 C   0  0  0  0  0  0  0  0  0  0  0  0
    9.7530   10.5350   23.5130 S   0  0  0  0  0  0  0  0  0  0  0  0
    9.9510    8.7690   23.3350 C   0  0  0  0  0  0  0  0  0  0  0  0
    6.9320   12.1230   25.9390 N   0  0  0  0  0  0  0  0  0  0  0  0
    6.2800   11.0280   26.3490 C   0  0  0  0  0  0  0  0  0  0  0  0
    6.6240    9.7550   25.9670 C   0  0  0  0  0  0  0  0  0  0  0  0
    7.6960    9.5840   25.1050 C   0  0  0  0  0  0  0  0  0  0  0  0
 16 15  1  0
 15 14  1  0
 14 20  2  0
 20 19  1  0
 19 18  2  0
 18 17  1  0
 17 13  2  0
 14 13  1  0
 13 12  1  0
 12 10  1  0
 11 10  2  0
 10  9  1  0
  9  7  1  0
  7  6  1  0
  6  5  1  0
  5  4  1  0
  4  2  1  6
  3  2  1  0
  2  1  2  0
  8  4  1  0
  9  8  1  0
M  END
$$$$
