A71EV2A-x4374_C_201_1_A71EV2A-x0911+A+147+1__LIG
     RDKit          3D

 20 21  0  0  0  0  0  0  0  0999 V2000
    7.9700   13.2540   22.6770 O   0  0  0  0  0  0  0  0  0  0  0  0
    8.8560   13.7260   23.3790 C   0  0  0  0  0  0  0  0  0  0  0  0
    9.6670   14.7200   22.9440 N   0  0  0  0  0  0  0  0  0  0  0  0
   10.7190   15.3790   23.7390 C   0  0  0  0  0  0  0  0  0  0  0  0
   12.0740   15.2660   23.0430 C   0  0  0  0  0  0  0  0  0  0  0  0
   11.9920   15.7470   21.5910 C   0  0  0  0  0  0  0  0  0  0  0  0
    9.5530   15.2400   21.5790 C   0  0  0  0  0  0  0  0  0  0  0  0
   10.8700   15.0200   20.8300 C   0  0  1  0  0  0  0  0  0  0  0  0
   10.7330   15.5460   19.4130 C   0  0  0  0  0  0  0  0  0  0  0  0
   10.3770   16.7140   19.1980 O   0  0  0  0  0  0  0  0  0  0  0  0
   10.9940   14.6730   18.4460 N   0  0  0  0  0  0  0  0  0  0  0  0
    9.1100   13.2090   24.7860 C   0  0  0  0  0  0  0  0  0  0  0  0
    8.1230   12.1410   25.2120 C   0  0  0  0  0  0  0  0  0  0  0  0
    8.2470   10.8010   24.8070 C   0  0  0  0  0  0  0  0  0  0  0  0
    9.3180   10.3670   23.8360 C   0  0  0  0  0  0  0  0  0  0  0  0
   10.3620    9.7030   24.5020 O   0  0  0  0  0  0  0  0  0  0  0  0
    7.3650    9.8490   25.3180 C   0  0  0  0  0  0  0  0  0  0  0  0
    6.3680   10.2130   26.2100 C   0  0  0  0  0  0  0  0  0  0  0  0
    6.2380   11.5260   26.5960 C   0  0  0  0  0  0  0  0  0  0  0  0
    7.1070   12.4830   26.1020 C   0  0  0  0  0  0  0  0  0  0  0  0
 11  9  1  0
 10  9  2  0
  8  9  1  6
  8  6  1  0
  6  5  1  0
  5  4  1  0
  4  3  1  0
  3  2  1  0
  2  1  2  0
 12  2  1  0
 13 12  1  0
 13 20  2  0
 20 19  1  0
 19 18  2  0
 18 17  1  0
 17 14  2  0
 14 13  1  0
 15 14  1  0
 16 15  1  0
  7  3  1  0
  8  7  1  0
M  END
$$$$
