A71EV2A-x4031_C_201_1_A71EV2A-x0911+A+147+1__LIG
     RDKit          3D

 20 21  0  0  0  0  0  0  0  0999 V2000
   10.3740   16.5990   19.3040 O   0  0  0  0  0  0  0  0  0  0  0  0
   10.7850   15.4420   19.5160 C   0  0  0  0  0  0  0  0  0  0  0  0
   11.0990   14.5950   18.5350 N   0  0  0  0  0  0  0  0  0  0  0  0
   10.8820   14.8850   20.9260 C   0  0  1  0  0  0  0  0  0  0  0  0
   12.0300   15.5250   21.7450 C   0  0  0  0  0  0  0  0  0  0  0  0
   12.1070   14.8760   23.1250 C   0  0  0  0  0  0  0  0  0  0  0  0
   10.7660   15.0090   23.8590 C   0  0  0  0  0  0  0  0  0  0  0  0
    9.5690   15.0880   21.6990 C   0  0  0  0  0  0  0  0  0  0  0  0
    9.6690   14.4780   23.0290 N   0  0  0  0  0  0  0  0  0  0  0  0
    8.7980   13.4860   23.3930 C   0  0  0  0  0  0  0  0  0  0  0  0
    7.9470   13.0550   22.6020 O   0  0  0  0  0  0  0  0  0  0  0  0
    8.8970   13.0310   24.6770 N   0  0  0  0  0  0  0  0  0  0  0  0
    8.0830   11.9690   25.1690 C   0  0  0  0  0  0  0  0  0  0  0  0
    8.2590   10.6480   24.6540 C   0  0  0  0  0  0  0  0  0  0  0  0
    9.2400   10.4810   23.7380 O   0  0  0  0  0  0  0  0  0  0  0  0
    9.5160    9.1320   23.2880 C   0  0  0  0  0  0  0  0  0  0  0  0
    7.1210   12.1570   26.1540 C   0  0  0  0  0  0  0  0  0  0  0  0
    6.3920   11.0600   26.5970 C   0  0  0  0  0  0  0  0  0  0  0  0
    6.6340    9.8260   26.0310 C   0  0  0  0  0  0  0  0  0  0  0  0
    7.5460    9.6100   25.0700 N   0  0  0  0  0  0  0  0  0  0  0  0
 16 15  1  0
 15 14  1  0
 14 20  2  0
 20 19  1  0
 19 18  2  0
 18 17  1  0
 17 13  2  0
 14 13  1  0
 13 12  1  0
 12 10  1  0
 11 10  2  0
 10  9  1  0
  9  7  1  0
  7  6  1  0
  6  5  1  0
  5  4  1  0
  4  2  1  6
  3  2  1  0
  2  1  2  0
  8  4  1  0
  9  8  1  0
M  END
$$$$
