A71EV2A-x4519_A_201_1_A71EV2A-x0911+A+147+1__LIG
     RDKit          3D

 22 24  0  0  0  0  0  0  0  0999 V2000
    9.5040    8.9160   23.4250 Br  0  0  0  0  0  0  0  0  0  0  0  0
    8.3820   10.0340   24.4420 C   0  0  0  0  0  0  0  0  0  0  0  0
    7.2010    9.5100   25.0190 C   0  0  0  0  0  0  0  0  0  0  0  0
    6.4270   10.3000   25.7950 C   0  0  0  0  0  0  0  0  0  0  0  0
    8.7430   11.3210   24.6130 C   0  0  0  0  0  0  0  0  0  0  0  0
    7.9250   12.1400   25.3750 N   0  0  0  0  0  0  0  0  0  0  0  0
    6.7750   11.6550   25.9980 C   0  0  0  0  0  0  0  0  0  0  0  0
    6.2560   12.7500   26.6520 C   0  0  0  0  0  0  0  0  0  0  0  0
    7.0240   13.8730   26.4400 N   0  0  0  0  0  0  0  0  0  0  0  0
    8.0170   13.4770   25.6590 C   0  0  0  0  0  0  0  0  0  0  0  0
    9.0880   14.3610   25.1170 C   0  0  0  0  0  0  0  0  0  0  0  0
    8.9280   14.5030   23.6110 C   0  0  0  0  0  0  0  0  0  0  0  0
    8.0530   13.9190   22.9840 O   0  0  0  0  0  0  0  0  0  0  0  0
    9.8030   15.3310   23.0080 N   0  0  0  0  0  0  0  0  0  0  0  0
   11.0090   15.8810   23.6460 C   0  0  0  0  0  0  0  0  0  0  0  0
   12.2450   15.4360   22.8830 C   0  0  0  0  0  0  0  0  0  0  0  0
   12.1240   15.8210   21.4090 C   0  0  0  0  0  0  0  0  0  0  0  0
    9.6440   15.6830   21.5930 C   0  0  0  0  0  0  0  0  0  0  0  0
   10.8600   15.2110   20.7880 C   0  0  1  0  0  0  0  0  0  0  0  0
   10.6860   15.6560   19.3460 C   0  0  0  0  0  0  0  0  0  0  0  0
   10.3500   16.8130   19.0720 O   0  0  0  0  0  0  0  0  0  0  0  0
   10.8440   14.7110   18.4240 N   0  0  0  0  0  0  0  0  0  0  0  0
 22 20  1  0
 21 20  2  0
 19 20  1  6
 19 17  1  0
 17 16  1  0
 16 15  1  0
 15 14  1  0
 14 12  1  0
 13 12  2  0
 12 11  1  0
 11 10  1  0
 10  9  2  0
  9  8  1  0
  8  7  2  0
  7  4  1  0
  4  3  2  0
  3  2  1  0
  2  1  1  0
  5  2  2  0
  6  5  1  0
 10  6  1  0
  7  6  1  0
 18 14  1  0
 19 18  1  0
M  END
$$$$
