A71EV2A-x5288_C_201_3_A71EV2A-x0911+A+147+1__LIG
     RDKit          3D

 24 25  0  0  0  0  0  0  0  0999 V2000
   10.3580   16.7020   19.1850 O   0  0  0  0  0  0  0  0  0  0  0  0
   10.7270   15.5430   19.3760 C   0  0  0  0  0  0  0  0  0  0  0  0
   11.0340   14.7110   18.3930 N   0  0  0  0  0  0  0  0  0  0  0  0
   10.8470   14.9800   20.7810 C   0  0  1  0  0  0  0  0  0  0  0  0
   11.8900   15.7480   21.5910 C   0  0  0  0  0  0  0  0  0  0  0  0
   11.9400   15.2570   23.0330 C   0  0  0  0  0  0  0  0  0  0  0  0
   10.5660   15.2950   23.6650 C   0  0  0  0  0  0  0  0  0  0  0  0
    9.5010   15.1420   21.4830 C   0  0  0  0  0  0  0  0  0  0  0  0
    9.5900   14.5890   22.8310 N   0  0  0  0  0  0  0  0  0  0  0  0
    8.7590   13.6100   23.2820 C   0  0  0  0  0  0  0  0  0  0  0  0
    7.7820   13.2630   22.6440 O   0  0  0  0  0  0  0  0  0  0  0  0
    9.1230   13.0170   24.4420 N   0  0  0  0  0  0  0  0  0  0  0  0
    8.2920   12.0400   25.0330 C   0  0  0  0  0  0  0  0  0  0  0  0
    8.4260   10.6870   24.7230 C   0  0  0  0  0  0  0  0  0  0  0  0
    9.3520   10.3930   23.7700 O   0  0  0  0  0  0  0  0  0  0  0  0
    9.6320    9.0170   23.5410 C   0  0  0  0  0  0  0  0  0  0  0  0
    7.6210    9.7540   25.3600 C   0  0  0  0  0  0  0  0  0  0  0  0
    6.6810   10.1740   26.2900 C   0  0  0  0  0  0  0  0  0  0  0  0
    6.5290   11.5190   26.5910 C   0  0  0  0  0  0  0  0  0  0  0  0
    7.3350   12.4610   25.9600 C   0  0  0  0  0  0  0  0  0  0  0  0
    7.1790   14.1970   26.2670 S   0  0  0  0  0  0  0  0  0  0  0  0
    6.2350   14.2340   27.8040 C   0  0  0  0  0  0  0  0  0  0  0  0
    7.2450   14.3580   28.8920 C   0  0  0  0  0  0  0  0  0  0  0  0
    6.7760   15.2720   29.9790 C   0  0  0  0  0  0  0  0  0  0  0  0
 24 23  1  0
 23 22  1  0
 22 21  1  0
 21 20  1  0
 20 19  1  0
 19 18  2  0
 18 17  1  0
 17 14  2  0
 15 14  1  0
 16 15  1  0
 14 13  1  0
 20 13  2  0
 13 12  1  0
 12 10  1  0
 11 10  2  0
 10  9  1  0
  9  7  1  0
  7  6  1  0
  6  5  1  0
  5  4  1  0
  4  2  1  6
  3  2  1  0
  2  1  2  0
  8  4  1  0
  9  8  1  0
M  END
$$$$
