A71EV2A-x5203_C_201_2_A71EV2A-x0911+A+147+1__LIG
     RDKit          3D

 22 23  0  0  0  0  0  0  0  0999 V2000
   10.3910   16.7490   19.1680 O   0  0  0  0  0  0  0  0  0  0  0  0
   10.7420   15.5900   19.4630 C   0  0  0  0  0  0  0  0  0  0  0  0
   10.9890   14.6470   18.5620 N   0  0  0  0  0  0  0  0  0  0  0  0
   10.7610   15.1190   20.9080 C   0  0  1  0  0  0  0  0  0  0  0  0
   11.8920   15.8190   21.6870 C   0  0  0  0  0  0  0  0  0  0  0  0
   12.2130   15.1760   23.0320 C   0  0  0  0  0  0  0  0  0  0  0  0
   11.2700   15.5350   24.1590 C   0  0  0  0  0  0  0  0  0  0  0  0
    9.3440   15.2620   21.4920 C   0  0  0  0  0  0  0  0  0  0  0  0
    9.1600   15.7880   22.9100 C   0  0  0  0  0  0  0  0  0  0  0  0
    9.9020   15.0650   23.9490 N   0  0  0  0  0  0  0  0  0  0  0  0
    9.4010   14.0670   24.7180 C   0  0  0  0  0  0  0  0  0  0  0  0
   10.0590   13.5340   25.6080 O   0  0  0  0  0  0  0  0  0  0  0  0
    7.9860   13.6150   24.4140 C   0  0  0  0  0  0  0  0  0  0  0  0
    7.6210   12.3480   25.1560 C   0  0  0  0  0  0  0  0  0  0  0  0
    8.0460   11.0540   24.8120 C   0  0  0  0  0  0  0  0  0  0  0  0
    9.3560   10.8570   23.6370 S   0  0  0  0  0  0  0  0  0  0  0  0
    9.4270    9.0710   23.3710 C   0  0  0  0  0  0  0  0  0  0  0  0
    6.6750   12.4910   26.1650 C   0  0  0  0  0  0  0  0  0  0  0  0
    6.1140   11.3830   26.7500 C   0  0  0  0  0  0  0  0  0  0  0  0
    4.6590   11.6250   27.9500 Br  0  0  0  0  0  0  0  0  0  0  0  0
    6.5060   10.1120   26.4110 C   0  0  0  0  0  0  0  0  0  0  0  0
    7.4740    9.9430   25.4320 C   0  0  0  0  0  0  0  0  0  0  0  0
 17 16  1  0
 16 15  1  0
 15 22  2  0
 22 21  1  0
 21 19  2  0
 20 19  1  0
 19 18  1  0
 18 14  2  0
 15 14  1  0
 14 13  1  0
 13 11  1  0
 12 11  2  0
 11 10  1  0
 10  7  1  0
  7  6  1  0
  6  5  1  0
  5  4  1  0
  4  2  1  6
  3  2  1  0
  2  1  2  0
  8  4  1  0
  9  8  1  0
 10  9  1  0
M  END
$$$$
