A71EV2A-x1775_E_201_1_A71EV2A-x0911+A+147+1__LIG
     RDKit          3D

 13 13  0  0  0  0  0  0  0  0999 V2000
   12.3120    9.0470   21.5260 O   0  0  0  0  0  0  0  0  0  0  0  0
   12.2440   10.1160   22.1090 C   0  0  0  0  0  0  0  0  0  0  0  0
   13.1670   11.2610   21.7910 C   0  0  0  0  0  0  0  0  0  0  0  0
   14.2250   10.9600   20.7460 C   0  0  0  0  0  0  0  0  0  0  0  0
   11.1720   10.3660   23.1130 C   0  0  0  0  0  0  0  0  0  0  0  0
   11.0310   11.5950   23.7540 C   0  0  0  0  0  0  0  0  0  0  0  0
    9.9440   11.8430   24.5730 C   0  0  0  0  0  0  0  0  0  0  0  0
   10.2210    9.3770   23.3480 C   0  0  0  0  0  0  0  0  0  0  0  0
    9.1410    9.6160   24.1780 C   0  0  0  0  0  0  0  0  0  0  0  0
    8.9920   10.8510   24.7760 C   0  0  0  0  0  0  0  0  0  0  0  0
    7.8390   10.9720   25.5210 O   0  0  0  0  0  0  0  0  0  0  0  0
    7.4740   12.2870   25.9910 C   0  0  0  0  0  0  0  0  0  0  0  0
    6.1310   12.1990   26.5390 C   0  0  0  0  0  0  0  0  0  0  0  0
 13 12  1  0
 12 11  1  0
 11 10  1  0
 10  7  2  0
  7  6  1  0
  6  5  2  0
  5  2  1  0
  2  1  2  0
  3  2  1  0
  4  3  1  0
  8  5  1  0
  9  8  2  0
 10  9  1  0
M  END
$$$$
