A71EV2A-x5598_A_201_5_A71EV2A-x0911+A+147+1__LIG
     RDKit          3D

 26 28  0  0  0  0  0  0  0  0999 V2000
   10.2810   16.6330   19.2560 O   0  0  0  0  0  0  0  0  0  0  0  0
   10.6410   15.4720   19.4630 C   0  0  0  0  0  0  0  0  0  0  0  0
   11.0330   14.6540   18.4850 N   0  0  0  0  0  0  0  0  0  0  0  0
   10.6120   14.8810   20.8640 C   0  0  1  0  0  0  0  0  0  0  0  0
   11.7420   15.4430   21.7440 C   0  0  0  0  0  0  0  0  0  0  0  0
   11.6530   14.8790   23.1700 C   0  0  0  0  0  0  0  0  0  0  0  0
   10.2850   15.1520   23.7690 C   0  0  0  0  0  0  0  0  0  0  0  0
    9.2650   15.2380   21.5080 C   0  0  0  0  0  0  0  0  0  0  0  0
    9.1930   14.7120   22.8760 N   0  0  0  0  0  0  0  0  0  0  0  0
    8.3090   13.7050   23.1700 C   0  0  0  0  0  0  0  0  0  0  0  0
    7.5440   13.2600   22.3270 O   0  0  0  0  0  0  0  0  0  0  0  0
    8.2810   13.2870   24.4640 N   0  0  0  0  0  0  0  0  0  0  0  0
    7.5130   12.1940   24.9160 C   0  0  0  0  0  0  0  0  0  0  0  0
    7.9020   10.8960   24.5420 C   0  0  0  0  0  0  0  0  0  0  0  0
    9.3320   10.6910   23.5190 S   0  0  0  0  0  0  0  0  0  0  0  0
    9.3680    8.9180   23.2050 C   0  0  0  0  0  0  0  0  0  0  0  0
    6.4060   12.3610   25.7510 C   0  0  0  0  0  0  0  0  0  0  0  0
    5.6790   11.2660   26.2310 C   0  0  0  0  0  0  0  0  0  0  0  0
    6.0870    9.9890   25.8490 C   0  0  0  0  0  0  0  0  0  0  0  0
    7.1830    9.8040   25.0230 C   0  0  0  0  0  0  0  0  0  0  0  0
    4.5180   11.4390   27.0310 N   0  0  0  0  0  0  0  0  0  0  0  0
    3.9900   10.2780   27.7700 C   0  0  0  0  0  0  0  0  0  0  0  0
    2.5610   10.5080   28.2250 C   0  0  0  0  0  0  0  0  0  0  0  0
    2.4190   11.7440   28.9210 O   0  0  0  0  0  0  0  0  0  0  0  0
    2.7800   12.8270   28.0570 C   0  0  0  0  0  0  0  0  0  0  0  0
    4.2410   12.7420   27.6520 C   0  0  0  0  0  0  0  0  0  0  0  0
 16 15  1  0
 15 14  1  0
 14 20  2  0
 20 19  1  0
 19 18  2  0
 21 18  1  0
 21 26  1  0
 26 25  1  0
 25 24  1  0
 24 23  1  0
 23 22  1  0
 22 21  1  0
 18 17  1  0
 17 13  2  0
 14 13  1  0
 13 12  1  0
 12 10  1  0
 11 10  2  0
 10  9  1  0
  9  7  1  0
  7  6  1  0
  6  5  1  0
  5  4  1  0
  4  2  1  6
  3  2  1  0
  2  1  2  0
  8  4  1  0
  9  8  1  0
M  END
$$$$
