XX01ZVNS2B-x4905_B_203_6_XX01ZVNS2B-x4590+B+203+1__LIG
     RDKit          3D

 29 33  0  0  0  0  0  0  0  0999 V2000
  -10.5700    4.0530  -18.2850 Cl  0  0  0  0  0  0  0  0  0  0  0  0
   -9.0420    4.4230  -17.5370 C   0  0  0  0  0  0  0  0  0  0  0  0
   -7.9440    4.6530  -18.3450 C   0  0  0  0  0  0  0  0  0  0  0  0
   -6.7710    5.0510  -17.7230 C   0  0  0  0  0  0  0  0  0  0  0  0
   -6.6690    5.2290  -16.3340 C   0  0  0  0  0  0  0  0  0  0  0  0
   -5.3120    5.5860  -16.1180 C   0  0  0  0  0  0  0  0  0  0  0  0
   -4.6390    5.6270  -17.2500 N   0  0  0  0  0  0  0  0  0  0  0  0
   -5.5330    5.3090  -18.2370 N   0  0  0  0  0  0  0  0  0  0  0  0
   -5.1130    5.3100  -19.6420 C   0  0  0  0  0  0  0  0  0  0  0  0
   -5.0070    6.6830  -20.3330 C   0  0  0  0  0  0  0  0  0  0  0  0
   -3.6070    5.1330  -19.9310 C   0  0  0  0  0  0  0  0  0  0  0  0
   -3.7370    6.2120  -20.9350 N   0  0  0  0  0  0  0  0  0  0  0  0
   -8.9840    4.5540  -16.1580 C   0  0  0  0  0  0  0  0  0  0  0  0
   -7.8030    4.9850  -15.5500 C   0  0  0  0  0  0  0  0  0  0  0  0
   -7.7810    5.2470  -14.0770 C   0  0  0  0  0  0  0  0  0  0  0  0
   -7.1000    6.1580  -13.6100 O   0  0  0  0  0  0  0  0  0  0  0  0
   -8.5050    4.3890  -13.3240 N   0  0  0  0  0  0  0  0  0  0  0  0
   -8.5790    4.3660  -11.9130 C   0  0  0  0  0  0  0  0  0  0  0  0
   -8.7030    3.1480  -11.2550 C   0  0  0  0  0  0  0  0  0  0  0  0
   -8.7390    3.1010   -9.8740 C   0  0  0  0  0  0  0  0  0  0  0  0
   -8.6670    4.2770   -9.1410 C   0  0  0  0  0  0  0  0  0  0  0  0
   -8.5170    5.4920   -9.7840 C   0  0  0  0  0  0  0  0  0  0  0  0
   -8.4820    5.5360  -11.1660 C   0  0  0  0  0  0  0  0  0  0  0  0
   -8.8710    4.3310   -7.7800 O   0  0  0  0  0  0  0  0  0  0  0  0
   -8.1460    3.3970   -7.0120 C   0  0  2  0  0  0  0  0  0  0  0  0
   -8.8830    2.1350   -6.3100 C   0  0  0  0  0  0  0  0  0  0  0  0
   -9.6540    2.1260   -7.4420 F   0  0  0  0  0  0  0  0  0  0  0  0
  -10.0450    1.4890   -5.9700 F   0  0  0  0  0  0  0  0  0  0  0  0
   -8.5390    3.3830   -5.6040 C   0  0  0  0  0  0  0  0  0  0  0  0
 12 10  1  0
 10  9  1  0
  9  8  1  0
  8  7  1  0
  7  6  2  0
  6  5  1  0
  5 14  2  0
 15 14  1  0
 16 15  2  0
 17 15  1  0
 18 17  1  0
 18 23  2  0
 23 22  1  0
 22 21  2  0
 24 21  1  0
 25 24  1  6
 25 29  1  0
 29 26  1  0
 26 25  1  0
 27 26  1  0
 28 26  1  0
 21 20  1  0
 20 19  2  0
 19 18  1  0
 14 13  1  0
 13  2  2  0
  2  1  1  0
  3  2  1  0
  4  3  2  0
  5  4  1  0
  8  4  1  0
 11  9  1  0
 12 11  1  0
M  END
$$$$
