ver_1.2
     RDKit          3D

 25 28  0  0  0  0  0  0  0  0999 V2000
   -1.2393   -1.0465   -1.6882 O   0  0  0  0  0  0  0  0  0  0  0  0
   -0.6305   -0.4761   -0.7260 C   0  0  0  0  0  0  0  0  0  0  0  0
   -1.4195    0.2589    0.1905 N   0  0  0  0  0  0  0  0  0  0  0  0
   -2.8328    0.3675    0.0594 C   0  0  0  0  0  0  0  0  0  0  0  0
   -3.4500    1.3734   -0.6563 C   0  0  0  0  0  0  0  0  0  0  0  0
   -4.8286    1.4353   -0.7539 C   0  0  0  0  0  0  0  0  0  0  0  0
   -5.6408    0.4989   -0.1430 C   0  0  0  0  0  0  0  0  0  0  0  0
   -5.0241   -0.5199    0.5815 C   0  0  0  0  0  0  0  0  0  0  0  0
   -3.6399   -0.5747    0.6744 C   0  0  0  0  0  0  0  0  0  0  0  0
   -6.0791   -1.3805    1.1307 C   0  0  0  0  0  0  0  0  0  0  0  0
   -7.2628   -1.0467    0.3875 N   0  0  0  0  0  0  0  0  0  0  0  0
   -7.1032    0.3157   -0.0756 C   0  0  0  0  0  0  0  0  0  0  0  0
    0.8389   -0.6157   -0.6289 C   0  0  0  0  0  0  0  0  0  0  0  0
    1.1154   -1.2845    0.7131 C   0  0  0  0  0  0  0  0  0  0  0  0
    1.2039   -0.2584    1.8406 C   0  0  0  0  0  0  0  0  0  0  0  0
    2.3984    0.6821    1.6333 C   0  0  0  0  0  0  0  0  0  0  0  0
    2.6571    0.6396    0.2056 N   0  0  0  0  0  0  0  0  0  0  0  0
    4.0143    0.5452   -0.2112 C   0  0  0  0  0  0  0  0  0  0  0  0
    5.0033    0.4993    0.7501 C   0  0  0  0  0  0  0  0  0  0  0  0
    6.3525    0.4064    0.3890 C   0  0  0  0  0  0  0  0  0  0  0  0
    7.1877    0.3698    1.3177 O   0  0  0  0  0  0  0  0  0  0  0  0
    6.6956    0.3609   -0.9100 N   0  0  0  0  0  0  0  0  0  0  0  0
    5.7078    0.4077   -1.8160 C   0  0  0  0  0  0  0  0  0  0  0  0
    4.3944    0.4976   -1.4960 N   0  0  0  0  0  0  0  0  0  0  0  0
    1.5814    0.6907   -0.7683 C   0  0  0  0  0  0  0  0  0  0  0  0
  1  2  2  0
  2  3  1  0
  3  4  1  0
  4  5  2  0
  5  6  1  0
  6  7  2  0
  7  8  1  0
  8  9  2  0
  8 10  1  0
 10 11  1  0
 11 12  1  0
  2 13  1  0
 13 14  1  0
 14 15  1  0
 15 16  1  0
 16 17  1  0
 17 18  1  0
 18 19  2  0
 19 20  1  0
 20 21  2  0
 20 22  1  0
 22 23  1  0
 23 24  2  0
 17 25  1  0
  9  4  1  0
 25 13  1  0
 12  7  1  0
 24 18  1  0
M  END
>  <ref_url>  (1) 
https://hippo.winokan.com

>  <submitter_name>  (1) 
Max Winokan

>  <submitter_email>  (1) 
max.winokan@diamond.ac.uk

>  <submitter_institution>  (1) 
DLS

>  <generation_date>  (1) 
2025-12-09

>  <method>  (1) 
openbind_xx01zvns2b_c1_elab_chemspace_filtered_scored_top20percent_products

>  <Energy>  (1) 
Energy

>  <scratch_subdir>  (1) 
scratch_subdir

>  <fragmenstein_runtime>  (1) 
fragmenstein_runtime

>  <fragmenstein_outcome>  (1) 
fragmenstein_outcome

>  <fragmenstein_mode>  (1) 
fragmenstein_mode

>  <fragmenstein_error>  (1) 
fragmenstein_error

>  <exports>  (1) 
exports

>  <GNINA pK>  (1) 
GNINA pK

>  <gnina_score>  (1) 
gnina_score

>  <gnina_score_min>  (1) 
gnina_score_min

>  <smina_score_min>  (1) 
smina_score_min

>  <rmsd(smina/fragmenstein)>  (1) 
rmsd(smina/fragmenstein)

>  <HIPPO Pose ID>  (1) 
HIPPO Pose ID

>  <HIPPO Compound ID>  (1) 
HIPPO Compound ID

>  <smiles>  (1) 
smiles

>  <ref_pdb>  (1) 
protein reference

>  <ref_mols>  (1) 
fragment inspirations

>  <alias>  (1) 
alias

>  <distance_score>  (1) 
distance_score

>  <energy_score>  (1) 
energy_score

>  <inspiration_score>  (1) 
inspiration_score

>  <subsites>  (1) 
subsites

>  <tags>  (1) 
tags

$$$$
P31894
     RDKit          3D

 25 28  0  0  0  0  0  0  0  0999 V2000
   -7.4839    6.5936  -13.1828 O   0  0  0  0  0  0  0  0  0  0  0  0
   -7.7262    5.4711  -13.4126 C   0  0  0  0  0  0  0  0  0  0  0  0
   -8.1492    4.3121  -12.4569 N   0  0  0  0  0  0  0  0  0  0  0  0
   -8.2617    4.2803  -11.0670 C   0  0  0  0  0  0  0  0  0  0  0  0
   -8.0824    5.4338  -10.2888 C   0  0  0  0  0  0  0  0  0  0  0  0
   -8.1670    5.3776   -8.8914 C   0  0  0  0  0  0  0  0  0  0  0  0
   -8.4353    4.1580   -8.2959 C   0  0  0  0  0  0  0  0  0  0  0  0
   -8.5986    3.0106   -9.0639 C   0  0  0  0  0  0  0  0  0  0  0  0
   -8.5205    3.0557  -10.4477 C   0  0  0  0  0  0  0  0  0  0  0  0
   -8.8133    1.8414   -8.1611 C   0  0  0  0  0  0  0  0  0  0  0  0
   -9.0956    2.4289   -6.8329 N   0  0  0  0  0  0  0  0  0  0  0  0
   -8.6037    3.8156   -6.8531 C   0  0  0  0  0  0  0  0  0  0  0  0
   -7.5788    4.8613  -14.8107 C   0  0  1  0  0  0  0  0  0  0  0  0
   -8.8909    4.8785  -15.5778 C   0  0  0  0  0  0  0  0  0  0  0  0
   -8.7068    4.3848  -17.0119 C   0  0  0  0  0  0  0  0  0  0  0  0
   -7.5060    4.9860  -17.7572 C   0  0  0  0  0  0  0  0  0  0  0  0
   -6.3103    5.0560  -16.9005 N   0  0  0  0  0  0  0  0  0  0  0  0
   -4.9849    5.0153  -17.3627 C   0  0  0  0  0  0  0  0  0  0  0  0
   -4.6646    4.9562  -18.6724 C   0  0  0  0  0  0  0  0  0  0  0  0
   -3.2431    4.9701  -19.0671 C   0  0  0  0  0  0  0  0  0  0  0  0
   -2.8613    4.8381  -20.2278 O   0  0  0  0  0  0  0  0  0  0  0  0
   -2.3543    5.1203  -18.0478 N   0  0  0  0  0  0  0  0  0  0  0  0
   -2.7639    5.1072  -16.7592 C   0  0  0  0  0  0  0  0  0  0  0  0
   -3.9913    5.0473  -16.3992 N   0  0  0  0  0  0  0  0  0  0  0  0
   -6.5616    5.6811  -15.5867 C   0  0  0  0  0  0  0  0  0  0  0  0
  1  2  2  0
  2  3  1  0
  3  4  1  0
  4  5  2  0
  5  6  1  0
  6  7  2  0
  7  8  1  0
  8  9  2  0
  8 10  1  0
 10 11  1  0
 11 12  1  0
 13  2  1  1
 13 14  1  0
 14 15  1  0
 15 16  1  0
 16 17  1  0
 17 18  1  0
 18 19  2  0
 19 20  1  0
 20 21  2  0
 20 22  1  0
 22 23  1  0
 23 24  2  0
 17 25  1  0
  9  4  1  0
 25 13  1  0
 12  7  1  0
 24 18  1  0
M  END
>  <fragmenstein_outcome>  (1) 
acceptable

>  <exports>  (1) 
['/opt/xchem-fragalysis-2/maxwin/BulkDock/OUTPUTS/openbind_xx01zvns2b_c1_knitwork_pure_165QOFL.sdf', '/opt/xchem-fragalysis-2/maxwin/openbind-hippo/xx01zvns2b/cycle_01/bulkdock/openbind_xx01zvns2b_c1_scaffolds.sdf', '/opt/xchem-fragalysis-2/maxwin/openbind-hippo/xx01zvns2b/cycle_01/syndirella/elabs/openbind_xx01zvns2b_c1_elab_chemspace_filtered.sdf', '/opt/xchem-fragalysis-2/maxwin/BulkDock/OUTPUTS/openbind_xx01zvns2b_c1_knitwork_pure_1LP83EW.sdf', '/opt/xchem-fragalysis-2/maxwin/openbind-hippo/xx01zvns2b/cycle_01/gnina/openbind_xx01zvns2b_c1_elab_chemspace_filtered_scored_top20percent_products.sdf']

>  <Energy>  (1) 
-69.033474

>  <alias>  (1) 
None

>  <fragmenstein_runtime>  (1) 
6.570229

>  <scratch_subdir>  (1) 
/opt/xchem-fragalysis-2/maxwin/BulkDock/SCRATCH/511030/C5576-P11

>  <HIPPO Compound ID>  (1) 
5576

>  <rmsd(smina/fragmenstein)>  (1) 
0.995

>  <distance_score>  (1) 
0.991665

>  <orig_smiles>  (1) 
nan

>  <fragmenstein_mode>  (1) 
expansion

>  <inchikey>  (1) 
BWQHUTSQNYTJCI-UHFFFAOYSA-N

>  <ref_pdb>  (1) 
Z0182a

>  <GNINA pK>  (1) 
5.048

>  <gnina_score_min>  (1) 
5.394

>  <tags>  (1) 
openbind_xx01zvns2b_c1_elab_nonasap_filtered_scored_top80percent,BulkDock Fragalysis export,openbind_xx01zvns2b_c1_scaffolds,openbind_xx01zvns2b_c1_elab_chemspace_filtered_scored_top80percent,fragmenstein_placed,openbind_xx01zvns2b_c1_elab_chemspace_filtered_scored,openbind_xx01zvns2b_c1_scaffolds_chemok_bbok,openbind_xx01zvns2b_c1_elab_chemspace_filtered_scored_top40percent,openbind_xx01zvns2b_c1_elab_chemspace_filtered_scored_top20percent,openbind_xx01zvns2b_c1_elab_chemspace_filtered_scored_top60percent,openbind_xx01zvns2b_c1_knitwork_pure

>  <smiles>  (1) 
O=C(Nc1ccc2c(c1)CNC2)[C@H]1CCCN(c2cc(=O)[nH]cn2)C1

>  <subsites>  (1) 
1 - Z4590/B/203/1

>  <gnina_score>  (1) 
5.048

>  <HIPPO Pose ID>  (1) 
31894

>  <ref_mols>  (1) 
Z3527a,Z4008a,Z0182a,Z4245a,Z3729a

>  <energy_score>  (1) 
-24.518123

>  <inspiration_score>  (1) 
None

>  <smina_score_min>  (1) 
-8.045

>  <fragmenstein_error>  (1) 


>  <name>  (1) 
P31894

$$$$
P41471
     RDKit          3D

 23 25  0  0  0  0  0  0  0  0999 V2000
   -6.3377    9.0330   -8.5035 C   0  0  0  0  0  0  0  0  0  0  0  0
   -6.1649    8.1344   -9.7062 C   0  0  0  0  0  0  0  0  0  0  0  0
   -5.7083    8.4688  -10.7114 O   0  0  0  0  0  0  0  0  0  0  0  0
   -6.7437    6.7518   -9.2037 N   0  0  0  0  0  0  0  0  0  0  0  0
   -6.7965    5.5556   -9.6748 C   0  0  0  0  0  0  0  0  0  0  0  0
   -6.9954    5.2003  -10.3927 C   0  0  0  0  0  0  0  0  0  0  0  0
   -5.8460    4.2538  -11.1892 C   0  0  0  0  0  0  0  0  0  0  0  0
   -7.0102    3.0097  -12.0376 C   0  0  0  0  0  0  0  0  0  0  0  0
   -7.3963    3.4990  -13.2329 N   0  0  0  0  0  0  0  0  0  0  0  0
   -6.3824    4.3565  -14.1679 C   0  0  0  0  0  0  0  0  0  0  0  0
   -5.3232    4.7695  -13.9977 O   0  0  0  0  0  0  0  0  0  0  0  0
   -7.0341    4.5262  -15.5128 C   0  0  0  0  0  0  0  0  0  0  0  0
   -8.4213    4.4073  -15.7065 C   0  0  0  0  0  0  0  0  0  0  0  0
   -8.9963    4.4710  -16.9969 C   0  0  0  0  0  0  0  0  0  0  0  0
   -8.2021    4.6615  -18.1287 C   0  0  0  0  0  0  0  0  0  0  0  0
   -6.8521    4.8099  -17.9201 C   0  0  0  0  0  0  0  0  0  0  0  0
   -5.8356    4.9987  -18.8537 N   0  0  0  0  0  0  0  0  0  0  0  0
   -4.6094    5.0514  -18.1762 C   0  0  0  0  0  0  0  0  0  0  0  0
   -3.5008    5.1813  -18.6695 O   0  0  0  0  0  0  0  0  0  0  0  0
   -4.9007    4.9221  -16.8103 N   0  0  0  0  0  0  0  0  0  0  0  0
   -6.2782    4.7563  -16.6485 C   0  0  0  0  0  0  0  0  0  0  0  0
   -7.4496    2.8861  -11.3981 C   0  0  0  0  0  0  0  0  0  0  0  0
   -8.2337    4.0889  -10.4360 C   0  0  0  0  0  0  0  0  0  0  0  0
  1  2  1  0
  2  3  2  0
  2  4  1  0
  4  5  1  0
  4  6  1  0
  6  7  1  0
  7  8  1  0
  8  9  1  0
  9 10  1  0
 10 11  2  0
 10 12  1  0
 12 13  2  0
 13 14  1  0
 14 15  2  0
 15 16  1  0
 16 17  1  0
 17 18  1  0
 18 19  2  0
 18 20  1  0
 20 21  1  0
  9 22  1  0
 22 23  1  0
 23  6  1  0
 21 12  1  0
 21 16  2  0
M  END
>  <fragmenstein_outcome>  (2) 
too moved

>  <exports>  (2) 
['/opt/xchem-fragalysis-2/maxwin/openbind-hippo/xx01zvns2b/cycle_01/syndirella/elabs/openbind_xx01zvns2b_c1_elab_chemspace_filtered.sdf', '/opt/xchem-fragalysis-2/maxwin/openbind-hippo/xx01zvns2b/cycle_01/gnina/openbind_xx01zvns2b_c1_elab_chemspace_filtered_scored_top20percent_products.sdf']

>  <Energy>  (2) 
1483.769674

>  <alias>  (2) 
None

>  <fragmenstein_runtime>  (2) 
8.401201

>  <scratch_subdir>  (2) 
/opt/xchem-fragalysis-2/maxwin/BulkDock/SCRATCH/511031/C114014-P35

>  <HIPPO Compound ID>  (2) 
114014

>  <rmsd(smina/fragmenstein)>  (2) 
0.92

>  <distance_score>  (2) 
2.901882

>  <orig_smiles>  (2) 
nan

>  <fragmenstein_mode>  (2) 
expansion

>  <inchikey>  (2) 
XHEWICKIPJXIJC-UHFFFAOYSA-N

>  <ref_pdb>  (2) 
Z0719a

>  <GNINA pK>  (2) 
nan

>  <gnina_score_min>  (2) 
5.397

>  <tags>  (2) 
openbind_xx01zvns2b_c1_elab_nonasap_filtered_scored_top80percent,openbind_xx01zvns2b_c1_elab_chemspace_filtered_scored_top80percent,fragmenstein_placed,openbind_xx01zvns2b_c1_elab_chemspace_filtered_scored,openbind_xx01zvns2b_c1_elab_chemspace_filtered_scored_top40percent,openbind_xx01zvns2b_c1_elab_chemspace_filtered_scored_top20percent,openbind_xx01zvns2b_c1_elab_chemspace_filtered_scored_top60percent,openbind_xx01zvns2b_c1_knitwork_pure

>  <smiles>  (2) 
CC(=O)N(C)C1CCN(C(=O)c2cccc3[nH]c(=O)[nH]c23)CC1

>  <subsites>  (2) 
1 - Z4590/B/203/1

>  <gnina_score>  (2) 
5.273

>  <HIPPO Pose ID>  (2) 
41471

>  <ref_mols>  (2) 
Z0719a,Z3503a

>  <energy_score>  (2) 
1486.515442

>  <inspiration_score>  (2) 
None

>  <smina_score_min>  (2) 
-7.146

>  <fragmenstein_error>  (2) 


>  <name>  (2) 
P41471

$$$$
P44733
     RDKit          3D

 22 24  0  0  0  0  0  0  0  0999 V2000
   -1.9120    5.8799  -16.1425 C   0  0  0  0  0  0  0  0  0  0  0  0
   -1.8774    5.8053  -17.6592 C   0  0  0  0  0  0  0  0  0  0  0  0
   -3.0818    4.5702  -18.2681 S   0  0  0  0  0  0  0  0  0  0  0  0
   -3.1111    4.9361  -20.0204 C   0  0  0  0  0  0  0  0  0  0  0  0
   -1.8846    5.1333  -20.6706 C   0  0  0  0  0  0  0  0  0  0  0  0
   -1.8353    5.4379  -22.0262 C   0  0  0  0  0  0  0  0  0  0  0  0
   -3.0238    5.5378  -22.7149 C   0  0  0  0  0  0  0  0  0  0  0  0
   -4.2260    5.3190  -22.1529 N   0  0  0  0  0  0  0  0  0  0  0  0
   -4.2620    4.9828  -20.8275 C   0  0  0  0  0  0  0  0  0  0  0  0
   -5.6509    4.5676  -20.3761 C   0  0  0  0  0  0  0  0  0  0  0  0
   -6.3012    3.9370  -21.1204 O   0  0  0  0  0  0  0  0  0  0  0  0
   -5.9791    5.0986  -18.9529 N   0  0  0  0  0  0  0  0  0  0  0  0
   -7.1012    4.8901  -18.1403 C   0  0  0  0  0  0  0  0  0  0  0  0
   -8.2518    4.3323  -18.6927 C   0  0  0  0  0  0  0  0  0  0  0  0
   -9.3436    4.0568  -17.8871 C   0  0  0  0  0  0  0  0  0  0  0  0
   -9.2708    4.3159  -16.5239 C   0  0  0  0  0  0  0  0  0  0  0  0
   -8.1746    4.9126  -15.9376 C   0  0  0  0  0  0  0  0  0  0  0  0
   -8.2342    5.1817  -14.6172 N   0  0  0  0  0  0  0  0  0  0  0  0
   -7.1668    5.7503  -14.0399 C   0  0  0  0  0  0  0  0  0  0  0  0
   -6.0291    6.1011  -14.7308 C   0  0  0  0  0  0  0  0  0  0  0  0
   -5.9829    5.8418  -16.0941 C   0  0  0  0  0  0  0  0  0  0  0  0
   -7.0650    5.2220  -16.7522 C   0  0  0  0  0  0  0  0  0  0  0  0
  1  2  1  0
  2  3  1  0
  3  4  1  0
  4  5  2  0
  5  6  1  0
  6  7  2  0
  7  8  1  0
  8  9  2  0
  9 10  1  0
 10 11  2  0
 10 12  1  0
 12 13  1  0
 13 14  2  0
 14 15  1  0
 15 16  2  0
 16 17  1  0
 17 18  2  0
 18 19  1  0
 19 20  2  0
 20 21  1  0
 21 22  2  0
  9  4  1  0
 22 13  1  0
 22 17  1  0
M  END
>  <fragmenstein_outcome>  (3) 
acceptable

>  <exports>  (3) 
['/opt/xchem-fragalysis-2/maxwin/BulkDock/OUTPUTS/openbind_xx01zvns2b_c1_knitwork_pure_165QOFL.sdf', '/opt/xchem-fragalysis-2/maxwin/openbind-hippo/xx01zvns2b/cycle_01/bulkdock/openbind_xx01zvns2b_c1_scaffolds.sdf', '/opt/xchem-fragalysis-2/maxwin/openbind-hippo/xx01zvns2b/cycle_01/syndirella/elabs/openbind_xx01zvns2b_c1_elab_chemspace_filtered.sdf', '/opt/xchem-fragalysis-2/maxwin/BulkDock/OUTPUTS/openbind_xx01zvns2b_c1_knitwork_pure_1LP83EW.sdf', '/opt/xchem-fragalysis-2/maxwin/openbind-hippo/xx01zvns2b/cycle_01/gnina/openbind_xx01zvns2b_c1_elab_chemspace_filtered_scored_top20percent_products.sdf']

>  <Energy>  (3) 
126.03647

>  <alias>  (3) 
None

>  <fragmenstein_runtime>  (3) 
3.65622

>  <scratch_subdir>  (3) 
/opt/xchem-fragalysis-2/maxwin/BulkDock/SCRATCH/511031/C55811-P51

>  <HIPPO Compound ID>  (3) 
55811

>  <rmsd(smina/fragmenstein)>  (3) 
1.196

>  <distance_score>  (3) 
0.955107

>  <orig_smiles>  (3) 
nan

>  <fragmenstein_mode>  (3) 
expansion

>  <inchikey>  (3) 
CYPOFIRFZWWIJF-UHFFFAOYSA-N

>  <ref_pdb>  (3) 
Z0852a

>  <GNINA pK>  (3) 
5.27

>  <gnina_score_min>  (3) 
5.211

>  <tags>  (3) 
openbind_xx01zvns2b_c1_elab_nonasap_filtered_scored_top80percent,BulkDock Fragalysis export,openbind_xx01zvns2b_c1_scaffolds,openbind_xx01zvns2b_c1_elab_chemspace_filtered_scored_top80percent,fragmenstein_placed,openbind_xx01zvns2b_c1_elab_chemspace_filtered_scored,openbind_xx01zvns2b_c1_scaffolds_chemok_bbok,openbind_xx01zvns2b_c1_elab_chemspace_filtered_scored_top40percent,openbind_xx01zvns2b_c1_elab_chemspace_filtered_scored_top20percent,openbind_xx01zvns2b_c1_elab_chemspace_filtered_scored_top60percent,openbind_xx01zvns2b_c1_knitwork_pure

>  <smiles>  (3) 
CCSc1cccnc1C(=O)Nc1cccc2ncccc12

>  <subsites>  (3) 
1 - Z4590/B/203/1

>  <gnina_score>  (3) 
5.27

>  <HIPPO Pose ID>  (3) 
44733

>  <ref_mols>  (3) 
Z1688a,Z0852a

>  <energy_score>  (3) 
-25.773416

>  <inspiration_score>  (3) 
None

>  <smina_score_min>  (3) 
-6.037

>  <fragmenstein_error>  (3) 


>  <name>  (3) 
P44733

$$$$
P47327
     RDKit          3D

 23 25  0  0  0  0  0  0  0  0999 V2000
   -6.1253    3.1905  -10.4930 C   0  0  0  0  0  0  0  0  0  0  0  0
   -7.2839    4.0791  -10.0768 C   0  0  0  0  0  0  0  0  0  0  0  0
   -7.6723    5.0099  -11.1198 N   0  0  0  0  0  0  0  0  0  0  0  0
   -8.5676    4.7055  -12.1064 C   0  0  0  0  0  0  0  0  0  0  0  0
   -8.7761    5.7244  -12.9102 N   0  0  0  0  0  0  0  0  0  0  0  0
   -7.9535    6.7135  -12.4503 C   0  0  0  0  0  0  0  0  0  0  0  0
   -7.2366    6.2935  -11.3466 C   0  0  0  0  0  0  0  0  0  0  0  0
   -6.1641    6.9912  -10.6026 C   0  0  0  0  0  0  0  0  0  0  0  0
   -4.9354    6.5666  -11.2004 O   0  0  0  0  0  0  0  0  0  0  0  0
   -4.5423    7.2785  -12.2932 C   0  0  0  0  0  0  0  0  0  0  0  0
   -4.9965    8.3593  -12.6432 O   0  0  0  0  0  0  0  0  0  0  0  0
   -3.4306    6.5588  -13.0089 C   0  0  0  0  0  0  0  0  0  0  0  0
   -3.8619    5.1793  -13.5018 C   0  0  0  0  0  0  0  0  0  0  0  0
   -4.7123    5.1897  -14.7424 C   0  0  0  0  0  0  0  0  0  0  0  0
   -4.1909    5.5434  -15.9767 C   0  0  0  0  0  0  0  0  0  0  0  0
   -4.8793    5.5118  -17.1395 N   0  0  0  0  0  0  0  0  0  0  0  0
   -6.1657    5.1099  -17.1061 C   0  0  0  0  0  0  0  0  0  0  0  0
   -6.8975    5.0228  -18.2839 C   0  0  0  0  0  0  0  0  0  0  0  0
   -8.2365    4.6169  -18.2964 C   0  0  0  0  0  0  0  0  0  0  0  0
   -8.8739    4.3006  -17.1055 C   0  0  0  0  0  0  0  0  0  0  0  0
   -8.1594    4.3658  -15.9129 C   0  0  0  0  0  0  0  0  0  0  0  0
   -6.8069    4.7575  -15.9048 C   0  0  0  0  0  0  0  0  0  0  0  0
   -6.0460    4.7875  -14.7252 C   0  0  0  0  0  0  0  0  0  0  0  0
  1  2  1  0
  2  3  1  0
  3  4  1  0
  4  5  2  0
  5  6  1  0
  6  7  2  0
  7  8  1  0
  8  9  1  0
  9 10  1  0
 10 11  2  0
 10 12  1  0
 12 13  1  0
 13 14  1  0
 14 15  2  0
 15 16  1  0
 16 17  2  0
 17 18  1  0
 18 19  2  0
 19 20  1  0
 20 21  2  0
 21 22  1  0
 22 23  2  0
  7  3  1  0
 23 14  1  0
 22 17  1  0
M  END
>  <fragmenstein_outcome>  (4) 
acceptable

>  <exports>  (4) 
['/opt/xchem-fragalysis-2/maxwin/BulkDock/OUTPUTS/openbind_xx01zvns2b_c1_knitwork_pure_165QOFL.sdf', '/opt/xchem-fragalysis-2/maxwin/openbind-hippo/xx01zvns2b/cycle_01/bulkdock/openbind_xx01zvns2b_c1_scaffolds.sdf', '/opt/xchem-fragalysis-2/maxwin/openbind-hippo/xx01zvns2b/cycle_01/syndirella/elabs/openbind_xx01zvns2b_c1_elab_chemspace_filtered.sdf', '/opt/xchem-fragalysis-2/maxwin/BulkDock/OUTPUTS/openbind_xx01zvns2b_c1_knitwork_pure_1LP83EW.sdf', '/opt/xchem-fragalysis-2/maxwin/openbind-hippo/xx01zvns2b/cycle_01/gnina/openbind_xx01zvns2b_c1_elab_chemspace_filtered_scored_top20percent_products.sdf']

>  <Energy>  (4) 
18.499077

>  <alias>  (4) 
None

>  <fragmenstein_runtime>  (4) 
1.448076

>  <scratch_subdir>  (4) 
/opt/xchem-fragalysis-2/maxwin/BulkDock/SCRATCH/511031/C117748-P91

>  <HIPPO Compound ID>  (4) 
117748

>  <rmsd(smina/fragmenstein)>  (4) 
1.406

>  <distance_score>  (4) 
0.857621

>  <orig_smiles>  (4) 
nan

>  <fragmenstein_mode>  (4) 
expansion

>  <inchikey>  (4) 
HQJVWWZLOLLFOC-UHFFFAOYSA-N

>  <ref_pdb>  (4) 
Z1688a

>  <GNINA pK>  (4) 
5.025

>  <gnina_score_min>  (4) 
5.238

>  <tags>  (4) 
openbind_xx01zvns2b_c1_elab_nonasap_filtered_scored_top80percent,BulkDock Fragalysis export,openbind_xx01zvns2b_c1_scaffolds,openbind_xx01zvns2b_c1_elab_chemspace_filtered_scored_top80percent,fragmenstein_placed,openbind_xx01zvns2b_c1_elab_chemspace_filtered_scored,openbind_xx01zvns2b_c1_scaffolds_chemok_bbok,openbind_xx01zvns2b_c1_elab_chemspace_filtered_scored_top40percent,openbind_xx01zvns2b_c1_elab_chemspace_filtered_scored_top20percent,openbind_xx01zvns2b_c1_elab_chemspace_filtered_scored_top60percent,openbind_xx01zvns2b_c1_knitwork_pure

>  <smiles>  (4) 
CCn1cncc1COC(=O)CCc1cnc2ccccc2c1

>  <subsites>  (4) 
1 - Z4590/B/203/1

>  <gnina_score>  (4) 
5.025

>  <HIPPO Pose ID>  (4) 
47327

>  <ref_mols>  (4) 
Z1688a,Z1716a

>  <energy_score>  (4) 
-29.650099

>  <inspiration_score>  (4) 
None

>  <smina_score_min>  (4) 
-5.34

>  <fragmenstein_error>  (4) 


>  <name>  (4) 
P47327

$$$$
P68463
     RDKit          3D

 37 41  0  0  0  0  0  0  0  0999 V2000
   -3.9915   10.8881  -14.9427 C   0  0  0  0  0  0  0  0  0  0  0  0
   -3.0571    9.7789  -15.4392 C   0  0  0  0  0  0  0  0  0  0  0  0
   -1.7124    9.9066  -14.7071 C   0  0  0  0  0  0  0  0  0  0  0  0
   -2.8036    9.8751  -16.9479 C   0  0  0  0  0  0  0  0  0  0  0  0
   -3.5529    8.4659  -15.0705 O   0  0  0  0  0  0  0  0  0  0  0  0
   -4.7467    8.0171  -15.5405 C   0  0  0  0  0  0  0  0  0  0  0  0
   -5.4421    8.6002  -16.2602 O   0  0  0  0  0  0  0  0  0  0  0  0
   -4.9036    6.6407  -14.9182 N   0  0  0  0  0  0  0  0  0  0  0  0
   -5.9102    5.6332  -15.1184 C   0  0  2  0  0  0  0  0  0  0  0  0
   -6.0567    5.1830  -16.5410 C   0  0  0  0  0  0  0  0  0  0  0  0
   -5.0941    5.1475  -17.5332 C   0  0  0  0  0  0  0  0  0  0  0  0
   -5.4913    4.7479  -18.8000 C   0  0  0  0  0  0  0  0  0  0  0  0
   -6.8182    4.3598  -19.0344 C   0  0  0  0  0  0  0  0  0  0  0  0
   -7.7936    4.4037  -18.0412 C   0  0  0  0  0  0  0  0  0  0  0  0
   -7.3987    4.8248  -16.7953 C   0  0  0  0  0  0  0  0  0  0  0  0
   -8.2446    5.0359  -15.5780 C   0  0  0  0  0  0  0  0  0  0  0  0
   -7.3572    6.0833  -14.8959 C   0  0  1  0  0  0  0  0  0  0  0  0
   -7.6417    6.4759  -13.4730 C   0  0  0  0  0  0  0  0  0  0  0  0
   -7.6497    7.6113  -13.1874 O   0  0  0  0  0  0  0  0  0  0  0  0
   -7.7849    5.2111  -12.5794 N   0  0  0  0  0  0  0  0  0  0  0  0
   -8.0505    5.0924  -11.2244 C   0  0  0  0  0  0  0  0  0  0  0  0
   -8.0690    6.2862  -10.4720 C   0  0  0  0  0  0  0  0  0  0  0  0
   -8.2916    6.2707   -9.1120 C   0  0  0  0  0  0  0  0  0  0  0  0
   -8.5009    5.0375   -8.5531 C   0  0  0  0  0  0  0  0  0  0  0  0
   -8.5015    3.8287   -9.2580 C   0  0  0  0  0  0  0  0  0  0  0  0
   -8.2695    3.8419  -10.6239 C   0  0  0  0  0  0  0  0  0  0  0  0
   -8.7854    2.7034   -8.3067 C   0  0  0  0  0  0  0  0  0  0  0  0
   -8.8783    3.4195   -7.0359 N   0  0  0  0  0  0  0  0  0  0  0  0
   -9.0181    2.7926   -5.7456 C   0  0  1  0  0  0  0  0  0  0  0  0
   -8.0149    3.3412   -4.7234 C   0  0  0  0  0  0  0  0  0  0  0  0
   -8.8674    3.8358   -3.5980 C   0  0  0  0  0  0  0  0  0  0  0  0
   -8.4470    4.2287   -2.5191 O   0  0  0  0  0  0  0  0  0  0  0  0
  -10.1709    3.7489   -3.9439 N   0  0  0  0  0  0  0  0  0  0  0  0
  -10.3711    3.1333   -5.1379 C   0  0  0  0  0  0  0  0  0  0  0  0
  -11.4728    2.9561   -5.6348 O   0  0  0  0  0  0  0  0  0  0  0  0
   -8.7753    4.7807   -7.1576 C   0  0  0  0  0  0  0  0  0  0  0  0
   -8.8780    5.6242   -6.2871 O   0  0  0  0  0  0  0  0  0  0  0  0
  1  2  1  0
  2  3  1  0
  2  4  1  0
  2  5  1  0
  5  6  1  0
  6  7  2  0
  6  8  1  0
  9  8  1  6
  9 10  1  0
 10 11  2  0
 11 12  1  0
 12 13  2  0
 13 14  1  0
 14 15  2  0
 15 16  1  0
 16 17  1  0
 17 18  1  1
 18 19  2  0
 18 20  1  0
 20 21  1  0
 21 22  2  0
 22 23  1  0
 23 24  2  0
 24 25  1  0
 25 26  2  0
 25 27  1  0
 27 28  1  0
 29 28  1  6
 29 30  1  0
 30 31  1  0
 31 32  2  0
 31 33  1  0
 33 34  1  0
 34 35  2  0
 28 36  1  0
 36 37  2  0
 17  9  1  0
 26 21  1  0
 34 29  1  0
 15 10  1  0
 36 24  1  0
M  END
>  <fragmenstein_outcome>  (5) 
nan

>  <exports>  (5) 
['/opt/xchem-fragalysis-2/maxwin/openbind-hippo/xx01zvns2b/cycle_01/syndirella/elabs/openbind_xx01zvns2b_c1_elab_chemspace_filtered.sdf', '/opt/xchem-fragalysis-2/maxwin/openbind-hippo/xx01zvns2b/cycle_01/gnina/openbind_xx01zvns2b_c1_elab_chemspace_filtered_scored_top20percent_products.sdf']

>  <Energy>  (5) 
nan

>  <alias>  (5) 
None

>  <fragmenstein_runtime>  (5) 
nan

>  <scratch_subdir>  (5) 
nan

>  <HIPPO Compound ID>  (5) 
135368

>  <rmsd(smina/fragmenstein)>  (5) 
0.747

>  <distance_score>  (5) 
1.240318

>  <orig_smiles>  (5) 
nan

>  <fragmenstein_mode>  (5) 
nan

>  <inchikey>  (5) 
XMIUBYMVGZSZRG-RZUBCFFCSA-N

>  <ref_pdb>  (5) 
Z3506a

>  <GNINA pK>  (5) 
nan

>  <gnina_score_min>  (5) 
5.821

>  <tags>  (5) 
openbind_xx01zvns2b_c1_elab_chemspace_filtered_scored_top80percent,openbind_xx01zvns2b_c1_elab_chemspace_filtered_scored,openbind_xx01zvns2b_c1_elab_chemspace_filtered_scored_top40percent,openbind_xx01zvns2b_c1_elab_chemspace_filtered_scored_top20percent,openbind_xx01zvns2b_c1_elab_chemspace_filtered_scored_top60percent,openbind_xx01zvns2b_c1_elabs_filtered

>  <smiles>  (5) 
CC(C)(C)OC(=O)N[C@@H]1c2ccccc2C[C@H]1C(=O)Nc1ccc2c(c1)CN([C@H]1CC(=O)NC1=O)C2=O

>  <subsites>  (5) 
1 - Z4590/B/203/1

>  <gnina_score>  (5) 
5.911

>  <HIPPO Pose ID>  (5) 
68463

>  <ref_mols>  (5) 
Z3452a,Z3506a

>  <energy_score>  (5) 
-28.676489

>  <inspiration_score>  (5) 
None

>  <smina_score_min>  (5) 
-6.84

>  <fragmenstein_error>  (5) 
nan

>  <name>  (5) 
P68463

$$$$
P68467
     RDKit          3D

 38 42  0  0  0  0  0  0  0  0999 V2000
   -2.3590    3.7039  -11.2036 C   0  0  0  0  0  0  0  0  0  0  0  0
   -3.4895    3.1529  -12.0860 C   0  0  0  0  0  0  0  0  0  0  0  0
   -4.6351    2.6977  -11.1732 C   0  0  0  0  0  0  0  0  0  0  0  0
   -2.9374    2.0055  -12.9346 C   0  0  0  0  0  0  0  0  0  0  0  0
   -3.8658    4.2610  -12.9445 O   0  0  0  0  0  0  0  0  0  0  0  0
   -4.9474    4.1903  -13.7636 C   0  0  0  0  0  0  0  0  0  0  0  0
   -5.6752    3.2926  -13.8380 O   0  0  0  0  0  0  0  0  0  0  0  0
   -4.9694    5.5355  -14.4631 N   0  0  0  0  0  0  0  0  0  0  0  0
   -5.9472    6.1160  -15.3432 C   0  0  1  0  0  0  0  0  0  0  0  0
   -6.0238    5.4771  -16.6911 C   0  0  0  0  0  0  0  0  0  0  0  0
   -5.0946    5.5786  -17.7107 C   0  0  0  0  0  0  0  0  0  0  0  0
   -5.4229    5.0227  -18.9379 C   0  0  0  0  0  0  0  0  0  0  0  0
   -6.6623    4.3932  -19.1163 C   0  0  0  0  0  0  0  0  0  0  0  0
   -7.5974    4.2899  -18.0888 C   0  0  0  0  0  0  0  0  0  0  0  0
   -7.2537    4.8134  -16.8669 C   0  0  0  0  0  0  0  0  0  0  0  0
   -8.0496    4.7957  -15.5986 C   0  0  0  0  0  0  0  0  0  0  0  0
   -7.4277    6.0269  -14.9462 C   0  0  1  0  0  0  0  0  0  0  0  0
   -7.6293    6.4246  -13.5151 C   0  0  0  0  0  0  0  0  0  0  0  0
   -7.5727    7.5598  -13.2343 O   0  0  0  0  0  0  0  0  0  0  0  0
   -7.7883    5.1732  -12.6136 N   0  0  0  0  0  0  0  0  0  0  0  0
   -7.9962    5.0693  -11.2522 C   0  0  0  0  0  0  0  0  0  0  0  0
   -7.8272    6.2407  -10.4861 C   0  0  0  0  0  0  0  0  0  0  0  0
   -8.0643    6.2407   -9.1294 C   0  0  0  0  0  0  0  0  0  0  0  0
   -8.4943    5.0527   -8.5971 C   0  0  0  0  0  0  0  0  0  0  0  0
   -8.6719    3.8736   -9.3192 C   0  0  0  0  0  0  0  0  0  0  0  0
   -8.3895    3.8556  -10.6724 C   0  0  0  0  0  0  0  0  0  0  0  0
   -9.2203    2.8206   -8.4104 C   0  0  0  0  0  0  0  0  0  0  0  0
   -9.4686    3.5831   -7.1686 N   0  0  0  0  0  0  0  0  0  0  0  0
   -9.7368    2.9225   -5.8925 C   0  0  2  0  0  0  0  0  0  0  0  0
  -10.3950    3.7797   -4.8117 C   0  0  0  0  0  0  0  0  0  0  0  0
   -9.5010    4.0456   -3.6061 C   0  0  2  0  0  0  0  0  0  0  0  0
   -9.9905    5.1089   -2.9112 F   0  0  0  0  0  0  0  0  0  0  0  0
   -8.0510    4.3033   -3.9813 C   0  0  0  0  0  0  0  0  0  0  0  0
   -7.5104    3.2826   -4.8559 N   0  0  0  0  0  0  0  0  0  0  0  0
   -8.3550    2.4296   -5.5455 C   0  0  0  0  0  0  0  0  0  0  0  0
   -7.9441    1.3982   -6.0681 O   0  0  0  0  0  0  0  0  0  0  0  0
   -8.9433    4.8550   -7.2390 C   0  0  0  0  0  0  0  0  0  0  0  0
   -8.8624    5.7070   -6.3770 O   0  0  0  0  0  0  0  0  0  0  0  0
  1  2  1  0
  2  3  1  0
  2  4  1  0
  2  5  1  0
  5  6  1  0
  6  7  2  0
  6  8  1  0
  9  8  1  1
  9 10  1  0
 10 11  2  0
 11 12  1  0
 12 13  2  0
 13 14  1  0
 14 15  2  0
 15 16  1  0
 16 17  1  0
 17 18  1  1
 18 19  2  0
 18 20  1  0
 20 21  1  0
 21 22  2  0
 22 23  1  0
 23 24  2  0
 24 25  1  0
 25 26  2  0
 25 27  1  0
 27 28  1  0
 29 28  1  6
 29 30  1  0
 30 31  1  0
 31 32  1  6
 31 33  1  0
 33 34  1  0
 34 35  1  0
 35 36  2  0
 28 37  1  0
 37 38  2  0
 17  9  1  0
 26 21  1  0
 35 29  1  0
 15 10  1  0
 37 24  1  0
M  END
>  <fragmenstein_outcome>  (6) 
nan

>  <exports>  (6) 
['/opt/xchem-fragalysis-2/maxwin/openbind-hippo/xx01zvns2b/cycle_01/syndirella/elabs/openbind_xx01zvns2b_c1_elab_chemspace_filtered.sdf', '/opt/xchem-fragalysis-2/maxwin/openbind-hippo/xx01zvns2b/cycle_01/gnina/openbind_xx01zvns2b_c1_elab_chemspace_filtered_scored_top20percent_products.sdf']

>  <Energy>  (6) 
nan

>  <alias>  (6) 
None

>  <fragmenstein_runtime>  (6) 
nan

>  <scratch_subdir>  (6) 
nan

>  <HIPPO Compound ID>  (6) 
135371

>  <rmsd(smina/fragmenstein)>  (6) 
0.756

>  <distance_score>  (6) 
1.242425

>  <orig_smiles>  (6) 
nan

>  <fragmenstein_mode>  (6) 
nan

>  <inchikey>  (6) 
SRTFFVQVMQCUGZ-VAFVZNMKSA-N

>  <ref_pdb>  (6) 
Z3506a

>  <GNINA pK>  (6) 
nan

>  <gnina_score_min>  (6) 
5.932

>  <tags>  (6) 
openbind_xx01zvns2b_c1_elab_chemspace_filtered_scored_top80percent,openbind_xx01zvns2b_c1_elab_chemspace_filtered_scored,openbind_xx01zvns2b_c1_elab_chemspace_filtered_scored_top40percent,openbind_xx01zvns2b_c1_elab_chemspace_filtered_scored_top20percent,openbind_xx01zvns2b_c1_elab_chemspace_filtered_scored_top60percent,openbind_xx01zvns2b_c1_elabs_filtered

>  <smiles>  (6) 
CC(C)(C)OC(=O)N[C@H]1c2ccccc2C[C@H]1C(=O)Nc1ccc2c(c1)CN([C@@H]1C[C@H](F)CNC1=O)C2=O

>  <subsites>  (6) 
1 - Z4590/B/203/1

>  <gnina_score>  (6) 
6.107

>  <HIPPO Pose ID>  (6) 
68467

>  <ref_mols>  (6) 
Z3452a,Z3506a

>  <energy_score>  (6) 
-31.13492

>  <inspiration_score>  (6) 
None

>  <smina_score_min>  (6) 
-6.994

>  <fragmenstein_error>  (6) 
nan

>  <name>  (6) 
P68467

$$$$
P68471
     RDKit          3D

 38 42  0  0  0  0  0  0  0  0999 V2000
   -4.9600   11.0041  -18.3702 C   0  0  0  0  0  0  0  0  0  0  0  0
   -4.7611   11.0188  -16.8502 C   0  0  0  0  0  0  0  0  0  0  0  0
   -3.3075   11.3100  -16.4628 C   0  0  0  0  0  0  0  0  0  0  0  0
   -5.6588   12.1119  -16.2503 C   0  0  0  0  0  0  0  0  0  0  0  0
   -5.2342    9.7871  -16.2487 O   0  0  0  0  0  0  0  0  0  0  0  0
   -4.6578    8.5936  -16.5522 C   0  0  0  0  0  0  0  0  0  0  0  0
   -3.7771    8.4499  -17.2898 O   0  0  0  0  0  0  0  0  0  0  0  0
   -5.4465    7.5766  -15.7526 N   0  0  0  0  0  0  0  0  0  0  0  0
   -5.3903    6.1433  -15.7527 C   0  0  2  0  0  0  0  0  0  0  0  0
   -5.8694    5.5722  -17.0516 C   0  0  0  0  0  0  0  0  0  0  0  0
   -5.1608    5.5092  -18.2358 C   0  0  0  0  0  0  0  0  0  0  0  0
   -5.7514    4.8537  -19.3042 C   0  0  0  0  0  0  0  0  0  0  0  0
   -7.0326    4.2956  -19.1681 C   0  0  0  0  0  0  0  0  0  0  0  0
   -7.7687    4.4046  -17.9963 C   0  0  0  0  0  0  0  0  0  0  0  0
   -7.1564    5.0216  -16.9349 C   0  0  0  0  0  0  0  0  0  0  0  0
   -7.6783    5.1694  -15.5547 C   0  0  0  0  0  0  0  0  0  0  0  0
   -6.3538    5.4030  -14.8023 C   0  0  2  0  0  0  0  0  0  0  0  0
   -6.6343    6.0883  -13.4915 C   0  0  0  0  0  0  0  0  0  0  0  0
   -6.3619    7.1974  -13.2463 O   0  0  0  0  0  0  0  0  0  0  0  0
   -7.3312    5.0051  -12.6188 N   0  0  0  0  0  0  0  0  0  0  0  0
   -7.7278    5.0387  -11.3012 C   0  0  0  0  0  0  0  0  0  0  0  0
   -7.5840    6.2212  -10.5538 C   0  0  0  0  0  0  0  0  0  0  0  0
   -7.8227    6.2191   -9.1896 C   0  0  0  0  0  0  0  0  0  0  0  0
   -8.2110    5.0214   -8.6393 C   0  0  0  0  0  0  0  0  0  0  0  0
   -8.4154    3.8625   -9.3776 C   0  0  0  0  0  0  0  0  0  0  0  0
   -8.1839    3.8499  -10.7308 C   0  0  0  0  0  0  0  0  0  0  0  0
   -8.8480    2.7615   -8.4872 C   0  0  0  0  0  0  0  0  0  0  0  0
   -8.9366    3.4302   -7.1840 N   0  0  0  0  0  0  0  0  0  0  0  0
   -9.0119    2.6509   -5.9593 C   0  0  1  0  0  0  0  0  0  0  0  0
   -9.4498    3.4657   -4.7321 C   0  0  0  0  0  0  0  0  0  0  0  0
  -10.9415    3.7030   -4.7824 C   0  0  0  0  0  0  0  0  0  0  0  0
  -11.6875    2.4007   -4.9637 C   0  0  0  0  0  0  0  0  0  0  0  0
  -12.9055    2.2809   -4.9307 O   0  0  0  0  0  0  0  0  0  0  0  0
  -10.9249    1.3243   -5.2165 N   0  0  0  0  0  0  0  0  0  0  0  0
   -9.9868    1.4786   -6.1735 C   0  0  0  0  0  0  0  0  0  0  0  0
  -10.0104    0.7353   -7.1481 O   0  0  0  0  0  0  0  0  0  0  0  0
   -8.4438    4.7211   -7.2398 C   0  0  0  0  0  0  0  0  0  0  0  0
   -8.2095    5.5138   -6.3478 O   0  0  0  0  0  0  0  0  0  0  0  0
  1  2  1  0
  2  3  1  0
  2  4  1  0
  2  5  1  0
  5  6  1  0
  6  7  2  0
  6  8  1  0
  9  8  1  6
  9 10  1  0
 10 11  2  0
 11 12  1  0
 12 13  2  0
 13 14  1  0
 14 15  2  0
 15 16  1  0
 16 17  1  0
 17 18  1  1
 18 19  2  0
 18 20  1  0
 20 21  1  0
 21 22  2  0
 22 23  1  0
 23 24  2  0
 24 25  1  0
 25 26  2  0
 25 27  1  0
 27 28  1  0
 29 28  1  6
 29 30  1  0
 30 31  1  0
 31 32  1  0
 32 33  2  0
 32 34  1  0
 34 35  1  0
 35 36  2  0
 28 37  1  0
 37 38  2  0
 17  9  1  0
 26 21  1  0
 35 29  1  0
 15 10  1  0
 37 24  1  0
M  END
>  <fragmenstein_outcome>  (7) 
nan

>  <exports>  (7) 
['/opt/xchem-fragalysis-2/maxwin/openbind-hippo/xx01zvns2b/cycle_01/syndirella/elabs/openbind_xx01zvns2b_c1_elab_chemspace_filtered.sdf', '/opt/xchem-fragalysis-2/maxwin/openbind-hippo/xx01zvns2b/cycle_01/gnina/openbind_xx01zvns2b_c1_elab_chemspace_filtered_scored_top20percent_products.sdf']

>  <Energy>  (7) 
nan

>  <alias>  (7) 
None

>  <fragmenstein_runtime>  (7) 
nan

>  <scratch_subdir>  (7) 
nan

>  <HIPPO Compound ID>  (7) 
135372

>  <rmsd(smina/fragmenstein)>  (7) 
1.101

>  <distance_score>  (7) 
1.452208

>  <orig_smiles>  (7) 
nan

>  <fragmenstein_mode>  (7) 
nan

>  <inchikey>  (7) 
ISMYDRRFXIPLJS-QNWVGRARSA-N

>  <ref_pdb>  (7) 
Z3506a

>  <GNINA pK>  (7) 
nan

>  <gnina_score_min>  (7) 
5.786

>  <tags>  (7) 
openbind_xx01zvns2b_c1_elab_chemspace_filtered_scored_top80percent,openbind_xx01zvns2b_c1_elab_chemspace_filtered_scored,openbind_xx01zvns2b_c1_elab_chemspace_filtered_scored_top40percent,openbind_xx01zvns2b_c1_elab_chemspace_filtered_scored_top20percent,openbind_xx01zvns2b_c1_elab_chemspace_filtered_scored_top60percent,openbind_xx01zvns2b_c1_elabs_filtered

>  <smiles>  (7) 
CC(C)(C)OC(=O)N[C@@H]1c2ccccc2C[C@@H]1C(=O)Nc1ccc2c(c1)CN([C@H]1CCC(=O)NC1=O)C2=O

>  <subsites>  (7) 
1 - Z4590/B/203/1

>  <gnina_score>  (7) 
6.092

>  <HIPPO Pose ID>  (7) 
68471

>  <ref_mols>  (7) 
Z3452a,Z3506a

>  <energy_score>  (7) 
-26.463298

>  <inspiration_score>  (7) 
None

>  <smina_score_min>  (7) 
-7.23

>  <fragmenstein_error>  (7) 
nan

>  <name>  (7) 
P68471

$$$$
P68476
     RDKit          3D

 38 42  0  0  0  0  0  0  0  0999 V2000
   -4.0835    3.9514  -10.5131 C   0  0  0  0  0  0  0  0  0  0  0  0
   -3.1665    3.8596  -11.7389 C   0  0  0  0  0  0  0  0  0  0  0  0
   -2.5927    2.4360  -11.8153 C   0  0  0  0  0  0  0  0  0  0  0  0
   -2.0040    4.8545  -11.6629 C   0  0  0  0  0  0  0  0  0  0  0  0
   -3.9162    4.0179  -12.9706 O   0  0  0  0  0  0  0  0  0  0  0  0
   -4.6067    5.1589  -13.2270 C   0  0  0  0  0  0  0  0  0  0  0  0
   -4.5860    6.1132  -12.5721 O   0  0  0  0  0  0  0  0  0  0  0  0
   -5.3630    4.8603  -14.5045 N   0  0  0  0  0  0  0  0  0  0  0  0
   -6.3390    5.6363  -15.2142 C   0  0  1  0  0  0  0  0  0  0  0  0
   -6.2021    5.4305  -16.6800 C   0  0  0  0  0  0  0  0  0  0  0  0
   -5.0915    5.7307  -17.4547 C   0  0  0  0  0  0  0  0  0  0  0  0
   -5.1009    5.3461  -18.7873 C   0  0  0  0  0  0  0  0  0  0  0  0
   -6.2143    4.6868  -19.3132 C   0  0  0  0  0  0  0  0  0  0  0  0
   -7.3443    4.4227  -18.5379 C   0  0  0  0  0  0  0  0  0  0  0  0
   -7.3191    4.7865  -17.2124 C   0  0  0  0  0  0  0  0  0  0  0  0
   -8.3516    4.4888  -16.1841 C   0  0  0  0  0  0  0  0  0  0  0  0
   -7.8110    5.2325  -14.9548 C   0  0  1  0  0  0  0  0  0  0  0  0
   -7.9372    4.4119  -13.6837 C   0  0  0  0  0  0  0  0  0  0  0  0
   -8.1130    3.2620  -13.6494 O   0  0  0  0  0  0  0  0  0  0  0  0
   -7.7817    5.4370  -12.5347 N   0  0  0  0  0  0  0  0  0  0  0  0
   -7.8998    5.2775  -11.1735 C   0  0  0  0  0  0  0  0  0  0  0  0
   -7.5125    6.3825  -10.3913 C   0  0  0  0  0  0  0  0  0  0  0  0
   -7.6475    6.3459   -9.0168 C   0  0  0  0  0  0  0  0  0  0  0  0
   -8.2013    5.2014   -8.4943 C   0  0  0  0  0  0  0  0  0  0  0  0
   -8.5850    4.1101   -9.2502 C   0  0  0  0  0  0  0  0  0  0  0  0
   -8.4196    4.1037  -10.6138 C   0  0  0  0  0  0  0  0  0  0  0  0
   -9.2373    3.1681   -8.3422 C   0  0  0  0  0  0  0  0  0  0  0  0
   -9.7077    2.1037   -8.6819 O   0  0  0  0  0  0  0  0  0  0  0  0
   -9.2561    3.7812   -7.1097 N   0  0  0  0  0  0  0  0  0  0  0  0
   -9.6933    3.1091   -5.9024 C   0  0  2  0  0  0  0  0  0  0  0  0
  -10.5171    3.9360   -4.9164 C   0  0  0  0  0  0  0  0  0  0  0  0
   -9.7346    4.7316   -3.8719 C   0  0  0  0  0  0  0  0  0  0  0  0
   -8.4992    3.9959   -3.3898 C   0  0  0  0  0  0  0  0  0  0  0  0
   -7.7024    3.4953   -4.4884 N   0  0  0  0  0  0  0  0  0  0  0  0
   -8.3762    2.6236   -5.3521 C   0  0  0  0  0  0  0  0  0  0  0  0
   -7.8492    1.6280   -5.8318 O   0  0  0  0  0  0  0  0  0  0  0  0
   -8.5433    4.9389   -7.1214 C   0  0  0  0  0  0  0  0  0  0  0  0
   -8.1551    5.6382   -6.2031 O   0  0  0  0  0  0  0  0  0  0  0  0
  1  2  1  0
  2  3  1  0
  2  4  1  0
  2  5  1  0
  5  6  1  0
  6  7  2  0
  6  8  1  0
  9  8  1  1
  9 10  1  0
 10 11  2  0
 11 12  1  0
 12 13  2  0
 13 14  1  0
 14 15  2  0
 15 16  1  0
 16 17  1  0
 17 18  1  1
 18 19  2  0
 18 20  1  0
 20 21  1  0
 21 22  2  0
 22 23  1  0
 23 24  2  0
 24 25  1  0
 25 26  2  0
 25 27  1  0
 27 28  2  0
 27 29  1  0
 30 29  1  6
 30 31  1  0
 31 32  1  0
 32 33  1  0
 33 34  1  0
 34 35  1  0
 35 36  2  0
 29 37  1  0
 37 38  2  0
 17  9  1  0
 26 21  1  0
 35 30  1  0
 15 10  1  0
 37 24  1  0
M  END
>  <fragmenstein_outcome>  (8) 
nan

>  <exports>  (8) 
['/opt/xchem-fragalysis-2/maxwin/openbind-hippo/xx01zvns2b/cycle_01/syndirella/elabs/openbind_xx01zvns2b_c1_elab_chemspace_filtered.sdf', '/opt/xchem-fragalysis-2/maxwin/openbind-hippo/xx01zvns2b/cycle_01/gnina/openbind_xx01zvns2b_c1_elab_chemspace_filtered_scored_top20percent_products.sdf']

>  <Energy>  (8) 
nan

>  <alias>  (8) 
None

>  <fragmenstein_runtime>  (8) 
nan

>  <scratch_subdir>  (8) 
nan

>  <HIPPO Compound ID>  (8) 
135374

>  <rmsd(smina/fragmenstein)>  (8) 
0.921

>  <distance_score>  (8) 
1.506569

>  <orig_smiles>  (8) 
nan

>  <fragmenstein_mode>  (8) 
nan

>  <inchikey>  (8) 
CATRXAVBEMWAPS-VSKRKVRLSA-N

>  <ref_pdb>  (8) 
Z3506a

>  <GNINA pK>  (8) 
nan

>  <gnina_score_min>  (8) 
5.773

>  <tags>  (8) 
openbind_xx01zvns2b_c1_elab_chemspace_filtered_scored_top80percent,openbind_xx01zvns2b_c1_elab_chemspace_filtered_scored,openbind_xx01zvns2b_c1_elab_chemspace_filtered_scored_top40percent,openbind_xx01zvns2b_c1_elab_chemspace_filtered_scored_top20percent,openbind_xx01zvns2b_c1_elab_chemspace_filtered_scored_top60percent,openbind_xx01zvns2b_c1_elabs_filtered

>  <smiles>  (8) 
CC(C)(C)OC(=O)N[C@H]1c2ccccc2C[C@H]1C(=O)Nc1ccc2c(c1)C(=O)N([C@@H]1CCCNC1=O)C2=O

>  <subsites>  (8) 
1 - Z4590/B/203/1

>  <gnina_score>  (8) 
6.139

>  <HIPPO Pose ID>  (8) 
68476

>  <ref_mols>  (8) 
Z3452a,Z3506a

>  <energy_score>  (8) 
-30.878886

>  <inspiration_score>  (8) 
None

>  <smina_score_min>  (8) 
-7.085

>  <fragmenstein_error>  (8) 
nan

>  <name>  (8) 
P68476

$$$$
P68480
     RDKit          3D

 38 42  0  0  0  0  0  0  0  0999 V2000
   -6.7897    9.4511  -11.9875 C   0  0  0  0  0  0  0  0  0  0  0  0
   -5.4663    9.0219  -12.6260 C   0  0  0  0  0  0  0  0  0  0  0  0
   -5.2539    9.6915  -13.9894 C   0  0  0  0  0  0  0  0  0  0  0  0
   -4.3169    9.4357  -11.6941 C   0  0  0  0  0  0  0  0  0  0  0  0
   -5.3502    7.5783  -12.7346 O   0  0  0  0  0  0  0  0  0  0  0  0
   -6.1684    6.8654  -13.5518 C   0  0  0  0  0  0  0  0  0  0  0  0
   -7.1207    7.2797  -14.0641 O   0  0  0  0  0  0  0  0  0  0  0  0
   -5.5186    5.4973  -13.6410 N   0  0  0  0  0  0  0  0  0  0  0  0
   -5.8446    4.3564  -14.4590 C   0  0  2  0  0  0  0  0  0  0  0  0
   -5.9700    4.7569  -15.9060 C   0  0  0  0  0  0  0  0  0  0  0  0
   -4.9333    5.0900  -16.7635 C   0  0  0  0  0  0  0  0  0  0  0  0
   -5.2245    5.2084  -18.1125 C   0  0  0  0  0  0  0  0  0  0  0  0
   -6.5353    5.0153  -18.5614 C   0  0  0  0  0  0  0  0  0  0  0  0
   -7.5973    4.7674  -17.6891 C   0  0  0  0  0  0  0  0  0  0  0  0
   -7.2982    4.6305  -16.3515 C   0  0  0  0  0  0  0  0  0  0  0  0
   -8.2051    4.2376  -15.2212 C   0  0  0  0  0  0  0  0  0  0  0  0
   -7.1731    3.5862  -14.2896 C   0  0  2  0  0  0  0  0  0  0  0  0
   -7.5455    3.2156  -12.8706 C   0  0  0  0  0  0  0  0  0  0  0  0
   -7.4271    2.1346  -12.4521 O   0  0  0  0  0  0  0  0  0  0  0  0
   -7.9686    4.5168  -12.1673 N   0  0  0  0  0  0  0  0  0  0  0  0
   -8.2332    4.7727  -10.8339 C   0  0  0  0  0  0  0  0  0  0  0  0
   -8.1738    6.1441  -10.5287 C   0  0  0  0  0  0  0  0  0  0  0  0
   -8.1114    6.5673   -9.2227 C   0  0  0  0  0  0  0  0  0  0  0  0
   -8.1860    5.5970   -8.2505 C   0  0  0  0  0  0  0  0  0  0  0  0
   -8.3982    4.2438   -8.5247 C   0  0  0  0  0  0  0  0  0  0  0  0
   -8.3920    3.7934   -9.8367 C   0  0  0  0  0  0  0  0  0  0  0  0
   -8.6262    3.5883   -7.1962 C   0  0  0  0  0  0  0  0  0  0  0  0
   -8.9869    2.4465   -7.0047 O   0  0  0  0  0  0  0  0  0  0  0  0
   -8.4581    4.5858   -6.2306 N   0  0  0  0  0  0  0  0  0  0  0  0
   -8.6247    4.5706   -4.7883 C   0  0  1  0  0  0  0  0  0  0  0  0
   -9.9153    3.9646   -4.2626 C   0  0  0  0  0  0  0  0  0  0  0  0
  -10.0807    4.4598   -2.8260 C   0  0  0  0  0  0  0  0  0  0  0  0
   -8.8976    4.0850   -1.9717 C   0  0  0  0  0  0  0  0  0  0  0  0
   -8.9966    3.6961   -0.8119 O   0  0  0  0  0  0  0  0  0  0  0  0
   -7.6707    4.2686   -2.5539 N   0  0  0  0  0  0  0  0  0  0  0  0
   -7.4290    4.1723   -3.9097 C   0  0  0  0  0  0  0  0  0  0  0  0
   -6.2975    3.8831   -4.2933 O   0  0  0  0  0  0  0  0  0  0  0  0
   -8.0557    5.8333   -6.8078 C   0  0  0  0  0  0  0  0  0  0  0  0
  1  2  1  0
  2  3  1  0
  2  4  1  0
  2  5  1  0
  5  6  1  0
  6  7  2  0
  6  8  1  0
  9  8  1  1
  9 10  1  0
 10 11  2  0
 11 12  1  0
 12 13  2  0
 13 14  1  0
 14 15  2  0
 15 16  1  0
 16 17  1  0
 17 18  1  1
 18 19  2  0
 18 20  1  0
 20 21  1  0
 21 22  2  0
 22 23  1  0
 23 24  2  0
 24 25  1  0
 25 26  2  0
 25 27  1  0
 27 28  2  0
 27 29  1  0
 30 29  1  6
 30 31  1  0
 31 32  1  0
 32 33  1  0
 33 34  2  0
 33 35  1  0
 35 36  1  0
 36 37  2  0
 29 38  1  0
 17  9  1  0
 26 21  1  0
 36 30  1  0
 15 10  1  0
 38 24  1  0
M  END
>  <fragmenstein_outcome>  (9) 
nan

>  <exports>  (9) 
['/opt/xchem-fragalysis-2/maxwin/openbind-hippo/xx01zvns2b/cycle_01/syndirella/elabs/openbind_xx01zvns2b_c1_elab_chemspace_filtered.sdf', '/opt/xchem-fragalysis-2/maxwin/openbind-hippo/xx01zvns2b/cycle_01/gnina/openbind_xx01zvns2b_c1_elab_chemspace_filtered_scored_top20percent_products.sdf']

>  <Energy>  (9) 
nan

>  <alias>  (9) 
None

>  <fragmenstein_runtime>  (9) 
nan

>  <scratch_subdir>  (9) 
nan

>  <HIPPO Compound ID>  (9) 
135375

>  <rmsd(smina/fragmenstein)>  (9) 
0.84

>  <distance_score>  (9) 
1.712805

>  <orig_smiles>  (9) 
nan

>  <fragmenstein_mode>  (9) 
nan

>  <inchikey>  (9) 
FVLAJQDTDFQJHS-QNWVGRARSA-N

>  <ref_pdb>  (9) 
Z3506a

>  <GNINA pK>  (9) 
nan

>  <gnina_score_min>  (9) 
5.32

>  <tags>  (9) 
openbind_xx01zvns2b_c1_elab_chemspace_filtered_scored_top80percent,openbind_xx01zvns2b_c1_elab_chemspace_filtered_scored,openbind_xx01zvns2b_c1_elab_chemspace_filtered_scored_top40percent,openbind_xx01zvns2b_c1_elab_chemspace_filtered_scored_top20percent,openbind_xx01zvns2b_c1_elab_chemspace_filtered_scored_top60percent,openbind_xx01zvns2b_c1_elabs_filtered

>  <smiles>  (9) 
CC(C)(C)OC(=O)N[C@@H]1c2ccccc2C[C@@H]1C(=O)Nc1ccc2c(c1)C(=O)N([C@H]1CCC(=O)NC1=O)C2

>  <subsites>  (9) 
1 - Z4590/B/203/1

>  <gnina_score>  (9) 
5.65

>  <HIPPO Pose ID>  (9) 
68480

>  <ref_mols>  (9) 
Z3452a,Z3506a

>  <energy_score>  (9) 
-19.896344

>  <inspiration_score>  (9) 
None

>  <smina_score_min>  (9) 
-7.849

>  <fragmenstein_error>  (9) 
nan

>  <name>  (9) 
P68480

$$$$
P68485
     RDKit          3D

 38 42  0  0  0  0  0  0  0  0999 V2000
   -3.7123    5.4026  -19.2169 C   0  0  0  0  0  0  0  0  0  0  0  0
   -5.0037    5.1647  -18.4958 C   0  0  0  0  0  0  0  0  0  0  0  0
   -6.1526    4.7650  -19.1968 C   0  0  0  0  0  0  0  0  0  0  0  0
   -7.3775    4.5380  -18.5563 C   0  0  0  0  0  0  0  0  0  0  0  0
   -7.4321    4.6735  -17.1922 C   0  0  0  0  0  0  0  0  0  0  0  0
   -6.2795    5.0095  -16.4804 C   0  0  0  0  0  0  0  0  0  0  0  0
   -5.0727    5.2817  -17.1109 C   0  0  0  0  0  0  0  0  0  0  0  0
   -6.5461    5.0040  -15.0158 C   0  0  2  0  0  0  0  0  0  0  0  0
   -5.5333    4.2816  -14.2895 N   0  0  0  0  0  0  0  0  0  0  0  0
   -4.8996    4.5606  -12.9425 C   0  0  0  0  0  0  0  0  0  0  0  0
   -5.0283    5.4577  -12.2241 O   0  0  0  0  0  0  0  0  0  0  0  0
   -4.1413    3.4608  -12.6967 O   0  0  0  0  0  0  0  0  0  0  0  0
   -3.4758    3.2905  -11.4171 C   0  0  0  0  0  0  0  0  0  0  0  0
   -4.4911    3.2007  -10.2711 C   0  0  0  0  0  0  0  0  0  0  0  0
   -2.7495    1.9417  -11.5333 C   0  0  0  0  0  0  0  0  0  0  0  0
   -2.4331    4.3875  -11.1766 C   0  0  0  0  0  0  0  0  0  0  0  0
   -7.9243    4.2935  -14.9516 C   0  0  1  0  0  0  0  0  0  0  0  0
   -8.6288    4.9495  -13.7925 C   0  0  0  0  0  0  0  0  0  0  0  0
   -9.2885    5.9110  -13.8641 O   0  0  0  0  0  0  0  0  0  0  0  0
   -8.1828    4.1253  -12.5545 N   0  0  0  0  0  0  0  0  0  0  0  0
   -8.3685    4.3579  -11.2173 C   0  0  0  0  0  0  0  0  0  0  0  0
   -8.3569    5.6847  -10.7456 C   0  0  0  0  0  0  0  0  0  0  0  0
   -8.3935    5.9369   -9.3828 C   0  0  0  0  0  0  0  0  0  0  0  0
   -8.4975    4.8364   -8.5629 C   0  0  0  0  0  0  0  0  0  0  0  0
   -8.5614    3.5209   -9.0303 C   0  0  0  0  0  0  0  0  0  0  0  0
   -8.4491    3.2580  -10.3708 C   0  0  0  0  0  0  0  0  0  0  0  0
   -8.7976    2.5793   -7.9074 C   0  0  0  0  0  0  0  0  0  0  0  0
   -8.7153    3.4795   -6.7690 N   0  0  0  0  0  0  0  0  0  0  0  0
   -8.9811    3.0380   -5.4346 C   0  0  1  0  0  0  0  0  0  0  0  0
   -8.0435    3.6049   -4.3734 C   0  0  0  0  0  0  0  0  0  0  0  0
   -8.9672    3.9431   -3.2479 C   0  0  0  0  0  0  0  0  0  0  0  0
   -8.6278    4.1633   -2.0951 O   0  0  0  0  0  0  0  0  0  0  0  0
  -10.2399    3.9563   -3.7046 N   0  0  0  0  0  0  0  0  0  0  0  0
  -10.3606    3.4346   -4.9527 C   0  0  0  0  0  0  0  0  0  0  0  0
  -11.4155    3.3054   -5.5526 O   0  0  0  0  0  0  0  0  0  0  0  0
   -8.6159    4.8057   -7.1136 C   0  0  0  0  0  0  0  0  0  0  0  0
   -8.6480    5.7708   -6.3747 O   0  0  0  0  0  0  0  0  0  0  0  0
   -8.6120    4.4875  -16.2984 C   0  0  0  0  0  0  0  0  0  0  0  0
  1  2  1  0
  2  3  2  0
  3  4  1  0
  4  5  2  0
  5  6  1  0
  6  7  2  0
  6  8  1  0
  8  9  1  1
  9 10  1  0
 10 11  2  0
 10 12  1  0
 12 13  1  0
 13 14  1  0
 13 15  1  0
 13 16  1  0
  8 17  1  0
 17 18  1  1
 18 19  2  0
 18 20  1  0
 20 21  1  0
 21 22  2  0
 22 23  1  0
 23 24  2  0
 24 25  1  0
 25 26  2  0
 25 27  1  0
 27 28  1  0
 29 28  1  6
 29 30  1  0
 30 31  1  0
 31 32  2  0
 31 33  1  0
 33 34  1  0
 34 35  2  0
 28 36  1  0
 36 37  2  0
 17 38  1  0
  7  2  1  0
 26 21  1  0
 34 29  1  0
 38  5  1  0
 36 24  1  0
M  END
>  <fragmenstein_outcome>  (10) 
nan

>  <exports>  (10) 
['/opt/xchem-fragalysis-2/maxwin/openbind-hippo/xx01zvns2b/cycle_01/syndirella/elabs/openbind_xx01zvns2b_c1_elab_chemspace_filtered.sdf', '/opt/xchem-fragalysis-2/maxwin/openbind-hippo/xx01zvns2b/cycle_01/gnina/openbind_xx01zvns2b_c1_elab_chemspace_filtered_scored_top20percent_products.sdf']

>  <Energy>  (10) 
nan

>  <alias>  (10) 
None

>  <fragmenstein_runtime>  (10) 
nan

>  <scratch_subdir>  (10) 
nan

>  <HIPPO Compound ID>  (10) 
135376

>  <rmsd(smina/fragmenstein)>  (10) 
0.478

>  <distance_score>  (10) 
1.511296

>  <orig_smiles>  (10) 
nan

>  <fragmenstein_mode>  (10) 
nan

>  <inchikey>  (10) 
OSZDDAZCJOUQQP-FUDKSRODSA-N

>  <ref_pdb>  (10) 
Z3506a

>  <GNINA pK>  (10) 
nan

>  <gnina_score_min>  (10) 
5.904

>  <tags>  (10) 
openbind_xx01zvns2b_c1_elab_chemspace_filtered_scored_top80percent,openbind_xx01zvns2b_c1_elab_chemspace_filtered_scored,openbind_xx01zvns2b_c1_elab_chemspace_filtered_scored_top40percent,openbind_xx01zvns2b_c1_elab_chemspace_filtered_scored_top20percent,openbind_xx01zvns2b_c1_elab_chemspace_filtered_scored_top60percent,openbind_xx01zvns2b_c1_elabs_filtered

>  <smiles>  (10) 
Cc1ccc2c(c1)[C@H](NC(=O)OC(C)(C)C)[C@@H](C(=O)Nc1ccc3c(c1)CN([C@H]1CC(=O)NC1=O)C3=O)C2

>  <subsites>  (10) 
1 - Z4590/B/203/1

>  <gnina_score>  (10) 
6.042

>  <HIPPO Pose ID>  (10) 
68485

>  <ref_mols>  (10) 
Z3452a,Z3506a

>  <energy_score>  (10) 
-32.355755

>  <inspiration_score>  (10) 
None

>  <smina_score_min>  (10) 
-9.57

>  <fragmenstein_error>  (10) 
nan

>  <name>  (10) 
P68485

$$$$
P68487
     RDKit          3D

 38 42  0  0  0  0  0  0  0  0999 V2000
   -2.4032    3.9554  -11.4324 C   0  0  0  0  0  0  0  0  0  0  0  0
   -3.5770    3.3448  -12.2133 C   0  0  0  0  0  0  0  0  0  0  0  0
   -4.6044    2.8161  -11.2051 C   0  0  0  0  0  0  0  0  0  0  0  0
   -3.0400    2.2347  -13.1185 C   0  0  0  0  0  0  0  0  0  0  0  0
   -4.0987    4.4375  -13.0125 O   0  0  0  0  0  0  0  0  0  0  0  0
   -5.2195    4.2878  -13.7668 C   0  0  0  0  0  0  0  0  0  0  0  0
   -5.8544    3.3213  -13.8353 O   0  0  0  0  0  0  0  0  0  0  0  0
   -5.4511    5.6627  -14.3666 N   0  0  0  0  0  0  0  0  0  0  0  0
   -6.4733    6.1322  -15.2674 C   0  0  1  0  0  0  0  0  0  0  0  0
   -6.4075    5.5128  -16.6189 C   0  0  0  0  0  0  0  0  0  0  0  0
   -5.4400    5.7211  -17.5872 C   0  0  0  0  0  0  0  0  0  0  0  0
   -5.6354    5.1320  -18.8259 C   0  0  0  0  0  0  0  0  0  0  0  0
   -6.7932    4.3814  -19.0674 C   0  0  0  0  0  0  0  0  0  0  0  0
   -7.7674    4.1800  -18.0898 C   0  0  0  0  0  0  0  0  0  0  0  0
   -7.5396    4.7120  -16.8459 C   0  0  0  0  0  0  0  0  0  0  0  0
   -8.3641    4.5575  -15.6005 C   0  0  0  0  0  0  0  0  0  0  0  0
   -7.9538    5.8449  -14.9067 C   0  0  1  0  0  0  0  0  0  0  0  0
   -8.1165    6.1986  -13.4610 C   0  0  0  0  0  0  0  0  0  0  0  0
   -8.1587    7.3344  -13.1808 O   0  0  0  0  0  0  0  0  0  0  0  0
   -8.0993    4.9425  -12.5573 N   0  0  0  0  0  0  0  0  0  0  0  0
   -8.0370    4.8279  -11.1854 C   0  0  0  0  0  0  0  0  0  0  0  0
   -7.3734    5.9133  -10.5637 C   0  0  0  0  0  0  0  0  0  0  0  0
   -7.0585    5.8865   -9.2284 C   0  0  0  0  0  0  0  0  0  0  0  0
   -7.4977    4.7863   -8.5433 C   0  0  0  0  0  0  0  0  0  0  0  0
   -8.2449    3.7653   -9.0974 C   0  0  0  0  0  0  0  0  0  0  0  0
   -8.4803    3.7188  -10.4612 C   0  0  0  0  0  0  0  0  0  0  0  0
   -8.7753    2.9961   -7.9627 C   0  0  0  0  0  0  0  0  0  0  0  0
   -9.5913    2.1069   -8.1126 O   0  0  0  0  0  0  0  0  0  0  0  0
   -8.2569    3.5796   -6.8134 N   0  0  0  0  0  0  0  0  0  0  0  0
   -8.8026    3.5281   -5.5109 C   0  0  0  0  0  0  0  0  0  0  0  0
  -10.1242    3.1413   -5.3232 C   0  0  0  0  0  0  0  0  0  0  0  0
  -10.7446    3.4380   -4.1183 C   0  0  0  0  0  0  0  0  0  0  0  0
  -10.0492    4.0697   -3.0867 C   0  0  0  0  0  0  0  0  0  0  0  0
  -10.6750    4.3883   -1.9453 F   0  0  0  0  0  0  0  0  0  0  0  0
   -8.7111    4.3617   -3.2109 C   0  0  0  0  0  0  0  0  0  0  0  0
   -8.0909    4.0795   -4.4192 C   0  0  0  0  0  0  0  0  0  0  0  0
   -7.3930    4.5949   -7.1270 C   0  0  0  0  0  0  0  0  0  0  0  0
   -6.6925    5.3371   -6.4564 O   0  0  0  0  0  0  0  0  0  0  0  0
  1  2  1  0
  2  3  1  0
  2  4  1  0
  2  5  1  0
  5  6  1  0
  6  7  2  0
  6  8  1  0
  9  8  1  1
  9 10  1  0
 10 11  2  0
 11 12  1  0
 12 13  2  0
 13 14  1  0
 14 15  2  0
 15 16  1  0
 16 17  1  0
 17 18  1  1
 18 19  2  0
 18 20  1  0
 20 21  1  0
 21 22  2  0
 22 23  1  0
 23 24  2  0
 24 25  1  0
 25 26  2  0
 25 27  1  0
 27 28  2  0
 27 29  1  0
 29 30  1  0
 30 31  2  0
 31 32  1  0
 32 33  2  0
 33 34  1  0
 33 35  1  0
 35 36  2  0
 29 37  1  0
 37 38  2  0
 17  9  1  0
 26 21  1  0
 36 30  1  0
 15 10  1  0
 37 24  1  0
M  END
>  <fragmenstein_outcome>  (11) 
nan

>  <exports>  (11) 
['/opt/xchem-fragalysis-2/maxwin/openbind-hippo/xx01zvns2b/cycle_01/syndirella/elabs/openbind_xx01zvns2b_c1_elab_chemspace_filtered.sdf']

>  <Energy>  (11) 
nan

>  <alias>  (11) 
None

>  <fragmenstein_runtime>  (11) 
nan

>  <scratch_subdir>  (11) 
nan

>  <HIPPO Compound ID>  (11) 
135377

>  <rmsd(smina/fragmenstein)>  (11) 
1.38

>  <distance_score>  (11) 
1.40381

>  <orig_smiles>  (11) 
nan

>  <fragmenstein_mode>  (11) 
nan

>  <inchikey>  (11) 
AAWBBETWIZFSKH-RPWUZVMVSA-N

>  <ref_pdb>  (11) 
Z3506a

>  <GNINA pK>  (11) 
nan

>  <gnina_score_min>  (11) 
5.221

>  <tags>  (11) 
openbind_xx01zvns2b_c1_elab_chemspace_filtered_scored_top80percent,openbind_xx01zvns2b_c1_elab_chemspace_filtered_scored,openbind_xx01zvns2b_c1_elab_chemspace_filtered_scored_top40percent,openbind_xx01zvns2b_c1_elab_chemspace_filtered_scored_top20percent,openbind_xx01zvns2b_c1_elab_chemspace_filtered_scored_top60percent,openbind_xx01zvns2b_c1_elabs_filtered

>  <smiles>  (11) 
CC(C)(C)OC(=O)N[C@H]1c2ccccc2C[C@H]1C(=O)Nc1ccc2c(c1)C(=O)N(c1ccc(F)cc1)C2=O

>  <subsites>  (11) 
1 - Z4590/B/203/1

>  <gnina_score>  (11) 
5.637

>  <HIPPO Pose ID>  (11) 
68487

>  <ref_mols>  (11) 
Z3452a,Z3506a

>  <energy_score>  (11) 
-13.295739

>  <inspiration_score>  (11) 
None

>  <smina_score_min>  (11) 
-7.761

>  <fragmenstein_error>  (11) 
nan

>  <name>  (11) 
P68487

$$$$
P68488
     RDKit          3D

 38 42  0  0  0  0  0  0  0  0999 V2000
   -1.8648    9.4342  -13.3559 C   0  0  0  0  0  0  0  0  0  0  0  0
   -1.9916    7.9064  -13.2569 C   0  0  0  0  0  0  0  0  0  0  0  0
   -1.9220    7.5040  -11.7795 C   0  0  0  0  0  0  0  0  0  0  0  0
   -0.8666    7.2674  -14.0791 C   0  0  0  0  0  0  0  0  0  0  0  0
   -3.2937    7.6079  -13.8243 O   0  0  0  0  0  0  0  0  0  0  0  0
   -3.7476    6.3297  -13.8987 C   0  0  0  0  0  0  0  0  0  0  0  0
   -3.1663    5.3947  -13.5419 O   0  0  0  0  0  0  0  0  0  0  0  0
   -5.1317    6.4560  -14.5006 N   0  0  0  0  0  0  0  0  0  0  0  0
   -6.0763    5.4482  -14.8866 C   0  0  2  0  0  0  0  0  0  0  0  0
   -6.0073    5.1055  -16.3471 C   0  0  0  0  0  0  0  0  0  0  0  0
   -4.8977    5.1160  -17.1771 C   0  0  0  0  0  0  0  0  0  0  0  0
   -5.0917    4.8528  -18.5254 C   0  0  0  0  0  0  0  0  0  0  0  0
   -6.3800    4.5895  -19.0101 C   0  0  0  0  0  0  0  0  0  0  0  0
   -7.4917    4.5900  -18.1682 C   0  0  0  0  0  0  0  0  0  0  0  0
   -8.7472    4.4509  -18.6646 O   0  0  0  0  0  0  0  0  0  0  0  0
   -7.3015    4.8154  -16.8295 C   0  0  0  0  0  0  0  0  0  0  0  0
   -8.3101    4.9159  -15.7209 C   0  0  0  0  0  0  0  0  0  0  0  0
   -7.5366    5.9161  -14.8665 C   0  0  1  0  0  0  0  0  0  0  0  0
   -8.0287    6.2920  -13.4968 C   0  0  0  0  0  0  0  0  0  0  0  0
   -8.2805    7.4150  -13.2834 O   0  0  0  0  0  0  0  0  0  0  0  0
   -8.0163    5.0665  -12.5460 N   0  0  0  0  0  0  0  0  0  0  0  0
   -8.2099    4.9886  -11.1740 C   0  0  0  0  0  0  0  0  0  0  0  0
   -8.2243    6.2121  -10.4658 C   0  0  0  0  0  0  0  0  0  0  0  0
   -8.3389    6.2484   -9.0900 C   0  0  0  0  0  0  0  0  0  0  0  0
   -8.4451    5.0350   -8.4635 C   0  0  0  0  0  0  0  0  0  0  0  0
   -8.4488    3.8017   -9.1259 C   0  0  0  0  0  0  0  0  0  0  0  0
   -8.3242    3.7611  -10.5074 C   0  0  0  0  0  0  0  0  0  0  0  0
   -8.6103    2.7081   -8.1146 C   0  0  0  0  0  0  0  0  0  0  0  0
   -8.5513    3.4582   -6.8579 N   0  0  0  0  0  0  0  0  0  0  0  0
   -8.7540    2.8714   -5.5568 C   0  0  2  0  0  0  0  0  0  0  0  0
  -10.1367    3.1427   -4.9631 C   0  0  0  0  0  0  0  0  0  0  0  0
   -9.8369    3.8960   -3.6978 C   0  0  0  0  0  0  0  0  0  0  0  0
  -10.6508    4.3967   -2.9403 O   0  0  0  0  0  0  0  0  0  0  0  0
   -8.5138    3.9508   -3.4727 N   0  0  0  0  0  0  0  0  0  0  0  0
   -7.7949    3.4743   -4.5110 C   0  0  0  0  0  0  0  0  0  0  0  0
   -6.5758    3.5849   -4.5408 O   0  0  0  0  0  0  0  0  0  0  0  0
   -8.5864    4.8168   -7.0365 C   0  0  0  0  0  0  0  0  0  0  0  0
   -8.7252    5.6775   -6.1888 O   0  0  0  0  0  0  0  0  0  0  0  0
  1  2  1  0
  2  3  1  0
  2  4  1  0
  2  5  1  0
  5  6  1  0
  6  7  2  0
  6  8  1  0
  9  8  1  6
  9 10  1  0
 10 11  2  0
 11 12  1  0
 12 13  2  0
 13 14  1  0
 14 15  1  0
 14 16  2  0
 16 17  1  0
 17 18  1  0
 18 19  1  1
 19 20  2  0
 19 21  1  0
 21 22  1  0
 22 23  2  0
 23 24  1  0
 24 25  2  0
 25 26  1  0
 26 27  2  0
 26 28  1  0
 28 29  1  0
 30 29  1  6
 30 31  1  0
 31 32  1  0
 32 33  2  0
 32 34  1  0
 34 35  1  0
 35 36  2  0
 29 37  1  0
 37 38  2  0
 18  9  1  0
 27 22  1  0
 35 30  1  0
 16 10  1  0
 37 25  1  0
M  END
>  <fragmenstein_outcome>  (12) 
nan

>  <exports>  (12) 
['/opt/xchem-fragalysis-2/maxwin/openbind-hippo/xx01zvns2b/cycle_01/syndirella/elabs/openbind_xx01zvns2b_c1_elab_chemspace_filtered.sdf']

>  <Energy>  (12) 
nan

>  <alias>  (12) 
None

>  <fragmenstein_runtime>  (12) 
nan

>  <scratch_subdir>  (12) 
nan

>  <HIPPO Compound ID>  (12) 
135378

>  <rmsd(smina/fragmenstein)>  (12) 
1.31

>  <distance_score>  (12) 
1.432623

>  <orig_smiles>  (12) 
nan

>  <fragmenstein_mode>  (12) 
nan

>  <inchikey>  (12) 
WWCZOWFHJHQQNO-WOIUINJBSA-N

>  <ref_pdb>  (12) 
Z3506a

>  <GNINA pK>  (12) 
nan

>  <gnina_score_min>  (12) 
6.007

>  <tags>  (12) 
openbind_xx01zvns2b_c1_elab_chemspace_filtered_scored_top80percent,openbind_xx01zvns2b_c1_elab_chemspace_filtered_scored,openbind_xx01zvns2b_c1_elab_chemspace_filtered_scored_top40percent,openbind_xx01zvns2b_c1_elab_chemspace_filtered_scored_top20percent,openbind_xx01zvns2b_c1_elab_chemspace_filtered_scored_top60percent,openbind_xx01zvns2b_c1_elabs_filtered

>  <smiles>  (12) 
CC(C)(C)OC(=O)N[C@@H]1c2cccc(O)c2C[C@H]1C(=O)Nc1ccc2c(c1)CN([C@@H]1CC(=O)NC1=O)C2=O

>  <subsites>  (12) 
1 - Z4590/B/203/1

>  <gnina_score>  (12) 
6.16

>  <HIPPO Pose ID>  (12) 
68488

>  <ref_mols>  (12) 
Z3452a,Z3506a

>  <energy_score>  (12) 
-31.358787

>  <inspiration_score>  (12) 
None

>  <smina_score_min>  (12) 
-7.882

>  <fragmenstein_error>  (12) 
nan

>  <name>  (12) 
P68488

$$$$
P68492
     RDKit          3D

 38 42  0  0  0  0  0  0  0  0999 V2000
   -2.2547    6.9507  -11.4826 C   0  0  0  0  0  0  0  0  0  0  0  0
   -3.7238    7.1650  -11.1035 C   0  0  0  0  0  0  0  0  0  0  0  0
   -3.9624    8.6689  -10.8975 C   0  0  0  0  0  0  0  0  0  0  0  0
   -4.0994    6.4314   -9.8113 C   0  0  0  0  0  0  0  0  0  0  0  0
   -4.6121    6.8006  -12.1921 O   0  0  0  0  0  0  0  0  0  0  0  0
   -4.6898    5.5173  -12.6330 C   0  0  0  0  0  0  0  0  0  0  0  0
   -3.9973    4.6353  -12.2374 O   0  0  0  0  0  0  0  0  0  0  0  0
   -5.7544    5.5091  -13.5422 N   0  0  0  0  0  0  0  0  0  0  0  0
   -6.2906    4.4557  -14.3575 C   0  0  2  0  0  0  0  0  0  0  0  0
   -6.0817    4.7543  -15.8089 C   0  0  0  0  0  0  0  0  0  0  0  0
   -4.8692    4.9371  -16.4643 C   0  0  0  0  0  0  0  0  0  0  0  0
   -4.8792    5.1594  -17.8409 C   0  0  0  0  0  0  0  0  0  0  0  0
   -6.0914    5.1966  -18.5414 C   0  0  0  0  0  0  0  0  0  0  0  0
   -7.2982    5.0258  -17.8656 C   0  0  0  0  0  0  0  0  0  0  0  0
   -8.4904    5.0653  -18.5170 O   0  0  0  0  0  0  0  0  0  0  0  0
   -7.2883    4.8086  -16.5015 C   0  0  0  0  0  0  0  0  0  0  0  0
   -8.4613    4.6202  -15.5967 C   0  0  0  0  0  0  0  0  0  0  0  0
   -7.8247    4.2317  -14.2418 C   0  0  2  0  0  0  0  0  0  0  0  0
   -8.4087    5.0161  -13.0578 C   0  0  0  0  0  0  0  0  0  0  0  0
   -8.9160    6.0882  -13.2463 O   0  0  0  0  0  0  0  0  0  0  0  0
   -8.1397    4.3011  -11.8282 N   0  0  0  0  0  0  0  0  0  0  0  0
   -8.3029    4.6786  -10.4972 C   0  0  0  0  0  0  0  0  0  0  0  0
   -8.4794    6.0297  -10.1277 C   0  0  0  0  0  0  0  0  0  0  0  0
   -8.5846    6.4073   -8.7803 C   0  0  0  0  0  0  0  0  0  0  0  0
   -8.5386    5.4045   -7.8419 C   0  0  0  0  0  0  0  0  0  0  0  0
   -8.3674    4.0907   -8.2080 C   0  0  0  0  0  0  0  0  0  0  0  0
   -8.2315    3.6867   -9.5181 C   0  0  0  0  0  0  0  0  0  0  0  0
   -8.2702    3.4090   -6.8882 C   0  0  2  0  0  0  0  0  0  0  0  0
   -9.6182    3.2766   -6.1832 C   0  0  0  0  0  0  0  0  0  0  0  0
   -9.7947    4.7105   -5.7413 C   0  0  0  0  0  0  0  0  0  0  0  0
   -8.5276    5.3265   -6.3418 C   0  0  1  0  0  0  0  0  0  0  0  0
   -7.4280    4.3211   -5.9665 N   0  0  0  0  0  0  0  0  0  0  0  0
   -6.1210    4.9098   -6.1581 C   0  0  0  0  0  0  0  0  0  0  0  0
   -5.3946    4.9105   -7.1226 O   0  0  0  0  0  0  0  0  0  0  0  0
   -5.6588    5.5170   -4.8155 C   0  0  0  0  0  0  0  0  0  0  0  0
   -6.6236    6.2497   -4.1866 F   0  0  0  0  0  0  0  0  0  0  0  0
   -5.3090    4.5233   -3.9369 F   0  0  0  0  0  0  0  0  0  0  0  0
   -4.5719    6.3300   -4.9229 F   0  0  0  0  0  0  0  0  0  0  0  0
  1  2  1  0
  2  3  1  0
  2  4  1  0
  2  5  1  0
  5  6  1  0
  6  7  2  0
  6  8  1  0
  9  8  1  1
  9 10  1  0
 10 11  2  0
 11 12  1  0
 12 13  2  0
 13 14  1  0
 14 15  1  0
 14 16  2  0
 16 17  1  0
 17 18  1  0
 18 19  1  1
 19 20  2  0
 19 21  1  0
 21 22  1  0
 22 23  2  0
 23 24  1  0
 24 25  2  0
 25 26  1  0
 26 27  2  0
 26 28  1  0
 28 29  1  1
 29 30  1  0
 31 30  1  6
 31 32  1  0
 32 33  1  0
 33 34  2  0
 33 35  1  0
 35 36  1  0
 35 37  1  0
 35 38  1  0
 18  9  1  0
 27 22  1  0
 32 28  1  0
 16 10  1  0
 31 25  1  0
M  END
>  <fragmenstein_outcome>  (13) 
nan

>  <exports>  (13) 
['/opt/xchem-fragalysis-2/maxwin/openbind-hippo/xx01zvns2b/cycle_01/syndirella/elabs/openbind_xx01zvns2b_c1_elab_chemspace_filtered.sdf']

>  <Energy>  (13) 
nan

>  <alias>  (13) 
None

>  <fragmenstein_runtime>  (13) 
nan

>  <scratch_subdir>  (13) 
nan

>  <HIPPO Compound ID>  (13) 
135379

>  <rmsd(smina/fragmenstein)>  (13) 
0.656

>  <distance_score>  (13) 
1.860025

>  <orig_smiles>  (13) 
nan

>  <fragmenstein_mode>  (13) 
nan

>  <inchikey>  (13) 
QHLGPZLMTWVUNY-CUXKYVRBSA-N

>  <ref_pdb>  (13) 
Z3506a

>  <GNINA pK>  (13) 
nan

>  <gnina_score_min>  (13) 
5.865

>  <tags>  (13) 
openbind_xx01zvns2b_c1_elab_chemspace_filtered_scored_top80percent,openbind_xx01zvns2b_c1_elab_chemspace_filtered_scored,openbind_xx01zvns2b_c1_elab_chemspace_filtered_scored_top40percent,openbind_xx01zvns2b_c1_elab_chemspace_filtered_scored_top20percent,openbind_xx01zvns2b_c1_elab_chemspace_filtered_scored_top60percent,openbind_xx01zvns2b_c1_elabs_filtered

>  <smiles>  (13) 
CC(C)(C)OC(=O)N[C@@H]1c2cccc(O)c2C[C@@H]1C(=O)Nc1ccc2c(c1)[C@@H]1CC[C@H]2N1C(=O)C(F)(F)F

>  <subsites>  (13) 
1 - Z4590/B/203/1

>  <gnina_score>  (13) 
6.043

>  <HIPPO Pose ID>  (13) 
68492

>  <ref_mols>  (13) 
Z3452a,Z3506a

>  <energy_score>  (13) 
-22.091532

>  <inspiration_score>  (13) 
None

>  <smina_score_min>  (13) 
-7.039

>  <fragmenstein_error>  (13) 
nan

>  <name>  (13) 
P68492

$$$$
P68495
     RDKit          3D

 38 42  0  0  0  0  0  0  0  0999 V2000
   -3.0203    2.1156  -12.9386 C   0  0  0  0  0  0  0  0  0  0  0  0
   -3.4629    3.2892  -12.0626 C   0  0  0  0  0  0  0  0  0  0  0  0
   -4.5109    2.8703  -11.0234 C   0  0  0  0  0  0  0  0  0  0  0  0
   -2.2373    3.8400  -11.3179 C   0  0  0  0  0  0  0  0  0  0  0  0
   -3.9147    4.3860  -12.8978 O   0  0  0  0  0  0  0  0  0  0  0  0
   -5.0777    4.3100  -13.5966 C   0  0  0  0  0  0  0  0  0  0  0  0
   -5.8099    3.4130  -13.5813 O   0  0  0  0  0  0  0  0  0  0  0  0
   -5.1940    5.6631  -14.2697 N   0  0  0  0  0  0  0  0  0  0  0  0
   -6.1988    6.1831  -15.1556 C   0  0  1  0  0  0  0  0  0  0  0  0
   -6.2198    5.5355  -16.5032 C   0  0  0  0  0  0  0  0  0  0  0  0
   -5.2928    5.6898  -17.5195 C   0  0  0  0  0  0  0  0  0  0  0  0
   -5.5814    5.1135  -18.7486 C   0  0  0  0  0  0  0  0  0  0  0  0
   -6.7841    4.4178  -18.9347 C   0  0  0  0  0  0  0  0  0  0  0  0
   -7.7133    4.2581  -17.9087 C   0  0  0  0  0  0  0  0  0  0  0  0
   -7.4035    4.7933  -16.6819 C   0  0  0  0  0  0  0  0  0  0  0  0
   -8.2018    4.7235  -15.4135 C   0  0  0  0  0  0  0  0  0  0  0  0
   -7.6761    6.0006  -14.7693 C   0  0  1  0  0  0  0  0  0  0  0  0
   -7.9324    6.4168  -13.3488 C   0  0  0  0  0  0  0  0  0  0  0  0
   -8.0294    7.5600  -13.1143 O   0  0  0  0  0  0  0  0  0  0  0  0
   -7.9230    5.1927  -12.3965 N   0  0  0  0  0  0  0  0  0  0  0  0
   -8.1177    5.1169  -11.0271 C   0  0  0  0  0  0  0  0  0  0  0  0
   -8.1559    6.3382  -10.3132 C   0  0  0  0  0  0  0  0  0  0  0  0
   -8.2946    6.3701   -8.9373 C   0  0  0  0  0  0  0  0  0  0  0  0
   -8.3997    5.1533   -8.3191 C   0  0  0  0  0  0  0  0  0  0  0  0
   -8.3830    3.9441   -8.9981 C   0  0  0  0  0  0  0  0  0  0  0  0
   -8.2377    3.8871  -10.3722 C   0  0  0  0  0  0  0  0  0  0  0  0
   -8.5596    2.9022   -7.9843 C   0  0  0  0  0  0  0  0  0  0  0  0
   -8.7277    1.7268   -8.2280 O   0  0  0  0  0  0  0  0  0  0  0  0
   -8.5661    3.5428   -6.7725 N   0  0  0  0  0  0  0  0  0  0  0  0
   -8.7878    2.9097   -5.5002 C   0  0  2  0  0  0  0  0  0  0  0  0
  -10.1581    3.2002   -4.8863 C   0  0  0  0  0  0  0  0  0  0  0  0
   -9.8227    3.9127   -3.6056 C   0  0  0  0  0  0  0  0  0  0  0  0
  -10.6076    4.4456   -2.8395 O   0  0  0  0  0  0  0  0  0  0  0  0
   -8.4961    3.9012   -3.3865 N   0  0  0  0  0  0  0  0  0  0  0  0
   -7.8059    3.4649   -4.4622 C   0  0  0  0  0  0  0  0  0  0  0  0
   -6.5903    3.5932   -4.5328 O   0  0  0  0  0  0  0  0  0  0  0  0
   -8.5834    4.8923   -6.9096 C   0  0  0  0  0  0  0  0  0  0  0  0
   -8.7577    5.7390   -6.0530 O   0  0  0  0  0  0  0  0  0  0  0  0
  1  2  1  0
  2  3  1  0
  2  4  1  0
  2  5  1  0
  5  6  1  0
  6  7  2  0
  6  8  1  0
  9  8  1  1
  9 10  1  0
 10 11  2  0
 11 12  1  0
 12 13  2  0
 13 14  1  0
 14 15  2  0
 15 16  1  0
 16 17  1  0
 17 18  1  1
 18 19  2  0
 18 20  1  0
 20 21  1  0
 21 22  2  0
 22 23  1  0
 23 24  2  0
 24 25  1  0
 25 26  2  0
 25 27  1  0
 27 28  2  0
 27 29  1  0
 30 29  1  6
 30 31  1  0
 31 32  1  0
 32 33  2  0
 32 34  1  0
 34 35  1  0
 35 36  2  0
 29 37  1  0
 37 38  2  0
 17  9  1  0
 26 21  1  0
 35 30  1  0
 15 10  1  0
 37 24  1  0
M  END
>  <fragmenstein_outcome>  (14) 
nan

>  <exports>  (14) 
['/opt/xchem-fragalysis-2/maxwin/openbind-hippo/xx01zvns2b/cycle_01/syndirella/elabs/openbind_xx01zvns2b_c1_elab_chemspace_filtered.sdf']

>  <Energy>  (14) 
nan

>  <alias>  (14) 
None

>  <fragmenstein_runtime>  (14) 
nan

>  <scratch_subdir>  (14) 
nan

>  <HIPPO Compound ID>  (14) 
135380

>  <rmsd(smina/fragmenstein)>  (14) 
1.229

>  <distance_score>  (14) 
1.311421

>  <orig_smiles>  (14) 
nan

>  <fragmenstein_mode>  (14) 
nan

>  <inchikey>  (14) 
HPQLNVJAYQRNEU-SBHAEUEKSA-N

>  <ref_pdb>  (14) 
Z3506a

>  <GNINA pK>  (14) 
nan

>  <gnina_score_min>  (14) 
5.236

>  <tags>  (14) 
openbind_xx01zvns2b_c1_elab_chemspace_filtered_scored_top80percent,openbind_xx01zvns2b_c1_elab_chemspace_filtered_scored,openbind_xx01zvns2b_c1_elab_chemspace_filtered_scored_top40percent,openbind_xx01zvns2b_c1_elab_chemspace_filtered_scored_top20percent,openbind_xx01zvns2b_c1_elab_chemspace_filtered_scored_top60percent,openbind_xx01zvns2b_c1_elabs_filtered

>  <smiles>  (14) 
CC(C)(C)OC(=O)N[C@H]1c2ccccc2C[C@H]1C(=O)Nc1ccc2c(c1)C(=O)N([C@@H]1CC(=O)NC1=O)C2=O

>  <subsites>  (14) 
1 - Z4590/B/203/1

>  <gnina_score>  (14) 
5.956

>  <HIPPO Pose ID>  (14) 
68495

>  <ref_mols>  (14) 
Z3452a,Z3506a

>  <energy_score>  (14) 
-72.205909

>  <inspiration_score>  (14) 
None

>  <smina_score_min>  (14) 
-8.033

>  <fragmenstein_error>  (14) 
nan

>  <name>  (14) 
P68495

$$$$
P68505
     RDKit          3D

 39 43  0  0  0  0  0  0  0  0999 V2000
   -4.4790    2.2842  -10.8541 C   0  0  0  0  0  0  0  0  0  0  0  0
   -3.4973    2.8263  -11.9019 C   0  0  0  0  0  0  0  0  0  0  0  0
   -2.3712    3.5704  -11.1673 C   0  0  0  0  0  0  0  0  0  0  0  0
   -2.8770    1.7122  -12.7489 C   0  0  0  0  0  0  0  0  0  0  0  0
   -4.1012    3.8284  -12.7626 O   0  0  0  0  0  0  0  0  0  0  0  0
   -5.2287    3.5490  -13.4673 C   0  0  0  0  0  0  0  0  0  0  0  0
   -5.7952    2.5400  -13.4458 O   0  0  0  0  0  0  0  0  0  0  0  0
   -5.5264    4.8274  -14.2236 N   0  0  0  0  0  0  0  0  0  0  0  0
   -6.6486    5.1852  -15.0564 C   0  0  1  0  0  0  0  0  0  0  0  0
   -6.3745    5.0536  -16.5150 C   0  0  0  0  0  0  0  0  0  0  0  0
   -5.1910    5.3084  -17.1910 C   0  0  0  0  0  0  0  0  0  0  0  0
   -5.1629    5.0888  -18.5600 C   0  0  0  0  0  0  0  0  0  0  0  0
   -6.3118    4.6389  -19.2162 C   0  0  0  0  0  0  0  0  0  0  0  0
   -7.5165    4.4328  -18.5379 C   0  0  0  0  0  0  0  0  0  0  0  0
   -7.5352    4.6381  -17.1802 C   0  0  0  0  0  0  0  0  0  0  0  0
   -8.6836    4.4546  -16.2411 C   0  0  0  0  0  0  0  0  0  0  0  0
   -7.9409    4.3314  -14.9119 C   0  0  2  0  0  0  0  0  0  0  0  0
   -8.6399    4.9690  -13.7425 C   0  0  0  0  0  0  0  0  0  0  0  0
   -9.3008    5.9305  -13.8229 O   0  0  0  0  0  0  0  0  0  0  0  0
   -8.1997    4.1512  -12.4968 N   0  0  0  0  0  0  0  0  0  0  0  0
   -8.3932    4.3911  -11.1599 C   0  0  0  0  0  0  0  0  0  0  0  0
   -8.3608    5.7433  -10.7426 C   0  0  0  0  0  0  0  0  0  0  0  0
   -8.3473    6.0667   -9.3965 C   0  0  0  0  0  0  0  0  0  0  0  0
   -8.4279    5.0071   -8.5273 C   0  0  0  0  0  0  0  0  0  0  0  0
   -8.5336    3.6866   -8.9381 C   0  0  0  0  0  0  0  0  0  0  0  0
   -8.4677    3.3323  -10.2627 C   0  0  0  0  0  0  0  0  0  0  0  0
   -8.7259    2.8807   -7.7393 C   0  0  0  0  0  0  0  0  0  0  0  0
   -8.9803    1.6953   -7.7296 O   0  0  0  0  0  0  0  0  0  0  0  0
   -8.6024    3.7441   -6.6829 N   0  0  0  0  0  0  0  0  0  0  0  0
   -8.7538    3.3611   -5.3054 C   0  0  1  0  0  0  0  0  0  0  0  0
   -7.6195    3.8664   -4.4056 C   0  0  0  0  0  0  0  0  0  0  0  0
   -7.9955    5.0137   -3.4810 C   0  0  0  0  0  0  0  0  0  0  0  0
   -9.3064    4.7666   -2.7851 C   0  0  0  0  0  0  0  0  0  0  0  0
   -9.6035    5.3125   -1.7258 O   0  0  0  0  0  0  0  0  0  0  0  0
  -10.2067    3.9903   -3.4541 N   0  0  0  0  0  0  0  0  0  0  0  0
  -10.1283    3.7948   -4.8064 C   0  0  0  0  0  0  0  0  0  0  0  0
  -11.1120    3.9727   -5.5189 O   0  0  0  0  0  0  0  0  0  0  0  0
   -8.4532    5.0322   -7.0818 C   0  0  0  0  0  0  0  0  0  0  0  0
   -8.3559    6.0367   -6.4036 O   0  0  0  0  0  0  0  0  0  0  0  0
  1  2  1  0
  2  3  1  0
  2  4  1  0
  2  5  1  0
  5  6  1  0
  6  7  2  0
  6  8  1  0
  9  8  1  1
  9 10  1  0
 10 11  2  0
 11 12  1  0
 12 13  2  0
 13 14  1  0
 14 15  2  0
 15 16  1  0
 16 17  1  0
 17 18  1  1
 18 19  2  0
 18 20  1  0
 20 21  1  0
 21 22  2  0
 22 23  1  0
 23 24  2  0
 24 25  1  0
 25 26  2  0
 25 27  1  0
 27 28  2  0
 27 29  1  0
 30 29  1  6
 30 31  1  0
 31 32  1  0
 32 33  1  0
 33 34  2  0
 33 35  1  0
 35 36  1  0
 36 37  2  0
 29 38  1  0
 38 39  2  0
 17  9  1  0
 26 21  1  0
 36 30  1  0
 15 10  1  0
 38 24  1  0
M  END
>  <fragmenstein_outcome>  (15) 
nan

>  <exports>  (15) 
['/opt/xchem-fragalysis-2/maxwin/openbind-hippo/xx01zvns2b/cycle_01/syndirella/elabs/openbind_xx01zvns2b_c1_elab_chemspace_filtered.sdf']

>  <Energy>  (15) 
nan

>  <alias>  (15) 
None

>  <fragmenstein_runtime>  (15) 
nan

>  <scratch_subdir>  (15) 
nan

>  <HIPPO Compound ID>  (15) 
135381

>  <rmsd(smina/fragmenstein)>  (15) 
0.328

>  <distance_score>  (15) 
1.280459

>  <orig_smiles>  (15) 
nan

>  <fragmenstein_mode>  (15) 
nan

>  <inchikey>  (15) 
KEOMYAMMYWSPNJ-ONTIZHBOSA-N

>  <ref_pdb>  (15) 
Z3506a

>  <GNINA pK>  (15) 
nan

>  <gnina_score_min>  (15) 
5.68

>  <tags>  (15) 
openbind_xx01zvns2b_c1_elab_chemspace_filtered_scored_top80percent,openbind_xx01zvns2b_c1_elab_chemspace_filtered_scored,openbind_xx01zvns2b_c1_elab_chemspace_filtered_scored_top40percent,openbind_xx01zvns2b_c1_elab_chemspace_filtered_scored_top20percent,openbind_xx01zvns2b_c1_elab_chemspace_filtered_scored_top60percent,openbind_xx01zvns2b_c1_elabs_filtered

>  <smiles>  (15) 
CC(C)(C)OC(=O)N[C@H]1c2ccccc2C[C@@H]1C(=O)Nc1ccc2c(c1)C(=O)N([C@H]1CCC(=O)NC1=O)C2=O

>  <subsites>  (15) 
1 - Z4590/B/203/1

>  <gnina_score>  (15) 
5.883

>  <HIPPO Pose ID>  (15) 
68505

>  <ref_mols>  (15) 
Z3452a,Z3506a

>  <energy_score>  (15) 
-35.789217

>  <inspiration_score>  (15) 
None

>  <smina_score_min>  (15) 
-9.677

>  <fragmenstein_error>  (15) 
nan

>  <name>  (15) 
P68505

$$$$
P68506
     RDKit          3D

 39 43  0  0  0  0  0  0  0  0999 V2000
   -4.2828    5.5549  -20.0327 C   0  0  0  0  0  0  0  0  0  0  0  0
   -5.2492    5.3206  -18.9118 C   0  0  0  0  0  0  0  0  0  0  0  0
   -6.4109    4.5554  -19.1254 C   0  0  0  0  0  0  0  0  0  0  0  0
   -7.3723    4.3601  -18.1319 C   0  0  0  0  0  0  0  0  0  0  0  0
   -7.1312    4.9096  -16.8976 C   0  0  0  0  0  0  0  0  0  0  0  0
   -5.9656    5.6631  -16.6714 C   0  0  0  0  0  0  0  0  0  0  0  0
   -5.0142    5.8635  -17.6539 C   0  0  0  0  0  0  0  0  0  0  0  0
   -5.9772    6.2788  -15.3134 C   0  0  2  0  0  0  0  0  0  0  0  0
   -5.0049    5.7203  -14.4095 N   0  0  0  0  0  0  0  0  0  0  0  0
   -4.9005    4.3305  -13.8075 C   0  0  0  0  0  0  0  0  0  0  0  0
   -5.6201    3.4253  -13.8770 O   0  0  0  0  0  0  0  0  0  0  0  0
   -3.7583    4.3696  -13.0716 O   0  0  0  0  0  0  0  0  0  0  0  0
   -3.3634    3.2565  -12.2270 C   0  0  0  0  0  0  0  0  0  0  0  0
   -4.4543    2.8763  -11.2184 C   0  0  0  0  0  0  0  0  0  0  0  0
   -2.1426    3.7686  -11.4471 C   0  0  0  0  0  0  0  0  0  0  0  0
   -2.9350    2.0617  -13.0806 C   0  0  0  0  0  0  0  0  0  0  0  0
   -7.4681    6.1075  -14.9812 C   0  0  2  0  0  0  0  0  0  0  0  0
   -7.7086    6.4899  -13.5503 C   0  0  0  0  0  0  0  0  0  0  0  0
   -7.7725    7.6168  -13.2500 O   0  0  0  0  0  0  0  0  0  0  0  0
   -7.7321    5.2199  -12.6768 N   0  0  0  0  0  0  0  0  0  0  0  0
   -7.7430    5.0766  -11.3115 C   0  0  0  0  0  0  0  0  0  0  0  0
   -7.3527    6.1674  -10.5044 C   0  0  0  0  0  0  0  0  0  0  0  0
   -7.2713    6.0398   -9.1246 C   0  0  0  0  0  0  0  0  0  0  0  0
   -7.6337    4.8215   -8.6069 C   0  0  0  0  0  0  0  0  0  0  0  0
   -8.0653    3.7821   -9.4007 C   0  0  0  0  0  0  0  0  0  0  0  0
   -8.1035    3.8526  -10.7711 C   0  0  0  0  0  0  0  0  0  0  0  0
   -8.6401    2.7824   -8.5364 C   0  0  0  0  0  0  0  0  0  0  0  0
   -9.2329    1.8436   -9.0304 O   0  0  0  0  0  0  0  0  0  0  0  0
   -8.5128    3.2577   -7.2457 N   0  0  0  0  0  0  0  0  0  0  0  0
   -9.3804    2.8595   -6.2110 C   0  0  0  0  0  0  0  0  0  0  0  0
  -10.1940    1.7483   -6.4024 C   0  0  0  0  0  0  0  0  0  0  0  0
  -11.3271    1.5948   -5.6404 C   0  0  0  0  0  0  0  0  0  0  0  0
  -11.6013    2.4658   -4.6208 C   0  0  0  0  0  0  0  0  0  0  0  0
  -12.7345    2.2941   -3.9299 F   0  0  0  0  0  0  0  0  0  0  0  0
  -10.7157    3.4781   -4.2954 C   0  0  0  0  0  0  0  0  0  0  0  0
   -9.6017    3.6799   -5.0941 C   0  0  0  0  0  0  0  0  0  0  0  0
   -7.8108    4.4376   -7.2230 C   0  0  0  0  0  0  0  0  0  0  0  0
   -7.4046    5.1429   -6.3143 O   0  0  0  0  0  0  0  0  0  0  0  0
   -7.9832    4.8406  -15.6655 C   0  0  0  0  0  0  0  0  0  0  0  0
  1  2  1  0
  2  3  2  0
  3  4  1  0
  4  5  2  0
  5  6  1  0
  6  7  2  0
  6  8  1  0
  8  9  1  1
  9 10  1  0
 10 11  2  0
 10 12  1  0
 12 13  1  0
 13 14  1  0
 13 15  1  0
 13 16  1  0
  8 17  1  0
 17 18  1  1
 18 19  2  0
 18 20  1  0
 20 21  1  0
 21 22  2  0
 22 23  1  0
 23 24  2  0
 24 25  1  0
 25 26  2  0
 25 27  1  0
 27 28  2  0
 27 29  1  0
 29 30  1  0
 30 31  2  0
 31 32  1  0
 32 33  2  0
 33 34  1  0
 33 35  1  0
 35 36  2  0
 29 37  1  0
 37 38  2  0
 17 39  1  0
  7  2  1  0
 26 21  1  0
 36 30  1  0
 39  5  1  0
 37 24  1  0
M  END
>  <fragmenstein_outcome>  (16) 
nan

>  <exports>  (16) 
['/opt/xchem-fragalysis-2/maxwin/openbind-hippo/xx01zvns2b/cycle_01/syndirella/elabs/openbind_xx01zvns2b_c1_elab_chemspace_filtered.sdf']

>  <Energy>  (16) 
nan

>  <alias>  (16) 
None

>  <fragmenstein_runtime>  (16) 
nan

>  <scratch_subdir>  (16) 
nan

>  <HIPPO Compound ID>  (16) 
135382

>  <rmsd(smina/fragmenstein)>  (16) 
1.373

>  <distance_score>  (16) 
1.343633

>  <orig_smiles>  (16) 
nan

>  <fragmenstein_mode>  (16) 
nan

>  <inchikey>  (16) 
FXAJSMVYAJDSMW-RPBOFIJWSA-N

>  <ref_pdb>  (16) 
Z3506a

>  <GNINA pK>  (16) 
nan

>  <gnina_score_min>  (16) 
5.501

>  <tags>  (16) 
openbind_xx01zvns2b_c1_elab_chemspace_filtered_scored_top80percent,openbind_xx01zvns2b_c1_elab_chemspace_filtered_scored,openbind_xx01zvns2b_c1_elab_chemspace_filtered_scored_top40percent,openbind_xx01zvns2b_c1_elab_chemspace_filtered_scored_top20percent,openbind_xx01zvns2b_c1_elab_chemspace_filtered_scored_top60percent,openbind_xx01zvns2b_c1_elabs_filtered

>  <smiles>  (16) 
Cc1ccc2c(c1)[C@H](NC(=O)OC(C)(C)C)[C@H](C(=O)Nc1ccc3c(c1)C(=O)N(c1ccc(F)cc1)C3=O)C2

>  <subsites>  (16) 
1 - Z4590/B/203/1

>  <gnina_score>  (16) 
5.808

>  <HIPPO Pose ID>  (16) 
68506

>  <ref_mols>  (16) 
Z3452a,Z3506a

>  <energy_score>  (16) 
-18.734732

>  <inspiration_score>  (16) 
None

>  <smina_score_min>  (16) 
-8.667

>  <fragmenstein_error>  (16) 
nan

>  <name>  (16) 
P68506

$$$$
P68507
     RDKit          3D

 39 43  0  0  0  0  0  0  0  0999 V2000
   -3.8331    5.3699  -19.0528 C   0  0  0  0  0  0  0  0  0  0  0  0
   -5.1222    5.0970  -18.3401 C   0  0  0  0  0  0  0  0  0  0  0  0
   -6.2750    4.7510  -19.0602 C   0  0  0  0  0  0  0  0  0  0  0  0
   -7.4968    4.4958  -18.4284 C   0  0  0  0  0  0  0  0  0  0  0  0
   -7.5390    4.5320  -17.0549 C   0  0  0  0  0  0  0  0  0  0  0  0
   -6.3845    4.8186  -16.3272 C   0  0  0  0  0  0  0  0  0  0  0  0
   -5.1821    5.1286  -16.9487 C   0  0  0  0  0  0  0  0  0  0  0  0
   -6.6551    4.7578  -14.8651 C   0  0  2  0  0  0  0  0  0  0  0  0
   -5.6607    4.0087  -14.1411 N   0  0  0  0  0  0  0  0  0  0  0  0
   -4.9275    4.3311  -12.8547 C   0  0  0  0  0  0  0  0  0  0  0  0
   -4.9426    5.2855  -12.2011 O   0  0  0  0  0  0  0  0  0  0  0  0
   -4.2462    3.1935  -12.5597 O   0  0  0  0  0  0  0  0  0  0  0  0
   -3.5250    3.0691  -11.3050 C   0  0  0  0  0  0  0  0  0  0  0  0
   -2.9263    1.6546  -11.3340 C   0  0  0  0  0  0  0  0  0  0  0  0
   -2.3779    4.0818  -11.2182 C   0  0  0  0  0  0  0  0  0  0  0  0
   -4.4734    3.1694  -10.1034 C   0  0  0  0  0  0  0  0  0  0  0  0
   -8.0609    4.0890  -14.8002 C   0  0  1  0  0  0  0  0  0  0  0  0
   -8.7428    4.8486  -13.6931 C   0  0  0  0  0  0  0  0  0  0  0  0
   -9.4561    5.7582  -13.8782 O   0  0  0  0  0  0  0  0  0  0  0  0
   -8.2112    4.2362  -12.3606 N   0  0  0  0  0  0  0  0  0  0  0  0
   -8.3659    4.6569  -11.0623 C   0  0  0  0  0  0  0  0  0  0  0  0
   -8.3435    6.0670  -10.9278 C   0  0  0  0  0  0  0  0  0  0  0  0
   -8.3296    6.6602   -9.6908 C   0  0  0  0  0  0  0  0  0  0  0  0
   -8.4078    5.7964   -8.6344 C   0  0  0  0  0  0  0  0  0  0  0  0
   -8.4750    4.4127   -8.7313 C   0  0  0  0  0  0  0  0  0  0  0  0
   -8.3962    3.7933   -9.9628 C   0  0  0  0  0  0  0  0  0  0  0  0
   -8.6530    3.9315   -7.3478 C   0  0  0  0  0  0  0  0  0  0  0  0
   -8.5962    2.7773   -6.9828 O   0  0  0  0  0  0  0  0  0  0  0  0
   -8.8429    5.0539   -6.5718 N   0  0  0  0  0  0  0  0  0  0  0  0
   -8.8492    5.1805   -5.1367 C   0  0  2  0  0  0  0  0  0  0  0  0
   -7.4664    5.2613   -4.5316 C   0  0  0  0  0  0  0  0  0  0  0  0
   -7.3565    3.9380   -3.8815 C   0  0  0  0  0  0  0  0  0  0  0  0
   -6.2798    3.4615   -3.5543 O   0  0  0  0  0  0  0  0  0  0  0  0
   -8.5924    3.4047   -3.7171 N   0  0  0  0  0  0  0  0  0  0  0  0
   -9.5382    4.0462   -4.4467 C   0  0  0  0  0  0  0  0  0  0  0  0
  -10.7182    3.7604   -4.5488 O   0  0  0  0  0  0  0  0  0  0  0  0
   -8.4846    6.1714   -7.2534 C   0  0  0  0  0  0  0  0  0  0  0  0
   -8.1684    7.2630   -6.8166 O   0  0  0  0  0  0  0  0  0  0  0  0
   -8.7178    4.2919  -16.1723 C   0  0  0  0  0  0  0  0  0  0  0  0
  1  2  1  0
  2  3  2  0
  3  4  1  0
  4  5  2  0
  5  6  1  0
  6  7  2  0
  6  8  1  0
  8  9  1  1
  9 10  1  0
 10 11  2  0
 10 12  1  0
 12 13  1  0
 13 14  1  0
 13 15  1  0
 13 16  1  0
  8 17  1  0
 17 18  1  1
 18 19  2  0
 18 20  1  0
 20 21  1  0
 21 22  2  0
 22 23  1  0
 23 24  2  0
 24 25  1  0
 25 26  2  0
 25 27  1  0
 27 28  2  0
 27 29  1  0
 30 29  1  6
 30 31  1  0
 31 32  1  0
 32 33  2  0
 32 34  1  0
 34 35  1  0
 35 36  2  0
 29 37  1  0
 37 38  2  0
 17 39  1  0
  7  2  1  0
 26 21  1  0
 35 30  1  0
 39  5  1  0
 37 24  1  0
M  END
>  <fragmenstein_outcome>  (17) 
nan

>  <exports>  (17) 
['/opt/xchem-fragalysis-2/maxwin/openbind-hippo/xx01zvns2b/cycle_01/syndirella/elabs/openbind_xx01zvns2b_c1_elab_chemspace_filtered.sdf']

>  <Energy>  (17) 
nan

>  <alias>  (17) 
None

>  <fragmenstein_runtime>  (17) 
nan

>  <scratch_subdir>  (17) 
nan

>  <HIPPO Compound ID>  (17) 
135384

>  <rmsd(smina/fragmenstein)>  (17) 
0.425

>  <distance_score>  (17) 
1.599063

>  <orig_smiles>  (17) 
nan

>  <fragmenstein_mode>  (17) 
nan

>  <inchikey>  (17) 
LZKCAZUQAYNXJG-VWPQPMDRSA-N

>  <ref_pdb>  (17) 
Z3506a

>  <GNINA pK>  (17) 
nan

>  <gnina_score_min>  (17) 
5.628

>  <tags>  (17) 
openbind_xx01zvns2b_c1_elab_chemspace_filtered_scored_top80percent,openbind_xx01zvns2b_c1_elab_chemspace_filtered_scored,openbind_xx01zvns2b_c1_elab_chemspace_filtered_scored_top40percent,openbind_xx01zvns2b_c1_elab_chemspace_filtered_scored_top20percent,openbind_xx01zvns2b_c1_elab_chemspace_filtered_scored_top60percent,openbind_xx01zvns2b_c1_elabs_filtered

>  <smiles>  (17) 
Cc1ccc2c(c1)[C@H](NC(=O)OC(C)(C)C)[C@@H](C(=O)Nc1ccc3c(c1)C(=O)N([C@@H]1CC(=O)NC1=O)C3=O)C2

>  <subsites>  (17) 
1 - Z4590/B/203/1

>  <gnina_score>  (17) 
6.093

>  <HIPPO Pose ID>  (17) 
68507

>  <ref_mols>  (17) 
Z3452a,Z3506a

>  <energy_score>  (17) 
-14.931308

>  <inspiration_score>  (17) 
None

>  <smina_score_min>  (17) 
-9.156

>  <fragmenstein_error>  (17) 
nan

>  <name>  (17) 
P68507

$$$$
P68511
     RDKit          3D

 39 43  0  0  0  0  0  0  0  0999 V2000
   -0.2019    6.4883  -15.6307 C   0  0  0  0  0  0  0  0  0  0  0  0
   -0.8070    6.0217  -14.3023 C   0  0  0  0  0  0  0  0  0  0  0  0
   -0.7910    7.1312  -13.2427 C   0  0  0  0  0  0  0  0  0  0  0  0
    0.0228    4.8422  -13.7720 C   0  0  0  0  0  0  0  0  0  0  0  0
   -2.1436    5.4837  -14.4907 O   0  0  0  0  0  0  0  0  0  0  0  0
   -3.1648    6.2881  -14.8962 C   0  0  0  0  0  0  0  0  0  0  0  0
   -3.0220    7.4293  -15.2004 O   0  0  0  0  0  0  0  0  0  0  0  0
   -4.3141    5.4865  -14.8533 N   0  0  0  0  0  0  0  0  0  0  0  0
   -5.7008    5.8088  -15.0715 C   0  0  1  0  0  0  0  0  0  0  0  0
   -6.2180    5.3007  -16.3811 C   0  0  0  0  0  0  0  0  0  0  0  0
   -5.5970    5.3409  -17.6194 C   0  0  0  0  0  0  0  0  0  0  0  0
   -6.2983    4.8560  -18.7185 C   0  0  0  0  0  0  0  0  0  0  0  0
   -7.6079    4.3702  -18.5716 C   0  0  0  0  0  0  0  0  0  0  0  0
   -8.2267    4.3627  -17.3288 C   0  0  0  0  0  0  0  0  0  0  0  0
   -9.5015    3.9205  -17.1741 O   0  0  0  0  0  0  0  0  0  0  0  0
   -7.5222    4.8100  -16.2351 C   0  0  0  0  0  0  0  0  0  0  0  0
   -7.9835    4.8970  -14.8174 C   0  0  0  0  0  0  0  0  0  0  0  0
   -6.6507    5.0987  -14.0778 C   0  0  2  0  0  0  0  0  0  0  0  0
   -6.8412    5.9303  -12.8177 C   0  0  0  0  0  0  0  0  0  0  0  0
   -6.4623    7.0678  -12.8003 O   0  0  0  0  0  0  0  0  0  0  0  0
   -7.4280    5.1142  -11.7767 N   0  0  0  0  0  0  0  0  0  0  0  0
   -7.6426    5.3739  -10.4259 C   0  0  0  0  0  0  0  0  0  0  0  0
   -7.2802    6.6295   -9.8952 C   0  0  0  0  0  0  0  0  0  0  0  0
   -7.3352    6.8825   -8.5272 C   0  0  0  0  0  0  0  0  0  0  0  0
   -7.7743    5.8663   -7.7087 C   0  0  0  0  0  0  0  0  0  0  0  0
   -8.1947    4.6476   -8.2409 C   0  0  0  0  0  0  0  0  0  0  0  0
   -8.1378    4.3662   -9.5946 C   0  0  0  0  0  0  0  0  0  0  0  0
   -8.6694    3.8206   -7.1225 C   0  0  0  0  0  0  0  0  0  0  0  0
   -9.2018    2.7356   -7.2316 O   0  0  0  0  0  0  0  0  0  0  0  0
   -8.4572    4.5571   -5.9611 N   0  0  0  0  0  0  0  0  0  0  0  0
   -8.7270    4.0455   -4.6228 C   0  0  2  0  0  0  0  0  0  0  0  0
   -9.9211    4.7447   -3.9699 C   0  0  0  0  0  0  0  0  0  0  0  0
   -9.5070    5.9655   -3.1603 C   0  0  0  0  0  0  0  0  0  0  0  0
   -8.4502    5.6166   -2.1483 C   0  0  0  0  0  0  0  0  0  0  0  0
   -8.2180    6.3238   -1.1721 O   0  0  0  0  0  0  0  0  0  0  0  0
   -7.6757    4.5292   -2.4310 N   0  0  0  0  0  0  0  0  0  0  0  0
   -7.4817    4.0788   -3.7126 C   0  0  0  0  0  0  0  0  0  0  0  0
   -6.3425    3.7637   -4.0597 O   0  0  0  0  0  0  0  0  0  0  0  0
   -7.8750    5.8547   -6.2277 C   0  0  0  0  0  0  0  0  0  0  0  0
  1  2  1  0
  2  3  1  0
  2  4  1  0
  2  5  1  0
  5  6  1  0
  6  7  2  0
  6  8  1  0
  9  8  1  1
  9 10  1  0
 10 11  2  0
 11 12  1  0
 12 13  2  0
 13 14  1  0
 14 15  1  0
 14 16  2  0
 16 17  1  0
 17 18  1  0
 18 19  1  1
 19 20  2  0
 19 21  1  0
 21 22  1  0
 22 23  2  0
 23 24  1  0
 24 25  2  0
 25 26  1  0
 26 27  2  0
 26 28  1  0
 28 29  2  0
 28 30  1  0
 31 30  1  6
 31 32  1  0
 32 33  1  0
 33 34  1  0
 34 35  2  0
 34 36  1  0
 36 37  1  0
 37 38  2  0
 30 39  1  0
 18  9  1  0
 27 22  1  0
 37 31  1  0
 16 10  1  0
 39 25  1  0
M  END
>  <fragmenstein_outcome>  (18) 
nan

>  <exports>  (18) 
['/opt/xchem-fragalysis-2/maxwin/openbind-hippo/xx01zvns2b/cycle_01/syndirella/elabs/openbind_xx01zvns2b_c1_elab_chemspace_filtered.sdf']

>  <Energy>  (18) 
nan

>  <alias>  (18) 
None

>  <fragmenstein_runtime>  (18) 
nan

>  <scratch_subdir>  (18) 
nan

>  <HIPPO Compound ID>  (18) 
135385

>  <rmsd(smina/fragmenstein)>  (18) 
1.526

>  <distance_score>  (18) 
1.831815

>  <orig_smiles>  (18) 
nan

>  <fragmenstein_mode>  (18) 
nan

>  <inchikey>  (18) 
WWSMPJLXSGJDNM-MZKRTTBSSA-N

>  <ref_pdb>  (18) 
Z3506a

>  <GNINA pK>  (18) 
nan

>  <gnina_score_min>  (18) 
5.591

>  <tags>  (18) 
openbind_xx01zvns2b_c1_elab_chemspace_filtered_scored_top80percent,openbind_xx01zvns2b_c1_elab_chemspace_filtered_scored,openbind_xx01zvns2b_c1_elab_chemspace_filtered_scored_top40percent,openbind_xx01zvns2b_c1_elab_chemspace_filtered_scored_top20percent,openbind_xx01zvns2b_c1_elab_chemspace_filtered_scored_top60percent,openbind_xx01zvns2b_c1_elabs_filtered

>  <smiles>  (18) 
CC(C)(C)OC(=O)N[C@H]1c2cccc(O)c2C[C@@H]1C(=O)Nc1ccc2c(c1)C(=O)N([C@@H]1CCC(=O)NC1=O)C2

>  <subsites>  (18) 
1 - Z4590/B/203/1

>  <gnina_score>  (18) 
5.907

>  <HIPPO Pose ID>  (18) 
68511

>  <ref_mols>  (18) 
Z3452a,Z3506a

>  <energy_score>  (18) 
-53.928595

>  <inspiration_score>  (18) 
None

>  <smina_score_min>  (18) 
-7.997

>  <fragmenstein_error>  (18) 
nan

>  <name>  (18) 
P68511

$$$$
P68513
     RDKit          3D

 39 43  0  0  0  0  0  0  0  0999 V2000
   -5.1548   10.4368  -12.2571 C   0  0  0  0  0  0  0  0  0  0  0  0
   -6.2258   10.4819  -13.3525 C   0  0  0  0  0  0  0  0  0  0  0  0
   -7.6330   10.6584  -12.7705 C   0  0  0  0  0  0  0  0  0  0  0  0
   -5.9289   11.6668  -14.2840 C   0  0  0  0  0  0  0  0  0  0  0  0
   -6.1484    9.3126  -14.2111 O   0  0  0  0  0  0  0  0  0  0  0  0
   -6.3743    8.0680  -13.7180 C   0  0  0  0  0  0  0  0  0  0  0  0
   -6.6303    7.8283  -12.6168 O   0  0  0  0  0  0  0  0  0  0  0  0
   -6.1863    7.1499  -14.9024 N   0  0  0  0  0  0  0  0  0  0  0  0
   -6.3654    5.7179  -15.0220 C   0  0  2  0  0  0  0  0  0  0  0  0
   -6.1911    5.3288  -16.4494 C   0  0  0  0  0  0  0  0  0  0  0  0
   -5.0363    5.4766  -17.2094 C   0  0  0  0  0  0  0  0  0  0  0  0
   -5.0821    5.1318  -18.5525 C   0  0  0  0  0  0  0  0  0  0  0  0
   -6.2792    4.6804  -19.1108 C   0  0  0  0  0  0  0  0  0  0  0  0
   -7.4323    4.5548  -18.3369 C   0  0  0  0  0  0  0  0  0  0  0  0
   -8.6167    4.2244  -18.9166 O   0  0  0  0  0  0  0  0  0  0  0  0
   -7.3727    4.8300  -16.9930 C   0  0  0  0  0  0  0  0  0  0  0  0
   -8.4440    4.6723  -15.9712 C   0  0  0  0  0  0  0  0  0  0  0  0
   -7.8036    5.2535  -14.6943 C   0  0  1  0  0  0  0  0  0  0  0  0
   -7.7441    4.2407  -13.5467 C   0  0  0  0  0  0  0  0  0  0  0  0
   -7.9592    3.1012  -13.6564 O   0  0  0  0  0  0  0  0  0  0  0  0
   -7.4049    5.0828  -12.2882 N   0  0  0  0  0  0  0  0  0  0  0  0
   -7.3578    4.7249  -10.9587 C   0  0  0  0  0  0  0  0  0  0  0  0
   -6.6336    5.5938  -10.1206 C   0  0  0  0  0  0  0  0  0  0  0  0
   -6.5971    5.3858   -8.7538 C   0  0  0  0  0  0  0  0  0  0  0  0
   -7.3489    4.3370   -8.2749 C   0  0  0  0  0  0  0  0  0  0  0  0
   -8.0975    3.5073   -9.0834 C   0  0  0  0  0  0  0  0  0  0  0  0
   -8.0850    3.6398  -10.4574 C   0  0  0  0  0  0  0  0  0  0  0  0
   -9.0488    2.8257   -8.2081 C   0  0  0  0  0  0  0  0  0  0  0  0
   -9.9538    2.1359   -8.6286 O   0  0  0  0  0  0  0  0  0  0  0  0
   -8.8393    3.3146   -6.9337 N   0  0  0  0  0  0  0  0  0  0  0  0
   -9.9747    3.5401   -6.0510 C   0  0  2  0  0  0  0  0  0  0  0  0
  -10.1343    4.9965   -5.6133 C   0  0  0  0  0  0  0  0  0  0  0  0
   -9.3971    5.4267   -4.3357 C   0  0  0  0  0  0  0  0  0  0  0  0
   -8.8074    4.2656   -3.5621 C   0  0  0  0  0  0  0  0  0  0  0  0
   -9.6519    3.1182   -3.6698 N   0  0  0  0  0  0  0  0  0  0  0  0
  -10.1433    2.6545   -4.8632 C   0  0  0  0  0  0  0  0  0  0  0  0
  -10.7210    1.5782   -4.9439 O   0  0  0  0  0  0  0  0  0  0  0  0
   -7.7310    4.1107   -6.8993 C   0  0  0  0  0  0  0  0  0  0  0  0
   -7.1805    4.6932   -5.9816 O   0  0  0  0  0  0  0  0  0  0  0  0
  1  2  1  0
  2  3  1  0
  2  4  1  0
  2  5  1  0
  5  6  1  0
  6  7  2  0
  6  8  1  0
  9  8  1  6
  9 10  1  0
 10 11  2  0
 11 12  1  0
 12 13  2  0
 13 14  1  0
 14 15  1  0
 14 16  2  0
 16 17  1  0
 17 18  1  0
 18 19  1  1
 19 20  2  0
 19 21  1  0
 21 22  1  0
 22 23  2  0
 23 24  1  0
 24 25  2  0
 25 26  1  0
 26 27  2  0
 26 28  1  0
 28 29  2  0
 28 30  1  0
 31 30  1  1
 31 32  1  0
 32 33  1  0
 33 34  1  0
 34 35  1  0
 35 36  1  0
 36 37  2  0
 30 38  1  0
 38 39  2  0
 18  9  1  0
 27 22  1  0
 36 31  1  0
 16 10  1  0
 38 25  1  0
M  END
>  <fragmenstein_outcome>  (19) 
nan

>  <exports>  (19) 
['/opt/xchem-fragalysis-2/maxwin/openbind-hippo/xx01zvns2b/cycle_01/syndirella/elabs/openbind_xx01zvns2b_c1_elab_chemspace_filtered.sdf']

>  <Energy>  (19) 
nan

>  <alias>  (19) 
None

>  <fragmenstein_runtime>  (19) 
nan

>  <scratch_subdir>  (19) 
nan

>  <HIPPO Compound ID>  (19) 
135386

>  <rmsd(smina/fragmenstein)>  (19) 
0.824

>  <distance_score>  (19) 
1.373575

>  <orig_smiles>  (19) 
nan

>  <fragmenstein_mode>  (19) 
nan

>  <inchikey>  (19) 
YBESJQAPEQHKPK-KCZVDYSFSA-N

>  <ref_pdb>  (19) 
Z3506a

>  <GNINA pK>  (19) 
nan

>  <gnina_score_min>  (19) 
5.628

>  <tags>  (19) 
openbind_xx01zvns2b_c1_elab_chemspace_filtered_scored_top80percent,openbind_xx01zvns2b_c1_elab_chemspace_filtered_scored,openbind_xx01zvns2b_c1_elab_chemspace_filtered_scored_top40percent,openbind_xx01zvns2b_c1_elab_chemspace_filtered_scored_top20percent,openbind_xx01zvns2b_c1_elab_chemspace_filtered_scored_top60percent,openbind_xx01zvns2b_c1_elabs_filtered

>  <smiles>  (19) 
CC(C)(C)OC(=O)N[C@@H]1c2cccc(O)c2C[C@H]1C(=O)Nc1ccc2c(c1)C(=O)N([C@@H]1CCCNC1=O)C2=O

>  <subsites>  (19) 
1 - Z4590/B/203/1

>  <gnina_score>  (19) 
6.11

>  <HIPPO Pose ID>  (19) 
68513

>  <ref_mols>  (19) 
Z3452a,Z3506a

>  <energy_score>  (19) 
-19.579894

>  <inspiration_score>  (19) 
None

>  <smina_score_min>  (19) 
-7.542

>  <fragmenstein_error>  (19) 
nan

>  <name>  (19) 
P68513

$$$$
P68515
     RDKit          3D

 39 43  0  0  0  0  0  0  0  0999 V2000
   -6.0070    8.4124   -9.8328 C   0  0  0  0  0  0  0  0  0  0  0  0
   -7.3649    8.4081  -10.5505 C   0  0  0  0  0  0  0  0  0  0  0  0
   -8.4071    7.7696   -9.6252 C   0  0  0  0  0  0  0  0  0  0  0  0
   -7.7347    9.8517  -10.9097 C   0  0  0  0  0  0  0  0  0  0  0  0
   -7.1448    7.6199  -11.7526 O   0  0  0  0  0  0  0  0  0  0  0  0
   -8.1638    7.3602  -12.6122 C   0  0  0  0  0  0  0  0  0  0  0  0
   -9.2558    7.7148  -12.4692 O   0  0  0  0  0  0  0  0  0  0  0  0
   -7.5251    6.5758  -13.7395 N   0  0  0  0  0  0  0  0  0  0  0  0
   -8.1068    5.9710  -14.8978 C   0  0  1  0  0  0  0  0  0  0  0  0
   -7.2185    5.8313  -16.0999 C   0  0  0  0  0  0  0  0  0  0  0  0
   -6.1130    6.5596  -16.5090 C   0  0  0  0  0  0  0  0  0  0  0  0
   -5.5773    6.2995  -17.7721 C   0  0  0  0  0  0  0  0  0  0  0  0
   -6.2014    5.3877  -18.6281 C   0  0  0  0  0  0  0  0  0  0  0  0
   -7.3244    4.6873  -18.2056 C   0  0  0  0  0  0  0  0  0  0  0  0
   -8.0577    3.9644  -19.0896 O   0  0  0  0  0  0  0  0  0  0  0  0
   -7.7548    4.8267  -16.9107 C   0  0  0  0  0  0  0  0  0  0  0  0
   -8.8375    4.0845  -16.2018 C   0  0  0  0  0  0  0  0  0  0  0  0
   -8.6718    4.5342  -14.7485 C   0  0  1  0  0  0  0  0  0  0  0  0
   -7.6597    3.8577  -13.8081 C   0  0  0  0  0  0  0  0  0  0  0  0
   -6.5816    3.5232  -14.1216 O   0  0  0  0  0  0  0  0  0  0  0  0
   -8.3600    3.8406  -12.4059 N   0  0  0  0  0  0  0  0  0  0  0  0
   -7.8625    3.5145  -11.1603 C   0  0  0  0  0  0  0  0  0  0  0  0
   -6.5700    4.0101  -10.8961 C   0  0  0  0  0  0  0  0  0  0  0  0
   -6.1885    4.3042   -9.5958 C   0  0  0  0  0  0  0  0  0  0  0  0
   -7.0943    4.0124   -8.6020 C   0  0  0  0  0  0  0  0  0  0  0  0
   -8.2952    3.3875   -8.8379 C   0  0  0  0  0  0  0  0  0  0  0  0
   -8.7292    3.1512  -10.1271 C   0  0  0  0  0  0  0  0  0  0  0  0
   -8.9545    3.2333   -7.5417 C   0  0  0  0  0  0  0  0  0  0  0  0
  -10.0156    2.6495   -7.4332 O   0  0  0  0  0  0  0  0  0  0  0  0
   -8.1666    3.8831   -6.6043 N   0  0  0  0  0  0  0  0  0  0  0  0
   -8.4991    4.1279   -5.2407 C   0  0  0  0  0  0  0  0  0  0  0  0
   -7.5701    4.7084   -4.3478 C   0  0  0  0  0  0  0  0  0  0  0  0
   -7.9016    5.0112   -3.0237 C   0  0  0  0  0  0  0  0  0  0  0  0
   -9.1779    4.7430   -2.5745 C   0  0  0  0  0  0  0  0  0  0  0  0
   -9.5189    5.0406   -1.3143 F   0  0  0  0  0  0  0  0  0  0  0  0
  -10.1080    4.1727   -3.4259 C   0  0  0  0  0  0  0  0  0  0  0  0
   -9.7737    3.8488   -4.7425 C   0  0  0  0  0  0  0  0  0  0  0  0
   -7.0358    4.3836   -7.2040 C   0  0  0  0  0  0  0  0  0  0  0  0
   -6.1279    5.0887   -6.7901 O   0  0  0  0  0  0  0  0  0  0  0  0
  1  2  1  0
  2  3  1  0
  2  4  1  0
  2  5  1  0
  5  6  1  0
  6  7  2  0
  6  8  1  0
  9  8  1  1
  9 10  1  0
 10 11  2  0
 11 12  1  0
 12 13  2  0
 13 14  1  0
 14 15  1  0
 14 16  2  0
 16 17  1  0
 17 18  1  0
 18 19  1  1
 19 20  2  0
 19 21  1  0
 21 22  1  0
 22 23  2  0
 23 24  1  0
 24 25  2  0
 25 26  1  0
 26 27  2  0
 26 28  1  0
 28 29  2  0
 28 30  1  0
 30 31  1  0
 31 32  2  0
 32 33  1  0
 33 34  2  0
 34 35  1  0
 34 36  1  0
 36 37  2  0
 30 38  1  0
 38 39  2  0
 18  9  1  0
 27 22  1  0
 37 31  1  0
 16 10  1  0
 38 25  1  0
M  END
>  <fragmenstein_outcome>  (20) 
nan

>  <exports>  (20) 
['/opt/xchem-fragalysis-2/maxwin/openbind-hippo/xx01zvns2b/cycle_01/syndirella/elabs/openbind_xx01zvns2b_c1_elab_chemspace_filtered.sdf']

>  <Energy>  (20) 
nan

>  <alias>  (20) 
None

>  <fragmenstein_runtime>  (20) 
nan

>  <scratch_subdir>  (20) 
nan

>  <HIPPO Compound ID>  (20) 
135387

>  <rmsd(smina/fragmenstein)>  (20) 
0.41

>  <distance_score>  (20) 
1.646661

>  <orig_smiles>  (20) 
nan

>  <fragmenstein_mode>  (20) 
nan

>  <inchikey>  (20) 
BCZKEFBTCUJOMR-VWNXMTODSA-N

>  <ref_pdb>  (20) 
Z3506a

>  <GNINA pK>  (20) 
nan

>  <gnina_score_min>  (20) 
5.639

>  <tags>  (20) 
openbind_xx01zvns2b_c1_elab_chemspace_filtered_scored_top80percent,openbind_xx01zvns2b_c1_elab_chemspace_filtered_scored,openbind_xx01zvns2b_c1_elab_chemspace_filtered_scored_top40percent,openbind_xx01zvns2b_c1_elab_chemspace_filtered_scored_top20percent,openbind_xx01zvns2b_c1_elab_chemspace_filtered_scored_top60percent,openbind_xx01zvns2b_c1_elabs_filtered

>  <smiles>  (20) 
CC(C)(C)OC(=O)N[C@H]1c2cccc(O)c2C[C@H]1C(=O)Nc1ccc2c(c1)C(=O)N(c1ccc(F)cc1)C2=O

>  <subsites>  (20) 
1 - Z4590/B/203/1

>  <gnina_score>  (20) 
5.874

>  <HIPPO Pose ID>  (20) 
68515

>  <ref_mols>  (20) 
Z3452a,Z3506a

>  <energy_score>  (20) 
-36.137441

>  <inspiration_score>  (20) 
None

>  <smina_score_min>  (20) 
-7.796

>  <fragmenstein_error>  (20) 
nan

>  <name>  (20) 
P68515

$$$$
P68519
     RDKit          3D

 39 43  0  0  0  0  0  0  0  0999 V2000
   -4.5462    3.7998   -9.8809 C   0  0  0  0  0  0  0  0  0  0  0  0
   -3.8599    3.2084  -11.1169 C   0  0  0  0  0  0  0  0  0  0  0  0
   -2.4063    3.6818  -11.2427 C   0  0  0  0  0  0  0  0  0  0  0  0
   -3.8595    1.6789  -10.9765 C   0  0  0  0  0  0  0  0  0  0  0  0
   -4.6062    3.4716  -12.3390 O   0  0  0  0  0  0  0  0  0  0  0  0
   -4.7806    4.7535  -12.7664 C   0  0  0  0  0  0  0  0  0  0  0  0
   -4.4148    5.6900  -12.1932 O   0  0  0  0  0  0  0  0  0  0  0  0
   -5.5174    4.6334  -14.0881 N   0  0  0  0  0  0  0  0  0  0  0  0
   -6.0520    5.6464  -14.9542 C   0  0  1  0  0  0  0  0  0  0  0  0
   -6.0534    5.2023  -16.3836 C   0  0  0  0  0  0  0  0  0  0  0  0
   -4.9841    5.2481  -17.2625 C   0  0  0  0  0  0  0  0  0  0  0  0
   -5.2200    4.9023  -18.5844 C   0  0  0  0  0  0  0  0  0  0  0  0
   -6.5078    4.5361  -18.9949 C   0  0  0  0  0  0  0  0  0  0  0  0
   -7.5806    4.5117  -18.1035 C   0  0  0  0  0  0  0  0  0  0  0  0
   -8.8426    4.2800  -18.5492 O   0  0  0  0  0  0  0  0  0  0  0  0
   -7.3465    4.8050  -16.7837 C   0  0  0  0  0  0  0  0  0  0  0  0
   -8.3006    4.8751  -15.6236 C   0  0  0  0  0  0  0  0  0  0  0  0
   -7.5539    5.9424  -14.8249 C   0  0  1  0  0  0  0  0  0  0  0  0
   -7.9748    6.3661  -13.4425 C   0  0  0  0  0  0  0  0  0  0  0  0
   -8.1013    7.5082  -13.2185 O   0  0  0  0  0  0  0  0  0  0  0  0
   -8.0727    5.1385  -12.4969 N   0  0  0  0  0  0  0  0  0  0  0  0
   -8.2449    5.0722  -11.1195 C   0  0  0  0  0  0  0  0  0  0  0  0
   -8.2165    6.2953  -10.4071 C   0  0  0  0  0  0  0  0  0  0  0  0
   -8.2993    6.3367   -9.0252 C   0  0  0  0  0  0  0  0  0  0  0  0
   -8.4159    5.1274   -8.3940 C   0  0  0  0  0  0  0  0  0  0  0  0
   -8.4663    3.9172   -9.0684 C   0  0  0  0  0  0  0  0  0  0  0  0
   -8.3808    3.8507  -10.4498 C   0  0  0  0  0  0  0  0  0  0  0  0
   -8.6312    2.8847   -8.0412 C   0  0  0  0  0  0  0  0  0  0  0  0
   -8.8631    1.7177   -8.2740 O   0  0  0  0  0  0  0  0  0  0  0  0
   -8.5536    3.5254   -6.8313 N   0  0  0  0  0  0  0  0  0  0  0  0
   -8.7718    2.9037   -5.5502 C   0  0  2  0  0  0  0  0  0  0  0  0
  -10.1486    3.1858   -4.9462 C   0  0  0  0  0  0  0  0  0  0  0  0
   -9.8274    3.9027   -3.6650 C   0  0  0  0  0  0  0  0  0  0  0  0
  -10.6226    4.4264   -2.9035 O   0  0  0  0  0  0  0  0  0  0  0  0
   -8.5023    3.9082   -3.4392 N   0  0  0  0  0  0  0  0  0  0  0  0
   -7.8012    3.4698   -4.5065 C   0  0  0  0  0  0  0  0  0  0  0  0
   -6.5852    3.5990   -4.5640 O   0  0  0  0  0  0  0  0  0  0  0  0
   -8.5536    4.8752   -6.9763 C   0  0  0  0  0  0  0  0  0  0  0  0
   -8.6956    5.7282   -6.1202 O   0  0  0  0  0  0  0  0  0  0  0  0
  1  2  1  0
  2  3  1  0
  2  4  1  0
  2  5  1  0
  5  6  1  0
  6  7  2  0
  6  8  1  0
  9  8  1  1
  9 10  1  0
 10 11  2  0
 11 12  1  0
 12 13  2  0
 13 14  1  0
 14 15  1  0
 14 16  2  0
 16 17  1  0
 17 18  1  0
 18 19  1  1
 19 20  2  0
 19 21  1  0
 21 22  1  0
 22 23  2  0
 23 24  1  0
 24 25  2  0
 25 26  1  0
 26 27  2  0
 26 28  1  0
 28 29  2  0
 28 30  1  0
 31 30  1  6
 31 32  1  0
 32 33  1  0
 33 34  2  0
 33 35  1  0
 35 36  1  0
 36 37  2  0
 30 38  1  0
 38 39  2  0
 18  9  1  0
 27 22  1  0
 36 31  1  0
 16 10  1  0
 38 25  1  0
M  END
>  <fragmenstein_outcome>  (21) 
nan

>  <exports>  (21) 
['/opt/xchem-fragalysis-2/maxwin/openbind-hippo/xx01zvns2b/cycle_01/syndirella/elabs/openbind_xx01zvns2b_c1_elab_chemspace_filtered.sdf']

>  <Energy>  (21) 
nan

>  <alias>  (21) 
None

>  <fragmenstein_runtime>  (21) 
nan

>  <scratch_subdir>  (21) 
nan

>  <HIPPO Compound ID>  (21) 
135388

>  <rmsd(smina/fragmenstein)>  (21) 
1.102

>  <distance_score>  (21) 
1.362493

>  <orig_smiles>  (21) 
nan

>  <fragmenstein_mode>  (21) 
nan

>  <inchikey>  (21) 
IENFMPLYARAULR-OPYAIIAOSA-N

>  <ref_pdb>  (21) 
Z3506a

>  <GNINA pK>  (21) 
nan

>  <gnina_score_min>  (21) 
5.422

>  <tags>  (21) 
openbind_xx01zvns2b_c1_elab_chemspace_filtered_scored_top80percent,openbind_xx01zvns2b_c1_elab_chemspace_filtered_scored,openbind_xx01zvns2b_c1_elab_chemspace_filtered_scored_top40percent,openbind_xx01zvns2b_c1_elab_chemspace_filtered_scored_top20percent,openbind_xx01zvns2b_c1_elab_chemspace_filtered_scored_top60percent,openbind_xx01zvns2b_c1_elabs_filtered

>  <smiles>  (21) 
CC(C)(C)OC(=O)N[C@H]1c2cccc(O)c2C[C@H]1C(=O)Nc1ccc2c(c1)C(=O)N([C@@H]1CC(=O)NC1=O)C2=O

>  <subsites>  (21) 
1 - Z4590/B/203/1

>  <gnina_score>  (21) 
6.058

>  <HIPPO Pose ID>  (21) 
68519

>  <ref_mols>  (21) 
Z3452a,Z3506a

>  <energy_score>  (21) 
-43.189102

>  <inspiration_score>  (21) 
None

>  <smina_score_min>  (21) 
-9.242

>  <fragmenstein_error>  (21) 
nan

>  <name>  (21) 
P68519

$$$$
P68526
     RDKit          3D

 39 43  0  0  0  0  0  0  0  0999 V2000
   -5.1720   10.3838  -12.2255 C   0  0  0  0  0  0  0  0  0  0  0  0
   -5.8967   10.6092  -13.5575 C   0  0  0  0  0  0  0  0  0  0  0  0
   -7.3416   11.0763  -13.3502 C   0  0  0  0  0  0  0  0  0  0  0  0
   -5.1422   11.6867  -14.3510 C   0  0  0  0  0  0  0  0  0  0  0  0
   -5.8369    9.4251  -14.3974 O   0  0  0  0  0  0  0  0  0  0  0  0
   -6.3898    8.2531  -13.9910 C   0  0  0  0  0  0  0  0  0  0  0  0
   -6.9816    8.1058  -13.0086 O   0  0  0  0  0  0  0  0  0  0  0  0
   -6.0716    7.2766  -15.1001 N   0  0  0  0  0  0  0  0  0  0  0  0
   -6.3324    5.8562  -15.2081 C   0  0  2  0  0  0  0  0  0  0  0  0
   -6.1428    5.4256  -16.6224 C   0  0  0  0  0  0  0  0  0  0  0  0
   -4.9832    5.5522  -17.3779 C   0  0  0  0  0  0  0  0  0  0  0  0
   -5.0132    5.1486  -18.7052 C   0  0  0  0  0  0  0  0  0  0  0  0
   -6.1969    4.6501  -19.2518 C   0  0  0  0  0  0  0  0  0  0  0  0
   -7.3504    4.5320  -18.4792 C   0  0  0  0  0  0  0  0  0  0  0  0
   -8.5237    4.1445  -19.0457 O   0  0  0  0  0  0  0  0  0  0  0  0
   -7.3092    4.8791  -17.1539 C   0  0  0  0  0  0  0  0  0  0  0  0
   -8.3897    4.7400  -16.1441 C   0  0  0  0  0  0  0  0  0  0  0  0
   -7.7961    5.4476  -14.9132 C   0  0  1  0  0  0  0  0  0  0  0  0
   -7.7487    4.5113  -13.7172 C   0  0  0  0  0  0  0  0  0  0  0  0
   -7.7533    3.3473  -13.7933 O   0  0  0  0  0  0  0  0  0  0  0  0
   -7.6128    5.4377  -12.4783 N   0  0  0  0  0  0  0  0  0  0  0  0
   -7.5534    5.1338  -11.1392 C   0  0  0  0  0  0  0  0  0  0  0  0
   -7.2744    6.1824  -10.2440 C   0  0  0  0  0  0  0  0  0  0  0  0
   -7.1933    5.9351   -8.8821 C   0  0  0  0  0  0  0  0  0  0  0  0
   -7.4202    4.6385   -8.4799 C   0  0  0  0  0  0  0  0  0  0  0  0
   -7.7330    3.6070   -9.3553 C   0  0  0  0  0  0  0  0  0  0  0  0
   -7.7825    3.8285  -10.7075 C   0  0  0  0  0  0  0  0  0  0  0  0
   -8.0730    2.3855   -8.5846 C   0  0  0  0  0  0  0  0  0  0  0  0
   -8.3316    2.9429   -7.2399 N   0  0  0  0  0  0  0  0  0  0  0  0
   -9.7457    3.0499   -6.9416 C   0  0  2  0  0  0  0  0  0  0  0  0
  -10.2134    4.1055   -5.9177 C   0  0  0  0  0  0  0  0  0  0  0  0
  -10.2424    3.5465   -4.5363 C   0  0  2  0  0  0  0  0  0  0  0  0
   -8.9813    3.3128   -4.1080 F   0  0  0  0  0  0  0  0  0  0  0  0
  -11.0831    2.2797   -4.5464 C   0  0  0  0  0  0  0  0  0  0  0  0
  -11.2982    1.5809   -5.7649 N   0  0  0  0  0  0  0  0  0  0  0  0
  -10.3608    1.6714   -6.7392 C   0  0  0  0  0  0  0  0  0  0  0  0
  -10.1528    0.7034   -7.4588 O   0  0  0  0  0  0  0  0  0  0  0  0
   -7.6252    4.1499   -7.1235 C   0  0  0  0  0  0  0  0  0  0  0  0
   -7.3529    4.7976   -6.1275 O   0  0  0  0  0  0  0  0  0  0  0  0
  1  2  1  0
  2  3  1  0
  2  4  1  0
  2  5  1  0
  5  6  1  0
  6  7  2  0
  6  8  1  0
  9  8  1  6
  9 10  1  0
 10 11  2  0
 11 12  1  0
 12 13  2  0
 13 14  1  0
 14 15  1  0
 14 16  2  0
 16 17  1  0
 17 18  1  0
 18 19  1  1
 19 20  2  0
 19 21  1  0
 21 22  1  0
 22 23  2  0
 23 24  1  0
 24 25  2  0
 25 26  1  0
 26 27  2  0
 26 28  1  0
 28 29  1  0
 30 29  1  1
 30 31  1  0
 31 32  1  0
 32 33  1  6
 32 34  1  0
 34 35  1  0
 35 36  1  0
 36 37  2  0
 29 38  1  0
 38 39  2  0
 18  9  1  0
 27 22  1  0
 36 30  1  0
 16 10  1  0
 38 25  1  0
M  END
>  <fragmenstein_outcome>  (22) 
nan

>  <exports>  (22) 
['/opt/xchem-fragalysis-2/maxwin/openbind-hippo/xx01zvns2b/cycle_01/syndirella/elabs/openbind_xx01zvns2b_c1_elab_chemspace_filtered.sdf']

>  <Energy>  (22) 
nan

>  <alias>  (22) 
None

>  <fragmenstein_runtime>  (22) 
nan

>  <scratch_subdir>  (22) 
nan

>  <HIPPO Compound ID>  (22) 
135389

>  <rmsd(smina/fragmenstein)>  (22) 
1.107

>  <distance_score>  (22) 
1.354652

>  <orig_smiles>  (22) 
nan

>  <fragmenstein_mode>  (22) 
nan

>  <inchikey>  (22) 
PTLCISUZDKBGTC-DPXGSNEPSA-N

>  <ref_pdb>  (22) 
Z3506a

>  <GNINA pK>  (22) 
nan

>  <gnina_score_min>  (22) 
5.78

>  <tags>  (22) 
openbind_xx01zvns2b_c1_elab_chemspace_filtered_scored_top80percent,openbind_xx01zvns2b_c1_elab_chemspace_filtered_scored,openbind_xx01zvns2b_c1_elab_chemspace_filtered_scored_top40percent,openbind_xx01zvns2b_c1_elab_chemspace_filtered_scored_top20percent,openbind_xx01zvns2b_c1_elab_chemspace_filtered_scored_top60percent,openbind_xx01zvns2b_c1_elabs_filtered

>  <smiles>  (22) 
CC(C)(C)OC(=O)N[C@@H]1c2cccc(O)c2C[C@H]1C(=O)Nc1ccc2c(c1)CN([C@@H]1C[C@H](F)CNC1=O)C2=O

>  <subsites>  (22) 
1 - Z4590/B/203/1

>  <gnina_score>  (22) 
6.181

>  <HIPPO Pose ID>  (22) 
68526

>  <ref_mols>  (22) 
Z3452a,Z3506a

>  <energy_score>  (22) 
-23.570624

>  <inspiration_score>  (22) 
None

>  <smina_score_min>  (22) 
-7.289

>  <fragmenstein_error>  (22) 
nan

>  <name>  (22) 
P68526

$$$$
P68531
     RDKit          3D

 40 44  0  0  0  0  0  0  0  0999 V2000
   -4.1741    5.5735  -19.9520 C   0  0  0  0  0  0  0  0  0  0  0  0
   -5.1912    5.2879  -18.8888 C   0  0  0  0  0  0  0  0  0  0  0  0
   -6.3395    4.5349  -19.1947 C   0  0  0  0  0  0  0  0  0  0  0  0
   -7.3385    4.2729  -18.2536 C   0  0  0  0  0  0  0  0  0  0  0  0
   -7.1497    4.7371  -16.9766 C   0  0  0  0  0  0  0  0  0  0  0  0
   -6.0120    5.5067  -16.6680 C   0  0  0  0  0  0  0  0  0  0  0  0
   -5.0204    5.7698  -17.5960 C   0  0  0  0  0  0  0  0  0  0  0  0
   -6.1243    6.0996  -15.3024 C   0  0  2  0  0  0  0  0  0  0  0  0
   -5.1795    5.5683  -14.3575 N   0  0  0  0  0  0  0  0  0  0  0  0
   -5.1151    4.2119  -13.6843 C   0  0  0  0  0  0  0  0  0  0  0  0
   -5.7675    3.2673  -13.8340 O   0  0  0  0  0  0  0  0  0  0  0  0
   -4.0840    4.3223  -12.8070 O   0  0  0  0  0  0  0  0  0  0  0  0
   -3.6446    3.1907  -12.0112 C   0  0  0  0  0  0  0  0  0  0  0  0
   -3.0128    2.1270  -12.9145 C   0  0  0  0  0  0  0  0  0  0  0  0
   -4.7690    2.6165  -11.1413 C   0  0  0  0  0  0  0  0  0  0  0  0
   -2.5584    3.7587  -11.0851 C   0  0  0  0  0  0  0  0  0  0  0  0
   -7.6265    5.8730  -15.0856 C   0  0  2  0  0  0  0  0  0  0  0  0
   -8.0322    6.2942  -13.7166 C   0  0  0  0  0  0  0  0  0  0  0  0
   -8.1845    7.4388  -13.5274 O   0  0  0  0  0  0  0  0  0  0  0  0
   -8.0837    5.0996  -12.7343 N   0  0  0  0  0  0  0  0  0  0  0  0
   -8.2323    5.0733  -11.3597 C   0  0  0  0  0  0  0  0  0  0  0  0
   -8.2406    6.3519  -10.7464 C   0  0  0  0  0  0  0  0  0  0  0  0
   -8.3674    6.5036   -9.3921 C   0  0  0  0  0  0  0  0  0  0  0  0
   -8.4887    5.3380   -8.6956 C   0  0  0  0  0  0  0  0  0  0  0  0
   -8.4831    4.0649   -9.2449 C   0  0  0  0  0  0  0  0  0  0  0  0
   -8.3460    3.8942  -10.6109 C   0  0  0  0  0  0  0  0  0  0  0  0
   -8.6104    3.1399   -8.1047 C   0  0  0  0  0  0  0  0  0  0  0  0
   -8.6372    1.9316   -8.1930 O   0  0  0  0  0  0  0  0  0  0  0  0
   -8.6416    3.9278   -6.9814 N   0  0  0  0  0  0  0  0  0  0  0  0
   -8.6350    3.5159   -5.6035 C   0  0  1  0  0  0  0  0  0  0  0  0
   -7.5895    4.3270   -4.8152 C   0  0  0  0  0  0  0  0  0  0  0  0
   -7.5830    3.8580   -3.3972 C   0  0  0  0  0  0  0  0  0  0  0  0
   -8.9475    3.9313   -2.7597 C   0  0  0  0  0  0  0  0  0  0  0  0
   -9.0921    3.9443   -1.5396 O   0  0  0  0  0  0  0  0  0  0  0  0
  -10.0200    3.9278   -3.6123 N   0  0  0  0  0  0  0  0  0  0  0  0
  -10.0102    3.7655   -4.9799 C   0  0  0  0  0  0  0  0  0  0  0  0
  -11.0643    3.8274   -5.6081 O   0  0  0  0  0  0  0  0  0  0  0  0
   -8.6443    5.2477   -7.2805 C   0  0  0  0  0  0  0  0  0  0  0  0
   -8.7331    6.2194   -6.5553 O   0  0  0  0  0  0  0  0  0  0  0  0
   -8.0544    4.5959  -15.7858 C   0  0  0  0  0  0  0  0  0  0  0  0
  1  2  1  0
  2  3  2  0
  3  4  1  0
  4  5  2  0
  5  6  1  0
  6  7  2  0
  6  8  1  0
  8  9  1  1
  9 10  1  0
 10 11  2  0
 10 12  1  0
 12 13  1  0
 13 14  1  0
 13 15  1  0
 13 16  1  0
  8 17  1  0
 17 18  1  1
 18 19  2  0
 18 20  1  0
 20 21  1  0
 21 22  2  0
 22 23  1  0
 23 24  2  0
 24 25  1  0
 25 26  2  0
 25 27  1  0
 27 28  2  0
 27 29  1  0
 30 29  1  6
 30 31  1  0
 31 32  1  0
 32 33  1  0
 33 34  2  0
 33 35  1  0
 35 36  1  0
 36 37  2  0
 29 38  1  0
 38 39  2  0
 17 40  1  0
  7  2  1  0
 26 21  1  0
 36 30  1  0
 40  5  1  0
 38 24  1  0
M  END
>  <fragmenstein_outcome>  (23) 
nan

>  <exports>  (23) 
['/opt/xchem-fragalysis-2/maxwin/openbind-hippo/xx01zvns2b/cycle_01/syndirella/elabs/openbind_xx01zvns2b_c1_elab_chemspace_filtered.sdf']

>  <Energy>  (23) 
nan

>  <alias>  (23) 
None

>  <fragmenstein_runtime>  (23) 
nan

>  <scratch_subdir>  (23) 
nan

>  <HIPPO Compound ID>  (23) 
135391

>  <rmsd(smina/fragmenstein)>  (23) 
0.698

>  <distance_score>  (23) 
1.344958

>  <orig_smiles>  (23) 
nan

>  <fragmenstein_mode>  (23) 
nan

>  <inchikey>  (23) 
ACBHHPJDDFSWJG-GIWBLDEGSA-N

>  <ref_pdb>  (23) 
Z3506a

>  <GNINA pK>  (23) 
nan

>  <gnina_score_min>  (23) 
5.457

>  <tags>  (23) 
openbind_xx01zvns2b_c1_elab_chemspace_filtered_scored_top80percent,openbind_xx01zvns2b_c1_elab_chemspace_filtered_scored,openbind_xx01zvns2b_c1_elab_chemspace_filtered_scored_top40percent,openbind_xx01zvns2b_c1_elab_chemspace_filtered_scored_top20percent,openbind_xx01zvns2b_c1_elab_chemspace_filtered_scored_top60percent,openbind_xx01zvns2b_c1_elabs_filtered

>  <smiles>  (23) 
Cc1ccc2c(c1)[C@H](NC(=O)OC(C)(C)C)[C@H](C(=O)Nc1ccc3c(c1)C(=O)N([C@H]1CCC(=O)NC1=O)C3=O)C2

>  <subsites>  (23) 
1 - Z4590/B/203/1

>  <gnina_score>  (23) 
5.82

>  <HIPPO Pose ID>  (23) 
68531

>  <ref_mols>  (23) 
Z3452a,Z3506a

>  <energy_score>  (23) 
-47.653194

>  <inspiration_score>  (23) 
None

>  <smina_score_min>  (23) 
-9.262

>  <fragmenstein_error>  (23) 
nan

>  <name>  (23) 
P68531

$$$$
P68536
     RDKit          3D

 40 44  0  0  0  0  0  0  0  0999 V2000
   -3.8784    3.8294  -10.4765 C   0  0  0  0  0  0  0  0  0  0  0  0
   -3.1962    3.3029  -11.7466 C   0  0  0  0  0  0  0  0  0  0  0  0
   -1.7656    3.8328  -11.8955 C   0  0  0  0  0  0  0  0  0  0  0  0
   -3.1417    1.7710  -11.6586 C   0  0  0  0  0  0  0  0  0  0  0  0
   -3.9854    3.5794  -12.9356 O   0  0  0  0  0  0  0  0  0  0  0  0
   -4.2622    4.8667  -13.2809 C   0  0  0  0  0  0  0  0  0  0  0  0
   -3.8898    5.7965  -12.7019 O   0  0  0  0  0  0  0  0  0  0  0  0
   -5.1595    4.7603  -14.4982 N   0  0  0  0  0  0  0  0  0  0  0  0
   -5.7247    5.7827  -15.3339 C   0  0  1  0  0  0  0  0  0  0  0  0
   -5.9989    5.2796  -16.7130 C   0  0  0  0  0  0  0  0  0  0  0  0
   -5.1088    5.2225  -17.7674 C   0  0  0  0  0  0  0  0  0  0  0  0
   -5.5857    4.7425  -18.9767 C   0  0  0  0  0  0  0  0  0  0  0  0
   -6.9176    4.3115  -19.0915 C   0  0  0  0  0  0  0  0  0  0  0  0
   -7.8128    4.3998  -18.0342 C   0  0  0  0  0  0  0  0  0  0  0  0
   -9.1133    4.0331  -18.1561 O   0  0  0  0  0  0  0  0  0  0  0  0
   -7.3475    4.8858  -16.8441 C   0  0  0  0  0  0  0  0  0  0  0  0
   -8.0939    5.1073  -15.5672 C   0  0  0  0  0  0  0  0  0  0  0  0
   -7.1615    6.1709  -14.9717 C   0  0  1  0  0  0  0  0  0  0  0  0
   -7.2985    6.6143  -13.5435 C   0  0  0  0  0  0  0  0  0  0  0  0
   -7.1590    7.7396  -13.2575 O   0  0  0  0  0  0  0  0  0  0  0  0
   -7.5245    5.3707  -12.6466 N   0  0  0  0  0  0  0  0  0  0  0  0
   -7.7111    5.2716  -11.2869 C   0  0  0  0  0  0  0  0  0  0  0  0
   -7.3735    6.3778  -10.4779 C   0  0  0  0  0  0  0  0  0  0  0  0
   -7.5989    6.3599   -9.1113 C   0  0  0  0  0  0  0  0  0  0  0  0
   -8.1972    5.2304   -8.6178 C   0  0  0  0  0  0  0  0  0  0  0  0
   -8.5330    4.1489   -9.4101 C   0  0  0  0  0  0  0  0  0  0  0  0
   -8.2679    4.1107  -10.7578 C   0  0  0  0  0  0  0  0  0  0  0  0
   -9.3198    3.2499   -8.5909 C   0  0  0  0  0  0  0  0  0  0  0  0
   -9.8015    2.2207   -9.0113 O   0  0  0  0  0  0  0  0  0  0  0  0
   -9.4210    3.8415   -7.3496 N   0  0  0  0  0  0  0  0  0  0  0  0
  -10.1830    3.2319   -6.2682 C   0  0  2  0  0  0  0  0  0  0  0  0
  -10.3543    4.0090   -4.9696 C   0  0  0  0  0  0  0  0  0  0  0  0
   -9.0957    4.1533   -4.1071 C   0  0  0  0  0  0  0  0  0  0  0  0
   -7.8902    3.3514   -4.5545 C   0  0  0  0  0  0  0  0  0  0  0  0
   -6.7807    3.4749   -4.0247 O   0  0  0  0  0  0  0  0  0  0  0  0
   -8.1003    2.3971   -5.5128 N   0  0  0  0  0  0  0  0  0  0  0  0
   -9.3279    2.0539   -6.0078 C   0  0  0  0  0  0  0  0  0  0  0  0
   -9.6817    0.9233   -6.2925 O   0  0  0  0  0  0  0  0  0  0  0  0
   -8.7195    5.0039   -7.2897 C   0  0  0  0  0  0  0  0  0  0  0  0
   -8.5562    5.7803   -6.3695 O   0  0  0  0  0  0  0  0  0  0  0  0
  1  2  1  0
  2  3  1  0
  2  4  1  0
  2  5  1  0
  5  6  1  0
  6  7  2  0
  6  8  1  0
  9  8  1  1
  9 10  1  0
 10 11  2  0
 11 12  1  0
 12 13  2  0
 13 14  1  0
 14 15  1  0
 14 16  2  0
 16 17  1  0
 17 18  1  0
 18 19  1  1
 19 20  2  0
 19 21  1  0
 21 22  1  0
 22 23  2  0
 23 24  1  0
 24 25  2  0
 25 26  1  0
 26 27  2  0
 26 28  1  0
 28 29  2  0
 28 30  1  0
 31 30  1  6
 31 32  1  0
 32 33  1  0
 33 34  1  0
 34 35  2  0
 34 36  1  0
 36 37  1  0
 37 38  2  0
 30 39  1  0
 39 40  2  0
 18  9  1  0
 27 22  1  0
 37 31  1  0
 16 10  1  0
 39 25  1  0
M  END
>  <fragmenstein_outcome>  (24) 
nan

>  <exports>  (24) 
['/opt/xchem-fragalysis-2/maxwin/openbind-hippo/xx01zvns2b/cycle_01/syndirella/elabs/openbind_xx01zvns2b_c1_elab_chemspace_filtered.sdf']

>  <Energy>  (24) 
nan

>  <alias>  (24) 
None

>  <fragmenstein_runtime>  (24) 
nan

>  <scratch_subdir>  (24) 
nan

>  <HIPPO Compound ID>  (24) 
135392

>  <rmsd(smina/fragmenstein)>  (24) 
1.463

>  <distance_score>  (24) 
1.715464

>  <orig_smiles>  (24) 
nan

>  <fragmenstein_mode>  (24) 
nan

>  <inchikey>  (24) 
GDPCSQRDNBSVDL-KNKQGSTJSA-N

>  <ref_pdb>  (24) 
Z3506a

>  <GNINA pK>  (24) 
nan

>  <gnina_score_min>  (24) 
5.533

>  <tags>  (24) 
openbind_xx01zvns2b_c1_elab_chemspace_filtered_scored_top80percent,openbind_xx01zvns2b_c1_elab_chemspace_filtered_scored,openbind_xx01zvns2b_c1_elab_chemspace_filtered_scored_top40percent,openbind_xx01zvns2b_c1_elab_chemspace_filtered_scored_top20percent,openbind_xx01zvns2b_c1_elab_chemspace_filtered_scored_top60percent,openbind_xx01zvns2b_c1_elabs_filtered

>  <smiles>  (24) 
CC(C)(C)OC(=O)N[C@H]1c2cccc(O)c2C[C@H]1C(=O)Nc1ccc2c(c1)C(=O)N([C@@H]1CCC(=O)NC1=O)C2=O

>  <subsites>  (24) 
1 - Z4590/B/203/1

>  <gnina_score>  (24) 
6.227

>  <HIPPO Pose ID>  (24) 
68536

>  <ref_mols>  (24) 
Z3452a,Z3506a

>  <energy_score>  (24) 
-27.316142

>  <inspiration_score>  (24) 
None

>  <smina_score_min>  (24) 
-7.819

>  <fragmenstein_error>  (24) 
nan

>  <name>  (24) 
P68536

$$$$
P68543
     RDKit          3D

 23 26  0  0  0  0  0  0  0  0999 V2000
  -10.0145    2.5798   -5.6666 O   0  0  0  0  0  0  0  0  0  0  0  0
   -9.1151    3.1239   -6.2982 C   0  0  0  0  0  0  0  0  0  0  0  0
   -8.1711    3.8119   -5.6162 O   0  0  0  0  0  0  0  0  0  0  0  0
   -8.9794    3.0802   -7.7355 C   0  0  0  0  0  0  0  0  0  0  0  0
   -9.4072    1.9808   -8.4365 C   0  0  0  0  0  0  0  0  0  0  0  0
   -9.2668    2.1843  -10.1089 S   0  0  0  0  0  0  0  0  0  0  0  0
   -8.5880    3.7308   -9.9950 C   0  0  0  0  0  0  0  0  0  0  0  0
   -8.1955    4.6069  -11.0414 C   0  0  0  0  0  0  0  0  0  0  0  0
   -8.3149    4.3500  -12.4527 N   0  0  0  0  0  0  0  0  0  0  0  0
   -7.0055    4.2876  -13.1442 C   0  0  0  0  0  0  0  0  0  0  0  0
   -6.9489    4.8815  -14.5809 C   0  0  0  0  0  0  0  0  0  0  0  0
   -7.6537    4.1068  -15.7226 C   0  0  1  0  0  0  0  0  0  0  0  0
   -9.0744    4.4792  -16.0625 C   0  0  0  0  0  0  0  0  0  0  0  0
   -9.2089    4.0529  -17.5095 C   0  0  0  0  0  0  0  0  0  0  0  0
   -7.8495    4.3720  -18.0718 C   0  0  0  0  0  0  0  0  0  0  0  0
   -6.9296    4.2177  -16.9857 O   0  0  0  0  0  0  0  0  0  0  0  0
   -7.1292    6.4146  -14.5319 C   0  0  0  0  0  0  0  0  0  0  0  0
   -5.9660    6.5397  -15.5309 C   0  0  0  0  0  0  0  0  0  0  0  0
   -5.4533    5.2032  -14.9710 C   0  0  0  0  0  0  0  0  0  0  0  0
   -7.7317    5.8461  -10.5973 C   0  0  0  0  0  0  0  0  0  0  0  0
   -7.6659    6.1225   -9.2412 C   0  0  0  0  0  0  0  0  0  0  0  0
   -8.0133    5.2881   -8.2483 N   0  0  0  0  0  0  0  0  0  0  0  0
   -8.4810    4.0782   -8.6382 C   0  0  0  0  0  0  0  0  0  0  0  0
  1  2  2  0
  2  3  1  0
  2  4  1  0
  4  5  2  0
  5  6  1  0
  6  7  1  0
  7  8  2  0
  8  9  1  0
  9 10  1  0
 10 11  1  0
 12 11  1  1
 12 13  1  0
 13 14  1  0
 14 15  1  0
 15 16  1  0
 11 17  1  0
 17 18  1  0
 18 19  1  0
  8 20  1  0
 20 21  2  0
 21 22  1  0
 22 23  2  0
 23  4  1  0
 23  7  1  0
 19 11  1  0
 16 12  1  0
M  END
>  <fragmenstein_outcome>  (25) 
nan

>  <exports>  (25) 
['/opt/xchem-fragalysis-2/maxwin/openbind-hippo/xx01zvns2b/cycle_01/syndirella/elabs/openbind_xx01zvns2b_c1_elab_chemspace_filtered.sdf']

>  <Energy>  (25) 
nan

>  <alias>  (25) 
None

>  <fragmenstein_runtime>  (25) 
nan

>  <scratch_subdir>  (25) 
nan

>  <HIPPO Compound ID>  (25) 
135927

>  <rmsd(smina/fragmenstein)>  (25) 
0.467

>  <distance_score>  (25) 
1.939845

>  <orig_smiles>  (25) 
nan

>  <fragmenstein_mode>  (25) 
nan

>  <inchikey>  (25) 
CKOPWQLHRBZBDV-CYBMUJFWSA-N

>  <ref_pdb>  (25) 
Z3515a

>  <GNINA pK>  (25) 
nan

>  <gnina_score_min>  (25) 
5.202

>  <tags>  (25) 
openbind_xx01zvns2b_c1_elab_nonasap_filtered_scored_top80percent,openbind_xx01zvns2b_c1_elab_chemspace_filtered_scored_top80percent,openbind_xx01zvns2b_c1_elab_chemspace_filtered_scored,openbind_xx01zvns2b_c1_elab_chemspace_filtered_scored_top40percent,openbind_xx01zvns2b_c1_elab_chemspace_filtered_scored_top20percent,openbind_xx01zvns2b_c1_elab_chemspace_filtered_scored_top60percent,openbind_xx01zvns2b_c1_elabs_filtered

>  <smiles>  (25) 
O=C(O)c1csc2c(NCC3([C@H]4CCCO4)CCC3)ccnc12

>  <subsites>  (25) 
1 - Z4590/B/203/1

>  <gnina_score>  (25) 
5.495

>  <HIPPO Pose ID>  (25) 
68543

>  <ref_mols>  (25) 
Z3515a,Z0089a

>  <energy_score>  (25) 
-47.766389

>  <inspiration_score>  (25) 
None

>  <smina_score_min>  (25) 
-5.71

>  <fragmenstein_error>  (25) 
nan

>  <name>  (25) 
P68543

$$$$
P68544
     RDKit          3D

 24 26  0  0  0  0  0  0  0  0999 V2000
   -1.8073    6.4579  -19.5538 C   0  0  0  0  0  0  0  0  0  0  0  0
   -2.7921    6.3369  -18.5279 O   0  0  0  0  0  0  0  0  0  0  0  0
   -3.7748    5.4175  -18.8016 C   0  0  0  0  0  0  0  0  0  0  0  0
   -3.8038    4.7731  -19.8431 O   0  0  0  0  0  0  0  0  0  0  0  0
   -4.7060    5.2846  -17.6864 C   0  0  0  0  0  0  0  0  0  0  0  0
   -4.3326    5.5647  -16.3886 C   0  0  0  0  0  0  0  0  0  0  0  0
   -5.5500    5.2906  -15.2614 S   0  0  0  0  0  0  0  0  0  0  0  0
   -6.6879    4.8357  -16.4619 C   0  0  0  0  0  0  0  0  0  0  0  0
   -8.0307    4.4541  -16.2721 C   0  0  0  0  0  0  0  0  0  0  0  0
   -8.7402    4.4226  -15.0739 N   0  0  0  0  0  0  0  0  0  0  0  0
   -8.3647    5.0108  -13.7788 C   0  0  0  0  0  0  0  0  0  0  0  0
   -7.8689    3.9834  -12.7368 C   0  0  0  0  0  0  0  0  0  0  0  0
   -8.2778    4.3661  -11.3819 N   0  0  0  0  0  0  0  0  0  0  0  0
   -7.3913    5.3037  -10.7098 C   0  0  0  0  0  0  0  0  0  0  0  0
   -7.7004    5.4041   -9.2174 C   0  0  0  0  0  0  0  0  0  0  0  0
   -7.5119    4.0634   -8.5013 C   0  0  0  0  0  0  0  0  0  0  0  0
   -7.9372    2.8394   -9.3538 C   0  0  0  0  0  0  0  0  0  0  0  0
   -8.8092    1.9076   -8.4779 C   0  0  0  0  0  0  0  0  0  0  0  0
   -6.6975    2.1010   -9.8962 C   0  0  0  0  0  0  0  0  0  0  0  0
   -8.7974    3.2874  -10.5450 C   0  0  0  0  0  0  0  0  0  0  0  0
   -8.6978    4.1439  -17.4611 C   0  0  0  0  0  0  0  0  0  0  0  0
   -8.0386    4.2126  -18.6849 C   0  0  0  0  0  0  0  0  0  0  0  0
   -6.7513    4.5357  -18.8566 N   0  0  0  0  0  0  0  0  0  0  0  0
   -6.0800    4.8595  -17.7278 C   0  0  0  0  0  0  0  0  0  0  0  0
  1  2  1  0
  2  3  1  0
  3  4  2  0
  3  5  1  0
  5  6  2  0
  6  7  1  0
  7  8  1  0
  8  9  2  0
  9 10  1  0
 10 11  1  0
 11 12  1  0
 12 13  1  0
 13 14  1  0
 14 15  1  0
 15 16  1  0
 16 17  1  0
 17 18  1  0
 17 19  1  0
 17 20  1  0
  9 21  1  0
 21 22  2  0
 22 23  1  0
 23 24  2  0
 24  5  1  0
 24  8  1  0
 20 13  1  0
M  END
>  <fragmenstein_outcome>  (26) 
nan

>  <exports>  (26) 
['/opt/xchem-fragalysis-2/maxwin/openbind-hippo/xx01zvns2b/cycle_01/syndirella/elabs/openbind_xx01zvns2b_c1_elab_chemspace_filtered.sdf']

>  <Energy>  (26) 
nan

>  <alias>  (26) 
None

>  <fragmenstein_runtime>  (26) 
nan

>  <scratch_subdir>  (26) 
nan

>  <HIPPO Compound ID>  (26) 
136022

>  <rmsd(smina/fragmenstein)>  (26) 
0.845

>  <distance_score>  (26) 
1.996846

>  <orig_smiles>  (26) 
nan

>  <fragmenstein_mode>  (26) 
nan

>  <inchikey>  (26) 
SYZHWKDKUIXGMO-UHFFFAOYSA-N

>  <ref_pdb>  (26) 
Z3515a

>  <GNINA pK>  (26) 
nan

>  <gnina_score_min>  (26) 
5.934

>  <tags>  (26) 
openbind_xx01zvns2b_c1_elab_nonasap_filtered_scored_top80percent,openbind_xx01zvns2b_c1_elab_chemspace_filtered_scored_top80percent,openbind_xx01zvns2b_c1_elab_chemspace_filtered_scored,openbind_xx01zvns2b_c1_elab_chemspace_filtered_scored_top40percent,openbind_xx01zvns2b_c1_elab_chemspace_filtered_scored_top20percent,openbind_xx01zvns2b_c1_elab_chemspace_filtered_scored_top60percent,openbind_xx01zvns2b_c1_elabs_filtered

>  <smiles>  (26) 
COC(=O)c1csc2c(NCCN3CCCC(C)(C)C3)ccnc12

>  <subsites>  (26) 
1 - Z4590/B/203/1

>  <gnina_score>  (26) 
5.714

>  <HIPPO Pose ID>  (26) 
68544

>  <ref_mols>  (26) 
Z0089a,Z3515a

>  <energy_score>  (26) 
-39.414227

>  <inspiration_score>  (26) 
None

>  <smina_score_min>  (26) 
-6.853

>  <fragmenstein_error>  (26) 
nan

>  <name>  (26) 
P68544

$$$$
P68547
     RDKit          3D

 22 24  0  0  0  0  0  0  0  0999 V2000
   -2.5414    4.9694  -18.1210 C   0  0  0  0  0  0  0  0  0  0  0  0
   -3.8803    5.6560  -17.8951 C   0  0  0  0  0  0  0  0  0  0  0  0
   -4.1499    6.1389  -16.4482 C   0  0  0  0  0  0  0  0  0  0  0  0
   -4.5614    5.0137  -15.4419 C   0  0  0  0  0  0  0  0  0  0  0  0
   -5.1992    5.4260  -14.0529 C   0  0  0  0  0  0  0  0  0  0  0  0
   -6.7356    5.2258  -13.7646 C   0  0  2  0  0  0  0  0  0  0  0  0
   -6.9411    4.4343  -12.5348 N   0  0  0  0  0  0  0  0  0  0  0  0
   -7.5358    4.7669  -11.3272 C   0  0  0  0  0  0  0  0  0  0  0  0
   -7.9259    6.0525  -10.9707 C   0  0  0  0  0  0  0  0  0  0  0  0
   -8.4549    6.3018   -9.7095 C   0  0  0  0  0  0  0  0  0  0  0  0
   -8.6717    5.3926   -8.7431 N   0  0  0  0  0  0  0  0  0  0  0  0
   -8.3310    4.1211   -9.0567 C   0  0  0  0  0  0  0  0  0  0  0  0
   -8.5021    2.9978   -8.1820 C   0  0  0  0  0  0  0  0  0  0  0  0
   -8.9849    2.9784   -6.8116 C   0  0  0  0  0  0  0  0  0  0  0  0
   -9.1305    3.9444   -6.0721 O   0  0  0  0  0  0  0  0  0  0  0  0
   -9.2190    1.7275   -6.3354 O   0  0  0  0  0  0  0  0  0  0  0  0
   -8.0674    1.8582   -8.8124 C   0  0  0  0  0  0  0  0  0  0  0  0
   -7.2936    2.1618  -10.2900 S   0  0  0  0  0  0  0  0  0  0  0  0
   -7.7507    3.8050  -10.2952 C   0  0  0  0  0  0  0  0  0  0  0  0
   -7.4563    4.5074  -14.8723 C   0  0  0  0  0  0  0  0  0  0  0  0
   -8.8189    4.9446  -15.3279 C   0  0  0  0  0  0  0  0  0  0  0  0
   -7.6496    5.0949  -16.2500 C   0  0  0  0  0  0  0  0  0  0  0  0
  1  2  1  0
  2  3  1  0
  3  4  1  0
  4  5  1  0
  6  5  1  6
  6  7  1  0
  7  8  1  0
  8  9  2  0
  9 10  1  0
 10 11  2  0
 11 12  1  0
 12 13  1  0
 13 14  1  0
 14 15  2  0
 14 16  1  0
 13 17  2  0
 17 18  1  0
 18 19  1  0
  6 20  1  0
 20 21  1  0
 21 22  1  0
 19  8  1  0
 22 20  1  0
 19 12  2  0
M  END
>  <fragmenstein_outcome>  (27) 
nan

>  <exports>  (27) 
['/opt/xchem-fragalysis-2/maxwin/openbind-hippo/xx01zvns2b/cycle_01/syndirella/elabs/openbind_xx01zvns2b_c1_elab_chemspace_filtered.sdf']

>  <Energy>  (27) 
nan

>  <alias>  (27) 
None

>  <fragmenstein_runtime>  (27) 
nan

>  <scratch_subdir>  (27) 
nan

>  <HIPPO Compound ID>  (27) 
136247

>  <rmsd(smina/fragmenstein)>  (27) 
1.7

>  <distance_score>  (27) 
1.909546

>  <orig_smiles>  (27) 
nan

>  <fragmenstein_mode>  (27) 
nan

>  <inchikey>  (27) 
LQRPDDKCLYCANR-ZDUSSCGKSA-N

>  <ref_pdb>  (27) 
Z3515a

>  <GNINA pK>  (27) 
nan

>  <gnina_score_min>  (27) 
5.199

>  <tags>  (27) 
openbind_xx01zvns2b_c1_elab_nonasap_filtered_scored_top80percent,openbind_xx01zvns2b_c1_elab_chemspace_filtered_scored_top80percent,openbind_xx01zvns2b_c1_elab_chemspace_filtered_scored,openbind_xx01zvns2b_c1_elab_chemspace_filtered_scored_top40percent,openbind_xx01zvns2b_c1_elab_chemspace_filtered_scored_top20percent,openbind_xx01zvns2b_c1_elab_chemspace_filtered_scored_top60percent,openbind_xx01zvns2b_c1_elabs_filtered

>  <smiles>  (27) 
CCCCC[C@H](Nc1ccnc2c(C(=O)O)csc12)C1CC1

>  <subsites>  (27) 
1 - Z4590/B/203/1

>  <gnina_score>  (27) 
5.29

>  <HIPPO Pose ID>  (27) 
68547

>  <ref_mols>  (27) 
Z0089a,Z3515a

>  <energy_score>  (27) 
-47.430239

>  <inspiration_score>  (27) 
None

>  <smina_score_min>  (27) 
-5.544

>  <fragmenstein_error>  (27) 
nan

>  <name>  (27) 
P68547

$$$$
P68552
     RDKit          3D

 18 20  0  0  0  0  0  0  0  0999 V2000
   -4.8444    9.8973  -23.0953 C   0  0  0  0  0  0  0  0  0  0  0  0
   -4.6319    8.4378  -22.8402 C   0  0  2  0  0  0  0  0  0  0  0  0
   -5.7821    7.5287  -23.1222 C   0  0  0  0  0  0  0  0  0  0  0  0
   -5.3095    7.6974  -21.6906 C   0  0  1  0  0  0  0  0  0  0  0  0
   -4.7038    6.4810  -21.0369 C   0  0  0  0  0  0  0  0  0  0  0  0
   -4.8563    6.3731  -19.5113 C   0  0  0  0  0  0  0  0  0  0  0  0
   -3.9818    6.6385  -18.7775 O   0  0  0  0  0  0  0  0  0  0  0  0
   -6.2749    5.7780  -19.2240 N   0  0  0  0  0  0  0  0  0  0  0  0
   -6.8420    5.3191  -18.0308 C   0  0  0  0  0  0  0  0  0  0  0  0
   -6.1753    5.3381  -16.8007 C   0  0  0  0  0  0  0  0  0  0  0  0
   -6.7884    4.8429  -15.6387 C   0  0  0  0  0  0  0  0  0  0  0  0
   -5.9354    4.9902  -13.9646 Br  0  0  0  0  0  0  0  0  0  0  0  0
   -8.0609    4.2852  -15.6450 C   0  0  0  0  0  0  0  0  0  0  0  0
   -8.7536    4.3218  -16.8451 C   0  0  0  0  0  0  0  0  0  0  0  0
  -10.0572    4.0018  -17.0632 N   0  0  0  0  0  0  0  0  0  0  0  0
  -10.3101    4.4764  -18.2527 C   0  0  0  0  0  0  0  0  0  0  0  0
   -9.1633    4.7924  -18.9172 N   0  0  0  0  0  0  0  0  0  0  0  0
   -8.1487    4.8228  -17.9944 C   0  0  0  0  0  0  0  0  0  0  0  0
  2  1  1  1
  2  3  1  0
  3  4  1  0
  4  5  1  6
  5  6  1  0
  6  7  2  0
  6  8  1  0
  8  9  1  0
  9 10  2  0
 10 11  1  0
 11 12  1  0
 11 13  2  0
 13 14  1  0
 14 15  1  0
 15 16  2  0
 16 17  1  0
 17 18  1  0
  4  2  1  0
 18  9  1  0
 18 14  2  0
M  END
>  <fragmenstein_outcome>  (28) 
nan

>  <exports>  (28) 
['/opt/xchem-fragalysis-2/maxwin/openbind-hippo/xx01zvns2b/cycle_01/syndirella/elabs/openbind_xx01zvns2b_c1_elab_chemspace_filtered.sdf']

>  <Energy>  (28) 
nan

>  <alias>  (28) 
None

>  <fragmenstein_runtime>  (28) 
nan

>  <scratch_subdir>  (28) 
nan

>  <HIPPO Compound ID>  (28) 
136709

>  <rmsd(smina/fragmenstein)>  (28) 
0.419

>  <distance_score>  (28) 
1.313288

>  <orig_smiles>  (28) 
nan

>  <fragmenstein_mode>  (28) 
nan

>  <inchikey>  (28) 
LZNCSLMEJJRZCV-SFYZADRCSA-N

>  <ref_pdb>  (28) 
Z0846a

>  <GNINA pK>  (28) 
nan

>  <gnina_score_min>  (28) 
5.296

>  <tags>  (28) 
openbind_xx01zvns2b_c1_elab_nonasap_filtered_scored_top80percent,openbind_xx01zvns2b_c1_elab_chemspace_filtered_scored_top80percent,openbind_xx01zvns2b_c1_elab_chemspace_filtered_scored,openbind_xx01zvns2b_c1_elab_chemspace_filtered_scored_top40percent,openbind_xx01zvns2b_c1_elab_chemspace_filtered_scored_top20percent,openbind_xx01zvns2b_c1_elab_chemspace_filtered_scored_top60percent,openbind_xx01zvns2b_c1_elabs_filtered

>  <smiles>  (28) 
C[C@@H]1C[C@H]1CC(=O)Nc1cc(Br)cc2nc[nH]c12

>  <subsites>  (28) 
1 - Z4590/B/203/1

>  <gnina_score>  (28) 
5.217

>  <HIPPO Pose ID>  (28) 
68552

>  <ref_mols>  (28) 
Z0846a,Z1597a

>  <energy_score>  (28) 
-18.984257

>  <inspiration_score>  (28) 
None

>  <smina_score_min>  (28) 
-5.686

>  <fragmenstein_error>  (28) 
nan

>  <name>  (28) 
P68552

$$$$
P68556
     RDKit          3D

 18 20  0  0  0  0  0  0  0  0999 V2000
   -5.7856    5.2012  -14.2625 C   0  0  0  0  0  0  0  0  0  0  0  0
   -6.5272    5.0123  -15.5462 C   0  0  0  0  0  0  0  0  0  0  0  0
   -6.0265    5.4898  -16.7754 C   0  0  0  0  0  0  0  0  0  0  0  0
   -6.7563    5.3863  -17.9696 C   0  0  0  0  0  0  0  0  0  0  0  0
   -6.2613    5.8082  -19.2072 N   0  0  0  0  0  0  0  0  0  0  0  0
   -4.9158    6.5189  -19.5743 C   0  0  0  0  0  0  0  0  0  0  0  0
   -4.0589    6.9248  -18.8848 O   0  0  0  0  0  0  0  0  0  0  0  0
   -4.8020    6.5271  -21.1074 C   0  0  0  0  0  0  0  0  0  0  0  0
   -5.3451    7.7552  -21.7923 C   0  0  2  0  0  0  0  0  0  0  0  0
   -5.8287    7.5777  -23.2182 C   0  0  0  0  0  0  0  0  0  0  0  0
   -4.6367    8.4384  -22.9558 C   0  0  1  0  0  0  0  0  0  0  0  0
   -4.7827    9.9027  -23.2293 C   0  0  0  0  0  0  0  0  0  0  0  0
   -8.0297    4.8235  -17.8456 C   0  0  0  0  0  0  0  0  0  0  0  0
   -9.0866    4.6804  -18.7101 N   0  0  0  0  0  0  0  0  0  0  0  0
  -10.1586    4.2610  -17.9783 C   0  0  0  0  0  0  0  0  0  0  0  0
   -9.8154    3.9040  -16.7709 N   0  0  0  0  0  0  0  0  0  0  0  0
   -8.5350    4.3379  -16.6420 C   0  0  0  0  0  0  0  0  0  0  0  0
   -7.7764    4.3991  -15.4799 C   0  0  0  0  0  0  0  0  0  0  0  0
  1  2  1  0
  2  3  2  0
  3  4  1  0
  4  5  1  0
  5  6  1  0
  6  7  2  0
  6  8  1  0
  9  8  1  6
  9 10  1  0
 10 11  1  0
 11 12  1  1
  4 13  2  0
 13 14  1  0
 14 15  1  0
 15 16  2  0
 16 17  1  0
 17 18  2  0
 18  2  1  0
 11  9  1  0
 17 13  1  0
M  END
>  <fragmenstein_outcome>  (29) 
nan

>  <exports>  (29) 
['/opt/xchem-fragalysis-2/maxwin/openbind-hippo/xx01zvns2b/cycle_01/syndirella/elabs/openbind_xx01zvns2b_c1_elab_chemspace_filtered.sdf']

>  <Energy>  (29) 
nan

>  <alias>  (29) 
None

>  <fragmenstein_runtime>  (29) 
nan

>  <scratch_subdir>  (29) 
nan

>  <HIPPO Compound ID>  (29) 
136712

>  <rmsd(smina/fragmenstein)>  (29) 
0.783

>  <distance_score>  (29) 
1.413744

>  <orig_smiles>  (29) 
nan

>  <fragmenstein_mode>  (29) 
nan

>  <inchikey>  (29) 
RYHLJXKRTUHYGB-ZJUUUORDSA-N

>  <ref_pdb>  (29) 
Z0846a

>  <GNINA pK>  (29) 
nan

>  <gnina_score_min>  (29) 
5.228

>  <tags>  (29) 
openbind_xx01zvns2b_c1_elab_nonasap_filtered_scored_top80percent,openbind_xx01zvns2b_c1_elab_chemspace_filtered_scored_top80percent,openbind_xx01zvns2b_c1_elab_chemspace_filtered_scored,openbind_xx01zvns2b_c1_elab_chemspace_filtered_scored_top40percent,openbind_xx01zvns2b_c1_elab_chemspace_filtered_scored_top20percent,openbind_xx01zvns2b_c1_elab_chemspace_filtered_scored_top60percent,openbind_xx01zvns2b_c1_elabs_filtered

>  <smiles>  (29) 
Cc1cc(NC(=O)C[C@@H]2C[C@H]2C)c2[nH]cnc2c1

>  <subsites>  (29) 
1 - Z4590/B/203/1

>  <gnina_score>  (29) 
5.051

>  <HIPPO Pose ID>  (29) 
68556

>  <ref_mols>  (29) 
Z0846a,Z1597a

>  <energy_score>  (29) 
-20.808016

>  <inspiration_score>  (29) 
None

>  <smina_score_min>  (29) 
-6.069

>  <fragmenstein_error>  (29) 
nan

>  <name>  (29) 
P68556

$$$$
P68567
     RDKit          3D

 19 21  0  0  0  0  0  0  0  0999 V2000
   -4.9008    9.8189  -23.9382 C   0  0  0  0  0  0  0  0  0  0  0  0
   -5.4362    8.7544  -23.0434 C   0  0  1  0  0  0  0  0  0  0  0  0
   -5.4074    7.3192  -23.4938 C   0  0  0  0  0  0  0  0  0  0  0  0
   -4.5309    7.7558  -22.3482 C   0  0  2  0  0  0  0  0  0  0  0  0
   -4.8257    7.3241  -20.9372 C   0  0  0  0  0  0  0  0  0  0  0  0
   -4.5722    5.8438  -20.7109 C   0  0  0  0  0  0  0  0  0  0  0  0
   -4.7099    5.4838  -19.2399 C   0  0  0  0  0  0  0  0  0  0  0  0
   -3.8034    5.5215  -18.5006 O   0  0  0  0  0  0  0  0  0  0  0  0
   -6.2009    5.1111  -18.9896 N   0  0  0  0  0  0  0  0  0  0  0  0
   -6.8712    4.8134  -17.8076 C   0  0  0  0  0  0  0  0  0  0  0  0
   -6.2491    4.7943  -16.5560 C   0  0  0  0  0  0  0  0  0  0  0  0
   -7.0060    4.5854  -15.3971 C   0  0  0  0  0  0  0  0  0  0  0  0
   -6.2607    4.6730  -13.8531 Cl  0  0  0  0  0  0  0  0  0  0  0  0
   -8.3829    4.3745  -15.4264 C   0  0  0  0  0  0  0  0  0  0  0  0
   -8.9687    4.4225  -16.6788 C   0  0  0  0  0  0  0  0  0  0  0  0
  -10.2762    4.4141  -17.0667 N   0  0  0  0  0  0  0  0  0  0  0  0
  -10.3145    4.6758  -18.3952 C   0  0  0  0  0  0  0  0  0  0  0  0
   -9.1175    4.6594  -18.9230 N   0  0  0  0  0  0  0  0  0  0  0  0
   -8.2602    4.6106  -17.8573 C   0  0  0  0  0  0  0  0  0  0  0  0
  2  1  1  6
  2  3  1  0
  3  4  1  0
  4  5  1  1
  5  6  1  0
  6  7  1  0
  7  8  2  0
  7  9  1  0
  9 10  1  0
 10 11  2  0
 11 12  1  0
 12 13  1  0
 12 14  2  0
 14 15  1  0
 15 16  1  0
 16 17  1  0
 17 18  2  0
 18 19  1  0
  4  2  1  0
 19 10  1  0
 19 15  2  0
M  END
>  <fragmenstein_outcome>  (30) 
nan

>  <exports>  (30) 
['/opt/xchem-fragalysis-2/maxwin/openbind-hippo/xx01zvns2b/cycle_01/syndirella/elabs/openbind_xx01zvns2b_c1_elab_chemspace_filtered.sdf']

>  <Energy>  (30) 
nan

>  <alias>  (30) 
None

>  <fragmenstein_runtime>  (30) 
nan

>  <scratch_subdir>  (30) 
nan

>  <HIPPO Compound ID>  (30) 
136727

>  <rmsd(smina/fragmenstein)>  (30) 
0.817

>  <distance_score>  (30) 
1.191052

>  <orig_smiles>  (30) 
nan

>  <fragmenstein_mode>  (30) 
nan

>  <inchikey>  (30) 
AAGMGYLTFWHXMK-IUCAKERBSA-N

>  <ref_pdb>  (30) 
Z0846a

>  <GNINA pK>  (30) 
nan

>  <gnina_score_min>  (30) 
5.206

>  <tags>  (30) 
openbind_xx01zvns2b_c1_elab_nonasap_filtered_scored_top80percent,openbind_xx01zvns2b_c1_elab_chemspace_filtered_scored_top80percent,openbind_xx01zvns2b_c1_elab_chemspace_filtered_scored,openbind_xx01zvns2b_c1_elab_chemspace_filtered_scored_top40percent,openbind_xx01zvns2b_c1_elab_chemspace_filtered_scored_top20percent,openbind_xx01zvns2b_c1_elab_chemspace_filtered_scored_top60percent,openbind_xx01zvns2b_c1_elabs_filtered

>  <smiles>  (30) 
C[C@H]1C[C@@H]1CCC(=O)Nc1cc(Cl)cc2[nH]cnc12

>  <subsites>  (30) 
1 - Z4590/B/203/1

>  <gnina_score>  (30) 
5.094

>  <HIPPO Pose ID>  (30) 
68567

>  <ref_mols>  (30) 
Z0846a,Z1597a

>  <energy_score>  (30) 
-5.505165

>  <inspiration_score>  (30) 
None

>  <smina_score_min>  (30) 
-5.573

>  <fragmenstein_error>  (30) 
nan

>  <name>  (30) 
P68567

$$$$
P68571
     RDKit          3D

 19 21  0  0  0  0  0  0  0  0999 V2000
   -4.9499    9.8863  -24.0149 C   0  0  0  0  0  0  0  0  0  0  0  0
   -5.4503    8.8311  -23.0894 C   0  0  1  0  0  0  0  0  0  0  0  0
   -5.4218    7.3885  -23.5171 C   0  0  0  0  0  0  0  0  0  0  0  0
   -4.5118    7.8544  -22.4098 C   0  0  2  0  0  0  0  0  0  0  0  0
   -4.7543    7.4499  -20.9830 C   0  0  0  0  0  0  0  0  0  0  0  0
   -4.4541    5.9840  -20.7355 C   0  0  0  0  0  0  0  0  0  0  0  0
   -4.6204    5.6377  -19.2651 C   0  0  0  0  0  0  0  0  0  0  0  0
   -3.7300    5.6602  -18.5060 O   0  0  0  0  0  0  0  0  0  0  0  0
   -6.1192    5.2621  -19.0533 N   0  0  0  0  0  0  0  0  0  0  0  0
   -6.8145    4.9436  -17.8917 C   0  0  0  0  0  0  0  0  0  0  0  0
   -6.2098    4.8927  -16.6324 C   0  0  0  0  0  0  0  0  0  0  0  0
   -6.9542    4.5679  -15.4926 C   0  0  0  0  0  0  0  0  0  0  0  0
   -6.1690    4.6521  -13.7823 Br  0  0  0  0  0  0  0  0  0  0  0  0
   -8.2990    4.2275  -15.5592 C   0  0  0  0  0  0  0  0  0  0  0  0
   -8.9123    4.3034  -16.8018 C   0  0  0  0  0  0  0  0  0  0  0  0
  -10.2259    4.1287  -17.1027 N   0  0  0  0  0  0  0  0  0  0  0  0
  -10.3459    4.5794  -18.3213 C   0  0  0  0  0  0  0  0  0  0  0  0
   -9.1306    4.7536  -18.9101 N   0  0  0  0  0  0  0  0  0  0  0  0
   -8.1816    4.6747  -17.9248 C   0  0  0  0  0  0  0  0  0  0  0  0
  2  1  1  6
  2  3  1  0
  3  4  1  0
  4  5  1  1
  5  6  1  0
  6  7  1  0
  7  8  2  0
  7  9  1  0
  9 10  1  0
 10 11  2  0
 11 12  1  0
 12 13  1  0
 12 14  2  0
 14 15  1  0
 15 16  1  0
 16 17  2  0
 17 18  1  0
 18 19  1  0
  4  2  1  0
 19 10  1  0
 19 15  2  0
M  END
>  <fragmenstein_outcome>  (31) 
nan

>  <exports>  (31) 
['/opt/xchem-fragalysis-2/maxwin/openbind-hippo/xx01zvns2b/cycle_01/syndirella/elabs/openbind_xx01zvns2b_c1_elab_chemspace_filtered.sdf']

>  <Energy>  (31) 
nan

>  <alias>  (31) 
None

>  <fragmenstein_runtime>  (31) 
nan

>  <scratch_subdir>  (31) 
nan

>  <HIPPO Compound ID>  (31) 
136728

>  <rmsd(smina/fragmenstein)>  (31) 
0.945

>  <distance_score>  (31) 
1.132233

>  <orig_smiles>  (31) 
nan

>  <fragmenstein_mode>  (31) 
nan

>  <inchikey>  (31) 
VGOGXTKPZXMWQR-IUCAKERBSA-N

>  <ref_pdb>  (31) 
Z0846a

>  <GNINA pK>  (31) 
nan

>  <gnina_score_min>  (31) 
5.435

>  <tags>  (31) 
openbind_xx01zvns2b_c1_elab_nonasap_filtered_scored_top80percent,openbind_xx01zvns2b_c1_elab_chemspace_filtered_scored_top80percent,openbind_xx01zvns2b_c1_elab_chemspace_filtered_scored,openbind_xx01zvns2b_c1_elab_chemspace_filtered_scored_top40percent,openbind_xx01zvns2b_c1_elab_chemspace_filtered_scored_top20percent,openbind_xx01zvns2b_c1_elab_chemspace_filtered_scored_top60percent,openbind_xx01zvns2b_c1_elabs_filtered

>  <smiles>  (31) 
C[C@H]1C[C@@H]1CCC(=O)Nc1cc(Br)cc2nc[nH]c12

>  <subsites>  (31) 
1 - Z4590/B/203/1

>  <gnina_score>  (31) 
5.411

>  <HIPPO Pose ID>  (31) 
68571

>  <ref_mols>  (31) 
Z0846a,Z1597a

>  <energy_score>  (31) 
-18.096407

>  <inspiration_score>  (31) 
None

>  <smina_score_min>  (31) 
-5.956

>  <fragmenstein_error>  (31) 
nan

>  <name>  (31) 
P68571

$$$$
P68575
     RDKit          3D

 19 21  0  0  0  0  0  0  0  0999 V2000
   -4.4931    5.2248  -16.2723 C   0  0  0  0  0  0  0  0  0  0  0  0
   -5.9362    4.8993  -16.5350 C   0  0  0  0  0  0  0  0  0  0  0  0
   -6.6626    4.4528  -15.4063 C   0  0  0  0  0  0  0  0  0  0  0  0
   -8.0134    4.1297  -15.4663 C   0  0  0  0  0  0  0  0  0  0  0  0
   -8.6560    4.2804  -16.6865 C   0  0  0  0  0  0  0  0  0  0  0  0
   -9.9745    4.0867  -16.9732 N   0  0  0  0  0  0  0  0  0  0  0  0
  -10.1182    4.5236  -18.1953 C   0  0  0  0  0  0  0  0  0  0  0  0
   -8.9137    4.7782  -18.7775 N   0  0  0  0  0  0  0  0  0  0  0  0
   -7.9462    4.7161  -17.8005 C   0  0  0  0  0  0  0  0  0  0  0  0
   -6.5691    5.0165  -17.7939 C   0  0  0  0  0  0  0  0  0  0  0  0
   -6.0045    5.4078  -19.0209 N   0  0  0  0  0  0  0  0  0  0  0  0
   -4.5107    5.6293  -19.4260 C   0  0  0  0  0  0  0  0  0  0  0  0
   -3.5355    5.5940  -18.7782 O   0  0  0  0  0  0  0  0  0  0  0  0
   -4.4929    5.9988  -20.8952 C   0  0  0  0  0  0  0  0  0  0  0  0
   -4.7482    7.4810  -21.0844 C   0  0  0  0  0  0  0  0  0  0  0  0
   -4.5416    7.9137  -22.5080 C   0  0  1  0  0  0  0  0  0  0  0  0
   -5.4852    7.4770  -23.5988 C   0  0  0  0  0  0  0  0  0  0  0  0
   -5.4872    8.9112  -23.1431 C   0  0  2  0  0  0  0  0  0  0  0  0
   -4.9969    9.9775  -24.0609 C   0  0  0  0  0  0  0  0  0  0  0  0
  1  2  1  0
  2  3  2  0
  3  4  1  0
  4  5  2  0
  5  6  1  0
  6  7  2  0
  7  8  1  0
  8  9  1  0
  9 10  2  0
 10 11  1  0
 11 12  1  0
 12 13  2  0
 12 14  1  0
 14 15  1  0
 16 15  1  1
 16 17  1  0
 17 18  1  0
 18 19  1  6
 10  2  1  0
 18 16  1  0
  9  5  1  0
M  END
>  <fragmenstein_outcome>  (32) 
nan

>  <exports>  (32) 
['/opt/xchem-fragalysis-2/maxwin/openbind-hippo/xx01zvns2b/cycle_01/syndirella/elabs/openbind_xx01zvns2b_c1_elab_chemspace_filtered.sdf']

>  <Energy>  (32) 
nan

>  <alias>  (32) 
None

>  <fragmenstein_runtime>  (32) 
nan

>  <scratch_subdir>  (32) 
nan

>  <HIPPO Compound ID>  (32) 
136729

>  <rmsd(smina/fragmenstein)>  (32) 
1.032

>  <distance_score>  (32) 
1.306023

>  <orig_smiles>  (32) 
nan

>  <fragmenstein_mode>  (32) 
nan

>  <inchikey>  (32) 
XEZWRAJYYCOHLS-QWRGUYRKSA-N

>  <ref_pdb>  (32) 
Z0846a

>  <GNINA pK>  (32) 
nan

>  <gnina_score_min>  (32) 
5.278

>  <tags>  (32) 
openbind_xx01zvns2b_c1_elab_nonasap_filtered_scored_top80percent,openbind_xx01zvns2b_c1_elab_chemspace_filtered_scored_top80percent,openbind_xx01zvns2b_c1_elab_chemspace_filtered_scored,openbind_xx01zvns2b_c1_elab_chemspace_filtered_scored_top40percent,openbind_xx01zvns2b_c1_elab_chemspace_filtered_scored_top20percent,openbind_xx01zvns2b_c1_elab_chemspace_filtered_scored_top60percent,openbind_xx01zvns2b_c1_elabs_filtered

>  <smiles>  (32) 
Cc1ccc2nc[nH]c2c1NC(=O)CC[C@H]1C[C@@H]1C

>  <subsites>  (32) 
1 - Z4590/B/203/1

>  <gnina_score>  (32) 
5.256

>  <HIPPO Pose ID>  (32) 
68575

>  <ref_mols>  (32) 
Z0846a,Z1597a

>  <energy_score>  (32) 
-17.17633

>  <inspiration_score>  (32) 
None

>  <smina_score_min>  (32) 
-6.008

>  <fragmenstein_error>  (32) 
nan

>  <name>  (32) 
P68575

$$$$
P68579
     RDKit          3D

 19 21  0  0  0  0  0  0  0  0999 V2000
   -4.9720    9.9429  -24.0054 C   0  0  0  0  0  0  0  0  0  0  0  0
   -5.4656    8.8742  -23.0919 C   0  0  1  0  0  0  0  0  0  0  0  0
   -5.4481    7.4403  -23.5478 C   0  0  0  0  0  0  0  0  0  0  0  0
   -4.5236    7.8817  -22.4423 C   0  0  2  0  0  0  0  0  0  0  0  0
   -4.7497    7.4399  -21.0233 C   0  0  0  0  0  0  0  0  0  0  0  0
   -4.4628    5.9630  -20.8332 C   0  0  0  0  0  0  0  0  0  0  0  0
   -4.5399    5.5717  -19.3691 C   0  0  0  0  0  0  0  0  0  0  0  0
   -3.6024    5.5731  -18.6685 O   0  0  0  0  0  0  0  0  0  0  0  0
   -6.0252    5.2078  -19.0675 N   0  0  0  0  0  0  0  0  0  0  0  0
   -6.6479    4.8775  -17.8692 C   0  0  0  0  0  0  0  0  0  0  0  0
   -5.9515    4.7837  -16.6616 C   0  0  0  0  0  0  0  0  0  0  0  0
   -6.6188    4.4857  -15.4488 C   0  0  0  0  0  0  0  0  0  0  0  0
   -7.9963    4.2783  -15.4111 C   0  0  0  0  0  0  0  0  0  0  0  0
   -8.6515    4.3734  -16.6087 C   0  0  0  0  0  0  0  0  0  0  0  0
  -10.0110    4.3319  -16.8561 N   0  0  0  0  0  0  0  0  0  0  0  0
  -10.2294    4.6658  -18.1847 C   0  0  0  0  0  0  0  0  0  0  0  0
  -11.3148    4.8845  -18.6826 O   0  0  0  0  0  0  0  0  0  0  0  0
   -8.9809    4.7641  -18.7981 N   0  0  0  0  0  0  0  0  0  0  0  0
   -8.0036    4.6527  -17.8127 C   0  0  0  0  0  0  0  0  0  0  0  0
  2  1  1  6
  2  3  1  0
  3  4  1  0
  4  5  1  1
  5  6  1  0
  6  7  1  0
  7  8  2  0
  7  9  1  0
  9 10  1  0
 10 11  2  0
 11 12  1  0
 12 13  2  0
 13 14  1  0
 14 15  1  0
 15 16  1  0
 16 17  2  0
 16 18  1  0
 18 19  1  0
  4  2  1  0
 19 10  1  0
 19 14  2  0
M  END
>  <fragmenstein_outcome>  (33) 
nan

>  <exports>  (33) 
['/opt/xchem-fragalysis-2/maxwin/openbind-hippo/xx01zvns2b/cycle_01/syndirella/elabs/openbind_xx01zvns2b_c1_elab_chemspace_filtered.sdf']

>  <Energy>  (33) 
nan

>  <alias>  (33) 
None

>  <fragmenstein_runtime>  (33) 
nan

>  <scratch_subdir>  (33) 
nan

>  <HIPPO Compound ID>  (33) 
136730

>  <rmsd(smina/fragmenstein)>  (33) 
0.949

>  <distance_score>  (33) 
1.1905

>  <orig_smiles>  (33) 
nan

>  <fragmenstein_mode>  (33) 
nan

>  <inchikey>  (33) 
WTHZZLBTMNWHMB-IUCAKERBSA-N

>  <ref_pdb>  (33) 
Z0846a

>  <GNINA pK>  (33) 
nan

>  <gnina_score_min>  (33) 
5.182

>  <tags>  (33) 
openbind_xx01zvns2b_c1_elab_nonasap_filtered_scored_top80percent,openbind_xx01zvns2b_c1_elab_chemspace_filtered_scored_top80percent,openbind_xx01zvns2b_c1_elab_chemspace_filtered_scored,openbind_xx01zvns2b_c1_elab_chemspace_filtered_scored_top40percent,openbind_xx01zvns2b_c1_elab_chemspace_filtered_scored_top20percent,openbind_xx01zvns2b_c1_elab_chemspace_filtered_scored_top60percent,openbind_xx01zvns2b_c1_elabs_filtered

>  <smiles>  (33) 
C[C@H]1C[C@@H]1CCC(=O)Nc1cccc2[nH]c(=O)[nH]c12

>  <subsites>  (33) 
1 - Z4590/B/203/1

>  <gnina_score>  (33) 
5.159

>  <HIPPO Pose ID>  (33) 
68579

>  <ref_mols>  (33) 
Z0846a,Z1597a

>  <energy_score>  (33) 
-23.238377

>  <inspiration_score>  (33) 
None

>  <smina_score_min>  (33) 
-6.53

>  <fragmenstein_error>  (33) 
nan

>  <name>  (33) 
P68579

$$$$
P68590
     RDKit          3D

 19 21  0  0  0  0  0  0  0  0999 V2000
  -10.9773    4.7275  -18.2824 C   0  0  0  0  0  0  0  0  0  0  0  0
   -9.6554    4.4056  -17.7592 C   0  0  0  0  0  0  0  0  0  0  0  0
   -9.3927    4.0305  -16.5330 N   0  0  0  0  0  0  0  0  0  0  0  0
   -8.0595    4.2526  -16.3873 C   0  0  0  0  0  0  0  0  0  0  0  0
   -7.2922    4.1625  -15.2291 C   0  0  0  0  0  0  0  0  0  0  0  0
   -5.9505    4.5313  -15.3108 C   0  0  0  0  0  0  0  0  0  0  0  0
   -5.3867    4.9522  -16.5220 C   0  0  0  0  0  0  0  0  0  0  0  0
   -6.1399    5.0182  -17.6962 C   0  0  0  0  0  0  0  0  0  0  0  0
   -5.6081    5.4302  -18.9112 N   0  0  0  0  0  0  0  0  0  0  0  0
   -4.1340    5.7273  -19.3218 C   0  0  0  0  0  0  0  0  0  0  0  0
   -3.1566    5.7442  -18.6785 O   0  0  0  0  0  0  0  0  0  0  0  0
   -4.1554    6.0638  -20.8021 C   0  0  0  0  0  0  0  0  0  0  0  0
   -4.5631    7.5073  -21.0311 C   0  0  0  0  0  0  0  0  0  0  0  0
   -4.4395    7.9073  -22.4746 C   0  0  1  0  0  0  0  0  0  0  0  0
   -5.4304    7.4188  -23.4990 C   0  0  0  0  0  0  0  0  0  0  0  0
   -5.4406    8.8659  -23.0839 C   0  0  2  0  0  0  0  0  0  0  0  0
   -5.0244    9.9170  -24.0549 C   0  0  0  0  0  0  0  0  0  0  0  0
   -7.4811    4.6635  -17.5851 C   0  0  0  0  0  0  0  0  0  0  0  0
   -8.5176    4.6397  -18.4778 N   0  0  0  0  0  0  0  0  0  0  0  0
  1  2  1  0
  2  3  2  0
  3  4  1  0
  4  5  2  0
  5  6  1  0
  6  7  2  0
  7  8  1  0
  8  9  1  0
  9 10  1  0
 10 11  2  0
 10 12  1  0
 12 13  1  0
 14 13  1  1
 14 15  1  0
 15 16  1  0
 16 17  1  6
  8 18  2  0
 18 19  1  0
 19  2  1  0
 18  4  1  0
 16 14  1  0
M  END
>  <fragmenstein_outcome>  (34) 
nan

>  <exports>  (34) 
['/opt/xchem-fragalysis-2/maxwin/openbind-hippo/xx01zvns2b/cycle_01/syndirella/elabs/openbind_xx01zvns2b_c1_elab_chemspace_filtered.sdf']

>  <Energy>  (34) 
nan

>  <alias>  (34) 
None

>  <fragmenstein_runtime>  (34) 
nan

>  <scratch_subdir>  (34) 
nan

>  <HIPPO Compound ID>  (34) 
136734

>  <rmsd(smina/fragmenstein)>  (34) 
1.528

>  <distance_score>  (34) 
1.361425

>  <orig_smiles>  (34) 
nan

>  <fragmenstein_mode>  (34) 
nan

>  <inchikey>  (34) 
VCFCOOOCGQTICZ-ONGXEEELSA-N

>  <ref_pdb>  (34) 
Z0846a

>  <GNINA pK>  (34) 
nan

>  <gnina_score_min>  (34) 
5.184

>  <tags>  (34) 
openbind_xx01zvns2b_c1_elab_nonasap_filtered_scored_top80percent,openbind_xx01zvns2b_c1_elab_chemspace_filtered_scored_top80percent,openbind_xx01zvns2b_c1_elab_chemspace_filtered_scored,openbind_xx01zvns2b_c1_elab_chemspace_filtered_scored_top40percent,openbind_xx01zvns2b_c1_elab_chemspace_filtered_scored_top20percent,openbind_xx01zvns2b_c1_elab_chemspace_filtered_scored_top60percent,openbind_xx01zvns2b_c1_elabs_filtered

>  <smiles>  (34) 
Cc1nc2cccc(NC(=O)CC[C@H]3C[C@@H]3C)c2[nH]1

>  <subsites>  (34) 
1 - Z4590/B/203/1

>  <gnina_score>  (34) 
5.095

>  <HIPPO Pose ID>  (34) 
68590

>  <ref_mols>  (34) 
Z0846a,Z1597a

>  <energy_score>  (34) 
-25.566736

>  <inspiration_score>  (34) 
None

>  <smina_score_min>  (34) 
-5.775

>  <fragmenstein_error>  (34) 
nan

>  <name>  (34) 
P68590

$$$$
P68601
     RDKit          3D

 19 20  0  0  0  0  0  0  0  0999 V2000
   -5.8976    7.7524  -24.6494 C   0  0  0  0  0  0  0  0  0  0  0  0
   -5.5412    8.0757  -23.2059 C   0  0  2  0  0  0  0  0  0  0  0  0
   -4.7008    9.2217  -23.2062 O   0  0  0  0  0  0  0  0  0  0  0  0
   -4.8701    6.8801  -22.5275 C   0  0  0  0  0  0  0  0  0  0  0  0
   -4.7129    7.0467  -21.0131 C   0  0  0  0  0  0  0  0  0  0  0  0
   -4.1759    5.7731  -20.3696 C   0  0  0  0  0  0  0  0  0  0  0  0
   -4.4896    5.7029  -18.8863 C   0  0  0  0  0  0  0  0  0  0  0  0
   -3.6967    5.8950  -18.0483 O   0  0  0  0  0  0  0  0  0  0  0  0
   -5.9940    5.3046  -18.7817 N   0  0  0  0  0  0  0  0  0  0  0  0
   -6.7650    4.9842  -17.6749 C   0  0  0  0  0  0  0  0  0  0  0  0
   -6.2518    4.9560  -16.3775 C   0  0  0  0  0  0  0  0  0  0  0  0
   -7.0690    4.6160  -15.2965 C   0  0  0  0  0  0  0  0  0  0  0  0
   -6.3996    4.7061  -13.5386 Br  0  0  0  0  0  0  0  0  0  0  0  0
   -8.4009    4.2564  -15.4602 C   0  0  0  0  0  0  0  0  0  0  0  0
   -8.9270    4.3166  -16.7440 C   0  0  0  0  0  0  0  0  0  0  0  0
  -10.2154    4.1343  -17.1389 N   0  0  0  0  0  0  0  0  0  0  0  0
  -10.2483    4.5893  -18.3617 C   0  0  0  0  0  0  0  0  0  0  0  0
   -8.9945    4.7554  -18.8668 N   0  0  0  0  0  0  0  0  0  0  0  0
   -8.1200    4.6880  -17.8132 C   0  0  0  0  0  0  0  0  0  0  0  0
  2  1  1  6
  2  3  1  0
  2  4  1  0
  4  5  1  0
  5  6  1  0
  6  7  1  0
  7  8  2  0
  7  9  1  0
  9 10  1  0
 10 11  2  0
 11 12  1  0
 12 13  1  0
 12 14  2  0
 14 15  1  0
 15 16  1  0
 16 17  2  0
 17 18  1  0
 18 19  1  0
 19 10  1  0
 19 15  2  0
M  END
>  <fragmenstein_outcome>  (35) 
nan

>  <exports>  (35) 
['/opt/xchem-fragalysis-2/maxwin/openbind-hippo/xx01zvns2b/cycle_01/syndirella/elabs/openbind_xx01zvns2b_c1_elab_chemspace_filtered.sdf']

>  <Energy>  (35) 
nan

>  <alias>  (35) 
None

>  <fragmenstein_runtime>  (35) 
nan

>  <scratch_subdir>  (35) 
nan

>  <HIPPO Compound ID>  (35) 
136741

>  <rmsd(smina/fragmenstein)>  (35) 
1.191

>  <distance_score>  (35) 
0.898039

>  <orig_smiles>  (35) 
nan

>  <fragmenstein_mode>  (35) 
nan

>  <inchikey>  (35) 
FMGSTMOOPZNYMK-QMMMGPOBSA-N

>  <ref_pdb>  (35) 
Z0846a

>  <GNINA pK>  (35) 
nan

>  <gnina_score_min>  (35) 
5.374

>  <tags>  (35) 
openbind_xx01zvns2b_c1_elab_nonasap_filtered_scored_top80percent,openbind_xx01zvns2b_c1_elab_chemspace_filtered_scored_top80percent,openbind_xx01zvns2b_c1_elab_chemspace_filtered_scored,openbind_xx01zvns2b_c1_elab_chemspace_filtered_scored_top40percent,openbind_xx01zvns2b_c1_elab_chemspace_filtered_scored_top20percent,openbind_xx01zvns2b_c1_elab_chemspace_filtered_scored_top60percent,openbind_xx01zvns2b_c1_elabs_filtered

>  <smiles>  (35) 
C[C@H](O)CCCC(=O)Nc1cc(Br)cc2nc[nH]c12

>  <subsites>  (35) 
1 - Z4590/B/203/1

>  <gnina_score>  (35) 
5.283

>  <HIPPO Pose ID>  (35) 
68601

>  <ref_mols>  (35) 
Z0846a,Z1597a

>  <energy_score>  (35) 
-20.306515

>  <inspiration_score>  (35) 
None

>  <smina_score_min>  (35) 
-5.794

>  <fragmenstein_error>  (35) 
nan

>  <name>  (35) 
P68601

$$$$
P68609
     RDKit          3D

 19 20  0  0  0  0  0  0  0  0999 V2000
   -5.5619   10.1169  -23.8833 C   0  0  0  0  0  0  0  0  0  0  0  0
   -4.7779    9.2457  -23.2352 C   0  0  0  0  0  0  0  0  0  0  0  0
   -4.2759    9.4365  -21.8293 C   0  0  0  0  0  0  0  0  0  0  0  0
   -4.6767    8.2813  -20.9057 C   0  0  0  0  0  0  0  0  0  0  0  0
   -3.8164    7.0233  -21.0809 C   0  0  0  0  0  0  0  0  0  0  0  0
   -4.5063    5.7655  -20.5634 C   0  0  0  0  0  0  0  0  0  0  0  0
   -4.7466    5.7626  -19.0604 C   0  0  0  0  0  0  0  0  0  0  0  0
   -3.9109    6.0275  -18.2858 O   0  0  0  0  0  0  0  0  0  0  0  0
   -6.2072    5.2727  -18.8398 N   0  0  0  0  0  0  0  0  0  0  0  0
   -6.8763    4.9328  -17.6738 C   0  0  0  0  0  0  0  0  0  0  0  0
   -6.2863    4.9558  -16.4094 C   0  0  0  0  0  0  0  0  0  0  0  0
   -7.0588    4.6905  -15.2739 C   0  0  0  0  0  0  0  0  0  0  0  0
   -6.3556    4.8052  -13.7125 Cl  0  0  0  0  0  0  0  0  0  0  0  0
   -8.4211    4.4018  -15.3405 C   0  0  0  0  0  0  0  0  0  0  0  0
   -8.9767    4.4214  -16.6080 C   0  0  0  0  0  0  0  0  0  0  0  0
  -10.2717    4.3662  -17.0331 N   0  0  0  0  0  0  0  0  0  0  0  0
  -10.2825    4.6361  -18.3614 C   0  0  0  0  0  0  0  0  0  0  0  0
   -9.0723    4.6486  -18.8580 N   0  0  0  0  0  0  0  0  0  0  0  0
   -8.2464    4.6403  -17.7662 C   0  0  0  0  0  0  0  0  0  0  0  0
  1  2  2  0
  2  3  1  0
  3  4  1  0
  4  5  1  0
  5  6  1  0
  6  7  1  0
  7  8  2  0
  7  9  1  0
  9 10  1  0
 10 11  2  0
 11 12  1  0
 12 13  1  0
 12 14  2  0
 14 15  1  0
 15 16  1  0
 16 17  1  0
 17 18  2  0
 18 19  1  0
 19 10  1  0
 19 15  2  0
M  END
>  <fragmenstein_outcome>  (36) 
nan

>  <exports>  (36) 
['/opt/xchem-fragalysis-2/maxwin/openbind-hippo/xx01zvns2b/cycle_01/syndirella/elabs/openbind_xx01zvns2b_c1_elab_chemspace_filtered.sdf']

>  <Energy>  (36) 
nan

>  <alias>  (36) 
None

>  <fragmenstein_runtime>  (36) 
nan

>  <scratch_subdir>  (36) 
nan

>  <HIPPO Compound ID>  (36) 
136745

>  <rmsd(smina/fragmenstein)>  (36) 
1.24

>  <distance_score>  (36) 
0.911979

>  <orig_smiles>  (36) 
nan

>  <fragmenstein_mode>  (36) 
nan

>  <inchikey>  (36) 
HPYVPIIZHMIEJO-UHFFFAOYSA-N

>  <ref_pdb>  (36) 
Z0846a

>  <GNINA pK>  (36) 
nan

>  <gnina_score_min>  (36) 
5.294

>  <tags>  (36) 
openbind_xx01zvns2b_c1_elab_nonasap_filtered_scored_top80percent,openbind_xx01zvns2b_c1_elab_chemspace_filtered_scored_top80percent,openbind_xx01zvns2b_c1_elab_chemspace_filtered_scored,openbind_xx01zvns2b_c1_elab_chemspace_filtered_scored_top40percent,openbind_xx01zvns2b_c1_elab_chemspace_filtered_scored_top20percent,openbind_xx01zvns2b_c1_elab_chemspace_filtered_scored_top60percent,openbind_xx01zvns2b_c1_elabs_filtered

>  <smiles>  (36) 
C=CCCCCC(=O)Nc1cc(Cl)cc2[nH]cnc12

>  <subsites>  (36) 
1 - Z4590/B/203/1

>  <gnina_score>  (36) 
5.037

>  <HIPPO Pose ID>  (36) 
68609

>  <ref_mols>  (36) 
Z0846a,Z1597a

>  <energy_score>  (36) 
-17.678267

>  <inspiration_score>  (36) 
None

>  <smina_score_min>  (36) 
-5.098

>  <fragmenstein_error>  (36) 
nan

>  <name>  (36) 
P68609

$$$$
P68610
     RDKit          3D

 19 20  0  0  0  0  0  0  0  0999 V2000
   -5.6732   10.2358  -23.7158 C   0  0  0  0  0  0  0  0  0  0  0  0
   -5.1810    9.1610  -23.0863 C   0  0  0  0  0  0  0  0  0  0  0  0
   -4.0944    9.2293  -22.0499 C   0  0  0  0  0  0  0  0  0  0  0  0
   -4.2916    8.3265  -20.8217 C   0  0  0  0  0  0  0  0  0  0  0  0
   -4.4825    6.8428  -21.1719 C   0  0  0  0  0  0  0  0  0  0  0  0
   -3.8634    5.8811  -20.1655 C   0  0  0  0  0  0  0  0  0  0  0  0
   -4.3754    5.9523  -18.7327 C   0  0  0  0  0  0  0  0  0  0  0  0
   -3.6947    6.3110  -17.8513 O   0  0  0  0  0  0  0  0  0  0  0  0
   -5.8265    5.3855  -18.7211 N   0  0  0  0  0  0  0  0  0  0  0  0
   -6.6640    5.0691  -17.6558 C   0  0  0  0  0  0  0  0  0  0  0  0
   -6.2173    5.0760  -16.3315 C   0  0  0  0  0  0  0  0  0  0  0  0
   -7.0660    4.7057  -15.2834 C   0  0  0  0  0  0  0  0  0  0  0  0
   -6.4694    4.8118  -13.5001 Br  0  0  0  0  0  0  0  0  0  0  0  0
   -8.3763    4.3000  -15.5001 C   0  0  0  0  0  0  0  0  0  0  0  0
   -8.8487    4.3486  -16.8047 C   0  0  0  0  0  0  0  0  0  0  0  0
  -10.1233    4.1586  -17.2439 N   0  0  0  0  0  0  0  0  0  0  0  0
  -10.1073    4.6077  -18.4692 C   0  0  0  0  0  0  0  0  0  0  0  0
   -8.8353    4.7626  -18.9299 N   0  0  0  0  0  0  0  0  0  0  0  0
   -8.0023    4.7258  -17.8441 C   0  0  0  0  0  0  0  0  0  0  0  0
  1  2  2  0
  2  3  1  0
  3  4  1  0
  4  5  1  0
  5  6  1  0
  6  7  1  0
  7  8  2  0
  7  9  1  0
  9 10  1  0
 10 11  2  0
 11 12  1  0
 12 13  1  0
 12 14  2  0
 14 15  1  0
 15 16  1  0
 16 17  2  0
 17 18  1  0
 18 19  1  0
 19 10  1  0
 19 15  2  0
M  END
>  <fragmenstein_outcome>  (37) 
nan

>  <exports>  (37) 
['/opt/xchem-fragalysis-2/maxwin/openbind-hippo/xx01zvns2b/cycle_01/syndirella/elabs/openbind_xx01zvns2b_c1_elab_chemspace_filtered.sdf']

>  <Energy>  (37) 
nan

>  <alias>  (37) 
None

>  <fragmenstein_runtime>  (37) 
nan

>  <scratch_subdir>  (37) 
nan

>  <HIPPO Compound ID>  (37) 
136746

>  <rmsd(smina/fragmenstein)>  (37) 
1.569

>  <distance_score>  (37) 
0.918642

>  <orig_smiles>  (37) 
nan

>  <fragmenstein_mode>  (37) 
nan

>  <inchikey>  (37) 
ONRKRDRUEGLNCZ-UHFFFAOYSA-N

>  <ref_pdb>  (37) 
Z0846a

>  <GNINA pK>  (37) 
nan

>  <gnina_score_min>  (37) 
5.575

>  <tags>  (37) 
openbind_xx01zvns2b_c1_elab_nonasap_filtered_scored_top80percent,openbind_xx01zvns2b_c1_elab_chemspace_filtered_scored_top80percent,openbind_xx01zvns2b_c1_elab_chemspace_filtered_scored,openbind_xx01zvns2b_c1_elab_chemspace_filtered_scored_top40percent,openbind_xx01zvns2b_c1_elab_chemspace_filtered_scored_top20percent,openbind_xx01zvns2b_c1_elab_chemspace_filtered_scored_top60percent,openbind_xx01zvns2b_c1_elabs_filtered

>  <smiles>  (37) 
C=CCCCCC(=O)Nc1cc(Br)cc2nc[nH]c12

>  <subsites>  (37) 
1 - Z4590/B/203/1

>  <gnina_score>  (37) 
5.377

>  <HIPPO Pose ID>  (37) 
68610

>  <ref_mols>  (37) 
Z0846a,Z1597a

>  <energy_score>  (37) 
-19.855742

>  <inspiration_score>  (37) 
None

>  <smina_score_min>  (37) 
-5.696

>  <fragmenstein_error>  (37) 
nan

>  <name>  (37) 
P68610

$$$$
P68611
     RDKit          3D

 19 20  0  0  0  0  0  0  0  0999 V2000
   -5.5867   10.1247  -23.7536 C   0  0  0  0  0  0  0  0  0  0  0  0
   -4.9526    9.1730  -23.0558 C   0  0  0  0  0  0  0  0  0  0  0  0
   -5.2361    7.7053  -23.2048 C   0  0  0  0  0  0  0  0  0  0  0  0
   -5.2562    6.9269  -21.8818 C   0  0  0  0  0  0  0  0  0  0  0  0
   -3.8846    6.8207  -21.2107 C   0  0  0  0  0  0  0  0  0  0  0  0
   -3.7738    5.6373  -20.2581 C   0  0  0  0  0  0  0  0  0  0  0  0
   -4.2561    5.9013  -18.8392 C   0  0  0  0  0  0  0  0  0  0  0  0
   -3.6028    6.4734  -18.0537 O   0  0  0  0  0  0  0  0  0  0  0  0
   -5.6398    5.1951  -18.6818 N   0  0  0  0  0  0  0  0  0  0  0  0
   -6.4248    4.9766  -17.5425 C   0  0  0  0  0  0  0  0  0  0  0  0
   -5.9603    4.8950  -16.2116 C   0  0  0  0  0  0  0  0  0  0  0  0
   -4.5191    5.0603  -15.8131 C   0  0  0  0  0  0  0  0  0  0  0  0
   -6.8520    4.5737  -15.1644 C   0  0  0  0  0  0  0  0  0  0  0  0
   -8.1949    4.2846  -15.3922 C   0  0  0  0  0  0  0  0  0  0  0  0
   -8.6621    4.3631  -16.6979 C   0  0  0  0  0  0  0  0  0  0  0  0
   -9.9383    4.1982  -17.1534 N   0  0  0  0  0  0  0  0  0  0  0  0
   -9.8955    4.5949  -18.3971 C   0  0  0  0  0  0  0  0  0  0  0  0
   -8.6144    4.7707  -18.8247 N   0  0  0  0  0  0  0  0  0  0  0  0
   -7.7908    4.7036  -17.7278 C   0  0  0  0  0  0  0  0  0  0  0  0
  1  2  2  0
  2  3  1  0
  3  4  1  0
  4  5  1  0
  5  6  1  0
  6  7  1  0
  7  8  2  0
  7  9  1  0
  9 10  1  0
 10 11  2  0
 11 12  1  0
 11 13  1  0
 13 14  2  0
 14 15  1  0
 15 16  1  0
 16 17  2  0
 17 18  1  0
 18 19  1  0
 19 10  1  0
 19 15  2  0
M  END
>  <fragmenstein_outcome>  (38) 
nan

>  <exports>  (38) 
['/opt/xchem-fragalysis-2/maxwin/openbind-hippo/xx01zvns2b/cycle_01/syndirella/elabs/openbind_xx01zvns2b_c1_elab_chemspace_filtered.sdf']

>  <Energy>  (38) 
nan

>  <alias>  (38) 
None

>  <fragmenstein_runtime>  (38) 
nan

>  <scratch_subdir>  (38) 
nan

>  <HIPPO Compound ID>  (38) 
136747

>  <rmsd(smina/fragmenstein)>  (38) 
1.124

>  <distance_score>  (38) 
1.152966

>  <orig_smiles>  (38) 
nan

>  <fragmenstein_mode>  (38) 
nan

>  <inchikey>  (38) 
ZBCVOYMBDGQIDB-UHFFFAOYSA-N

>  <ref_pdb>  (38) 
Z0846a

>  <GNINA pK>  (38) 
nan

>  <gnina_score_min>  (38) 
5.327

>  <tags>  (38) 
openbind_xx01zvns2b_c1_elab_nonasap_filtered_scored_top80percent,openbind_xx01zvns2b_c1_elab_chemspace_filtered_scored_top80percent,openbind_xx01zvns2b_c1_elab_chemspace_filtered_scored,openbind_xx01zvns2b_c1_elab_chemspace_filtered_scored_top40percent,openbind_xx01zvns2b_c1_elab_chemspace_filtered_scored_top20percent,openbind_xx01zvns2b_c1_elab_chemspace_filtered_scored_top60percent,openbind_xx01zvns2b_c1_elabs_filtered

>  <smiles>  (38) 
C=CCCCCC(=O)Nc1c(C)ccc2nc[nH]c12

>  <subsites>  (38) 
1 - Z4590/B/203/1

>  <gnina_score>  (38) 
5.305

>  <HIPPO Pose ID>  (38) 
68611

>  <ref_mols>  (38) 
Z0846a,Z1597a

>  <energy_score>  (38) 
-16.470763

>  <inspiration_score>  (38) 
None

>  <smina_score_min>  (38) 
-5.558

>  <fragmenstein_error>  (38) 
nan

>  <name>  (38) 
P68611

$$$$
P68612
     RDKit          3D

 19 20  0  0  0  0  0  0  0  0999 V2000
   -5.5464   10.1717  -23.6701 C   0  0  0  0  0  0  0  0  0  0  0  0
   -4.9239    9.1983  -22.9917 C   0  0  0  0  0  0  0  0  0  0  0  0
   -5.1874    7.7368  -23.2119 C   0  0  0  0  0  0  0  0  0  0  0  0
   -5.3045    6.9136  -21.9229 C   0  0  0  0  0  0  0  0  0  0  0  0
   -3.9855    6.7382  -21.1643 C   0  0  0  0  0  0  0  0  0  0  0  0
   -3.9480    5.4552  -20.3404 C   0  0  0  0  0  0  0  0  0  0  0  0
   -4.3151    5.5955  -18.8744 C   0  0  0  0  0  0  0  0  0  0  0  0
   -3.5269    5.8935  -18.0620 O   0  0  0  0  0  0  0  0  0  0  0  0
   -5.8101    5.1784  -18.7261 N   0  0  0  0  0  0  0  0  0  0  0  0
   -6.5770    4.9610  -17.5882 C   0  0  0  0  0  0  0  0  0  0  0  0
   -6.0033    4.9580  -16.3124 C   0  0  0  0  0  0  0  0  0  0  0  0
   -6.7682    4.6695  -15.1593 C   0  0  0  0  0  0  0  0  0  0  0  0
   -8.1293    4.3958  -15.2479 C   0  0  0  0  0  0  0  0  0  0  0  0
   -8.6694    4.4259  -16.5056 C   0  0  0  0  0  0  0  0  0  0  0  0
  -10.0023    4.3459  -16.8627 N   0  0  0  0  0  0  0  0  0  0  0  0
  -10.1153    4.6648  -18.2074 C   0  0  0  0  0  0  0  0  0  0  0  0
  -11.1641    4.8952  -18.7747 O   0  0  0  0  0  0  0  0  0  0  0  0
   -8.8196    4.7523  -18.7269 N   0  0  0  0  0  0  0  0  0  0  0  0
   -7.9246    4.6873  -17.6578 C   0  0  0  0  0  0  0  0  0  0  0  0
  1  2  2  0
  2  3  1  0
  3  4  1  0
  4  5  1  0
  5  6  1  0
  6  7  1  0
  7  8  2  0
  7  9  1  0
  9 10  1  0
 10 11  2  0
 11 12  1  0
 12 13  2  0
 13 14  1  0
 14 15  1  0
 15 16  1  0
 16 17  2  0
 16 18  1  0
 18 19  1  0
 19 10  1  0
 19 14  2  0
M  END
>  <fragmenstein_outcome>  (39) 
nan

>  <exports>  (39) 
['/opt/xchem-fragalysis-2/maxwin/openbind-hippo/xx01zvns2b/cycle_01/syndirella/elabs/openbind_xx01zvns2b_c1_elab_chemspace_filtered.sdf']

>  <Energy>  (39) 
nan

>  <alias>  (39) 
None

>  <fragmenstein_runtime>  (39) 
nan

>  <scratch_subdir>  (39) 
nan

>  <HIPPO Compound ID>  (39) 
136748

>  <rmsd(smina/fragmenstein)>  (39) 
1.166

>  <distance_score>  (39) 
0.988979

>  <orig_smiles>  (39) 
nan

>  <fragmenstein_mode>  (39) 
nan

>  <inchikey>  (39) 
QDOOEHIEINGLCJ-UHFFFAOYSA-N

>  <ref_pdb>  (39) 
Z0846a

>  <GNINA pK>  (39) 
nan

>  <gnina_score_min>  (39) 
5.23

>  <tags>  (39) 
openbind_xx01zvns2b_c1_elab_nonasap_filtered_scored_top80percent,openbind_xx01zvns2b_c1_elab_chemspace_filtered_scored_top80percent,openbind_xx01zvns2b_c1_elab_chemspace_filtered_scored,openbind_xx01zvns2b_c1_elab_chemspace_filtered_scored_top40percent,openbind_xx01zvns2b_c1_elab_chemspace_filtered_scored_top20percent,openbind_xx01zvns2b_c1_elab_chemspace_filtered_scored_top60percent,openbind_xx01zvns2b_c1_elabs_filtered

>  <smiles>  (39) 
C=CCCCCC(=O)Nc1cccc2[nH]c(=O)[nH]c12

>  <subsites>  (39) 
1 - Z4590/B/203/1

>  <gnina_score>  (39) 
5.208

>  <HIPPO Pose ID>  (39) 
68612

>  <ref_mols>  (39) 
Z0846a,Z1597a

>  <energy_score>  (39) 
-31.391718

>  <inspiration_score>  (39) 
None

>  <smina_score_min>  (39) 
-5.976

>  <fragmenstein_error>  (39) 
nan

>  <name>  (39) 
P68612

$$$$
P68613
     RDKit          3D

 19 20  0  0  0  0  0  0  0  0999 V2000
   -5.6531   10.3059  -23.7160 C   0  0  0  0  0  0  0  0  0  0  0  0
   -5.2069    9.2154  -23.0793 C   0  0  0  0  0  0  0  0  0  0  0  0
   -4.0883    9.2399  -22.0750 C   0  0  0  0  0  0  0  0  0  0  0  0
   -4.2911    8.3563  -20.8340 C   0  0  0  0  0  0  0  0  0  0  0  0
   -4.5524    6.8793  -21.1666 C   0  0  0  0  0  0  0  0  0  0  0  0
   -3.8903    5.8999  -20.2081 C   0  0  0  0  0  0  0  0  0  0  0  0
   -4.3114    5.9629  -18.7463 C   0  0  0  0  0  0  0  0  0  0  0  0
   -3.5600    6.2675  -17.9021 O   0  0  0  0  0  0  0  0  0  0  0  0
   -5.7867    5.4680  -18.6547 N   0  0  0  0  0  0  0  0  0  0  0  0
   -6.5723    5.1691  -17.5448 C   0  0  0  0  0  0  0  0  0  0  0  0
   -6.0683    5.2371  -16.2388 C   0  0  0  0  0  0  0  0  0  0  0  0
   -6.8245    4.8351  -15.1248 C   0  0  0  0  0  0  0  0  0  0  0  0
   -6.2931    4.9630  -13.7343 C   0  0  0  0  0  0  0  0  0  0  0  0
   -8.1213    4.3541  -15.2914 C   0  0  0  0  0  0  0  0  0  0  0  0
   -8.6603    4.3424  -16.5743 C   0  0  0  0  0  0  0  0  0  0  0  0
   -9.9318    4.0345  -16.9416 N   0  0  0  0  0  0  0  0  0  0  0  0
  -10.0116    4.4338  -18.1811 C   0  0  0  0  0  0  0  0  0  0  0  0
   -8.7852    4.7098  -18.7109 N   0  0  0  0  0  0  0  0  0  0  0  0
   -7.8971    4.7514  -17.6657 C   0  0  0  0  0  0  0  0  0  0  0  0
  1  2  2  0
  2  3  1  0
  3  4  1  0
  4  5  1  0
  5  6  1  0
  6  7  1  0
  7  8  2  0
  7  9  1  0
  9 10  1  0
 10 11  2  0
 11 12  1  0
 12 13  1  0
 12 14  2  0
 14 15  1  0
 15 16  1  0
 16 17  2  0
 17 18  1  0
 18 19  1  0
 19 10  1  0
 19 15  2  0
M  END
>  <fragmenstein_outcome>  (40) 
nan

>  <exports>  (40) 
['/opt/xchem-fragalysis-2/maxwin/openbind-hippo/xx01zvns2b/cycle_01/syndirella/elabs/openbind_xx01zvns2b_c1_elab_chemspace_filtered.sdf']

>  <Energy>  (40) 
nan

>  <alias>  (40) 
None

>  <fragmenstein_runtime>  (40) 
nan

>  <scratch_subdir>  (40) 
nan

>  <HIPPO Compound ID>  (40) 
136749

>  <rmsd(smina/fragmenstein)>  (40) 
1.433

>  <distance_score>  (40) 
1.117314

>  <orig_smiles>  (40) 
nan

>  <fragmenstein_mode>  (40) 
nan

>  <inchikey>  (40) 
HYSGJKOFNONFJS-UHFFFAOYSA-N

>  <ref_pdb>  (40) 
Z0846a

>  <GNINA pK>  (40) 
nan

>  <gnina_score_min>  (40) 
5.334

>  <tags>  (40) 
openbind_xx01zvns2b_c1_elab_nonasap_filtered_scored_top80percent,openbind_xx01zvns2b_c1_elab_chemspace_filtered_scored_top80percent,openbind_xx01zvns2b_c1_elab_chemspace_filtered_scored,openbind_xx01zvns2b_c1_elab_chemspace_filtered_scored_top40percent,openbind_xx01zvns2b_c1_elab_chemspace_filtered_scored_top20percent,openbind_xx01zvns2b_c1_elab_chemspace_filtered_scored_top60percent,openbind_xx01zvns2b_c1_elabs_filtered

>  <smiles>  (40) 
C=CCCCCC(=O)Nc1cc(C)cc2nc[nH]c12

>  <subsites>  (40) 
1 - Z4590/B/203/1

>  <gnina_score>  (40) 
5.242

>  <HIPPO Pose ID>  (40) 
68613

>  <ref_mols>  (40) 
Z0846a,Z1597a

>  <energy_score>  (40) 
-4.064217

>  <inspiration_score>  (40) 
None

>  <smina_score_min>  (40) 
-5.412

>  <fragmenstein_error>  (40) 
nan

>  <name>  (40) 
P68613

$$$$
P68614
     RDKit          3D

 19 20  0  0  0  0  0  0  0  0999 V2000
   -5.5831   10.0941  -23.7056 C   0  0  0  0  0  0  0  0  0  0  0  0
   -4.9558    9.1504  -22.9907 C   0  0  0  0  0  0  0  0  0  0  0  0
   -5.2370    7.6810  -23.1281 C   0  0  0  0  0  0  0  0  0  0  0  0
   -5.2300    6.9026  -21.8032 C   0  0  0  0  0  0  0  0  0  0  0  0
   -3.8491    6.8220  -21.1421 C   0  0  0  0  0  0  0  0  0  0  0  0
   -3.6337    5.5507  -20.3287 C   0  0  0  0  0  0  0  0  0  0  0  0
   -3.9136    5.6560  -18.8395 C   0  0  0  0  0  0  0  0  0  0  0  0
   -3.0751    5.9171  -18.0657 O   0  0  0  0  0  0  0  0  0  0  0  0
   -5.4052    5.2609  -18.6175 N   0  0  0  0  0  0  0  0  0  0  0  0
   -6.1108    5.0245  -17.4432 C   0  0  0  0  0  0  0  0  0  0  0  0
   -5.4877    5.0531  -16.1915 C   0  0  0  0  0  0  0  0  0  0  0  0
   -6.1590    4.6743  -15.0237 C   0  0  0  0  0  0  0  0  0  0  0  0
   -7.4892    4.2670  -15.0611 C   0  0  0  0  0  0  0  0  0  0  0  0
   -8.1424    4.3034  -16.2897 C   0  0  0  0  0  0  0  0  0  0  0  0
   -9.4551    4.0661  -16.5415 N   0  0  0  0  0  0  0  0  0  0  0  0
   -9.6183    4.4288  -17.7877 C   0  0  0  0  0  0  0  0  0  0  0  0
  -10.8980    4.7811  -18.3959 C   0  0  0  0  0  0  0  0  0  0  0  0
   -8.4209    4.6222  -18.4238 N   0  0  0  0  0  0  0  0  0  0  0  0
   -7.4592    4.6710  -17.4480 C   0  0  0  0  0  0  0  0  0  0  0  0
  1  2  2  0
  2  3  1  0
  3  4  1  0
  4  5  1  0
  5  6  1  0
  6  7  1  0
  7  8  2  0
  7  9  1  0
  9 10  1  0
 10 11  2  0
 11 12  1  0
 12 13  2  0
 13 14  1  0
 14 15  1  0
 15 16  2  0
 16 17  1  0
 16 18  1  0
 18 19  1  0
 19 10  1  0
 19 14  2  0
M  END
>  <fragmenstein_outcome>  (41) 
nan

>  <exports>  (41) 
['/opt/xchem-fragalysis-2/maxwin/openbind-hippo/xx01zvns2b/cycle_01/syndirella/elabs/openbind_xx01zvns2b_c1_elab_chemspace_filtered.sdf']

>  <Energy>  (41) 
nan

>  <alias>  (41) 
None

>  <fragmenstein_runtime>  (41) 
nan

>  <scratch_subdir>  (41) 
nan

>  <HIPPO Compound ID>  (41) 
136752

>  <rmsd(smina/fragmenstein)>  (41) 
1.123

>  <distance_score>  (41) 
1.242277

>  <orig_smiles>  (41) 
nan

>  <fragmenstein_mode>  (41) 
nan

>  <inchikey>  (41) 
CTBUHERWWHPEOG-UHFFFAOYSA-N

>  <ref_pdb>  (41) 
Z0846a

>  <GNINA pK>  (41) 
nan

>  <gnina_score_min>  (41) 
5.2

>  <tags>  (41) 
openbind_xx01zvns2b_c1_elab_nonasap_filtered_scored_top80percent,openbind_xx01zvns2b_c1_elab_chemspace_filtered_scored_top80percent,openbind_xx01zvns2b_c1_elab_chemspace_filtered_scored,openbind_xx01zvns2b_c1_elab_chemspace_filtered_scored_top40percent,openbind_xx01zvns2b_c1_elab_chemspace_filtered_scored_top20percent,openbind_xx01zvns2b_c1_elab_chemspace_filtered_scored_top60percent,openbind_xx01zvns2b_c1_elabs_filtered

>  <smiles>  (41) 
C=CCCCCC(=O)Nc1cccc2nc(C)[nH]c12

>  <subsites>  (41) 
1 - Z4590/B/203/1

>  <gnina_score>  (41) 
5.099

>  <HIPPO Pose ID>  (41) 
68614

>  <ref_mols>  (41) 
Z0846a,Z1597a

>  <energy_score>  (41) 
-17.203454

>  <inspiration_score>  (41) 
None

>  <smina_score_min>  (41) 
-5.222

>  <fragmenstein_error>  (41) 
nan

>  <name>  (41) 
P68614

$$$$
P68618
     RDKit          3D

 19 20  0  0  0  0  0  0  0  0999 V2000
   -5.7981    8.9518  -24.1023 C   0  0  0  0  0  0  0  0  0  0  0  0
   -4.8927    8.6643  -22.9111 C   0  0  0  0  0  0  0  0  0  0  0  0
   -5.2030    7.3517  -22.1664 C   0  0  1  0  0  0  0  0  0  0  0  0
   -5.5031    6.2539  -23.1734 C   0  0  0  0  0  0  0  0  0  0  0  0
   -4.0401    7.0059  -21.2055 C   0  0  0  0  0  0  0  0  0  0  0  0
   -4.1506    5.6839  -20.4509 C   0  0  0  0  0  0  0  0  0  0  0  0
   -4.5322    5.8041  -18.9825 C   0  0  0  0  0  0  0  0  0  0  0  0
   -3.7707    6.1368  -18.1588 O   0  0  0  0  0  0  0  0  0  0  0  0
   -6.0062    5.3141  -18.8559 N   0  0  0  0  0  0  0  0  0  0  0  0
   -6.7760    5.0549  -17.7303 C   0  0  0  0  0  0  0  0  0  0  0  0
   -6.2538    5.0799  -16.4351 C   0  0  0  0  0  0  0  0  0  0  0  0
   -7.0463    4.7269  -15.3381 C   0  0  0  0  0  0  0  0  0  0  0  0
   -6.3564    4.8498  -13.5898 Br  0  0  0  0  0  0  0  0  0  0  0  0
   -8.3669    4.3190  -15.4785 C   0  0  0  0  0  0  0  0  0  0  0  0
   -8.9090    4.3508  -16.7563 C   0  0  0  0  0  0  0  0  0  0  0  0
  -10.2005    4.1455  -17.1273 N   0  0  0  0  0  0  0  0  0  0  0  0
  -10.2534    4.5692  -18.3607 C   0  0  0  0  0  0  0  0  0  0  0  0
   -9.0082    4.7271  -18.8897 N   0  0  0  0  0  0  0  0  0  0  0  0
   -8.1226    4.7157  -17.8436 C   0  0  0  0  0  0  0  0  0  0  0  0
  1  2  1  0
  2  3  1  0
  3  4  1  6
  3  5  1  0
  5  6  1  0
  6  7  1  0
  7  8  2  0
  7  9  1  0
  9 10  1  0
 10 11  2  0
 11 12  1  0
 12 13  1  0
 12 14  2  0
 14 15  1  0
 15 16  1  0
 16 17  2  0
 17 18  1  0
 18 19  1  0
 19 10  1  0
 19 15  2  0
M  END
>  <fragmenstein_outcome>  (42) 
nan

>  <exports>  (42) 
['/opt/xchem-fragalysis-2/maxwin/openbind-hippo/xx01zvns2b/cycle_01/syndirella/elabs/openbind_xx01zvns2b_c1_elab_chemspace_filtered.sdf']

>  <Energy>  (42) 
nan

>  <alias>  (42) 
None

>  <fragmenstein_runtime>  (42) 
nan

>  <scratch_subdir>  (42) 
nan

>  <HIPPO Compound ID>  (42) 
136754

>  <rmsd(smina/fragmenstein)>  (42) 
0.963

>  <distance_score>  (42) 
1.013654

>  <orig_smiles>  (42) 
nan

>  <fragmenstein_mode>  (42) 
nan

>  <inchikey>  (42) 
IQNBZKUJGNCYKE-SECBINFHSA-N

>  <ref_pdb>  (42) 
Z0846a

>  <GNINA pK>  (42) 
nan

>  <gnina_score_min>  (42) 
5.5

>  <tags>  (42) 
openbind_xx01zvns2b_c1_elab_nonasap_filtered_scored_top80percent,openbind_xx01zvns2b_c1_elab_chemspace_filtered_scored_top80percent,openbind_xx01zvns2b_c1_elab_chemspace_filtered_scored,openbind_xx01zvns2b_c1_elab_chemspace_filtered_scored_top40percent,openbind_xx01zvns2b_c1_elab_chemspace_filtered_scored_top20percent,openbind_xx01zvns2b_c1_elab_chemspace_filtered_scored_top60percent,openbind_xx01zvns2b_c1_elabs_filtered

>  <smiles>  (42) 
CC[C@@H](C)CCC(=O)Nc1cc(Br)cc2nc[nH]c12

>  <subsites>  (42) 
1 - Z4590/B/203/1

>  <gnina_score>  (42) 
5.023

>  <HIPPO Pose ID>  (42) 
68618

>  <ref_mols>  (42) 
Z0846a,Z1597a

>  <energy_score>  (42) 
-15.976967

>  <inspiration_score>  (42) 
None

>  <smina_score_min>  (42) 
-5.67

>  <fragmenstein_error>  (42) 
nan

>  <name>  (42) 
P68618

$$$$
P68620
     RDKit          3D

 19 20  0  0  0  0  0  0  0  0999 V2000
   -5.9683    7.9556  -24.6212 C   0  0  0  0  0  0  0  0  0  0  0  0
   -5.5039    8.1867  -23.1891 C   0  0  0  0  0  0  0  0  0  0  0  0
   -4.7072    6.9971  -22.6308 C   0  0  1  0  0  0  0  0  0  0  0  0
   -3.2985    6.9741  -23.2387 C   0  0  0  0  0  0  0  0  0  0  0  0
   -4.6493    7.0364  -21.0891 C   0  0  0  0  0  0  0  0  0  0  0  0
   -4.1884    5.7057  -20.5052 C   0  0  0  0  0  0  0  0  0  0  0  0
   -4.3388    5.6215  -19.0009 C   0  0  0  0  0  0  0  0  0  0  0  0
   -3.4281    5.6610  -18.2664 O   0  0  0  0  0  0  0  0  0  0  0  0
   -5.8575    5.3846  -18.7188 N   0  0  0  0  0  0  0  0  0  0  0  0
   -6.5230    5.0647  -17.5260 C   0  0  0  0  0  0  0  0  0  0  0  0
   -6.0037    5.0241  -16.2141 C   0  0  0  0  0  0  0  0  0  0  0  0
   -4.6033    5.4144  -15.8369 C   0  0  0  0  0  0  0  0  0  0  0  0
   -6.8117    4.5807  -15.1433 C   0  0  0  0  0  0  0  0  0  0  0  0
   -8.1413    4.2107  -15.3135 C   0  0  0  0  0  0  0  0  0  0  0  0
   -8.6831    4.3149  -16.5866 C   0  0  0  0  0  0  0  0  0  0  0  0
   -9.9715    4.1004  -16.9770 N   0  0  0  0  0  0  0  0  0  0  0  0
  -10.0147    4.5092  -18.2166 C   0  0  0  0  0  0  0  0  0  0  0  0
   -8.7671    4.7482  -18.7084 N   0  0  0  0  0  0  0  0  0  0  0  0
   -7.8874    4.7306  -17.6485 C   0  0  0  0  0  0  0  0  0  0  0  0
  1  2  1  0
  2  3  1  0
  3  4  1  6
  3  5  1  0
  5  6  1  0
  6  7  1  0
  7  8  2  0
  7  9  1  0
  9 10  1  0
 10 11  2  0
 11 12  1  0
 11 13  1  0
 13 14  2  0
 14 15  1  0
 15 16  1  0
 16 17  2  0
 17 18  1  0
 18 19  1  0
 19 10  1  0
 19 15  2  0
M  END
>  <fragmenstein_outcome>  (43) 
nan

>  <exports>  (43) 
['/opt/xchem-fragalysis-2/maxwin/openbind-hippo/xx01zvns2b/cycle_01/syndirella/elabs/openbind_xx01zvns2b_c1_elab_chemspace_filtered.sdf']

>  <Energy>  (43) 
nan

>  <alias>  (43) 
None

>  <fragmenstein_runtime>  (43) 
nan

>  <scratch_subdir>  (43) 
nan

>  <HIPPO Compound ID>  (43) 
136755

>  <rmsd(smina/fragmenstein)>  (43) 
0.99

>  <distance_score>  (43) 
1.181222

>  <orig_smiles>  (43) 
nan

>  <fragmenstein_mode>  (43) 
nan

>  <inchikey>  (43) 
SDHOIVSHHUGQCJ-SNVBAGLBSA-N

>  <ref_pdb>  (43) 
Z0846a

>  <GNINA pK>  (43) 
nan

>  <gnina_score_min>  (43) 
5.164

>  <tags>  (43) 
openbind_xx01zvns2b_c1_elab_nonasap_filtered_scored_top80percent,openbind_xx01zvns2b_c1_elab_chemspace_filtered_scored_top80percent,openbind_xx01zvns2b_c1_elab_chemspace_filtered_scored,openbind_xx01zvns2b_c1_elab_chemspace_filtered_scored_top40percent,openbind_xx01zvns2b_c1_elab_chemspace_filtered_scored_top20percent,openbind_xx01zvns2b_c1_elab_chemspace_filtered_scored_top60percent,openbind_xx01zvns2b_c1_elabs_filtered

>  <smiles>  (43) 
CC[C@@H](C)CCC(=O)Nc1c(C)ccc2nc[nH]c12

>  <subsites>  (43) 
1 - Z4590/B/203/1

>  <gnina_score>  (43) 
5.293

>  <HIPPO Pose ID>  (43) 
68620

>  <ref_mols>  (43) 
Z0846a,Z1597a

>  <energy_score>  (43) 
-15.188491

>  <inspiration_score>  (43) 
None

>  <smina_score_min>  (43) 
-5.186

>  <fragmenstein_error>  (43) 
nan

>  <name>  (43) 
P68620

$$$$
P68622
     RDKit          3D

 19 20  0  0  0  0  0  0  0  0999 V2000
   -5.7992    9.0425  -24.1686 C   0  0  0  0  0  0  0  0  0  0  0  0
   -4.9476    8.7319  -22.9440 C   0  0  0  0  0  0  0  0  0  0  0  0
   -5.2526    7.3741  -22.2914 C   0  0  1  0  0  0  0  0  0  0  0  0
   -5.4050    6.3080  -23.3646 C   0  0  0  0  0  0  0  0  0  0  0  0
   -4.1899    7.0446  -21.2140 C   0  0  0  0  0  0  0  0  0  0  0  0
   -4.2741    5.6484  -20.6041 C   0  0  0  0  0  0  0  0  0  0  0  0
   -4.4736    5.6207  -19.0991 C   0  0  0  0  0  0  0  0  0  0  0  0
   -3.5886    5.7460  -18.3437 O   0  0  0  0  0  0  0  0  0  0  0  0
   -5.9786    5.3034  -18.8475 N   0  0  0  0  0  0  0  0  0  0  0  0
   -6.6496    4.9957  -17.6734 C   0  0  0  0  0  0  0  0  0  0  0  0
   -6.0147    4.9626  -16.4301 C   0  0  0  0  0  0  0  0  0  0  0  0
   -6.7268    4.6315  -15.2540 C   0  0  0  0  0  0  0  0  0  0  0  0
   -8.0901    4.3452  -15.2898 C   0  0  0  0  0  0  0  0  0  0  0  0
   -8.6861    4.3970  -16.5212 C   0  0  0  0  0  0  0  0  0  0  0  0
  -10.0297    4.3087  -16.8340 N   0  0  0  0  0  0  0  0  0  0  0  0
  -10.1955    4.6502  -18.1689 C   0  0  0  0  0  0  0  0  0  0  0  0
  -11.2637    4.8790  -18.7001 O   0  0  0  0  0  0  0  0  0  0  0  0
   -8.9225    4.7685  -18.7280 N   0  0  0  0  0  0  0  0  0  0  0  0
   -7.9919    4.6953  -17.6923 C   0  0  0  0  0  0  0  0  0  0  0  0
  1  2  1  0
  2  3  1  0
  3  4  1  6
  3  5  1  0
  5  6  1  0
  6  7  1  0
  7  8  2  0
  7  9  1  0
  9 10  1  0
 10 11  2  0
 11 12  1  0
 12 13  2  0
 13 14  1  0
 14 15  1  0
 15 16  1  0
 16 17  2  0
 16 18  1  0
 18 19  1  0
 19 10  1  0
 19 14  2  0
M  END
>  <fragmenstein_outcome>  (44) 
nan

>  <exports>  (44) 
['/opt/xchem-fragalysis-2/maxwin/openbind-hippo/xx01zvns2b/cycle_01/syndirella/elabs/openbind_xx01zvns2b_c1_elab_chemspace_filtered.sdf']

>  <Energy>  (44) 
nan

>  <alias>  (44) 
None

>  <fragmenstein_runtime>  (44) 
nan

>  <scratch_subdir>  (44) 
nan

>  <HIPPO Compound ID>  (44) 
136756

>  <rmsd(smina/fragmenstein)>  (44) 
1.315

>  <distance_score>  (44) 
1.085757

>  <orig_smiles>  (44) 
nan

>  <fragmenstein_mode>  (44) 
nan

>  <inchikey>  (44) 
YYXJXJDUYIZDSM-SECBINFHSA-N

>  <ref_pdb>  (44) 
Z0846a

>  <GNINA pK>  (44) 
nan

>  <gnina_score_min>  (44) 
5.206

>  <tags>  (44) 
openbind_xx01zvns2b_c1_elab_nonasap_filtered_scored_top80percent,openbind_xx01zvns2b_c1_elab_chemspace_filtered_scored_top80percent,openbind_xx01zvns2b_c1_elab_chemspace_filtered_scored,openbind_xx01zvns2b_c1_elab_chemspace_filtered_scored_top40percent,openbind_xx01zvns2b_c1_elab_chemspace_filtered_scored_top20percent,openbind_xx01zvns2b_c1_elab_chemspace_filtered_scored_top60percent,openbind_xx01zvns2b_c1_elabs_filtered

>  <smiles>  (44) 
CC[C@@H](C)CCC(=O)Nc1cccc2[nH]c(=O)[nH]c12

>  <subsites>  (44) 
1 - Z4590/B/203/1

>  <gnina_score>  (44) 
5.203

>  <HIPPO Pose ID>  (44) 
68622

>  <ref_mols>  (44) 
Z0846a,Z1597a

>  <energy_score>  (44) 
-22.594931

>  <inspiration_score>  (44) 
None

>  <smina_score_min>  (44) 
-6.228

>  <fragmenstein_error>  (44) 
nan

>  <name>  (44) 
P68622

$$$$
P68623
     RDKit          3D

 19 20  0  0  0  0  0  0  0  0999 V2000
   -5.2241    8.8414  -24.5457 C   0  0  0  0  0  0  0  0  0  0  0  0
   -5.0988    8.7331  -23.0294 C   0  0  0  0  0  0  0  0  0  0  0  0
   -4.7321    7.3225  -22.5374 C   0  0  2  0  0  0  0  0  0  0  0  0
   -5.6290    6.3125  -23.2317 C   0  0  0  0  0  0  0  0  0  0  0  0
   -4.8211    7.2406  -21.0020 C   0  0  0  0  0  0  0  0  0  0  0  0
   -4.2362    5.9557  -20.4232 C   0  0  0  0  0  0  0  0  0  0  0  0
   -4.4554    5.8564  -18.9222 C   0  0  0  0  0  0  0  0  0  0  0  0
   -3.6002    6.0211  -18.1404 O   0  0  0  0  0  0  0  0  0  0  0  0
   -5.9520    5.4652  -18.7159 N   0  0  0  0  0  0  0  0  0  0  0  0
   -6.6426    5.1199  -17.5612 C   0  0  0  0  0  0  0  0  0  0  0  0
   -6.0582    5.1744  -16.2901 C   0  0  0  0  0  0  0  0  0  0  0  0
   -6.7579    4.7882  -15.1346 C   0  0  0  0  0  0  0  0  0  0  0  0
   -6.1517    4.9159  -13.7756 C   0  0  0  0  0  0  0  0  0  0  0  0
   -8.0698    4.3274  -15.2263 C   0  0  0  0  0  0  0  0  0  0  0  0
   -8.6763    4.3091  -16.4785 C   0  0  0  0  0  0  0  0  0  0  0  0
   -9.9629    3.9976  -16.7780 N   0  0  0  0  0  0  0  0  0  0  0  0
  -10.1004    4.3384  -18.0300 C   0  0  0  0  0  0  0  0  0  0  0  0
   -8.9048    4.6305  -18.6159 N   0  0  0  0  0  0  0  0  0  0  0  0
   -7.9725    4.7059  -17.6114 C   0  0  0  0  0  0  0  0  0  0  0  0
  1  2  1  0
  2  3  1  0
  3  4  1  6
  3  5  1  0
  5  6  1  0
  6  7  1  0
  7  8  2  0
  7  9  1  0
  9 10  1  0
 10 11  2  0
 11 12  1  0
 12 13  1  0
 12 14  2  0
 14 15  1  0
 15 16  1  0
 16 17  2  0
 17 18  1  0
 18 19  1  0
 19 10  1  0
 19 15  2  0
M  END
>  <fragmenstein_outcome>  (45) 
nan

>  <exports>  (45) 
['/opt/xchem-fragalysis-2/maxwin/openbind-hippo/xx01zvns2b/cycle_01/syndirella/elabs/openbind_xx01zvns2b_c1_elab_chemspace_filtered.sdf']

>  <Energy>  (45) 
nan

>  <alias>  (45) 
None

>  <fragmenstein_runtime>  (45) 
nan

>  <scratch_subdir>  (45) 
nan

>  <HIPPO Compound ID>  (45) 
136757

>  <rmsd(smina/fragmenstein)>  (45) 
0.874

>  <distance_score>  (45) 
1.201884

>  <orig_smiles>  (45) 
nan

>  <fragmenstein_mode>  (45) 
nan

>  <inchikey>  (45) 
JYGQHCNALHMGJI-JTQLQIEISA-N

>  <ref_pdb>  (45) 
Z0846a

>  <GNINA pK>  (45) 
nan

>  <gnina_score_min>  (45) 
5.227

>  <tags>  (45) 
openbind_xx01zvns2b_c1_elab_nonasap_filtered_scored_top80percent,openbind_xx01zvns2b_c1_elab_chemspace_filtered_scored_top80percent,openbind_xx01zvns2b_c1_elab_chemspace_filtered_scored,openbind_xx01zvns2b_c1_elab_chemspace_filtered_scored_top40percent,openbind_xx01zvns2b_c1_elab_chemspace_filtered_scored_top20percent,openbind_xx01zvns2b_c1_elab_chemspace_filtered_scored_top60percent,openbind_xx01zvns2b_c1_elabs_filtered

>  <smiles>  (45) 
CC[C@H](C)CCC(=O)Nc1cc(C)cc2nc[nH]c12

>  <subsites>  (45) 
1 - Z4590/B/203/1

>  <gnina_score>  (45) 
5.077

>  <HIPPO Pose ID>  (45) 
68623

>  <ref_mols>  (45) 
Z0846a,Z1597a

>  <energy_score>  (45) 
-17.500215

>  <inspiration_score>  (45) 
None

>  <smina_score_min>  (45) 
-5.753

>  <fragmenstein_error>  (45) 
nan

>  <name>  (45) 
P68623

$$$$
P68629
     RDKit          3D

 19 20  0  0  0  0  0  0  0  0999 V2000
   -5.8577    8.9594  -24.1673 C   0  0  0  0  0  0  0  0  0  0  0  0
   -4.9541    8.7260  -22.9634 C   0  0  0  0  0  0  0  0  0  0  0  0
   -5.1912    7.3958  -22.2234 C   0  0  1  0  0  0  0  0  0  0  0  0
   -5.4323    6.2805  -23.2271 C   0  0  0  0  0  0  0  0  0  0  0  0
   -4.0209    7.1283  -21.2423 C   0  0  0  0  0  0  0  0  0  0  0  0
   -3.9764    5.7510  -20.5896 C   0  0  0  0  0  0  0  0  0  0  0  0
   -4.0946    5.7610  -19.0740 C   0  0  0  0  0  0  0  0  0  0  0  0
   -3.1834    5.9544  -18.3659 O   0  0  0  0  0  0  0  0  0  0  0  0
   -5.5676    5.3750  -18.7416 N   0  0  0  0  0  0  0  0  0  0  0  0
   -6.1664    5.0693  -17.5282 C   0  0  0  0  0  0  0  0  0  0  0  0
   -5.4748    5.0763  -16.3159 C   0  0  0  0  0  0  0  0  0  0  0  0
   -6.0843    4.6653  -15.1241 C   0  0  0  0  0  0  0  0  0  0  0  0
   -7.4135    4.2448  -15.1002 C   0  0  0  0  0  0  0  0  0  0  0  0
   -8.1271    4.2871  -16.2947 C   0  0  0  0  0  0  0  0  0  0  0  0
   -9.4468    4.0342  -16.4976 N   0  0  0  0  0  0  0  0  0  0  0  0
   -9.6617    4.3964  -17.7371 C   0  0  0  0  0  0  0  0  0  0  0  0
  -10.9609    4.7320  -18.3083 C   0  0  0  0  0  0  0  0  0  0  0  0
   -8.4949    4.6150  -18.4142 N   0  0  0  0  0  0  0  0  0  0  0  0
   -7.5022    4.6824  -17.4737 C   0  0  0  0  0  0  0  0  0  0  0  0
  1  2  1  0
  2  3  1  0
  3  4  1  6
  3  5  1  0
  5  6  1  0
  6  7  1  0
  7  8  2  0
  7  9  1  0
  9 10  1  0
 10 11  2  0
 11 12  1  0
 12 13  2  0
 13 14  1  0
 14 15  1  0
 15 16  2  0
 16 17  1  0
 16 18  1  0
 18 19  1  0
 19 10  1  0
 19 14  2  0
M  END
>  <fragmenstein_outcome>  (46) 
nan

>  <exports>  (46) 
['/opt/xchem-fragalysis-2/maxwin/openbind-hippo/xx01zvns2b/cycle_01/syndirella/elabs/openbind_xx01zvns2b_c1_elab_chemspace_filtered.sdf']

>  <Energy>  (46) 
nan

>  <alias>  (46) 
None

>  <fragmenstein_runtime>  (46) 
nan

>  <scratch_subdir>  (46) 
nan

>  <HIPPO Compound ID>  (46) 
136761

>  <rmsd(smina/fragmenstein)>  (46) 
0.697

>  <distance_score>  (46) 
1.375362

>  <orig_smiles>  (46) 
nan

>  <fragmenstein_mode>  (46) 
nan

>  <inchikey>  (46) 
IBJFWZSDQBGDIT-SNVBAGLBSA-N

>  <ref_pdb>  (46) 
Z0846a

>  <GNINA pK>  (46) 
nan

>  <gnina_score_min>  (46) 
5.182

>  <tags>  (46) 
openbind_xx01zvns2b_c1_elab_nonasap_filtered_scored_top80percent,openbind_xx01zvns2b_c1_elab_chemspace_filtered_scored_top80percent,openbind_xx01zvns2b_c1_elab_chemspace_filtered_scored,openbind_xx01zvns2b_c1_elab_chemspace_filtered_scored_top40percent,openbind_xx01zvns2b_c1_elab_chemspace_filtered_scored_top20percent,openbind_xx01zvns2b_c1_elab_chemspace_filtered_scored_top60percent,openbind_xx01zvns2b_c1_elabs_filtered

>  <smiles>  (46) 
CC[C@@H](C)CCC(=O)Nc1cccc2nc(C)[nH]c12

>  <subsites>  (46) 
1 - Z4590/B/203/1

>  <gnina_score>  (46) 
4.805

>  <HIPPO Pose ID>  (46) 
68629

>  <ref_mols>  (46) 
Z0846a,Z1597a

>  <energy_score>  (46) 
-17.667118

>  <inspiration_score>  (46) 
None

>  <smina_score_min>  (46) 
-5.368

>  <fragmenstein_error>  (46) 
nan

>  <name>  (46) 
P68629

$$$$
P68641
     RDKit          3D

 19 20  0  0  0  0  0  0  0  0999 V2000
   -5.7919    4.9891  -14.1141 C   0  0  0  0  0  0  0  0  0  0  0  0
   -6.5697    4.8148  -15.3769 C   0  0  0  0  0  0  0  0  0  0  0  0
   -6.0439    5.1883  -16.6290 C   0  0  0  0  0  0  0  0  0  0  0  0
   -6.8112    5.1080  -17.7948 C   0  0  0  0  0  0  0  0  0  0  0  0
   -6.3615    5.4794  -19.0528 N   0  0  0  0  0  0  0  0  0  0  0  0
   -4.9416    5.9254  -19.5319 C   0  0  0  0  0  0  0  0  0  0  0  0
   -3.9624    6.1190  -18.9220 O   0  0  0  0  0  0  0  0  0  0  0  0
   -5.1141    6.0938  -21.0330 C   0  0  0  0  0  0  0  0  0  0  0  0
   -3.8898    6.5775  -21.8019 C   0  0  0  0  0  0  0  0  0  0  0  0
   -4.2460    6.8223  -23.2877 C   0  0  0  0  0  0  0  0  0  0  0  0
   -4.5258    8.2802  -23.6165 C   0  0  0  0  0  0  0  0  0  0  0  0
   -5.6680    8.8436  -22.8161 C   0  0  0  0  0  0  0  0  0  0  0  0
   -5.3313    8.9007  -21.5012 F   0  0  0  0  0  0  0  0  0  0  0  0
   -8.1204    4.6566  -17.6449 C   0  0  0  0  0  0  0  0  0  0  0  0
   -9.1726    4.5201  -18.5143 N   0  0  0  0  0  0  0  0  0  0  0  0
  -10.2605    4.1580  -17.7817 C   0  0  0  0  0  0  0  0  0  0  0  0
   -9.9455    3.8938  -16.5417 N   0  0  0  0  0  0  0  0  0  0  0  0
   -8.6461    4.2630  -16.4222 C   0  0  0  0  0  0  0  0  0  0  0  0
   -7.8719    4.3244  -15.2695 C   0  0  0  0  0  0  0  0  0  0  0  0
  1  2  1  0
  2  3  2  0
  3  4  1  0
  4  5  1  0
  5  6  1  0
  6  7  2  0
  6  8  1  0
  8  9  1  0
  9 10  1  0
 10 11  1  0
 11 12  1  0
 12 13  1  0
  4 14  2  0
 14 15  1  0
 15 16  1  0
 16 17  2  0
 17 18  1  0
 18 19  2  0
 19  2  1  0
 18 14  1  0
M  END
>  <fragmenstein_outcome>  (47) 
nan

>  <exports>  (47) 
['/opt/xchem-fragalysis-2/maxwin/openbind-hippo/xx01zvns2b/cycle_01/syndirella/elabs/openbind_xx01zvns2b_c1_elab_chemspace_filtered.sdf']

>  <Energy>  (47) 
nan

>  <alias>  (47) 
None

>  <fragmenstein_runtime>  (47) 
nan

>  <scratch_subdir>  (47) 
nan

>  <HIPPO Compound ID>  (47) 
136772

>  <rmsd(smina/fragmenstein)>  (47) 
0.943

>  <distance_score>  (47) 
1.483566

>  <orig_smiles>  (47) 
nan

>  <fragmenstein_mode>  (47) 
nan

>  <inchikey>  (47) 
BKWNNBLKUZWYOT-UHFFFAOYSA-N

>  <ref_pdb>  (47) 
Z0846a

>  <GNINA pK>  (47) 
nan

>  <gnina_score_min>  (47) 
5.224

>  <tags>  (47) 
openbind_xx01zvns2b_c1_elab_nonasap_filtered_scored_top80percent,openbind_xx01zvns2b_c1_elab_chemspace_filtered_scored_top80percent,openbind_xx01zvns2b_c1_elab_chemspace_filtered_scored,openbind_xx01zvns2b_c1_elab_chemspace_filtered_scored_top40percent,openbind_xx01zvns2b_c1_elab_chemspace_filtered_scored_top20percent,openbind_xx01zvns2b_c1_elab_chemspace_filtered_scored_top60percent,openbind_xx01zvns2b_c1_elabs_filtered

>  <smiles>  (47) 
Cc1cc(NC(=O)CCCCCF)c2[nH]cnc2c1

>  <subsites>  (47) 
1 - Z4590/B/203/1

>  <gnina_score>  (47) 
4.564

>  <HIPPO Pose ID>  (47) 
68641

>  <ref_mols>  (47) 
Z0846a,Z1597a

>  <energy_score>  (47) 
-16.244323

>  <inspiration_score>  (47) 
None

>  <smina_score_min>  (47) 
-5.359

>  <fragmenstein_error>  (47) 
nan

>  <name>  (47) 
P68641

$$$$
P68645
     RDKit          3D

 19 20  0  0  0  0  0  0  0  0999 V2000
   -5.9009    7.7576  -24.6403 C   0  0  0  0  0  0  0  0  0  0  0  0
   -5.4495    8.1048  -23.2302 C   0  0  0  0  0  0  0  0  0  0  0  0
   -4.9080    6.8722  -22.5093 C   0  0  0  0  0  0  0  0  0  0  0  0
   -4.6742    7.0651  -20.9994 C   0  0  2  0  0  0  0  0  0  0  0  0
   -3.6699    8.1831  -20.7080 C   0  0  0  0  0  0  0  0  0  0  0  0
   -4.1947    5.7427  -20.3870 C   0  0  0  0  0  0  0  0  0  0  0  0
   -4.4206    5.6616  -18.8863 C   0  0  0  0  0  0  0  0  0  0  0  0
   -3.5562    5.7508  -18.1028 O   0  0  0  0  0  0  0  0  0  0  0  0
   -5.9415    5.3801  -18.6852 N   0  0  0  0  0  0  0  0  0  0  0  0
   -6.6558    5.0709  -17.5367 C   0  0  0  0  0  0  0  0  0  0  0  0
   -6.0787    5.1031  -16.2621 C   0  0  0  0  0  0  0  0  0  0  0  0
   -6.8062    4.7582  -15.1118 C   0  0  0  0  0  0  0  0  0  0  0  0
   -6.1903    4.8169  -13.7525 C   0  0  0  0  0  0  0  0  0  0  0  0
   -8.1192    4.3040  -15.2202 C   0  0  0  0  0  0  0  0  0  0  0  0
   -8.7147    4.3001  -16.4781 C   0  0  0  0  0  0  0  0  0  0  0  0
   -9.9968    3.9908  -16.7976 N   0  0  0  0  0  0  0  0  0  0  0  0
  -10.1269    4.3693  -18.0398 C   0  0  0  0  0  0  0  0  0  0  0  0
   -8.9252    4.6659  -18.6108 N   0  0  0  0  0  0  0  0  0  0  0  0
   -7.9967    4.6991  -17.6006 C   0  0  0  0  0  0  0  0  0  0  0  0
  1  2  1  0
  2  3  1  0
  3  4  1  0
  4  5  1  6
  4  6  1  0
  6  7  1  0
  7  8  2  0
  7  9  1  0
  9 10  1  0
 10 11  2  0
 11 12  1  0
 12 13  1  0
 12 14  2  0
 14 15  1  0
 15 16  1  0
 16 17  2  0
 17 18  1  0
 18 19  1  0
 19 10  1  0
 19 15  2  0
M  END
>  <fragmenstein_outcome>  (48) 
nan

>  <exports>  (48) 
['/opt/xchem-fragalysis-2/maxwin/openbind-hippo/xx01zvns2b/cycle_01/syndirella/elabs/openbind_xx01zvns2b_c1_elab_chemspace_filtered.sdf']

>  <Energy>  (48) 
nan

>  <alias>  (48) 
None

>  <fragmenstein_runtime>  (48) 
nan

>  <scratch_subdir>  (48) 
nan

>  <HIPPO Compound ID>  (48) 
136777

>  <rmsd(smina/fragmenstein)>  (48) 
1.187

>  <distance_score>  (48) 
1.045344

>  <orig_smiles>  (48) 
nan

>  <fragmenstein_mode>  (48) 
nan

>  <inchikey>  (48) 
LELJPUOYBGFWEL-JTQLQIEISA-N

>  <ref_pdb>  (48) 
Z0846a

>  <GNINA pK>  (48) 
nan

>  <gnina_score_min>  (48) 
5.388

>  <tags>  (48) 
openbind_xx01zvns2b_c1_elab_nonasap_filtered_scored_top80percent,openbind_xx01zvns2b_c1_elab_chemspace_filtered_scored_top80percent,openbind_xx01zvns2b_c1_elab_chemspace_filtered_scored,openbind_xx01zvns2b_c1_elab_chemspace_filtered_scored_top40percent,openbind_xx01zvns2b_c1_elab_chemspace_filtered_scored_top20percent,openbind_xx01zvns2b_c1_elab_chemspace_filtered_scored_top60percent,openbind_xx01zvns2b_c1_elabs_filtered

>  <smiles>  (48) 
CCC[C@H](C)CC(=O)Nc1cc(C)cc2nc[nH]c12

>  <subsites>  (48) 
1 - Z4590/B/203/1

>  <gnina_score>  (48) 
5.326

>  <HIPPO Pose ID>  (48) 
68645

>  <ref_mols>  (48) 
Z0846a,Z1597a

>  <energy_score>  (48) 
-20.280461

>  <inspiration_score>  (48) 
None

>  <smina_score_min>  (48) 
-5.913

>  <fragmenstein_error>  (48) 
nan

>  <name>  (48) 
P68645

$$$$
P68647
     RDKit          3D

 19 20  0  0  0  0  0  0  0  0999 V2000
   -5.8644    7.8056  -24.5576 C   0  0  0  0  0  0  0  0  0  0  0  0
   -5.4142    8.0770  -23.1298 C   0  0  0  0  0  0  0  0  0  0  0  0
   -4.9237    6.7958  -22.4588 C   0  0  0  0  0  0  0  0  0  0  0  0
   -4.7125    6.9027  -20.9360 C   0  0  2  0  0  0  0  0  0  0  0  0
   -3.6545    7.9487  -20.5765 C   0  0  0  0  0  0  0  0  0  0  0  0
   -4.3215    5.5249  -20.3777 C   0  0  0  0  0  0  0  0  0  0  0  0
   -4.5649    5.3934  -18.8835 C   0  0  0  0  0  0  0  0  0  0  0  0
   -3.7191    5.5068  -18.0838 O   0  0  0  0  0  0  0  0  0  0  0  0
   -6.0844    5.1063  -18.7100 N   0  0  0  0  0  0  0  0  0  0  0  0
   -6.8215    4.8188  -17.5725 C   0  0  0  0  0  0  0  0  0  0  0  0
   -6.2804    4.8122  -16.2871 C   0  0  0  0  0  0  0  0  0  0  0  0
   -7.1123    4.6093  -15.1826 C   0  0  0  0  0  0  0  0  0  0  0  0
   -6.4644    4.7023  -13.5963 Cl  0  0  0  0  0  0  0  0  0  0  0  0
   -8.4858    4.4014  -15.3027 C   0  0  0  0  0  0  0  0  0  0  0  0
   -8.9897    4.4355  -16.5917 C   0  0  0  0  0  0  0  0  0  0  0  0
  -10.2677    4.4269  -17.0712 N   0  0  0  0  0  0  0  0  0  0  0  0
  -10.2097    4.6725  -18.4035 C   0  0  0  0  0  0  0  0  0  0  0  0
   -8.9786    4.6427  -18.8452 N   0  0  0  0  0  0  0  0  0  0  0  0
   -8.2019    4.6093  -17.7193 C   0  0  0  0  0  0  0  0  0  0  0  0
  1  2  1  0
  2  3  1  0
  3  4  1  0
  4  5  1  6
  4  6  1  0
  6  7  1  0
  7  8  2  0
  7  9  1  0
  9 10  1  0
 10 11  2  0
 11 12  1  0
 12 13  1  0
 12 14  2  0
 14 15  1  0
 15 16  1  0
 16 17  1  0
 17 18  2  0
 18 19  1  0
 19 10  1  0
 19 15  2  0
M  END
>  <fragmenstein_outcome>  (49) 
nan

>  <exports>  (49) 
['/opt/xchem-fragalysis-2/maxwin/openbind-hippo/xx01zvns2b/cycle_01/syndirella/elabs/openbind_xx01zvns2b_c1_elab_chemspace_filtered.sdf']

>  <Energy>  (49) 
nan

>  <alias>  (49) 
None

>  <fragmenstein_runtime>  (49) 
nan

>  <scratch_subdir>  (49) 
nan

>  <HIPPO Compound ID>  (49) 
136780

>  <rmsd(smina/fragmenstein)>  (49) 
0.585

>  <distance_score>  (49) 
0.891486

>  <orig_smiles>  (49) 
nan

>  <fragmenstein_mode>  (49) 
nan

>  <inchikey>  (49) 
HVBQKIJAABUNLU-VIFPVBQESA-N

>  <ref_pdb>  (49) 
Z0846a

>  <GNINA pK>  (49) 
nan

>  <gnina_score_min>  (49) 
5.228

>  <tags>  (49) 
openbind_xx01zvns2b_c1_elab_nonasap_filtered_scored_top80percent,openbind_xx01zvns2b_c1_elab_chemspace_filtered_scored_top80percent,openbind_xx01zvns2b_c1_elab_chemspace_filtered_scored,openbind_xx01zvns2b_c1_elab_chemspace_filtered_scored_top40percent,openbind_xx01zvns2b_c1_elab_chemspace_filtered_scored_top20percent,openbind_xx01zvns2b_c1_elab_chemspace_filtered_scored_top60percent,openbind_xx01zvns2b_c1_elabs_filtered

>  <smiles>  (49) 
CCC[C@H](C)CC(=O)Nc1cc(Cl)cc2[nH]cnc12

>  <subsites>  (49) 
1 - Z4590/B/203/1

>  <gnina_score>  (49) 
5.148

>  <HIPPO Pose ID>  (49) 
68647

>  <ref_mols>  (49) 
Z0846a,Z1597a

>  <energy_score>  (49) 
-35.209985

>  <inspiration_score>  (49) 
None

>  <smina_score_min>  (49) 
-5.072

>  <fragmenstein_error>  (49) 
nan

>  <name>  (49) 
P68647

$$$$
P68658
     RDKit          3D

 19 21  0  0  0  0  0  0  0  0999 V2000
   -5.7988    5.1672  -14.1761 C   0  0  0  0  0  0  0  0  0  0  0  0
   -6.5546    4.9700  -15.4497 C   0  0  0  0  0  0  0  0  0  0  0  0
   -6.0643    5.4399  -16.6850 C   0  0  0  0  0  0  0  0  0  0  0  0
   -6.8118    5.3286  -17.8632 C   0  0  0  0  0  0  0  0  0  0  0  0
   -6.3734    5.7724  -19.1073 N   0  0  0  0  0  0  0  0  0  0  0  0
   -5.0531    6.5076  -19.5160 C   0  0  0  0  0  0  0  0  0  0  0  0
   -4.1086    6.7782  -18.8804 O   0  0  0  0  0  0  0  0  0  0  0  0
   -5.2029    6.7511  -21.0138 C   0  0  0  0  0  0  0  0  0  0  0  0
   -4.2017    7.6705  -21.7197 C   0  0  0  0  0  0  0  0  0  0  0  0
   -2.7621    7.1630  -21.6830 C   0  0  0  0  0  0  0  0  0  0  0  0
   -4.3751    9.1886  -21.4094 C   0  0  0  0  0  0  0  0  0  0  0  0
   -4.3371    9.4690  -22.9221 C   0  0  0  0  0  0  0  0  0  0  0  0
   -4.7002    7.9962  -23.1665 C   0  0  0  0  0  0  0  0  0  0  0  0
   -8.0817    4.7643  -17.7299 C   0  0  0  0  0  0  0  0  0  0  0  0
   -9.1392    4.6129  -18.5927 N   0  0  0  0  0  0  0  0  0  0  0  0
  -10.2031    4.1809  -17.8593 C   0  0  0  0  0  0  0  0  0  0  0  0
   -9.8562    3.8532  -16.6438 N   0  0  0  0  0  0  0  0  0  0  0  0
   -8.5772    4.2904  -16.5207 C   0  0  0  0  0  0  0  0  0  0  0  0
   -7.8073    4.3622  -15.3661 C   0  0  0  0  0  0  0  0  0  0  0  0
  1  2  1  0
  2  3  2  0
  3  4  1  0
  4  5  1  0
  5  6  1  0
  6  7  2  0
  6  8  1  0
  8  9  1  0
  9 10  1  0
  9 11  1  0
 11 12  1  0
 12 13  1  0
  4 14  2  0
 14 15  1  0
 15 16  1  0
 16 17  2  0
 17 18  1  0
 18 19  2  0
 19  2  1  0
 13  9  1  0
 18 14  1  0
M  END
>  <fragmenstein_outcome>  (50) 
nan

>  <exports>  (50) 
['/opt/xchem-fragalysis-2/maxwin/openbind-hippo/xx01zvns2b/cycle_01/syndirella/elabs/openbind_xx01zvns2b_c1_elab_chemspace_filtered.sdf']

>  <Energy>  (50) 
nan

>  <alias>  (50) 
None

>  <fragmenstein_runtime>  (50) 
nan

>  <scratch_subdir>  (50) 
nan

>  <HIPPO Compound ID>  (50) 
136790

>  <rmsd(smina/fragmenstein)>  (50) 
0.754

>  <distance_score>  (50) 
1.554973

>  <orig_smiles>  (50) 
nan

>  <fragmenstein_mode>  (50) 
nan

>  <inchikey>  (50) 
OLWNIMYWJIVPEB-UHFFFAOYSA-N

>  <ref_pdb>  (50) 
Z0846a

>  <GNINA pK>  (50) 
nan

>  <gnina_score_min>  (50) 
5.253

>  <tags>  (50) 
openbind_xx01zvns2b_c1_elab_nonasap_filtered_scored_top80percent,openbind_xx01zvns2b_c1_elab_chemspace_filtered_scored_top80percent,openbind_xx01zvns2b_c1_elab_chemspace_filtered_scored,openbind_xx01zvns2b_c1_elab_chemspace_filtered_scored_top40percent,openbind_xx01zvns2b_c1_elab_chemspace_filtered_scored_top20percent,openbind_xx01zvns2b_c1_elab_chemspace_filtered_scored_top60percent,openbind_xx01zvns2b_c1_elabs_filtered

>  <smiles>  (50) 
Cc1cc(NC(=O)CC2(C)CCC2)c2[nH]cnc2c1

>  <subsites>  (50) 
1 - Z4590/B/203/1

>  <gnina_score>  (50) 
5.221

>  <HIPPO Pose ID>  (50) 
68658

>  <ref_mols>  (50) 
Z0846a,Z1597a

>  <energy_score>  (50) 
-22.881019

>  <inspiration_score>  (50) 
None

>  <smina_score_min>  (50) 
-6.172

>  <fragmenstein_error>  (50) 
nan

>  <name>  (50) 
P68658

$$$$
P68660
     RDKit          3D

 19 21  0  0  0  0  0  0  0  0999 V2000
   -3.6532    5.9299  -17.9120 O   0  0  0  0  0  0  0  0  0  0  0  0
   -4.4021    5.6928  -18.7800 C   0  0  0  0  0  0  0  0  0  0  0  0
   -3.9873    5.6440  -20.2501 C   0  0  0  0  0  0  0  0  0  0  0  0
   -4.3951    6.8512  -21.0259 C   0  0  0  0  0  0  0  0  0  0  0  0
   -5.1085    6.8770  -22.1603 C   0  0  0  0  0  0  0  0  0  0  0  0
   -5.2196    8.2462  -22.7215 C   0  0  0  0  0  0  0  0  0  0  0  0
   -4.2145    9.0355  -21.8874 C   0  0  0  0  0  0  0  0  0  0  0  0
   -3.9444    8.2202  -20.6282 C   0  0  0  0  0  0  0  0  0  0  0  0
   -5.9043    5.2761  -18.7326 N   0  0  0  0  0  0  0  0  0  0  0  0
   -6.7252    4.9873  -17.6516 C   0  0  0  0  0  0  0  0  0  0  0  0
   -6.2564    4.9694  -16.3365 C   0  0  0  0  0  0  0  0  0  0  0  0
   -7.1073    4.6381  -15.2787 C   0  0  0  0  0  0  0  0  0  0  0  0
   -6.4879    4.7287  -13.5025 Br  0  0  0  0  0  0  0  0  0  0  0  0
   -8.4355    4.2845  -15.4810 C   0  0  0  0  0  0  0  0  0  0  0  0
   -8.9212    4.3430  -16.7808 C   0  0  0  0  0  0  0  0  0  0  0  0
  -10.2014    4.1787  -17.2127 N   0  0  0  0  0  0  0  0  0  0  0  0
  -10.1862    4.6223  -18.4400 C   0  0  0  0  0  0  0  0  0  0  0  0
   -8.9151    4.7612  -18.9076 N   0  0  0  0  0  0  0  0  0  0  0  0
   -8.0764    4.6974  -17.8271 C   0  0  0  0  0  0  0  0  0  0  0  0
  1  2  2  0
  2  3  1  0
  3  4  1  0
  4  5  2  0
  5  6  1  0
  6  7  1  0
  7  8  1  0
  2  9  1  0
  9 10  1  0
 10 11  2  0
 11 12  1  0
 12 13  1  0
 12 14  2  0
 14 15  1  0
 15 16  1  0
 16 17  2  0
 17 18  1  0
 18 19  1  0
  8  4  1  0
 19 10  1  0
 19 15  2  0
M  END
>  <fragmenstein_outcome>  (51) 
nan

>  <exports>  (51) 
['/opt/xchem-fragalysis-2/maxwin/openbind-hippo/xx01zvns2b/cycle_01/syndirella/elabs/openbind_xx01zvns2b_c1_elab_chemspace_filtered.sdf']

>  <Energy>  (51) 
nan

>  <alias>  (51) 
None

>  <fragmenstein_runtime>  (51) 
nan

>  <scratch_subdir>  (51) 
nan

>  <HIPPO Compound ID>  (51) 
136792

>  <rmsd(smina/fragmenstein)>  (51) 
0.912

>  <distance_score>  (51) 
1.397282

>  <orig_smiles>  (51) 
nan

>  <fragmenstein_mode>  (51) 
nan

>  <inchikey>  (51) 
OQEGGPPOKUESGI-UHFFFAOYSA-N

>  <ref_pdb>  (51) 
Z0846a

>  <GNINA pK>  (51) 
nan

>  <gnina_score_min>  (51) 
5.47

>  <tags>  (51) 
openbind_xx01zvns2b_c1_elab_nonasap_filtered_scored_top80percent,openbind_xx01zvns2b_c1_elab_chemspace_filtered_scored_top80percent,openbind_xx01zvns2b_c1_elab_chemspace_filtered_scored,openbind_xx01zvns2b_c1_elab_chemspace_filtered_scored_top40percent,openbind_xx01zvns2b_c1_elab_chemspace_filtered_scored_top20percent,openbind_xx01zvns2b_c1_elab_chemspace_filtered_scored_top60percent,openbind_xx01zvns2b_c1_elabs_filtered

>  <smiles>  (51) 
O=C(CC1=CCCC1)Nc1cc(Br)cc2nc[nH]c12

>  <subsites>  (51) 
1 - Z4590/B/203/1

>  <gnina_score>  (51) 
5.415

>  <HIPPO Pose ID>  (51) 
68660

>  <ref_mols>  (51) 
Z0846a,Z1597a

>  <energy_score>  (51) 
-12.983763

>  <inspiration_score>  (51) 
None

>  <smina_score_min>  (51) 
-6.176

>  <fragmenstein_error>  (51) 
nan

>  <name>  (51) 
P68660

$$$$
P68664
     RDKit          3D

 19 20  0  0  0  0  0  0  0  0999 V2000
   -5.3158   10.1967  -23.2881 C   0  0  0  0  0  0  0  0  0  0  0  0
   -5.2891    8.9976  -23.2295 C   0  0  0  0  0  0  0  0  0  0  0  0
   -5.2871    7.5292  -23.2755 C   0  0  0  0  0  0  0  0  0  0  0  0
   -5.3510    6.8592  -21.9012 C   0  0  0  0  0  0  0  0  0  0  0  0
   -4.0221    6.8084  -21.1433 C   0  0  0  0  0  0  0  0  0  0  0  0
   -3.8657    5.5348  -20.3145 C   0  0  0  0  0  0  0  0  0  0  0  0
   -4.2454    5.6152  -18.8446 C   0  0  0  0  0  0  0  0  0  0  0  0
   -3.4466    5.8397  -18.0181 O   0  0  0  0  0  0  0  0  0  0  0  0
   -5.7585    5.2542  -18.7167 N   0  0  0  0  0  0  0  0  0  0  0  0
   -6.5381    5.0130  -17.5876 C   0  0  0  0  0  0  0  0  0  0  0  0
   -5.9762    5.0182  -16.3057 C   0  0  0  0  0  0  0  0  0  0  0  0
   -6.7425    4.7109  -15.1577 C   0  0  0  0  0  0  0  0  0  0  0  0
   -8.0975    4.4133  -15.2546 C   0  0  0  0  0  0  0  0  0  0  0  0
   -8.6300    4.4395  -16.5153 C   0  0  0  0  0  0  0  0  0  0  0  0
   -9.9619    4.3468  -16.8754 N   0  0  0  0  0  0  0  0  0  0  0  0
  -10.0730    4.6686  -18.2199 C   0  0  0  0  0  0  0  0  0  0  0  0
  -11.1225    4.8936  -18.7882 O   0  0  0  0  0  0  0  0  0  0  0  0
   -8.7756    4.7698  -18.7355 N   0  0  0  0  0  0  0  0  0  0  0  0
   -7.8819    4.7145  -17.6644 C   0  0  0  0  0  0  0  0  0  0  0  0
  1  2  3  0
  2  3  1  0
  3  4  1  0
  4  5  1  0
  5  6  1  0
  6  7  1  0
  7  8  2  0
  7  9  1  0
  9 10  1  0
 10 11  2  0
 11 12  1  0
 12 13  2  0
 13 14  1  0
 14 15  1  0
 15 16  1  0
 16 17  2  0
 16 18  1  0
 18 19  1  0
 19 10  1  0
 19 14  2  0
M  END
>  <fragmenstein_outcome>  (52) 
nan

>  <exports>  (52) 
['/opt/xchem-fragalysis-2/maxwin/openbind-hippo/xx01zvns2b/cycle_01/syndirella/elabs/openbind_xx01zvns2b_c1_elab_chemspace_filtered.sdf']

>  <Energy>  (52) 
nan

>  <alias>  (52) 
None

>  <fragmenstein_runtime>  (52) 
nan

>  <scratch_subdir>  (52) 
nan

>  <HIPPO Compound ID>  (52) 
136800

>  <rmsd(smina/fragmenstein)>  (52) 
1.143

>  <distance_score>  (52) 
1.175613

>  <orig_smiles>  (52) 
nan

>  <fragmenstein_mode>  (52) 
nan

>  <inchikey>  (52) 
CCEBMAXXIKVVDN-UHFFFAOYSA-N

>  <ref_pdb>  (52) 
Z0846a

>  <GNINA pK>  (52) 
nan

>  <gnina_score_min>  (52) 
5.248

>  <tags>  (52) 
openbind_xx01zvns2b_c1_elab_nonasap_filtered_scored_top80percent,openbind_xx01zvns2b_c1_elab_chemspace_filtered_scored_top80percent,openbind_xx01zvns2b_c1_elab_chemspace_filtered_scored,openbind_xx01zvns2b_c1_elab_chemspace_filtered_scored_top40percent,openbind_xx01zvns2b_c1_elab_chemspace_filtered_scored_top20percent,openbind_xx01zvns2b_c1_elab_chemspace_filtered_scored_top60percent,openbind_xx01zvns2b_c1_elabs_filtered

>  <smiles>  (52) 
C#CCCCCC(=O)Nc1cccc2[nH]c(=O)[nH]c12

>  <subsites>  (52) 
1 - Z4590/B/203/1

>  <gnina_score>  (52) 
5.175

>  <HIPPO Pose ID>  (52) 
68664

>  <ref_mols>  (52) 
Z0846a,Z1597a

>  <energy_score>  (52) 
-16.210473

>  <inspiration_score>  (52) 
None

>  <smina_score_min>  (52) 
-6.029

>  <fragmenstein_error>  (52) 
nan

>  <name>  (52) 
P68664

$$$$
P68665
     RDKit          3D

 19 20  0  0  0  0  0  0  0  0999 V2000
   -5.3466   10.1667  -23.3066 C   0  0  0  0  0  0  0  0  0  0  0  0
   -5.3197    8.9689  -23.2224 C   0  0  0  0  0  0  0  0  0  0  0  0
   -5.3117    7.4995  -23.2322 C   0  0  0  0  0  0  0  0  0  0  0  0
   -5.3147    6.8628  -21.8396 C   0  0  0  0  0  0  0  0  0  0  0  0
   -3.9653    6.9004  -21.1192 C   0  0  0  0  0  0  0  0  0  0  0  0
   -3.7372    5.6973  -20.2067 C   0  0  0  0  0  0  0  0  0  0  0  0
   -4.1906    5.8320  -18.7564 C   0  0  0  0  0  0  0  0  0  0  0  0
   -3.4486    6.1531  -17.9094 O   0  0  0  0  0  0  0  0  0  0  0  0
   -5.6814    5.3783  -18.6756 N   0  0  0  0  0  0  0  0  0  0  0  0
   -6.4983    5.1461  -17.5693 C   0  0  0  0  0  0  0  0  0  0  0  0
   -6.0123    5.2304  -16.2569 C   0  0  0  0  0  0  0  0  0  0  0  0
   -6.7901    4.8595  -15.1454 C   0  0  0  0  0  0  0  0  0  0  0  0
   -6.2729    4.9935  -13.7499 C   0  0  0  0  0  0  0  0  0  0  0  0
   -8.0926    4.3964  -15.3196 C   0  0  0  0  0  0  0  0  0  0  0  0
   -8.6160    4.3762  -16.6084 C   0  0  0  0  0  0  0  0  0  0  0  0
   -9.8894    4.0853  -16.9852 N   0  0  0  0  0  0  0  0  0  0  0  0
   -9.9454    4.4602  -18.2332 C   0  0  0  0  0  0  0  0  0  0  0  0
   -8.7081    4.7088  -18.7508 N   0  0  0  0  0  0  0  0  0  0  0  0
   -7.8315    4.7543  -17.6967 C   0  0  0  0  0  0  0  0  0  0  0  0
  1  2  3  0
  2  3  1  0
  3  4  1  0
  4  5  1  0
  5  6  1  0
  6  7  1  0
  7  8  2  0
  7  9  1  0
  9 10  1  0
 10 11  2  0
 11 12  1  0
 12 13  1  0
 12 14  2  0
 14 15  1  0
 15 16  1  0
 16 17  2  0
 17 18  1  0
 18 19  1  0
 19 10  1  0
 19 15  2  0
M  END
>  <fragmenstein_outcome>  (53) 
nan

>  <exports>  (53) 
['/opt/xchem-fragalysis-2/maxwin/openbind-hippo/xx01zvns2b/cycle_01/syndirella/elabs/openbind_xx01zvns2b_c1_elab_chemspace_filtered.sdf']

>  <Energy>  (53) 
nan

>  <alias>  (53) 
None

>  <fragmenstein_runtime>  (53) 
nan

>  <scratch_subdir>  (53) 
nan

>  <HIPPO Compound ID>  (53) 
136801

>  <rmsd(smina/fragmenstein)>  (53) 
0.601

>  <distance_score>  (53) 
1.229231

>  <orig_smiles>  (53) 
nan

>  <fragmenstein_mode>  (53) 
nan

>  <inchikey>  (53) 
GBCTYYSXWOOMCJ-UHFFFAOYSA-N

>  <ref_pdb>  (53) 
Z0846a

>  <GNINA pK>  (53) 
nan

>  <gnina_score_min>  (53) 
5.272

>  <tags>  (53) 
openbind_xx01zvns2b_c1_elab_nonasap_filtered_scored_top80percent,openbind_xx01zvns2b_c1_elab_chemspace_filtered_scored_top80percent,openbind_xx01zvns2b_c1_elab_chemspace_filtered_scored,openbind_xx01zvns2b_c1_elab_chemspace_filtered_scored_top40percent,openbind_xx01zvns2b_c1_elab_chemspace_filtered_scored_top20percent,openbind_xx01zvns2b_c1_elab_chemspace_filtered_scored_top60percent,openbind_xx01zvns2b_c1_elabs_filtered

>  <smiles>  (53) 
C#CCCCCC(=O)Nc1cc(C)cc2nc[nH]c12

>  <subsites>  (53) 
1 - Z4590/B/203/1

>  <gnina_score>  (53) 
5.279

>  <HIPPO Pose ID>  (53) 
68665

>  <ref_mols>  (53) 
Z0846a,Z1597a

>  <energy_score>  (53) 
-10.096593

>  <inspiration_score>  (53) 
None

>  <smina_score_min>  (53) 
-5.102

>  <fragmenstein_error>  (53) 
nan

>  <name>  (53) 
P68665

$$$$
P68666
     RDKit          3D

 19 20  0  0  0  0  0  0  0  0999 V2000
   -5.3355   10.1663  -23.3292 C   0  0  0  0  0  0  0  0  0  0  0  0
   -5.3356    8.9690  -23.2356 C   0  0  0  0  0  0  0  0  0  0  0  0
   -5.3637    7.4995  -23.2306 C   0  0  0  0  0  0  0  0  0  0  0  0
   -5.2870    6.8748  -21.8343 C   0  0  0  0  0  0  0  0  0  0  0  0
   -3.8972    6.9332  -21.1950 C   0  0  0  0  0  0  0  0  0  0  0  0
   -3.5701    5.7117  -20.3410 C   0  0  0  0  0  0  0  0  0  0  0  0
   -3.8908    5.8078  -18.8571 C   0  0  0  0  0  0  0  0  0  0  0  0
   -3.0772    6.1112  -18.0715 O   0  0  0  0  0  0  0  0  0  0  0  0
   -5.3673    5.3450  -18.6560 N   0  0  0  0  0  0  0  0  0  0  0  0
   -6.0809    5.0815  -17.4894 C   0  0  0  0  0  0  0  0  0  0  0  0
   -5.4612    5.1133  -16.2345 C   0  0  0  0  0  0  0  0  0  0  0  0
   -6.1231    4.7118  -15.0688 C   0  0  0  0  0  0  0  0  0  0  0  0
   -7.4439    4.2783  -15.1088 C   0  0  0  0  0  0  0  0  0  0  0  0
   -8.0981    4.3132  -16.3368 C   0  0  0  0  0  0  0  0  0  0  0  0
   -9.4084    4.0581  -16.5834 N   0  0  0  0  0  0  0  0  0  0  0  0
   -9.5840    4.4357  -17.8232 C   0  0  0  0  0  0  0  0  0  0  0  0
  -10.8742    4.7855  -18.4117 C   0  0  0  0  0  0  0  0  0  0  0  0
   -8.3917    4.6488  -18.4655 N   0  0  0  0  0  0  0  0  0  0  0  0
   -7.4236    4.7015  -17.4950 C   0  0  0  0  0  0  0  0  0  0  0  0
  1  2  3  0
  2  3  1  0
  3  4  1  0
  4  5  1  0
  5  6  1  0
  6  7  1  0
  7  8  2  0
  7  9  1  0
  9 10  1  0
 10 11  2  0
 11 12  1  0
 12 13  2  0
 13 14  1  0
 14 15  1  0
 15 16  2  0
 16 17  1  0
 16 18  1  0
 18 19  1  0
 19 10  1  0
 19 14  2  0
M  END
>  <fragmenstein_outcome>  (54) 
nan

>  <exports>  (54) 
['/opt/xchem-fragalysis-2/maxwin/openbind-hippo/xx01zvns2b/cycle_01/syndirella/elabs/openbind_xx01zvns2b_c1_elab_chemspace_filtered.sdf']

>  <Energy>  (54) 
nan

>  <alias>  (54) 
None

>  <fragmenstein_runtime>  (54) 
nan

>  <scratch_subdir>  (54) 
nan

>  <HIPPO Compound ID>  (54) 
136804

>  <rmsd(smina/fragmenstein)>  (54) 
1.076

>  <distance_score>  (54) 
1.400399

>  <orig_smiles>  (54) 
nan

>  <fragmenstein_mode>  (54) 
nan

>  <inchikey>  (54) 
AZIFWDGTIBCSLG-UHFFFAOYSA-N

>  <ref_pdb>  (54) 
Z0846a

>  <GNINA pK>  (54) 
nan

>  <gnina_score_min>  (54) 
5.216

>  <tags>  (54) 
openbind_xx01zvns2b_c1_elab_nonasap_filtered_scored_top80percent,openbind_xx01zvns2b_c1_elab_chemspace_filtered_scored_top80percent,openbind_xx01zvns2b_c1_elab_chemspace_filtered_scored,openbind_xx01zvns2b_c1_elab_chemspace_filtered_scored_top40percent,openbind_xx01zvns2b_c1_elab_chemspace_filtered_scored_top20percent,openbind_xx01zvns2b_c1_elab_chemspace_filtered_scored_top60percent,openbind_xx01zvns2b_c1_elabs_filtered

>  <smiles>  (54) 
C#CCCCCC(=O)Nc1cccc2nc(C)[nH]c12

>  <subsites>  (54) 
1 - Z4590/B/203/1

>  <gnina_score>  (54) 
5.105

>  <HIPPO Pose ID>  (54) 
68666

>  <ref_mols>  (54) 
Z0846a,Z1597a

>  <energy_score>  (54) 
-17.867658

>  <inspiration_score>  (54) 
None

>  <smina_score_min>  (54) 
-5.187

>  <fragmenstein_error>  (54) 
nan

>  <name>  (54) 
P68666

$$$$
P68669
     RDKit          3D

 19 20  0  0  0  0  0  0  0  0999 V2000
   -5.8170    7.6911  -24.5681 C   0  0  0  0  0  0  0  0  0  0  0  0
   -5.4128    8.0440  -23.1458 C   0  0  0  0  0  0  0  0  0  0  0  0
   -4.8463    6.8302  -22.4140 C   0  0  0  0  0  0  0  0  0  0  0  0
   -4.6191    7.1008  -20.9244 C   0  0  0  0  0  0  0  0  0  0  0  0
   -3.9710    5.9023  -20.2269 C   0  0  1  0  0  0  0  0  0  0  0  0
   -2.5537    6.0223  -20.3390 O   0  0  0  0  0  0  0  0  0  0  0  0
   -4.3942    5.8003  -18.7438 C   0  0  0  0  0  0  0  0  0  0  0  0
   -3.6471    6.0156  -17.8668 O   0  0  0  0  0  0  0  0  0  0  0  0
   -5.8895    5.3509  -18.7116 N   0  0  0  0  0  0  0  0  0  0  0  0
   -6.7021    4.9996  -17.6418 C   0  0  0  0  0  0  0  0  0  0  0  0
   -6.2340    4.9643  -16.3266 C   0  0  0  0  0  0  0  0  0  0  0  0
   -7.0839    4.6161  -15.2736 C   0  0  0  0  0  0  0  0  0  0  0  0
   -6.4684    4.6969  -13.4956 Br  0  0  0  0  0  0  0  0  0  0  0  0
   -8.4101    4.2604  -15.4808 C   0  0  0  0  0  0  0  0  0  0  0  0
   -8.8947    4.3284  -16.7803 C   0  0  0  0  0  0  0  0  0  0  0  0
  -10.1749    4.1638  -17.2119 N   0  0  0  0  0  0  0  0  0  0  0  0
  -10.1626    4.6147  -18.4365 C   0  0  0  0  0  0  0  0  0  0  0  0
   -8.8922    4.7643  -18.9028 N   0  0  0  0  0  0  0  0  0  0  0  0
   -8.0512    4.6980  -17.8235 C   0  0  0  0  0  0  0  0  0  0  0  0
  1  2  1  0
  2  3  1  0
  3  4  1  0
  4  5  1  0
  5  6  1  1
  5  7  1  0
  7  8  2  0
  7  9  1  0
  9 10  1  0
 10 11  2  0
 11 12  1  0
 12 13  1  0
 12 14  2  0
 14 15  1  0
 15 16  1  0
 16 17  2  0
 17 18  1  0
 18 19  1  0
 19 10  1  0
 19 15  2  0
M  END
>  <fragmenstein_outcome>  (55) 
nan

>  <exports>  (55) 
['/opt/xchem-fragalysis-2/maxwin/openbind-hippo/xx01zvns2b/cycle_01/syndirella/elabs/openbind_xx01zvns2b_c1_elab_chemspace_filtered.sdf']

>  <Energy>  (55) 
nan

>  <alias>  (55) 
None

>  <fragmenstein_runtime>  (55) 
nan

>  <scratch_subdir>  (55) 
nan

>  <HIPPO Compound ID>  (55) 
136806

>  <rmsd(smina/fragmenstein)>  (55) 
1.022

>  <distance_score>  (55) 
0.947234

>  <orig_smiles>  (55) 
nan

>  <fragmenstein_mode>  (55) 
nan

>  <inchikey>  (55) 
ZJMDQQHLMKMWDV-LLVKDONJSA-N

>  <ref_pdb>  (55) 
Z0846a

>  <GNINA pK>  (55) 
nan

>  <gnina_score_min>  (55) 
5.282

>  <tags>  (55) 
openbind_xx01zvns2b_c1_elab_nonasap_filtered_scored_top80percent,openbind_xx01zvns2b_c1_elab_chemspace_filtered_scored_top80percent,openbind_xx01zvns2b_c1_elab_chemspace_filtered_scored,openbind_xx01zvns2b_c1_elab_chemspace_filtered_scored_top40percent,openbind_xx01zvns2b_c1_elab_chemspace_filtered_scored_top20percent,openbind_xx01zvns2b_c1_elab_chemspace_filtered_scored_top60percent,openbind_xx01zvns2b_c1_elabs_filtered

>  <smiles>  (55) 
CCCC[C@@H](O)C(=O)Nc1cc(Br)cc2nc[nH]c12

>  <subsites>  (55) 
1 - Z4590/B/203/1

>  <gnina_score>  (55) 
5.208

>  <HIPPO Pose ID>  (55) 
68669

>  <ref_mols>  (55) 
Z0846a,Z1597a

>  <energy_score>  (55) 
-25.032829

>  <inspiration_score>  (55) 
None

>  <smina_score_min>  (55) 
-5.964

>  <fragmenstein_error>  (55) 
nan

>  <name>  (55) 
P68669

$$$$
P68679
     RDKit          3D

 19 21  0  0  0  0  0  0  0  0999 V2000
   -4.1779    6.7296  -18.8687 O   0  0  0  0  0  0  0  0  0  0  0  0
   -5.1051    6.4750  -19.5349 C   0  0  0  0  0  0  0  0  0  0  0  0
   -5.2021    6.6972  -21.0367 C   0  0  0  0  0  0  0  0  0  0  0  0
   -4.1896    7.6231  -21.6853 C   0  0  1  0  0  0  0  0  0  0  0  0
   -4.4864    7.8086  -23.2009 C   0  0  0  0  0  0  0  0  0  0  0  0
   -4.1674    9.3049  -23.0361 C   0  0  1  0  0  0  0  0  0  0  0  0
   -5.4009   10.3666  -23.8606 S   0  0  0  0  0  0  0  0  0  0  0  0
   -4.4358    9.1490  -21.5245 C   0  0  0  0  0  0  0  0  0  0  0  0
   -6.4784    5.8304  -19.1553 N   0  0  0  0  0  0  0  0  0  0  0  0
   -6.9263    5.3064  -17.9475 C   0  0  0  0  0  0  0  0  0  0  0  0
   -6.2064    5.3307  -16.7534 C   0  0  0  0  0  0  0  0  0  0  0  0
   -6.7704    4.8182  -15.5754 C   0  0  0  0  0  0  0  0  0  0  0  0
   -5.8666    4.9835  -13.9307 Br  0  0  0  0  0  0  0  0  0  0  0  0
   -8.0343    4.2380  -15.5385 C   0  0  0  0  0  0  0  0  0  0  0  0
   -8.7708    4.2598  -16.7129 C   0  0  0  0  0  0  0  0  0  0  0  0
  -10.0690    3.9048  -16.8966 N   0  0  0  0  0  0  0  0  0  0  0  0
  -10.3717    4.3548  -18.0847 C   0  0  0  0  0  0  0  0  0  0  0  0
   -9.2586    4.7317  -18.7730 N   0  0  0  0  0  0  0  0  0  0  0  0
   -8.2185    4.7778  -17.8768 C   0  0  0  0  0  0  0  0  0  0  0  0
  1  2  2  0
  2  3  1  0
  4  3  1  1
  4  5  1  0
  5  6  1  0
  6  7  1  6
  6  8  1  0
  2  9  1  0
  9 10  1  0
 10 11  2  0
 11 12  1  0
 12 13  1  0
 12 14  2  0
 14 15  1  0
 15 16  1  0
 16 17  2  0
 17 18  1  0
 18 19  1  0
  8  4  1  0
 19 10  1  0
 19 15  2  0
M  END
>  <fragmenstein_outcome>  (56) 
nan

>  <exports>  (56) 
['/opt/xchem-fragalysis-2/maxwin/openbind-hippo/xx01zvns2b/cycle_01/syndirella/elabs/openbind_xx01zvns2b_c1_elab_chemspace_filtered.sdf']

>  <Energy>  (56) 
nan

>  <alias>  (56) 
None

>  <fragmenstein_runtime>  (56) 
nan

>  <scratch_subdir>  (56) 
nan

>  <HIPPO Compound ID>  (56) 
136813

>  <rmsd(smina/fragmenstein)>  (56) 
0.855

>  <distance_score>  (56) 
1.311809

>  <orig_smiles>  (56) 
nan

>  <fragmenstein_mode>  (56) 
nan

>  <inchikey>  (56) 
JGVRXMRGQWMWBB-OTSSQURYSA-N

>  <ref_pdb>  (56) 
Z0846a

>  <GNINA pK>  (56) 
nan

>  <gnina_score_min>  (56) 
5.46

>  <tags>  (56) 
openbind_xx01zvns2b_c1_elab_nonasap_filtered_scored_top80percent,openbind_xx01zvns2b_c1_elab_chemspace_filtered_scored_top80percent,openbind_xx01zvns2b_c1_elab_chemspace_filtered_scored,openbind_xx01zvns2b_c1_elab_chemspace_filtered_scored_top40percent,openbind_xx01zvns2b_c1_elab_chemspace_filtered_scored_top20percent,openbind_xx01zvns2b_c1_elab_chemspace_filtered_scored_top60percent,openbind_xx01zvns2b_c1_elabs_filtered

>  <smiles>  (56) 
O=C(C[C@H]1C[C@@H](S)C1)Nc1cc(Br)cc2nc[nH]c12

>  <subsites>  (56) 
1 - Z4590/B/203/1

>  <gnina_score>  (56) 
5.253

>  <HIPPO Pose ID>  (56) 
68679

>  <ref_mols>  (56) 
Z0846a,Z1597a

>  <energy_score>  (56) 
-10.906672

>  <inspiration_score>  (56) 
None

>  <smina_score_min>  (56) 
-5.854

>  <fragmenstein_error>  (56) 
nan

>  <name>  (56) 
P68679

$$$$
P68687
     RDKit          3D

 19 21  0  0  0  0  0  0  0  0999 V2000
  -10.9823    4.6801  -18.2264 C   0  0  0  0  0  0  0  0  0  0  0  0
   -9.6203    4.3811  -17.8003 C   0  0  0  0  0  0  0  0  0  0  0  0
   -9.2663    4.0109  -16.5955 N   0  0  0  0  0  0  0  0  0  0  0  0
   -7.9373    4.2989  -16.5319 C   0  0  0  0  0  0  0  0  0  0  0  0
   -7.0999    4.2627  -15.4207 C   0  0  0  0  0  0  0  0  0  0  0  0
   -5.7911    4.7159  -15.5831 C   0  0  0  0  0  0  0  0  0  0  0  0
   -5.3261    5.1695  -16.8259 C   0  0  0  0  0  0  0  0  0  0  0  0
   -6.1462    5.1792  -17.9561 C   0  0  0  0  0  0  0  0  0  0  0  0
   -5.7224    5.6240  -19.2044 N   0  0  0  0  0  0  0  0  0  0  0  0
   -4.3495    6.2178  -19.6570 C   0  0  0  0  0  0  0  0  0  0  0  0
   -3.3987    6.4923  -19.0313 O   0  0  0  0  0  0  0  0  0  0  0  0
   -4.4542    6.4452  -21.1591 C   0  0  0  0  0  0  0  0  0  0  0  0
   -5.1254    7.7545  -21.5232 C   0  0  1  0  0  0  0  0  0  0  0  0
   -4.3044    9.0683  -21.7203 C   0  0  0  0  0  0  0  0  0  0  0  0
   -5.3639    9.4345  -22.7920 C   0  0  1  0  0  0  0  0  0  0  0  0
   -4.7175   10.3055  -24.2369 S   0  0  0  0  0  0  0  0  0  0  0  0
   -5.5054    7.9139  -23.0258 C   0  0  0  0  0  0  0  0  0  0  0  0
   -7.4522    4.7331  -17.7628 C   0  0  0  0  0  0  0  0  0  0  0  0
   -8.5388    4.6492  -18.5908 N   0  0  0  0  0  0  0  0  0  0  0  0
  1  2  1  0
  2  3  2  0
  3  4  1  0
  4  5  2  0
  5  6  1  0
  6  7  2  0
  7  8  1  0
  8  9  1  0
  9 10  1  0
 10 11  2  0
 10 12  1  0
 13 12  1  6
 13 14  1  0
 14 15  1  0
 15 16  1  6
 15 17  1  0
  8 18  2  0
 18 19  1  0
 19  2  1  0
 18  4  1  0
 17 13  1  0
M  END
>  <fragmenstein_outcome>  (57) 
nan

>  <exports>  (57) 
['/opt/xchem-fragalysis-2/maxwin/openbind-hippo/xx01zvns2b/cycle_01/syndirella/elabs/openbind_xx01zvns2b_c1_elab_chemspace_filtered.sdf']

>  <Energy>  (57) 
nan

>  <alias>  (57) 
None

>  <fragmenstein_runtime>  (57) 
nan

>  <scratch_subdir>  (57) 
nan

>  <HIPPO Compound ID>  (57) 
136818

>  <rmsd(smina/fragmenstein)>  (57) 
1.248

>  <distance_score>  (57) 
1.483087

>  <orig_smiles>  (57) 
nan

>  <fragmenstein_mode>  (57) 
nan

>  <inchikey>  (57) 
YAZXMRPGFBSMDD-AOOOYVTPSA-N

>  <ref_pdb>  (57) 
Z0846a

>  <GNINA pK>  (57) 
nan

>  <gnina_score_min>  (57) 
5.142

>  <tags>  (57) 
openbind_xx01zvns2b_c1_elab_nonasap_filtered_scored_top80percent,openbind_xx01zvns2b_c1_elab_chemspace_filtered_scored_top80percent,openbind_xx01zvns2b_c1_elab_chemspace_filtered_scored,openbind_xx01zvns2b_c1_elab_chemspace_filtered_scored_top40percent,openbind_xx01zvns2b_c1_elab_chemspace_filtered_scored_top20percent,openbind_xx01zvns2b_c1_elab_chemspace_filtered_scored_top60percent,openbind_xx01zvns2b_c1_elabs_filtered

>  <smiles>  (57) 
Cc1nc2cccc(NC(=O)C[C@H]3C[C@@H](S)C3)c2[nH]1

>  <subsites>  (57) 
1 - Z4590/B/203/1

>  <gnina_score>  (57) 
5.023

>  <HIPPO Pose ID>  (57) 
68687

>  <ref_mols>  (57) 
Z0846a,Z1597a

>  <energy_score>  (57) 
-7.480306

>  <inspiration_score>  (57) 
None

>  <smina_score_min>  (57) 
-5.751

>  <fragmenstein_error>  (57) 
nan

>  <name>  (57) 
P68687

$$$$
P68689
     RDKit          3D

 19 20  0  0  0  0  0  0  0  0999 V2000
   -5.7198    8.2554  -24.5301 C   0  0  0  0  0  0  0  0  0  0  0  0
   -5.3689    8.3691  -23.0525 C   0  0  0  0  0  0  0  0  0  0  0  0
   -5.0799    6.9917  -22.4722 C   0  0  0  0  0  0  0  0  0  0  0  0
   -5.0717    6.9524  -20.9383 C   0  0  0  0  0  0  0  0  0  0  0  0
   -4.7579    5.5576  -20.3861 C   0  0  2  0  0  0  0  0  0  0  0  0
   -5.6355    4.4196  -20.9509 C   0  0  0  0  0  0  0  0  0  0  0  0
   -4.8072    5.4841  -18.8556 C   0  0  0  0  0  0  0  0  0  0  0  0
   -3.8640    5.4374  -18.1690 O   0  0  0  0  0  0  0  0  0  0  0  0
   -6.3112    5.3852  -18.5024 N   0  0  0  0  0  0  0  0  0  0  0  0
   -6.9292    5.1268  -17.3089 C   0  0  0  0  0  0  0  0  0  0  0  0
   -6.3373    5.0843  -16.0593 C   0  0  0  0  0  0  0  0  0  0  0  0
   -7.1327    4.7572  -14.9581 C   0  0  0  0  0  0  0  0  0  0  0  0
   -6.4539    4.8024  -13.3839 Cl  0  0  0  0  0  0  0  0  0  0  0  0
   -8.4908    4.4315  -15.0638 C   0  0  0  0  0  0  0  0  0  0  0  0
   -9.0232    4.4638  -16.3420 C   0  0  0  0  0  0  0  0  0  0  0  0
  -10.2779    4.2843  -16.8416 N   0  0  0  0  0  0  0  0  0  0  0  0
  -10.2704    4.5983  -18.1612 C   0  0  0  0  0  0  0  0  0  0  0  0
   -9.0521    4.7906  -18.5902 N   0  0  0  0  0  0  0  0  0  0  0  0
   -8.2808    4.7918  -17.4554 C   0  0  0  0  0  0  0  0  0  0  0  0
  1  2  1  0
  2  3  1  0
  3  4  1  0
  4  5  1  0
  5  6  1  6
  5  7  1  0
  7  8  2  0
  7  9  1  0
  9 10  1  0
 10 11  2  0
 11 12  1  0
 12 13  1  0
 12 14  2  0
 14 15  1  0
 15 16  1  0
 16 17  1  0
 17 18  2  0
 18 19  1  0
 19 10  1  0
 19 15  2  0
M  END
>  <fragmenstein_outcome>  (58) 
nan

>  <exports>  (58) 
['/opt/xchem-fragalysis-2/maxwin/openbind-hippo/xx01zvns2b/cycle_01/syndirella/elabs/openbind_xx01zvns2b_c1_elab_chemspace_filtered.sdf']

>  <Energy>  (58) 
nan

>  <alias>  (58) 
None

>  <fragmenstein_runtime>  (58) 
nan

>  <scratch_subdir>  (58) 
nan

>  <HIPPO Compound ID>  (58) 
136819

>  <rmsd(smina/fragmenstein)>  (58) 
1.449

>  <distance_score>  (58) 
1.088633

>  <orig_smiles>  (58) 
nan

>  <fragmenstein_mode>  (58) 
nan

>  <inchikey>  (58) 
HSFQCVDFFCQUTK-VIFPVBQESA-N

>  <ref_pdb>  (58) 
Z0846a

>  <GNINA pK>  (58) 
nan

>  <gnina_score_min>  (58) 
5.152

>  <tags>  (58) 
openbind_xx01zvns2b_c1_elab_nonasap_filtered_scored_top80percent,openbind_xx01zvns2b_c1_elab_chemspace_filtered_scored_top80percent,openbind_xx01zvns2b_c1_elab_chemspace_filtered_scored,openbind_xx01zvns2b_c1_elab_chemspace_filtered_scored_top40percent,openbind_xx01zvns2b_c1_elab_chemspace_filtered_scored_top20percent,openbind_xx01zvns2b_c1_elab_chemspace_filtered_scored_top60percent,openbind_xx01zvns2b_c1_elabs_filtered

>  <smiles>  (58) 
CCCC[C@H](C)C(=O)Nc1cc(Cl)cc2[nH]cnc12

>  <subsites>  (58) 
1 - Z4590/B/203/1

>  <gnina_score>  (58) 
4.403

>  <HIPPO Pose ID>  (58) 
68689

>  <ref_mols>  (58) 
Z0846a,Z1597a

>  <energy_score>  (58) 
-20.011207

>  <inspiration_score>  (58) 
None

>  <smina_score_min>  (58) 
-5.228

>  <fragmenstein_error>  (58) 
nan

>  <name>  (58) 
P68689

$$$$
P68693
     RDKit          3D

 19 20  0  0  0  0  0  0  0  0999 V2000
   -5.8841    7.7414  -24.6168 C   0  0  0  0  0  0  0  0  0  0  0  0
   -5.4667    8.0652  -23.1917 C   0  0  0  0  0  0  0  0  0  0  0  0
   -4.8986    6.8346  -22.4914 C   0  0  0  0  0  0  0  0  0  0  0  0
   -4.6369    7.0796  -21.0038 C   0  0  0  0  0  0  0  0  0  0  0  0
   -3.9641    5.8766  -20.3273 C   0  0  1  0  0  0  0  0  0  0  0  0
   -2.4531    5.8710  -20.5688 C   0  0  0  0  0  0  0  0  0  0  0  0
   -4.2629    5.8665  -18.8227 C   0  0  0  0  0  0  0  0  0  0  0  0
   -3.4889    6.1941  -18.0072 O   0  0  0  0  0  0  0  0  0  0  0  0
   -5.7181    5.3085  -18.6734 N   0  0  0  0  0  0  0  0  0  0  0  0
   -6.4484    4.9654  -17.5258 C   0  0  0  0  0  0  0  0  0  0  0  0
   -5.9643    4.8052  -16.2090 C   0  0  0  0  0  0  0  0  0  0  0  0
   -4.5206    4.9362  -15.8115 C   0  0  0  0  0  0  0  0  0  0  0  0
   -6.8467    4.4537  -15.1632 C   0  0  0  0  0  0  0  0  0  0  0  0
   -8.1978    4.2040  -15.3794 C   0  0  0  0  0  0  0  0  0  0  0  0
   -8.6811    4.3291  -16.6744 C   0  0  0  0  0  0  0  0  0  0  0  0
   -9.9629    4.1778  -17.1185 N   0  0  0  0  0  0  0  0  0  0  0  0
   -9.9363    4.6003  -18.3537 C   0  0  0  0  0  0  0  0  0  0  0  0
   -8.6612    4.8018  -18.7868 N   0  0  0  0  0  0  0  0  0  0  0  0
   -7.8221    4.7054  -17.7018 C   0  0  0  0  0  0  0  0  0  0  0  0
  1  2  1  0
  2  3  1  0
  3  4  1  0
  4  5  1  0
  5  6  1  1
  5  7  1  0
  7  8  2  0
  7  9  1  0
  9 10  1  0
 10 11  2  0
 11 12  1  0
 11 13  1  0
 13 14  2  0
 14 15  1  0
 15 16  1  0
 16 17  2  0
 17 18  1  0
 18 19  1  0
 19 10  1  0
 19 15  2  0
M  END
>  <fragmenstein_outcome>  (59) 
nan

>  <exports>  (59) 
['/opt/xchem-fragalysis-2/maxwin/openbind-hippo/xx01zvns2b/cycle_01/syndirella/elabs/openbind_xx01zvns2b_c1_elab_chemspace_filtered.sdf']

>  <Energy>  (59) 
nan

>  <alias>  (59) 
None

>  <fragmenstein_runtime>  (59) 
nan

>  <scratch_subdir>  (59) 
nan

>  <HIPPO Compound ID>  (59) 
136821

>  <rmsd(smina/fragmenstein)>  (59) 
1.146

>  <distance_score>  (59) 
1.173075

>  <orig_smiles>  (59) 
nan

>  <fragmenstein_mode>  (59) 
nan

>  <inchikey>  (59) 
JPMRZFUINGSFQA-LLVKDONJSA-N

>  <ref_pdb>  (59) 
Z0846a

>  <GNINA pK>  (59) 
nan

>  <gnina_score_min>  (59) 
5.435

>  <tags>  (59) 
openbind_xx01zvns2b_c1_elab_nonasap_filtered_scored_top80percent,openbind_xx01zvns2b_c1_elab_chemspace_filtered_scored_top80percent,openbind_xx01zvns2b_c1_elab_chemspace_filtered_scored,openbind_xx01zvns2b_c1_elab_chemspace_filtered_scored_top40percent,openbind_xx01zvns2b_c1_elab_chemspace_filtered_scored_top20percent,openbind_xx01zvns2b_c1_elab_chemspace_filtered_scored_top60percent,openbind_xx01zvns2b_c1_elabs_filtered

>  <smiles>  (59) 
CCCC[C@@H](C)C(=O)Nc1c(C)ccc2nc[nH]c12

>  <subsites>  (59) 
1 - Z4590/B/203/1

>  <gnina_score>  (59) 
5.399

>  <HIPPO Pose ID>  (59) 
68693

>  <ref_mols>  (59) 
Z0846a,Z1597a

>  <energy_score>  (59) 
-26.398922

>  <inspiration_score>  (59) 
None

>  <smina_score_min>  (59) 
-6.083

>  <fragmenstein_error>  (59) 
nan

>  <name>  (59) 
P68693

$$$$
P68695
     RDKit          3D

 19 20  0  0  0  0  0  0  0  0999 V2000
   -5.8584    7.7463  -24.5761 C   0  0  0  0  0  0  0  0  0  0  0  0
   -5.4390    8.0637  -23.1498 C   0  0  0  0  0  0  0  0  0  0  0  0
   -4.8953    6.8234  -22.4470 C   0  0  0  0  0  0  0  0  0  0  0  0
   -4.6341    7.0604  -20.9571 C   0  0  0  0  0  0  0  0  0  0  0  0
   -4.0271    5.8251  -20.2733 C   0  0  1  0  0  0  0  0  0  0  0  0
   -2.5140    5.7550  -20.4936 C   0  0  0  0  0  0  0  0  0  0  0  0
   -4.3476    5.8100  -18.7706 C   0  0  0  0  0  0  0  0  0  0  0  0
   -3.5579    6.0465  -17.9394 O   0  0  0  0  0  0  0  0  0  0  0  0
   -5.8443    5.3763  -18.6506 N   0  0  0  0  0  0  0  0  0  0  0  0
   -6.6062    5.0683  -17.5312 C   0  0  0  0  0  0  0  0  0  0  0  0
   -6.0717    5.0905  -16.2370 C   0  0  0  0  0  0  0  0  0  0  0  0
   -6.8293    4.7221  -15.1136 C   0  0  0  0  0  0  0  0  0  0  0  0
   -6.2729    4.8244  -13.7310 C   0  0  0  0  0  0  0  0  0  0  0  0
   -8.1501    4.3046  -15.2630 C   0  0  0  0  0  0  0  0  0  0  0  0
   -8.7076    4.3157  -16.5383 C   0  0  0  0  0  0  0  0  0  0  0  0
   -9.9894    4.0411  -16.8940 N   0  0  0  0  0  0  0  0  0  0  0  0
  -10.0738    4.4344  -18.1351 C   0  0  0  0  0  0  0  0  0  0  0  0
   -8.8482    4.6954  -18.6727 N   0  0  0  0  0  0  0  0  0  0  0  0
   -7.9481    4.7073  -17.6372 C   0  0  0  0  0  0  0  0  0  0  0  0
  1  2  1  0
  2  3  1  0
  3  4  1  0
  4  5  1  0
  5  6  1  1
  5  7  1  0
  7  8  2  0
  7  9  1  0
  9 10  1  0
 10 11  2  0
 11 12  1  0
 12 13  1  0
 12 14  2  0
 14 15  1  0
 15 16  1  0
 16 17  2  0
 17 18  1  0
 18 19  1  0
 19 10  1  0
 19 15  2  0
M  END
>  <fragmenstein_outcome>  (60) 
nan

>  <exports>  (60) 
['/opt/xchem-fragalysis-2/maxwin/openbind-hippo/xx01zvns2b/cycle_01/syndirella/elabs/openbind_xx01zvns2b_c1_elab_chemspace_filtered.sdf']

>  <Energy>  (60) 
nan

>  <alias>  (60) 
None

>  <fragmenstein_runtime>  (60) 
nan

>  <scratch_subdir>  (60) 
nan

>  <HIPPO Compound ID>  (60) 
136822

>  <rmsd(smina/fragmenstein)>  (60) 
1.115

>  <distance_score>  (60) 
1.18385

>  <orig_smiles>  (60) 
nan

>  <fragmenstein_mode>  (60) 
nan

>  <inchikey>  (60) 
GZXXXKYTZGNFTI-LLVKDONJSA-N

>  <ref_pdb>  (60) 
Z0846a

>  <GNINA pK>  (60) 
nan

>  <gnina_score_min>  (60) 
5.377

>  <tags>  (60) 
openbind_xx01zvns2b_c1_elab_nonasap_filtered_scored_top80percent,openbind_xx01zvns2b_c1_elab_chemspace_filtered_scored_top80percent,openbind_xx01zvns2b_c1_elab_chemspace_filtered_scored,openbind_xx01zvns2b_c1_elab_chemspace_filtered_scored_top40percent,openbind_xx01zvns2b_c1_elab_chemspace_filtered_scored_top20percent,openbind_xx01zvns2b_c1_elab_chemspace_filtered_scored_top60percent,openbind_xx01zvns2b_c1_elabs_filtered

>  <smiles>  (60) 
CCCC[C@@H](C)C(=O)Nc1cc(C)cc2nc[nH]c12

>  <subsites>  (60) 
1 - Z4590/B/203/1

>  <gnina_score>  (60) 
5.408

>  <HIPPO Pose ID>  (60) 
68695

>  <ref_mols>  (60) 
Z0846a,Z1597a

>  <energy_score>  (60) 
-33.396981

>  <inspiration_score>  (60) 
None

>  <smina_score_min>  (60) 
-5.909

>  <fragmenstein_error>  (60) 
nan

>  <name>  (60) 
P68695

$$$$
P68701
     RDKit          3D

 19 22  0  0  0  0  0  0  0  0999 V2000
   -3.7081    5.5489  -18.2336 O   0  0  0  0  0  0  0  0  0  0  0  0
   -4.5791    5.6058  -19.0124 C   0  0  0  0  0  0  0  0  0  0  0  0
   -4.3919    6.0250  -20.4597 C   0  0  0  0  0  0  0  0  0  0  0  0
   -4.8618    7.4248  -20.7195 C   0  0  1  0  0  0  0  0  0  0  0  0
   -3.8565    8.5618  -20.9756 C   0  0  0  0  0  0  0  0  0  0  0  0
   -4.6486    7.9765  -22.0502 C   0  0  0  0  0  0  0  0  0  0  0  0
   -4.3797    7.4186  -23.3698 C   0  0  0  0  0  0  0  0  0  0  0  0
   -5.4712    8.4686  -23.1477 C   0  0  0  0  0  0  0  0  0  0  0  0
   -6.0968    5.2821  -18.8563 N   0  0  0  0  0  0  0  0  0  0  0  0
   -6.8300    4.9307  -17.7355 C   0  0  0  0  0  0  0  0  0  0  0  0
   -6.2767    4.8787  -16.4552 C   0  0  0  0  0  0  0  0  0  0  0  0
   -7.0691    4.5531  -15.3521 C   0  0  0  0  0  0  0  0  0  0  0  0
   -6.3533    4.6351  -13.6121 Br  0  0  0  0  0  0  0  0  0  0  0  0
   -8.4117    4.2202  -15.4801 C   0  0  0  0  0  0  0  0  0  0  0  0
   -8.9718    4.2910  -16.7490 C   0  0  0  0  0  0  0  0  0  0  0  0
  -10.2705    4.1211  -17.1122 N   0  0  0  0  0  0  0  0  0  0  0  0
  -10.3334    4.5837  -18.3309 C   0  0  0  0  0  0  0  0  0  0  0  0
   -9.0926    4.7504  -18.8660 N   0  0  0  0  0  0  0  0  0  0  0  0
   -8.1915    4.6596  -17.8374 C   0  0  0  0  0  0  0  0  0  0  0  0
  1  2  2  0
  2  3  1  0
  4  3  1  6
  4  5  1  0
  5  6  1  0
  6  7  1  0
  7  8  1  0
  2  9  1  0
  9 10  1  0
 10 11  2  0
 11 12  1  0
 12 13  1  0
 12 14  2  0
 14 15  1  0
 15 16  1  0
 16 17  2  0
 17 18  1  0
 18 19  1  0
  6  4  1  0
 19 10  1  0
  8  6  1  0
 19 15  2  0
M  END
>  <fragmenstein_outcome>  (61) 
nan

>  <exports>  (61) 
['/opt/xchem-fragalysis-2/maxwin/openbind-hippo/xx01zvns2b/cycle_01/syndirella/elabs/openbind_xx01zvns2b_c1_elab_chemspace_filtered.sdf']

>  <Energy>  (61) 
nan

>  <alias>  (61) 
None

>  <fragmenstein_runtime>  (61) 
nan

>  <scratch_subdir>  (61) 
nan

>  <HIPPO Compound ID>  (61) 
136825

>  <rmsd(smina/fragmenstein)>  (61) 
1.075

>  <distance_score>  (61) 
1.234879

>  <orig_smiles>  (61) 
nan

>  <fragmenstein_mode>  (61) 
nan

>  <inchikey>  (61) 
MCRPANAWOMYJMM-QMMMGPOBSA-N

>  <ref_pdb>  (61) 
Z0846a

>  <GNINA pK>  (61) 
nan

>  <gnina_score_min>  (61) 
5.485

>  <tags>  (61) 
openbind_xx01zvns2b_c1_elab_nonasap_filtered_scored_top80percent,openbind_xx01zvns2b_c1_elab_chemspace_filtered_scored_top80percent,openbind_xx01zvns2b_c1_elab_chemspace_filtered_scored,openbind_xx01zvns2b_c1_elab_chemspace_filtered_scored_top40percent,openbind_xx01zvns2b_c1_elab_chemspace_filtered_scored_top20percent,openbind_xx01zvns2b_c1_elab_chemspace_filtered_scored_top60percent,openbind_xx01zvns2b_c1_elabs_filtered

>  <smiles>  (61) 
O=C(C[C@H]1CC12CC2)Nc1cc(Br)cc2nc[nH]c12

>  <subsites>  (61) 
1 - Z4590/B/203/1

>  <gnina_score>  (61) 
5.433

>  <HIPPO Pose ID>  (61) 
68701

>  <ref_mols>  (61) 
Z0846a,Z1597a

>  <energy_score>  (61) 
-24.506225

>  <inspiration_score>  (61) 
None

>  <smina_score_min>  (61) 
-6.246

>  <fragmenstein_error>  (61) 
nan

>  <name>  (61) 
P68701

$$$$
P68704
     RDKit          3D

 19 22  0  0  0  0  0  0  0  0999 V2000
   -6.0266    4.7858  -13.9807 C   0  0  0  0  0  0  0  0  0  0  0  0
   -6.7342    4.7309  -15.2948 C   0  0  0  0  0  0  0  0  0  0  0  0
   -6.0965    5.0934  -16.4936 C   0  0  0  0  0  0  0  0  0  0  0  0
   -6.7696    5.0789  -17.7222 C   0  0  0  0  0  0  0  0  0  0  0  0
   -6.1619    5.4466  -18.9144 N   0  0  0  0  0  0  0  0  0  0  0  0
   -4.6812    5.8286  -19.2200 C   0  0  0  0  0  0  0  0  0  0  0  0
   -3.7691    5.9654  -18.4991 O   0  0  0  0  0  0  0  0  0  0  0  0
   -4.5858    6.0604  -20.7233 C   0  0  0  0  0  0  0  0  0  0  0  0
   -4.6146    7.5175  -21.0668 C   0  0  1  0  0  0  0  0  0  0  0  0
   -3.3882    8.1551  -21.7465 C   0  0  0  0  0  0  0  0  0  0  0  0
   -4.6409    7.9402  -22.4626 C   0  0  0  0  0  0  0  0  0  0  0  0
   -5.4734    8.7961  -23.3027 C   0  0  0  0  0  0  0  0  0  0  0  0
   -5.0578    7.3883  -23.7428 C   0  0  0  0  0  0  0  0  0  0  0  0
   -8.1049    4.6893  -17.6879 C   0  0  0  0  0  0  0  0  0  0  0  0
   -9.1022    4.6487  -18.6284 N   0  0  0  0  0  0  0  0  0  0  0  0
  -10.2552    4.3256  -17.9787 C   0  0  0  0  0  0  0  0  0  0  0  0
  -10.0320    3.9541  -16.7477 N   0  0  0  0  0  0  0  0  0  0  0  0
   -8.7334    4.2717  -16.5204 C   0  0  0  0  0  0  0  0  0  0  0  0
   -8.0482    4.2676  -15.3099 C   0  0  0  0  0  0  0  0  0  0  0  0
  1  2  1  0
  2  3  2  0
  3  4  1  0
  4  5  1  0
  5  6  1  0
  6  7  2  0
  6  8  1  0
  9  8  1  6
  9 10  1  0
 10 11  1  0
 11 12  1  0
 12 13  1  0
  4 14  2  0
 14 15  1  0
 15 16  1  0
 16 17  2  0
 17 18  1  0
 18 19  2  0
 19  2  1  0
 11  9  1  0
 18 14  1  0
 13 11  1  0
M  END
>  <fragmenstein_outcome>  (62) 
nan

>  <exports>  (62) 
['/opt/xchem-fragalysis-2/maxwin/openbind-hippo/xx01zvns2b/cycle_01/syndirella/elabs/openbind_xx01zvns2b_c1_elab_chemspace_filtered.sdf']

>  <Energy>  (62) 
nan

>  <alias>  (62) 
None

>  <fragmenstein_runtime>  (62) 
nan

>  <scratch_subdir>  (62) 
nan

>  <HIPPO Compound ID>  (62) 
136827

>  <rmsd(smina/fragmenstein)>  (62) 
1.06

>  <distance_score>  (62) 
1.292614

>  <orig_smiles>  (62) 
nan

>  <fragmenstein_mode>  (62) 
nan

>  <inchikey>  (62) 
SBSYLJYEEHAZRL-JTQLQIEISA-N

>  <ref_pdb>  (62) 
Z0846a

>  <GNINA pK>  (62) 
nan

>  <gnina_score_min>  (62) 
5.418

>  <tags>  (62) 
openbind_xx01zvns2b_c1_elab_nonasap_filtered_scored_top80percent,openbind_xx01zvns2b_c1_elab_chemspace_filtered_scored_top80percent,openbind_xx01zvns2b_c1_elab_chemspace_filtered_scored,openbind_xx01zvns2b_c1_elab_chemspace_filtered_scored_top40percent,openbind_xx01zvns2b_c1_elab_chemspace_filtered_scored_top20percent,openbind_xx01zvns2b_c1_elab_chemspace_filtered_scored_top60percent,openbind_xx01zvns2b_c1_elabs_filtered

>  <smiles>  (62) 
Cc1cc(NC(=O)C[C@H]2CC23CC3)c2[nH]cnc2c1

>  <subsites>  (62) 
1 - Z4590/B/203/1

>  <gnina_score>  (62) 
5.279

>  <HIPPO Pose ID>  (62) 
68704

>  <ref_mols>  (62) 
Z0846a,Z1597a

>  <energy_score>  (62) 
-19.189794

>  <inspiration_score>  (62) 
None

>  <smina_score_min>  (62) 
-6.531

>  <fragmenstein_error>  (62) 
nan

>  <name>  (62) 
P68704

$$$$
P68710
     RDKit          3D

 19 20  0  0  0  0  0  0  0  0999 V2000
   -5.8668    7.7587  -24.6351 C   0  0  0  0  0  0  0  0  0  0  0  0
   -5.5427    8.0553  -23.1701 C   0  0  0  0  0  0  0  0  0  0  0  0
   -4.6395    9.2791  -23.0650 C   0  0  0  0  0  0  0  0  0  0  0  0
   -4.9351    6.8096  -22.5103 C   0  0  0  0  0  0  0  0  0  0  0  0
   -4.7923    6.8973  -20.9878 C   0  0  0  0  0  0  0  0  0  0  0  0
   -4.3569    5.5551  -20.4064 C   0  0  0  0  0  0  0  0  0  0  0  0
   -4.5913    5.4616  -18.9105 C   0  0  0  0  0  0  0  0  0  0  0  0
   -3.7465    5.6107  -18.1157 O   0  0  0  0  0  0  0  0  0  0  0  0
   -6.1019    5.1340  -18.7271 N   0  0  0  0  0  0  0  0  0  0  0  0
   -6.8267    4.8424  -17.5827 C   0  0  0  0  0  0  0  0  0  0  0  0
   -6.2780    4.8443  -16.3007 C   0  0  0  0  0  0  0  0  0  0  0  0
   -7.1011    4.6303  -15.1912 C   0  0  0  0  0  0  0  0  0  0  0  0
   -6.4450    4.7286  -13.6086 Cl  0  0  0  0  0  0  0  0  0  0  0  0
   -8.4728    4.4060  -15.3029 C   0  0  0  0  0  0  0  0  0  0  0  0
   -8.9847    4.4352  -16.5888 C   0  0  0  0  0  0  0  0  0  0  0  0
  -10.2653    4.4160  -17.0607 N   0  0  0  0  0  0  0  0  0  0  0  0
  -10.2177    4.6641  -18.3930 C   0  0  0  0  0  0  0  0  0  0  0  0
   -8.9893    4.6421  -18.8427 N   0  0  0  0  0  0  0  0  0  0  0  0
   -8.2055    4.6162  -17.7212 C   0  0  0  0  0  0  0  0  0  0  0  0
  1  2  1  0
  2  3  1  0
  2  4  1  0
  4  5  1  0
  5  6  1  0
  6  7  1  0
  7  8  2  0
  7  9  1  0
  9 10  1  0
 10 11  2  0
 11 12  1  0
 12 13  1  0
 12 14  2  0
 14 15  1  0
 15 16  1  0
 16 17  1  0
 17 18  2  0
 18 19  1  0
 19 10  1  0
 19 15  2  0
M  END
>  <fragmenstein_outcome>  (63) 
nan

>  <exports>  (63) 
['/opt/xchem-fragalysis-2/maxwin/openbind-hippo/xx01zvns2b/cycle_01/syndirella/elabs/openbind_xx01zvns2b_c1_elab_chemspace_filtered.sdf']

>  <Energy>  (63) 
nan

>  <alias>  (63) 
None

>  <fragmenstein_runtime>  (63) 
nan

>  <scratch_subdir>  (63) 
nan

>  <HIPPO Compound ID>  (63) 
136832

>  <rmsd(smina/fragmenstein)>  (63) 
1.031

>  <distance_score>  (63) 
0.882457

>  <orig_smiles>  (63) 
nan

>  <fragmenstein_mode>  (63) 
nan

>  <inchikey>  (63) 
PRAJYKSNEXCFIF-UHFFFAOYSA-N

>  <ref_pdb>  (63) 
Z0846a

>  <GNINA pK>  (63) 
nan

>  <gnina_score_min>  (63) 
5.312

>  <tags>  (63) 
openbind_xx01zvns2b_c1_elab_nonasap_filtered_scored_top80percent,openbind_xx01zvns2b_c1_elab_chemspace_filtered_scored_top80percent,openbind_xx01zvns2b_c1_elab_chemspace_filtered_scored,openbind_xx01zvns2b_c1_elab_chemspace_filtered_scored_top40percent,openbind_xx01zvns2b_c1_elab_chemspace_filtered_scored_top20percent,openbind_xx01zvns2b_c1_elab_chemspace_filtered_scored_top60percent,openbind_xx01zvns2b_c1_elabs_filtered

>  <smiles>  (63) 
CC(C)CCCC(=O)Nc1cc(Cl)cc2[nH]cnc12

>  <subsites>  (63) 
1 - Z4590/B/203/1

>  <gnina_score>  (63) 
5.051

>  <HIPPO Pose ID>  (63) 
68710

>  <ref_mols>  (63) 
Z0846a,Z1597a

>  <energy_score>  (63) 
-6.834798

>  <inspiration_score>  (63) 
None

>  <smina_score_min>  (63) 
-5.344

>  <fragmenstein_error>  (63) 
nan

>  <name>  (63) 
P68710

$$$$
P68711
     RDKit          3D

 19 20  0  0  0  0  0  0  0  0999 V2000
   -4.9554    9.3465  -22.7996 C   0  0  0  0  0  0  0  0  0  0  0  0
   -4.9297    7.8771  -23.2142 C   0  0  0  0  0  0  0  0  0  0  0  0
   -5.9483    7.6316  -24.3267 C   0  0  0  0  0  0  0  0  0  0  0  0
   -5.1782    6.9371  -22.0183 C   0  0  0  0  0  0  0  0  0  0  0  0
   -3.9863    6.8605  -21.0540 C   0  0  0  0  0  0  0  0  0  0  0  0
   -3.9376    5.5594  -20.2593 C   0  0  0  0  0  0  0  0  0  0  0  0
   -4.3804    5.6697  -18.8091 C   0  0  0  0  0  0  0  0  0  0  0  0
   -3.6413    5.9498  -17.9467 O   0  0  0  0  0  0  0  0  0  0  0  0
   -5.8797    5.2495  -18.7567 N   0  0  0  0  0  0  0  0  0  0  0  0
   -6.7108    5.0068  -17.6700 C   0  0  0  0  0  0  0  0  0  0  0  0
   -6.2420    5.0101  -16.3539 C   0  0  0  0  0  0  0  0  0  0  0  0
   -7.0873    4.6790  -15.2908 C   0  0  0  0  0  0  0  0  0  0  0  0
   -6.4625    4.7812  -13.5171 Br  0  0  0  0  0  0  0  0  0  0  0  0
   -8.4114    4.3083  -15.4864 C   0  0  0  0  0  0  0  0  0  0  0  0
   -8.9008    4.3563  -16.7849 C   0  0  0  0  0  0  0  0  0  0  0  0
  -10.1810    4.1774  -17.2095 N   0  0  0  0  0  0  0  0  0  0  0  0
  -10.1756    4.6175  -18.4380 C   0  0  0  0  0  0  0  0  0  0  0  0
   -8.9076    4.7585  -18.9140 N   0  0  0  0  0  0  0  0  0  0  0  0
   -8.0620    4.7092  -17.8377 C   0  0  0  0  0  0  0  0  0  0  0  0
  1  2  1  0
  2  3  1  0
  2  4  1  0
  4  5  1  0
  5  6  1  0
  6  7  1  0
  7  8  2  0
  7  9  1  0
  9 10  1  0
 10 11  2  0
 11 12  1  0
 12 13  1  0
 12 14  2  0
 14 15  1  0
 15 16  1  0
 16 17  2  0
 17 18  1  0
 18 19  1  0
 19 10  1  0
 19 15  2  0
M  END
>  <fragmenstein_outcome>  (64) 
nan

>  <exports>  (64) 
['/opt/xchem-fragalysis-2/maxwin/openbind-hippo/xx01zvns2b/cycle_01/syndirella/elabs/openbind_xx01zvns2b_c1_elab_chemspace_filtered.sdf']

>  <Energy>  (64) 
nan

>  <alias>  (64) 
None

>  <fragmenstein_runtime>  (64) 
nan

>  <scratch_subdir>  (64) 
nan

>  <HIPPO Compound ID>  (64) 
136833

>  <rmsd(smina/fragmenstein)>  (64) 
1.286

>  <distance_score>  (64) 
0.969782

>  <orig_smiles>  (64) 
nan

>  <fragmenstein_mode>  (64) 
nan

>  <inchikey>  (64) 
OHGJPJXYQNEXNN-UHFFFAOYSA-N

>  <ref_pdb>  (64) 
Z0846a

>  <GNINA pK>  (64) 
nan

>  <gnina_score_min>  (64) 
5.587

>  <tags>  (64) 
openbind_xx01zvns2b_c1_elab_nonasap_filtered_scored_top80percent,openbind_xx01zvns2b_c1_elab_chemspace_filtered_scored_top80percent,openbind_xx01zvns2b_c1_elab_chemspace_filtered_scored,openbind_xx01zvns2b_c1_elab_chemspace_filtered_scored_top40percent,openbind_xx01zvns2b_c1_elab_chemspace_filtered_scored_top20percent,openbind_xx01zvns2b_c1_elab_chemspace_filtered_scored_top60percent,openbind_xx01zvns2b_c1_elabs_filtered

>  <smiles>  (64) 
CC(C)CCCC(=O)Nc1cc(Br)cc2nc[nH]c12

>  <subsites>  (64) 
1 - Z4590/B/203/1

>  <gnina_score>  (64) 
5.455

>  <HIPPO Pose ID>  (64) 
68711

>  <ref_mols>  (64) 
Z0846a,Z1597a

>  <energy_score>  (64) 
-13.679313

>  <inspiration_score>  (64) 
None

>  <smina_score_min>  (64) 
-5.861

>  <fragmenstein_error>  (64) 
nan

>  <name>  (64) 
P68711

$$$$
P68712
     RDKit          3D

 19 20  0  0  0  0  0  0  0  0999 V2000
   -4.5093    4.8676  -15.8627 C   0  0  0  0  0  0  0  0  0  0  0  0
   -5.9633    4.7675  -16.2315 C   0  0  0  0  0  0  0  0  0  0  0  0
   -6.8391    4.4570  -15.1679 C   0  0  0  0  0  0  0  0  0  0  0  0
   -8.1976    4.2272  -15.3637 C   0  0  0  0  0  0  0  0  0  0  0  0
   -8.6947    4.3380  -16.6553 C   0  0  0  0  0  0  0  0  0  0  0  0
   -9.9833    4.2014  -17.0827 N   0  0  0  0  0  0  0  0  0  0  0  0
   -9.9642    4.5938  -18.3278 C   0  0  0  0  0  0  0  0  0  0  0  0
   -8.6912    4.7682  -18.7786 N   0  0  0  0  0  0  0  0  0  0  0  0
   -7.8422    4.6778  -17.7002 C   0  0  0  0  0  0  0  0  0  0  0  0
   -6.4618    4.9092  -17.5439 C   0  0  0  0  0  0  0  0  0  0  0  0
   -5.7317    5.1884  -18.7073 N   0  0  0  0  0  0  0  0  0  0  0  0
   -4.3151    5.8242  -18.8880 C   0  0  0  0  0  0  0  0  0  0  0  0
   -3.5173    6.1375  -18.0909 O   0  0  0  0  0  0  0  0  0  0  0  0
   -4.0689    5.8869  -20.3831 C   0  0  0  0  0  0  0  0  0  0  0  0
   -4.7386    7.0956  -21.0212 C   0  0  0  0  0  0  0  0  0  0  0  0
   -4.8821    6.9097  -22.5327 C   0  0  0  0  0  0  0  0  0  0  0  0
   -5.5735    8.0790  -23.2477 C   0  0  0  0  0  0  0  0  0  0  0  0
   -5.8928    7.6888  -24.6909 C   0  0  0  0  0  0  0  0  0  0  0  0
   -4.7455    9.3601  -23.2193 C   0  0  0  0  0  0  0  0  0  0  0  0
  1  2  1  0
  2  3  2  0
  3  4  1  0
  4  5  2  0
  5  6  1  0
  6  7  2  0
  7  8  1  0
  8  9  1  0
  9 10  2  0
 10 11  1  0
 11 12  1  0
 12 13  2  0
 12 14  1  0
 14 15  1  0
 15 16  1  0
 16 17  1  0
 17 18  1  0
 17 19  1  0
 10  2  1  0
  9  5  1  0
M  END
>  <fragmenstein_outcome>  (65) 
nan

>  <exports>  (65) 
['/opt/xchem-fragalysis-2/maxwin/openbind-hippo/xx01zvns2b/cycle_01/syndirella/elabs/openbind_xx01zvns2b_c1_elab_chemspace_filtered.sdf']

>  <Energy>  (65) 
nan

>  <alias>  (65) 
None

>  <fragmenstein_runtime>  (65) 
nan

>  <scratch_subdir>  (65) 
nan

>  <HIPPO Compound ID>  (65) 
136834

>  <rmsd(smina/fragmenstein)>  (65) 
0.937

>  <distance_score>  (65) 
1.196752

>  <orig_smiles>  (65) 
nan

>  <fragmenstein_mode>  (65) 
nan

>  <inchikey>  (65) 
RUCAKKJFNDVCHV-UHFFFAOYSA-N

>  <ref_pdb>  (65) 
Z0846a

>  <GNINA pK>  (65) 
nan

>  <gnina_score_min>  (65) 
5.325

>  <tags>  (65) 
openbind_xx01zvns2b_c1_elab_nonasap_filtered_scored_top80percent,openbind_xx01zvns2b_c1_elab_chemspace_filtered_scored_top80percent,openbind_xx01zvns2b_c1_elab_chemspace_filtered_scored,openbind_xx01zvns2b_c1_elab_chemspace_filtered_scored_top40percent,openbind_xx01zvns2b_c1_elab_chemspace_filtered_scored_top20percent,openbind_xx01zvns2b_c1_elab_chemspace_filtered_scored_top60percent,openbind_xx01zvns2b_c1_elabs_filtered

>  <smiles>  (65) 
Cc1ccc2nc[nH]c2c1NC(=O)CCCC(C)C

>  <subsites>  (65) 
1 - Z4590/B/203/1

>  <gnina_score>  (65) 
5.323

>  <HIPPO Pose ID>  (65) 
68712

>  <ref_mols>  (65) 
Z0846a,Z1597a

>  <energy_score>  (65) 
-20.102876

>  <inspiration_score>  (65) 
None

>  <smina_score_min>  (65) 
-5.844

>  <fragmenstein_error>  (65) 
nan

>  <name>  (65) 
P68712

$$$$
P68713
     RDKit          3D

 19 20  0  0  0  0  0  0  0  0999 V2000
   -4.9597    9.3787  -22.8131 C   0  0  0  0  0  0  0  0  0  0  0  0
   -4.9369    7.9261  -23.2817 C   0  0  0  0  0  0  0  0  0  0  0  0
   -5.9437    7.7254  -24.4148 C   0  0  0  0  0  0  0  0  0  0  0  0
   -5.2176    6.9465  -22.1295 C   0  0  0  0  0  0  0  0  0  0  0  0
   -4.0605    6.8214  -21.1297 C   0  0  0  0  0  0  0  0  0  0  0  0
   -4.0652    5.4789  -20.4054 C   0  0  0  0  0  0  0  0  0  0  0  0
   -4.3691    5.5563  -18.9222 C   0  0  0  0  0  0  0  0  0  0  0  0
   -3.5455    5.7812  -18.1221 O   0  0  0  0  0  0  0  0  0  0  0  0
   -5.8727    5.1876  -18.7469 N   0  0  0  0  0  0  0  0  0  0  0  0
   -6.6107    4.9385  -17.5991 C   0  0  0  0  0  0  0  0  0  0  0  0
   -6.0189    4.9067  -16.3332 C   0  0  0  0  0  0  0  0  0  0  0  0
   -6.7739    4.6099  -15.1760 C   0  0  0  0  0  0  0  0  0  0  0  0
   -8.1398    4.3533  -15.2529 C   0  0  0  0  0  0  0  0  0  0  0  0
   -8.6943    4.4038  -16.5037 C   0  0  0  0  0  0  0  0  0  0  0  0
  -10.0295    4.3334  -16.8528 N   0  0  0  0  0  0  0  0  0  0  0  0
  -10.1523    4.6654  -18.1935 C   0  0  0  0  0  0  0  0  0  0  0  0
  -11.2031    4.9033  -18.7537 O   0  0  0  0  0  0  0  0  0  0  0  0
   -8.8613    4.7571  -18.7201 N   0  0  0  0  0  0  0  0  0  0  0  0
   -7.9599    4.6759  -17.6581 C   0  0  0  0  0  0  0  0  0  0  0  0
  1  2  1  0
  2  3  1  0
  2  4  1  0
  4  5  1  0
  5  6  1  0
  6  7  1  0
  7  8  2  0
  7  9  1  0
  9 10  1  0
 10 11  2  0
 11 12  1  0
 12 13  2  0
 13 14  1  0
 14 15  1  0
 15 16  1  0
 16 17  2  0
 16 18  1  0
 18 19  1  0
 19 10  1  0
 19 14  2  0
M  END
>  <fragmenstein_outcome>  (66) 
nan

>  <exports>  (66) 
['/opt/xchem-fragalysis-2/maxwin/openbind-hippo/xx01zvns2b/cycle_01/syndirella/elabs/openbind_xx01zvns2b_c1_elab_chemspace_filtered.sdf']

>  <Energy>  (66) 
nan

>  <alias>  (66) 
None

>  <fragmenstein_runtime>  (66) 
nan

>  <scratch_subdir>  (66) 
nan

>  <HIPPO Compound ID>  (66) 
136835

>  <rmsd(smina/fragmenstein)>  (66) 
1.379

>  <distance_score>  (66) 
0.994267

>  <orig_smiles>  (66) 
nan

>  <fragmenstein_mode>  (66) 
nan

>  <inchikey>  (66) 
JEIYTGRNYKJTBJ-UHFFFAOYSA-N

>  <ref_pdb>  (66) 
Z0846a

>  <GNINA pK>  (66) 
nan

>  <gnina_score_min>  (66) 
5.298

>  <tags>  (66) 
openbind_xx01zvns2b_c1_elab_nonasap_filtered_scored_top80percent,openbind_xx01zvns2b_c1_elab_chemspace_filtered_scored_top80percent,openbind_xx01zvns2b_c1_elab_chemspace_filtered_scored,openbind_xx01zvns2b_c1_elab_chemspace_filtered_scored_top40percent,openbind_xx01zvns2b_c1_elab_chemspace_filtered_scored_top20percent,openbind_xx01zvns2b_c1_elab_chemspace_filtered_scored_top60percent,openbind_xx01zvns2b_c1_elabs_filtered

>  <smiles>  (66) 
CC(C)CCCC(=O)Nc1cccc2[nH]c(=O)[nH]c12

>  <subsites>  (66) 
1 - Z4590/B/203/1

>  <gnina_score>  (66) 
5.248

>  <HIPPO Pose ID>  (66) 
68713

>  <ref_mols>  (66) 
Z0846a,Z1597a

>  <energy_score>  (66) 
-22.169177

>  <inspiration_score>  (66) 
None

>  <smina_score_min>  (66) 
-6.439

>  <fragmenstein_error>  (66) 
nan

>  <name>  (66) 
P68713

$$$$
P68714
     RDKit          3D

 19 20  0  0  0  0  0  0  0  0999 V2000
   -6.1837    4.8405  -13.7548 C   0  0  0  0  0  0  0  0  0  0  0  0
   -6.8039    4.7792  -15.1119 C   0  0  0  0  0  0  0  0  0  0  0  0
   -6.0834    5.1328  -16.2641 C   0  0  0  0  0  0  0  0  0  0  0  0
   -6.6634    5.0912  -17.5367 C   0  0  0  0  0  0  0  0  0  0  0  0
   -5.9568    5.4001  -18.6901 N   0  0  0  0  0  0  0  0  0  0  0  0
   -4.4438    5.7211  -18.8953 C   0  0  0  0  0  0  0  0  0  0  0  0
   -3.5831    5.8486  -18.1129 O   0  0  0  0  0  0  0  0  0  0  0  0
   -4.2198    5.7652  -20.3957 C   0  0  0  0  0  0  0  0  0  0  0  0
   -4.7472    7.0468  -21.0284 C   0  0  0  0  0  0  0  0  0  0  0  0
   -4.9118    6.8808  -22.5406 C   0  0  0  0  0  0  0  0  0  0  0  0
   -5.5623    8.0823  -23.2403 C   0  0  0  0  0  0  0  0  0  0  0  0
   -5.8896    7.7223  -24.6896 C   0  0  0  0  0  0  0  0  0  0  0  0
   -4.6946    9.3355  -23.1895 C   0  0  0  0  0  0  0  0  0  0  0  0
   -8.0011    4.7064  -17.5963 C   0  0  0  0  0  0  0  0  0  0  0  0
   -8.9327    4.6660  -18.6036 N   0  0  0  0  0  0  0  0  0  0  0  0
  -10.1308    4.3630  -18.0285 C   0  0  0  0  0  0  0  0  0  0  0  0
   -9.9943    3.9858  -16.7867 N   0  0  0  0  0  0  0  0  0  0  0  0
   -8.7126    4.3022  -16.4717 C   0  0  0  0  0  0  0  0  0  0  0  0
   -8.1124    4.3104  -15.2162 C   0  0  0  0  0  0  0  0  0  0  0  0
  1  2  1  0
  2  3  2  0
  3  4  1  0
  4  5  1  0
  5  6  1  0
  6  7  2  0
  6  8  1  0
  8  9  1  0
  9 10  1  0
 10 11  1  0
 11 12  1  0
 11 13  1  0
  4 14  2  0
 14 15  1  0
 15 16  1  0
 16 17  2  0
 17 18  1  0
 18 19  2  0
 19  2  1  0
 18 14  1  0
M  END
>  <fragmenstein_outcome>  (67) 
nan

>  <exports>  (67) 
['/opt/xchem-fragalysis-2/maxwin/openbind-hippo/xx01zvns2b/cycle_01/syndirella/elabs/openbind_xx01zvns2b_c1_elab_chemspace_filtered.sdf']

>  <Energy>  (67) 
nan

>  <alias>  (67) 
None

>  <fragmenstein_runtime>  (67) 
nan

>  <scratch_subdir>  (67) 
nan

>  <HIPPO Compound ID>  (67) 
136836

>  <rmsd(smina/fragmenstein)>  (67) 
1.066

>  <distance_score>  (67) 
1.074223

>  <orig_smiles>  (67) 
nan

>  <fragmenstein_mode>  (67) 
nan

>  <inchikey>  (67) 
SAUHGLJHZCRORO-UHFFFAOYSA-N

>  <ref_pdb>  (67) 
Z0846a

>  <GNINA pK>  (67) 
nan

>  <gnina_score_min>  (67) 
5.337

>  <tags>  (67) 
openbind_xx01zvns2b_c1_elab_nonasap_filtered_scored_top80percent,openbind_xx01zvns2b_c1_elab_chemspace_filtered_scored_top80percent,openbind_xx01zvns2b_c1_elab_chemspace_filtered_scored,openbind_xx01zvns2b_c1_elab_chemspace_filtered_scored_top40percent,openbind_xx01zvns2b_c1_elab_chemspace_filtered_scored_top20percent,openbind_xx01zvns2b_c1_elab_chemspace_filtered_scored_top60percent,openbind_xx01zvns2b_c1_elabs_filtered

>  <smiles>  (67) 
Cc1cc(NC(=O)CCCC(C)C)c2[nH]cnc2c1

>  <subsites>  (67) 
1 - Z4590/B/203/1

>  <gnina_score>  (67) 
5.346

>  <HIPPO Pose ID>  (67) 
68714

>  <ref_mols>  (67) 
Z0846a,Z1597a

>  <energy_score>  (67) 
-23.590979

>  <inspiration_score>  (67) 
None

>  <smina_score_min>  (67) 
-5.791

>  <fragmenstein_error>  (67) 
nan

>  <name>  (67) 
P68714

$$$$
P68717
     RDKit          3D

 19 20  0  0  0  0  0  0  0  0999 V2000
   -5.7972    7.7643  -24.4654 C   0  0  0  0  0  0  0  0  0  0  0  0
   -5.3776    8.0245  -23.0267 C   0  0  0  0  0  0  0  0  0  0  0  0
   -4.8790    6.7458  -22.3590 C   0  0  0  0  0  0  0  0  0  0  0  0
   -4.6399    6.9107  -20.8537 C   0  0  0  0  0  0  0  0  0  0  0  0
   -4.1546    5.6153  -20.2014 C   0  0  1  0  0  0  0  0  0  0  0  0
   -2.2136    5.4287  -20.4259 Br  0  0  0  0  0  0  0  0  0  0  0  0
   -4.4763    5.5505  -18.6986 C   0  0  0  0  0  0  0  0  0  0  0  0
   -3.7011    5.7803  -17.8514 O   0  0  0  0  0  0  0  0  0  0  0  0
   -5.9826    5.1370  -18.6084 N   0  0  0  0  0  0  0  0  0  0  0  0
   -6.7719    4.8448  -17.5046 C   0  0  0  0  0  0  0  0  0  0  0  0
   -6.2805    4.8628  -16.1986 C   0  0  0  0  0  0  0  0  0  0  0  0
   -7.1458    4.6527  -15.1220 C   0  0  0  0  0  0  0  0  0  0  0  0
   -6.5520    4.7607  -13.5160 Cl  0  0  0  0  0  0  0  0  0  0  0  0
   -8.5106    4.4266  -15.2884 C   0  0  0  0  0  0  0  0  0  0  0  0
   -8.9701    4.4466  -16.5941 C   0  0  0  0  0  0  0  0  0  0  0  0
  -10.2345    4.4379  -17.1120 N   0  0  0  0  0  0  0  0  0  0  0  0
  -10.1279    4.6703  -18.4449 C   0  0  0  0  0  0  0  0  0  0  0  0
   -8.8827    4.6259  -18.8473 N   0  0  0  0  0  0  0  0  0  0  0  0
   -8.1438    4.6118  -17.6971 C   0  0  0  0  0  0  0  0  0  0  0  0
  1  2  1  0
  2  3  1  0
  3  4  1  0
  4  5  1  0
  5  6  1  1
  5  7  1  0
  7  8  2  0
  7  9  1  0
  9 10  1  0
 10 11  2  0
 11 12  1  0
 12 13  1  0
 12 14  2  0
 14 15  1  0
 15 16  1  0
 16 17  1  0
 17 18  2  0
 18 19  1  0
 19 10  1  0
 19 15  2  0
M  END
>  <fragmenstein_outcome>  (68) 
nan

>  <exports>  (68) 
['/opt/xchem-fragalysis-2/maxwin/openbind-hippo/xx01zvns2b/cycle_01/syndirella/elabs/openbind_xx01zvns2b_c1_elab_chemspace_filtered.sdf']

>  <Energy>  (68) 
nan

>  <alias>  (68) 
None

>  <fragmenstein_runtime>  (68) 
nan

>  <scratch_subdir>  (68) 
nan

>  <HIPPO Compound ID>  (68) 
136839

>  <rmsd(smina/fragmenstein)>  (68) 
1.265

>  <distance_score>  (68) 
0.937833

>  <orig_smiles>  (68) 
nan

>  <fragmenstein_mode>  (68) 
nan

>  <inchikey>  (68) 
UOQYSQAXVIDOKD-SECBINFHSA-N

>  <ref_pdb>  (68) 
Z0846a

>  <GNINA pK>  (68) 
nan

>  <gnina_score_min>  (68) 
5.384

>  <tags>  (68) 
openbind_xx01zvns2b_c1_elab_nonasap_filtered_scored_top80percent,openbind_xx01zvns2b_c1_elab_chemspace_filtered_scored_top80percent,openbind_xx01zvns2b_c1_elab_chemspace_filtered_scored,openbind_xx01zvns2b_c1_elab_chemspace_filtered_scored_top40percent,openbind_xx01zvns2b_c1_elab_chemspace_filtered_scored_top20percent,openbind_xx01zvns2b_c1_elab_chemspace_filtered_scored_top60percent,openbind_xx01zvns2b_c1_elabs_filtered

>  <smiles>  (68) 
CCCC[C@@H](Br)C(=O)Nc1cc(Cl)cc2[nH]cnc12

>  <subsites>  (68) 
1 - Z4590/B/203/1

>  <gnina_score>  (68) 
5.322

>  <HIPPO Pose ID>  (68) 
68717

>  <ref_mols>  (68) 
Z0846a,Z1597a

>  <energy_score>  (68) 
-19.621399

>  <inspiration_score>  (68) 
None

>  <smina_score_min>  (68) 
-5.629

>  <fragmenstein_error>  (68) 
nan

>  <name>  (68) 
P68717

$$$$
P68721
     RDKit          3D

 19 20  0  0  0  0  0  0  0  0999 V2000
   -5.8815    7.7192  -24.6489 C   0  0  0  0  0  0  0  0  0  0  0  0
   -5.4556    8.0687  -23.2327 C   0  0  0  0  0  0  0  0  0  0  0  0
   -4.8881    6.8496  -22.5113 C   0  0  0  0  0  0  0  0  0  0  0  0
   -4.6142    7.1299  -21.0322 C   0  0  0  0  0  0  0  0  0  0  0  0
   -4.0057    5.9276  -20.3209 C   0  0  1  0  0  0  0  0  0  0  0  0
   -2.0663    5.8860  -20.5700 Br  0  0  0  0  0  0  0  0  0  0  0  0
   -4.3129    5.9484  -18.8189 C   0  0  0  0  0  0  0  0  0  0  0  0
   -3.5832    6.3631  -18.0008 O   0  0  0  0  0  0  0  0  0  0  0  0
   -5.7352    5.2972  -18.6771 N   0  0  0  0  0  0  0  0  0  0  0  0
   -6.4680    4.9554  -17.5340 C   0  0  0  0  0  0  0  0  0  0  0  0
   -5.9739    4.8003  -16.2213 C   0  0  0  0  0  0  0  0  0  0  0  0
   -4.5232    4.9185  -15.8421 C   0  0  0  0  0  0  0  0  0  0  0  0
   -6.8494    4.4576  -15.1682 C   0  0  0  0  0  0  0  0  0  0  0  0
   -8.2023    4.2077  -15.3765 C   0  0  0  0  0  0  0  0  0  0  0  0
   -8.6931    4.3242  -16.6702 C   0  0  0  0  0  0  0  0  0  0  0  0
   -9.9773    4.1745  -17.1073 N   0  0  0  0  0  0  0  0  0  0  0  0
   -9.9569    4.5924  -18.3442 C   0  0  0  0  0  0  0  0  0  0  0  0
   -8.6839    4.7882  -18.7861 N   0  0  0  0  0  0  0  0  0  0  0  0
   -7.8398    4.6923  -17.7053 C   0  0  0  0  0  0  0  0  0  0  0  0
  1  2  1  0
  2  3  1  0
  3  4  1  0
  4  5  1  0
  5  6  1  1
  5  7  1  0
  7  8  2  0
  7  9  1  0
  9 10  1  0
 10 11  2  0
 11 12  1  0
 11 13  1  0
 13 14  2  0
 14 15  1  0
 15 16  1  0
 16 17  2  0
 17 18  1  0
 18 19  1  0
 19 10  1  0
 19 15  2  0
M  END
>  <fragmenstein_outcome>  (69) 
nan

>  <exports>  (69) 
['/opt/xchem-fragalysis-2/maxwin/openbind-hippo/xx01zvns2b/cycle_01/syndirella/elabs/openbind_xx01zvns2b_c1_elab_chemspace_filtered.sdf']

>  <Energy>  (69) 
nan

>  <alias>  (69) 
None

>  <fragmenstein_runtime>  (69) 
nan

>  <scratch_subdir>  (69) 
nan

>  <HIPPO Compound ID>  (69) 
136841

>  <rmsd(smina/fragmenstein)>  (69) 
1.106

>  <distance_score>  (69) 
1.180474

>  <orig_smiles>  (69) 
nan

>  <fragmenstein_mode>  (69) 
nan

>  <inchikey>  (69) 
TYBKKDKKPXBKLV-SNVBAGLBSA-N

>  <ref_pdb>  (69) 
Z0846a

>  <GNINA pK>  (69) 
nan

>  <gnina_score_min>  (69) 
5.523

>  <tags>  (69) 
openbind_xx01zvns2b_c1_elab_nonasap_filtered_scored_top80percent,openbind_xx01zvns2b_c1_elab_chemspace_filtered_scored_top80percent,openbind_xx01zvns2b_c1_elab_chemspace_filtered_scored,openbind_xx01zvns2b_c1_elab_chemspace_filtered_scored_top40percent,openbind_xx01zvns2b_c1_elab_chemspace_filtered_scored_top20percent,openbind_xx01zvns2b_c1_elab_chemspace_filtered_scored_top60percent,openbind_xx01zvns2b_c1_elabs_filtered

>  <smiles>  (69) 
CCCC[C@@H](Br)C(=O)Nc1c(C)ccc2nc[nH]c12

>  <subsites>  (69) 
1 - Z4590/B/203/1

>  <gnina_score>  (69) 
5.483

>  <HIPPO Pose ID>  (69) 
68721

>  <ref_mols>  (69) 
Z0846a,Z1597a

>  <energy_score>  (69) 
-15.256207

>  <inspiration_score>  (69) 
None

>  <smina_score_min>  (69) 
-6.098

>  <fragmenstein_error>  (69) 
nan

>  <name>  (69) 
P68721

$$$$
P68727
     RDKit          3D

 19 21  0  0  0  0  0  0  0  0999 V2000
   -4.0529    5.7752  -18.8223 O   0  0  0  0  0  0  0  0  0  0  0  0
   -5.0212    5.6972  -19.4713 C   0  0  0  0  0  0  0  0  0  0  0  0
   -5.1732    6.1757  -20.9078 C   0  0  0  0  0  0  0  0  0  0  0  0
   -3.9232    6.7958  -21.5252 C   0  0  0  0  0  0  0  0  0  0  0  0
   -3.5974    8.1712  -20.9381 C   0  0  0  0  0  0  0  0  0  0  0  0
   -4.5471    9.1319  -21.6415 C   0  0  0  0  0  0  0  0  0  0  0  0
   -4.9556    8.4545  -22.9485 C   0  0  0  0  0  0  0  0  0  0  0  0
   -4.1799    7.1477  -22.9963 C   0  0  0  0  0  0  0  0  0  0  0  0
   -6.4496    5.2070  -19.0957 N   0  0  0  0  0  0  0  0  0  0  0  0
   -6.9751    4.8209  -17.8750 C   0  0  0  0  0  0  0  0  0  0  0  0
   -6.2729    4.8089  -16.6707 C   0  0  0  0  0  0  0  0  0  0  0  0
   -6.9589    4.5639  -15.4740 C   0  0  0  0  0  0  0  0  0  0  0  0
   -6.1366    4.6731  -13.9705 Cl  0  0  0  0  0  0  0  0  0  0  0  0
   -8.3306    4.3085  -15.4265 C   0  0  0  0  0  0  0  0  0  0  0  0
   -8.9888    4.3504  -16.6428 C   0  0  0  0  0  0  0  0  0  0  0  0
  -10.3101    4.3094  -16.9686 N   0  0  0  0  0  0  0  0  0  0  0  0
  -10.4318    4.6026  -18.2852 C   0  0  0  0  0  0  0  0  0  0  0  0
   -9.2655    4.6348  -18.8744 N   0  0  0  0  0  0  0  0  0  0  0  0
   -8.3548    4.5738  -17.8520 C   0  0  0  0  0  0  0  0  0  0  0  0
  1  2  2  0
  2  3  1  0
  3  4  1  0
  4  5  1  0
  5  6  1  0
  6  7  1  0
  7  8  1  0
  2  9  1  0
  9 10  1  0
 10 11  2  0
 11 12  1  0
 12 13  1  0
 12 14  2  0
 14 15  1  0
 15 16  1  0
 16 17  1  0
 17 18  2  0
 18 19  1  0
  8  4  1  0
 19 10  1  0
 19 15  2  0
M  END
>  <fragmenstein_outcome>  (70) 
nan

>  <exports>  (70) 
['/opt/xchem-fragalysis-2/maxwin/openbind-hippo/xx01zvns2b/cycle_01/syndirella/elabs/openbind_xx01zvns2b_c1_elab_chemspace_filtered.sdf']

>  <Energy>  (70) 
nan

>  <alias>  (70) 
None

>  <fragmenstein_runtime>  (70) 
nan

>  <scratch_subdir>  (70) 
nan

>  <HIPPO Compound ID>  (70) 
136846

>  <rmsd(smina/fragmenstein)>  (70) 
0.566

>  <distance_score>  (70) 
1.434996

>  <orig_smiles>  (70) 
nan

>  <fragmenstein_mode>  (70) 
nan

>  <inchikey>  (70) 
DVBRORYMWUIGKK-UHFFFAOYSA-N

>  <ref_pdb>  (70) 
Z0846a

>  <GNINA pK>  (70) 
nan

>  <gnina_score_min>  (70) 
5.18

>  <tags>  (70) 
openbind_xx01zvns2b_c1_elab_nonasap_filtered_scored_top80percent,openbind_xx01zvns2b_c1_elab_chemspace_filtered_scored_top80percent,openbind_xx01zvns2b_c1_elab_chemspace_filtered_scored,openbind_xx01zvns2b_c1_elab_chemspace_filtered_scored_top40percent,openbind_xx01zvns2b_c1_elab_chemspace_filtered_scored_top20percent,openbind_xx01zvns2b_c1_elab_chemspace_filtered_scored_top60percent,openbind_xx01zvns2b_c1_elabs_filtered

>  <smiles>  (70) 
O=C(CC1CCCC1)Nc1cc(Cl)cc2[nH]cnc12

>  <subsites>  (70) 
1 - Z4590/B/203/1

>  <gnina_score>  (70) 
4.782

>  <HIPPO Pose ID>  (70) 
68727

>  <ref_mols>  (70) 
Z0846a,Z1597a

>  <energy_score>  (70) 
-8.861906

>  <inspiration_score>  (70) 
None

>  <smina_score_min>  (70) 
-5.453

>  <fragmenstein_error>  (70) 
nan

>  <name>  (70) 
P68727

$$$$
P68730
     RDKit          3D

 19 21  0  0  0  0  0  0  0  0999 V2000
   -5.9707    4.7786  -14.0834 C   0  0  0  0  0  0  0  0  0  0  0  0
   -6.6893    4.6760  -15.3889 C   0  0  0  0  0  0  0  0  0  0  0  0
   -6.0821    5.0560  -16.5993 C   0  0  0  0  0  0  0  0  0  0  0  0
   -6.7853    5.0593  -17.8119 C   0  0  0  0  0  0  0  0  0  0  0  0
   -6.2073    5.4460  -19.0144 N   0  0  0  0  0  0  0  0  0  0  0  0
   -4.7261    5.7826  -19.3626 C   0  0  0  0  0  0  0  0  0  0  0  0
   -3.7839    5.8598  -18.6728 O   0  0  0  0  0  0  0  0  0  0  0  0
   -4.6865    6.1247  -20.8475 C   0  0  0  0  0  0  0  0  0  0  0  0
   -4.9466    7.6108  -21.0533 C   0  0  0  0  0  0  0  0  0  0  0  0
   -5.0865    8.0180  -22.5198 C   0  0  0  0  0  0  0  0  0  0  0  0
   -4.8719    9.5269  -22.5056 C   0  0  0  0  0  0  0  0  0  0  0  0
   -4.0300    9.8207  -21.2659 C   0  0  0  0  0  0  0  0  0  0  0  0
   -3.7783    8.4779  -20.5969 C   0  0  0  0  0  0  0  0  0  0  0  0
   -8.1230    4.6825  -17.7450 C   0  0  0  0  0  0  0  0  0  0  0  0
   -9.1435    4.6591  -18.6602 N   0  0  0  0  0  0  0  0  0  0  0  0
  -10.2839    4.3411  -17.9862 C   0  0  0  0  0  0  0  0  0  0  0  0
  -10.0362    3.9642  -16.7615 N   0  0  0  0  0  0  0  0  0  0  0  0
   -8.7282    4.2651  -16.5651 C   0  0  0  0  0  0  0  0  0  0  0  0
   -8.0153    4.2482  -15.3709 C   0  0  0  0  0  0  0  0  0  0  0  0
  1  2  1  0
  2  3  2  0
  3  4  1  0
  4  5  1  0
  5  6  1  0
  6  7  2  0
  6  8  1  0
  8  9  1  0
  9 10  1  0
 10 11  1  0
 11 12  1  0
 12 13  1  0
  4 14  2  0
 14 15  1  0
 15 16  1  0
 16 17  2  0
 17 18  1  0
 18 19  2  0
 19  2  1  0
 13  9  1  0
 18 14  1  0
M  END
>  <fragmenstein_outcome>  (71) 
nan

>  <exports>  (71) 
['/opt/xchem-fragalysis-2/maxwin/openbind-hippo/xx01zvns2b/cycle_01/syndirella/elabs/openbind_xx01zvns2b_c1_elab_chemspace_filtered.sdf']

>  <Energy>  (71) 
nan

>  <alias>  (71) 
None

>  <fragmenstein_runtime>  (71) 
nan

>  <scratch_subdir>  (71) 
nan

>  <HIPPO Compound ID>  (71) 
136849

>  <rmsd(smina/fragmenstein)>  (71) 
0.881

>  <distance_score>  (71) 
1.557604

>  <orig_smiles>  (71) 
nan

>  <fragmenstein_mode>  (71) 
nan

>  <inchikey>  (71) 
PTSSCYGSZSTZQK-UHFFFAOYSA-N

>  <ref_pdb>  (71) 
Z0846a

>  <GNINA pK>  (71) 
nan

>  <gnina_score_min>  (71) 
5.275

>  <tags>  (71) 
openbind_xx01zvns2b_c1_elab_nonasap_filtered_scored_top80percent,openbind_xx01zvns2b_c1_elab_chemspace_filtered_scored_top80percent,openbind_xx01zvns2b_c1_elab_chemspace_filtered_scored,openbind_xx01zvns2b_c1_elab_chemspace_filtered_scored_top40percent,openbind_xx01zvns2b_c1_elab_chemspace_filtered_scored_top20percent,openbind_xx01zvns2b_c1_elab_chemspace_filtered_scored_top60percent,openbind_xx01zvns2b_c1_elabs_filtered

>  <smiles>  (71) 
Cc1cc(NC(=O)CC2CCCC2)c2[nH]cnc2c1

>  <subsites>  (71) 
1 - Z4590/B/203/1

>  <gnina_score>  (71) 
5.246

>  <HIPPO Pose ID>  (71) 
68730

>  <ref_mols>  (71) 
Z0846a,Z1597a

>  <energy_score>  (71) 
-23.416888

>  <inspiration_score>  (71) 
None

>  <smina_score_min>  (71) 
-6.191

>  <fragmenstein_error>  (71) 
nan

>  <name>  (71) 
P68730

$$$$
P68739
     RDKit          3D

 19 20  0  0  0  0  0  0  0  0999 V2000
   -5.7942    7.5642  -24.4865 C   0  0  0  0  0  0  0  0  0  0  0  0
   -5.3417    7.9912  -23.0997 C   0  0  0  0  0  0  0  0  0  0  0  0
   -4.7715    6.8152  -22.3092 C   0  0  0  0  0  0  0  0  0  0  0  0
   -4.3965    7.2112  -20.8864 C   0  0  0  0  0  0  0  0  0  0  0  0
   -3.8655    6.0483  -20.0836 C   0  0  0  0  0  0  0  0  0  0  0  0
   -3.0678    5.2108  -20.4811 O   0  0  0  0  0  0  0  0  0  0  0  0
   -4.3408    5.9817  -18.6392 C   0  0  0  0  0  0  0  0  0  0  0  0
   -3.6375    6.3503  -17.7854 O   0  0  0  0  0  0  0  0  0  0  0  0
   -5.7722    5.3996  -18.5777 N   0  0  0  0  0  0  0  0  0  0  0  0
   -6.5678    5.0746  -17.4861 C   0  0  0  0  0  0  0  0  0  0  0  0
   -6.0768    5.1161  -16.1746 C   0  0  0  0  0  0  0  0  0  0  0  0
   -6.8628    4.7425  -15.0732 C   0  0  0  0  0  0  0  0  0  0  0  0
   -6.3456    4.8501  -13.6756 C   0  0  0  0  0  0  0  0  0  0  0  0
   -8.1751    4.3147  -15.2600 C   0  0  0  0  0  0  0  0  0  0  0  0
   -8.6946    4.3166  -16.5512 C   0  0  0  0  0  0  0  0  0  0  0  0
   -9.9691    4.0507  -16.9390 N   0  0  0  0  0  0  0  0  0  0  0  0
  -10.0164    4.4403  -18.1826 C   0  0  0  0  0  0  0  0  0  0  0  0
   -8.7743    4.6817  -18.6909 N   0  0  0  0  0  0  0  0  0  0  0  0
   -7.9024    4.6984  -17.6315 C   0  0  0  0  0  0  0  0  0  0  0  0
  1  2  1  0
  2  3  1  0
  3  4  1  0
  4  5  1  0
  5  6  2  0
  5  7  1  0
  7  8  2  0
  7  9  1  0
  9 10  1  0
 10 11  2  0
 11 12  1  0
 12 13  1  0
 12 14  2  0
 14 15  1  0
 15 16  1  0
 16 17  2  0
 17 18  1  0
 18 19  1  0
 19 10  1  0
 19 15  2  0
M  END
>  <fragmenstein_outcome>  (72) 
nan

>  <exports>  (72) 
['/opt/xchem-fragalysis-2/maxwin/openbind-hippo/xx01zvns2b/cycle_01/syndirella/elabs/openbind_xx01zvns2b_c1_elab_chemspace_filtered.sdf']

>  <Energy>  (72) 
nan

>  <alias>  (72) 
None

>  <fragmenstein_runtime>  (72) 
nan

>  <scratch_subdir>  (72) 
nan

>  <HIPPO Compound ID>  (72) 
136862

>  <rmsd(smina/fragmenstein)>  (72) 
1.209

>  <distance_score>  (72) 
1.376038

>  <orig_smiles>  (72) 
nan

>  <fragmenstein_mode>  (72) 
nan

>  <inchikey>  (72) 
YXARDLOVXZKOMM-UHFFFAOYSA-N

>  <ref_pdb>  (72) 
Z0846a

>  <GNINA pK>  (72) 
nan

>  <gnina_score_min>  (72) 
5.277

>  <tags>  (72) 
openbind_xx01zvns2b_c1_elab_nonasap_filtered_scored_top80percent,openbind_xx01zvns2b_c1_elab_chemspace_filtered_scored_top80percent,openbind_xx01zvns2b_c1_elab_chemspace_filtered_scored,openbind_xx01zvns2b_c1_elab_chemspace_filtered_scored_top40percent,openbind_xx01zvns2b_c1_elab_chemspace_filtered_scored_top20percent,openbind_xx01zvns2b_c1_elab_chemspace_filtered_scored_top60percent,openbind_xx01zvns2b_c1_elabs_filtered

>  <smiles>  (72) 
CCCCC(=O)C(=O)Nc1cc(C)cc2nc[nH]c12

>  <subsites>  (72) 
1 - Z4590/B/203/1

>  <gnina_score>  (72) 
5.189

>  <HIPPO Pose ID>  (72) 
68739

>  <ref_mols>  (72) 
Z0846a,Z1597a

>  <energy_score>  (72) 
-22.632164

>  <inspiration_score>  (72) 
None

>  <smina_score_min>  (72) 
-6.009

>  <fragmenstein_error>  (72) 
nan

>  <name>  (72) 
P68739

$$$$
P68741
     RDKit          3D

 19 20  0  0  0  0  0  0  0  0999 V2000
   -6.1915    7.8632  -24.3605 C   0  0  0  0  0  0  0  0  0  0  0  0
   -5.3875    8.0402  -23.2982 C   0  0  0  0  0  0  0  0  0  0  0  0
   -4.9776    9.4103  -22.8494 C   0  0  0  0  0  0  0  0  0  0  0  0
   -4.8076    6.8516  -22.5676 C   0  0  0  0  0  0  0  0  0  0  0  0
   -4.8613    6.9087  -21.0374 C   0  0  0  0  0  0  0  0  0  0  0  0
   -4.4064    5.5819  -20.4394 C   0  0  0  0  0  0  0  0  0  0  0  0
   -4.6334    5.5015  -18.9431 C   0  0  0  0  0  0  0  0  0  0  0  0
   -3.7849    5.6619  -18.1549 O   0  0  0  0  0  0  0  0  0  0  0  0
   -6.1372    5.1557  -18.7486 N   0  0  0  0  0  0  0  0  0  0  0  0
   -6.8498    4.8565  -17.5992 C   0  0  0  0  0  0  0  0  0  0  0  0
   -6.2913    4.8601  -16.3213 C   0  0  0  0  0  0  0  0  0  0  0  0
   -7.1044    4.6373  -15.2063 C   0  0  0  0  0  0  0  0  0  0  0  0
   -6.4377    4.7372  -13.6282 Cl  0  0  0  0  0  0  0  0  0  0  0  0
   -8.4751    4.4028  -15.3088 C   0  0  0  0  0  0  0  0  0  0  0  0
   -8.9961    4.4308  -16.5912 C   0  0  0  0  0  0  0  0  0  0  0  0
  -10.2792    4.4049  -17.0548 N   0  0  0  0  0  0  0  0  0  0  0  0
  -10.2432    4.6598  -18.3858 C   0  0  0  0  0  0  0  0  0  0  0  0
   -9.0183    4.6434  -18.8447 N   0  0  0  0  0  0  0  0  0  0  0  0
   -8.2268    4.6195  -17.7286 C   0  0  0  0  0  0  0  0  0  0  0  0
  1  2  2  0
  2  3  1  0
  2  4  1  0
  4  5  1  0
  5  6  1  0
  6  7  1  0
  7  8  2  0
  7  9  1  0
  9 10  1  0
 10 11  2  0
 11 12  1  0
 12 13  1  0
 12 14  2  0
 14 15  1  0
 15 16  1  0
 16 17  1  0
 17 18  2  0
 18 19  1  0
 19 10  1  0
 19 15  2  0
M  END
>  <fragmenstein_outcome>  (73) 
nan

>  <exports>  (73) 
['/opt/xchem-fragalysis-2/maxwin/openbind-hippo/xx01zvns2b/cycle_01/syndirella/elabs/openbind_xx01zvns2b_c1_elab_chemspace_filtered.sdf']

>  <Energy>  (73) 
nan

>  <alias>  (73) 
None

>  <fragmenstein_runtime>  (73) 
nan

>  <scratch_subdir>  (73) 
nan

>  <HIPPO Compound ID>  (73) 
136865

>  <rmsd(smina/fragmenstein)>  (73) 
1.167

>  <distance_score>  (73) 
1.107798

>  <orig_smiles>  (73) 
nan

>  <fragmenstein_mode>  (73) 
nan

>  <inchikey>  (73) 
URFOUHCTWRCWFW-UHFFFAOYSA-N

>  <ref_pdb>  (73) 
Z0846a

>  <GNINA pK>  (73) 
nan

>  <gnina_score_min>  (73) 
5.356

>  <tags>  (73) 
openbind_xx01zvns2b_c1_elab_nonasap_filtered_scored_top80percent,openbind_xx01zvns2b_c1_elab_chemspace_filtered_scored_top80percent,openbind_xx01zvns2b_c1_elab_chemspace_filtered_scored,openbind_xx01zvns2b_c1_elab_chemspace_filtered_scored_top40percent,openbind_xx01zvns2b_c1_elab_chemspace_filtered_scored_top20percent,openbind_xx01zvns2b_c1_elab_chemspace_filtered_scored_top60percent,openbind_xx01zvns2b_c1_elabs_filtered

>  <smiles>  (73) 
C=C(C)CCCC(=O)Nc1cc(Cl)cc2[nH]cnc12

>  <subsites>  (73) 
1 - Z4590/B/203/1

>  <gnina_score>  (73) 
4.988

>  <HIPPO Pose ID>  (73) 
68741

>  <ref_mols>  (73) 
Z0846a,Z1597a

>  <energy_score>  (73) 
-20.374909

>  <inspiration_score>  (73) 
None

>  <smina_score_min>  (73) 
-5.663

>  <fragmenstein_error>  (73) 
nan

>  <name>  (73) 
P68741

$$$$
P68742
     RDKit          3D

 19 20  0  0  0  0  0  0  0  0999 V2000
   -6.1932    7.7978  -24.3599 C   0  0  0  0  0  0  0  0  0  0  0  0
   -5.3939    8.0693  -23.3143 C   0  0  0  0  0  0  0  0  0  0  0  0
   -5.0667    9.4815  -22.9302 C   0  0  0  0  0  0  0  0  0  0  0  0
   -4.7265    6.9553  -22.5425 C   0  0  0  0  0  0  0  0  0  0  0  0
   -4.8045    7.0648  -21.0167 C   0  0  0  0  0  0  0  0  0  0  0  0
   -4.1703    5.8456  -20.3588 C   0  0  0  0  0  0  0  0  0  0  0  0
   -4.4879    5.7292  -18.8793 C   0  0  0  0  0  0  0  0  0  0  0  0
   -3.7006    5.9235  -18.0366 O   0  0  0  0  0  0  0  0  0  0  0  0
   -5.9598    5.2236  -18.7891 N   0  0  0  0  0  0  0  0  0  0  0  0
   -6.7533    4.9547  -17.6833 C   0  0  0  0  0  0  0  0  0  0  0  0
   -6.2529    4.9423  -16.3803 C   0  0  0  0  0  0  0  0  0  0  0  0
   -7.0828    4.6260  -15.3015 C   0  0  0  0  0  0  0  0  0  0  0  0
   -6.4248    4.7242  -13.5397 Br  0  0  0  0  0  0  0  0  0  0  0  0
   -8.4175    4.2794  -15.4714 C   0  0  0  0  0  0  0  0  0  0  0  0
   -8.9322    4.3323  -16.7602 C   0  0  0  0  0  0  0  0  0  0  0  0
  -10.2206    4.1665  -17.1629 N   0  0  0  0  0  0  0  0  0  0  0  0
  -10.2352    4.6030  -18.3925 C   0  0  0  0  0  0  0  0  0  0  0  0
   -8.9750    4.7411  -18.8896 N   0  0  0  0  0  0  0  0  0  0  0  0
   -8.1110    4.6766  -17.8278 C   0  0  0  0  0  0  0  0  0  0  0  0
  1  2  2  0
  2  3  1  0
  2  4  1  0
  4  5  1  0
  5  6  1  0
  6  7  1  0
  7  8  2  0
  7  9  1  0
  9 10  1  0
 10 11  2  0
 11 12  1  0
 12 13  1  0
 12 14  2  0
 14 15  1  0
 15 16  1  0
 16 17  2  0
 17 18  1  0
 18 19  1  0
 19 10  1  0
 19 15  2  0
M  END
>  <fragmenstein_outcome>  (74) 
nan

>  <exports>  (74) 
['/opt/xchem-fragalysis-2/maxwin/openbind-hippo/xx01zvns2b/cycle_01/syndirella/elabs/openbind_xx01zvns2b_c1_elab_chemspace_filtered.sdf']

>  <Energy>  (74) 
nan

>  <alias>  (74) 
None

>  <fragmenstein_runtime>  (74) 
nan

>  <scratch_subdir>  (74) 
nan

>  <HIPPO Compound ID>  (74) 
136866

>  <rmsd(smina/fragmenstein)>  (74) 
0.966

>  <distance_score>  (74) 
1.014819

>  <orig_smiles>  (74) 
nan

>  <fragmenstein_mode>  (74) 
nan

>  <inchikey>  (74) 
WVWAKBDZOGSVLS-UHFFFAOYSA-N

>  <ref_pdb>  (74) 
Z0846a

>  <GNINA pK>  (74) 
nan

>  <gnina_score_min>  (74) 
5.504

>  <tags>  (74) 
openbind_xx01zvns2b_c1_elab_nonasap_filtered_scored_top80percent,openbind_xx01zvns2b_c1_elab_chemspace_filtered_scored_top80percent,openbind_xx01zvns2b_c1_elab_chemspace_filtered_scored,openbind_xx01zvns2b_c1_elab_chemspace_filtered_scored_top40percent,openbind_xx01zvns2b_c1_elab_chemspace_filtered_scored_top20percent,openbind_xx01zvns2b_c1_elab_chemspace_filtered_scored_top60percent,openbind_xx01zvns2b_c1_elabs_filtered

>  <smiles>  (74) 
C=C(C)CCCC(=O)Nc1cc(Br)cc2nc[nH]c12

>  <subsites>  (74) 
1 - Z4590/B/203/1

>  <gnina_score>  (74) 
5.449

>  <HIPPO Pose ID>  (74) 
68742

>  <ref_mols>  (74) 
Z0846a,Z1597a

>  <energy_score>  (74) 
-20.267617

>  <inspiration_score>  (74) 
None

>  <smina_score_min>  (74) 
-5.859

>  <fragmenstein_error>  (74) 
nan

>  <name>  (74) 
P68742

$$$$
P68743
     RDKit          3D

 19 20  0  0  0  0  0  0  0  0999 V2000
   -5.8252    7.4939  -24.2340 C   0  0  0  0  0  0  0  0  0  0  0  0
   -5.4216    7.9133  -23.0228 C   0  0  0  0  0  0  0  0  0  0  0  0
   -5.0816    9.3543  -22.7758 C   0  0  0  0  0  0  0  0  0  0  0  0
   -5.3199    6.9640  -21.8472 C   0  0  0  0  0  0  0  0  0  0  0  0
   -3.9117    6.8284  -21.2683 C   0  0  0  0  0  0  0  0  0  0  0  0
   -3.7810    5.6468  -20.3150 C   0  0  0  0  0  0  0  0  0  0  0  0
   -4.2530    5.9119  -18.8914 C   0  0  0  0  0  0  0  0  0  0  0  0
   -3.5944    6.4884  -18.1133 O   0  0  0  0  0  0  0  0  0  0  0  0
   -5.6335    5.2004  -18.7192 N   0  0  0  0  0  0  0  0  0  0  0  0
   -6.4074    4.9818  -17.5714 C   0  0  0  0  0  0  0  0  0  0  0  0
   -5.9294    4.9025  -16.2449 C   0  0  0  0  0  0  0  0  0  0  0  0
   -4.4847    5.0728  -15.8616 C   0  0  0  0  0  0  0  0  0  0  0  0
   -6.8093    4.5781  -15.1881 C   0  0  0  0  0  0  0  0  0  0  0  0
   -8.1536    4.2841  -15.4014 C   0  0  0  0  0  0  0  0  0  0  0  0
   -8.6346    4.3626  -16.7020 C   0  0  0  0  0  0  0  0  0  0  0  0
   -9.9154    4.1943  -17.1430 N   0  0  0  0  0  0  0  0  0  0  0  0
   -9.8873    4.5889  -18.3878 C   0  0  0  0  0  0  0  0  0  0  0  0
   -8.6115    4.7692  -18.8291 N   0  0  0  0  0  0  0  0  0  0  0  0
   -7.7751    4.7054  -17.7414 C   0  0  0  0  0  0  0  0  0  0  0  0
  1  2  2  0
  2  3  1  0
  2  4  1  0
  4  5  1  0
  5  6  1  0
  6  7  1  0
  7  8  2  0
  7  9  1  0
  9 10  1  0
 10 11  2  0
 11 12  1  0
 11 13  1  0
 13 14  2  0
 14 15  1  0
 15 16  1  0
 16 17  2  0
 17 18  1  0
 18 19  1  0
 19 10  1  0
 19 15  2  0
M  END
>  <fragmenstein_outcome>  (75) 
nan

>  <exports>  (75) 
['/opt/xchem-fragalysis-2/maxwin/openbind-hippo/xx01zvns2b/cycle_01/syndirella/elabs/openbind_xx01zvns2b_c1_elab_chemspace_filtered.sdf']

>  <Energy>  (75) 
nan

>  <alias>  (75) 
None

>  <fragmenstein_runtime>  (75) 
nan

>  <scratch_subdir>  (75) 
nan

>  <HIPPO Compound ID>  (75) 
136867

>  <rmsd(smina/fragmenstein)>  (75) 
0.465

>  <distance_score>  (75) 
1.254615

>  <orig_smiles>  (75) 
nan

>  <fragmenstein_mode>  (75) 
nan

>  <inchikey>  (75) 
HPJMESAZUQETMD-UHFFFAOYSA-N

>  <ref_pdb>  (75) 
Z0846a

>  <GNINA pK>  (75) 
nan

>  <gnina_score_min>  (75) 
5.294

>  <tags>  (75) 
openbind_xx01zvns2b_c1_elab_nonasap_filtered_scored_top80percent,openbind_xx01zvns2b_c1_elab_chemspace_filtered_scored_top80percent,openbind_xx01zvns2b_c1_elab_chemspace_filtered_scored,openbind_xx01zvns2b_c1_elab_chemspace_filtered_scored_top40percent,openbind_xx01zvns2b_c1_elab_chemspace_filtered_scored_top20percent,openbind_xx01zvns2b_c1_elab_chemspace_filtered_scored_top60percent,openbind_xx01zvns2b_c1_elabs_filtered

>  <smiles>  (75) 
C=C(C)CCCC(=O)Nc1c(C)ccc2nc[nH]c12

>  <subsites>  (75) 
1 - Z4590/B/203/1

>  <gnina_score>  (75) 
5.325

>  <HIPPO Pose ID>  (75) 
68743

>  <ref_mols>  (75) 
Z0846a,Z1597a

>  <energy_score>  (75) 
-17.333111

>  <inspiration_score>  (75) 
None

>  <smina_score_min>  (75) 
-5.634

>  <fragmenstein_error>  (75) 
nan

>  <name>  (75) 
P68743

$$$$
P68744
     RDKit          3D

 19 20  0  0  0  0  0  0  0  0999 V2000
   -5.7722    7.5325  -24.2050 C   0  0  0  0  0  0  0  0  0  0  0  0
   -5.3811    7.9073  -22.9747 C   0  0  0  0  0  0  0  0  0  0  0  0
   -4.9834    9.3246  -22.6857 C   0  0  0  0  0  0  0  0  0  0  0  0
   -5.3610    6.9285  -21.8194 C   0  0  0  0  0  0  0  0  0  0  0  0
   -3.9913    6.7119  -21.1734 C   0  0  0  0  0  0  0  0  0  0  0  0
   -3.9285    5.4178  -20.3674 C   0  0  0  0  0  0  0  0  0  0  0  0
   -4.2737    5.5183  -18.8915 C   0  0  0  0  0  0  0  0  0  0  0  0
   -3.4569    5.7300  -18.0798 O   0  0  0  0  0  0  0  0  0  0  0  0
   -5.7920    5.1928  -18.7368 N   0  0  0  0  0  0  0  0  0  0  0  0
   -6.5574    4.9773  -17.5953 C   0  0  0  0  0  0  0  0  0  0  0  0
   -5.9848    4.9847  -16.3192 C   0  0  0  0  0  0  0  0  0  0  0  0
   -6.7476    4.6925  -15.1651 C   0  0  0  0  0  0  0  0  0  0  0  0
   -8.1068    4.4075  -15.2519 C   0  0  0  0  0  0  0  0  0  0  0  0
   -8.6480    4.4326  -16.5090 C   0  0  0  0  0  0  0  0  0  0  0  0
   -9.9815    4.3479  -16.8640 N   0  0  0  0  0  0  0  0  0  0  0  0
  -10.0967    4.6661  -18.2091 C   0  0  0  0  0  0  0  0  0  0  0  0
  -11.1465    4.8992  -18.7737 O   0  0  0  0  0  0  0  0  0  0  0  0
   -8.8015    4.7559  -18.7304 N   0  0  0  0  0  0  0  0  0  0  0  0
   -7.9045    4.6957  -17.6623 C   0  0  0  0  0  0  0  0  0  0  0  0
  1  2  2  0
  2  3  1  0
  2  4  1  0
  4  5  1  0
  5  6  1  0
  6  7  1  0
  7  8  2  0
  7  9  1  0
  9 10  1  0
 10 11  2  0
 11 12  1  0
 12 13  2  0
 13 14  1  0
 14 15  1  0
 15 16  1  0
 16 17  2  0
 16 18  1  0
 18 19  1  0
 19 10  1  0
 19 14  2  0
M  END
>  <fragmenstein_outcome>  (76) 
nan

>  <exports>  (76) 
['/opt/xchem-fragalysis-2/maxwin/openbind-hippo/xx01zvns2b/cycle_01/syndirella/elabs/openbind_xx01zvns2b_c1_elab_chemspace_filtered.sdf']

>  <Energy>  (76) 
nan

>  <alias>  (76) 
None

>  <fragmenstein_runtime>  (76) 
nan

>  <scratch_subdir>  (76) 
nan

>  <HIPPO Compound ID>  (76) 
136868

>  <rmsd(smina/fragmenstein)>  (76) 
0.775

>  <distance_score>  (76) 
0.912468

>  <orig_smiles>  (76) 
nan

>  <fragmenstein_mode>  (76) 
nan

>  <inchikey>  (76) 
MSDFCAJAYHCTOQ-UHFFFAOYSA-N

>  <ref_pdb>  (76) 
Z0846a

>  <GNINA pK>  (76) 
nan

>  <gnina_score_min>  (76) 
5.177

>  <tags>  (76) 
openbind_xx01zvns2b_c1_elab_nonasap_filtered_scored_top80percent,openbind_xx01zvns2b_c1_elab_chemspace_filtered_scored_top80percent,openbind_xx01zvns2b_c1_elab_chemspace_filtered_scored,openbind_xx01zvns2b_c1_elab_chemspace_filtered_scored_top40percent,openbind_xx01zvns2b_c1_elab_chemspace_filtered_scored_top20percent,openbind_xx01zvns2b_c1_elab_chemspace_filtered_scored_top60percent,openbind_xx01zvns2b_c1_elabs_filtered

>  <smiles>  (76) 
C=C(C)CCCC(=O)Nc1cccc2[nH]c(=O)[nH]c12

>  <subsites>  (76) 
1 - Z4590/B/203/1

>  <gnina_score>  (76) 
5.229

>  <HIPPO Pose ID>  (76) 
68744

>  <ref_mols>  (76) 
Z0846a,Z1597a

>  <energy_score>  (76) 
-20.395535

>  <inspiration_score>  (76) 
None

>  <smina_score_min>  (76) 
-6.12

>  <fragmenstein_error>  (76) 
nan

>  <name>  (76) 
P68744

$$$$
P68745
     RDKit          3D

 19 20  0  0  0  0  0  0  0  0999 V2000
   -6.2126    7.8083  -24.4381 C   0  0  0  0  0  0  0  0  0  0  0  0
   -5.4100    8.0649  -23.3915 C   0  0  0  0  0  0  0  0  0  0  0  0
   -5.0550    9.4707  -23.0071 C   0  0  0  0  0  0  0  0  0  0  0  0
   -4.7716    6.9374  -22.6150 C   0  0  0  0  0  0  0  0  0  0  0  0
   -4.8349    7.0718  -21.0923 C   0  0  0  0  0  0  0  0  0  0  0  0
   -4.2720    5.8287  -20.4191 C   0  0  0  0  0  0  0  0  0  0  0  0
   -4.5122    5.8300  -18.9220 C   0  0  0  0  0  0  0  0  0  0  0  0
   -3.6788    6.0736  -18.1381 O   0  0  0  0  0  0  0  0  0  0  0  0
   -5.9936    5.3898  -18.7174 N   0  0  0  0  0  0  0  0  0  0  0  0
   -6.6890    5.0821  -17.5580 C   0  0  0  0  0  0  0  0  0  0  0  0
   -6.0974    5.1236  -16.2904 C   0  0  0  0  0  0  0  0  0  0  0  0
   -6.8002    4.7493  -15.1337 C   0  0  0  0  0  0  0  0  0  0  0  0
   -6.1893    4.8694  -13.7761 C   0  0  0  0  0  0  0  0  0  0  0  0
   -8.1178    4.3038  -15.2239 C   0  0  0  0  0  0  0  0  0  0  0  0
   -8.7281    4.2942  -16.4746 C   0  0  0  0  0  0  0  0  0  0  0  0
  -10.0135    3.9829  -16.7779 N   0  0  0  0  0  0  0  0  0  0  0  0
  -10.1593    4.3560  -18.0199 C   0  0  0  0  0  0  0  0  0  0  0  0
   -8.9651    4.6531  -18.6057 N   0  0  0  0  0  0  0  0  0  0  0  0
   -8.0256    4.6941  -17.6060 C   0  0  0  0  0  0  0  0  0  0  0  0
  1  2  2  0
  2  3  1  0
  2  4  1  0
  4  5  1  0
  5  6  1  0
  6  7  1  0
  7  8  2  0
  7  9  1  0
  9 10  1  0
 10 11  2  0
 11 12  1  0
 12 13  1  0
 12 14  2  0
 14 15  1  0
 15 16  1  0
 16 17  2  0
 17 18  1  0
 18 19  1  0
 19 10  1  0
 19 15  2  0
M  END
>  <fragmenstein_outcome>  (77) 
nan

>  <exports>  (77) 
['/opt/xchem-fragalysis-2/maxwin/openbind-hippo/xx01zvns2b/cycle_01/syndirella/elabs/openbind_xx01zvns2b_c1_elab_chemspace_filtered.sdf']

>  <Energy>  (77) 
nan

>  <alias>  (77) 
None

>  <fragmenstein_runtime>  (77) 
nan

>  <scratch_subdir>  (77) 
nan

>  <HIPPO Compound ID>  (77) 
136869

>  <rmsd(smina/fragmenstein)>  (77) 
1.031

>  <distance_score>  (77) 
1.017093

>  <orig_smiles>  (77) 
nan

>  <fragmenstein_mode>  (77) 
nan

>  <inchikey>  (77) 
XQEUHIHLOIDCTK-UHFFFAOYSA-N

>  <ref_pdb>  (77) 
Z0846a

>  <GNINA pK>  (77) 
nan

>  <gnina_score_min>  (77) 
5.376

>  <tags>  (77) 
openbind_xx01zvns2b_c1_elab_nonasap_filtered_scored_top80percent,openbind_xx01zvns2b_c1_elab_chemspace_filtered_scored_top80percent,openbind_xx01zvns2b_c1_elab_chemspace_filtered_scored,openbind_xx01zvns2b_c1_elab_chemspace_filtered_scored_top40percent,openbind_xx01zvns2b_c1_elab_chemspace_filtered_scored_top20percent,openbind_xx01zvns2b_c1_elab_chemspace_filtered_scored_top60percent,openbind_xx01zvns2b_c1_elabs_filtered

>  <smiles>  (77) 
C=C(C)CCCC(=O)Nc1cc(C)cc2nc[nH]c12

>  <subsites>  (77) 
1 - Z4590/B/203/1

>  <gnina_score>  (77) 
5.351

>  <HIPPO Pose ID>  (77) 
68745

>  <ref_mols>  (77) 
Z0846a,Z1597a

>  <energy_score>  (77) 
-14.773045

>  <inspiration_score>  (77) 
None

>  <smina_score_min>  (77) 
-5.971

>  <fragmenstein_error>  (77) 
nan

>  <name>  (77) 
P68745

$$$$
P68747
     RDKit          3D

 19 20  0  0  0  0  0  0  0  0999 V2000
   -5.8381    7.4944  -24.1878 C   0  0  0  0  0  0  0  0  0  0  0  0
   -5.4157    7.9081  -22.9809 C   0  0  0  0  0  0  0  0  0  0  0  0
   -5.0811    9.3496  -22.7300 C   0  0  0  0  0  0  0  0  0  0  0  0
   -5.2838    6.9497  -21.8135 C   0  0  0  0  0  0  0  0  0  0  0  0
   -3.8602    6.8278  -21.2655 C   0  0  0  0  0  0  0  0  0  0  0  0
   -3.6586    5.5956  -20.3916 C   0  0  0  0  0  0  0  0  0  0  0  0
   -3.9640    5.7773  -18.9139 C   0  0  0  0  0  0  0  0  0  0  0  0
   -3.1660    6.1748  -18.1554 O   0  0  0  0  0  0  0  0  0  0  0  0
   -5.4121    5.2506  -18.6733 N   0  0  0  0  0  0  0  0  0  0  0  0
   -6.1055    5.0273  -17.4902 C   0  0  0  0  0  0  0  0  0  0  0  0
   -5.4677    5.0693  -16.2462 C   0  0  0  0  0  0  0  0  0  0  0  0
   -6.1246    4.7002  -15.0670 C   0  0  0  0  0  0  0  0  0  0  0  0
   -7.4543    4.2896  -15.0849 C   0  0  0  0  0  0  0  0  0  0  0  0
   -8.1220    4.3129  -16.3061 C   0  0  0  0  0  0  0  0  0  0  0  0
   -9.4376    4.0730  -16.5397 N   0  0  0  0  0  0  0  0  0  0  0  0
   -9.6156    4.4237  -17.7874 C   0  0  0  0  0  0  0  0  0  0  0  0
  -10.9023    4.7724  -18.3827 C   0  0  0  0  0  0  0  0  0  0  0  0
   -8.4259    4.6103  -18.4398 N   0  0  0  0  0  0  0  0  0  0  0  0
   -7.4527    4.6697  -17.4759 C   0  0  0  0  0  0  0  0  0  0  0  0
  1  2  2  0
  2  3  1  0
  2  4  1  0
  4  5  1  0
  5  6  1  0
  6  7  1  0
  7  8  2  0
  7  9  1  0
  9 10  1  0
 10 11  2  0
 11 12  1  0
 12 13  2  0
 13 14  1  0
 14 15  1  0
 15 16  2  0
 16 17  1  0
 16 18  1  0
 18 19  1  0
 19 10  1  0
 19 14  2  0
M  END
>  <fragmenstein_outcome>  (78) 
nan

>  <exports>  (78) 
['/opt/xchem-fragalysis-2/maxwin/openbind-hippo/xx01zvns2b/cycle_01/syndirella/elabs/openbind_xx01zvns2b_c1_elab_chemspace_filtered.sdf']

>  <Energy>  (78) 
nan

>  <alias>  (78) 
None

>  <fragmenstein_runtime>  (78) 
nan

>  <scratch_subdir>  (78) 
nan

>  <HIPPO Compound ID>  (78) 
136872

>  <rmsd(smina/fragmenstein)>  (78) 
0.578

>  <distance_score>  (78) 
1.192765

>  <orig_smiles>  (78) 
nan

>  <fragmenstein_mode>  (78) 
nan

>  <inchikey>  (78) 
ONZZOVWZBMATSH-UHFFFAOYSA-N

>  <ref_pdb>  (78) 
Z0846a

>  <GNINA pK>  (78) 
nan

>  <gnina_score_min>  (78) 
5.154

>  <tags>  (78) 
openbind_xx01zvns2b_c1_elab_nonasap_filtered_scored_top80percent,openbind_xx01zvns2b_c1_elab_chemspace_filtered_scored_top80percent,openbind_xx01zvns2b_c1_elab_chemspace_filtered_scored,openbind_xx01zvns2b_c1_elab_chemspace_filtered_scored_top40percent,openbind_xx01zvns2b_c1_elab_chemspace_filtered_scored_top20percent,openbind_xx01zvns2b_c1_elab_chemspace_filtered_scored_top60percent,openbind_xx01zvns2b_c1_elabs_filtered

>  <smiles>  (78) 
C=C(C)CCCC(=O)Nc1cccc2nc(C)[nH]c12

>  <subsites>  (78) 
1 - Z4590/B/203/1

>  <gnina_score>  (78) 
5.103

>  <HIPPO Pose ID>  (78) 
68747

>  <ref_mols>  (78) 
Z0846a,Z1597a

>  <energy_score>  (78) 
-4.06151

>  <inspiration_score>  (78) 
None

>  <smina_score_min>  (78) 
-5.44

>  <fragmenstein_error>  (78) 
nan

>  <name>  (78) 
P68747

$$$$
P68749
     RDKit          3D

 19 20  0  0  0  0  0  0  0  0999 V2000
   -5.7992    7.7979  -24.6044 C   0  0  0  0  0  0  0  0  0  0  0  0
   -5.5502    8.0090  -23.1228 C   0  0  2  0  0  0  0  0  0  0  0  0
   -4.7119    9.0681  -22.9695 F   0  0  0  0  0  0  0  0  0  0  0  0
   -4.9387    6.7760  -22.4736 C   0  0  0  0  0  0  0  0  0  0  0  0
   -4.8148    6.8864  -20.9512 C   0  0  0  0  0  0  0  0  0  0  0  0
   -4.3008    5.5786  -20.3562 C   0  0  0  0  0  0  0  0  0  0  0  0
   -4.5524    5.4575  -18.8633 C   0  0  0  0  0  0  0  0  0  0  0  0
   -3.7185    5.6113  -18.0578 O   0  0  0  0  0  0  0  0  0  0  0  0
   -6.0402    5.0255  -18.7054 N   0  0  0  0  0  0  0  0  0  0  0  0
   -6.7955    4.7976  -17.5645 C   0  0  0  0  0  0  0  0  0  0  0  0
   -6.2663    4.8221  -16.2744 C   0  0  0  0  0  0  0  0  0  0  0  0
   -7.1076    4.6427  -15.1724 C   0  0  0  0  0  0  0  0  0  0  0  0
   -6.4703    4.7548  -13.5832 Cl  0  0  0  0  0  0  0  0  0  0  0  0
   -8.4808    4.4364  -15.2987 C   0  0  0  0  0  0  0  0  0  0  0  0
   -8.9750    4.4514  -16.5916 C   0  0  0  0  0  0  0  0  0  0  0  0
  -10.2503    4.4436  -17.0790 N   0  0  0  0  0  0  0  0  0  0  0  0
  -10.1796    4.6662  -18.4152 C   0  0  0  0  0  0  0  0  0  0  0  0
   -8.9459    4.6133  -18.8489 N   0  0  0  0  0  0  0  0  0  0  0  0
   -8.1772    4.5962  -17.7168 C   0  0  0  0  0  0  0  0  0  0  0  0
  2  1  1  6
  2  3  1  0
  2  4  1  0
  4  5  1  0
  5  6  1  0
  6  7  1  0
  7  8  2  0
  7  9  1  0
  9 10  1  0
 10 11  2  0
 11 12  1  0
 12 13  1  0
 12 14  2  0
 14 15  1  0
 15 16  1  0
 16 17  1  0
 17 18  2  0
 18 19  1  0
 19 10  1  0
 19 15  2  0
M  END
>  <fragmenstein_outcome>  (79) 
nan

>  <exports>  (79) 
['/opt/xchem-fragalysis-2/maxwin/openbind-hippo/xx01zvns2b/cycle_01/syndirella/elabs/openbind_xx01zvns2b_c1_elab_chemspace_filtered.sdf']

>  <Energy>  (79) 
nan

>  <alias>  (79) 
None

>  <fragmenstein_runtime>  (79) 
nan

>  <scratch_subdir>  (79) 
nan

>  <HIPPO Compound ID>  (79) 
136874

>  <rmsd(smina/fragmenstein)>  (79) 
1.033

>  <distance_score>  (79) 
0.92586

>  <orig_smiles>  (79) 
nan

>  <fragmenstein_mode>  (79) 
nan

>  <inchikey>  (79) 
CPVBOBFKSSPXSW-QMMMGPOBSA-N

>  <ref_pdb>  (79) 
Z0846a

>  <GNINA pK>  (79) 
nan

>  <gnina_score_min>  (79) 
5.209

>  <tags>  (79) 
openbind_xx01zvns2b_c1_elab_nonasap_filtered_scored_top80percent,openbind_xx01zvns2b_c1_elab_chemspace_filtered_scored_top80percent,openbind_xx01zvns2b_c1_elab_chemspace_filtered_scored,openbind_xx01zvns2b_c1_elab_chemspace_filtered_scored_top40percent,openbind_xx01zvns2b_c1_elab_chemspace_filtered_scored_top20percent,openbind_xx01zvns2b_c1_elab_chemspace_filtered_scored_top60percent,openbind_xx01zvns2b_c1_elabs_filtered

>  <smiles>  (79) 
C[C@H](F)CCCC(=O)Nc1cc(Cl)cc2[nH]cnc12

>  <subsites>  (79) 
1 - Z4590/B/203/1

>  <gnina_score>  (79) 
5.062

>  <HIPPO Pose ID>  (79) 
68749

>  <ref_mols>  (79) 
Z0846a,Z1597a

>  <energy_score>  (79) 
-4.127062

>  <inspiration_score>  (79) 
None

>  <smina_score_min>  (79) 
-5.247

>  <fragmenstein_error>  (79) 
nan

>  <name>  (79) 
P68749

$$$$
P68752
     RDKit          3D

 19 20  0  0  0  0  0  0  0  0999 V2000
   -4.5520    5.0418  -15.8462 C   0  0  0  0  0  0  0  0  0  0  0  0
   -5.9987    4.8806  -16.2241 C   0  0  0  0  0  0  0  0  0  0  0  0
   -6.8727    4.5504  -15.1652 C   0  0  0  0  0  0  0  0  0  0  0  0
   -8.2194    4.2652  -15.3727 C   0  0  0  0  0  0  0  0  0  0  0  0
   -8.7084    4.3507  -16.6698 C   0  0  0  0  0  0  0  0  0  0  0  0
   -9.9899    4.1830  -17.1071 N   0  0  0  0  0  0  0  0  0  0  0  0
   -9.9699    4.5871  -18.3488 C   0  0  0  0  0  0  0  0  0  0  0  0
   -8.6969    4.7729  -18.7954 N   0  0  0  0  0  0  0  0  0  0  0  0
   -7.8559    4.7022  -17.7107 C   0  0  0  0  0  0  0  0  0  0  0  0
   -6.4877    4.9771  -17.5448 C   0  0  0  0  0  0  0  0  0  0  0  0
   -5.7368    5.2215  -18.7003 N   0  0  0  0  0  0  0  0  0  0  0  0
   -4.3386    5.8919  -18.8770 C   0  0  0  0  0  0  0  0  0  0  0  0
   -3.6409    6.4090  -18.0922 O   0  0  0  0  0  0  0  0  0  0  0  0
   -3.9196    5.6740  -20.3218 C   0  0  0  0  0  0  0  0  0  0  0  0
   -3.9606    6.9267  -21.1881 C   0  0  0  0  0  0  0  0  0  0  0  0
   -5.1680    6.9526  -22.1309 C   0  0  0  0  0  0  0  0  0  0  0  0
   -4.9802    7.9509  -23.2711 C   0  0  1  0  0  0  0  0  0  0  0  0
   -5.9671    7.7330  -24.4016 C   0  0  0  0  0  0  0  0  0  0  0  0
   -5.1693    9.2077  -22.7796 F   0  0  0  0  0  0  0  0  0  0  0  0
  1  2  1  0
  2  3  2  0
  3  4  1  0
  4  5  2  0
  5  6  1  0
  6  7  2  0
  7  8  1  0
  8  9  1  0
  9 10  2  0
 10 11  1  0
 11 12  1  0
 12 13  2  0
 12 14  1  0
 14 15  1  0
 15 16  1  0
 16 17  1  0
 17 18  1  6
 17 19  1  0
 10  2  1  0
  9  5  1  0
M  END
>  <fragmenstein_outcome>  (80) 
nan

>  <exports>  (80) 
['/opt/xchem-fragalysis-2/maxwin/openbind-hippo/xx01zvns2b/cycle_01/syndirella/elabs/openbind_xx01zvns2b_c1_elab_chemspace_filtered.sdf']

>  <Energy>  (80) 
nan

>  <alias>  (80) 
None

>  <fragmenstein_runtime>  (80) 
nan

>  <scratch_subdir>  (80) 
nan

>  <HIPPO Compound ID>  (80) 
136876

>  <rmsd(smina/fragmenstein)>  (80) 
1.186

>  <distance_score>  (80) 
1.167148

>  <orig_smiles>  (80) 
nan

>  <fragmenstein_mode>  (80) 
nan

>  <inchikey>  (80) 
JVQSJWRHOJZIRO-SNVBAGLBSA-N

>  <ref_pdb>  (80) 
Z0846a

>  <GNINA pK>  (80) 
nan

>  <gnina_score_min>  (80) 
5.36

>  <tags>  (80) 
openbind_xx01zvns2b_c1_elab_nonasap_filtered_scored_top80percent,openbind_xx01zvns2b_c1_elab_chemspace_filtered_scored_top80percent,openbind_xx01zvns2b_c1_elab_chemspace_filtered_scored,openbind_xx01zvns2b_c1_elab_chemspace_filtered_scored_top40percent,openbind_xx01zvns2b_c1_elab_chemspace_filtered_scored_top20percent,openbind_xx01zvns2b_c1_elab_chemspace_filtered_scored_top60percent,openbind_xx01zvns2b_c1_elabs_filtered

>  <smiles>  (80) 
Cc1ccc2nc[nH]c2c1NC(=O)CCC[C@@H](C)F

>  <subsites>  (80) 
1 - Z4590/B/203/1

>  <gnina_score>  (80) 
5.278

>  <HIPPO Pose ID>  (80) 
68752

>  <ref_mols>  (80) 
Z0846a,Z1597a

>  <energy_score>  (80) 
-14.560861

>  <inspiration_score>  (80) 
None

>  <smina_score_min>  (80) 
-6.01

>  <fragmenstein_error>  (80) 
nan

>  <name>  (80) 
P68752

$$$$
P68753
     RDKit          3D

 19 20  0  0  0  0  0  0  0  0999 V2000
   -5.7932    7.9600  -24.6788 C   0  0  0  0  0  0  0  0  0  0  0  0
   -5.1586    8.1943  -23.3191 C   0  0  1  0  0  0  0  0  0  0  0  0
   -5.9887    8.9915  -22.5972 F   0  0  0  0  0  0  0  0  0  0  0  0
   -4.9385    6.8773  -22.5891 C   0  0  0  0  0  0  0  0  0  0  0  0
   -4.5995    7.0331  -21.1067 C   0  0  0  0  0  0  0  0  0  0  0  0
   -4.2368    5.6805  -20.5086 C   0  0  0  0  0  0  0  0  0  0  0  0
   -4.4401    5.6129  -19.0098 C   0  0  0  0  0  0  0  0  0  0  0  0
   -3.5727    5.7468  -18.2364 O   0  0  0  0  0  0  0  0  0  0  0  0
   -5.9445    5.2686  -18.7904 N   0  0  0  0  0  0  0  0  0  0  0  0
   -6.6326    4.9406  -17.6331 C   0  0  0  0  0  0  0  0  0  0  0  0
   -6.0091    4.8669  -16.3858 C   0  0  0  0  0  0  0  0  0  0  0  0
   -6.7408    4.5428  -15.2207 C   0  0  0  0  0  0  0  0  0  0  0  0
   -8.1109    4.2965  -15.2730 C   0  0  0  0  0  0  0  0  0  0  0  0
   -8.6933    4.3761  -16.5095 C   0  0  0  0  0  0  0  0  0  0  0  0
  -10.0344    4.3100  -16.8376 N   0  0  0  0  0  0  0  0  0  0  0  0
  -10.1816    4.6618  -18.1713 C   0  0  0  0  0  0  0  0  0  0  0  0
  -11.2412    4.8941  -18.7171 O   0  0  0  0  0  0  0  0  0  0  0  0
   -8.9006    4.7739  -18.7148 N   0  0  0  0  0  0  0  0  0  0  0  0
   -7.9819    4.6751  -17.6699 C   0  0  0  0  0  0  0  0  0  0  0  0
  2  1  1  6
  2  3  1  0
  2  4  1  0
  4  5  1  0
  5  6  1  0
  6  7  1  0
  7  8  2  0
  7  9  1  0
  9 10  1  0
 10 11  2  0
 11 12  1  0
 12 13  2  0
 13 14  1  0
 14 15  1  0
 15 16  1  0
 16 17  2  0
 16 18  1  0
 18 19  1  0
 19 10  1  0
 19 14  2  0
M  END
>  <fragmenstein_outcome>  (81) 
nan

>  <exports>  (81) 
['/opt/xchem-fragalysis-2/maxwin/openbind-hippo/xx01zvns2b/cycle_01/syndirella/elabs/openbind_xx01zvns2b_c1_elab_chemspace_filtered.sdf']

>  <Energy>  (81) 
nan

>  <alias>  (81) 
None

>  <fragmenstein_runtime>  (81) 
nan

>  <scratch_subdir>  (81) 
nan

>  <HIPPO Compound ID>  (81) 
136877

>  <rmsd(smina/fragmenstein)>  (81) 
1.15

>  <distance_score>  (81) 
1.001062

>  <orig_smiles>  (81) 
nan

>  <fragmenstein_mode>  (81) 
nan

>  <inchikey>  (81) 
NZMBYSYVYSYGGH-MRVPVSSYSA-N

>  <ref_pdb>  (81) 
Z0846a

>  <GNINA pK>  (81) 
nan

>  <gnina_score_min>  (81) 
5.218

>  <tags>  (81) 
openbind_xx01zvns2b_c1_elab_nonasap_filtered_scored_top80percent,openbind_xx01zvns2b_c1_elab_chemspace_filtered_scored_top80percent,openbind_xx01zvns2b_c1_elab_chemspace_filtered_scored,openbind_xx01zvns2b_c1_elab_chemspace_filtered_scored_top40percent,openbind_xx01zvns2b_c1_elab_chemspace_filtered_scored_top20percent,openbind_xx01zvns2b_c1_elab_chemspace_filtered_scored_top60percent,openbind_xx01zvns2b_c1_elabs_filtered

>  <smiles>  (81) 
C[C@@H](F)CCCC(=O)Nc1cccc2[nH]c(=O)[nH]c12

>  <subsites>  (81) 
1 - Z4590/B/203/1

>  <gnina_score>  (81) 
5.159

>  <HIPPO Pose ID>  (81) 
68753

>  <ref_mols>  (81) 
Z0846a,Z1597a

>  <energy_score>  (81) 
-7.817928

>  <inspiration_score>  (81) 
None

>  <smina_score_min>  (81) 
-6.492

>  <fragmenstein_error>  (81) 
nan

>  <name>  (81) 
P68753

$$$$
P68754
     RDKit          3D

 19 20  0  0  0  0  0  0  0  0999 V2000
   -6.1804    4.8580  -13.7848 C   0  0  0  0  0  0  0  0  0  0  0  0
   -6.7869    4.7480  -15.1454 C   0  0  0  0  0  0  0  0  0  0  0  0
   -6.0773    5.1230  -16.2982 C   0  0  0  0  0  0  0  0  0  0  0  0
   -6.6641    5.0922  -17.5685 C   0  0  0  0  0  0  0  0  0  0  0  0
   -5.9598    5.3960  -18.7249 N   0  0  0  0  0  0  0  0  0  0  0  0
   -4.4649    5.7955  -18.9245 C   0  0  0  0  0  0  0  0  0  0  0  0
   -3.6243    6.0033  -18.1375 O   0  0  0  0  0  0  0  0  0  0  0  0
   -4.2204    5.7904  -20.4221 C   0  0  0  0  0  0  0  0  0  0  0  0
   -4.6124    7.1035  -21.0854 C   0  0  0  0  0  0  0  0  0  0  0  0
   -4.9236    6.8842  -22.5649 C   0  0  0  0  0  0  0  0  0  0  0  0
   -5.1649    8.1725  -23.3397 C   0  0  1  0  0  0  0  0  0  0  0  0
   -5.7800    7.8839  -24.6976 C   0  0  0  0  0  0  0  0  0  0  0  0
   -6.0208    8.9731  -22.6516 F   0  0  0  0  0  0  0  0  0  0  0  0
   -8.0031    4.7107  -17.6220 C   0  0  0  0  0  0  0  0  0  0  0  0
   -8.9382    4.6716  -18.6259 N   0  0  0  0  0  0  0  0  0  0  0  0
  -10.1363    4.3777  -18.0461 C   0  0  0  0  0  0  0  0  0  0  0  0
   -9.9985    4.0045  -16.8034 N   0  0  0  0  0  0  0  0  0  0  0  0
   -8.7122    4.3090  -16.4948 C   0  0  0  0  0  0  0  0  0  0  0  0
   -8.1067    4.3104  -15.2419 C   0  0  0  0  0  0  0  0  0  0  0  0
  1  2  1  0
  2  3  2  0
  3  4  1  0
  4  5  1  0
  5  6  1  0
  6  7  2  0
  6  8  1  0
  8  9  1  0
  9 10  1  0
 10 11  1  0
 11 12  1  6
 11 13  1  0
  4 14  2  0
 14 15  1  0
 15 16  1  0
 16 17  2  0
 17 18  1  0
 18 19  2  0
 19  2  1  0
 18 14  1  0
M  END
>  <fragmenstein_outcome>  (82) 
nan

>  <exports>  (82) 
['/opt/xchem-fragalysis-2/maxwin/openbind-hippo/xx01zvns2b/cycle_01/syndirella/elabs/openbind_xx01zvns2b_c1_elab_chemspace_filtered.sdf']

>  <Energy>  (82) 
nan

>  <alias>  (82) 
None

>  <fragmenstein_runtime>  (82) 
nan

>  <scratch_subdir>  (82) 
nan

>  <HIPPO Compound ID>  (82) 
136878

>  <rmsd(smina/fragmenstein)>  (82) 
1.086

>  <distance_score>  (82) 
1.118158

>  <orig_smiles>  (82) 
nan

>  <fragmenstein_mode>  (82) 
nan

>  <inchikey>  (82) 
ONGRQTKFRISEGX-SNVBAGLBSA-N

>  <ref_pdb>  (82) 
Z0846a

>  <GNINA pK>  (82) 
nan

>  <gnina_score_min>  (82) 
5.345

>  <tags>  (82) 
openbind_xx01zvns2b_c1_elab_nonasap_filtered_scored_top80percent,openbind_xx01zvns2b_c1_elab_chemspace_filtered_scored_top80percent,openbind_xx01zvns2b_c1_elab_chemspace_filtered_scored,openbind_xx01zvns2b_c1_elab_chemspace_filtered_scored_top40percent,openbind_xx01zvns2b_c1_elab_chemspace_filtered_scored_top20percent,openbind_xx01zvns2b_c1_elab_chemspace_filtered_scored_top60percent,openbind_xx01zvns2b_c1_elabs_filtered

>  <smiles>  (82) 
Cc1cc(NC(=O)CCC[C@@H](C)F)c2[nH]cnc2c1

>  <subsites>  (82) 
1 - Z4590/B/203/1

>  <gnina_score>  (82) 
5.296

>  <HIPPO Pose ID>  (82) 
68754

>  <ref_mols>  (82) 
Z0846a,Z1597a

>  <energy_score>  (82) 
-21.327069

>  <inspiration_score>  (82) 
None

>  <smina_score_min>  (82) 
-5.978

>  <fragmenstein_error>  (82) 
nan

>  <name>  (82) 
P68754

$$$$
P68782
     RDKit          3D

 20 21  0  0  0  0  0  0  0  0999 V2000
   -5.6204    7.1782  -24.3566 C   0  0  0  0  0  0  0  0  0  0  0  0
   -5.3800    8.1523  -23.2248 C   0  0  0  0  0  0  0  0  0  0  0  0
   -4.5784    7.5662  -22.0773 C   0  0  0  0  0  0  0  0  0  0  0  0
   -3.5085    8.0747  -21.7464 O   0  0  0  0  0  0  0  0  0  0  0  0
   -5.2030    6.4619  -21.2636 C   0  0  0  0  0  0  0  0  0  0  0  0
   -4.2113    5.7054  -20.3819 C   0  0  0  0  0  0  0  0  0  0  0  0
   -4.5356    5.8097  -18.9005 C   0  0  0  0  0  0  0  0  0  0  0  0
   -3.7858    6.2231  -18.1045 O   0  0  0  0  0  0  0  0  0  0  0  0
   -5.9655    5.2142  -18.7271 N   0  0  0  0  0  0  0  0  0  0  0  0
   -6.6874    4.9336  -17.5827 C   0  0  0  0  0  0  0  0  0  0  0  0
   -6.1350    4.9982  -16.3035 C   0  0  0  0  0  0  0  0  0  0  0  0
   -6.9002    4.6677  -15.1828 C   0  0  0  0  0  0  0  0  0  0  0  0
   -6.1844    4.8552  -13.4529 Br  0  0  0  0  0  0  0  0  0  0  0  0
   -8.2186    4.2460  -15.2841 C   0  0  0  0  0  0  0  0  0  0  0  0
   -8.7898    4.2503  -16.5485 C   0  0  0  0  0  0  0  0  0  0  0  0
  -10.0916    4.0508  -16.8719 N   0  0  0  0  0  0  0  0  0  0  0  0
  -10.1611    4.4601  -18.0992 C   0  0  0  0  0  0  0  0  0  0  0  0
  -11.2958    4.8349  -18.6291 O   0  0  0  0  0  0  0  0  0  0  0  0
   -8.9493    4.6094  -18.6916 N   0  0  0  0  0  0  0  0  0  0  0  0
   -8.0335    4.5927  -17.6668 C   0  0  0  0  0  0  0  0  0  0  0  0
  1  2  1  0
  2  3  1  0
  3  4  2  0
  3  5  1  0
  5  6  1  0
  6  7  1  0
  7  8  2  0
  7  9  1  0
  9 10  1  0
 10 11  2  0
 11 12  1  0
 12 13  1  0
 12 14  2  0
 14 15  1  0
 15 16  1  0
 16 17  2  0
 17 18  1  0
 17 19  1  0
 19 20  1  0
 20 10  1  0
 20 15  2  0
M  END
>  <fragmenstein_outcome>  (83) 
nan

>  <exports>  (83) 
['/opt/xchem-fragalysis-2/maxwin/openbind-hippo/xx01zvns2b/cycle_01/syndirella/elabs/openbind_xx01zvns2b_c1_elab_chemspace_filtered.sdf']

>  <Energy>  (83) 
nan

>  <alias>  (83) 
None

>  <fragmenstein_runtime>  (83) 
nan

>  <scratch_subdir>  (83) 
nan

>  <HIPPO Compound ID>  (83) 
136909

>  <rmsd(smina/fragmenstein)>  (83) 
1.075

>  <distance_score>  (83) 
1.119845

>  <orig_smiles>  (83) 
nan

>  <fragmenstein_mode>  (83) 
nan

>  <inchikey>  (83) 
NMVVAHMFYGNTSL-UHFFFAOYSA-N

>  <ref_pdb>  (83) 
Z0846a

>  <GNINA pK>  (83) 
nan

>  <gnina_score_min>  (83) 
5.435

>  <tags>  (83) 
openbind_xx01zvns2b_c1_elab_nonasap_filtered_scored_top80percent,openbind_xx01zvns2b_c1_elab_chemspace_filtered_scored_top80percent,openbind_xx01zvns2b_c1_elab_chemspace_filtered_scored,openbind_xx01zvns2b_c1_elab_chemspace_filtered_scored_top40percent,openbind_xx01zvns2b_c1_elab_chemspace_filtered_scored_top20percent,openbind_xx01zvns2b_c1_elab_chemspace_filtered_scored_top60percent,openbind_xx01zvns2b_c1_elabs_filtered

>  <smiles>  (83) 
CCC(=O)CCC(=O)Nc1cc(Br)cc2nc(O)[nH]c12

>  <subsites>  (83) 
1 - Z4590/B/203/1

>  <gnina_score>  (83) 
5.268

>  <HIPPO Pose ID>  (83) 
68782

>  <ref_mols>  (83) 
Z0846a,Z1597a

>  <energy_score>  (83) 
-35.259011

>  <inspiration_score>  (83) 
None

>  <smina_score_min>  (83) 
-6.532

>  <fragmenstein_error>  (83) 
nan

>  <name>  (83) 
P68782

$$$$
P68783
     RDKit          3D

 20 22  0  0  0  0  0  0  0  0999 V2000
   -3.6936    5.8473  -18.6972 O   0  0  0  0  0  0  0  0  0  0  0  0
   -4.6250    5.7879  -19.4051 C   0  0  0  0  0  0  0  0  0  0  0  0
   -4.5595    6.1317  -20.9041 C   0  0  0  0  0  0  0  0  0  0  0  0
   -4.6284    7.5961  -21.2034 C   0  0  0  0  0  0  0  0  0  0  0  0
   -4.4770    8.6223  -20.3586 C   0  0  0  0  0  0  0  0  0  0  0  0
   -4.4774    9.9328  -21.0637 C   0  0  0  0  0  0  0  0  0  0  0  0
   -4.9962    9.5788  -22.4526 C   0  0  0  0  0  0  0  0  0  0  0  0
   -4.7884    8.0751  -22.6172 C   0  0  0  0  0  0  0  0  0  0  0  0
   -6.1131    5.4375  -19.0906 N   0  0  0  0  0  0  0  0  0  0  0  0
   -6.7097    5.0150  -17.9093 C   0  0  0  0  0  0  0  0  0  0  0  0
   -6.0418    4.9704  -16.6822 C   0  0  0  0  0  0  0  0  0  0  0  0
   -6.7138    4.5887  -15.5134 C   0  0  0  0  0  0  0  0  0  0  0  0
   -5.8656    4.7031  -13.8360 Br  0  0  0  0  0  0  0  0  0  0  0  0
   -8.0415    4.1836  -15.5169 C   0  0  0  0  0  0  0  0  0  0  0  0
   -8.7162    4.2560  -16.7256 C   0  0  0  0  0  0  0  0  0  0  0  0
  -10.0420    4.0619  -16.9473 N   0  0  0  0  0  0  0  0  0  0  0  0
  -10.2078    4.5063  -18.1529 C   0  0  0  0  0  0  0  0  0  0  0  0
  -11.3827    4.8581  -18.5991 O   0  0  0  0  0  0  0  0  0  0  0  0
   -9.0505    4.7102  -18.8256 N   0  0  0  0  0  0  0  0  0  0  0  0
   -8.0566    4.6689  -17.8821 C   0  0  0  0  0  0  0  0  0  0  0  0
  1  2  2  0
  2  3  1  0
  3  4  1  0
  4  5  2  0
  5  6  1  0
  6  7  1  0
  7  8  1  0
  2  9  1  0
  9 10  1  0
 10 11  2  0
 11 12  1  0
 12 13  1  0
 12 14  2  0
 14 15  1  0
 15 16  1  0
 16 17  2  0
 17 18  1  0
 17 19  1  0
 19 20  1  0
  8  4  1  0
 20 10  1  0
 20 15  2  0
M  END
>  <fragmenstein_outcome>  (84) 
nan

>  <exports>  (84) 
['/opt/xchem-fragalysis-2/maxwin/openbind-hippo/xx01zvns2b/cycle_01/syndirella/elabs/openbind_xx01zvns2b_c1_elab_chemspace_filtered.sdf']

>  <Energy>  (84) 
nan

>  <alias>  (84) 
None

>  <fragmenstein_runtime>  (84) 
nan

>  <scratch_subdir>  (84) 
nan

>  <HIPPO Compound ID>  (84) 
136911

>  <rmsd(smina/fragmenstein)>  (84) 
1.097

>  <distance_score>  (84) 
1.566506

>  <orig_smiles>  (84) 
nan

>  <fragmenstein_mode>  (84) 
nan

>  <inchikey>  (84) 
GHIKDBDFVQWZLT-UHFFFAOYSA-N

>  <ref_pdb>  (84) 
Z0846a

>  <GNINA pK>  (84) 
nan

>  <gnina_score_min>  (84) 
5.438

>  <tags>  (84) 
openbind_xx01zvns2b_c1_elab_nonasap_filtered_scored_top80percent,openbind_xx01zvns2b_c1_elab_chemspace_filtered_scored_top80percent,openbind_xx01zvns2b_c1_elab_chemspace_filtered_scored,openbind_xx01zvns2b_c1_elab_chemspace_filtered_scored_top40percent,openbind_xx01zvns2b_c1_elab_chemspace_filtered_scored_top20percent,openbind_xx01zvns2b_c1_elab_chemspace_filtered_scored_top60percent,openbind_xx01zvns2b_c1_elabs_filtered

>  <smiles>  (84) 
O=C(CC1=CCCC1)Nc1cc(Br)cc2nc(O)[nH]c12

>  <subsites>  (84) 
1 - Z4590/B/203/1

>  <gnina_score>  (84) 
5.34

>  <HIPPO Pose ID>  (84) 
68783

>  <ref_mols>  (84) 
Z0846a,Z1597a

>  <energy_score>  (84) 
-46.03357

>  <inspiration_score>  (84) 
None

>  <smina_score_min>  (84) 
-7.475

>  <fragmenstein_error>  (84) 
nan

>  <name>  (84) 
P68783

$$$$
P68796
     RDKit          3D

 20 22  0  0  0  0  0  0  0  0999 V2000
   -4.9418    9.7780  -24.0122 C   0  0  0  0  0  0  0  0  0  0  0  0
   -5.4050    8.7405  -23.0471 C   0  0  1  0  0  0  0  0  0  0  0  0
   -5.3536    7.2848  -23.4278 C   0  0  0  0  0  0  0  0  0  0  0  0
   -4.4352    7.8047  -22.3527 C   0  0  2  0  0  0  0  0  0  0  0  0
   -4.6500    7.4514  -20.9083 C   0  0  0  0  0  0  0  0  0  0  0  0
   -4.2047    6.0383  -20.5704 C   0  0  0  0  0  0  0  0  0  0  0  0
   -4.3995    5.7520  -19.0874 C   0  0  0  0  0  0  0  0  0  0  0  0
   -3.5456    5.8673  -18.2963 O   0  0  0  0  0  0  0  0  0  0  0  0
   -5.8997    5.3687  -18.9054 N   0  0  0  0  0  0  0  0  0  0  0  0
   -6.5988    4.9737  -17.7705 C   0  0  0  0  0  0  0  0  0  0  0  0
   -6.0405    4.9246  -16.4926 C   0  0  0  0  0  0  0  0  0  0  0  0
   -6.8193    4.5581  -15.3865 C   0  0  0  0  0  0  0  0  0  0  0  0
   -6.1057    4.6547  -13.6462 Br  0  0  0  0  0  0  0  0  0  0  0  0
   -8.1521    4.1793  -15.5032 C   0  0  0  0  0  0  0  0  0  0  0  0
   -8.7226    4.2608  -16.7650 C   0  0  0  0  0  0  0  0  0  0  0  0
  -10.0283    4.0950  -17.1121 N   0  0  0  0  0  0  0  0  0  0  0  0
  -10.0875    4.6084  -18.3045 C   0  0  0  0  0  0  0  0  0  0  0  0
  -11.1903    5.0843  -18.8326 O   0  0  0  0  0  0  0  0  0  0  0  0
   -8.8598    4.7370  -18.8742 N   0  0  0  0  0  0  0  0  0  0  0  0
   -7.9523    4.6604  -17.8536 C   0  0  0  0  0  0  0  0  0  0  0  0
  2  1  1  6
  2  3  1  0
  3  4  1  0
  4  5  1  1
  5  6  1  0
  6  7  1  0
  7  8  2  0
  7  9  1  0
  9 10  1  0
 10 11  2  0
 11 12  1  0
 12 13  1  0
 12 14  2  0
 14 15  1  0
 15 16  1  0
 16 17  2  0
 17 18  1  0
 17 19  1  0
 19 20  1  0
  4  2  1  0
 20 10  1  0
 20 15  2  0
M  END
>  <fragmenstein_outcome>  (85) 
nan

>  <exports>  (85) 
['/opt/xchem-fragalysis-2/maxwin/openbind-hippo/xx01zvns2b/cycle_01/syndirella/elabs/openbind_xx01zvns2b_c1_elab_chemspace_filtered.sdf']

>  <Energy>  (85) 
nan

>  <alias>  (85) 
None

>  <fragmenstein_runtime>  (85) 
nan

>  <scratch_subdir>  (85) 
nan

>  <HIPPO Compound ID>  (85) 
136921

>  <rmsd(smina/fragmenstein)>  (85) 
1.263

>  <distance_score>  (85) 
1.120235

>  <orig_smiles>  (85) 
nan

>  <fragmenstein_mode>  (85) 
nan

>  <inchikey>  (85) 
DHKIMHBEEKEPGD-YUMQZZPRSA-N

>  <ref_pdb>  (85) 
Z0846a

>  <GNINA pK>  (85) 
nan

>  <gnina_score_min>  (85) 
5.486

>  <tags>  (85) 
openbind_xx01zvns2b_c1_elab_nonasap_filtered_scored_top80percent,openbind_xx01zvns2b_c1_elab_chemspace_filtered_scored_top80percent,openbind_xx01zvns2b_c1_elab_chemspace_filtered_scored,openbind_xx01zvns2b_c1_elab_chemspace_filtered_scored_top40percent,openbind_xx01zvns2b_c1_elab_chemspace_filtered_scored_top20percent,openbind_xx01zvns2b_c1_elab_chemspace_filtered_scored_top60percent,openbind_xx01zvns2b_c1_elabs_filtered

>  <smiles>  (85) 
C[C@H]1C[C@@H]1CCC(=O)Nc1cc(Br)cc2nc(O)[nH]c12

>  <subsites>  (85) 
1 - Z4590/B/203/1

>  <gnina_score>  (85) 
5.324

>  <HIPPO Pose ID>  (85) 
68796

>  <ref_mols>  (85) 
Z0846a,Z1597a

>  <energy_score>  (85) 
-23.63491

>  <inspiration_score>  (85) 
None

>  <smina_score_min>  (85) 
-7.132

>  <fragmenstein_error>  (85) 
nan

>  <name>  (85) 
P68796

$$$$
P68804
     RDKit          3D

 20 22  0  0  0  0  0  0  0  0999 V2000
   -5.3106    9.7153  -22.9020 C   0  0  0  0  0  0  0  0  0  0  0  0
   -5.0439    8.2584  -22.5770 C   0  0  0  0  0  0  0  0  0  0  0  0
   -4.9240    7.9490  -21.0797 C   0  0  0  0  0  0  0  0  0  0  0  0
   -4.4185    6.5551  -20.7028 C   0  0  0  0  0  0  0  0  0  0  0  0
   -4.5723    6.2698  -19.2080 C   0  0  0  0  0  0  0  0  0  0  0  0
   -3.7099    6.4473  -18.4371 O   0  0  0  0  0  0  0  0  0  0  0  0
   -6.0191    5.7239  -18.9982 N   0  0  0  0  0  0  0  0  0  0  0  0
   -6.6388    5.2169  -17.8557 C   0  0  0  0  0  0  0  0  0  0  0  0
   -6.0525    5.1926  -16.5895 C   0  0  0  0  0  0  0  0  0  0  0  0
   -6.7628    4.7073  -15.4795 C   0  0  0  0  0  0  0  0  0  0  0  0
   -6.0222    4.8229  -13.7505 Br  0  0  0  0  0  0  0  0  0  0  0  0
   -8.0551    4.2000  -15.5768 C   0  0  0  0  0  0  0  0  0  0  0  0
   -8.6638    4.2724  -16.8207 C   0  0  0  0  0  0  0  0  0  0  0  0
   -9.9684    4.0331  -17.1376 N   0  0  0  0  0  0  0  0  0  0  0  0
  -10.0898    4.5843  -18.3090 C   0  0  0  0  0  0  0  0  0  0  0  0
  -11.2217    5.0488  -18.7849 O   0  0  0  0  0  0  0  0  0  0  0  0
   -8.8877    4.7762  -18.9127 N   0  0  0  0  0  0  0  0  0  0  0  0
   -7.9534    4.7607  -17.9146 C   0  0  0  0  0  0  0  0  0  0  0  0
   -5.6836    7.2418  -23.4987 C   0  0  0  0  0  0  0  0  0  0  0  0
   -4.2052    7.4853  -23.5711 C   0  0  0  0  0  0  0  0  0  0  0  0
  1  2  1  0
  2  3  1  0
  3  4  1  0
  4  5  1  0
  5  6  2  0
  5  7  1  0
  7  8  1  0
  8  9  2  0
  9 10  1  0
 10 11  1  0
 10 12  2  0
 12 13  1  0
 13 14  1  0
 14 15  2  0
 15 16  1  0
 15 17  1  0
 17 18  1  0
  2 19  1  0
 19 20  1  0
 20  2  1  0
 18  8  1  0
 18 13  2  0
M  END
>  <fragmenstein_outcome>  (86) 
nan

>  <exports>  (86) 
['/opt/xchem-fragalysis-2/maxwin/openbind-hippo/xx01zvns2b/cycle_01/syndirella/elabs/openbind_xx01zvns2b_c1_elab_chemspace_filtered.sdf']

>  <Energy>  (86) 
nan

>  <alias>  (86) 
None

>  <fragmenstein_runtime>  (86) 
nan

>  <scratch_subdir>  (86) 
nan

>  <HIPPO Compound ID>  (86) 
136924

>  <rmsd(smina/fragmenstein)>  (86) 
0.545

>  <distance_score>  (86) 
1.31651

>  <orig_smiles>  (86) 
nan

>  <fragmenstein_mode>  (86) 
nan

>  <inchikey>  (86) 
BCCISDJWJYQETL-UHFFFAOYSA-N

>  <ref_pdb>  (86) 
Z0846a

>  <GNINA pK>  (86) 
nan

>  <gnina_score_min>  (86) 
5.33

>  <tags>  (86) 
openbind_xx01zvns2b_c1_elab_nonasap_filtered_scored_top80percent,openbind_xx01zvns2b_c1_elab_chemspace_filtered_scored_top80percent,openbind_xx01zvns2b_c1_elab_chemspace_filtered_scored,openbind_xx01zvns2b_c1_elab_chemspace_filtered_scored_top40percent,openbind_xx01zvns2b_c1_elab_chemspace_filtered_scored_top20percent,openbind_xx01zvns2b_c1_elab_chemspace_filtered_scored_top60percent,openbind_xx01zvns2b_c1_elabs_filtered

>  <smiles>  (86) 
CC1(CCC(=O)Nc2cc(Br)cc3nc(O)[nH]c23)CC1

>  <subsites>  (86) 
1 - Z4590/B/203/1

>  <gnina_score>  (86) 
5.29

>  <HIPPO Pose ID>  (86) 
68804

>  <ref_mols>  (86) 
Z0846a,Z1597a

>  <energy_score>  (86) 
-26.935141

>  <inspiration_score>  (86) 
None

>  <smina_score_min>  (86) 
-6.928

>  <fragmenstein_error>  (86) 
nan

>  <name>  (86) 
P68804

$$$$
P68808
     RDKit          3D

 20 21  0  0  0  0  0  0  0  0999 V2000
   -5.9008    7.7262  -24.7023 C   0  0  0  0  0  0  0  0  0  0  0  0
   -5.5656    8.0854  -23.2547 C   0  0  0  0  0  0  0  0  0  0  0  0
   -4.7022    9.3418  -23.2077 C   0  0  0  0  0  0  0  0  0  0  0  0
   -4.9062    6.8851  -22.5614 C   0  0  0  0  0  0  0  0  0  0  0  0
   -4.7301    7.0519  -21.0510 C   0  0  0  0  0  0  0  0  0  0  0  0
   -4.1905    5.7743  -20.4210 C   0  0  0  0  0  0  0  0  0  0  0  0
   -4.4482    5.7197  -18.9284 C   0  0  0  0  0  0  0  0  0  0  0  0
   -3.6270    5.9323  -18.1229 O   0  0  0  0  0  0  0  0  0  0  0  0
   -5.9409    5.2991  -18.7629 N   0  0  0  0  0  0  0  0  0  0  0  0
   -6.6636    4.9775  -17.6257 C   0  0  0  0  0  0  0  0  0  0  0  0
   -6.0980    4.9795  -16.3487 C   0  0  0  0  0  0  0  0  0  0  0  0
   -6.8576    4.6290  -15.2299 C   0  0  0  0  0  0  0  0  0  0  0  0
   -6.1266    4.7638  -13.5012 Br  0  0  0  0  0  0  0  0  0  0  0  0
   -8.1813    4.2286  -15.3308 C   0  0  0  0  0  0  0  0  0  0  0  0
   -8.7616    4.2709  -16.5901 C   0  0  0  0  0  0  0  0  0  0  0  0
  -10.0660    4.0744  -16.9045 N   0  0  0  0  0  0  0  0  0  0  0  0
  -10.1462    4.4980  -18.1262 C   0  0  0  0  0  0  0  0  0  0  0  0
  -11.2896    4.8568  -18.6482 O   0  0  0  0  0  0  0  0  0  0  0  0
   -8.9389    4.6723  -18.7222 N   0  0  0  0  0  0  0  0  0  0  0  0
   -8.0144    4.6471  -17.7055 C   0  0  0  0  0  0  0  0  0  0  0  0
  1  2  1  0
  2  3  1  0
  2  4  1  0
  4  5  1  0
  5  6  1  0
  6  7  1  0
  7  8  2  0
  7  9  1  0
  9 10  1  0
 10 11  2  0
 11 12  1  0
 12 13  1  0
 12 14  2  0
 14 15  1  0
 15 16  1  0
 16 17  2  0
 17 18  1  0
 17 19  1  0
 19 20  1  0
 20 10  1  0
 20 15  2  0
M  END
>  <fragmenstein_outcome>  (87) 
nan

>  <exports>  (87) 
['/opt/xchem-fragalysis-2/maxwin/openbind-hippo/xx01zvns2b/cycle_01/syndirella/elabs/openbind_xx01zvns2b_c1_elab_chemspace_filtered.sdf']

>  <Energy>  (87) 
nan

>  <alias>  (87) 
None

>  <fragmenstein_runtime>  (87) 
nan

>  <scratch_subdir>  (87) 
nan

>  <HIPPO Compound ID>  (87) 
136929

>  <rmsd(smina/fragmenstein)>  (87) 
1.194

>  <distance_score>  (87) 
1.052758

>  <orig_smiles>  (87) 
nan

>  <fragmenstein_mode>  (87) 
nan

>  <inchikey>  (87) 
PCSCPJOPJYEEJQ-UHFFFAOYSA-N

>  <ref_pdb>  (87) 
Z0846a

>  <GNINA pK>  (87) 
nan

>  <gnina_score_min>  (87) 
5.483

>  <tags>  (87) 
openbind_xx01zvns2b_c1_elab_nonasap_filtered_scored_top80percent,openbind_xx01zvns2b_c1_elab_chemspace_filtered_scored_top80percent,openbind_xx01zvns2b_c1_elab_chemspace_filtered_scored,openbind_xx01zvns2b_c1_elab_chemspace_filtered_scored_top40percent,openbind_xx01zvns2b_c1_elab_chemspace_filtered_scored_top20percent,openbind_xx01zvns2b_c1_elab_chemspace_filtered_scored_top60percent,openbind_xx01zvns2b_c1_elabs_filtered

>  <smiles>  (87) 
CC(C)CCCC(=O)Nc1cc(Br)cc2nc(O)[nH]c12

>  <subsites>  (87) 
1 - Z4590/B/203/1

>  <gnina_score>  (87) 
5.426

>  <HIPPO Pose ID>  (87) 
68808

>  <ref_mols>  (87) 
Z0846a,Z1597a

>  <energy_score>  (87) 
-47.807635

>  <inspiration_score>  (87) 
None

>  <smina_score_min>  (87) 
-6.835

>  <fragmenstein_error>  (87) 
nan

>  <name>  (87) 
P68808

$$$$
P68813
     RDKit          3D

 20 23  0  0  0  0  0  0  0  0999 V2000
   -3.4992    5.3387  -18.3727 O   0  0  0  0  0  0  0  0  0  0  0  0
   -4.3964    5.4239  -19.1210 C   0  0  0  0  0  0  0  0  0  0  0  0
   -4.2126    5.8023  -20.5863 C   0  0  0  0  0  0  0  0  0  0  0  0
   -4.0460    7.2741  -20.7880 C   0  0  2  0  0  0  0  0  0  0  0  0
   -5.2032    8.2325  -20.4692 C   0  0  0  0  0  0  0  0  0  0  0  0
   -4.7903    7.9614  -21.8423 C   0  0  0  0  0  0  0  0  0  0  0  0
   -4.4437    8.7951  -22.9907 C   0  0  0  0  0  0  0  0  0  0  0  0
   -5.4183    7.6196  -23.1113 C   0  0  0  0  0  0  0  0  0  0  0  0
   -5.9232    5.1756  -18.9026 N   0  0  0  0  0  0  0  0  0  0  0  0
   -6.6310    4.8783  -17.7463 C   0  0  0  0  0  0  0  0  0  0  0  0
   -6.0340    4.8539  -16.4826 C   0  0  0  0  0  0  0  0  0  0  0  0
   -6.7816    4.5480  -15.3409 C   0  0  0  0  0  0  0  0  0  0  0  0
   -6.0095    4.6690  -13.6290 Br  0  0  0  0  0  0  0  0  0  0  0  0
   -8.1229    4.2024  -15.4055 C   0  0  0  0  0  0  0  0  0  0  0  0
   -8.7310    4.2640  -16.6502 C   0  0  0  0  0  0  0  0  0  0  0  0
  -10.0481    4.1018  -16.9321 N   0  0  0  0  0  0  0  0  0  0  0  0
  -10.1457    4.5230  -18.1527 C   0  0  0  0  0  0  0  0  0  0  0  0
  -11.2952    4.8900  -18.6531 O   0  0  0  0  0  0  0  0  0  0  0  0
   -8.9497    4.6827  -18.7739 N   0  0  0  0  0  0  0  0  0  0  0  0
   -7.9989    4.6152  -17.7848 C   0  0  0  0  0  0  0  0  0  0  0  0
  1  2  2  0
  2  3  1  0
  4  3  1  6
  4  5  1  0
  5  6  1  0
  6  7  1  0
  7  8  1  0
  2  9  1  0
  9 10  1  0
 10 11  2  0
 11 12  1  0
 12 13  1  0
 12 14  2  0
 14 15  1  0
 15 16  1  0
 16 17  2  0
 17 18  1  0
 17 19  1  0
 19 20  1  0
  6  4  1  0
 20 10  1  0
  8  6  1  0
 20 15  2  0
M  END
>  <fragmenstein_outcome>  (88) 
nan

>  <exports>  (88) 
['/opt/xchem-fragalysis-2/maxwin/openbind-hippo/xx01zvns2b/cycle_01/syndirella/elabs/openbind_xx01zvns2b_c1_elab_chemspace_filtered.sdf']

>  <Energy>  (88) 
nan

>  <alias>  (88) 
None

>  <fragmenstein_runtime>  (88) 
nan

>  <scratch_subdir>  (88) 
nan

>  <HIPPO Compound ID>  (88) 
136932

>  <rmsd(smina/fragmenstein)>  (88) 
0.479

>  <distance_score>  (88) 
1.164486

>  <orig_smiles>  (88) 
nan

>  <fragmenstein_mode>  (88) 
nan

>  <inchikey>  (88) 
XAUHCPQICJGIPG-SSDOTTSWSA-N

>  <ref_pdb>  (88) 
Z0846a

>  <GNINA pK>  (88) 
nan

>  <gnina_score_min>  (88) 
5.316

>  <tags>  (88) 
openbind_xx01zvns2b_c1_elab_nonasap_filtered_scored_top80percent,openbind_xx01zvns2b_c1_elab_chemspace_filtered_scored_top80percent,openbind_xx01zvns2b_c1_elab_chemspace_filtered_scored,openbind_xx01zvns2b_c1_elab_chemspace_filtered_scored_top40percent,openbind_xx01zvns2b_c1_elab_chemspace_filtered_scored_top20percent,openbind_xx01zvns2b_c1_elab_chemspace_filtered_scored_top60percent,openbind_xx01zvns2b_c1_elabs_filtered

>  <smiles>  (88) 
O=C(C[C@@H]1CC12CC2)Nc1cc(Br)cc2nc(O)[nH]c12

>  <subsites>  (88) 
1 - Z4590/B/203/1

>  <gnina_score>  (88) 
5.298

>  <HIPPO Pose ID>  (88) 
68813

>  <ref_mols>  (88) 
Z0846a,Z1597a

>  <energy_score>  (88) 
-42.569944

>  <inspiration_score>  (88) 
None

>  <smina_score_min>  (88) 
-6.895

>  <fragmenstein_error>  (88) 
nan

>  <name>  (88) 
P68813

$$$$
P68820
     RDKit          3D

 20 22  0  0  0  0  0  0  0  0999 V2000
   -3.7938    6.1408  -18.5468 O   0  0  0  0  0  0  0  0  0  0  0  0
   -4.6383    5.8062  -19.2835 C   0  0  0  0  0  0  0  0  0  0  0  0
   -4.4369    5.6820  -20.7828 C   0  0  0  0  0  0  0  0  0  0  0  0
   -4.3518    6.9624  -21.5887 C   0  0  2  0  0  0  0  0  0  0  0  0
   -4.8113    8.2339  -20.9178 C   0  0  0  0  0  0  0  0  0  0  0  0
   -5.0122    9.1345  -22.1127 C   0  0  0  0  0  0  0  0  0  0  0  0
   -5.4856    8.1975  -23.2039 C   0  0  0  0  0  0  0  0  0  0  0  0
   -5.1952    6.8685  -22.7649 O   0  0  0  0  0  0  0  0  0  0  0  0
   -6.0873    5.3120  -18.9993 N   0  0  0  0  0  0  0  0  0  0  0  0
   -6.7293    5.0505  -17.7999 C   0  0  0  0  0  0  0  0  0  0  0  0
   -6.1045    5.1012  -16.5533 C   0  0  0  0  0  0  0  0  0  0  0  0
   -6.7998    4.7342  -15.3940 C   0  0  0  0  0  0  0  0  0  0  0  0
   -5.9951    4.9060  -13.7007 Br  0  0  0  0  0  0  0  0  0  0  0  0
   -8.1123    4.2789  -15.4235 C   0  0  0  0  0  0  0  0  0  0  0  0
   -8.7535    4.2924  -16.6528 C   0  0  0  0  0  0  0  0  0  0  0  0
  -10.0663    4.0618  -16.9108 N   0  0  0  0  0  0  0  0  0  0  0  0
  -10.2050    4.4794  -18.1297 C   0  0  0  0  0  0  0  0  0  0  0  0
  -11.3686    4.8347  -18.6034 O   0  0  0  0  0  0  0  0  0  0  0  0
   -9.0314    4.6676  -18.7801 N   0  0  0  0  0  0  0  0  0  0  0  0
   -8.0677    4.6745  -17.8028 C   0  0  0  0  0  0  0  0  0  0  0  0
  1  2  2  0
  2  3  1  0
  4  3  1  1
  4  5  1  0
  5  6  1  0
  6  7  1  0
  7  8  1  0
  2  9  1  0
  9 10  1  0
 10 11  2  0
 11 12  1  0
 12 13  1  0
 12 14  2  0
 14 15  1  0
 15 16  1  0
 16 17  2  0
 17 18  1  0
 17 19  1  0
 19 20  1  0
  8  4  1  0
 20 10  1  0
 20 15  2  0
M  END
>  <fragmenstein_outcome>  (89) 
nan

>  <exports>  (89) 
['/opt/xchem-fragalysis-2/maxwin/openbind-hippo/xx01zvns2b/cycle_01/syndirella/elabs/openbind_xx01zvns2b_c1_elab_chemspace_filtered.sdf']

>  <Energy>  (89) 
nan

>  <alias>  (89) 
None

>  <fragmenstein_runtime>  (89) 
nan

>  <scratch_subdir>  (89) 
nan

>  <HIPPO Compound ID>  (89) 
136938

>  <rmsd(smina/fragmenstein)>  (89) 
0.714

>  <distance_score>  (89) 
1.338985

>  <orig_smiles>  (89) 
nan

>  <fragmenstein_mode>  (89) 
nan

>  <inchikey>  (89) 
ICIMMLDJDDEEBA-QMMMGPOBSA-N

>  <ref_pdb>  (89) 
Z0846a

>  <GNINA pK>  (89) 
nan

>  <gnina_score_min>  (89) 
5.221

>  <tags>  (89) 
openbind_xx01zvns2b_c1_elab_nonasap_filtered_scored_top80percent,openbind_xx01zvns2b_c1_elab_chemspace_filtered_scored_top80percent,openbind_xx01zvns2b_c1_elab_chemspace_filtered_scored,openbind_xx01zvns2b_c1_elab_chemspace_filtered_scored_top40percent,openbind_xx01zvns2b_c1_elab_chemspace_filtered_scored_top20percent,openbind_xx01zvns2b_c1_elab_chemspace_filtered_scored_top60percent,openbind_xx01zvns2b_c1_elabs_filtered

>  <smiles>  (89) 
O=C(C[C@@H]1CCCO1)Nc1cc(Br)cc2nc(O)[nH]c12

>  <subsites>  (89) 
1 - Z4590/B/203/1

>  <gnina_score>  (89) 
5.133

>  <HIPPO Pose ID>  (89) 
68820

>  <ref_mols>  (89) 
Z0846a,Z1597a

>  <energy_score>  (89) 
-35.844906

>  <inspiration_score>  (89) 
None

>  <smina_score_min>  (89) 
-7.106

>  <fragmenstein_error>  (89) 
nan

>  <name>  (89) 
P68820

$$$$
P68838
     RDKit          3D

 20 21  0  0  0  0  0  0  0  0999 V2000
   -5.6750   10.2055  -23.7293 C   0  0  0  0  0  0  0  0  0  0  0  0
   -5.1837    9.1395  -23.0844 C   0  0  0  0  0  0  0  0  0  0  0  0
   -4.0897    9.2223  -22.0569 C   0  0  0  0  0  0  0  0  0  0  0  0
   -4.2701    8.3244  -20.8229 C   0  0  0  0  0  0  0  0  0  0  0  0
   -4.4363    6.8347  -21.1626 C   0  0  0  0  0  0  0  0  0  0  0  0
   -3.7837    5.8924  -20.1577 C   0  0  0  0  0  0  0  0  0  0  0  0
   -4.2819    5.9724  -18.7204 C   0  0  0  0  0  0  0  0  0  0  0  0
   -3.6036    6.3634  -17.8511 O   0  0  0  0  0  0  0  0  0  0  0  0
   -5.7159    5.3656  -18.6864 N   0  0  0  0  0  0  0  0  0  0  0  0
   -6.5342    5.0425  -17.6090 C   0  0  0  0  0  0  0  0  0  0  0  0
   -6.0778    5.0672  -16.2886 C   0  0  0  0  0  0  0  0  0  0  0  0
   -6.9115    4.6876  -15.2308 C   0  0  0  0  0  0  0  0  0  0  0  0
   -6.3101    4.8274  -13.4520 Br  0  0  0  0  0  0  0  0  0  0  0  0
   -8.2139    4.2521  -15.4318 C   0  0  0  0  0  0  0  0  0  0  0  0
   -8.6992    4.2941  -16.7309 C   0  0  0  0  0  0  0  0  0  0  0  0
   -9.9783    4.1006  -17.1473 N   0  0  0  0  0  0  0  0  0  0  0  0
   -9.9765    4.5922  -18.3499 C   0  0  0  0  0  0  0  0  0  0  0  0
  -11.0567    5.0655  -18.9267 O   0  0  0  0  0  0  0  0  0  0  0  0
   -8.7177    4.7151  -18.8569 N   0  0  0  0  0  0  0  0  0  0  0  0
   -7.8691    4.6834  -17.7815 C   0  0  0  0  0  0  0  0  0  0  0  0
  1  2  2  0
  2  3  1  0
  3  4  1  0
  4  5  1  0
  5  6  1  0
  6  7  1  0
  7  8  2  0
  7  9  1  0
  9 10  1  0
 10 11  2  0
 11 12  1  0
 12 13  1  0
 12 14  2  0
 14 15  1  0
 15 16  1  0
 16 17  2  0
 17 18  1  0
 17 19  1  0
 19 20  1  0
 20 10  1  0
 20 15  2  0
M  END
>  <fragmenstein_outcome>  (90) 
nan

>  <exports>  (90) 
['/opt/xchem-fragalysis-2/maxwin/openbind-hippo/xx01zvns2b/cycle_01/syndirella/elabs/openbind_xx01zvns2b_c1_elab_chemspace_filtered.sdf']

>  <Energy>  (90) 
nan

>  <alias>  (90) 
None

>  <fragmenstein_runtime>  (90) 
nan

>  <scratch_subdir>  (90) 
nan

>  <HIPPO Compound ID>  (90) 
136957

>  <rmsd(smina/fragmenstein)>  (90) 
1.621

>  <distance_score>  (90) 
0.973626

>  <orig_smiles>  (90) 
nan

>  <fragmenstein_mode>  (90) 
nan

>  <inchikey>  (90) 
IFAFDXUKGZJOMY-UHFFFAOYSA-N

>  <ref_pdb>  (90) 
Z0846a

>  <GNINA pK>  (90) 
nan

>  <gnina_score_min>  (90) 
5.51

>  <tags>  (90) 
openbind_xx01zvns2b_c1_elab_nonasap_filtered_scored_top80percent,openbind_xx01zvns2b_c1_elab_chemspace_filtered_scored_top80percent,openbind_xx01zvns2b_c1_elab_chemspace_filtered_scored,openbind_xx01zvns2b_c1_elab_chemspace_filtered_scored_top40percent,openbind_xx01zvns2b_c1_elab_chemspace_filtered_scored_top20percent,openbind_xx01zvns2b_c1_elab_chemspace_filtered_scored_top60percent,openbind_xx01zvns2b_c1_elabs_filtered

>  <smiles>  (90) 
C=CCCCCC(=O)Nc1cc(Br)cc2nc(O)[nH]c12

>  <subsites>  (90) 
1 - Z4590/B/203/1

>  <gnina_score>  (90) 
5.248

>  <HIPPO Pose ID>  (90) 
68838

>  <ref_mols>  (90) 
Z0846a,Z1597a

>  <energy_score>  (90) 
-13.799035

>  <inspiration_score>  (90) 
None

>  <smina_score_min>  (90) 
-6.601

>  <fragmenstein_error>  (90) 
nan

>  <name>  (90) 
P68838

$$$$
P68841
     RDKit          3D

 20 21  0  0  0  0  0  0  0  0999 V2000
   -5.0227    9.2213  -22.8167 C   0  0  0  0  0  0  0  0  0  0  0  0
   -5.1307    7.7407  -23.1469 C   0  0  2  0  0  0  0  0  0  0  0  0
   -6.3052    7.5597  -23.9385 O   0  0  0  0  0  0  0  0  0  0  0  0
   -5.2202    6.8519  -21.8977 C   0  0  0  0  0  0  0  0  0  0  0  0
   -3.9266    6.8054  -21.0790 C   0  0  0  0  0  0  0  0  0  0  0  0
   -3.7760    5.5386  -20.2409 C   0  0  0  0  0  0  0  0  0  0  0  0
   -4.2073    5.6397  -18.7841 C   0  0  0  0  0  0  0  0  0  0  0  0
   -3.4532    5.8995  -17.9282 O   0  0  0  0  0  0  0  0  0  0  0  0
   -5.7122    5.2425  -18.7171 N   0  0  0  0  0  0  0  0  0  0  0  0
   -6.5346    5.0016  -17.6212 C   0  0  0  0  0  0  0  0  0  0  0  0
   -6.0703    5.0388  -16.3044 C   0  0  0  0  0  0  0  0  0  0  0  0
   -6.9075    4.6926  -15.2371 C   0  0  0  0  0  0  0  0  0  0  0  0
   -6.2933    4.8383  -13.4632 Br  0  0  0  0  0  0  0  0  0  0  0  0
   -8.2190    4.2776  -15.4254 C   0  0  0  0  0  0  0  0  0  0  0  0
   -8.7106    4.3133  -16.7221 C   0  0  0  0  0  0  0  0  0  0  0  0
   -9.9924    4.1279  -17.1322 N   0  0  0  0  0  0  0  0  0  0  0  0
   -9.9901    4.6022  -18.3418 C   0  0  0  0  0  0  0  0  0  0  0  0
  -11.0689    5.0717  -18.9235 O   0  0  0  0  0  0  0  0  0  0  0  0
   -8.7321    4.7120  -18.8531 N   0  0  0  0  0  0  0  0  0  0  0  0
   -7.8798    4.6770  -17.7806 C   0  0  0  0  0  0  0  0  0  0  0  0
  2  1  1  1
  2  3  1  0
  2  4  1  0
  4  5  1  0
  5  6  1  0
  6  7  1  0
  7  8  2  0
  7  9  1  0
  9 10  1  0
 10 11  2  0
 11 12  1  0
 12 13  1  0
 12 14  2  0
 14 15  1  0
 15 16  1  0
 16 17  2  0
 17 18  1  0
 17 19  1  0
 19 20  1  0
 20 10  1  0
 20 15  2  0
M  END
>  <fragmenstein_outcome>  (91) 
nan

>  <exports>  (91) 
['/opt/xchem-fragalysis-2/maxwin/openbind-hippo/xx01zvns2b/cycle_01/syndirella/elabs/openbind_xx01zvns2b_c1_elab_chemspace_filtered.sdf']

>  <Energy>  (91) 
nan

>  <alias>  (91) 
None

>  <fragmenstein_runtime>  (91) 
nan

>  <scratch_subdir>  (91) 
nan

>  <HIPPO Compound ID>  (91) 
136959

>  <rmsd(smina/fragmenstein)>  (91) 
1.493

>  <distance_score>  (91) 
0.95677

>  <orig_smiles>  (91) 
nan

>  <fragmenstein_mode>  (91) 
nan

>  <inchikey>  (91) 
OZLIPXBPCMXLGT-ZETCQYMHSA-N

>  <ref_pdb>  (91) 
Z0846a

>  <GNINA pK>  (91) 
nan

>  <gnina_score_min>  (91) 
5.17

>  <tags>  (91) 
openbind_xx01zvns2b_c1_elab_nonasap_filtered_scored_top80percent,openbind_xx01zvns2b_c1_elab_chemspace_filtered_scored_top80percent,openbind_xx01zvns2b_c1_elab_chemspace_filtered_scored,openbind_xx01zvns2b_c1_elab_chemspace_filtered_scored_top40percent,openbind_xx01zvns2b_c1_elab_chemspace_filtered_scored_top20percent,openbind_xx01zvns2b_c1_elab_chemspace_filtered_scored_top60percent,openbind_xx01zvns2b_c1_elabs_filtered

>  <smiles>  (91) 
C[C@H](O)CCCC(=O)Nc1cc(Br)cc2nc(O)[nH]c12

>  <subsites>  (91) 
1 - Z4590/B/203/1

>  <gnina_score>  (91) 
5.123

>  <HIPPO Pose ID>  (91) 
68841

>  <ref_mols>  (91) 
Z0846a,Z1597a

>  <energy_score>  (91) 
-23.289774

>  <inspiration_score>  (91) 
None

>  <smina_score_min>  (91) 
-6.96

>  <fragmenstein_error>  (91) 
nan

>  <name>  (91) 
P68841

$$$$
P68882
     RDKit          3D

 19 21  0  0  0  0  0  0  0  0999 V2000
   -6.8362    6.0435  -13.0787 C   0  0  0  0  0  0  0  0  0  0  0  0
   -7.7196    4.8544  -13.4551 C   0  0  2  0  0  0  0  0  0  0  0  0
   -7.7722    3.8345  -12.2939 C   0  0  0  0  0  0  0  0  0  0  0  0
   -8.3264    4.3716  -11.0142 C   0  0  0  0  0  0  0  0  0  0  0  0
   -7.4545    4.5977   -9.8105 C   0  0  0  0  0  0  0  0  0  0  0  0
   -8.4157    3.4408   -9.8328 C   0  0  0  0  0  0  0  0  0  0  0  0
   -7.1326    4.1645  -14.6016 N   0  0  0  0  0  0  0  0  0  0  0  0
   -7.2969    4.5492  -15.9217 C   0  0  0  0  0  0  0  0  0  0  0  0
   -8.4409    4.2869  -16.6705 C   0  0  0  0  0  0  0  0  0  0  0  0
   -8.4182    4.5098  -18.0423 C   0  0  0  0  0  0  0  0  0  0  0  0
   -7.3822    5.0005  -18.7456 N   0  0  0  0  0  0  0  0  0  0  0  0
   -6.2636    5.2443  -18.0296 C   0  0  0  0  0  0  0  0  0  0  0  0
   -5.0461    5.7175  -18.5990 C   0  0  0  0  0  0  0  0  0  0  0  0
   -4.7604    6.0975  -19.9724 C   0  0  0  0  0  0  0  0  0  0  0  0
   -3.6146    6.2560  -20.3838 O   0  0  0  0  0  0  0  0  0  0  0  0
   -5.8239    6.3672  -20.7564 O   0  0  0  0  0  0  0  0  0  0  0  0
   -4.0726    5.7872  -17.6306 C   0  0  0  0  0  0  0  0  0  0  0  0
   -4.6106    5.3960  -16.0731 S   0  0  0  0  0  0  0  0  0  0  0  0
   -6.1924    5.0323  -16.6519 C   0  0  0  0  0  0  0  0  0  0  0  0
  2  1  1  1
  2  3  1  0
  3  4  1  0
  4  5  1  0
  5  6  1  0
  2  7  1  0
  7  8  1  0
  8  9  2  0
  9 10  1  0
 10 11  2  0
 11 12  1  0
 12 13  1  0
 13 14  1  0
 14 15  2  0
 14 16  1  0
 13 17  2  0
 17 18  1  0
 18 19  1  0
  6  4  1  0
 19  8  1  0
 19 12  2  0
M  END
>  <fragmenstein_outcome>  (92) 
nan

>  <exports>  (92) 
['/opt/xchem-fragalysis-2/maxwin/openbind-hippo/xx01zvns2b/cycle_01/syndirella/elabs/openbind_xx01zvns2b_c1_elab_chemspace_filtered.sdf']

>  <Energy>  (92) 
nan

>  <alias>  (92) 
None

>  <fragmenstein_runtime>  (92) 
nan

>  <scratch_subdir>  (92) 
nan

>  <HIPPO Compound ID>  (92) 
137133

>  <rmsd(smina/fragmenstein)>  (92) 
0.732

>  <distance_score>  (92) 
1.990502

>  <orig_smiles>  (92) 
nan

>  <fragmenstein_mode>  (92) 
nan

>  <inchikey>  (92) 
KRNDFKQXBVIMAF-MRVPVSSYSA-N

>  <ref_pdb>  (92) 
Z3515a

>  <GNINA pK>  (92) 
nan

>  <gnina_score_min>  (92) 
5.189

>  <tags>  (92) 
openbind_xx01zvns2b_c1_elab_nonasap_filtered_scored_top80percent,openbind_xx01zvns2b_c1_elab_chemspace_filtered_scored_top80percent,openbind_xx01zvns2b_c1_elab_chemspace_filtered_scored,openbind_xx01zvns2b_c1_elab_chemspace_filtered_scored_top40percent,openbind_xx01zvns2b_c1_elab_chemspace_filtered_scored_top20percent,openbind_xx01zvns2b_c1_elab_chemspace_filtered_scored_top60percent,openbind_xx01zvns2b_c1_elabs_filtered

>  <smiles>  (92) 
C[C@H](CC1CC1)Nc1ccnc2c(C(=O)O)csc12

>  <subsites>  (92) 
1 - Z4590/B/203/1

>  <gnina_score>  (92) 
5.107

>  <HIPPO Pose ID>  (92) 
68882

>  <ref_mols>  (92) 
Z0089a,Z3515a

>  <energy_score>  (92) 
-35.47255

>  <inspiration_score>  (92) 
None

>  <smina_score_min>  (92) 
-5.862

>  <fragmenstein_error>  (92) 
nan

>  <name>  (92) 
P68882

$$$$
P68883
     RDKit          3D

 29 33  0  0  0  0  0  0  0  0999 V2000
   -3.4232    8.8502  -15.3853 O   0  0  0  0  0  0  0  0  0  0  0  0
   -3.2464    8.1399  -14.4786 C   0  0  0  0  0  0  0  0  0  0  0  0
   -2.5960    6.7622  -14.6391 C   0  0  0  0  0  0  0  0  0  0  0  0
   -3.6467    5.6341  -14.7350 C   0  0  2  0  0  0  0  0  0  0  0  0
   -4.6075    5.8411  -15.9036 C   0  0  0  0  0  0  0  0  0  0  0  0
   -5.8551    5.1528  -15.7160 N   0  0  0  0  0  0  0  0  0  0  0  0
   -6.3356    4.8222  -14.4832 C   0  0  0  0  0  0  0  0  0  0  0  0
   -7.5881    4.4648  -14.5249 N   0  0  0  0  0  0  0  0  0  0  0  0
   -7.8921    4.4648  -15.8572 C   0  0  0  0  0  0  0  0  0  0  0  0
   -9.0919    4.1205  -16.4722 C   0  0  0  0  0  0  0  0  0  0  0  0
   -9.1743    4.1395  -17.8584 C   0  0  0  0  0  0  0  0  0  0  0  0
   -8.0666    4.4930  -18.6214 C   0  0  0  0  0  0  0  0  0  0  0  0
   -6.8620    4.8967  -18.0352 C   0  0  0  0  0  0  0  0  0  0  0  0
   -6.8118    4.8631  -16.6415 C   0  0  0  0  0  0  0  0  0  0  0  0
   -5.5817    4.9062  -13.3615 N   0  0  0  0  0  0  0  0  0  0  0  0
   -4.3200    5.3951  -13.3853 C   0  0  0  0  0  0  0  0  0  0  0  0
   -3.6947    5.5800  -12.3364 O   0  0  0  0  0  0  0  0  0  0  0  0
   -3.6619    8.2834  -13.0010 N   0  0  0  0  0  0  0  0  0  0  0  0
   -4.4644    9.2855  -12.3478 C   0  0  0  0  0  0  0  0  0  0  0  0
   -5.4702    8.5359  -11.5395 C   0  0  0  0  0  0  0  0  0  0  0  0
   -6.4760    7.8277  -12.1766 N   0  0  0  0  0  0  0  0  0  0  0  0
   -7.0341    7.0825  -11.2447 C   0  0  0  0  0  0  0  0  0  0  0  0
   -8.0200    6.0576  -11.3246 C   0  0  0  0  0  0  0  0  0  0  0  0
   -8.3386    5.3496  -10.2246 C   0  0  0  0  0  0  0  0  0  0  0  0
   -7.7451    5.6407   -8.9312 C   0  0  0  0  0  0  0  0  0  0  0  0
   -6.8293    6.6195   -8.8432 C   0  0  0  0  0  0  0  0  0  0  0  0
   -6.4680    7.3225   -9.9949 N   0  0  0  0  0  0  0  0  0  0  0  0
   -5.5018    8.2826  -10.1827 C   0  0  0  0  0  0  0  0  0  0  0  0
   -4.3325    9.0050   -8.8664 Br  0  0  0  0  0  0  0  0  0  0  0  0
  1  2  2  0
  2  3  1  0
  4  3  1  1
  4  5  1  0
  5  6  1  0
  6  7  1  0
  7  8  2  0
  8  9  1  0
  9 10  2  0
 10 11  1  0
 11 12  2  0
 12 13  1  0
 13 14  2  0
  7 15  1  0
 15 16  1  0
 16 17  2  0
  2 18  1  0
 18 19  1  0
 19 20  1  0
 20 21  1  0
 21 22  2  0
 22 23  1  0
 23 24  2  0
 24 25  1  0
 25 26  2  0
 26 27  1  0
 27 28  1  0
 28 29  1  0
 16  4  1  0
 28 20  2  0
 14  6  1  0
 27 22  1  0
 14  9  1  0
M  END
>  <fragmenstein_outcome>  (93) 
nan

>  <exports>  (93) 
['/opt/xchem-fragalysis-2/maxwin/openbind-hippo/xx01zvns2b/cycle_01/syndirella/elabs/openbind_xx01zvns2b_c1_elab_chemspace_filtered.sdf']

>  <Energy>  (93) 
nan

>  <alias>  (93) 
None

>  <fragmenstein_runtime>  (93) 
nan

>  <scratch_subdir>  (93) 
nan

>  <HIPPO Compound ID>  (93) 
137187

>  <rmsd(smina/fragmenstein)>  (93) 
0.856

>  <distance_score>  (93) 
1.527325

>  <orig_smiles>  (93) 
nan

>  <fragmenstein_mode>  (93) 
nan

>  <inchikey>  (93) 
GSUZGQRVSHIQTP-GFCCVEGCSA-N

>  <ref_pdb>  (93) 
Z1688a

>  <GNINA pK>  (93) 
nan

>  <gnina_score_min>  (93) 
5.63

>  <tags>  (93) 
openbind_xx01zvns2b_c1_elab_nonasap_filtered_scored_top80percent,openbind_xx01zvns2b_c1_elab_chemspace_filtered_scored_top80percent,openbind_xx01zvns2b_c1_elab_chemspace_filtered_scored,openbind_xx01zvns2b_c1_elab_chemspace_filtered_scored_top40percent,openbind_xx01zvns2b_c1_elab_chemspace_filtered_scored_top20percent,openbind_xx01zvns2b_c1_elab_chemspace_filtered_scored_top60percent,openbind_xx01zvns2b_c1_elabs_filtered

>  <smiles>  (93) 
O=C(C[C@@H]1Cn2c(nc3ccccc32)NC1=O)NCc1nc2ccccn2c1Br

>  <subsites>  (93) 
1 - Z4590/B/203/1

>  <gnina_score>  (93) 
5.558

>  <HIPPO Pose ID>  (93) 
68883

>  <ref_mols>  (93) 
Z1688a,Z1716a

>  <energy_score>  (93) 
-29.227346

>  <inspiration_score>  (93) 
None

>  <smina_score_min>  (93) 
-5.534

>  <fragmenstein_error>  (93) 
nan

>  <name>  (93) 
P68883

$$$$
P68885
     RDKit          3D

 27 30  0  0  0  0  0  0  0  0999 V2000
   -5.3462    6.0152  -11.4836 C   0  0  0  0  0  0  0  0  0  0  0  0
   -6.6112    5.6590  -12.1250 N   0  0  0  0  0  0  0  0  0  0  0  0
   -6.5035    4.3564  -12.7910 C   0  0  0  0  0  0  0  0  0  0  0  0
   -7.8144    3.9096  -13.4307 C   0  0  0  0  0  0  0  0  0  0  0  0
   -8.4724    4.9679  -14.3216 C   0  0  0  0  0  0  0  0  0  0  0  0
   -8.0441    4.9215  -15.7403 N   0  0  0  0  0  0  0  0  0  0  0  0
   -6.7339    5.2698  -16.2020 C   0  0  0  0  0  0  0  0  0  0  0  0
   -6.6215    4.6189  -17.5805 C   0  0  2  0  0  0  0  0  0  0  0  0
   -5.6208    5.2581  -18.3860 N   0  0  0  0  0  0  0  0  0  0  0  0
   -5.2032    5.0093  -19.8592 C   0  0  0  0  0  0  0  0  0  0  0  0
   -5.6608    4.3000  -20.6655 O   0  0  0  0  0  0  0  0  0  0  0  0
   -4.0532    5.8969  -20.2044 C   0  0  0  0  0  0  0  0  0  0  0  0
   -3.9256    7.1510  -19.5823 C   0  0  0  0  0  0  0  0  0  0  0  0
   -2.7660    7.9253  -19.7202 C   0  0  0  0  0  0  0  0  0  0  0  0
   -2.6440    9.5736  -18.7960 Br  0  0  0  0  0  0  0  0  0  0  0  0
   -1.7289    7.5356  -20.5520 C   0  0  0  0  0  0  0  0  0  0  0  0
   -1.9211    6.3575  -21.2294 C   0  0  0  0  0  0  0  0  0  0  0  0
   -1.0690    5.7730  -22.1453 N   0  0  0  0  0  0  0  0  0  0  0  0
   -1.6535    4.6023  -22.6135 C   0  0  0  0  0  0  0  0  0  0  0  0
   -1.1990    3.9090  -23.5061 O   0  0  0  0  0  0  0  0  0  0  0  0
   -2.8600    4.4486  -21.9165 N   0  0  0  0  0  0  0  0  0  0  0  0
   -3.0482    5.5419  -21.0770 C   0  0  0  0  0  0  0  0  0  0  0  0
   -8.0427    4.6441  -18.0988 C   0  0  0  0  0  0  0  0  0  0  0  0
   -8.8251    4.4563  -16.8150 C   0  0  0  0  0  0  0  0  0  0  0  0
   -9.9531    3.9999  -16.7693 O   0  0  0  0  0  0  0  0  0  0  0  0
   -8.3871    6.3547  -13.6558 C   0  0  0  0  0  0  0  0  0  0  0  0
   -7.0280    6.6937  -13.0636 C   0  0  0  0  0  0  0  0  0  0  0  0
  1  2  1  0
  2  3  1  0
  3  4  1  0
  4  5  1  0
  5  6  1  0
  6  7  1  0
  7  8  1  0
  8  9  1  6
  9 10  1  0
 10 11  2  0
 10 12  1  0
 12 13  2  0
 13 14  1  0
 14 15  1  0
 14 16  2  0
 16 17  1  0
 17 18  1  0
 18 19  1  0
 19 20  2  0
 19 21  1  0
 21 22  1  0
  8 23  1  0
 23 24  1  0
 24 25  2  0
  5 26  1  0
 26 27  1  0
 27  2  1  0
 24  6  1  0
 22 12  1  0
 22 17  2  0
M  END
>  <fragmenstein_outcome>  (94) 
nan

>  <exports>  (94) 
['/opt/xchem-fragalysis-2/maxwin/openbind-hippo/xx01zvns2b/cycle_01/syndirella/elabs/openbind_xx01zvns2b_c1_elab_chemspace_filtered.sdf']

>  <Energy>  (94) 
nan

>  <alias>  (94) 
None

>  <fragmenstein_runtime>  (94) 
nan

>  <scratch_subdir>  (94) 
nan

>  <HIPPO Compound ID>  (94) 
137318

>  <rmsd(smina/fragmenstein)>  (94) 
0.969

>  <distance_score>  (94) 
1.88601

>  <orig_smiles>  (94) 
nan

>  <fragmenstein_mode>  (94) 
nan

>  <inchikey>  (94) 
GJQDYNYWLAOEHW-LLVKDONJSA-N

>  <ref_pdb>  (94) 
Z0852a

>  <GNINA pK>  (94) 
nan

>  <gnina_score_min>  (94) 
5.228

>  <tags>  (94) 
openbind_xx01zvns2b_c1_elab_nonasap_filtered_scored_top80percent,openbind_xx01zvns2b_c1_elab_chemspace_filtered_scored_top80percent,openbind_xx01zvns2b_c1_elab_chemspace_filtered_scored,openbind_xx01zvns2b_c1_elab_chemspace_filtered_scored_top40percent,openbind_xx01zvns2b_c1_elab_chemspace_filtered_scored_top20percent,openbind_xx01zvns2b_c1_elab_chemspace_filtered_scored_top60percent,openbind_xx01zvns2b_c1_elabs_filtered

>  <smiles>  (94) 
CN1CCC(N2C[C@H](NC(=O)c3cc(Br)cc4[nH]c(=O)[nH]c34)CC2=O)CC1

>  <subsites>  (94) 
1 - Z4590/B/203/1

>  <gnina_score>  (94) 
5.457

>  <HIPPO Pose ID>  (94) 
68885

>  <ref_mols>  (94) 
Z1688a,Z0852a

>  <energy_score>  (94) 
-24.831188

>  <inspiration_score>  (94) 
None

>  <smina_score_min>  (94) 
-6.592

>  <fragmenstein_error>  (94) 
nan

>  <name>  (94) 
P68885

$$$$
P68886
     RDKit          3D

 27 30  0  0  0  0  0  0  0  0999 V2000
   -6.5058    5.5023  -10.5670 C   0  0  0  0  0  0  0  0  0  0  0  0
   -6.8379    5.3810  -11.9836 N   0  0  0  0  0  0  0  0  0  0  0  0
   -6.8186    6.6895  -12.6459 C   0  0  0  0  0  0  0  0  0  0  0  0
   -7.5882    6.7247  -13.9760 C   0  0  0  0  0  0  0  0  0  0  0  0
   -7.6653    5.3345  -14.6426 C   0  0  0  0  0  0  0  0  0  0  0  0
   -8.2899    5.3363  -16.0051 N   0  0  0  0  0  0  0  0  0  0  0  0
   -9.0719    4.2448  -16.5298 C   0  0  0  0  0  0  0  0  0  0  0  0
   -8.4399    3.9141  -17.8671 C   0  0  0  0  0  0  0  0  0  0  0  0
   -7.9846    5.2268  -18.4101 C   0  0  2  0  0  0  0  0  0  0  0  0
   -6.6623    5.2658  -18.9686 N   0  0  0  0  0  0  0  0  0  0  0  0
   -6.0595    4.5081  -20.1573 C   0  0  0  0  0  0  0  0  0  0  0  0
   -6.5567    3.7882  -20.9236 O   0  0  0  0  0  0  0  0  0  0  0  0
   -4.6029    4.7884  -20.1077 C   0  0  0  0  0  0  0  0  0  0  0  0
   -3.9913    4.7181  -18.8426 C   0  0  0  0  0  0  0  0  0  0  0  0
   -2.6857    5.1596  -18.6412 C   0  0  0  0  0  0  0  0  0  0  0  0
   -2.1952    5.5219  -16.8572 Br  0  0  0  0  0  0  0  0  0  0  0  0
   -1.8658    5.4846  -19.7155 C   0  0  0  0  0  0  0  0  0  0  0  0
   -2.4652    5.4653  -20.9584 C   0  0  0  0  0  0  0  0  0  0  0  0
   -1.9184    5.8079  -22.1847 N   0  0  0  0  0  0  0  0  0  0  0  0
   -2.9360    5.7996  -23.1403 C   0  0  0  0  0  0  0  0  0  0  0  0
   -2.8286    6.0829  -24.3206 O   0  0  0  0  0  0  0  0  0  0  0  0
   -4.1158    5.4399  -22.4812 N   0  0  0  0  0  0  0  0  0  0  0  0
   -3.8197    5.1803  -21.1541 C   0  0  0  0  0  0  0  0  0  0  0  0
   -7.6072    5.8888  -17.0840 C   0  0  0  0  0  0  0  0  0  0  0  0
   -6.7278    6.7379  -17.0208 O   0  0  0  0  0  0  0  0  0  0  0  0
   -8.3478    4.3828  -13.6503 C   0  0  0  0  0  0  0  0  0  0  0  0
   -8.1203    4.7133  -12.1735 C   0  0  0  0  0  0  0  0  0  0  0  0
  1  2  1  0
  2  3  1  0
  3  4  1  0
  4  5  1  0
  5  6  1  0
  6  7  1  0
  7  8  1  0
  8  9  1  0
  9 10  1  6
 10 11  1  0
 11 12  2  0
 11 13  1  0
 13 14  2  0
 14 15  1  0
 15 16  1  0
 15 17  2  0
 17 18  1  0
 18 19  1  0
 19 20  1  0
 20 21  2  0
 20 22  1  0
 22 23  1  0
  9 24  1  0
 24 25  2  0
  5 26  1  0
 26 27  1  0
 27  2  1  0
 24  6  1  0
 23 13  1  0
 23 18  2  0
M  END
>  <fragmenstein_outcome>  (95) 
nan

>  <exports>  (95) 
['/opt/xchem-fragalysis-2/maxwin/openbind-hippo/xx01zvns2b/cycle_01/syndirella/elabs/openbind_xx01zvns2b_c1_elab_chemspace_filtered.sdf']

>  <Energy>  (95) 
nan

>  <alias>  (95) 
None

>  <fragmenstein_runtime>  (95) 
nan

>  <scratch_subdir>  (95) 
nan

>  <HIPPO Compound ID>  (95) 
137325

>  <rmsd(smina/fragmenstein)>  (95) 
1.207

>  <distance_score>  (95) 
1.917161

>  <orig_smiles>  (95) 
nan

>  <fragmenstein_mode>  (95) 
nan

>  <inchikey>  (95) 
WAIVONJUWNTNLC-ZDUSSCGKSA-N

>  <ref_pdb>  (95) 
Z0852a

>  <GNINA pK>  (95) 
nan

>  <gnina_score_min>  (95) 
5.596

>  <tags>  (95) 
openbind_xx01zvns2b_c1_elab_nonasap_filtered_scored_top80percent,openbind_xx01zvns2b_c1_elab_chemspace_filtered_scored_top80percent,openbind_xx01zvns2b_c1_elab_chemspace_filtered_scored,openbind_xx01zvns2b_c1_elab_chemspace_filtered_scored_top40percent,openbind_xx01zvns2b_c1_elab_chemspace_filtered_scored_top20percent,openbind_xx01zvns2b_c1_elab_chemspace_filtered_scored_top60percent,openbind_xx01zvns2b_c1_elabs_filtered

>  <smiles>  (95) 
CN1CCC(N2CC[C@H](NC(=O)c3cc(Br)cc4[nH]c(=O)[nH]c34)C2=O)CC1

>  <subsites>  (95) 
1 - Z4590/B/203/1

>  <gnina_score>  (95) 
5.676

>  <HIPPO Pose ID>  (95) 
68886

>  <ref_mols>  (95) 
Z0852a,Z1688a

>  <energy_score>  (95) 
-2.2088

>  <inspiration_score>  (95) 
None

>  <smina_score_min>  (95) 
-6.888

>  <fragmenstein_error>  (95) 
nan

>  <name>  (95) 
P68886

$$$$
P68887
     RDKit          3D

 32 36  0  0  0  0  0  0  0  0999 V2000
   -7.0584    3.3092  -13.4370 O   0  0  0  0  0  0  0  0  0  0  0  0
   -6.7746    4.2866  -12.7580 C   0  0  0  0  0  0  0  0  0  0  0  0
   -5.6228    5.1739  -13.0912 C   0  0  0  0  0  0  0  0  0  0  0  0
   -6.2155    6.5278  -13.4514 C   0  0  0  0  0  0  0  0  0  0  0  0
   -7.0243    6.4289  -14.6787 N   0  0  0  0  0  0  0  0  0  0  0  0
   -6.3522    6.2818  -15.9737 C   0  0  0  0  0  0  0  0  0  0  0  0
   -7.3372    5.5537  -16.8162 C   0  0  0  0  0  0  0  0  0  0  0  0
   -7.3719    5.2174  -18.1535 C   0  0  0  0  0  0  0  0  0  0  0  0
   -6.4238    5.5630  -19.0981 N   0  0  0  0  0  0  0  0  0  0  0  0
   -5.0843    6.2980  -18.9450 C   0  0  0  0  0  0  0  0  0  0  0  0
   -4.5998    6.7978  -18.0123 O   0  0  0  0  0  0  0  0  0  0  0  0
   -4.3491    6.2167  -20.2017 C   0  0  0  0  0  0  0  0  0  0  0  0
   -4.7664    6.8621  -21.3511 C   0  0  0  0  0  0  0  0  0  0  0  0
   -4.0529    6.6649  -22.5459 C   0  0  0  0  0  0  0  0  0  0  0  0
   -4.6740    7.5322  -24.1144 Br  0  0  0  0  0  0  0  0  0  0  0  0
   -2.9261    5.8425  -22.6346 C   0  0  0  0  0  0  0  0  0  0  0  0
   -2.5721    5.2000  -21.4806 C   0  0  0  0  0  0  0  0  0  0  0  0
   -1.5875    4.2562  -21.2437 N   0  0  0  0  0  0  0  0  0  0  0  0
   -1.7393    3.7759  -19.9422 C   0  0  0  0  0  0  0  0  0  0  0  0
   -1.1889    2.8189  -19.4386 O   0  0  0  0  0  0  0  0  0  0  0  0
   -2.7341    4.5318  -19.3366 N   0  0  0  0  0  0  0  0  0  0  0  0
   -3.2733    5.3781  -20.2926 C   0  0  0  0  0  0  0  0  0  0  0  0
   -8.4596    4.4694  -18.6404 C   0  0  0  0  0  0  0  0  0  0  0  0
   -9.4767    4.0343  -17.7957 C   0  0  0  0  0  0  0  0  0  0  0  0
   -9.4296    4.3686  -16.4565 C   0  0  0  0  0  0  0  0  0  0  0  0
   -8.4079    5.1785  -16.0194 C   0  0  0  0  0  0  0  0  0  0  0  0
   -8.2767    5.8142  -14.7139 C   0  0  0  0  0  0  0  0  0  0  0  0
   -9.1301    5.7901  -13.8465 O   0  0  0  0  0  0  0  0  0  0  0  0
   -6.9324    7.0985  -12.2208 C   0  0  0  0  0  0  0  0  0  0  0  0
   -7.6772    6.0639  -11.3976 C   0  0  0  0  0  0  0  0  0  0  0  0
   -8.3695    6.3956  -10.4387 O   0  0  0  0  0  0  0  0  0  0  0  0
   -7.5130    4.7417  -11.7033 N   0  0  0  0  0  0  0  0  0  0  0  0
  1  2  2  0
  2  3  1  0
  3  4  1  0
  4  5  1  0
  5  6  1  0
  6  7  1  0
  7  8  2  0
  8  9  1  0
  9 10  1  0
 10 11  2  0
 10 12  1  0
 12 13  2  0
 13 14  1  0
 14 15  1  0
 14 16  2  0
 16 17  1  0
 17 18  1  0
 18 19  1  0
 19 20  2  0
 19 21  1  0
 21 22  1  0
  8 23  1  0
 23 24  2  0
 24 25  1  0
 25 26  2  0
 26 27  1  0
 27 28  2  0
  4 29  1  0
 29 30  1  0
 30 31  2  0
 30 32  1  0
 32  2  1  0
 27  5  1  0
 26  7  1  0
 22 12  1  0
 22 17  2  0
M  END
>  <fragmenstein_outcome>  (96) 
nan

>  <exports>  (96) 
['/opt/xchem-fragalysis-2/maxwin/openbind-hippo/xx01zvns2b/cycle_01/syndirella/elabs/openbind_xx01zvns2b_c1_elab_chemspace_filtered.sdf']

>  <Energy>  (96) 
nan

>  <alias>  (96) 
None

>  <fragmenstein_runtime>  (96) 
nan

>  <scratch_subdir>  (96) 
nan

>  <HIPPO Compound ID>  (96) 
137392

>  <rmsd(smina/fragmenstein)>  (96) 
0.61

>  <distance_score>  (96) 
1.975128

>  <orig_smiles>  (96) 
nan

>  <fragmenstein_mode>  (96) 
nan

>  <inchikey>  (96) 
XOARMBKXLWNZKQ-UHFFFAOYSA-N

>  <ref_pdb>  (96) 
Z0852a

>  <GNINA pK>  (96) 
nan

>  <gnina_score_min>  (96) 
6.062

>  <tags>  (96) 
openbind_xx01zvns2b_c1_elab_nonasap_filtered_scored_top80percent,openbind_xx01zvns2b_c1_elab_chemspace_filtered_scored_top80percent,openbind_xx01zvns2b_c1_elab_chemspace_filtered_scored,openbind_xx01zvns2b_c1_elab_chemspace_filtered_scored_top40percent,openbind_xx01zvns2b_c1_elab_chemspace_filtered_scored_top20percent,openbind_xx01zvns2b_c1_elab_chemspace_filtered_scored_top60percent,openbind_xx01zvns2b_c1_elabs_filtered

>  <smiles>  (96) 
O=C1CC(N2Cc3c(NC(=O)c4cc(Br)cc5[nH]c(=O)[nH]c45)cccc3C2=O)CC(=O)N1

>  <subsites>  (96) 
1 - Z4590/B/203/1

>  <gnina_score>  (96) 
5.902

>  <HIPPO Pose ID>  (96) 
68887

>  <ref_mols>  (96) 
Z0852a,Z1688a

>  <energy_score>  (96) 
-34.417451

>  <inspiration_score>  (96) 
None

>  <smina_score_min>  (96) 
-8.339

>  <fragmenstein_error>  (96) 
nan

>  <name>  (96) 
P68887

$$$$
P68888
     RDKit          3D

 32 36  0  0  0  0  0  0  0  0999 V2000
   -5.2660    7.7623  -20.7402 C   0  0  0  0  0  0  0  0  0  0  0  0
   -4.3403    6.8184  -21.2938 N   0  0  0  0  0  0  0  0  0  0  0  0
   -3.8864    6.8277  -22.6236 C   0  0  0  0  0  0  0  0  0  0  0  0
   -4.2765    7.5335  -23.5388 O   0  0  0  0  0  0  0  0  0  0  0  0
   -2.8757    5.8707  -22.7165 N   0  0  0  0  0  0  0  0  0  0  0  0
   -2.6803    5.3148  -21.4674 C   0  0  0  0  0  0  0  0  0  0  0  0
   -1.7626    4.3659  -21.1016 C   0  0  0  0  0  0  0  0  0  0  0  0
   -1.7413    3.9808  -19.7612 C   0  0  0  0  0  0  0  0  0  0  0  0
   -2.6354    4.5368  -18.8400 C   0  0  0  0  0  0  0  0  0  0  0  0
   -3.5660    5.4953  -19.2523 C   0  0  0  0  0  0  0  0  0  0  0  0
   -4.6101    5.8394  -18.2846 C   0  0  0  0  0  0  0  0  0  0  0  0
   -4.3885    6.5195  -17.3657 O   0  0  0  0  0  0  0  0  0  0  0  0
   -5.8880    5.0777  -18.6771 N   0  0  0  0  0  0  0  0  0  0  0  0
   -7.0851    4.9211  -18.0008 C   0  0  0  0  0  0  0  0  0  0  0  0
   -8.0962    4.2682  -18.7223 C   0  0  0  0  0  0  0  0  0  0  0  0
   -9.3135    3.9386  -18.1333 C   0  0  0  0  0  0  0  0  0  0  0  0
   -9.5367    4.2440  -16.8087 C   0  0  0  0  0  0  0  0  0  0  0  0
   -8.5575    4.9253  -16.1267 C   0  0  0  0  0  0  0  0  0  0  0  0
   -7.3381    5.2856  -16.6953 C   0  0  0  0  0  0  0  0  0  0  0  0
   -6.5503    6.0487  -15.6937 C   0  0  0  0  0  0  0  0  0  0  0  0
   -7.4873    6.2043  -14.5791 N   0  0  0  0  0  0  0  0  0  0  0  0
   -7.2791    7.2313  -13.5596 C   0  0  0  0  0  0  0  0  0  0  0  0
   -8.4055    7.4633  -12.5489 C   0  0  0  0  0  0  0  0  0  0  0  0
   -8.3555    6.4903  -11.3915 C   0  0  0  0  0  0  0  0  0  0  0  0
   -8.9849    6.6812  -10.3533 O   0  0  0  0  0  0  0  0  0  0  0  0
   -7.4528    5.4821  -11.5001 N   0  0  0  0  0  0  0  0  0  0  0  0
   -6.1906    5.7805  -11.9096 C   0  0  0  0  0  0  0  0  0  0  0  0
   -5.2199    5.1558  -11.5046 O   0  0  0  0  0  0  0  0  0  0  0  0
   -6.0073    6.9992  -12.7647 C   0  0  0  0  0  0  0  0  0  0  0  0
   -8.6643    5.5104  -14.7948 C   0  0  0  0  0  0  0  0  0  0  0  0
   -9.6496    5.4499  -14.0840 O   0  0  0  0  0  0  0  0  0  0  0  0
   -3.5795    5.8876  -20.5732 C   0  0  0  0  0  0  0  0  0  0  0  0
  1  2  1  0
  2  3  1  0
  3  4  2  0
  3  5  1  0
  5  6  1  0
  6  7  2  0
  7  8  1  0
  8  9  2  0
  9 10  1  0
 10 11  1  0
 11 12  2  0
 11 13  1  0
 13 14  1  0
 14 15  2  0
 15 16  1  0
 16 17  2  0
 17 18  1  0
 18 19  2  0
 19 20  1  0
 20 21  1  0
 21 22  1  0
 22 23  1  0
 23 24  1  0
 24 25  2  0
 24 26  1  0
 26 27  1  0
 27 28  2  0
 27 29  1  0
 21 30  1  0
 30 31  2  0
 10 32  2  0
 32  2  1  0
 32  6  1  0
 19 14  1  0
 29 22  1  0
 30 18  1  0
M  END
>  <fragmenstein_outcome>  (97) 
nan

>  <exports>  (97) 
['/opt/xchem-fragalysis-2/maxwin/openbind-hippo/xx01zvns2b/cycle_01/syndirella/elabs/openbind_xx01zvns2b_c1_elab_chemspace_filtered.sdf']

>  <Energy>  (97) 
nan

>  <alias>  (97) 
None

>  <fragmenstein_runtime>  (97) 
nan

>  <scratch_subdir>  (97) 
nan

>  <HIPPO Compound ID>  (97) 
137395

>  <rmsd(smina/fragmenstein)>  (97) 
0.887

>  <distance_score>  (97) 
1.945549

>  <orig_smiles>  (97) 
nan

>  <fragmenstein_mode>  (97) 
nan

>  <inchikey>  (97) 
XVQHEKLKPBMJPJ-UHFFFAOYSA-N

>  <ref_pdb>  (97) 
Z0852a

>  <GNINA pK>  (97) 
nan

>  <gnina_score_min>  (97) 
5.902

>  <tags>  (97) 
openbind_xx01zvns2b_c1_elab_nonasap_filtered_scored_top80percent,openbind_xx01zvns2b_c1_elab_chemspace_filtered_scored_top80percent,openbind_xx01zvns2b_c1_elab_chemspace_filtered_scored,openbind_xx01zvns2b_c1_elab_chemspace_filtered_scored_top40percent,openbind_xx01zvns2b_c1_elab_chemspace_filtered_scored_top20percent,openbind_xx01zvns2b_c1_elab_chemspace_filtered_scored_top60percent,openbind_xx01zvns2b_c1_elabs_filtered

>  <smiles>  (97) 
Cn1c(=O)[nH]c2cccc(C(=O)Nc3cccc4c3CN(C3CC(=O)NC(=O)C3)C4=O)c21

>  <subsites>  (97) 
1 - Z4590/B/203/1

>  <gnina_score>  (97) 
5.749

>  <HIPPO Pose ID>  (97) 
68888

>  <ref_mols>  (97) 
Z1688a,Z0852a

>  <energy_score>  (97) 
-43.355175

>  <inspiration_score>  (97) 
None

>  <smina_score_min>  (97) 
-8.475

>  <fragmenstein_error>  (97) 
nan

>  <name>  (97) 
P68888

$$$$
P68889
     RDKit          3D

 32 36  0  0  0  0  0  0  0  0999 V2000
   -0.4285    6.0217  -23.3190 C   0  0  0  0  0  0  0  0  0  0  0  0
   -1.7397    5.8883  -22.7550 N   0  0  0  0  0  0  0  0  0  0  0  0
   -2.9481    5.9644  -23.4625 C   0  0  0  0  0  0  0  0  0  0  0  0
   -3.1084    6.2300  -24.6424 O   0  0  0  0  0  0  0  0  0  0  0  0
   -3.9690    5.6767  -22.5531 N   0  0  0  0  0  0  0  0  0  0  0  0
   -3.3957    5.3557  -21.3303 C   0  0  0  0  0  0  0  0  0  0  0  0
   -3.9700    4.9343  -20.1589 C   0  0  0  0  0  0  0  0  0  0  0  0
   -5.4182    4.6583  -20.0886 C   0  0  0  0  0  0  0  0  0  0  0  0
   -5.9637    4.1592  -20.9931 O   0  0  0  0  0  0  0  0  0  0  0  0
   -5.9468    5.0442  -18.6880 N   0  0  0  0  0  0  0  0  0  0  0  0
   -7.1749    4.8207  -18.1010 C   0  0  0  0  0  0  0  0  0  0  0  0
   -8.2089    4.2053  -18.8004 C   0  0  0  0  0  0  0  0  0  0  0  0
   -9.4092    3.8997  -18.1624 C   0  0  0  0  0  0  0  0  0  0  0  0
   -9.5893    4.1981  -16.8265 C   0  0  0  0  0  0  0  0  0  0  0  0
   -8.5804    4.8479  -16.1670 C   0  0  0  0  0  0  0  0  0  0  0  0
   -7.3802    5.1728  -16.7810 C   0  0  0  0  0  0  0  0  0  0  0  0
   -6.5249    5.9178  -15.8251 C   0  0  0  0  0  0  0  0  0  0  0  0
   -7.4270    6.1535  -14.7022 N   0  0  0  0  0  0  0  0  0  0  0  0
   -7.1485    7.1761  -13.6963 C   0  0  0  0  0  0  0  0  0  0  0  0
   -5.9684    6.8230  -12.8131 C   0  0  0  0  0  0  0  0  0  0  0  0
   -6.3537    5.7148  -11.8806 C   0  0  0  0  0  0  0  0  0  0  0  0
   -5.4902    5.0172  -11.3669 O   0  0  0  0  0  0  0  0  0  0  0  0
   -7.6612    5.6113  -11.5291 N   0  0  0  0  0  0  0  0  0  0  0  0
   -8.4284    6.7304  -11.5533 C   0  0  0  0  0  0  0  0  0  0  0  0
   -9.0821    7.0889  -10.5763 O   0  0  0  0  0  0  0  0  0  0  0  0
   -8.3069    7.5956  -12.7885 C   0  0  0  0  0  0  0  0  0  0  0  0
   -8.6188    5.4556  -14.8414 C   0  0  0  0  0  0  0  0  0  0  0  0
   -9.5693    5.4255  -14.0831 O   0  0  0  0  0  0  0  0  0  0  0  0
   -3.1203    4.6801  -19.0693 C   0  0  0  0  0  0  0  0  0  0  0  0
   -1.7377    4.8833  -19.1783 C   0  0  0  0  0  0  0  0  0  0  0  0
   -1.1653    5.2873  -20.3852 C   0  0  0  0  0  0  0  0  0  0  0  0
   -2.0180    5.5084  -21.4437 C   0  0  0  0  0  0  0  0  0  0  0  0
  1  2  1  0
  2  3  1  0
  3  4  2  0
  3  5  1  0
  5  6  1  0
  6  7  2  0
  7  8  1  0
  8  9  2  0
  8 10  1  0
 10 11  1  0
 11 12  2  0
 12 13  1  0
 13 14  2  0
 14 15  1  0
 15 16  2  0
 16 17  1  0
 17 18  1  0
 18 19  1  0
 19 20  1  0
 20 21  1  0
 21 22  2  0
 21 23  1  0
 23 24  1  0
 24 25  2  0
 24 26  1  0
 18 27  1  0
 27 28  2  0
  7 29  1  0
 29 30  2  0
 30 31  1  0
 31 32  2  0
 32  2  1  0
 32  6  1  0
 16 11  1  0
 26 19  1  0
 27 15  1  0
M  END
>  <fragmenstein_outcome>  (98) 
nan

>  <exports>  (98) 
['/opt/xchem-fragalysis-2/maxwin/openbind-hippo/xx01zvns2b/cycle_01/syndirella/elabs/openbind_xx01zvns2b_c1_elab_chemspace_filtered.sdf']

>  <Energy>  (98) 
nan

>  <alias>  (98) 
None

>  <fragmenstein_runtime>  (98) 
nan

>  <scratch_subdir>  (98) 
nan

>  <HIPPO Compound ID>  (98) 
137399

>  <rmsd(smina/fragmenstein)>  (98) 
0.762

>  <distance_score>  (98) 
1.529026

>  <orig_smiles>  (98) 
nan

>  <fragmenstein_mode>  (98) 
nan

>  <inchikey>  (98) 
YOPHAACLXCFPRY-UHFFFAOYSA-N

>  <ref_pdb>  (98) 
Z0852a

>  <GNINA pK>  (98) 
nan

>  <gnina_score_min>  (98) 
5.692

>  <tags>  (98) 
openbind_xx01zvns2b_c1_elab_nonasap_filtered_scored_top80percent,openbind_xx01zvns2b_c1_elab_chemspace_filtered_scored_top80percent,openbind_xx01zvns2b_c1_elab_chemspace_filtered_scored,openbind_xx01zvns2b_c1_elab_chemspace_filtered_scored_top40percent,openbind_xx01zvns2b_c1_elab_chemspace_filtered_scored_top20percent,openbind_xx01zvns2b_c1_elab_chemspace_filtered_scored_top60percent,openbind_xx01zvns2b_c1_elabs_filtered

>  <smiles>  (98) 
Cn1c(=O)[nH]c2c(C(=O)Nc3cccc4c3CN(C3CC(=O)NC(=O)C3)C4=O)cccc21

>  <subsites>  (98) 
1 - Z4590/B/203/1

>  <gnina_score>  (98) 
5.423

>  <HIPPO Pose ID>  (98) 
68889

>  <ref_mols>  (98) 
Z1688a,Z0852a

>  <energy_score>  (98) 
-34.41386

>  <inspiration_score>  (98) 
None

>  <smina_score_min>  (98) 
-8.711

>  <fragmenstein_error>  (98) 
nan

>  <name>  (98) 
P68889

$$$$
P68893
     RDKit          3D

 26 29  0  0  0  0  0  0  0  0999 V2000
   -8.7809    6.7051  -10.4794 O   0  0  0  0  0  0  0  0  0  0  0  0
   -8.5007    5.6046  -10.9452 C   0  0  0  0  0  0  0  0  0  0  0  0
   -8.0177    4.4479  -10.1109 C   0  0  0  0  0  0  0  0  0  0  0  0
   -8.2395    3.1320  -10.8339 C   0  0  0  0  0  0  0  0  0  0  0  0
   -7.5753    3.1106  -12.2092 C   0  0  0  0  0  0  0  0  0  0  0  0
   -7.6247    4.4640  -12.9594 C   0  0  1  0  0  0  0  0  0  0  0  0
   -6.2339    5.1251  -12.9326 C   0  0  0  0  0  0  0  0  0  0  0  0
   -6.2036    6.4474  -13.7014 C   0  0  0  0  0  0  0  0  0  0  0  0
   -7.2046    6.5555  -14.8398 C   0  0  0  0  0  0  0  0  0  0  0  0
   -7.5795    5.2737  -15.3758 N   0  0  0  0  0  0  0  0  0  0  0  0
   -7.5433    5.0383  -16.7344 C   0  0  0  0  0  0  0  0  0  0  0  0
   -8.5218    5.2561  -17.4415 O   0  0  0  0  0  0  0  0  0  0  0  0
   -6.2428    4.5512  -17.3488 C   0  0  2  0  0  0  0  0  0  0  0  0
   -5.0388    4.5144  -16.4096 C   0  0  0  0  0  0  0  0  0  0  0  0
   -4.2197    5.7836  -16.5412 C   0  0  0  0  0  0  0  0  0  0  0  0
   -3.6082    5.8499  -17.9351 C   0  0  0  0  0  0  0  0  0  0  0  0
   -4.4893    5.2083  -18.9321 N   0  0  0  0  0  0  0  0  0  0  0  0
   -3.9722    5.2723  -20.2249 C   0  0  0  0  0  0  0  0  0  0  0  0
   -2.6831    4.7804  -20.4718 C   0  0  0  0  0  0  0  0  0  0  0  0
   -2.1183    4.9173  -21.7255 C   0  0  0  0  0  0  0  0  0  0  0  0
   -2.7444    5.5124  -22.7574 N   0  0  0  0  0  0  0  0  0  0  0  0
   -4.0000    5.9422  -22.5211 C   0  0  0  0  0  0  0  0  0  0  0  0
   -4.6517    5.8309  -21.3014 C   0  0  0  0  0  0  0  0  0  0  0  0
   -5.9370    5.3034  -18.6631 C   0  0  0  0  0  0  0  0  0  0  0  0
   -8.0018    4.2195  -14.4550 C   0  0  0  0  0  0  0  0  0  0  0  0
   -8.5606    5.3833  -12.2984 N   0  0  0  0  0  0  0  0  0  0  0  0
  1  2  2  0
  2  3  1  0
  3  4  1  0
  4  5  1  0
  6  5  1  1
  6  7  1  0
  7  8  1  0
  8  9  1  0
  9 10  1  0
 10 11  1  0
 11 12  2  0
 13 11  1  1
 13 14  1  0
 14 15  1  0
 15 16  1  0
 16 17  1  0
 17 18  1  0
 18 19  2  0
 19 20  1  0
 20 21  2  0
 21 22  1  0
 22 23  2  0
 17 24  1  0
 10 25  1  0
  6 26  1  0
 26  2  1  0
 25  6  1  0
 24 13  1  0
 23 18  1  0
M  END
>  <fragmenstein_outcome>  (99) 
nan

>  <exports>  (99) 
['/opt/xchem-fragalysis-2/maxwin/openbind-hippo/xx01zvns2b/cycle_01/syndirella/elabs/openbind_xx01zvns2b_c1_elab_chemspace_filtered.sdf']

>  <Energy>  (99) 
nan

>  <alias>  (99) 
None

>  <fragmenstein_runtime>  (99) 
nan

>  <scratch_subdir>  (99) 
nan

>  <HIPPO Compound ID>  (99) 
137608

>  <rmsd(smina/fragmenstein)>  (99) 
0.87

>  <distance_score>  (99) 
1.881249

>  <orig_smiles>  (99) 
nan

>  <fragmenstein_mode>  (99) 
nan

>  <inchikey>  (99) 
GSRJHXDLHAKQDJ-OXQOHEQNSA-N

>  <ref_pdb>  (99) 
Z0852a

>  <GNINA pK>  (99) 
nan

>  <gnina_score_min>  (99) 
5.188

>  <tags>  (99) 
openbind_xx01zvns2b_c1_elab_nonasap_filtered_scored_top80percent,openbind_xx01zvns2b_c1_elab_chemspace_filtered_scored_top80percent,openbind_xx01zvns2b_c1_elab_chemspace_filtered_scored,openbind_xx01zvns2b_c1_elab_chemspace_filtered_scored_top40percent,openbind_xx01zvns2b_c1_elab_chemspace_filtered_scored_top20percent,openbind_xx01zvns2b_c1_elab_chemspace_filtered_scored_top60percent,openbind_xx01zvns2b_c1_elabs_filtered

>  <smiles>  (99) 
O=C1CCC[C@]2(CCCN(C(=O)[C@@H]3CCCN(c4ccncc4)C3)C2)N1

>  <subsites>  (99) 
1 - Z4590/B/203/1

>  <gnina_score>  (99) 
5.432

>  <HIPPO Pose ID>  (99) 
68893

>  <ref_mols>  (99) 
Z0852a,Z1719a

>  <energy_score>  (99) 
-18.367207

>  <inspiration_score>  (99) 
None

>  <smina_score_min>  (99) 
-6.338

>  <fragmenstein_error>  (99) 
nan

>  <name>  (99) 
P68893

$$$$
P68902
     RDKit          3D

 26 29  0  0  0  0  0  0  0  0999 V2000
   -8.5154    3.9766   -8.7323 C   0  0  0  0  0  0  0  0  0  0  0  0
   -7.9510    4.3550  -10.0767 C   0  0  2  0  0  0  0  0  0  0  0  0
   -8.2882    3.3896  -11.2296 C   0  0  0  0  0  0  0  0  0  0  0  0
   -7.1782    3.6646  -12.2624 C   0  0  0  0  0  0  0  0  0  0  0  0
   -6.3925    4.8185  -11.6004 C   0  0  2  0  0  0  0  0  0  0  0  0
   -4.9829    5.0971  -12.1188 C   0  0  0  0  0  0  0  0  0  0  0  0
   -4.9839    5.3590  -13.5292 N   0  0  0  0  0  0  0  0  0  0  0  0
   -3.8054    5.5944  -14.5114 C   0  0  0  0  0  0  0  0  0  0  0  0
   -2.6584    5.6877  -14.3089 O   0  0  0  0  0  0  0  0  0  0  0  0
   -4.4086    5.7645  -15.9266 C   0  0  1  0  0  0  0  0  0  0  0  0
   -3.3258    5.7185  -17.0119 C   0  0  0  0  0  0  0  0  0  0  0  0
   -3.8664    5.4044  -18.4057 C   0  0  0  0  0  0  0  0  0  0  0  0
   -5.3572    5.7034  -18.5316 C   0  0  0  0  0  0  0  0  0  0  0  0
   -6.1111    4.9787  -17.5169 N   0  0  0  0  0  0  0  0  0  0  0  0
   -7.4884    4.6623  -17.7160 C   0  0  0  0  0  0  0  0  0  0  0  0
   -8.0484    4.5816  -18.9811 C   0  0  0  0  0  0  0  0  0  0  0  0
   -9.4219    4.4407  -19.1414 C   0  0  0  0  0  0  0  0  0  0  0  0
  -10.2414    4.2609  -18.0401 C   0  0  0  0  0  0  0  0  0  0  0  0
   -9.6794    4.2143  -16.7880 C   0  0  0  0  0  0  0  0  0  0  0  0
   -8.3379    4.4652  -16.6251 C   0  0  0  0  0  0  0  0  0  0  0  0
   -5.5402    4.8059  -16.2594 C   0  0  0  0  0  0  0  0  0  0  0  0
   -5.9704    4.0198  -15.4171 O   0  0  0  0  0  0  0  0  0  0  0  0
   -6.4226    4.3927  -10.1316 C   0  0  0  0  0  0  0  0  0  0  0  0
   -7.2703    5.9765  -11.5833 N   0  0  0  0  0  0  0  0  0  0  0  0
   -8.1903    5.7906  -10.5471 C   0  0  0  0  0  0  0  0  0  0  0  0
   -8.9191    6.6472  -10.0881 O   0  0  0  0  0  0  0  0  0  0  0  0
  2  1  1  1
  2  3  1  0
  3  4  1  0
  4  5  1  0
  5  6  1  6
  6  7  1  0
  7  8  1  0
  8  9  2  0
 10  8  1  1
 10 11  1  0
 11 12  1  0
 12 13  1  0
 13 14  1  0
 14 15  1  0
 15 16  2  0
 16 17  1  0
 17 18  2  0
 18 19  1  0
 19 20  2  0
 14 21  1  0
 21 22  2  0
  5 23  1  0
  5 24  1  0
 24 25  1  0
 25 26  2  0
 23  2  1  0
 25  2  1  0
 21 10  1  0
 20 15  1  0
M  END
>  <fragmenstein_outcome>  (100) 
nan

>  <exports>  (100) 
['/opt/xchem-fragalysis-2/maxwin/openbind-hippo/xx01zvns2b/cycle_01/syndirella/elabs/openbind_xx01zvns2b_c1_elab_chemspace_filtered.sdf']

>  <Energy>  (100) 
nan

>  <alias>  (100) 
None

>  <fragmenstein_runtime>  (100) 
nan

>  <scratch_subdir>  (100) 
nan

>  <HIPPO Compound ID>  (100) 
137688

>  <rmsd(smina/fragmenstein)>  (100) 
1.266

>  <distance_score>  (100) 
1.90648

>  <orig_smiles>  (100) 
nan

>  <fragmenstein_mode>  (100) 
nan

>  <inchikey>  (100) 
CYGQRYCWARHCOI-UIAACRFSSA-N

>  <ref_pdb>  (100) 
Z0852a

>  <GNINA pK>  (100) 
nan

>  <gnina_score_min>  (100) 
5.23

>  <tags>  (100) 
openbind_xx01zvns2b_c1_elab_nonasap_filtered_scored_top80percent,openbind_xx01zvns2b_c1_elab_chemspace_filtered_scored_top80percent,openbind_xx01zvns2b_c1_elab_chemspace_filtered_scored,openbind_xx01zvns2b_c1_elab_chemspace_filtered_scored_top40percent,openbind_xx01zvns2b_c1_elab_chemspace_filtered_scored_top20percent,openbind_xx01zvns2b_c1_elab_chemspace_filtered_scored_top60percent,openbind_xx01zvns2b_c1_elabs_filtered

>  <smiles>  (100) 
C[C@]12CC[C@](CNC(=O)[C@H]3CCCN(c4ccccc4)C3=O)(C1)NC2=O

>  <subsites>  (100) 
1 - Z4590/B/203/1

>  <gnina_score>  (100) 
5.514

>  <HIPPO Pose ID>  (100) 
68902

>  <ref_mols>  (100) 
Z0852a,Z1719a

>  <energy_score>  (100) 
-21.769572

>  <inspiration_score>  (100) 
None

>  <smina_score_min>  (100) 
-6.376

>  <fragmenstein_error>  (100) 
nan

>  <name>  (100) 
P68902

$$$$
P68907
     RDKit          3D

 26 29  0  0  0  0  0  0  0  0999 V2000
   -7.0908    6.3041   -8.6566 C   0  0  0  0  0  0  0  0  0  0  0  0
   -7.5559    5.2457   -9.6246 C   0  0  2  0  0  0  0  0  0  0  0  0
   -8.4027    4.1219   -9.0068 C   0  0  0  0  0  0  0  0  0  0  0  0
   -8.3418    3.0132  -10.0690 C   0  0  0  0  0  0  0  0  0  0  0  0
   -7.4807    3.6470  -11.1560 C   0  0  2  0  0  0  0  0  0  0  0  0
   -6.8098    2.7210  -12.1528 C   0  0  0  0  0  0  0  0  0  0  0  0
   -6.2965    3.6006  -13.1603 N   0  0  0  0  0  0  0  0  0  0  0  0
   -5.0918    3.4452  -14.1034 C   0  0  0  0  0  0  0  0  0  0  0  0
   -4.2800    2.6132  -14.1595 O   0  0  0  0  0  0  0  0  0  0  0  0
   -5.1440    4.6503  -15.0432 C   0  0  2  0  0  0  0  0  0  0  0  0
   -4.7324    5.9450  -14.3233 C   0  0  0  0  0  0  0  0  0  0  0  0
   -5.3094    7.1853  -15.0073 C   0  0  0  0  0  0  0  0  0  0  0  0
   -5.5174    6.9081  -16.4932 C   0  0  0  0  0  0  0  0  0  0  0  0
   -6.5806    5.9042  -16.6595 N   0  0  0  0  0  0  0  0  0  0  0  0
   -6.6809    5.4022  -17.9738 C   0  0  0  0  0  0  0  0  0  0  0  0
   -5.5901    5.5691  -18.7650 N   0  0  0  0  0  0  0  0  0  0  0  0
   -5.5407    4.9031  -19.9267 C   0  0  0  0  0  0  0  0  0  0  0  0
   -6.5534    4.0864  -20.3681 C   0  0  0  0  0  0  0  0  0  0  0  0
   -7.7224    4.0062  -19.6199 C   0  0  0  0  0  0  0  0  0  0  0  0
   -7.8001    4.6622  -18.4043 C   0  0  0  0  0  0  0  0  0  0  0  0
   -9.2504    4.4480  -17.4824 Cl  0  0  0  0  0  0  0  0  0  0  0  0
   -6.5312    4.7781  -15.7104 C   0  0  0  0  0  0  0  0  0  0  0  0
   -6.4685    4.4442  -10.3308 C   0  0  0  0  0  0  0  0  0  0  0  0
   -8.2276    4.7494  -11.7687 N   0  0  0  0  0  0  0  0  0  0  0  0
   -8.3115    5.7789  -10.8350 C   0  0  0  0  0  0  0  0  0  0  0  0
   -8.8822    6.8423  -10.9692 O   0  0  0  0  0  0  0  0  0  0  0  0
  2  1  1  1
  2  3  1  0
  3  4  1  0
  4  5  1  0
  5  6  1  6
  6  7  1  0
  7  8  1  0
  8  9  2  0
 10  8  1  1
 10 11  1  0
 11 12  1  0
 12 13  1  0
 13 14  1  0
 14 15  1  0
 15 16  2  0
 16 17  1  0
 17 18  2  0
 18 19  1  0
 19 20  2  0
 20 21  1  0
 14 22  1  0
  5 23  1  0
  5 24  1  0
 24 25  1  0
 25 26  2  0
 23  2  1  0
 25  2  1  0
 22 10  1  0
 20 15  1  0
M  END
>  <fragmenstein_outcome>  (101) 
nan

>  <exports>  (101) 
['/opt/xchem-fragalysis-2/maxwin/openbind-hippo/xx01zvns2b/cycle_01/syndirella/elabs/openbind_xx01zvns2b_c1_elab_chemspace_filtered.sdf']

>  <Energy>  (101) 
nan

>  <alias>  (101) 
None

>  <fragmenstein_runtime>  (101) 
nan

>  <scratch_subdir>  (101) 
nan

>  <HIPPO Compound ID>  (101) 
137711

>  <rmsd(smina/fragmenstein)>  (101) 
1.397

>  <distance_score>  (101) 
1.997218

>  <orig_smiles>  (101) 
nan

>  <fragmenstein_mode>  (101) 
nan

>  <inchikey>  (101) 
VORMULAACHYIBZ-ZNZDAUKMSA-N

>  <ref_pdb>  (101) 
Z0852a

>  <GNINA pK>  (101) 
nan

>  <gnina_score_min>  (101) 
5.314

>  <tags>  (101) 
openbind_xx01zvns2b_c1_elab_nonasap_filtered_scored_top80percent,openbind_xx01zvns2b_c1_elab_chemspace_filtered_scored_top80percent,openbind_xx01zvns2b_c1_elab_chemspace_filtered_scored,openbind_xx01zvns2b_c1_elab_chemspace_filtered_scored_top40percent,openbind_xx01zvns2b_c1_elab_chemspace_filtered_scored_top20percent,openbind_xx01zvns2b_c1_elab_chemspace_filtered_scored_top60percent,openbind_xx01zvns2b_c1_elabs_filtered

>  <smiles>  (101) 
C[C@]12CC[C@](CNC(=O)[C@@H]3CCCN(c4ncccc4Cl)C3)(C1)NC2=O

>  <subsites>  (101) 
1 - Z4590/B/203/1

>  <gnina_score>  (101) 
5.659

>  <HIPPO Pose ID>  (101) 
68907

>  <ref_mols>  (101) 
Z0852a,Z1719a

>  <energy_score>  (101) 
-10.919112

>  <inspiration_score>  (101) 
None

>  <smina_score_min>  (101) 
-6.021

>  <fragmenstein_error>  (101) 
nan

>  <name>  (101) 
P68907

$$$$
P68909
     RDKit          3D

 26 28  0  0  0  0  0  0  0  0999 V2000
   -3.8534    4.1990  -14.0323 C   0  0  0  0  0  0  0  0  0  0  0  0
   -4.9432    4.9341  -14.6625 N   0  0  0  0  0  0  0  0  0  0  0  0
   -4.7430    6.2181  -15.1120 C   0  0  0  0  0  0  0  0  0  0  0  0
   -3.6206    6.7165  -15.1692 O   0  0  0  0  0  0  0  0  0  0  0  0
   -5.9358    6.9855  -15.6292 C   0  0  0  0  0  0  0  0  0  0  0  0
   -7.1510    6.1912  -16.0765 C   0  0  0  0  0  0  0  0  0  0  0  0
   -6.9396    4.6943  -16.1192 C   0  0  1  0  0  0  0  0  0  0  0  0
   -6.3996    4.3887  -17.5518 C   0  0  0  0  0  0  0  0  0  0  0  0
   -7.1831    4.1844  -18.3949 O   0  0  0  0  0  0  0  0  0  0  0  0
   -4.8539    4.5129  -17.6243 N   0  0  0  0  0  0  0  0  0  0  0  0
   -3.9478    4.3169  -18.7330 C   0  0  0  0  0  0  0  0  0  0  0  0
   -3.2316    5.5741  -19.2739 C   0  0  2  0  0  0  0  0  0  0  0  0
   -4.1978    6.7312  -19.5162 C   0  0  0  0  0  0  0  0  0  0  0  0
   -5.0865    6.4482  -20.7195 C   0  0  0  0  0  0  0  0  0  0  0  0
   -4.2453    6.3153  -21.9750 C   0  0  0  0  0  0  0  0  0  0  0  0
   -5.0477    5.8523  -22.9778 F   0  0  0  0  0  0  0  0  0  0  0  0
   -3.8840    7.5820  -22.3562 F   0  0  0  0  0  0  0  0  0  0  0  0
   -2.9863    5.4409  -21.7821 C   0  0  0  0  0  0  0  0  0  0  0  0
   -2.3509    4.9666  -22.7249 O   0  0  0  0  0  0  0  0  0  0  0  0
   -2.4919    5.2789  -20.5037 N   0  0  0  0  0  0  0  0  0  0  0  0
   -6.2010    4.2243  -14.8702 C   0  0  2  0  0  0  0  0  0  0  0  0
   -7.0236    4.2290  -13.5793 C   0  0  0  0  0  0  0  0  0  0  0  0
   -7.6180    3.1257  -12.9918 C   0  0  0  0  0  0  0  0  0  0  0  0
   -8.2703    3.4171  -11.7598 C   0  0  0  0  0  0  0  0  0  0  0  0
   -8.1611    4.7460  -11.4296 C   0  0  0  0  0  0  0  0  0  0  0  0
   -7.2787    5.6228  -12.6028 S   0  0  0  0  0  0  0  0  0  0  0  0
  1  2  1  0
  2  3  1  0
  3  4  2  0
  3  5  1  0
  5  6  1  0
  6  7  1  0
  7  8  1  6
  8  9  2  0
  8 10  1  0
 10 11  1  0
 12 11  1  6
 12 13  1  0
 13 14  1  0
 14 15  1  0
 15 16  1  0
 15 17  1  0
 15 18  1  0
 18 19  2  0
 18 20  1  0
  7 21  1  0
 21 22  1  1
 22 23  2  0
 23 24  1  0
 24 25  2  0
 25 26  1  0
 21  2  1  0
 26 22  1  0
 20 12  1  0
M  END
>  <fragmenstein_outcome>  (102) 
nan

>  <exports>  (102) 
['/opt/xchem-fragalysis-2/maxwin/openbind-hippo/xx01zvns2b/cycle_01/syndirella/elabs/openbind_xx01zvns2b_c1_elab_chemspace_filtered.sdf']

>  <Energy>  (102) 
nan

>  <alias>  (102) 
None

>  <fragmenstein_runtime>  (102) 
nan

>  <scratch_subdir>  (102) 
nan

>  <HIPPO Compound ID>  (102) 
137719

>  <rmsd(smina/fragmenstein)>  (102) 
2.225

>  <distance_score>  (102) 
1.654735

>  <orig_smiles>  (102) 
nan

>  <fragmenstein_mode>  (102) 
nan

>  <inchikey>  (102) 
CTMZQMCKGBOKEZ-MISXGVKJSA-N

>  <ref_pdb>  (102) 
Z0852a

>  <GNINA pK>  (102) 
nan

>  <gnina_score_min>  (102) 
5.174

>  <tags>  (102) 
openbind_xx01zvns2b_c1_elab_nonasap_filtered_scored_top80percent,openbind_xx01zvns2b_c1_elab_chemspace_filtered_scored_top80percent,openbind_xx01zvns2b_c1_elab_chemspace_filtered_scored,openbind_xx01zvns2b_c1_elab_chemspace_filtered_scored_top40percent,openbind_xx01zvns2b_c1_elab_chemspace_filtered_scored_top20percent,openbind_xx01zvns2b_c1_elab_chemspace_filtered_scored_top60percent,openbind_xx01zvns2b_c1_elabs_filtered

>  <smiles>  (102) 
CN1C(=O)CC[C@@H](C(=O)NC[C@@H]2CCC(F)(F)C(=O)N2)[C@@H]1c1cccs1

>  <subsites>  (102) 
1 - Z4590/B/203/1

>  <gnina_score>  (102) 
5.496

>  <HIPPO Pose ID>  (102) 
68909

>  <ref_mols>  (102) 
Z0852a,Z1719a

>  <energy_score>  (102) 
-41.434602

>  <inspiration_score>  (102) 
None

>  <smina_score_min>  (102) 
-6.228

>  <fragmenstein_error>  (102) 
nan

>  <name>  (102) 
P68909

$$$$
P68914
     RDKit          3D

 26 29  0  0  0  0  0  0  0  0999 V2000
   -8.1155    4.5430   -9.0490 C   0  0  0  0  0  0  0  0  0  0  0  0
   -7.7021    4.5641  -10.4964 C   0  0  2  0  0  0  0  0  0  0  0  0
   -8.2152    3.3903  -11.3583 C   0  0  0  0  0  0  0  0  0  0  0  0
   -7.2476    3.3867  -12.5619 C   0  0  0  0  0  0  0  0  0  0  0  0
   -6.3575    4.6115  -12.2778 C   0  0  2  0  0  0  0  0  0  0  0  0
   -5.0096    4.6682  -12.9965 C   0  0  0  0  0  0  0  0  0  0  0  0
   -5.0517    4.7964  -14.4352 N   0  0  0  0  0  0  0  0  0  0  0  0
   -3.9118    5.0806  -15.4586 C   0  0  0  0  0  0  0  0  0  0  0  0
   -2.7835    5.3298  -15.2847 O   0  0  0  0  0  0  0  0  0  0  0  0
   -4.5208    4.9372  -16.8523 C   0  0  2  0  0  0  0  0  0  0  0  0
   -3.4949    4.7463  -17.9831 C   0  0  0  0  0  0  0  0  0  0  0  0
   -4.0341    5.2268  -19.3426 C   0  0  0  0  0  0  0  0  0  0  0  0
   -5.5572    5.1111  -19.4774 C   0  0  0  0  0  0  0  0  0  0  0  0
   -6.2527    5.7318  -18.3410 N   0  0  0  0  0  0  0  0  0  0  0  0
   -7.4576    5.2132  -17.9964 C   0  0  0  0  0  0  0  0  0  0  0  0
   -8.4588    4.4958  -18.6138 C   0  0  0  0  0  0  0  0  0  0  0  0
   -9.4175    4.2057  -17.5986 C   0  0  0  0  0  0  0  0  0  0  0  0
   -8.9414    4.7850  -16.4483 C   0  0  0  0  0  0  0  0  0  0  0  0
   -9.3717    4.8864  -15.1016 C   0  0  0  0  0  0  0  0  0  0  0  0
   -9.0759    5.7917  -14.3253 O   0  0  0  0  0  0  0  0  0  0  0  0
   -7.7834    5.4035  -16.7044 O   0  0  0  0  0  0  0  0  0  0  0  0
   -5.3835    6.1410  -17.2140 C   0  0  0  0  0  0  0  0  0  0  0  0
   -6.1991    4.5035  -10.7518 C   0  0  0  0  0  0  0  0  0  0  0  0
   -7.1490    5.8235  -12.3597 N   0  0  0  0  0  0  0  0  0  0  0  0
   -8.0157    5.8458  -11.2617 C   0  0  0  0  0  0  0  0  0  0  0  0
   -8.8479    6.6963  -11.0195 O   0  0  0  0  0  0  0  0  0  0  0  0
  2  1  1  1
  2  3  1  0
  3  4  1  0
  4  5  1  0
  5  6  1  6
  6  7  1  0
  7  8  1  0
  8  9  2  0
 10  8  1  1
 10 11  1  0
 11 12  1  0
 12 13  1  0
 13 14  1  0
 14 15  1  0
 15 16  2  0
 16 17  1  0
 17 18  2  0
 18 19  1  0
 19 20  2  0
 18 21  1  0
 14 22  1  0
  5 23  1  0
  5 24  1  0
 24 25  1  0
 25 26  2  0
 23  2  1  0
 25  2  1  0
 22 10  1  0
 21 15  1  0
M  END
>  <fragmenstein_outcome>  (103) 
nan

>  <exports>  (103) 
['/opt/xchem-fragalysis-2/maxwin/openbind-hippo/xx01zvns2b/cycle_01/syndirella/elabs/openbind_xx01zvns2b_c1_elab_chemspace_filtered.sdf']

>  <Energy>  (103) 
nan

>  <alias>  (103) 
None

>  <fragmenstein_runtime>  (103) 
nan

>  <scratch_subdir>  (103) 
nan

>  <HIPPO Compound ID>  (103) 
137720

>  <rmsd(smina/fragmenstein)>  (103) 
0.37

>  <distance_score>  (103) 
1.755621

>  <orig_smiles>  (103) 
nan

>  <fragmenstein_mode>  (103) 
nan

>  <inchikey>  (103) 
IQTFABPVIHBDQK-ZNZDAUKMSA-N

>  <ref_pdb>  (103) 
Z0852a

>  <GNINA pK>  (103) 
nan

>  <gnina_score_min>  (103) 
5.326

>  <tags>  (103) 
openbind_xx01zvns2b_c1_elab_nonasap_filtered_scored_top80percent,openbind_xx01zvns2b_c1_elab_chemspace_filtered_scored_top80percent,openbind_xx01zvns2b_c1_elab_chemspace_filtered_scored,openbind_xx01zvns2b_c1_elab_chemspace_filtered_scored_top40percent,openbind_xx01zvns2b_c1_elab_chemspace_filtered_scored_top20percent,openbind_xx01zvns2b_c1_elab_chemspace_filtered_scored_top60percent,openbind_xx01zvns2b_c1_elabs_filtered

>  <smiles>  (103) 
C[C@]12CC[C@](CNC(=O)[C@@H]3CCCN(c4ccc(C=O)o4)C3)(C1)NC2=O

>  <subsites>  (103) 
1 - Z4590/B/203/1

>  <gnina_score>  (103) 
5.411

>  <HIPPO Pose ID>  (103) 
68914

>  <ref_mols>  (103) 
Z0852a,Z1719a

>  <energy_score>  (103) 
-34.981042

>  <inspiration_score>  (103) 
None

>  <smina_score_min>  (103) 
-6.154

>  <fragmenstein_error>  (103) 
nan

>  <name>  (103) 
P68914

$$$$
P68926
     RDKit          3D

 27 30  0  0  0  0  0  0  0  0999 V2000
   -8.8429    3.2986   -9.3473 C   0  0  0  0  0  0  0  0  0  0  0  0
   -7.8865    3.7798  -10.4028 C   0  0  1  0  0  0  0  0  0  0  0  0
   -6.4387    3.8841   -9.9070 C   0  0  0  0  0  0  0  0  0  0  0  0
   -5.6326    3.9451  -11.2148 C   0  0  0  0  0  0  0  0  0  0  0  0
   -6.7189    3.8462  -12.2955 C   0  0  1  0  0  0  0  0  0  0  0  0
   -6.1712    3.3720  -13.6313 C   0  0  0  0  0  0  0  0  0  0  0  0
   -5.4648    4.3965  -14.3713 N   0  0  0  0  0  0  0  0  0  0  0  0
   -4.3482    4.2769  -15.4403 C   0  0  0  0  0  0  0  0  0  0  0  0
   -3.7737    3.3400  -15.8311 O   0  0  0  0  0  0  0  0  0  0  0  0
   -4.1356    5.6819  -16.0661 C   0  0  1  0  0  0  0  0  0  0  0  0
   -3.1129    5.6413  -17.2263 C   0  0  0  0  0  0  0  0  0  0  0  0
   -3.7347    5.8147  -18.6223 C   0  0  0  0  0  0  0  0  0  0  0  0
   -5.1221    5.2120  -18.7909 C   0  0  0  0  0  0  0  0  0  0  0  0
   -5.3992    4.6066  -19.8226 O   0  0  0  0  0  0  0  0  0  0  0  0
   -5.9727    5.4765  -17.7069 N   0  0  0  0  0  0  0  0  0  0  0  0
   -7.3165    5.0060  -17.6357 C   0  0  0  0  0  0  0  0  0  0  0  0
   -8.0337    4.6212  -18.7616 C   0  0  0  0  0  0  0  0  0  0  0  0
   -9.3828    4.2999  -18.6702 C   0  0  0  0  0  0  0  0  0  0  0  0
  -10.0129    4.2485  -17.4361 C   0  0  0  0  0  0  0  0  0  0  0  0
   -9.2820    4.5321  -16.3061 C   0  0  0  0  0  0  0  0  0  0  0  0
   -9.7941    4.4623  -15.0744 F   0  0  0  0  0  0  0  0  0  0  0  0
   -7.9766    4.9432  -16.4120 C   0  0  0  0  0  0  0  0  0  0  0  0
   -5.4260    6.2878  -16.6243 C   0  0  0  0  0  0  0  0  0  0  0  0
   -7.7184    2.8931  -11.6387 C   0  0  0  0  0  0  0  0  0  0  0  0
   -7.4856    5.0827  -12.2865 N   0  0  0  0  0  0  0  0  0  0  0  0
   -8.1650    5.1341  -11.0586 C   0  0  0  0  0  0  0  0  0  0  0  0
   -8.6793    6.1296  -10.5867 O   0  0  0  0  0  0  0  0  0  0  0  0
  2  1  1  1
  2  3  1  0
  3  4  1  0
  4  5  1  0
  5  6  1  6
  6  7  1  0
  7  8  1  0
  8  9  2  0
 10  8  1  6
 10 11  1  0
 11 12  1  0
 12 13  1  0
 13 14  2  0
 13 15  1  0
 15 16  1  0
 16 17  2  0
 17 18  1  0
 18 19  2  0
 19 20  1  0
 20 21  1  0
 20 22  2  0
 15 23  1  0
  5 24  1  0
  5 25  1  0
 25 26  1  0
 26 27  2  0
 24  2  1  0
 26  2  1  0
 23 10  1  0
 22 16  1  0
M  END
>  <fragmenstein_outcome>  (104) 
nan

>  <exports>  (104) 
['/opt/xchem-fragalysis-2/maxwin/openbind-hippo/xx01zvns2b/cycle_01/syndirella/elabs/openbind_xx01zvns2b_c1_elab_chemspace_filtered.sdf']

>  <Energy>  (104) 
nan

>  <alias>  (104) 
None

>  <fragmenstein_runtime>  (104) 
nan

>  <scratch_subdir>  (104) 
nan

>  <HIPPO Compound ID>  (104) 
137798

>  <rmsd(smina/fragmenstein)>  (104) 
0.643

>  <distance_score>  (104) 
1.988493

>  <orig_smiles>  (104) 
nan

>  <fragmenstein_mode>  (104) 
nan

>  <inchikey>  (104) 
XFLYJJMDDKCKEY-SVIJTADQSA-N

>  <ref_pdb>  (104) 
Z0852a

>  <GNINA pK>  (104) 
nan

>  <gnina_score_min>  (104) 
5.497

>  <tags>  (104) 
openbind_xx01zvns2b_c1_elab_nonasap_filtered_scored_top80percent,openbind_xx01zvns2b_c1_elab_chemspace_filtered_scored_top80percent,openbind_xx01zvns2b_c1_elab_chemspace_filtered_scored,openbind_xx01zvns2b_c1_elab_chemspace_filtered_scored_top40percent,openbind_xx01zvns2b_c1_elab_chemspace_filtered_scored_top20percent,openbind_xx01zvns2b_c1_elab_chemspace_filtered_scored_top60percent,openbind_xx01zvns2b_c1_elabs_filtered

>  <smiles>  (104) 
C[C@@]12CC[C@@](CNC(=O)[C@H]3CCC(=O)N(c4cccc(F)c4)C3)(C1)NC2=O

>  <subsites>  (104) 
1 - Z4590/B/203/1

>  <gnina_score>  (104) 
5.337

>  <HIPPO Pose ID>  (104) 
68926

>  <ref_mols>  (104) 
Z0852a,Z1719a

>  <energy_score>  (104) 
-17.924879

>  <inspiration_score>  (104) 
None

>  <smina_score_min>  (104) 
-6.446

>  <fragmenstein_error>  (104) 
nan

>  <name>  (104) 
P68926

$$$$
P68931
     RDKit          3D

 27 29  0  0  0  0  0  0  0  0999 V2000
   -8.5192    4.1236  -19.3662 C   0  0  0  0  0  0  0  0  0  0  0  0
   -8.2963    4.5367  -17.9913 N   0  0  0  0  0  0  0  0  0  0  0  0
   -9.3623    4.2449  -17.1522 C   0  0  0  0  0  0  0  0  0  0  0  0
  -10.4498    3.8375  -17.5453 O   0  0  0  0  0  0  0  0  0  0  0  0
   -9.0326    4.3405  -15.6946 C   0  0  0  0  0  0  0  0  0  0  0  0
   -8.2690    5.6074  -15.4076 C   0  0  0  0  0  0  0  0  0  0  0  0
   -6.9688    5.7009  -16.2290 C   0  0  1  0  0  0  0  0  0  0  0  0
   -5.7844    5.5522  -15.2590 C   0  0  0  0  0  0  0  0  0  0  0  0
   -4.9763    6.3870  -15.1536 O   0  0  0  0  0  0  0  0  0  0  0  0
   -5.9717    4.2315  -14.4711 N   0  0  0  0  0  0  0  0  0  0  0  0
   -5.2610    3.7144  -13.3312 C   0  0  0  0  0  0  0  0  0  0  0  0
   -6.1250    3.9207  -12.0615 C   0  0  2  0  0  0  0  0  0  0  0  0
   -7.3017    2.9267  -11.9908 C   0  0  0  0  0  0  0  0  0  0  0  0
   -8.3786    3.3210  -10.9652 C   0  0  0  0  0  0  0  0  0  0  0  0
   -7.9540    4.4625  -10.0509 C   0  0  0  0  0  0  0  0  0  0  0  0
   -8.9697    4.7936   -9.2130 F   0  0  0  0  0  0  0  0  0  0  0  0
   -6.9365    4.0233   -9.2529 F   0  0  0  0  0  0  0  0  0  0  0  0
   -7.4850    5.6404  -10.9220 C   0  0  0  0  0  0  0  0  0  0  0  0
   -7.7906    6.8190  -10.7595 O   0  0  0  0  0  0  0  0  0  0  0  0
   -6.6344    5.2829  -11.9524 N   0  0  0  0  0  0  0  0  0  0  0  0
   -6.9330    4.7506  -17.4372 C   0  0  2  0  0  0  0  0  0  0  0  0
   -5.9772    5.2669  -18.4835 C   0  0  0  0  0  0  0  0  0  0  0  0
   -6.2749    6.1164  -19.4461 N   0  0  0  0  0  0  0  0  0  0  0  0
   -5.2504    6.0607  -20.3438 C   0  0  0  0  0  0  0  0  0  0  0  0
   -4.2178    5.3190  -19.8369 C   0  0  0  0  0  0  0  0  0  0  0  0
   -4.6615    4.8982  -18.6108 N   0  0  0  0  0  0  0  0  0  0  0  0
   -3.7835    4.3412  -17.6140 C   0  0  0  0  0  0  0  0  0  0  0  0
  1  2  1  0
  2  3  1  0
  3  4  2  0
  3  5  1  0
  5  6  1  0
  6  7  1  0
  7  8  1  1
  8  9  2  0
  8 10  1  0
 10 11  1  0
 12 11  1  6
 12 13  1  0
 13 14  1  0
 14 15  1  0
 15 16  1  0
 15 17  1  0
 15 18  1  0
 18 19  2  0
 18 20  1  0
  7 21  1  0
 21 22  1  6
 22 23  2  0
 23 24  1  0
 24 25  2  0
 25 26  1  0
 26 27  1  0
 21  2  1  0
 26 22  1  0
 20 12  1  0
M  END
>  <fragmenstein_outcome>  (105) 
nan

>  <exports>  (105) 
['/opt/xchem-fragalysis-2/maxwin/openbind-hippo/xx01zvns2b/cycle_01/syndirella/elabs/openbind_xx01zvns2b_c1_elab_chemspace_filtered.sdf']

>  <Energy>  (105) 
nan

>  <alias>  (105) 
None

>  <fragmenstein_runtime>  (105) 
nan

>  <scratch_subdir>  (105) 
nan

>  <HIPPO Compound ID>  (105) 
137874

>  <rmsd(smina/fragmenstein)>  (105) 
0.744

>  <distance_score>  (105) 
1.397254

>  <orig_smiles>  (105) 
nan

>  <fragmenstein_mode>  (105) 
nan

>  <inchikey>  (105) 
WQMWYSKPRJGWNM-DMDPSCGWSA-N

>  <ref_pdb>  (105) 
Z0852a

>  <GNINA pK>  (105) 
nan

>  <gnina_score_min>  (105) 
5.328

>  <tags>  (105) 
openbind_xx01zvns2b_c1_elab_nonasap_filtered_scored_top80percent,openbind_xx01zvns2b_c1_elab_chemspace_filtered_scored_top80percent,openbind_xx01zvns2b_c1_elab_chemspace_filtered_scored,openbind_xx01zvns2b_c1_elab_chemspace_filtered_scored_top40percent,openbind_xx01zvns2b_c1_elab_chemspace_filtered_scored_top20percent,openbind_xx01zvns2b_c1_elab_chemspace_filtered_scored_top60percent,openbind_xx01zvns2b_c1_elabs_filtered

>  <smiles>  (105) 
CN1C(=O)CC[C@@H](C(=O)NC[C@@H]2CCC(F)(F)C(=O)N2)[C@@H]1c1nccn1C

>  <subsites>  (105) 
1 - Z4590/B/203/1

>  <gnina_score>  (105) 
5.473

>  <HIPPO Pose ID>  (105) 
68931

>  <ref_mols>  (105) 
Z0852a,Z1719a

>  <energy_score>  (105) 
-15.775877

>  <inspiration_score>  (105) 
None

>  <smina_score_min>  (105) 
-5.916

>  <fragmenstein_error>  (105) 
nan

>  <name>  (105) 
P68931

$$$$
P68940
     RDKit          3D

 27 30  0  0  0  0  0  0  0  0999 V2000
   -4.6097    8.9899  -13.5657 C   0  0  0  0  0  0  0  0  0  0  0  0
   -4.5018    8.3334  -14.9485 C   0  0  0  0  0  0  0  0  0  0  0  0
   -4.7710    9.4201  -16.0031 C   0  0  0  0  0  0  0  0  0  0  0  0
   -5.4498    7.0893  -15.1062 C   0  0  2  0  0  0  0  0  0  0  0  0
   -5.1755    5.9984  -14.0470 C   0  0  0  0  0  0  0  0  0  0  0  0
   -6.3107    5.9719  -13.0382 C   0  0  0  0  0  0  0  0  0  0  0  0
   -6.4816    6.9010  -12.2464 O   0  0  0  0  0  0  0  0  0  0  0  0
   -7.1294    4.8596  -13.0257 N   0  0  0  0  0  0  0  0  0  0  0  0
   -8.3290    4.8276  -13.8361 C   0  0  0  0  0  0  0  0  0  0  0  0
   -8.3269    4.2487  -15.2213 C   0  0  0  0  0  0  0  0  0  0  0  0
   -9.5558    4.0371  -15.8229 C   0  0  0  0  0  0  0  0  0  0  0  0
   -9.6988    3.8212  -17.1834 C   0  0  0  0  0  0  0  0  0  0  0  0
   -8.6621    3.6740  -17.9994 N   0  0  0  0  0  0  0  0  0  0  0  0
   -7.4708    3.7317  -17.3906 C   0  0  0  0  0  0  0  0  0  0  0  0
   -7.2571    4.0149  -16.0378 C   0  0  0  0  0  0  0  0  0  0  0  0
   -6.7918    3.7289  -12.2058 C   0  0  0  0  0  0  0  0  0  0  0  0
   -6.8826    3.8830  -10.7042 C   0  0  0  0  0  0  0  0  0  0  0  0
   -7.8020    2.9350  -11.4059 C   0  0  0  0  0  0  0  0  0  0  0  0
   -5.4346    6.5542  -16.5356 C   0  0  0  0  0  0  0  0  0  0  0  0
   -6.4856    6.4236  -17.4130 C   0  0  0  0  0  0  0  0  0  0  0  0
   -6.0756    6.0880  -18.6629 N   0  0  0  0  0  0  0  0  0  0  0  0
   -4.7346    5.8612  -18.5904 C   0  0  0  0  0  0  0  0  0  0  0  0
   -3.8661    5.5091  -19.6073 C   0  0  0  0  0  0  0  0  0  0  0  0
   -2.5420    5.2742  -19.2523 C   0  0  0  0  0  0  0  0  0  0  0  0
   -2.1173    5.4146  -17.9335 C   0  0  0  0  0  0  0  0  0  0  0  0
   -2.9957    5.8104  -16.9288 C   0  0  0  0  0  0  0  0  0  0  0  0
   -4.3285    6.0598  -17.2683 C   0  0  0  0  0  0  0  0  0  0  0  0
  1  2  1  0
  2  3  1  0
  2  4  1  0
  4  5  1  1
  5  6  1  0
  6  7  2  0
  6  8  1  0
  8  9  1  0
  9 10  1  0
 10 11  2  0
 11 12  1  0
 12 13  2  0
 13 14  1  0
 14 15  2  0
  8 16  1  0
 16 17  1  0
 17 18  1  0
  4 19  1  0
 19 20  2  0
 20 21  1  0
 21 22  1  0
 22 23  2  0
 23 24  1  0
 24 25  2  0
 25 26  1  0
 26 27  2  0
 15 10  1  0
 18 16  1  0
 27 19  1  0
 27 22  1  0
M  END
>  <fragmenstein_outcome>  (106) 
nan

>  <exports>  (106) 
['/opt/xchem-fragalysis-2/maxwin/openbind-hippo/xx01zvns2b/cycle_01/syndirella/elabs/openbind_xx01zvns2b_c1_elab_chemspace_filtered.sdf']

>  <Energy>  (106) 
nan

>  <alias>  (106) 
None

>  <fragmenstein_runtime>  (106) 
nan

>  <scratch_subdir>  (106) 
nan

>  <HIPPO Compound ID>  (106) 
138095

>  <rmsd(smina/fragmenstein)>  (106) 
1.367

>  <distance_score>  (106) 
1.991178

>  <orig_smiles>  (106) 
nan

>  <fragmenstein_mode>  (106) 
nan

>  <inchikey>  (106) 
MYOHIBNXYMJQHH-FQEVSTJZSA-N

>  <ref_pdb>  (106) 
Z3503a

>  <GNINA pK>  (106) 
nan

>  <gnina_score_min>  (106) 
5.614

>  <tags>  (106) 
openbind_xx01zvns2b_c1_elab_nonasap_filtered_scored_top80percent,openbind_xx01zvns2b_c1_elab_chemspace_filtered_scored_top80percent,openbind_xx01zvns2b_c1_elab_chemspace_filtered_scored,openbind_xx01zvns2b_c1_elab_chemspace_filtered_scored_top40percent,openbind_xx01zvns2b_c1_elab_chemspace_filtered_scored_top20percent,openbind_xx01zvns2b_c1_elab_chemspace_filtered_scored_top60percent,openbind_xx01zvns2b_c1_elabs_filtered

>  <smiles>  (106) 
CC(C)[C@H](CC(=O)N(Cc1ccncc1)C1CC1)c1c[nH]c2ccccc12

>  <subsites>  (106) 
1 - Z4590/B/203/1

>  <gnina_score>  (106) 
5.798

>  <HIPPO Pose ID>  (106) 
68940

>  <ref_mols>  (106) 
Z3503a,Z0051a

>  <energy_score>  (106) 
-13.949654

>  <inspiration_score>  (106) 
None

>  <smina_score_min>  (106) 
-5.745

>  <fragmenstein_error>  (106) 
nan

>  <name>  (106) 
P68940

$$$$
P68941
     RDKit          3D

 30 32  0  0  0  0  0  0  0  0999 V2000
   -7.5506    8.8263   -6.5292 C   0  0  0  0  0  0  0  0  0  0  0  0
   -7.6154    7.2973   -6.4161 C   0  0  0  0  0  0  0  0  0  0  0  0
   -6.7428    6.8464   -5.2357 C   0  0  0  0  0  0  0  0  0  0  0  0
   -7.2728    6.6317   -7.7864 C   0  0  1  0  0  0  0  0  0  0  0  0
   -5.7533    6.5613   -8.0611 C   0  0  0  0  0  0  0  0  0  0  0  0
   -5.3588    7.0762   -9.4518 C   0  0  0  0  0  0  0  0  0  0  0  0
   -5.3857    8.2159   -9.7104 O   0  0  0  0  0  0  0  0  0  0  0  0
   -4.8664    5.8670  -10.2895 N   0  0  0  0  0  0  0  0  0  0  0  0
   -4.2123    5.8208  -11.5916 C   0  0  0  0  0  0  0  0  0  0  0  0
   -4.1698    7.1179  -12.4289 C   0  0  1  0  0  0  0  0  0  0  0  0
   -3.5585    8.1853  -11.6865 O   0  0  0  0  0  0  0  0  0  0  0  0
   -3.2860    6.9342  -13.6906 C   0  0  0  0  0  0  0  0  0  0  0  0
   -3.8225    6.0060  -14.7095 N   0  0  0  0  0  0  0  0  0  0  0  0
   -2.7198    5.2549  -15.3157 C   0  0  0  0  0  0  0  0  0  0  0  0
   -4.5525    6.7579  -15.7528 C   0  0  0  0  0  0  0  0  0  0  0  0
   -5.3993    5.8878  -16.6583 C   0  0  0  0  0  0  0  0  0  0  0  0
   -5.2286    5.8565  -18.0444 C   0  0  0  0  0  0  0  0  0  0  0  0
   -6.1151    5.1051  -18.8039 C   0  0  0  0  0  0  0  0  0  0  0  0
   -7.1364    4.3914  -18.2898 N   0  0  0  0  0  0  0  0  0  0  0  0
   -7.2880    4.4286  -16.9555 C   0  0  0  0  0  0  0  0  0  0  0  0
   -6.4475    5.1425  -16.1117 C   0  0  0  0  0  0  0  0  0  0  0  0
   -7.9043    5.2548   -7.9573 C   0  0  0  0  0  0  0  0  0  0  0  0
   -8.2888    4.3450   -6.9867 C   0  0  0  0  0  0  0  0  0  0  0  0
   -8.6827    3.1838   -7.6019 N   0  0  0  0  0  0  0  0  0  0  0  0
   -8.5923    3.3342   -8.9606 C   0  0  0  0  0  0  0  0  0  0  0  0
   -8.8245    2.4255   -9.9803 C   0  0  0  0  0  0  0  0  0  0  0  0
   -8.6071    2.8454  -11.2943 C   0  0  0  0  0  0  0  0  0  0  0  0
   -8.2282    4.1393  -11.5969 C   0  0  0  0  0  0  0  0  0  0  0  0
   -8.0200    5.0412  -10.5619 C   0  0  0  0  0  0  0  0  0  0  0  0
   -8.1639    4.6290   -9.2194 C   0  0  0  0  0  0  0  0  0  0  0  0
  1  2  1  0
  2  3  1  0
  2  4  1  0
  4  5  1  1
  5  6  1  0
  6  7  2  0
  6  8  1  0
  8  9  1  0
  9 10  1  0
 10 11  1  1
 10 12  1  0
 12 13  1  0
 13 14  1  0
 13 15  1  0
 15 16  1  0
 16 17  2  0
 17 18  1  0
 18 19  2  0
 19 20  1  0
 20 21  2  0
  4 22  1  0
 22 23  2  0
 23 24  1  0
 24 25  1  0
 25 26  2  0
 26 27  1  0
 27 28  2  0
 28 29  1  0
 29 30  2  0
 21 16  1  0
 30 22  1  0
 30 25  1  0
M  END
>  <fragmenstein_outcome>  (107) 
nan

>  <exports>  (107) 
['/opt/xchem-fragalysis-2/maxwin/openbind-hippo/xx01zvns2b/cycle_01/syndirella/elabs/openbind_xx01zvns2b_c1_elab_chemspace_filtered.sdf']

>  <Energy>  (107) 
nan

>  <alias>  (107) 
None

>  <fragmenstein_runtime>  (107) 
nan

>  <scratch_subdir>  (107) 
nan

>  <HIPPO Compound ID>  (107) 
138159

>  <rmsd(smina/fragmenstein)>  (107) 
1.258

>  <distance_score>  (107) 
1.872709

>  <orig_smiles>  (107) 
nan

>  <fragmenstein_mode>  (107) 
nan

>  <inchikey>  (107) 
YUDKKQTXHZGYIM-TZIWHRDSSA-N

>  <ref_pdb>  (107) 
Z3503a

>  <GNINA pK>  (107) 
nan

>  <gnina_score_min>  (107) 
5.182

>  <tags>  (107) 
openbind_xx01zvns2b_c1_elab_nonasap_filtered_scored_top80percent,openbind_xx01zvns2b_c1_elab_chemspace_filtered_scored_top80percent,openbind_xx01zvns2b_c1_elab_chemspace_filtered_scored,openbind_xx01zvns2b_c1_elab_chemspace_filtered_scored_top40percent,openbind_xx01zvns2b_c1_elab_chemspace_filtered_scored_top20percent,openbind_xx01zvns2b_c1_elab_chemspace_filtered_scored_top60percent,openbind_xx01zvns2b_c1_elabs_filtered

>  <smiles>  (107) 
CC(C)[C@@H](CC(=O)NC[C@@H](O)CN(C)Cc1ccncc1)c1c[nH]c2ccccc12

>  <subsites>  (107) 
1 - Z4590/B/203/1

>  <gnina_score>  (107) 
5.043

>  <HIPPO Pose ID>  (107) 
68941

>  <ref_mols>  (107) 
Z3503a,Z0051a

>  <energy_score>  (107) 
-55.668442

>  <inspiration_score>  (107) 
None

>  <smina_score_min>  (107) 
-5.809

>  <fragmenstein_error>  (107) 
nan

>  <name>  (107) 
P68941

$$$$
P68942
     RDKit          3D

 30 34  0  0  0  0  0  0  0  0999 V2000
   -9.5637    2.8287   -6.7487 C   0  0  0  0  0  0  0  0  0  0  0  0
   -9.1296    2.9461   -8.1220 N   0  0  0  0  0  0  0  0  0  0  0  0
   -9.1991    1.7769   -8.8886 C   0  0  0  0  0  0  0  0  0  0  0  0
   -9.9827    0.8585   -8.7303 O   0  0  0  0  0  0  0  0  0  0  0  0
   -8.1223    1.8441   -9.9403 C   0  0  0  0  0  0  0  0  0  0  0  0
   -7.8359    3.3282  -10.0210 C   0  0  1  0  0  0  0  0  0  0  0  0
   -8.8649    3.9370  -10.9711 C   0  0  0  0  0  0  0  0  0  0  0  0
   -8.4486    3.7636  -12.3278 N   0  0  0  0  0  0  0  0  0  0  0  0
   -8.8552    4.5369  -13.6158 C   0  0  0  0  0  0  0  0  0  0  0  0
   -9.6470    5.3790  -13.7734 O   0  0  0  0  0  0  0  0  0  0  0  0
   -7.9010    4.0179  -14.6424 C   0  0  1  0  0  0  0  0  0  0  0  0
   -8.2048    4.3275  -16.1343 C   0  0  0  0  0  0  0  0  0  0  0  0
   -6.8952    4.8334  -16.5934 C   0  0  0  0  0  0  0  0  0  0  0  0
   -6.0480    5.0708  -15.5571 C   0  0  0  0  0  0  0  0  0  0  0  0
   -4.8743    5.5665  -15.9748 N   0  0  0  0  0  0  0  0  0  0  0  0
   -3.7595    5.9579  -15.1474 C   0  0  0  0  0  0  0  0  0  0  0  0
   -4.9048    5.5842  -17.3461 C   0  0  0  0  0  0  0  0  0  0  0  0
   -3.9280    5.9993  -18.2472 C   0  0  0  0  0  0  0  0  0  0  0  0
   -4.2179    5.8777  -19.5985 C   0  0  0  0  0  0  0  0  0  0  0  0
   -5.4121    5.3009  -20.0143 C   0  0  0  0  0  0  0  0  0  0  0  0
   -6.3680    4.8484  -19.1021 C   0  0  0  0  0  0  0  0  0  0  0  0
   -6.1507    5.0569  -17.7479 C   0  0  0  0  0  0  0  0  0  0  0  0
   -6.5429    4.6892  -14.2508 C   0  0  0  0  0  0  0  0  0  0  0  0
   -7.9899    3.7356   -8.5546 C   0  0  1  0  0  0  0  0  0  0  0  0
   -7.9310    5.2164   -8.2714 C   0  0  0  0  0  0  0  0  0  0  0  0
   -7.4526    6.1210   -9.2336 C   0  0  0  0  0  0  0  0  0  0  0  0
   -7.3134    7.4575   -8.9190 C   0  0  0  0  0  0  0  0  0  0  0  0
   -7.5418    7.9586   -7.6923 N   0  0  0  0  0  0  0  0  0  0  0  0
   -7.9674    7.0842   -6.7600 C   0  0  0  0  0  0  0  0  0  0  0  0
   -8.1635    5.7284   -6.9936 C   0  0  0  0  0  0  0  0  0  0  0  0
  1  2  1  0
  2  3  1  0
  3  4  2  0
  3  5  1  0
  5  6  1  0
  6  7  1  6
  7  8  1  0
  8  9  1  0
  9 10  2  0
 11  9  1  1
 11 12  1  0
 12 13  1  0
 13 14  2  0
 14 15  1  0
 15 16  1  0
 15 17  1  0
 17 18  2  0
 18 19  1  0
 19 20  2  0
 20 21  1  0
 21 22  2  0
 14 23  1  0
  6 24  1  0
 24 25  1  6
 25 26  2  0
 26 27  1  0
 27 28  2  0
 28 29  1  0
 29 30  2  0
 24  2  1  0
 30 25  1  0
 23 11  1  0
 22 13  1  0
 22 17  1  0
M  END
>  <fragmenstein_outcome>  (108) 
nan

>  <exports>  (108) 
['/opt/xchem-fragalysis-2/maxwin/openbind-hippo/xx01zvns2b/cycle_01/syndirella/elabs/openbind_xx01zvns2b_c1_elab_chemspace_filtered.sdf']

>  <Energy>  (108) 
nan

>  <alias>  (108) 
None

>  <fragmenstein_runtime>  (108) 
nan

>  <scratch_subdir>  (108) 
nan

>  <HIPPO Compound ID>  (108) 
138182

>  <rmsd(smina/fragmenstein)>  (108) 
1.084

>  <distance_score>  (108) 
1.985339

>  <orig_smiles>  (108) 
nan

>  <fragmenstein_mode>  (108) 
nan

>  <inchikey>  (108) 
BLBNIMYZBYXXRA-HKARXFIJSA-N

>  <ref_pdb>  (108) 
Z3503a

>  <GNINA pK>  (108) 
nan

>  <gnina_score_min>  (108) 
5.433

>  <tags>  (108) 
openbind_xx01zvns2b_c1_elab_nonasap_filtered_scored_top80percent,openbind_xx01zvns2b_c1_elab_chemspace_filtered_scored_top80percent,openbind_xx01zvns2b_c1_elab_chemspace_filtered_scored,openbind_xx01zvns2b_c1_elab_chemspace_filtered_scored_top40percent,openbind_xx01zvns2b_c1_elab_chemspace_filtered_scored_top20percent,openbind_xx01zvns2b_c1_elab_chemspace_filtered_scored_top60percent,openbind_xx01zvns2b_c1_elabs_filtered

>  <smiles>  (108) 
CN1C(=O)C[C@@H](CNC(=O)[C@H]2Cc3c(n(C)c4ccccc34)C2)[C@H]1c1ccncc1

>  <subsites>  (108) 
1 - Z4590/B/203/1

>  <gnina_score>  (108) 
6.187

>  <HIPPO Pose ID>  (108) 
68942

>  <ref_mols>  (108) 
Z3503a,Z0051a

>  <energy_score>  (108) 
-10.023615

>  <inspiration_score>  (108) 
None

>  <smina_score_min>  (108) 
-7.862

>  <fragmenstein_error>  (108) 
nan

>  <name>  (108) 
P68942

$$$$
P69466
     RDKit          3D

 25 28  0  0  0  0  0  0  0  0999 V2000
   -5.1006    8.4633  -13.0737 O   0  0  0  0  0  0  0  0  0  0  0  0
   -4.6265    7.4706  -12.5385 C   0  0  0  0  0  0  0  0  0  0  0  0
   -3.4896    6.6623  -13.1027 C   0  0  0  0  0  0  0  0  0  0  0  0
   -3.9345    5.2538  -13.5003 C   0  0  0  0  0  0  0  0  0  0  0  0
   -4.7931    5.1906  -14.7385 C   0  0  0  0  0  0  0  0  0  0  0  0
   -6.0819    4.8119  -14.7227 C   0  0  0  0  0  0  0  0  0  0  0  0
   -6.8782    4.7395  -15.9474 C   0  0  0  0  0  0  0  0  0  0  0  0
   -8.2293    4.3817  -15.9357 C   0  0  0  0  0  0  0  0  0  0  0  0
   -8.9443    4.2905  -17.1312 C   0  0  0  0  0  0  0  0  0  0  0  0
   -8.3081    4.5460  -18.3437 C   0  0  0  0  0  0  0  0  0  0  0  0
   -6.9605    4.9087  -18.3646 C   0  0  0  0  0  0  0  0  0  0  0  0
   -6.2547    5.0091  -17.1673 C   0  0  0  0  0  0  0  0  0  0  0  0
   -4.9025    5.3717  -17.1782 N   0  0  0  0  0  0  0  0  0  0  0  0
   -4.1327    5.4728  -16.0520 C   0  0  0  0  0  0  0  0  0  0  0  0
   -2.9417    5.7682  -16.1144 O   0  0  0  0  0  0  0  0  0  0  0  0
   -5.0472    6.9285  -11.3602 O   0  0  0  0  0  0  0  0  0  0  0  0
   -6.2914    7.4366  -10.8645 C   0  0  0  0  0  0  0  0  0  0  0  0
   -7.3425    6.6427  -11.5309 C   0  0  0  0  0  0  0  0  0  0  0  0
   -8.0609    6.8922  -12.6835 C   0  0  0  0  0  0  0  0  0  0  0  0
   -8.8366    5.8144  -13.0274 N   0  0  0  0  0  0  0  0  0  0  0  0
   -8.5883    4.9071  -12.1056 C   0  0  0  0  0  0  0  0  0  0  0  0
   -7.7536    5.3964  -11.1523 N   0  0  0  0  0  0  0  0  0  0  0  0
   -7.3142    4.6506   -9.9619 C   0  0  0  0  0  0  0  0  0  0  0  0
   -7.7636    5.0415   -8.5736 C   0  0  0  0  0  0  0  0  0  0  0  0
   -8.2563    3.7629   -9.1823 C   0  0  0  0  0  0  0  0  0  0  0  0
  1  2  2  0
  2  3  1  0
  3  4  1  0
  4  5  1  0
  5  6  2  0
  6  7  1  0
  7  8  2  0
  8  9  1  0
  9 10  2  0
 10 11  1  0
 11 12  2  0
 12 13  1  0
 13 14  1  0
 14 15  2  0
  2 16  1  0
 16 17  1  0
 17 18  1  0
 18 19  2  0
 19 20  1  0
 20 21  2  0
 21 22  1  0
 22 23  1  0
 23 24  1  0
 24 25  1  0
 14  5  1  0
 22 18  1  0
 25 23  1  0
 12  7  1  0
M  END
>  <fragmenstein_outcome>  (109) 
nan

>  <exports>  (109) 
['/opt/xchem-fragalysis-2/maxwin/openbind-hippo/xx01zvns2b/cycle_01/syndirella/elabs/openbind_xx01zvns2b_c1_elab_chemspace_filtered.sdf']

>  <Energy>  (109) 
nan

>  <alias>  (109) 
None

>  <fragmenstein_runtime>  (109) 
nan

>  <scratch_subdir>  (109) 
nan

>  <HIPPO Compound ID>  (109) 
138878

>  <rmsd(smina/fragmenstein)>  (109) 
1.127

>  <distance_score>  (109) 
0.680813

>  <orig_smiles>  (109) 
nan

>  <fragmenstein_mode>  (109) 
nan

>  <inchikey>  (109) 
HUDBFWUFOFPTIT-UHFFFAOYSA-N

>  <ref_pdb>  (109) 
Z1688a

>  <GNINA pK>  (109) 
nan

>  <gnina_score_min>  (109) 
5.24

>  <tags>  (109) 
openbind_xx01zvns2b_c1_elab_nonasap_filtered_scored_top80percent,openbind_xx01zvns2b_c1_elab_chemspace_filtered_scored_top80percent,openbind_xx01zvns2b_c1_elab_chemspace_filtered_scored,openbind_xx01zvns2b_c1_elab_chemspace_filtered_scored_top40percent,openbind_xx01zvns2b_c1_elab_chemspace_filtered_scored_top20percent,openbind_xx01zvns2b_c1_elab_chemspace_filtered_scored_top60percent,openbind_xx01zvns2b_c1_elabs_filtered

>  <smiles>  (109) 
O=C(CCc1cc2ccccc2[nH]c1=O)OCc1cncn1C1CC1

>  <subsites>  (109) 
1 - Z4590/B/203/1

>  <gnina_score>  (109) 
5.181

>  <HIPPO Pose ID>  (109) 
69466

>  <ref_mols>  (109) 
Z1688a,Z1716a

>  <energy_score>  (109) 
-40.604581

>  <inspiration_score>  (109) 
None

>  <smina_score_min>  (109) 
-5.526

>  <fragmenstein_error>  (109) 
nan

>  <name>  (109) 
P69466

$$$$
P69468
     RDKit          3D

 25 28  0  0  0  0  0  0  0  0999 V2000
   -2.3167    7.0926  -13.9036 N   0  0  0  0  0  0  0  0  0  0  0  0
   -3.2707    6.5199  -12.9282 C   0  0  2  0  0  0  0  0  0  0  0  0
   -3.8938    5.1854  -13.3930 C   0  0  0  0  0  0  0  0  0  0  0  0
   -4.7265    5.1905  -14.6531 C   0  0  0  0  0  0  0  0  0  0  0  0
   -4.2000    5.5392  -15.8877 C   0  0  0  0  0  0  0  0  0  0  0  0
   -4.8792    5.4940  -17.0587 N   0  0  0  0  0  0  0  0  0  0  0  0
   -6.1625    5.0900  -17.0367 C   0  0  0  0  0  0  0  0  0  0  0  0
   -6.8856    5.0132  -18.2210 C   0  0  0  0  0  0  0  0  0  0  0  0
   -8.2245    4.6093  -18.2456 C   0  0  0  0  0  0  0  0  0  0  0  0
   -8.8681    4.2823  -17.0608 C   0  0  0  0  0  0  0  0  0  0  0  0
   -8.1598    4.3342  -15.8630 C   0  0  0  0  0  0  0  0  0  0  0  0
   -6.8078    4.7281  -15.8412 C   0  0  0  0  0  0  0  0  0  0  0  0
   -6.0543    4.7591  -14.6538 C   0  0  0  0  0  0  0  0  0  0  0  0
   -4.3601    7.5317  -12.5435 C   0  0  0  0  0  0  0  0  0  0  0  0
   -4.5974    8.5840  -13.1216 O   0  0  0  0  0  0  0  0  0  0  0  0
   -4.9963    7.0937  -11.4182 O   0  0  0  0  0  0  0  0  0  0  0  0
   -6.2193    7.7598  -11.0936 C   0  0  0  0  0  0  0  0  0  0  0  0
   -7.2751    6.9100  -11.6740 C   0  0  0  0  0  0  0  0  0  0  0  0
   -7.8888    6.9547  -12.9088 C   0  0  0  0  0  0  0  0  0  0  0  0
   -8.7309    5.8855  -13.0828 N   0  0  0  0  0  0  0  0  0  0  0  0
   -8.6084    5.1722  -11.9839 C   0  0  0  0  0  0  0  0  0  0  0  0
   -7.8040    5.7968  -11.0867 N   0  0  0  0  0  0  0  0  0  0  0  0
   -7.6389    5.3876   -9.6859 C   0  0  0  0  0  0  0  0  0  0  0  0
   -7.5048    3.9434   -9.2790 C   0  0  0  0  0  0  0  0  0  0  0  0
   -6.3349    4.8737   -9.1342 C   0  0  0  0  0  0  0  0  0  0  0  0
  2  1  1  6
  2  3  1  0
  3  4  1  0
  4  5  2  0
  5  6  1  0
  6  7  2  0
  7  8  1  0
  8  9  2  0
  9 10  1  0
 10 11  2  0
 11 12  1  0
 12 13  2  0
  2 14  1  0
 14 15  2  0
 14 16  1  0
 16 17  1  0
 17 18  1  0
 18 19  2  0
 19 20  1  0
 20 21  2  0
 21 22  1  0
 22 23  1  0
 23 24  1  0
 24 25  1  0
 13  4  1  0
 22 18  1  0
 25 23  1  0
 12  7  1  0
M  END
>  <fragmenstein_outcome>  (110) 
nan

>  <exports>  (110) 
['/opt/xchem-fragalysis-2/maxwin/openbind-hippo/xx01zvns2b/cycle_01/syndirella/elabs/openbind_xx01zvns2b_c1_elab_chemspace_filtered.sdf']

>  <Energy>  (110) 
nan

>  <alias>  (110) 
None

>  <fragmenstein_runtime>  (110) 
nan

>  <scratch_subdir>  (110) 
nan

>  <HIPPO Compound ID>  (110) 
138880

>  <rmsd(smina/fragmenstein)>  (110) 
1.57

>  <distance_score>  (110) 
0.682068

>  <orig_smiles>  (110) 
nan

>  <fragmenstein_mode>  (110) 
nan

>  <inchikey>  (110) 
JQCXVHFLNLDMFI-QGZVFWFLSA-N

>  <ref_pdb>  (110) 
Z1688a

>  <GNINA pK>  (110) 
nan

>  <gnina_score_min>  (110) 
5.173

>  <tags>  (110) 
openbind_xx01zvns2b_c1_elab_nonasap_filtered_scored_top80percent,openbind_xx01zvns2b_c1_elab_chemspace_filtered_scored_top80percent,openbind_xx01zvns2b_c1_elab_chemspace_filtered_scored,openbind_xx01zvns2b_c1_elab_chemspace_filtered_scored_top40percent,openbind_xx01zvns2b_c1_elab_chemspace_filtered_scored_top20percent,openbind_xx01zvns2b_c1_elab_chemspace_filtered_scored_top60percent,openbind_xx01zvns2b_c1_elabs_filtered

>  <smiles>  (110) 
N[C@H](Cc1cnc2ccccc2c1)C(=O)OCc1cncn1C1CC1

>  <subsites>  (110) 
1 - Z4590/B/203/1

>  <gnina_score>  (110) 
5.214

>  <HIPPO Pose ID>  (110) 
69468

>  <ref_mols>  (110) 
Z1688a,Z1716a

>  <energy_score>  (110) 
-30.950742

>  <inspiration_score>  (110) 
None

>  <smina_score_min>  (110) 
-5.495

>  <fragmenstein_error>  (110) 
nan

>  <name>  (110) 
P69468

$$$$
P69470
     RDKit          3D

 25 27  0  0  0  0  0  0  0  0999 V2000
   -8.4497    3.4964   -9.2954 C   0  0  0  0  0  0  0  0  0  0  0  0
   -7.2722    3.9795  -10.1431 C   0  0  0  0  0  0  0  0  0  0  0  0
   -6.5264    2.8040  -10.7773 C   0  0  0  0  0  0  0  0  0  0  0  0
   -7.6996    4.9519  -11.1473 N   0  0  0  0  0  0  0  0  0  0  0  0
   -8.5909    4.6798  -12.1492 C   0  0  0  0  0  0  0  0  0  0  0  0
   -8.8086    5.7243  -12.9161 N   0  0  0  0  0  0  0  0  0  0  0  0
   -8.0065    6.7064  -12.4134 C   0  0  0  0  0  0  0  0  0  0  0  0
   -7.2842    6.2524  -11.3270 C   0  0  0  0  0  0  0  0  0  0  0  0
   -6.2242    6.9440  -10.5622 C   0  0  0  0  0  0  0  0  0  0  0  0
   -4.9904    6.5289  -11.1554 O   0  0  0  0  0  0  0  0  0  0  0  0
   -4.5844    7.2692  -12.2272 C   0  0  0  0  0  0  0  0  0  0  0  0
   -5.0597    8.3457  -12.5708 O   0  0  0  0  0  0  0  0  0  0  0  0
   -3.4069    6.5801  -12.9257 C   0  0  2  0  0  0  0  0  0  0  0  0
   -2.7868    7.4886  -13.9240 N   0  0  0  0  0  0  0  0  0  0  0  0
   -3.8162    5.2106  -13.5048 C   0  0  0  0  0  0  0  0  0  0  0  0
   -4.6743    5.1996  -14.7448 C   0  0  0  0  0  0  0  0  0  0  0  0
   -4.1402    5.4775  -15.9937 C   0  0  0  0  0  0  0  0  0  0  0  0
   -4.8332    5.4337  -17.1538 N   0  0  0  0  0  0  0  0  0  0  0  0
   -6.1306    5.0745  -17.1090 C   0  0  0  0  0  0  0  0  0  0  0  0
   -6.8628    4.9743  -18.2858 C   0  0  0  0  0  0  0  0  0  0  0  0
   -8.2099    4.5972  -18.2907 C   0  0  0  0  0  0  0  0  0  0  0  0
   -8.8537    4.3216  -17.0934 C   0  0  0  0  0  0  0  0  0  0  0  0
   -8.1404    4.4085  -15.9009 C   0  0  0  0  0  0  0  0  0  0  0  0
   -6.7806    4.7775  -15.8976 C   0  0  0  0  0  0  0  0  0  0  0  0
   -6.0203    4.8387  -14.7162 C   0  0  0  0  0  0  0  0  0  0  0  0
  1  2  1  0
  2  3  1  0
  2  4  1  0
  4  5  1  0
  5  6  2  0
  6  7  1  0
  7  8  2  0
  8  9  1  0
  9 10  1  0
 10 11  1  0
 11 12  2  0
 11 13  1  0
 13 14  1  6
 13 15  1  0
 15 16  1  0
 16 17  2  0
 17 18  1  0
 18 19  2  0
 19 20  1  0
 20 21  2  0
 21 22  1  0
 22 23  2  0
 23 24  1  0
 24 25  2  0
  8  4  1  0
 25 16  1  0
 24 19  1  0
M  END
>  <fragmenstein_outcome>  (111) 
nan

>  <exports>  (111) 
['/opt/xchem-fragalysis-2/maxwin/openbind-hippo/xx01zvns2b/cycle_01/syndirella/elabs/openbind_xx01zvns2b_c1_elab_chemspace_filtered.sdf']

>  <Energy>  (111) 
nan

>  <alias>  (111) 
None

>  <fragmenstein_runtime>  (111) 
nan

>  <scratch_subdir>  (111) 
nan

>  <HIPPO Compound ID>  (111) 
138881

>  <rmsd(smina/fragmenstein)>  (111) 
1.601

>  <distance_score>  (111) 
0.748294

>  <orig_smiles>  (111) 
nan

>  <fragmenstein_mode>  (111) 
nan

>  <inchikey>  (111) 
QYLCGLLRWZBLRT-QGZVFWFLSA-N

>  <ref_pdb>  (111) 
Z1688a

>  <GNINA pK>  (111) 
nan

>  <gnina_score_min>  (111) 
5.283

>  <tags>  (111) 
openbind_xx01zvns2b_c1_elab_nonasap_filtered_scored_top80percent,openbind_xx01zvns2b_c1_elab_chemspace_filtered_scored_top80percent,openbind_xx01zvns2b_c1_elab_chemspace_filtered_scored,openbind_xx01zvns2b_c1_elab_chemspace_filtered_scored_top40percent,openbind_xx01zvns2b_c1_elab_chemspace_filtered_scored_top20percent,openbind_xx01zvns2b_c1_elab_chemspace_filtered_scored_top60percent,openbind_xx01zvns2b_c1_elabs_filtered

>  <smiles>  (111) 
CC(C)n1cncc1COC(=O)[C@H](N)Cc1cnc2ccccc2c1

>  <subsites>  (111) 
1 - Z4590/B/203/1

>  <gnina_score>  (111) 
5.148

>  <HIPPO Pose ID>  (111) 
69470

>  <ref_mols>  (111) 
Z1688a,Z1716a

>  <energy_score>  (111) 
-33.345901

>  <inspiration_score>  (111) 
None

>  <smina_score_min>  (111) 
-5.641

>  <fragmenstein_error>  (111) 
nan

>  <name>  (111) 
P69470

$$$$
P69472
     RDKit          3D

 25 28  0  0  0  0  0  0  0  0999 V2000
   -2.3942    7.2100  -13.8258 N   0  0  0  0  0  0  0  0  0  0  0  0
   -3.6119    6.8481  -13.0359 C   0  0  2  0  0  0  0  0  0  0  0  0
   -4.1122    5.4420  -13.4222 C   0  0  0  0  0  0  0  0  0  0  0  0
   -4.8608    5.2944  -14.7193 C   0  0  0  0  0  0  0  0  0  0  0  0
   -4.2739    5.5080  -15.9550 C   0  0  0  0  0  0  0  0  0  0  0  0
   -4.9168    5.3911  -17.1404 N   0  0  0  0  0  0  0  0  0  0  0  0
   -6.2173    5.0335  -17.1313 C   0  0  0  0  0  0  0  0  0  0  0  0
   -6.9209    4.9017  -18.3217 C   0  0  0  0  0  0  0  0  0  0  0  0
   -8.2712    4.5325  -18.3461 C   0  0  0  0  0  0  0  0  0  0  0  0
   -8.9474    4.2923  -17.1572 C   0  0  0  0  0  0  0  0  0  0  0  0
   -8.2653    4.4090  -15.9503 C   0  0  0  0  0  0  0  0  0  0  0  0
   -6.9062    4.7726  -15.9348 C   0  0  0  0  0  0  0  0  0  0  0  0
   -6.1909    4.8788  -14.7373 C   0  0  0  0  0  0  0  0  0  0  0  0
   -4.6518    7.9767  -13.1783 C   0  0  0  0  0  0  0  0  0  0  0  0
   -4.6169    8.7477  -14.1400 O   0  0  0  0  0  0  0  0  0  0  0  0
   -5.5489    8.1885  -12.1915 O   0  0  0  0  0  0  0  0  0  0  0  0
   -5.8172    7.3041  -11.0907 C   0  0  0  0  0  0  0  0  0  0  0  0
   -6.9493    6.4463  -11.4871 C   0  0  0  0  0  0  0  0  0  0  0  0
   -7.9665    6.6182  -12.4175 C   0  0  0  0  0  0  0  0  0  0  0  0
   -8.7431    5.4827  -12.5413 N   0  0  0  0  0  0  0  0  0  0  0  0
   -8.2461    4.6585  -11.6545 C   0  0  0  0  0  0  0  0  0  0  0  0
   -7.2036    5.2175  -10.9815 N   0  0  0  0  0  0  0  0  0  0  0  0
   -6.5776    4.2958  -10.0527 C   0  0  0  0  0  0  0  0  0  0  0  0
   -7.1161    2.9395  -10.5341 C   0  0  0  0  0  0  0  0  0  0  0  0
   -8.4568    3.2544  -11.2390 C   0  0  0  0  0  0  0  0  0  0  0  0
  2  1  1  6
  2  3  1  0
  3  4  1  0
  4  5  2  0
  5  6  1  0
  6  7  2  0
  7  8  1  0
  8  9  2  0
  9 10  1  0
 10 11  2  0
 11 12  1  0
 12 13  2  0
  2 14  1  0
 14 15  2  0
 14 16  1  0
 16 17  1  0
 17 18  1  0
 18 19  2  0
 19 20  1  0
 20 21  2  0
 21 22  1  0
 22 23  1  0
 23 24  1  0
 24 25  1  0
 13  4  1  0
 22 18  1  0
 12  7  1  0
 25 21  1  0
M  END
>  <fragmenstein_outcome>  (112) 
nan

>  <exports>  (112) 
['/opt/xchem-fragalysis-2/maxwin/openbind-hippo/xx01zvns2b/cycle_01/syndirella/elabs/openbind_xx01zvns2b_c1_elab_chemspace_filtered.sdf']

>  <Energy>  (112) 
nan

>  <alias>  (112) 
None

>  <fragmenstein_runtime>  (112) 
nan

>  <scratch_subdir>  (112) 
nan

>  <HIPPO Compound ID>  (112) 
138882

>  <rmsd(smina/fragmenstein)>  (112) 
1.345

>  <distance_score>  (112) 
0.721964

>  <orig_smiles>  (112) 
nan

>  <fragmenstein_mode>  (112) 
nan

>  <inchikey>  (112) 
WTJATVDDLYNSQF-MRXNPFEDSA-N

>  <ref_pdb>  (112) 
Z1688a

>  <GNINA pK>  (112) 
nan

>  <gnina_score_min>  (112) 
5.201

>  <tags>  (112) 
openbind_xx01zvns2b_c1_elab_nonasap_filtered_scored_top80percent,openbind_xx01zvns2b_c1_elab_chemspace_filtered_scored_top80percent,openbind_xx01zvns2b_c1_elab_chemspace_filtered_scored,openbind_xx01zvns2b_c1_elab_chemspace_filtered_scored_top40percent,openbind_xx01zvns2b_c1_elab_chemspace_filtered_scored_top20percent,openbind_xx01zvns2b_c1_elab_chemspace_filtered_scored_top60percent,openbind_xx01zvns2b_c1_elabs_filtered

>  <smiles>  (112) 
N[C@H](Cc1cnc2ccccc2c1)C(=O)OCc1cnc2n1CCC2

>  <subsites>  (112) 
1 - Z4590/B/203/1

>  <gnina_score>  (112) 
5.18

>  <HIPPO Pose ID>  (112) 
69472

>  <ref_mols>  (112) 
Z1688a,Z1716a

>  <energy_score>  (112) 
-24.284395

>  <inspiration_score>  (112) 
None

>  <smina_score_min>  (112) 
-5.946

>  <fragmenstein_error>  (112) 
nan

>  <name>  (112) 
P69472

$$$$
P69480
     RDKit          3D

 26 29  0  0  0  0  0  0  0  0999 V2000
   -3.5949    8.0099  -14.0297 N   0  0  0  0  0  0  0  0  0  0  0  0
   -3.9905    7.0038  -13.0114 C   0  0  2  0  0  0  0  0  0  0  0  0
   -3.9695    5.5579  -13.5471 C   0  0  0  0  0  0  0  0  0  0  0  0
   -4.8318    5.3287  -14.7607 C   0  0  0  0  0  0  0  0  0  0  0  0
   -4.3059    5.5161  -16.0308 C   0  0  0  0  0  0  0  0  0  0  0  0
   -5.0071    5.3771  -17.1732 N   0  0  0  0  0  0  0  0  0  0  0  0
   -6.2998    5.0209  -17.0843 C   0  0  0  0  0  0  0  0  0  0  0  0
   -7.0413    4.8592  -18.2455 C   0  0  0  0  0  0  0  0  0  0  0  0
   -8.3894    4.4961  -18.2118 C   0  0  0  0  0  0  0  0  0  0  0  0
   -9.0179    4.2909  -16.9903 C   0  0  0  0  0  0  0  0  0  0  0  0
   -8.2964    4.4432  -15.8069 C   0  0  0  0  0  0  0  0  0  0  0  0
   -6.9385    4.8068  -15.8444 C   0  0  0  0  0  0  0  0  0  0  0  0
   -6.1763    4.9627  -14.6753 C   0  0  0  0  0  0  0  0  0  0  0  0
   -5.3637    7.3383  -12.4164 C   0  0  0  0  0  0  0  0  0  0  0  0
   -6.0633    8.2873  -12.7443 O   0  0  0  0  0  0  0  0  0  0  0  0
   -5.6514    6.4304  -11.4515 O   0  0  0  0  0  0  0  0  0  0  0  0
   -6.9006    6.5529  -10.7673 C   0  0  1  0  0  0  0  0  0  0  0  0
   -7.4512    5.1228  -10.6523 C   0  0  0  0  0  0  0  0  0  0  0  0
   -8.3733    4.9665   -9.4509 C   0  0  0  0  0  0  0  0  0  0  0  0
   -7.6340    5.2857   -8.1544 C   0  0  0  0  0  0  0  0  0  0  0  0
   -6.9319    6.5507   -8.2539 N   0  0  0  0  0  0  0  0  0  0  0  0
   -6.5827    7.1485   -9.4431 C   0  0  0  0  0  0  0  0  0  0  0  0
   -5.9664    8.3218   -9.0649 C   0  0  0  0  0  0  0  0  0  0  0  0
   -5.8913    8.4208   -7.6989 N   0  0  0  0  0  0  0  0  0  0  0  0
   -6.4832    7.3412   -7.2336 C   0  0  0  0  0  0  0  0  0  0  0  0
   -6.6469    6.9794   -5.3654 Br  0  0  0  0  0  0  0  0  0  0  0  0
  2  1  1  6
  2  3  1  0
  3  4  1  0
  4  5  2  0
  5  6  1  0
  6  7  2  0
  7  8  1  0
  8  9  2  0
  9 10  1  0
 10 11  2  0
 11 12  1  0
 12 13  2  0
  2 14  1  0
 14 15  2  0
 14 16  1  0
 17 16  1  6
 17 18  1  0
 18 19  1  0
 19 20  1  0
 20 21  1  0
 21 22  1  0
 22 23  2  0
 23 24  1  0
 24 25  2  0
 25 26  1  0
 13  4  1  0
 22 17  1  0
 12  7  1  0
 25 21  1  0
M  END
>  <fragmenstein_outcome>  (113) 
nan

>  <exports>  (113) 
['/opt/xchem-fragalysis-2/maxwin/openbind-hippo/xx01zvns2b/cycle_01/syndirella/elabs/openbind_xx01zvns2b_c1_elab_chemspace_filtered.sdf']

>  <Energy>  (113) 
nan

>  <alias>  (113) 
None

>  <fragmenstein_runtime>  (113) 
nan

>  <scratch_subdir>  (113) 
nan

>  <HIPPO Compound ID>  (113) 
138886

>  <rmsd(smina/fragmenstein)>  (113) 
1.762

>  <distance_score>  (113) 
0.861776

>  <orig_smiles>  (113) 
nan

>  <fragmenstein_mode>  (113) 
nan

>  <inchikey>  (113) 
XTJAQDUBTMNKEK-PBHICJAKSA-N

>  <ref_pdb>  (113) 
Z1688a

>  <GNINA pK>  (113) 
nan

>  <gnina_score_min>  (113) 
5.168

>  <tags>  (113) 
openbind_xx01zvns2b_c1_elab_nonasap_filtered_scored_top80percent,openbind_xx01zvns2b_c1_elab_chemspace_filtered_scored_top80percent,openbind_xx01zvns2b_c1_elab_chemspace_filtered_scored,openbind_xx01zvns2b_c1_elab_chemspace_filtered_scored_top40percent,openbind_xx01zvns2b_c1_elab_chemspace_filtered_scored_top20percent,openbind_xx01zvns2b_c1_elab_chemspace_filtered_scored_top60percent,openbind_xx01zvns2b_c1_elabs_filtered

>  <smiles>  (113) 
N[C@H](Cc1cnc2ccccc2c1)C(=O)O[C@H]1CCCn2c1cnc2Br

>  <subsites>  (113) 
1 - Z4590/B/203/1

>  <gnina_score>  (113) 
5.188

>  <HIPPO Pose ID>  (113) 
69480

>  <ref_mols>  (113) 
Z1688a,Z1716a

>  <energy_score>  (113) 
-36.786386

>  <inspiration_score>  (113) 
None

>  <smina_score_min>  (113) 
-6.449

>  <fragmenstein_error>  (113) 
nan

>  <name>  (113) 
P69480

$$$$
P69483
     RDKit          3D

 26 28  0  0  0  0  0  0  0  0999 V2000
   -2.7833    6.7269  -11.7907 N   0  0  0  0  0  0  0  0  0  0  0  0
   -3.5125    6.7286  -13.0871 C   0  0  1  0  0  0  0  0  0  0  0  0
   -4.1473    5.3608  -13.3887 C   0  0  0  0  0  0  0  0  0  0  0  0
   -4.8845    5.2552  -14.6964 C   0  0  0  0  0  0  0  0  0  0  0  0
   -4.3089    5.5785  -15.9147 C   0  0  0  0  0  0  0  0  0  0  0  0
   -4.9389    5.4854  -17.1078 N   0  0  0  0  0  0  0  0  0  0  0  0
   -6.2232    5.0717  -17.1239 C   0  0  0  0  0  0  0  0  0  0  0  0
   -6.9170    4.9694  -18.3229 C   0  0  0  0  0  0  0  0  0  0  0  0
   -8.2573    4.5668  -18.3706 C   0  0  0  0  0  0  0  0  0  0  0  0
   -8.9344    4.2658  -17.1971 C   0  0  0  0  0  0  0  0  0  0  0  0
   -8.2577    4.3401  -15.9846 C   0  0  0  0  0  0  0  0  0  0  0  0
   -6.9063    4.7288  -15.9453 C   0  0  0  0  0  0  0  0  0  0  0  0
   -6.1944    4.7823  -14.7418 C   0  0  0  0  0  0  0  0  0  0  0  0
   -4.4610    7.9334  -13.1970 C   0  0  0  0  0  0  0  0  0  0  0  0
   -4.3373    8.7194  -14.1393 O   0  0  0  0  0  0  0  0  0  0  0  0
   -5.3732    8.1998  -12.2392 O   0  0  0  0  0  0  0  0  0  0  0  0
   -5.7995    7.3094  -11.1944 C   0  0  0  0  0  0  0  0  0  0  0  0
   -6.9904    6.5721  -11.6903 C   0  0  0  0  0  0  0  0  0  0  0  0
   -7.8719    6.8651  -12.7129 C   0  0  0  0  0  0  0  0  0  0  0  0
   -8.7843    5.8603  -12.8814 N   0  0  0  0  0  0  0  0  0  0  0  0
   -8.4956    4.9703  -11.9609 C   0  0  0  0  0  0  0  0  0  0  0  0
   -7.4523    5.3792  -11.1815 N   0  0  0  0  0  0  0  0  0  0  0  0
   -6.9432    4.6294  -10.0553 C   0  0  0  0  0  0  0  0  0  0  0  0
   -7.5170    5.1180   -8.7442 C   0  0  0  0  0  0  0  0  0  0  0  0
   -7.0049    4.3620   -7.7335 F   0  0  0  0  0  0  0  0  0  0  0  0
   -7.0922    6.3851   -8.4943 F   0  0  0  0  0  0  0  0  0  0  0  0
  2  1  1  1
  2  3  1  0
  3  4  1  0
  4  5  2  0
  5  6  1  0
  6  7  2  0
  7  8  1  0
  8  9  2  0
  9 10  1  0
 10 11  2  0
 11 12  1  0
 12 13  2  0
  2 14  1  0
 14 15  2  0
 14 16  1  0
 16 17  1  0
 17 18  1  0
 18 19  2  0
 19 20  1  0
 20 21  2  0
 21 22  1  0
 22 23  1  0
 23 24  1  0
 24 25  1  0
 24 26  1  0
 13  4  1  0
 22 18  1  0
 12  7  1  0
M  END
>  <fragmenstein_outcome>  (114) 
nan

>  <exports>  (114) 
['/opt/xchem-fragalysis-2/maxwin/openbind-hippo/xx01zvns2b/cycle_01/syndirella/elabs/openbind_xx01zvns2b_c1_elab_chemspace_filtered.sdf']

>  <Energy>  (114) 
nan

>  <alias>  (114) 
None

>  <fragmenstein_runtime>  (114) 
nan

>  <scratch_subdir>  (114) 
nan

>  <HIPPO Compound ID>  (114) 
138887

>  <rmsd(smina/fragmenstein)>  (114) 
1.715

>  <distance_score>  (114) 
0.781374

>  <orig_smiles>  (114) 
nan

>  <fragmenstein_mode>  (114) 
nan

>  <inchikey>  (114) 
OCAYPIWLJOOCLH-HNNXBMFYSA-N

>  <ref_pdb>  (114) 
Z1688a

>  <GNINA pK>  (114) 
nan

>  <gnina_score_min>  (114) 
5.175

>  <tags>  (114) 
openbind_xx01zvns2b_c1_elab_nonasap_filtered_scored_top80percent,openbind_xx01zvns2b_c1_elab_chemspace_filtered_scored_top80percent,openbind_xx01zvns2b_c1_elab_chemspace_filtered_scored,openbind_xx01zvns2b_c1_elab_chemspace_filtered_scored_top40percent,openbind_xx01zvns2b_c1_elab_chemspace_filtered_scored_top20percent,openbind_xx01zvns2b_c1_elab_chemspace_filtered_scored_top60percent,openbind_xx01zvns2b_c1_elabs_filtered

>  <smiles>  (114) 
N[C@@H](Cc1cnc2ccccc2c1)C(=O)OCc1cncn1CC(F)F

>  <subsites>  (114) 
1 - Z4590/B/203/1

>  <gnina_score>  (114) 
5.256

>  <HIPPO Pose ID>  (114) 
69483

>  <ref_mols>  (114) 
Z1688a,Z1716a

>  <energy_score>  (114) 
-17.183078

>  <inspiration_score>  (114) 
None

>  <smina_score_min>  (114) 
-5.399

>  <fragmenstein_error>  (114) 
nan

>  <name>  (114) 
P69483

$$$$
P69487
     RDKit          3D

 26 29  0  0  0  0  0  0  0  0999 V2000
   -2.7364    7.6492  -14.1433 N   0  0  0  0  0  0  0  0  0  0  0  0
   -3.5439    6.9553  -13.1072 C   0  0  2  0  0  0  0  0  0  0  0  0
   -3.9278    5.5042  -13.4802 C   0  0  0  0  0  0  0  0  0  0  0  0
   -4.7317    5.3171  -14.7427 C   0  0  0  0  0  0  0  0  0  0  0  0
   -4.1841    5.5315  -15.9976 C   0  0  0  0  0  0  0  0  0  0  0  0
   -4.8612    5.4178  -17.1624 N   0  0  0  0  0  0  0  0  0  0  0  0
   -6.1559    5.0488  -17.1143 C   0  0  0  0  0  0  0  0  0  0  0  0
   -6.8864    4.9246  -18.2895 C   0  0  0  0  0  0  0  0  0  0  0  0
   -8.2333    4.5468  -18.2874 C   0  0  0  0  0  0  0  0  0  0  0  0
   -8.8752    4.2842  -17.0855 C   0  0  0  0  0  0  0  0  0  0  0  0
   -8.1624    4.3894  -15.8940 C   0  0  0  0  0  0  0  0  0  0  0  0
   -6.8072    4.7734  -15.8985 C   0  0  0  0  0  0  0  0  0  0  0  0
   -6.0583    4.8902  -14.7156 C   0  0  0  0  0  0  0  0  0  0  0  0
   -4.7892    7.7834  -12.7643 C   0  0  0  0  0  0  0  0  0  0  0  0
   -5.2904    8.6231  -13.5027 O   0  0  0  0  0  0  0  0  0  0  0  0
   -5.2397    7.4507  -11.5221 O   0  0  0  0  0  0  0  0  0  0  0  0
   -6.5604    7.9052  -11.2103 C   0  0  0  0  0  0  0  0  0  0  0  0
   -7.4401    6.7803  -11.5879 C   0  0  0  0  0  0  0  0  0  0  0  0
   -8.1891    6.5679  -12.7238 C   0  0  0  0  0  0  0  0  0  0  0  0
   -8.7236    5.3048  -12.7312 N   0  0  0  0  0  0  0  0  0  0  0  0
   -8.3206    4.7389  -11.6094 C   0  0  0  0  0  0  0  0  0  0  0  0
   -7.6063    5.6358  -10.8569 N   0  0  0  0  0  0  0  0  0  0  0  0
   -7.2007    5.3696   -9.4924 C   0  0  0  0  0  0  0  0  0  0  0  0
   -7.3624    3.8971   -9.1357 C   0  0  0  0  0  0  0  0  0  0  0  0
   -8.5767    3.3846   -9.6801 O   0  0  0  0  0  0  0  0  0  0  0  0
   -8.5191    3.3416  -11.1151 C   0  0  0  0  0  0  0  0  0  0  0  0
  2  1  1  6
  2  3  1  0
  3  4  1  0
  4  5  2  0
  5  6  1  0
  6  7  2  0
  7  8  1  0
  8  9  2  0
  9 10  1  0
 10 11  2  0
 11 12  1  0
 12 13  2  0
  2 14  1  0
 14 15  2  0
 14 16  1  0
 16 17  1  0
 17 18  1  0
 18 19  2  0
 19 20  1  0
 20 21  2  0
 21 22  1  0
 22 23  1  0
 23 24  1  0
 24 25  1  0
 25 26  1  0
 13  4  1  0
 22 18  1  0
 12  7  1  0
 26 21  1  0
M  END
>  <fragmenstein_outcome>  (115) 
nan

>  <exports>  (115) 
['/opt/xchem-fragalysis-2/maxwin/openbind-hippo/xx01zvns2b/cycle_01/syndirella/elabs/openbind_xx01zvns2b_c1_elab_chemspace_filtered.sdf']

>  <Energy>  (115) 
nan

>  <alias>  (115) 
None

>  <fragmenstein_runtime>  (115) 
nan

>  <scratch_subdir>  (115) 
nan

>  <HIPPO Compound ID>  (115) 
138891

>  <rmsd(smina/fragmenstein)>  (115) 
1.419

>  <distance_score>  (115) 
0.703169

>  <orig_smiles>  (115) 
nan

>  <fragmenstein_mode>  (115) 
nan

>  <inchikey>  (115) 
BLTGQRUBFNHJLO-MRXNPFEDSA-N

>  <ref_pdb>  (115) 
Z1688a

>  <GNINA pK>  (115) 
nan

>  <gnina_score_min>  (115) 
5.195

>  <tags>  (115) 
openbind_xx01zvns2b_c1_elab_nonasap_filtered_scored_top80percent,openbind_xx01zvns2b_c1_elab_chemspace_filtered_scored_top80percent,openbind_xx01zvns2b_c1_elab_chemspace_filtered_scored,openbind_xx01zvns2b_c1_elab_chemspace_filtered_scored_top40percent,openbind_xx01zvns2b_c1_elab_chemspace_filtered_scored_top20percent,openbind_xx01zvns2b_c1_elab_chemspace_filtered_scored_top60percent,openbind_xx01zvns2b_c1_elabs_filtered

>  <smiles>  (115) 
N[C@H](Cc1cnc2ccccc2c1)C(=O)OCc1cnc2n1CCOC2

>  <subsites>  (115) 
1 - Z4590/B/203/1

>  <gnina_score>  (115) 
5.078

>  <HIPPO Pose ID>  (115) 
69487

>  <ref_mols>  (115) 
Z1688a,Z1716a

>  <energy_score>  (115) 
-45.530789

>  <inspiration_score>  (115) 
None

>  <smina_score_min>  (115) 
-5.989

>  <fragmenstein_error>  (115) 
nan

>  <name>  (115) 
P69487

$$$$
P69489
     RDKit          3D

 27 29  0  0  0  0  0  0  0  0999 V2000
   -5.0088    8.3825  -13.5987 O   0  0  0  0  0  0  0  0  0  0  0  0
   -4.7290    7.5634  -12.7267 C   0  0  0  0  0  0  0  0  0  0  0  0
   -3.6512    6.5263  -12.9267 C   0  0  0  0  0  0  0  0  0  0  0  0
   -4.1047    5.1738  -13.4645 C   0  0  0  0  0  0  0  0  0  0  0  0
   -4.9132    5.1794  -14.7311 C   0  0  0  0  0  0  0  0  0  0  0  0
   -6.1900    4.7668  -14.7644 C   0  0  0  0  0  0  0  0  0  0  0  0
   -6.9625    4.7331  -15.9981 C   0  0  0  0  0  0  0  0  0  0  0  0
   -8.3148    4.3805  -16.0063 C   0  0  0  0  0  0  0  0  0  0  0  0
   -9.0035    4.2923  -17.2152 C   0  0  0  0  0  0  0  0  0  0  0  0
   -8.3388    4.5519  -18.4126 C   0  0  0  0  0  0  0  0  0  0  0  0
   -6.9920    4.9252  -18.4063 C   0  0  0  0  0  0  0  0  0  0  0  0
   -6.3112    5.0242  -17.1967 C   0  0  0  0  0  0  0  0  0  0  0  0
   -4.9653    5.4147  -17.1658 N   0  0  0  0  0  0  0  0  0  0  0  0
   -4.2308    5.5292  -16.0136 C   0  0  0  0  0  0  0  0  0  0  0  0
   -3.0502    5.8686  -16.0346 O   0  0  0  0  0  0  0  0  0  0  0  0
   -5.3227    7.6376  -11.5089 O   0  0  0  0  0  0  0  0  0  0  0  0
   -5.6755    6.4690  -10.7445 C   0  0  0  0  0  0  0  0  0  0  0  0
   -6.9061    5.8870  -11.3407 C   0  0  0  0  0  0  0  0  0  0  0  0
   -7.7844    6.4237  -12.2677 C   0  0  0  0  0  0  0  0  0  0  0  0
   -8.7249    5.5107  -12.6469 N   0  0  0  0  0  0  0  0  0  0  0  0
   -8.4786    4.4425  -11.9242 C   0  0  0  0  0  0  0  0  0  0  0  0
   -7.4072    4.6251  -11.0912 N   0  0  0  0  0  0  0  0  0  0  0  0
   -6.9699    3.6190  -10.1349 C   0  0  0  0  0  0  0  0  0  0  0  0
   -5.8554    2.7385  -10.6583 C   0  0  0  0  0  0  0  0  0  0  0  0
   -4.6880    3.4344  -10.6861 F   0  0  0  0  0  0  0  0  0  0  0  0
   -6.0892    2.2971  -11.9096 F   0  0  0  0  0  0  0  0  0  0  0  0
   -5.6414    1.6707   -9.8615 F   0  0  0  0  0  0  0  0  0  0  0  0
  1  2  2  0
  2  3  1  0
  3  4  1  0
  4  5  1  0
  5  6  2  0
  6  7  1  0
  7  8  2  0
  8  9  1  0
  9 10  2  0
 10 11  1  0
 11 12  2  0
 12 13  1  0
 13 14  1  0
 14 15  2  0
  2 16  1  0
 16 17  1  0
 17 18  1  0
 18 19  2  0
 19 20  1  0
 20 21  2  0
 21 22  1  0
 22 23  1  0
 23 24  1  0
 24 25  1  0
 24 26  1  0
 24 27  1  0
 14  5  1  0
 22 18  1  0
 12  7  1  0
M  END
>  <fragmenstein_outcome>  (116) 
nan

>  <exports>  (116) 
['/opt/xchem-fragalysis-2/maxwin/openbind-hippo/xx01zvns2b/cycle_01/syndirella/elabs/openbind_xx01zvns2b_c1_elab_chemspace_filtered.sdf']

>  <Energy>  (116) 
nan

>  <alias>  (116) 
None

>  <fragmenstein_runtime>  (116) 
nan

>  <scratch_subdir>  (116) 
nan

>  <HIPPO Compound ID>  (116) 
138892

>  <rmsd(smina/fragmenstein)>  (116) 
0.588

>  <distance_score>  (116) 
0.776422

>  <orig_smiles>  (116) 
nan

>  <fragmenstein_mode>  (116) 
nan

>  <inchikey>  (116) 
UZVXJNOZEGKIIJ-UHFFFAOYSA-N

>  <ref_pdb>  (116) 
Z1688a

>  <GNINA pK>  (116) 
nan

>  <gnina_score_min>  (116) 
5.168

>  <tags>  (116) 
openbind_xx01zvns2b_c1_elab_nonasap_filtered_scored_top80percent,openbind_xx01zvns2b_c1_elab_chemspace_filtered_scored_top80percent,openbind_xx01zvns2b_c1_elab_chemspace_filtered_scored,openbind_xx01zvns2b_c1_elab_chemspace_filtered_scored_top40percent,openbind_xx01zvns2b_c1_elab_chemspace_filtered_scored_top20percent,openbind_xx01zvns2b_c1_elab_chemspace_filtered_scored_top60percent,openbind_xx01zvns2b_c1_elabs_filtered

>  <smiles>  (116) 
O=C(CCc1cc2ccccc2[nH]c1=O)OCc1cncn1CC(F)(F)F

>  <subsites>  (116) 
1 - Z4590/B/203/1

>  <gnina_score>  (116) 
5.287

>  <HIPPO Pose ID>  (116) 
69489

>  <ref_mols>  (116) 
Z1688a,Z1716a

>  <energy_score>  (116) 
-26.11377

>  <inspiration_score>  (116) 
None

>  <smina_score_min>  (116) 
-5.594

>  <fragmenstein_error>  (116) 
nan

>  <name>  (116) 
P69489

$$$$
P69492
     RDKit          3D

 27 30  0  0  0  0  0  0  0  0999 V2000
   -2.9474    7.7744  -14.0789 N   0  0  0  0  0  0  0  0  0  0  0  0
   -3.4639    6.8757  -13.0159 C   0  0  2  0  0  0  0  0  0  0  0  0
   -3.8324    5.4646  -13.5215 C   0  0  0  0  0  0  0  0  0  0  0  0
   -4.6820    5.3695  -14.7642 C   0  0  0  0  0  0  0  0  0  0  0  0
   -4.1339    5.5257  -16.0275 C   0  0  0  0  0  0  0  0  0  0  0  0
   -4.8232    5.4009  -17.1843 N   0  0  0  0  0  0  0  0  0  0  0  0
   -6.1295    5.0771  -17.1186 C   0  0  0  0  0  0  0  0  0  0  0  0
   -6.8610    4.8980  -18.2863 C   0  0  0  0  0  0  0  0  0  0  0  0
   -8.2149    4.5463  -18.2652 C   0  0  0  0  0  0  0  0  0  0  0  0
   -8.8664    4.3782  -17.0510 C   0  0  0  0  0  0  0  0  0  0  0  0
   -8.1595    4.5626  -15.8653 C   0  0  0  0  0  0  0  0  0  0  0  0
   -6.7926    4.9026  -15.8906 C   0  0  0  0  0  0  0  0  0  0  0  0
   -6.0385    5.0595  -14.7165 C   0  0  0  0  0  0  0  0  0  0  0  0
   -4.6358    7.5318  -12.2734 C   0  0  0  0  0  0  0  0  0  0  0  0
   -5.2156    8.5438  -12.6468 O   0  0  0  0  0  0  0  0  0  0  0  0
   -4.9032    6.8439  -11.1259 O   0  0  0  0  0  0  0  0  0  0  0  0
   -6.1312    7.1832  -10.4675 C   0  0  0  0  0  0  0  0  0  0  0  0
   -7.1567    6.3123  -11.0804 C   0  0  0  0  0  0  0  0  0  0  0  0
   -8.1812    6.5839  -11.9606 C   0  0  0  0  0  0  0  0  0  0  0  0
   -8.7685    8.2910  -12.4889 Br  0  0  0  0  0  0  0  0  0  0  0  0
   -8.7277    5.4316  -12.4593 N   0  0  0  0  0  0  0  0  0  0  0  0
   -8.1003    4.4499  -11.8400 C   0  0  0  0  0  0  0  0  0  0  0  0
   -7.2085    4.9495  -10.9238 N   0  0  0  0  0  0  0  0  0  0  0  0
   -6.3545    4.0948  -10.1139 C   0  0  0  0  0  0  0  0  0  0  0  0
   -6.7713    2.6333  -10.2398 C   0  0  0  0  0  0  0  0  0  0  0  0
   -6.9945    2.3448  -11.6241 O   0  0  0  0  0  0  0  0  0  0  0  0
   -8.2019    2.9800  -12.0816 C   0  0  0  0  0  0  0  0  0  0  0  0
  2  1  1  6
  2  3  1  0
  3  4  1  0
  4  5  2  0
  5  6  1  0
  6  7  2  0
  7  8  1  0
  8  9  2  0
  9 10  1  0
 10 11  2  0
 11 12  1  0
 12 13  2  0
  2 14  1  0
 14 15  2  0
 14 16  1  0
 16 17  1  0
 17 18  1  0
 18 19  2  0
 19 20  1  0
 19 21  1  0
 21 22  2  0
 22 23  1  0
 23 24  1  0
 24 25  1  0
 25 26  1  0
 26 27  1  0
 13  4  1  0
 23 18  1  0
 12  7  1  0
 27 22  1  0
M  END
>  <fragmenstein_outcome>  (117) 
nan

>  <exports>  (117) 
['/opt/xchem-fragalysis-2/maxwin/openbind-hippo/xx01zvns2b/cycle_01/syndirella/elabs/openbind_xx01zvns2b_c1_elab_chemspace_filtered.sdf']

>  <Energy>  (117) 
nan

>  <alias>  (117) 
None

>  <fragmenstein_runtime>  (117) 
nan

>  <scratch_subdir>  (117) 
nan

>  <HIPPO Compound ID>  (117) 
138895

>  <rmsd(smina/fragmenstein)>  (117) 
1.107

>  <distance_score>  (117) 
0.771649

>  <orig_smiles>  (117) 
nan

>  <fragmenstein_mode>  (117) 
nan

>  <inchikey>  (117) 
GOLRNCKUOAWXBS-CQSZACIVSA-N

>  <ref_pdb>  (117) 
Z1688a

>  <GNINA pK>  (117) 
nan

>  <gnina_score_min>  (117) 
5.356

>  <tags>  (117) 
openbind_xx01zvns2b_c1_elab_nonasap_filtered_scored_top80percent,openbind_xx01zvns2b_c1_elab_chemspace_filtered_scored_top80percent,openbind_xx01zvns2b_c1_elab_chemspace_filtered_scored,openbind_xx01zvns2b_c1_elab_chemspace_filtered_scored_top40percent,openbind_xx01zvns2b_c1_elab_chemspace_filtered_scored_top20percent,openbind_xx01zvns2b_c1_elab_chemspace_filtered_scored_top60percent,openbind_xx01zvns2b_c1_elabs_filtered

>  <smiles>  (117) 
N[C@H](Cc1cnc2ccccc2c1)C(=O)OCc1c(Br)nc2n1CCOC2

>  <subsites>  (117) 
1 - Z4590/B/203/1

>  <gnina_score>  (117) 
5.179

>  <HIPPO Pose ID>  (117) 
69492

>  <ref_mols>  (117) 
Z1688a,Z1716a

>  <energy_score>  (117) 
-35.524516

>  <inspiration_score>  (117) 
None

>  <smina_score_min>  (117) 
-6.163

>  <fragmenstein_error>  (117) 
nan

>  <name>  (117) 
P69492

$$$$
P69495
     RDKit          3D

 27 29  0  0  0  0  0  0  0  0999 V2000
   -2.3961    6.6160  -12.0133 N   0  0  0  0  0  0  0  0  0  0  0  0
   -3.4465    6.6899  -13.0624 C   0  0  1  0  0  0  0  0  0  0  0  0
   -3.9512    5.2826  -13.4380 C   0  0  0  0  0  0  0  0  0  0  0  0
   -4.7743    5.2262  -14.6971 C   0  0  0  0  0  0  0  0  0  0  0  0
   -4.2338    5.5400  -15.9346 C   0  0  0  0  0  0  0  0  0  0  0  0
   -4.9075    5.4756  -17.1036 N   0  0  0  0  0  0  0  0  0  0  0  0
   -6.1966    5.0830  -17.0764 C   0  0  0  0  0  0  0  0  0  0  0  0
   -6.9185    4.9821  -18.2588 C   0  0  0  0  0  0  0  0  0  0  0  0
   -8.2605    4.5874  -18.2745 C   0  0  0  0  0  0  0  0  0  0  0  0
   -8.9093    4.2944  -17.0828 C   0  0  0  0  0  0  0  0  0  0  0  0
   -8.2056    4.3754  -15.8843 C   0  0  0  0  0  0  0  0  0  0  0  0
   -6.8514    4.7583  -15.8741 C   0  0  0  0  0  0  0  0  0  0  0  0
   -6.1056    4.8139  -14.6870 C   0  0  0  0  0  0  0  0  0  0  0  0
   -4.6224    7.5419  -12.5691 C   0  0  0  0  0  0  0  0  0  0  0  0
   -5.1624    8.4220  -13.2268 O   0  0  0  0  0  0  0  0  0  0  0  0
   -5.0190    7.1233  -11.3267 O   0  0  0  0  0  0  0  0  0  0  0  0
   -6.2930    7.6152  -10.9044 C   0  0  0  0  0  0  0  0  0  0  0  0
   -7.2805    6.6321  -11.4143 C   0  0  0  0  0  0  0  0  0  0  0  0
   -8.0585    6.6841  -12.5518 C   0  0  0  0  0  0  0  0  0  0  0  0
   -8.7632    5.5245  -12.7140 N   0  0  0  0  0  0  0  0  0  0  0  0
   -8.4356    4.7677  -11.6904 C   0  0  0  0  0  0  0  0  0  0  0  0
   -7.5639    5.4068  -10.8539 N   0  0  0  0  0  0  0  0  0  0  0  0
   -7.0081    4.8332   -9.6433 C   0  0  0  0  0  0  0  0  0  0  0  0
   -7.8055    5.1900   -8.4095 C   0  0  0  0  0  0  0  0  0  0  0  0
   -8.9975    4.5592   -8.3762 F   0  0  0  0  0  0  0  0  0  0  0  0
   -8.0345    6.5197   -8.3266 F   0  0  0  0  0  0  0  0  0  0  0  0
   -7.1307    4.8440   -7.2897 F   0  0  0  0  0  0  0  0  0  0  0  0
  2  1  1  1
  2  3  1  0
  3  4  1  0
  4  5  2  0
  5  6  1  0
  6  7  2  0
  7  8  1  0
  8  9  2  0
  9 10  1  0
 10 11  2  0
 11 12  1  0
 12 13  2  0
  2 14  1  0
 14 15  2  0
 14 16  1  0
 16 17  1  0
 17 18  1  0
 18 19  2  0
 19 20  1  0
 20 21  2  0
 21 22  1  0
 22 23  1  0
 23 24  1  0
 24 25  1  0
 24 26  1  0
 24 27  1  0
 13  4  1  0
 22 18  1  0
 12  7  1  0
M  END
>  <fragmenstein_outcome>  (118) 
nan

>  <exports>  (118) 
['/opt/xchem-fragalysis-2/maxwin/openbind-hippo/xx01zvns2b/cycle_01/syndirella/elabs/openbind_xx01zvns2b_c1_elab_chemspace_filtered.sdf']

>  <Energy>  (118) 
nan

>  <alias>  (118) 
None

>  <fragmenstein_runtime>  (118) 
nan

>  <scratch_subdir>  (118) 
nan

>  <HIPPO Compound ID>  (118) 
138896

>  <rmsd(smina/fragmenstein)>  (118) 
0.834

>  <distance_score>  (118) 
0.78681

>  <orig_smiles>  (118) 
nan

>  <fragmenstein_mode>  (118) 
nan

>  <inchikey>  (118) 
QHJOWPPAPPQFHS-HNNXBMFYSA-N

>  <ref_pdb>  (118) 
Z1688a

>  <GNINA pK>  (118) 
nan

>  <gnina_score_min>  (118) 
5.307

>  <tags>  (118) 
openbind_xx01zvns2b_c1_elab_nonasap_filtered_scored_top80percent,openbind_xx01zvns2b_c1_elab_chemspace_filtered_scored_top80percent,openbind_xx01zvns2b_c1_elab_chemspace_filtered_scored,openbind_xx01zvns2b_c1_elab_chemspace_filtered_scored_top40percent,openbind_xx01zvns2b_c1_elab_chemspace_filtered_scored_top20percent,openbind_xx01zvns2b_c1_elab_chemspace_filtered_scored_top60percent,openbind_xx01zvns2b_c1_elabs_filtered

>  <smiles>  (118) 
N[C@@H](Cc1cnc2ccccc2c1)C(=O)OCc1cncn1CC(F)(F)F

>  <subsites>  (118) 
1 - Z4590/B/203/1

>  <gnina_score>  (118) 
5.236

>  <HIPPO Pose ID>  (118) 
69495

>  <ref_mols>  (118) 
Z1688a,Z1716a

>  <energy_score>  (118) 
-27.510032

>  <inspiration_score>  (118) 
None

>  <smina_score_min>  (118) 
-5.552

>  <fragmenstein_error>  (118) 
nan

>  <name>  (118) 
P69495

$$$$
P69501
     RDKit          3D

 29 32  0  0  0  0  0  0  0  0999 V2000
   -2.2915    7.0616  -13.8298 N   0  0  0  0  0  0  0  0  0  0  0  0
   -3.5387    6.7563  -13.0628 C   0  0  2  0  0  0  0  0  0  0  0  0
   -4.0885    5.3704  -13.4526 C   0  0  0  0  0  0  0  0  0  0  0  0
   -4.8411    5.2460  -14.7494 C   0  0  0  0  0  0  0  0  0  0  0  0
   -4.2551    5.4640  -15.9844 C   0  0  0  0  0  0  0  0  0  0  0  0
   -4.9009    5.3586  -17.1693 N   0  0  0  0  0  0  0  0  0  0  0  0
   -6.2052    5.0139  -17.1605 C   0  0  0  0  0  0  0  0  0  0  0  0
   -6.9117    4.8961  -18.3504 C   0  0  0  0  0  0  0  0  0  0  0  0
   -8.2663    4.5425  -18.3749 C   0  0  0  0  0  0  0  0  0  0  0  0
   -8.9442    4.3044  -17.1871 C   0  0  0  0  0  0  0  0  0  0  0  0
   -8.2586    4.4052  -15.9814 C   0  0  0  0  0  0  0  0  0  0  0  0
   -6.8947    4.7521  -15.9651 C   0  0  0  0  0  0  0  0  0  0  0  0
   -6.1750    4.8413  -14.7684 C   0  0  0  0  0  0  0  0  0  0  0  0
   -4.5259    7.9278  -13.2270 C   0  0  0  0  0  0  0  0  0  0  0  0
   -4.4224    8.7096  -14.1748 O   0  0  0  0  0  0  0  0  0  0  0  0
   -5.4507    8.1608  -12.2715 O   0  0  0  0  0  0  0  0  0  0  0  0
   -5.8019    7.2689  -11.1988 C   0  0  0  0  0  0  0  0  0  0  0  0
   -6.9749    6.4857  -11.6467 C   0  0  0  0  0  0  0  0  0  0  0  0
   -7.9241    6.7670  -12.6111 C   0  0  0  0  0  0  0  0  0  0  0  0
   -8.7954    5.7261  -12.7650 N   0  0  0  0  0  0  0  0  0  0  0  0
   -8.4382    4.8386  -11.8653 C   0  0  0  0  0  0  0  0  0  0  0  0
   -7.3515    5.2569  -11.1481 N   0  0  0  0  0  0  0  0  0  0  0  0
   -6.6930    4.4496  -10.1336 C   0  0  0  0  0  0  0  0  0  0  0  0
   -6.9568    4.9676   -8.7431 C   0  0  0  0  0  0  0  0  0  0  0  0
   -5.9542    5.6235   -8.0128 C   0  0  0  0  0  0  0  0  0  0  0  0
   -6.2061    6.0810   -6.7179 C   0  0  0  0  0  0  0  0  0  0  0  0
   -7.4578    5.8842   -6.1378 C   0  0  0  0  0  0  0  0  0  0  0  0
   -8.4591    5.2294   -6.8507 C   0  0  0  0  0  0  0  0  0  0  0  0
   -8.2115    4.7743   -8.1463 C   0  0  0  0  0  0  0  0  0  0  0  0
  2  1  1  6
  2  3  1  0
  3  4  1  0
  4  5  2  0
  5  6  1  0
  6  7  2  0
  7  8  1  0
  8  9  2  0
  9 10  1  0
 10 11  2  0
 11 12  1  0
 12 13  2  0
  2 14  1  0
 14 15  2  0
 14 16  1  0
 16 17  1  0
 17 18  1  0
 18 19  2  0
 19 20  1  0
 20 21  2  0
 21 22  1  0
 22 23  1  0
 23 24  1  0
 24 25  2  0
 25 26  1  0
 26 27  2  0
 27 28  1  0
 28 29  2  0
 13  4  1  0
 22 18  1  0
 29 24  1  0
 12  7  1  0
M  END
>  <fragmenstein_outcome>  (119) 
nan

>  <exports>  (119) 
['/opt/xchem-fragalysis-2/maxwin/openbind-hippo/xx01zvns2b/cycle_01/syndirella/elabs/openbind_xx01zvns2b_c1_elab_chemspace_filtered.sdf']

>  <Energy>  (119) 
nan

>  <alias>  (119) 
None

>  <fragmenstein_runtime>  (119) 
nan

>  <scratch_subdir>  (119) 
nan

>  <HIPPO Compound ID>  (119) 
138901

>  <rmsd(smina/fragmenstein)>  (119) 
0.88

>  <distance_score>  (119) 
0.831485

>  <orig_smiles>  (119) 
nan

>  <fragmenstein_mode>  (119) 
nan

>  <inchikey>  (119) 
ZIJWKOZGGUJLCD-OAQYLSRUSA-N

>  <ref_pdb>  (119) 
Z1688a

>  <GNINA pK>  (119) 
nan

>  <gnina_score_min>  (119) 
5.423

>  <tags>  (119) 
openbind_xx01zvns2b_c1_elab_nonasap_filtered_scored_top80percent,openbind_xx01zvns2b_c1_elab_chemspace_filtered_scored_top80percent,openbind_xx01zvns2b_c1_elab_chemspace_filtered_scored,openbind_xx01zvns2b_c1_elab_chemspace_filtered_scored_top40percent,openbind_xx01zvns2b_c1_elab_chemspace_filtered_scored_top20percent,openbind_xx01zvns2b_c1_elab_chemspace_filtered_scored_top60percent,openbind_xx01zvns2b_c1_elabs_filtered

>  <smiles>  (119) 
N[C@H](Cc1cnc2ccccc2c1)C(=O)OCc1cncn1Cc1ccccc1

>  <subsites>  (119) 
1 - Z4590/B/203/1

>  <gnina_score>  (119) 
5.376

>  <HIPPO Pose ID>  (119) 
69501

>  <ref_mols>  (119) 
Z1688a,Z1716a

>  <energy_score>  (119) 
-21.623178

>  <inspiration_score>  (119) 
None

>  <smina_score_min>  (119) 
-5.717

>  <fragmenstein_error>  (119) 
nan

>  <name>  (119) 
P69501

$$$$
P69512
     RDKit          3D

 32 35  0  0  0  0  0  0  0  0999 V2000
   -7.5986    4.3889   -8.6533 C   0  0  0  0  0  0  0  0  0  0  0  0
   -6.6142    5.0198   -9.6457 C   0  0  1  0  0  0  0  0  0  0  0  0
   -5.2956    4.2632   -9.7890 C   0  0  0  0  0  0  0  0  0  0  0  0
   -4.0810    4.9065   -9.4849 C   0  0  0  0  0  0  0  0  0  0  0  0
   -2.8558    4.2494   -9.6365 C   0  0  0  0  0  0  0  0  0  0  0  0
   -2.8256    2.9305  -10.0786 C   0  0  0  0  0  0  0  0  0  0  0  0
   -1.3162    2.1312  -10.2731 Cl  0  0  0  0  0  0  0  0  0  0  0  0
   -4.0112    2.2600  -10.3518 C   0  0  0  0  0  0  0  0  0  0  0  0
   -5.2357    2.9201  -10.1964 C   0  0  0  0  0  0  0  0  0  0  0  0
   -7.1941    5.4219  -10.9413 N   0  0  0  0  0  0  0  0  0  0  0  0
   -6.9650    6.6404  -11.5798 C   0  0  0  0  0  0  0  0  0  0  0  0
   -5.9097    7.6207  -11.2340 C   0  0  0  0  0  0  0  0  0  0  0  0
   -5.5858    8.3455  -12.4343 O   0  0  0  0  0  0  0  0  0  0  0  0
   -4.6224    8.0238  -13.3265 C   0  0  0  0  0  0  0  0  0  0  0  0
   -4.5152    8.6882  -14.3607 O   0  0  0  0  0  0  0  0  0  0  0  0
   -3.6401    6.8703  -13.0271 C   0  0  2  0  0  0  0  0  0  0  0  0
   -2.3286    7.1818  -13.6676 N   0  0  0  0  0  0  0  0  0  0  0  0
   -4.1584    5.4716  -13.4193 C   0  0  0  0  0  0  0  0  0  0  0  0
   -4.8730    5.3272  -14.7351 C   0  0  0  0  0  0  0  0  0  0  0  0
   -4.3008    5.6277  -15.9582 C   0  0  0  0  0  0  0  0  0  0  0  0
   -4.9316    5.5040  -17.1502 N   0  0  0  0  0  0  0  0  0  0  0  0
   -6.2138    5.0835  -17.1578 C   0  0  0  0  0  0  0  0  0  0  0  0
   -6.9126    4.9607  -18.3517 C   0  0  0  0  0  0  0  0  0  0  0  0
   -8.2517    4.5513  -18.3877 C   0  0  0  0  0  0  0  0  0  0  0  0
   -8.9225    4.2610  -17.2076 C   0  0  0  0  0  0  0  0  0  0  0  0
   -8.2406    4.3546  -15.9996 C   0  0  0  0  0  0  0  0  0  0  0  0
   -6.8915    4.7538  -15.9737 C   0  0  0  0  0  0  0  0  0  0  0  0
   -6.1757    4.8342  -14.7760 C   0  0  0  0  0  0  0  0  0  0  0  0
   -7.9197    6.7032  -12.5752 C   0  0  0  0  0  0  0  0  0  0  0  0
   -8.6113    5.5348  -12.6653 N   0  0  0  0  0  0  0  0  0  0  0  0
   -8.1186    4.7667  -11.7210 C   0  0  0  0  0  0  0  0  0  0  0  0
   -8.5009    3.0945  -11.6027 S   0  0  0  0  0  0  0  0  0  0  0  0
  2  1  1  6
  2  3  1  0
  3  4  2  0
  4  5  1  0
  5  6  2  0
  6  7  1  0
  6  8  1  0
  8  9  2  0
  2 10  1  0
 10 11  1  0
 11 12  1  0
 12 13  1  0
 13 14  1  0
 14 15  2  0
 14 16  1  0
 16 17  1  6
 16 18  1  0
 18 19  1  0
 19 20  2  0
 20 21  1  0
 21 22  2  0
 22 23  1  0
 23 24  2  0
 24 25  1  0
 25 26  2  0
 26 27  1  0
 27 28  2  0
 11 29  2  0
 29 30  1  0
 30 31  2  0
 31 32  1  0
  9  3  1  0
 31 10  1  0
 28 19  1  0
 27 22  1  0
M  END
>  <fragmenstein_outcome>  (120) 
nan

>  <exports>  (120) 
['/opt/xchem-fragalysis-2/maxwin/openbind-hippo/xx01zvns2b/cycle_01/syndirella/elabs/openbind_xx01zvns2b_c1_elab_chemspace_filtered.sdf']

>  <Energy>  (120) 
nan

>  <alias>  (120) 
None

>  <fragmenstein_runtime>  (120) 
nan

>  <scratch_subdir>  (120) 
nan

>  <HIPPO Compound ID>  (120) 
138909

>  <rmsd(smina/fragmenstein)>  (120) 
1.59

>  <distance_score>  (120) 
0.729663

>  <orig_smiles>  (120) 
nan

>  <fragmenstein_mode>  (120) 
nan

>  <inchikey>  (120) 
SOXQGZIPKINFAQ-YCRPNKLZSA-N

>  <ref_pdb>  (120) 
Z1688a

>  <GNINA pK>  (120) 
nan

>  <gnina_score_min>  (120) 
6.102

>  <tags>  (120) 
openbind_xx01zvns2b_c1_elab_nonasap_filtered_scored_top80percent,openbind_xx01zvns2b_c1_elab_chemspace_filtered_scored_top80percent,openbind_xx01zvns2b_c1_elab_chemspace_filtered_scored,openbind_xx01zvns2b_c1_elab_chemspace_filtered_scored_top40percent,openbind_xx01zvns2b_c1_elab_chemspace_filtered_scored_top20percent,openbind_xx01zvns2b_c1_elab_chemspace_filtered_scored_top60percent,openbind_xx01zvns2b_c1_elabs_filtered

>  <smiles>  (120) 
C[C@@H](c1ccc(Cl)cc1)n1c(COC(=O)[C@H](N)Cc2cnc3ccccc3c2)cnc1S

>  <subsites>  (120) 
1 - Z4590/B/203/1

>  <gnina_score>  (120) 
5.781

>  <HIPPO Pose ID>  (120) 
69512

>  <ref_mols>  (120) 
Z1688a,Z1716a

>  <energy_score>  (120) 
-45.635416

>  <inspiration_score>  (120) 
None

>  <smina_score_min>  (120) 
-6.425

>  <fragmenstein_error>  (120) 
nan

>  <name>  (120) 
P69512

$$$$
P69542
     RDKit          3D

 23 26  0  0  0  0  0  0  0  0999 V2000
   -3.1656    5.1388  -13.0557 C   0  0  0  0  0  0  0  0  0  0  0  0
   -3.7326    6.4836  -13.3792 C   0  0  0  0  0  0  0  0  0  0  0  0
   -3.8588    6.9329  -14.8235 C   0  0  0  0  0  0  0  0  0  0  0  0
   -4.3287    5.9588  -15.8258 N   0  0  0  0  0  0  0  0  0  0  0  0
   -3.3339    5.0435  -16.3919 C   0  0  0  0  0  0  0  0  0  0  0  0
   -2.6558    5.5295  -17.6269 C   0  0  0  0  0  0  0  0  0  0  0  0
   -2.5485    6.7536  -18.2554 C   0  0  0  0  0  0  0  0  0  0  0  0
   -1.7666    6.5427  -19.4160 C   0  0  0  0  0  0  0  0  0  0  0  0
   -1.4485    5.2059  -19.4231 C   0  0  0  0  0  0  0  0  0  0  0  0
   -1.9894    4.5847  -18.3448 O   0  0  0  0  0  0  0  0  0  0  0  0
   -5.6291    5.4639  -15.6921 C   0  0  0  0  0  0  0  0  0  0  0  0
   -6.1163    5.3913  -14.4461 N   0  0  0  0  0  0  0  0  0  0  0  0
   -7.3544    4.9112  -14.3135 C   0  0  0  0  0  0  0  0  0  0  0  0
   -7.9319    4.7722  -12.7159 Cl  0  0  0  0  0  0  0  0  0  0  0  0
   -8.1833    4.5289  -15.2762 N   0  0  0  0  0  0  0  0  0  0  0  0
   -7.7007    4.5921  -16.5133 C   0  0  0  0  0  0  0  0  0  0  0  0
   -8.5321    4.1880  -17.5488 C   0  0  0  0  0  0  0  0  0  0  0  0
   -8.1159    4.2192  -18.8775 C   0  0  0  0  0  0  0  0  0  0  0  0
   -6.8471    4.6797  -19.1836 C   0  0  0  0  0  0  0  0  0  0  0  0
   -6.0160    5.1281  -18.1651 C   0  0  0  0  0  0  0  0  0  0  0  0
   -6.4084    5.0634  -16.8061 C   0  0  0  0  0  0  0  0  0  0  0  0
   -4.5321    7.1696  -12.3543 N   0  0  0  0  0  0  0  0  0  0  0  0
   -3.3578    7.5578  -12.4307 N   0  0  0  0  0  0  0  0  0  0  0  0
  1  2  1  0
  2  3  1  0
  3  4  1  0
  4  5  1  0
  5  6  1  0
  6  7  2  0
  7  8  1  0
  8  9  2  0
  9 10  1  0
  4 11  1  0
 11 12  2  0
 12 13  1  0
 13 14  1  0
 13 15  2  0
 15 16  1  0
 16 17  2  0
 17 18  1  0
 18 19  2  0
 19 20  1  0
 20 21  2  0
  2 22  1  0
 22 23  2  0
 23  2  1  0
 10  6  1  0
 21 11  1  0
 21 16  1  0
M  END
>  <fragmenstein_outcome>  (121) 
nan

>  <exports>  (121) 
['/opt/xchem-fragalysis-2/maxwin/openbind-hippo/xx01zvns2b/cycle_01/syndirella/elabs/openbind_xx01zvns2b_c1_elab_chemspace_filtered.sdf']

>  <Energy>  (121) 
nan

>  <alias>  (121) 
None

>  <fragmenstein_runtime>  (121) 
nan

>  <scratch_subdir>  (121) 
nan

>  <HIPPO Compound ID>  (121) 
138966

>  <rmsd(smina/fragmenstein)>  (121) 
1.385

>  <distance_score>  (121) 
0.799714

>  <orig_smiles>  (121) 
nan

>  <fragmenstein_mode>  (121) 
nan

>  <inchikey>  (121) 
PQWMHKMECRHFOM-UHFFFAOYSA-N

>  <ref_pdb>  (121) 
Z1719a

>  <GNINA pK>  (121) 
nan

>  <gnina_score_min>  (121) 
5.289

>  <tags>  (121) 
openbind_xx01zvns2b_c1_elab_nonasap_filtered_scored_top80percent,openbind_xx01zvns2b_c1_elab_chemspace_filtered_scored_top80percent,openbind_xx01zvns2b_c1_elab_chemspace_filtered_scored,openbind_xx01zvns2b_c1_elab_chemspace_filtered_scored_top40percent,openbind_xx01zvns2b_c1_elab_chemspace_filtered_scored_top20percent,openbind_xx01zvns2b_c1_elab_chemspace_filtered_scored_top60percent,openbind_xx01zvns2b_c1_elabs_filtered

>  <smiles>  (121) 
CC1(CN(Cc2ccco2)c2nc(Cl)nc3ccccc23)N=N1

>  <subsites>  (121) 
1 - Z4590/B/203/1

>  <gnina_score>  (121) 
5.228

>  <HIPPO Pose ID>  (121) 
69542

>  <ref_mols>  (121) 
Z1719a,Z0472a

>  <energy_score>  (121) 
-44.299333

>  <inspiration_score>  (121) 
None

>  <smina_score_min>  (121) 
-5.544

>  <fragmenstein_error>  (121) 
nan

>  <name>  (121) 
P69542

$$$$
P69546
     RDKit          3D

 24 27  0  0  0  0  0  0  0  0999 V2000
    0.0130    6.9845  -12.9020 O   0  0  0  0  0  0  0  0  0  0  0  0
   -1.0739    7.4637  -13.1688 C   0  0  0  0  0  0  0  0  0  0  0  0
   -1.9974    8.1810  -12.2179 C   0  0  0  0  0  0  0  0  0  0  0  0
   -3.0115    8.8269  -13.1630 C   0  0  0  0  0  0  0  0  0  0  0  0
   -3.0540    7.8827  -14.3655 C   0  0  2  0  0  0  0  0  0  0  0  0
   -4.1028    6.7609  -14.1680 C   0  0  0  0  0  0  0  0  0  0  0  0
   -4.3484    5.9893  -15.4121 N   0  0  0  0  0  0  0  0  0  0  0  0
   -3.3331    4.9485  -15.7168 C   0  0  0  0  0  0  0  0  0  0  0  0
   -2.5611    5.2523  -16.9632 C   0  0  0  0  0  0  0  0  0  0  0  0
   -2.7306    4.9006  -18.2860 C   0  0  0  0  0  0  0  0  0  0  0  0
   -1.7378    5.5891  -19.0177 C   0  0  0  0  0  0  0  0  0  0  0  0
   -0.9818    6.2677  -18.0923 C   0  0  0  0  0  0  0  0  0  0  0  0
   -1.4669    6.0608  -16.8415 O   0  0  0  0  0  0  0  0  0  0  0  0
   -5.6449    5.3905  -15.3719 C   0  0  0  0  0  0  0  0  0  0  0  0
   -6.1349    5.0324  -14.1689 N   0  0  0  0  0  0  0  0  0  0  0  0
   -7.3465    4.4647  -14.1607 C   0  0  0  0  0  0  0  0  0  0  0  0
   -8.1116    4.2194  -15.2236 N   0  0  0  0  0  0  0  0  0  0  0  0
   -7.6073    4.5337  -16.4159 C   0  0  0  0  0  0  0  0  0  0  0  0
   -8.3453    4.2199  -17.5487 C   0  0  0  0  0  0  0  0  0  0  0  0
   -7.8769    4.5088  -18.8286 C   0  0  0  0  0  0  0  0  0  0  0  0
   -6.6723    5.1795  -18.9821 C   0  0  0  0  0  0  0  0  0  0  0  0
   -5.9465    5.5483  -17.8570 C   0  0  0  0  0  0  0  0  0  0  0  0
   -6.3674    5.1689  -16.5640 C   0  0  0  0  0  0  0  0  0  0  0  0
   -1.6953    7.4042  -14.3952 N   0  0  0  0  0  0  0  0  0  0  0  0
  1  2  2  0
  2  3  1  0
  3  4  1  0
  4  5  1  0
  5  6  1  1
  6  7  1  0
  7  8  1  0
  8  9  1  0
  9 10  2  0
 10 11  1  0
 11 12  2  0
 12 13  1  0
  7 14  1  0
 14 15  2  0
 15 16  1  0
 16 17  2  0
 17 18  1  0
 18 19  2  0
 19 20  1  0
 20 21  2  0
 21 22  1  0
 22 23  2  0
  5 24  1  0
 24  2  1  0
 13  9  1  0
 23 14  1  0
 23 18  1  0
M  END
>  <fragmenstein_outcome>  (122) 
nan

>  <exports>  (122) 
['/opt/xchem-fragalysis-2/maxwin/openbind-hippo/xx01zvns2b/cycle_01/syndirella/elabs/openbind_xx01zvns2b_c1_elab_chemspace_filtered.sdf']

>  <Energy>  (122) 
nan

>  <alias>  (122) 
None

>  <fragmenstein_runtime>  (122) 
nan

>  <scratch_subdir>  (122) 
nan

>  <HIPPO Compound ID>  (122) 
138970

>  <rmsd(smina/fragmenstein)>  (122) 
3.636

>  <distance_score>  (122) 
0.75942

>  <orig_smiles>  (122) 
nan

>  <fragmenstein_mode>  (122) 
nan

>  <inchikey>  (122) 
LYSLLQKHMPCKJN-CYBMUJFWSA-N

>  <ref_pdb>  (122) 
Z1719a

>  <GNINA pK>  (122) 
nan

>  <gnina_score_min>  (122) 
5.32

>  <tags>  (122) 
openbind_xx01zvns2b_c1_elab_nonasap_filtered_scored_top80percent,openbind_xx01zvns2b_c1_elab_chemspace_filtered_scored_top80percent,openbind_xx01zvns2b_c1_elab_chemspace_filtered_scored,openbind_xx01zvns2b_c1_elab_chemspace_filtered_scored_top40percent,openbind_xx01zvns2b_c1_elab_chemspace_filtered_scored_top20percent,openbind_xx01zvns2b_c1_elab_chemspace_filtered_scored_top60percent,openbind_xx01zvns2b_c1_elabs_filtered

>  <smiles>  (122) 
O=C1CC[C@H](CN(Cc2ccco2)c2ncnc3ccccc23)N1

>  <subsites>  (122) 
1 - Z4590/B/203/1

>  <gnina_score>  (122) 
4.976

>  <HIPPO Pose ID>  (122) 
69546

>  <ref_mols>  (122) 
Z1719a,Z0472a

>  <energy_score>  (122) 
-45.612046

>  <inspiration_score>  (122) 
None

>  <smina_score_min>  (122) 
-5.592

>  <fragmenstein_error>  (122) 
nan

>  <name>  (122) 
P69546

$$$$
P69807
     RDKit          3D

 22 24  0  0  0  0  0  0  0  0999 V2000
   -9.2861    2.4110   -9.0523 C   0  0  0  0  0  0  0  0  0  0  0  0
   -8.1569    3.3703   -9.4501 C   0  0  0  0  0  0  0  0  0  0  0  0
   -7.9658    4.3353   -8.2761 C   0  0  0  0  0  0  0  0  0  0  0  0
   -6.9446    2.4913   -9.7177 C   0  0  0  0  0  0  0  0  0  0  0  0
   -5.7981    3.3131  -10.2326 C   0  0  0  0  0  0  0  0  0  0  0  0
   -6.2175    3.9872  -11.5152 C   0  0  0  0  0  0  0  0  0  0  0  0
   -7.5516    4.7624  -11.4535 C   0  0  1  0  0  0  0  0  0  0  0  0
   -7.3991    6.2045  -10.9600 C   0  0  0  0  0  0  0  0  0  0  0  0
   -8.0946    4.8815  -12.9529 C   0  0  0  0  0  0  0  0  0  0  0  0
   -9.1957    4.5986  -13.2409 O   0  0  0  0  0  0  0  0  0  0  0  0
   -6.8835    5.3148  -13.8608 N   0  0  0  0  0  0  0  0  0  0  0  0
   -6.7769    5.3853  -15.2159 C   0  0  0  0  0  0  0  0  0  0  0  0
   -7.8426    4.8297  -16.0337 C   0  0  0  0  0  0  0  0  0  0  0  0
   -7.7079    4.7811  -17.3697 C   0  0  0  0  0  0  0  0  0  0  0  0
   -9.0948    4.1259  -18.4178 Br  0  0  0  0  0  0  0  0  0  0  0  0
   -6.5394    5.2952  -17.9350 N   0  0  0  0  0  0  0  0  0  0  0  0
   -6.1304    5.3685  -19.2314 C   0  0  0  0  0  0  0  0  0  0  0  0
   -4.9723    6.0957  -19.2529 C   0  0  0  0  0  0  0  0  0  0  0  0
   -4.5871    6.4090  -17.9794 N   0  0  0  0  0  0  0  0  0  0  0  0
   -5.5220    5.8939  -17.2007 C   0  0  0  0  0  0  0  0  0  0  0  0
   -5.6593    5.8836  -15.7860 C   0  0  0  0  0  0  0  0  0  0  0  0
   -8.5357    4.0895  -10.6411 O   0  0  0  0  0  0  0  0  0  0  0  0
  1  2  1  0
  2  3  1  0
  2  4  1  0
  4  5  1  0
  5  6  1  0
  6  7  1  0
  7  8  1  1
  7  9  1  0
  9 10  2  0
  9 11  1  0
 11 12  1  0
 12 13  1  0
 13 14  2  0
 14 15  1  0
 14 16  1  0
 16 17  1  0
 17 18  2  0
 18 19  1  0
 19 20  2  0
 20 21  1  0
  7 22  1  0
 22  2  1  0
 21 12  2  0
 20 16  1  0
M  END
>  <fragmenstein_outcome>  (123) 
nan

>  <exports>  (123) 
['/opt/xchem-fragalysis-2/maxwin/openbind-hippo/xx01zvns2b/cycle_01/syndirella/elabs/openbind_xx01zvns2b_c1_elab_chemspace_filtered.sdf']

>  <Energy>  (123) 
nan

>  <alias>  (123) 
None

>  <fragmenstein_runtime>  (123) 
nan

>  <scratch_subdir>  (123) 
nan

>  <HIPPO Compound ID>  (123) 
139195

>  <rmsd(smina/fragmenstein)>  (123) 
0.673

>  <distance_score>  (123) 
1.60592

>  <orig_smiles>  (123) 
nan

>  <fragmenstein_mode>  (123) 
nan

>  <inchikey>  (123) 
LRBYZNNRMKFBBR-INIZCTEOSA-N

>  <ref_pdb>  (123) 
Z1495a

>  <GNINA pK>  (123) 
nan

>  <gnina_score_min>  (123) 
5.155

>  <tags>  (123) 
openbind_xx01zvns2b_c1_elab_nonasap_filtered_scored_top80percent,openbind_xx01zvns2b_c1_elab_chemspace_filtered_scored_top80percent,openbind_xx01zvns2b_c1_elab_chemspace_filtered_scored,openbind_xx01zvns2b_c1_elab_chemspace_filtered_scored_top40percent,openbind_xx01zvns2b_c1_elab_chemspace_filtered_scored_top20percent,openbind_xx01zvns2b_c1_elab_chemspace_filtered_scored_top60percent,openbind_xx01zvns2b_c1_elabs_filtered

>  <smiles>  (123) 
CC1(C)CCC[C@@](C)(C(=O)Nc2cc(Br)n3ccnc3c2)O1

>  <subsites>  (123) 
1 - Z4590/B/203/1

>  <gnina_score>  (123) 
5.269

>  <HIPPO Pose ID>  (123) 
69807

>  <ref_mols>  (123) 
Z1046b,Z1495a

>  <energy_score>  (123) 
-33.885612

>  <inspiration_score>  (123) 
None

>  <smina_score_min>  (123) 
-6.005

>  <fragmenstein_error>  (123) 
nan

>  <name>  (123) 
P69807

$$$$
P69822
     RDKit          3D

 22 25  0  0  0  0  0  0  0  0999 V2000
   -7.4734    2.3568   -9.6279 C   0  0  0  0  0  0  0  0  0  0  0  0
   -6.7422    3.6164  -10.0675 C   0  0  0  0  0  0  0  0  0  0  0  0
   -5.2933    3.6239   -9.5918 C   0  0  0  0  0  0  0  0  0  0  0  0
   -6.7649    3.7198  -11.5012 O   0  0  0  0  0  0  0  0  0  0  0  0
   -7.5357    4.9464  -11.7088 C   0  0  2  0  0  0  0  0  0  0  0  0
   -7.8619    5.2476  -13.1940 C   0  0  0  0  0  0  0  0  0  0  0  0
   -8.8897    5.6676  -13.5706 O   0  0  0  0  0  0  0  0  0  0  0  0
   -6.6138    4.7811  -13.9897 N   0  0  0  0  0  0  0  0  0  0  0  0
   -6.3525    4.8203  -15.3162 C   0  0  0  0  0  0  0  0  0  0  0  0
   -7.4780    4.6985  -16.2217 C   0  0  0  0  0  0  0  0  0  0  0  0
   -7.2824    4.7771  -17.5479 C   0  0  0  0  0  0  0  0  0  0  0  0
   -8.7123    4.4435  -18.6811 Br  0  0  0  0  0  0  0  0  0  0  0  0
   -5.9893    5.0613  -18.0076 N   0  0  0  0  0  0  0  0  0  0  0  0
   -5.5157    5.4272  -19.2403 C   0  0  0  0  0  0  0  0  0  0  0  0
   -4.1607    5.6011  -19.1084 C   0  0  0  0  0  0  0  0  0  0  0  0
   -3.7626    5.3713  -17.8237 N   0  0  0  0  0  0  0  0  0  0  0  0
   -4.8740    5.1006  -17.1690 C   0  0  0  0  0  0  0  0  0  0  0  0
   -5.0936    4.9158  -15.7786 C   0  0  0  0  0  0  0  0  0  0  0  0
   -6.9522    6.0279  -10.7193 C   0  0  0  0  0  0  0  0  0  0  0  0
   -7.4960    4.9239   -9.7064 C   0  0  2  0  0  0  0  0  0  0  0  0
   -7.7953    5.2021   -8.2631 C   0  0  0  0  0  0  0  0  0  0  0  0
   -8.7025    4.9563  -10.6852 C   0  0  0  0  0  0  0  0  0  0  0  0
  1  2  1  0
  2  3  1  0
  2  4  1  0
  4  5  1  0
  5  6  1  6
  6  7  2  0
  6  8  1  0
  8  9  1  0
  9 10  1  0
 10 11  2  0
 11 12  1  0
 11 13  1  0
 13 14  1  0
 14 15  2  0
 15 16  1  0
 16 17  2  0
 17 18  1  0
  5 19  1  0
 19 20  1  0
 20 21  1  1
 20 22  1  0
 20  2  1  0
 22  5  1  0
 18  9  2  0
 17 13  1  0
M  END
>  <fragmenstein_outcome>  (124) 
nan

>  <exports>  (124) 
['/opt/xchem-fragalysis-2/maxwin/openbind-hippo/xx01zvns2b/cycle_01/syndirella/elabs/openbind_xx01zvns2b_c1_elab_chemspace_filtered.sdf']

>  <Energy>  (124) 
nan

>  <alias>  (124) 
None

>  <fragmenstein_runtime>  (124) 
nan

>  <scratch_subdir>  (124) 
nan

>  <HIPPO Compound ID>  (124) 
139204

>  <rmsd(smina/fragmenstein)>  (124) 
1.007

>  <distance_score>  (124) 
1.431055

>  <orig_smiles>  (124) 
nan

>  <fragmenstein_mode>  (124) 
nan

>  <inchikey>  (124) 
BTAUBVMYMSWESB-IYBDPMFKSA-N

>  <ref_pdb>  (124) 
Z1495a

>  <GNINA pK>  (124) 
nan

>  <gnina_score_min>  (124) 
5.258

>  <tags>  (124) 
openbind_xx01zvns2b_c1_elab_nonasap_filtered_scored_top80percent,openbind_xx01zvns2b_c1_elab_chemspace_filtered_scored_top80percent,openbind_xx01zvns2b_c1_elab_chemspace_filtered_scored,openbind_xx01zvns2b_c1_elab_chemspace_filtered_scored_top40percent,openbind_xx01zvns2b_c1_elab_chemspace_filtered_scored_top20percent,openbind_xx01zvns2b_c1_elab_chemspace_filtered_scored_top60percent,openbind_xx01zvns2b_c1_elabs_filtered

>  <smiles>  (124) 
CC1(C)O[C@]2(C(=O)Nc3cc(Br)n4ccnc4c3)C[C@@]1(C)C2

>  <subsites>  (124) 
1 - Z4590/B/203/1

>  <gnina_score>  (124) 
5.264

>  <HIPPO Pose ID>  (124) 
69822

>  <ref_mols>  (124) 
Z1046b,Z1495a

>  <energy_score>  (124) 
-54.86898

>  <inspiration_score>  (124) 
None

>  <smina_score_min>  (124) 
-6.58

>  <fragmenstein_error>  (124) 
nan

>  <name>  (124) 
P69822

$$$$
P69907
     RDKit          3D

 25 27  0  0  0  0  0  0  0  0999 V2000
   -3.2542    4.9978  -18.0447 C   0  0  0  0  0  0  0  0  0  0  0  0
   -3.5490    5.8665  -16.8159 C   0  0  0  0  0  0  0  0  0  0  0  0
   -3.2667    7.3119  -17.2468 C   0  0  0  0  0  0  0  0  0  0  0  0
   -2.6246    5.4944  -15.6511 C   0  0  0  0  0  0  0  0  0  0  0  0
   -4.9278    5.8491  -16.3758 O   0  0  0  0  0  0  0  0  0  0  0  0
   -5.4708    4.5764  -16.0418 C   0  0  1  0  0  0  0  0  0  0  0  0
   -5.5679    4.1402  -14.5479 C   0  0  0  0  0  0  0  0  0  0  0  0
   -5.0887    3.1335  -14.1867 O   0  0  0  0  0  0  0  0  0  0  0  0
   -6.4431    5.1770  -13.7768 N   0  0  0  0  0  0  0  0  0  0  0  0
   -6.9532    5.1386  -12.5115 C   0  0  0  0  0  0  0  0  0  0  0  0
   -7.4960    6.3541  -11.9215 C   0  0  0  0  0  0  0  0  0  0  0  0
   -8.0057    6.3218  -10.6700 C   0  0  0  0  0  0  0  0  0  0  0  0
   -8.6405    7.8815   -9.8575 Br  0  0  0  0  0  0  0  0  0  0  0  0
   -8.0511    5.0920   -9.9890 N   0  0  0  0  0  0  0  0  0  0  0  0
   -8.4601    4.7639   -8.7144 C   0  0  0  0  0  0  0  0  0  0  0  0
   -8.3428    3.3964   -8.6196 C   0  0  0  0  0  0  0  0  0  0  0  0
   -7.8312    2.8767   -9.7720 N   0  0  0  0  0  0  0  0  0  0  0  0
   -7.6262    3.9018  -10.5641 C   0  0  0  0  0  0  0  0  0  0  0  0
   -7.0425    3.9641  -11.8537 C   0  0  0  0  0  0  0  0  0  0  0  0
   -6.7885    4.4531  -16.8011 C   0  0  0  0  0  0  0  0  0  0  0  0
   -6.6999    4.4223  -18.1963 C   0  0  0  0  0  0  0  0  0  0  0  0
   -7.8240    4.3029  -18.9767 C   0  0  0  0  0  0  0  0  0  0  0  0
   -9.0723    4.3055  -18.3907 C   0  0  0  0  0  0  0  0  0  0  0  0
   -9.2003    4.2984  -17.0131 C   0  0  0  0  0  0  0  0  0  0  0  0
   -8.0614    4.3395  -16.2194 C   0  0  0  0  0  0  0  0  0  0  0  0
  1  2  1  0
  2  3  1  0
  2  4  1  0
  2  5  1  0
  6  5  1  1
  6  7  1  0
  7  8  2  0
  7  9  1  0
  9 10  1  0
 10 11  1  0
 11 12  2  0
 12 13  1  0
 12 14  1  0
 14 15  1  0
 15 16  2  0
 16 17  1  0
 17 18  2  0
 18 19  1  0
  6 20  1  0
 20 21  2  0
 21 22  1  0
 22 23  2  0
 23 24  1  0
 24 25  2  0
 19 10  2  0
 25 20  1  0
 18 14  1  0
M  END
>  <fragmenstein_outcome>  (125) 
nan

>  <exports>  (125) 
['/opt/xchem-fragalysis-2/maxwin/openbind-hippo/xx01zvns2b/cycle_01/syndirella/elabs/openbind_xx01zvns2b_c1_elab_chemspace_filtered.sdf']

>  <Energy>  (125) 
nan

>  <alias>  (125) 
None

>  <fragmenstein_runtime>  (125) 
nan

>  <scratch_subdir>  (125) 
nan

>  <HIPPO Compound ID>  (125) 
139292

>  <rmsd(smina/fragmenstein)>  (125) 
0.761

>  <distance_score>  (125) 
1.698238

>  <orig_smiles>  (125) 
nan

>  <fragmenstein_mode>  (125) 
nan

>  <inchikey>  (125) 
WNNYBSPVVRNISX-QGZVFWFLSA-N

>  <ref_pdb>  (125) 
Z1495a

>  <GNINA pK>  (125) 
nan

>  <gnina_score_min>  (125) 
5.22

>  <tags>  (125) 
openbind_xx01zvns2b_c1_elab_nonasap_filtered_scored_top80percent,openbind_xx01zvns2b_c1_elab_chemspace_filtered_scored_top80percent,openbind_xx01zvns2b_c1_elab_chemspace_filtered_scored,openbind_xx01zvns2b_c1_elab_chemspace_filtered_scored_top40percent,openbind_xx01zvns2b_c1_elab_chemspace_filtered_scored_top20percent,openbind_xx01zvns2b_c1_elab_chemspace_filtered_scored_top60percent,openbind_xx01zvns2b_c1_elabs_filtered

>  <smiles>  (125) 
CC(C)(C)O[C@@H](C(=O)Nc1cc(Br)n2ccnc2c1)c1ccccc1

>  <subsites>  (125) 
1 - Z4590/B/203/1

>  <gnina_score>  (125) 
5.299

>  <HIPPO Pose ID>  (125) 
69907

>  <ref_mols>  (125) 
Z1046b,Z1495a

>  <energy_score>  (125) 
-43.161216

>  <inspiration_score>  (125) 
None

>  <smina_score_min>  (125) 
-6.2

>  <fragmenstein_error>  (125) 
nan

>  <name>  (125) 
P69907

$$$$
P69909
     RDKit          3D

 25 28  0  0  0  0  0  0  0  0999 V2000
   -8.1852    1.4157   -7.8253 C   0  0  0  0  0  0  0  0  0  0  0  0
   -8.0391    2.6385   -8.5284 O   0  0  0  0  0  0  0  0  0  0  0  0
   -6.9789    2.7561   -9.3713 C   0  0  0  0  0  0  0  0  0  0  0  0
   -5.9963    2.0212   -9.4202 O   0  0  0  0  0  0  0  0  0  0  0  0
   -7.2377    3.8929  -10.3411 C   0  0  2  0  0  0  0  0  0  0  0  0
   -8.4179    3.6256  -11.3504 C   0  0  0  0  0  0  0  0  0  0  0  0
   -7.7579    4.8735  -12.0104 C   0  0  2  0  0  0  0  0  0  0  0  0
   -8.1051    5.1485  -13.4914 C   0  0  0  0  0  0  0  0  0  0  0  0
   -9.2062    5.0917  -13.8957 O   0  0  0  0  0  0  0  0  0  0  0  0
   -6.7621    5.3811  -14.2483 N   0  0  0  0  0  0  0  0  0  0  0  0
   -6.5074    5.4881  -15.5715 C   0  0  0  0  0  0  0  0  0  0  0  0
   -7.5158    4.9855  -16.4762 C   0  0  0  0  0  0  0  0  0  0  0  0
   -7.3115    5.0242  -17.8003 C   0  0  0  0  0  0  0  0  0  0  0  0
   -8.6083    4.2742  -18.8832 Br  0  0  0  0  0  0  0  0  0  0  0  0
   -6.1311    5.6135  -18.2711 N   0  0  0  0  0  0  0  0  0  0  0  0
   -5.7055    5.9566  -19.5240 C   0  0  0  0  0  0  0  0  0  0  0  0
   -4.4708    6.5291  -19.4031 C   0  0  0  0  0  0  0  0  0  0  0  0
   -4.1005    6.5776  -18.0933 N   0  0  0  0  0  0  0  0  0  0  0  0
   -5.1110    6.0538  -17.4260 C   0  0  0  0  0  0  0  0  0  0  0  0
   -5.3214    5.9290  -16.0268 C   0  0  0  0  0  0  0  0  0  0  0  0
   -6.4371    4.0657  -11.6622 C   0  0  0  0  0  0  0  0  0  0  0  0
   -7.8685    5.9757  -11.0607 O   0  0  0  0  0  0  0  0  0  0  0  0
   -7.4620    5.3368   -9.8311 C   0  0  0  0  0  0  0  0  0  0  0  0
   -8.5264    5.4311   -8.7593 C   0  0  0  0  0  0  0  0  0  0  0  0
   -6.2078    6.0326   -9.3505 C   0  0  0  0  0  0  0  0  0  0  0  0
  1  2  1  0
  2  3  1  0
  3  4  2  0
  5  3  1  1
  5  6  1  0
  6  7  1  0
  7  8  1  6
  8  9  2  0
  8 10  1  0
 10 11  1  0
 11 12  1  0
 12 13  2  0
 13 14  1  0
 13 15  1  0
 15 16  1  0
 16 17  2  0
 17 18  1  0
 18 19  2  0
 19 20  1  0
  7 21  1  0
  7 22  1  0
 22 23  1  0
 23 24  1  0
 23 25  1  0
 21  5  1  0
 23  5  1  0
 20 11  2  0
 19 15  1  0
M  END
>  <fragmenstein_outcome>  (126) 
nan

>  <exports>  (126) 
['/opt/xchem-fragalysis-2/maxwin/openbind-hippo/xx01zvns2b/cycle_01/syndirella/elabs/openbind_xx01zvns2b_c1_elab_chemspace_filtered.sdf']

>  <Energy>  (126) 
nan

>  <alias>  (126) 
None

>  <fragmenstein_runtime>  (126) 
nan

>  <scratch_subdir>  (126) 
nan

>  <HIPPO Compound ID>  (126) 
139294

>  <rmsd(smina/fragmenstein)>  (126) 
1.936

>  <distance_score>  (126) 
1.418581

>  <orig_smiles>  (126) 
nan

>  <fragmenstein_mode>  (126) 
nan

>  <inchikey>  (126) 
MOJIAZWUUZCERO-CALCHBBNSA-N

>  <ref_pdb>  (126) 
Z1495a

>  <GNINA pK>  (126) 
nan

>  <gnina_score_min>  (126) 
5.232

>  <tags>  (126) 
openbind_xx01zvns2b_c1_elab_nonasap_filtered_scored_top80percent,openbind_xx01zvns2b_c1_elab_chemspace_filtered_scored_top80percent,openbind_xx01zvns2b_c1_elab_chemspace_filtered_scored,openbind_xx01zvns2b_c1_elab_chemspace_filtered_scored_top40percent,openbind_xx01zvns2b_c1_elab_chemspace_filtered_scored_top20percent,openbind_xx01zvns2b_c1_elab_chemspace_filtered_scored_top60percent,openbind_xx01zvns2b_c1_elabs_filtered

>  <smiles>  (126) 
COC(=O)[C@]12C[C@](C(=O)Nc3cc(Br)n4ccnc4c3)(C1)OC2(C)C

>  <subsites>  (126) 
1 - Z4590/B/203/1

>  <gnina_score>  (126) 
5.209

>  <HIPPO Pose ID>  (126) 
69909

>  <ref_mols>  (126) 
Z1046b,Z1495a

>  <energy_score>  (126) 
-56.674219

>  <inspiration_score>  (126) 
None

>  <smina_score_min>  (126) 
-6.563

>  <fragmenstein_error>  (126) 
nan

>  <name>  (126) 
P69909

$$$$
P69912
     RDKit          3D

 25 28  0  0  0  0  0  0  0  0999 V2000
  -10.0789    2.1939   -6.1089 C   0  0  0  0  0  0  0  0  0  0  0  0
   -9.4997    3.5368   -6.4167 C   0  0  0  0  0  0  0  0  0  0  0  0
   -9.4322    4.4668   -5.6212 O   0  0  0  0  0  0  0  0  0  0  0  0
   -9.0707    3.5798   -7.7084 O   0  0  0  0  0  0  0  0  0  0  0  0
   -8.3879    4.7879   -8.0546 C   0  0  0  0  0  0  0  0  0  0  0  0
   -7.8144    4.7370   -9.4683 C   0  0  2  0  0  0  0  0  0  0  0  0
   -7.2082    3.3951   -9.8838 C   0  0  0  0  0  0  0  0  0  0  0  0
   -7.1638    3.5131  -11.4006 C   0  0  0  0  0  0  0  0  0  0  0  0
   -7.7732    4.8994  -11.6437 C   0  0  2  0  0  0  0  0  0  0  0  0
   -8.1838    5.0622  -13.1387 C   0  0  0  0  0  0  0  0  0  0  0  0
   -9.2869    5.2141  -13.5080 O   0  0  0  0  0  0  0  0  0  0  0  0
   -6.8364    5.0095  -13.9499 N   0  0  0  0  0  0  0  0  0  0  0  0
   -6.6130    5.0364  -15.2871 C   0  0  0  0  0  0  0  0  0  0  0  0
   -7.6941    4.7051  -16.1925 C   0  0  0  0  0  0  0  0  0  0  0  0
   -7.5063    4.7991  -17.5210 C   0  0  0  0  0  0  0  0  0  0  0  0
   -8.8913    4.3277  -18.6611 Br  0  0  0  0  0  0  0  0  0  0  0  0
   -6.2695    5.2676  -17.9866 N   0  0  0  0  0  0  0  0  0  0  0  0
   -5.8297    5.6067  -19.2359 C   0  0  0  0  0  0  0  0  0  0  0  0
   -4.5536    6.0843  -19.1045 C   0  0  0  0  0  0  0  0  0  0  0  0
   -4.1580    6.0377  -17.8004 N   0  0  0  0  0  0  0  0  0  0  0  0
   -5.1966    5.5557  -17.1457 C   0  0  0  0  0  0  0  0  0  0  0  0
   -5.3946    5.3724  -15.7534 C   0  0  0  0  0  0  0  0  0  0  0  0
   -6.8062    6.0115  -11.2066 C   0  0  0  0  0  0  0  0  0  0  0  0
   -6.8398    5.8974   -9.6928 C   0  0  0  0  0  0  0  0  0  0  0  0
   -8.7285    4.9736  -10.5680 O   0  0  0  0  0  0  0  0  0  0  0  0
  1  2  1  0
  2  3  2  0
  2  4  1  0
  4  5  1  0
  6  5  1  1
  6  7  1  0
  7  8  1  0
  8  9  1  0
  9 10  1  6
 10 11  2  0
 10 12  1  0
 12 13  1  0
 13 14  1  0
 14 15  2  0
 15 16  1  0
 15 17  1  0
 17 18  1  0
 18 19  2  0
 19 20  1  0
 20 21  2  0
 21 22  1  0
  9 23  1  0
 23 24  1  0
  9 25  1  0
 24  6  1  0
 25  6  1  0
 22 13  2  0
 21 17  1  0
M  END
>  <fragmenstein_outcome>  (127) 
nan

>  <exports>  (127) 
['/opt/xchem-fragalysis-2/maxwin/openbind-hippo/xx01zvns2b/cycle_01/syndirella/elabs/openbind_xx01zvns2b_c1_elab_chemspace_filtered.sdf']

>  <Energy>  (127) 
nan

>  <alias>  (127) 
None

>  <fragmenstein_runtime>  (127) 
nan

>  <scratch_subdir>  (127) 
nan

>  <HIPPO Compound ID>  (127) 
139300

>  <rmsd(smina/fragmenstein)>  (127) 
1.156

>  <distance_score>  (127) 
1.459071

>  <orig_smiles>  (127) 
nan

>  <fragmenstein_mode>  (127) 
nan

>  <inchikey>  (127) 
MQYVDUZCDORYAQ-CALCHBBNSA-N

>  <ref_pdb>  (127) 
Z1495a

>  <GNINA pK>  (127) 
nan

>  <gnina_score_min>  (127) 
5.246

>  <tags>  (127) 
openbind_xx01zvns2b_c1_elab_nonasap_filtered_scored_top80percent,openbind_xx01zvns2b_c1_elab_chemspace_filtered_scored_top80percent,openbind_xx01zvns2b_c1_elab_chemspace_filtered_scored,openbind_xx01zvns2b_c1_elab_chemspace_filtered_scored_top40percent,openbind_xx01zvns2b_c1_elab_chemspace_filtered_scored_top20percent,openbind_xx01zvns2b_c1_elab_chemspace_filtered_scored_top60percent,openbind_xx01zvns2b_c1_elabs_filtered

>  <smiles>  (127) 
CC(=O)OC[C@]12CC[C@](C(=O)Nc3cc(Br)n4ccnc4c3)(CC1)O2

>  <subsites>  (127) 
1 - Z4590/B/203/1

>  <gnina_score>  (127) 
5.109

>  <HIPPO Pose ID>  (127) 
69912

>  <ref_mols>  (127) 
Z1046b,Z1495a

>  <energy_score>  (127) 
-24.829866

>  <inspiration_score>  (127) 
None

>  <smina_score_min>  (127) 
-7.338

>  <fragmenstein_error>  (127) 
nan

>  <name>  (127) 
P69912

$$$$
P69914
     RDKit          3D

 26 28  0  0  0  0  0  0  0  0999 V2000
   -7.8129    3.7376   -7.3738 C   0  0  0  0  0  0  0  0  0  0  0  0
   -8.1529    3.5696   -8.7943 C   0  0  0  0  0  0  0  0  0  0  0  0
   -9.0301    2.6671   -9.3478 C   0  0  0  0  0  0  0  0  0  0  0  0
   -9.0998    2.8063  -10.6993 N   0  0  0  0  0  0  0  0  0  0  0  0
   -8.2614    3.7648  -10.9907 C   0  0  0  0  0  0  0  0  0  0  0  0
   -7.8905    4.2865  -12.2482 C   0  0  0  0  0  0  0  0  0  0  0  0
   -6.8936    5.1938  -12.3622 C   0  0  0  0  0  0  0  0  0  0  0  0
   -6.5179    5.4561  -13.6456 N   0  0  0  0  0  0  0  0  0  0  0  0
   -5.2239    6.1545  -14.2096 C   0  0  0  0  0  0  0  0  0  0  0  0
   -4.3337    6.6728  -13.6468 O   0  0  0  0  0  0  0  0  0  0  0  0
   -5.2990    5.9163  -15.8103 C   0  0  1  0  0  0  0  0  0  0  0  0
   -6.6342    6.4123  -16.3639 C   0  0  0  0  0  0  0  0  0  0  0  0
   -7.5000    5.3366  -16.9621 C   0  0  0  0  0  0  0  0  0  0  0  0
   -8.0504    5.5166  -18.2317 C   0  0  0  0  0  0  0  0  0  0  0  0
   -9.0432    4.6850  -18.7164 C   0  0  0  0  0  0  0  0  0  0  0  0
   -9.5119    3.6763  -17.9223 C   0  0  0  0  0  0  0  0  0  0  0  0
   -8.8939    3.4294  -16.7219 C   0  0  0  0  0  0  0  0  0  0  0  0
   -7.8400    4.1855  -16.2819 C   0  0  0  0  0  0  0  0  0  0  0  0
   -4.3123    6.5142  -16.6471 O   0  0  0  0  0  0  0  0  0  0  0  0
   -3.9354    5.8267  -17.8608 C   0  0  0  0  0  0  0  0  0  0  0  0
   -2.8615    4.8154  -17.4792 C   0  0  0  0  0  0  0  0  0  0  0  0
   -4.9916    5.1068  -18.7005 C   0  0  0  0  0  0  0  0  0  0  0  0
   -3.3498    6.9137  -18.7714 C   0  0  0  0  0  0  0  0  0  0  0  0
   -6.2740    5.7403  -11.1713 C   0  0  0  0  0  0  0  0  0  0  0  0
   -6.6638    5.2814   -9.9588 C   0  0  0  0  0  0  0  0  0  0  0  0
   -7.6318    4.2697   -9.8676 N   0  0  0  0  0  0  0  0  0  0  0  0
  1  2  1  0
  2  3  2  0
  3  4  1  0
  4  5  2  0
  5  6  1  0
  6  7  2  0
  7  8  1  0
  8  9  1  0
  9 10  2  0
  9 11  1  0
 11 12  1  6
 12 13  1  0
 13 14  2  0
 14 15  1  0
 15 16  2  0
 16 17  1  0
 17 18  2  0
 11 19  1  0
 19 20  1  0
 20 21  1  0
 20 22  1  0
 20 23  1  0
  7 24  1  0
 24 25  2  0
 25 26  1  0
 26  2  1  0
 26  5  1  0
 18 13  1  0
M  END
>  <fragmenstein_outcome>  (128) 
nan

>  <exports>  (128) 
['/opt/xchem-fragalysis-2/maxwin/openbind-hippo/xx01zvns2b/cycle_01/syndirella/elabs/openbind_xx01zvns2b_c1_elab_chemspace_filtered.sdf']

>  <Energy>  (128) 
nan

>  <alias>  (128) 
None

>  <fragmenstein_runtime>  (128) 
nan

>  <scratch_subdir>  (128) 
nan

>  <HIPPO Compound ID>  (128) 
139304

>  <rmsd(smina/fragmenstein)>  (128) 
2.493

>  <distance_score>  (128) 
1.758382

>  <orig_smiles>  (128) 
nan

>  <fragmenstein_mode>  (128) 
nan

>  <inchikey>  (128) 
RECKGVUCWNHWEK-GOSISDBHSA-N

>  <ref_pdb>  (128) 
Z1495a

>  <GNINA pK>  (128) 
nan

>  <gnina_score_min>  (128) 
5.196

>  <tags>  (128) 
openbind_xx01zvns2b_c1_elab_nonasap_filtered_scored_top80percent,openbind_xx01zvns2b_c1_elab_chemspace_filtered_scored_top80percent,openbind_xx01zvns2b_c1_elab_chemspace_filtered_scored,openbind_xx01zvns2b_c1_elab_chemspace_filtered_scored_top40percent,openbind_xx01zvns2b_c1_elab_chemspace_filtered_scored_top20percent,openbind_xx01zvns2b_c1_elab_chemspace_filtered_scored_top60percent,openbind_xx01zvns2b_c1_elabs_filtered

>  <smiles>  (128) 
Cc1cnc2cc(NC(=O)[C@@H](Cc3ccccc3)OC(C)(C)C)ccn12

>  <subsites>  (128) 
1 - Z4590/B/203/1

>  <gnina_score>  (128) 
5.457

>  <HIPPO Pose ID>  (128) 
69914

>  <ref_mols>  (128) 
Z1046b,Z1495a

>  <energy_score>  (128) 
-8.442255

>  <inspiration_score>  (128) 
None

>  <smina_score_min>  (128) 
-6.813

>  <fragmenstein_error>  (128) 
nan

>  <name>  (128) 
P69914

$$$$
P69919
     RDKit          3D

 26 28  0  0  0  0  0  0  0  0999 V2000
   -6.0352    6.8874  -18.8379 C   0  0  0  0  0  0  0  0  0  0  0  0
   -4.7124    6.4834  -18.1817 C   0  0  0  0  0  0  0  0  0  0  0  0
   -3.7253    7.6081  -18.5389 C   0  0  0  0  0  0  0  0  0  0  0  0
   -4.0750    5.2187  -18.7589 C   0  0  0  0  0  0  0  0  0  0  0  0
   -4.7050    6.4395  -16.7473 O   0  0  0  0  0  0  0  0  0  0  0  0
   -5.7971    5.8997  -16.0036 C   0  0  1  0  0  0  0  0  0  0  0  0
   -5.9271    4.3742  -16.2301 C   0  0  0  0  0  0  0  0  0  0  0  0
   -7.2560    4.0779  -16.8780 C   0  0  0  0  0  0  0  0  0  0  0  0
   -7.4822    4.1707  -18.2507 C   0  0  0  0  0  0  0  0  0  0  0  0
   -8.7722    4.2438  -18.7521 C   0  0  0  0  0  0  0  0  0  0  0  0
   -9.8459    4.2160  -17.8934 C   0  0  0  0  0  0  0  0  0  0  0  0
   -9.6214    3.9647  -16.5598 C   0  0  0  0  0  0  0  0  0  0  0  0
   -8.3462    3.8181  -16.0654 C   0  0  0  0  0  0  0  0  0  0  0  0
   -5.6355    6.1956  -14.4513 C   0  0  0  0  0  0  0  0  0  0  0  0
   -4.6817    6.6852  -13.9746 O   0  0  0  0  0  0  0  0  0  0  0  0
   -6.9256    5.6099  -13.7719 N   0  0  0  0  0  0  0  0  0  0  0  0
   -7.2310    5.4370  -12.4534 C   0  0  0  0  0  0  0  0  0  0  0  0
   -6.6362    6.2737  -11.4286 C   0  0  0  0  0  0  0  0  0  0  0  0
   -6.8736    6.0122  -10.1246 C   0  0  0  0  0  0  0  0  0  0  0  0
   -6.1295    7.0816   -8.7822 Br  0  0  0  0  0  0  0  0  0  0  0  0
   -7.6615    4.8975   -9.7902 N   0  0  0  0  0  0  0  0  0  0  0  0
   -7.9894    4.3415   -8.5732 C   0  0  0  0  0  0  0  0  0  0  0  0
   -8.6963    3.1966   -8.8607 C   0  0  0  0  0  0  0  0  0  0  0  0
   -8.8735    3.0621  -10.2089 N   0  0  0  0  0  0  0  0  0  0  0  0
   -8.2516    4.0841  -10.7486 C   0  0  0  0  0  0  0  0  0  0  0  0
   -8.0552    4.4225  -12.1123 C   0  0  0  0  0  0  0  0  0  0  0  0
  1  2  1  0
  2  3  1  0
  2  4  1  0
  2  5  1  0
  5  6  1  0
  6  7  1  1
  7  8  1  0
  8  9  2  0
  9 10  1  0
 10 11  2  0
 11 12  1  0
 12 13  2  0
  6 14  1  0
 14 15  2  0
 14 16  1  0
 16 17  1  0
 17 18  1  0
 18 19  2  0
 19 20  1  0
 19 21  1  0
 21 22  1  0
 22 23  2  0
 23 24  1  0
 24 25  2  0
 25 26  1  0
 13  8  1  0
 26 17  2  0
 25 21  1  0
M  END
>  <fragmenstein_outcome>  (129) 
nan

>  <exports>  (129) 
['/opt/xchem-fragalysis-2/maxwin/openbind-hippo/xx01zvns2b/cycle_01/syndirella/elabs/openbind_xx01zvns2b_c1_elab_chemspace_filtered.sdf']

>  <Energy>  (129) 
nan

>  <alias>  (129) 
None

>  <fragmenstein_runtime>  (129) 
nan

>  <scratch_subdir>  (129) 
nan

>  <HIPPO Compound ID>  (129) 
139307

>  <rmsd(smina/fragmenstein)>  (129) 
2.608

>  <distance_score>  (129) 
1.741263

>  <orig_smiles>  (129) 
nan

>  <fragmenstein_mode>  (129) 
nan

>  <inchikey>  (129) 
UZJWJSXRWOKFFP-INIZCTEOSA-N

>  <ref_pdb>  (129) 
Z1495a

>  <GNINA pK>  (129) 
nan

>  <gnina_score_min>  (129) 
5.234

>  <tags>  (129) 
openbind_xx01zvns2b_c1_elab_nonasap_filtered_scored_top80percent,openbind_xx01zvns2b_c1_elab_chemspace_filtered_scored_top80percent,openbind_xx01zvns2b_c1_elab_chemspace_filtered_scored,openbind_xx01zvns2b_c1_elab_chemspace_filtered_scored_top40percent,openbind_xx01zvns2b_c1_elab_chemspace_filtered_scored_top20percent,openbind_xx01zvns2b_c1_elab_chemspace_filtered_scored_top60percent,openbind_xx01zvns2b_c1_elabs_filtered

>  <smiles>  (129) 
CC(C)(C)O[C@@H](Cc1ccccc1)C(=O)Nc1cc(Br)n2ccnc2c1

>  <subsites>  (129) 
1 - Z4590/B/203/1

>  <gnina_score>  (129) 
5.631

>  <HIPPO Pose ID>  (129) 
69919

>  <ref_mols>  (129) 
Z1046b,Z1495a

>  <energy_score>  (129) 
-21.091194

>  <inspiration_score>  (129) 
None

>  <smina_score_min>  (129) 
-6.472

>  <fragmenstein_error>  (129) 
nan

>  <name>  (129) 
P69919

$$$$
P69933
     RDKit          3D

 26 29  0  0  0  0  0  0  0  0999 V2000
   -5.3058    6.1883  -12.6949 O   0  0  0  0  0  0  0  0  0  0  0  0
   -6.1769    5.4320  -12.8897 C   0  0  0  0  0  0  0  0  0  0  0  0
   -6.8328    4.9658  -14.2318 N   0  0  0  0  0  0  0  0  0  0  0  0
   -6.5061    5.2458  -15.5074 C   0  0  0  0  0  0  0  0  0  0  0  0
   -7.4641    4.7558  -16.4696 C   0  0  0  0  0  0  0  0  0  0  0  0
   -7.2146    4.8749  -17.7795 C   0  0  0  0  0  0  0  0  0  0  0  0
   -8.4912    4.2205  -18.9395 Br  0  0  0  0  0  0  0  0  0  0  0  0
   -6.0037    5.4578  -18.1757 N   0  0  0  0  0  0  0  0  0  0  0  0
   -5.4997    5.7921  -19.4044 C   0  0  0  0  0  0  0  0  0  0  0  0
   -4.2119    6.2186  -19.2046 C   0  0  0  0  0  0  0  0  0  0  0  0
   -3.9196    6.2581  -17.8727 N   0  0  0  0  0  0  0  0  0  0  0  0
   -5.0240    5.8684  -17.2682 C   0  0  0  0  0  0  0  0  0  0  0  0
   -5.3362    5.7862  -15.8853 C   0  0  0  0  0  0  0  0  0  0  0  0
   -6.8977    4.5567  -11.8400 C   0  0  1  0  0  0  0  0  0  0  0  0
   -6.3492    3.1433  -12.1328 C   0  0  0  0  0  0  0  0  0  0  0  0
   -6.7929    2.1208  -11.1298 C   0  0  0  0  0  0  0  0  0  0  0  0
   -6.4974    2.6530   -9.7494 C   0  0  0  0  0  0  0  0  0  0  0  0
   -7.2117    3.9997   -9.5219 C   0  0  0  0  0  0  0  0  0  0  0  0
   -8.7344    3.8688   -9.6180 C   0  0  0  0  0  0  0  0  0  0  0  0
   -9.2569    2.7748   -8.7005 C   0  0  0  0  0  0  0  0  0  0  0  0
   -8.6490    2.8065   -7.3187 C   0  0  0  0  0  0  0  0  0  0  0  0
   -9.6650    2.6846   -6.4255 F   0  0  0  0  0  0  0  0  0  0  0  0
   -7.8942    1.7033   -7.1293 F   0  0  0  0  0  0  0  0  0  0  0  0
   -7.8583    4.0716   -7.0074 C   0  0  0  0  0  0  0  0  0  0  0  0
   -6.8773    4.5249   -8.1065 C   0  0  0  0  0  0  0  0  0  0  0  0
   -6.7236    4.9551  -10.4871 O   0  0  0  0  0  0  0  0  0  0  0  0
  1  2  2  0
  2  3  1  0
  3  4  1  0
  4  5  1  0
  5  6  2  0
  6  7  1  0
  6  8  1  0
  8  9  1  0
  9 10  2  0
 10 11  1  0
 11 12  2  0
 12 13  1  0
 14  2  1  6
 14 15  1  0
 15 16  1  0
 16 17  1  0
 17 18  1  0
 18 19  1  0
 19 20  1  0
 20 21  1  0
 21 22  1  0
 21 23  1  0
 21 24  1  0
 24 25  1  0
 18 26  1  0
 13  4  2  0
 26 14  1  0
 12  8  1  0
 25 18  1  0
M  END
>  <fragmenstein_outcome>  (130) 
nan

>  <exports>  (130) 
['/opt/xchem-fragalysis-2/maxwin/openbind-hippo/xx01zvns2b/cycle_01/syndirella/elabs/openbind_xx01zvns2b_c1_elab_chemspace_filtered.sdf']

>  <Energy>  (130) 
nan

>  <alias>  (130) 
None

>  <fragmenstein_runtime>  (130) 
nan

>  <scratch_subdir>  (130) 
nan

>  <HIPPO Compound ID>  (130) 
139318

>  <rmsd(smina/fragmenstein)>  (130) 
1.894

>  <distance_score>  (130) 
1.839735

>  <orig_smiles>  (130) 
nan

>  <fragmenstein_mode>  (130) 
nan

>  <inchikey>  (130) 
UVXOGCKXVQBBOA-CYBMUJFWSA-N

>  <ref_pdb>  (130) 
Z1495a

>  <GNINA pK>  (130) 
nan

>  <gnina_score_min>  (130) 
5.448

>  <tags>  (130) 
openbind_xx01zvns2b_c1_elab_nonasap_filtered_scored_top80percent,openbind_xx01zvns2b_c1_elab_chemspace_filtered_scored_top80percent,openbind_xx01zvns2b_c1_elab_chemspace_filtered_scored,openbind_xx01zvns2b_c1_elab_chemspace_filtered_scored_top40percent,openbind_xx01zvns2b_c1_elab_chemspace_filtered_scored_top20percent,openbind_xx01zvns2b_c1_elab_chemspace_filtered_scored_top60percent,openbind_xx01zvns2b_c1_elabs_filtered

>  <smiles>  (130) 
O=C(Nc1cc(Br)n2ccnc2c1)[C@H]1CCCC2(CCC(F)(F)CC2)O1

>  <subsites>  (130) 
1 - Z4590/B/203/1

>  <gnina_score>  (130) 
5.485

>  <HIPPO Pose ID>  (130) 
69933

>  <ref_mols>  (130) 
Z1046b,Z1495a

>  <energy_score>  (130) 
-43.02841

>  <inspiration_score>  (130) 
None

>  <smina_score_min>  (130) 
-7.255

>  <fragmenstein_error>  (130) 
nan

>  <name>  (130) 
P69933

$$$$
P69937
     RDKit          3D

 28 31  0  0  0  0  0  0  0  0999 V2000
   -8.4608    1.8587   -7.8126 C   0  0  0  0  0  0  0  0  0  0  0  0
   -7.7236    2.5281   -8.9769 C   0  0  0  0  0  0  0  0  0  0  0  0
   -8.7514    2.8267  -10.0804 C   0  0  0  0  0  0  0  0  0  0  0  0
   -6.5921    1.6668   -9.5547 C   0  0  0  0  0  0  0  0  0  0  0  0
   -7.0459    3.7004   -8.4444 O   0  0  0  0  0  0  0  0  0  0  0  0
   -7.6152    4.9006   -8.6560 C   0  0  0  0  0  0  0  0  0  0  0  0
   -8.3929    5.3871   -7.9466 O   0  0  0  0  0  0  0  0  0  0  0  0
   -7.0760    5.3688   -9.9998 N   0  0  0  0  0  0  0  0  0  0  0  0
   -7.4424    6.4854  -10.8074 C   0  0  2  0  0  0  0  0  0  0  0  0
   -6.4324    7.6353  -11.0712 C   0  0  0  0  0  0  0  0  0  0  0  0
   -7.8154    8.3153  -11.4417 C   0  0  2  0  0  0  0  0  0  0  0  0
   -7.9264    9.7997  -11.6158 C   0  0  0  0  0  0  0  0  0  0  0  0
   -8.2955    7.6123  -10.1274 C   0  0  0  0  0  0  0  0  0  0  0  0
   -8.3826    7.5684  -12.5599 O   0  0  0  0  0  0  0  0  0  0  0  0
   -8.1549    6.2033  -12.1418 C   0  0  1  0  0  0  0  0  0  0  0  0
   -7.3619    5.3820  -13.1791 C   0  0  0  0  0  0  0  0  0  0  0  0
   -7.0860    4.2516  -13.0591 O   0  0  0  0  0  0  0  0  0  0  0  0
   -7.0855    6.3698  -14.3532 N   0  0  0  0  0  0  0  0  0  0  0  0
   -6.5327    6.1538  -15.5781 C   0  0  0  0  0  0  0  0  0  0  0  0
   -6.4264    4.8132  -16.1368 C   0  0  0  0  0  0  0  0  0  0  0  0
   -5.6979    4.6455  -17.2555 C   0  0  0  0  0  0  0  0  0  0  0  0
   -5.1247    5.7440  -17.8757 N   0  0  0  0  0  0  0  0  0  0  0  0
   -4.0873    5.8721  -18.7577 C   0  0  0  0  0  0  0  0  0  0  0  0
   -2.6554    4.6800  -19.0369 Br  0  0  0  0  0  0  0  0  0  0  0  0
   -4.1196    7.1758  -19.1872 C   0  0  0  0  0  0  0  0  0  0  0  0
   -4.9727    7.9088  -18.4032 N   0  0  0  0  0  0  0  0  0  0  0  0
   -5.4247    7.0425  -17.5184 C   0  0  0  0  0  0  0  0  0  0  0  0
   -6.0634    7.2117  -16.2678 C   0  0  0  0  0  0  0  0  0  0  0  0
  1  2  1  0
  2  3  1  0
  2  4  1  0
  2  5  1  0
  5  6  1  0
  6  7  2  0
  6  8  1  0
  9  8  1  1
  9 10  1  0
 10 11  1  0
 11 12  1  1
 11 13  1  0
 11 14  1  0
 14 15  1  0
 15 16  1  6
 16 17  2  0
 16 18  1  0
 18 19  1  0
 19 20  1  0
 20 21  2  0
 21 22  1  0
 22 23  1  0
 23 24  1  0
 23 25  2  0
 25 26  1  0
 26 27  2  0
 27 28  1  0
 13  9  1  0
 28 19  2  0
 15  9  1  0
 27 22  1  0
M  END
>  <fragmenstein_outcome>  (131) 
nan

>  <exports>  (131) 
['/opt/xchem-fragalysis-2/maxwin/openbind-hippo/xx01zvns2b/cycle_01/syndirella/elabs/openbind_xx01zvns2b_c1_elab_chemspace_filtered.sdf']

>  <Energy>  (131) 
nan

>  <alias>  (131) 
None

>  <fragmenstein_runtime>  (131) 
nan

>  <scratch_subdir>  (131) 
nan

>  <HIPPO Compound ID>  (131) 
139324

>  <rmsd(smina/fragmenstein)>  (131) 
0.675

>  <distance_score>  (131) 
1.912205

>  <orig_smiles>  (131) 
nan

>  <fragmenstein_mode>  (131) 
nan

>  <inchikey>  (131) 
BZMUMXMTNLXJEB-JVPBZIDWSA-N

>  <ref_pdb>  (131) 
Z1495a

>  <GNINA pK>  (131) 
nan

>  <gnina_score_min>  (131) 
5.283

>  <tags>  (131) 
openbind_xx01zvns2b_c1_elab_nonasap_filtered_scored_top80percent,openbind_xx01zvns2b_c1_elab_chemspace_filtered_scored_top80percent,openbind_xx01zvns2b_c1_elab_chemspace_filtered_scored,openbind_xx01zvns2b_c1_elab_chemspace_filtered_scored_top40percent,openbind_xx01zvns2b_c1_elab_chemspace_filtered_scored_top20percent,openbind_xx01zvns2b_c1_elab_chemspace_filtered_scored_top60percent,openbind_xx01zvns2b_c1_elabs_filtered

>  <smiles>  (131) 
CC(C)(C)OC(=O)N[C@]12C[C@](C)(C1)O[C@H]2C(=O)Nc1ccn2c(Br)cnc2c1

>  <subsites>  (131) 
1 - Z4590/B/203/1

>  <gnina_score>  (131) 
5.497

>  <HIPPO Pose ID>  (131) 
69937

>  <ref_mols>  (131) 
Z1046b,Z1495a

>  <energy_score>  (131) 
-18.956617

>  <inspiration_score>  (131) 
None

>  <smina_score_min>  (131) 
-4.983

>  <fragmenstein_error>  (131) 
nan

>  <name>  (131) 
P69937

$$$$
P69943
     RDKit          3D

 29 31  0  0  0  0  0  0  0  0999 V2000
   -9.0754    6.3280   -4.4110 C   0  0  0  0  0  0  0  0  0  0  0  0
   -9.0157    5.0375   -5.2288 C   0  0  0  0  0  0  0  0  0  0  0  0
   -7.9318    4.0829   -4.7091 C   0  0  0  0  0  0  0  0  0  0  0  0
  -10.3586    4.3049   -5.1491 C   0  0  0  0  0  0  0  0  0  0  0  0
   -8.8787    5.3604   -6.6348 O   0  0  0  0  0  0  0  0  0  0  0  0
   -7.6776    5.7125   -7.1503 C   0  0  0  0  0  0  0  0  0  0  0  0
   -6.7297    5.9627   -6.5344 O   0  0  0  0  0  0  0  0  0  0  0  0
   -7.8738    5.5929   -8.6493 N   0  0  0  0  0  0  0  0  0  0  0  0
   -6.9205    5.6621   -9.7272 C   0  0  2  0  0  0  0  0  0  0  0  0
   -7.5410    6.0248  -11.0784 C   0  0  0  0  0  0  0  0  0  0  0  0
   -8.1229    4.8188  -11.8095 C   0  0  1  0  0  0  0  0  0  0  0  0
   -8.3825    5.1393  -13.2904 C   0  0  0  0  0  0  0  0  0  0  0  0
   -9.4360    5.4075  -13.7300 O   0  0  0  0  0  0  0  0  0  0  0  0
   -6.9898    5.0167  -13.9970 N   0  0  0  0  0  0  0  0  0  0  0  0
   -6.6584    5.1004  -15.3097 C   0  0  0  0  0  0  0  0  0  0  0  0
   -7.6861    4.7895  -16.2803 C   0  0  0  0  0  0  0  0  0  0  0  0
   -7.4246    4.8836  -17.5945 C   0  0  0  0  0  0  0  0  0  0  0  0
   -8.7397    4.3544  -18.7844 Br  0  0  0  0  0  0  0  0  0  0  0  0
   -6.1676    5.3631  -17.9910 N   0  0  0  0  0  0  0  0  0  0  0  0
   -5.6686    5.7517  -19.2100 C   0  0  0  0  0  0  0  0  0  0  0  0
   -4.3882    6.1931  -18.9950 C   0  0  0  0  0  0  0  0  0  0  0  0
   -4.0576    6.0946  -17.6740 N   0  0  0  0  0  0  0  0  0  0  0  0
   -5.1363    5.6174  -17.0838 C   0  0  0  0  0  0  0  0  0  0  0  0
   -5.4081    5.4068  -15.7029 C   0  0  0  0  0  0  0  0  0  0  0  0
   -7.2025    3.7254  -11.8239 O   0  0  0  0  0  0  0  0  0  0  0  0
   -6.8610    3.2222  -10.5315 C   0  0  0  0  0  0  0  0  0  0  0  0
   -8.0936    2.6466   -9.8213 C   0  0  0  0  0  0  0  0  0  0  0  0
   -5.8774    2.0684  -10.7855 C   0  0  0  0  0  0  0  0  0  0  0  0
   -6.1297    4.3460   -9.7779 C   0  0  0  0  0  0  0  0  0  0  0  0
  1  2  1  0
  2  3  1  0
  2  4  1  0
  2  5  1  0
  5  6  1  0
  6  7  2  0
  6  8  1  0
  9  8  1  1
  9 10  1  0
 10 11  1  0
 11 12  1  6
 12 13  2  0
 12 14  1  0
 14 15  1  0
 15 16  1  0
 16 17  2  0
 17 18  1  0
 17 19  1  0
 19 20  1  0
 20 21  2  0
 21 22  1  0
 22 23  2  0
 23 24  1  0
 11 25  1  0
 25 26  1  0
 26 27  1  0
 26 28  1  0
 26 29  1  0
 29  9  1  0
 24 15  2  0
 23 19  1  0
M  END
>  <fragmenstein_outcome>  (132) 
nan

>  <exports>  (132) 
['/opt/xchem-fragalysis-2/maxwin/openbind-hippo/xx01zvns2b/cycle_01/syndirella/elabs/openbind_xx01zvns2b_c1_elab_chemspace_filtered.sdf']

>  <Energy>  (132) 
nan

>  <alias>  (132) 
None

>  <fragmenstein_runtime>  (132) 
nan

>  <scratch_subdir>  (132) 
nan

>  <HIPPO Compound ID>  (132) 
139341

>  <rmsd(smina/fragmenstein)>  (132) 
1.08

>  <distance_score>  (132) 
1.698731

>  <orig_smiles>  (132) 
nan

>  <fragmenstein_mode>  (132) 
nan

>  <inchikey>  (132) 
VIJPPVVXPCRVTN-KGLIPLIRSA-N

>  <ref_pdb>  (132) 
Z1495a

>  <GNINA pK>  (132) 
nan

>  <gnina_score_min>  (132) 
5.428

>  <tags>  (132) 
openbind_xx01zvns2b_c1_elab_nonasap_filtered_scored_top80percent,openbind_xx01zvns2b_c1_elab_chemspace_filtered_scored_top80percent,openbind_xx01zvns2b_c1_elab_chemspace_filtered_scored,openbind_xx01zvns2b_c1_elab_chemspace_filtered_scored_top40percent,openbind_xx01zvns2b_c1_elab_chemspace_filtered_scored_top20percent,openbind_xx01zvns2b_c1_elab_chemspace_filtered_scored_top60percent,openbind_xx01zvns2b_c1_elabs_filtered

>  <smiles>  (132) 
CC(C)(C)OC(=O)N[C@@H]1C[C@@H](C(=O)Nc2cc(Br)n3ccnc3c2)OC(C)(C)C1

>  <subsites>  (132) 
1 - Z4590/B/203/1

>  <gnina_score>  (132) 
5.386

>  <HIPPO Pose ID>  (132) 
69943

>  <ref_mols>  (132) 
Z1046b,Z1495a

>  <energy_score>  (132) 
-48.416422

>  <inspiration_score>  (132) 
None

>  <smina_score_min>  (132) 
-7.397

>  <fragmenstein_error>  (132) 
nan

>  <name>  (132) 
P69943

$$$$
P69948
     RDKit          3D

 29 32  0  0  0  0  0  0  0  0999 V2000
  -10.6730    2.6172   -5.3454 C   0  0  0  0  0  0  0  0  0  0  0  0
   -9.5771    3.6838   -5.2509 C   0  0  0  0  0  0  0  0  0  0  0  0
   -9.2756    4.0195   -3.7881 C   0  0  0  0  0  0  0  0  0  0  0  0
   -8.3217    3.1979   -5.9899 C   0  0  0  0  0  0  0  0  0  0  0  0
  -10.1606    4.8560   -5.8734 O   0  0  0  0  0  0  0  0  0  0  0  0
   -9.3166    5.8504   -6.2362 C   0  0  0  0  0  0  0  0  0  0  0  0
   -9.0245    6.7305   -5.5424 O   0  0  0  0  0  0  0  0  0  0  0  0
   -8.9749    5.5882   -7.6895 N   0  0  0  0  0  0  0  0  0  0  0  0
   -8.2768    6.3954   -8.6404 C   0  0  0  0  0  0  0  0  0  0  0  0
   -7.8477    5.6812   -9.9253 C   0  0  2  0  0  0  0  0  0  0  0  0
   -7.7894    4.1448   -9.9660 C   0  0  0  0  0  0  0  0  0  0  0  0
   -7.7844    3.8501  -11.4690 C   0  0  0  0  0  0  0  0  0  0  0  0
   -7.8834    5.2517  -12.0720 C   0  0  2  0  0  0  0  0  0  0  0  0
   -8.2739    5.2625  -13.5892 C   0  0  0  0  0  0  0  0  0  0  0  0
   -9.2848    5.6715  -14.0214 O   0  0  0  0  0  0  0  0  0  0  0  0
   -6.9965    4.7213  -14.3277 N   0  0  0  0  0  0  0  0  0  0  0  0
   -6.6988    4.6713  -15.6522 C   0  0  0  0  0  0  0  0  0  0  0  0
   -7.6794    4.8920  -16.7036 C   0  0  0  0  0  0  0  0  0  0  0  0
   -7.2461    5.1595  -17.9532 C   0  0  0  0  0  0  0  0  0  0  0  0
   -5.8746    5.2293  -18.1951 N   0  0  0  0  0  0  0  0  0  0  0  0
   -5.1711    5.6589  -19.2908 C   0  0  0  0  0  0  0  0  0  0  0  0
   -3.8556    5.5863  -18.9173 C   0  0  0  0  0  0  0  0  0  0  0  0
   -2.8326    5.9571  -19.6857 O   0  0  0  0  0  0  0  0  0  0  0  0
   -3.6884    5.1269  -17.6598 N   0  0  0  0  0  0  0  0  0  0  0  0
   -4.9179    4.9318  -17.2330 C   0  0  0  0  0  0  0  0  0  0  0  0
   -5.3821    4.5994  -15.9410 C   0  0  0  0  0  0  0  0  0  0  0  0
   -6.5498    6.0077  -11.8764 C   0  0  0  0  0  0  0  0  0  0  0  0
   -6.5281    6.2900  -10.3936 C   0  0  0  0  0  0  0  0  0  0  0  0
   -8.6815    5.9427  -11.0882 O   0  0  0  0  0  0  0  0  0  0  0  0
  1  2  1  0
  2  3  1  0
  2  4  1  0
  2  5  1  0
  5  6  1  0
  6  7  2  0
  6  8  1  0
  8  9  1  0
 10  9  1  1
 10 11  1  0
 11 12  1  0
 12 13  1  0
 13 14  1  6
 14 15  2  0
 14 16  1  0
 16 17  1  0
 17 18  1  0
 18 19  2  0
 19 20  1  0
 20 21  1  0
 21 22  2  0
 22 23  1  0
 22 24  1  0
 24 25  2  0
 25 26  1  0
 13 27  1  0
 27 28  1  0
 13 29  1  0
 28 10  1  0
 29 10  1  0
 26 17  2  0
 25 20  1  0
M  END
>  <fragmenstein_outcome>  (133) 
nan

>  <exports>  (133) 
['/opt/xchem-fragalysis-2/maxwin/openbind-hippo/xx01zvns2b/cycle_01/syndirella/elabs/openbind_xx01zvns2b_c1_elab_chemspace_filtered.sdf']

>  <Energy>  (133) 
nan

>  <alias>  (133) 
None

>  <fragmenstein_runtime>  (133) 
nan

>  <scratch_subdir>  (133) 
nan

>  <HIPPO Compound ID>  (133) 
139350

>  <rmsd(smina/fragmenstein)>  (133) 
0.521

>  <distance_score>  (133) 
1.709764

>  <orig_smiles>  (133) 
nan

>  <fragmenstein_mode>  (133) 
nan

>  <inchikey>  (133) 
KYBSHNDSASOGJI-BGYRXZFFSA-N

>  <ref_pdb>  (133) 
Z1495a

>  <GNINA pK>  (133) 
nan

>  <gnina_score_min>  (133) 
5.233

>  <tags>  (133) 
openbind_xx01zvns2b_c1_elab_nonasap_filtered_scored_top80percent,openbind_xx01zvns2b_c1_elab_chemspace_filtered_scored_top80percent,openbind_xx01zvns2b_c1_elab_chemspace_filtered_scored,openbind_xx01zvns2b_c1_elab_chemspace_filtered_scored_top40percent,openbind_xx01zvns2b_c1_elab_chemspace_filtered_scored_top20percent,openbind_xx01zvns2b_c1_elab_chemspace_filtered_scored_top60percent,openbind_xx01zvns2b_c1_elabs_filtered

>  <smiles>  (133) 
CC(C)(C)OC(=O)NC[C@]12CC[C@](C(=O)Nc3ccn4cc(O)nc4c3)(CC1)O2

>  <subsites>  (133) 
1 - Z4590/B/203/1

>  <gnina_score>  (133) 
5.15

>  <HIPPO Pose ID>  (133) 
69948

>  <ref_mols>  (133) 
Z1046b,Z1495a

>  <energy_score>  (133) 
-2.733949

>  <inspiration_score>  (133) 
None

>  <smina_score_min>  (133) 
-7.021

>  <fragmenstein_error>  (133) 
nan

>  <name>  (133) 
P69948

$$$$
P69949
     RDKit          3D

 29 32  0  0  0  0  0  0  0  0999 V2000
   -9.8236    4.1285   -4.7160 C   0  0  0  0  0  0  0  0  0  0  0  0
   -8.4433    4.7873   -4.7882 C   0  0  0  0  0  0  0  0  0  0  0  0
   -7.5147    4.1621   -3.7483 C   0  0  0  0  0  0  0  0  0  0  0  0
   -8.5164    6.2945   -4.5045 C   0  0  0  0  0  0  0  0  0  0  0  0
   -7.8106    4.4586   -6.0502 O   0  0  0  0  0  0  0  0  0  0  0  0
   -8.2420    5.0276   -7.1995 C   0  0  0  0  0  0  0  0  0  0  0  0
   -9.0565    5.8509   -7.2507 O   0  0  0  0  0  0  0  0  0  0  0  0
   -7.3726    4.4289   -8.2968 N   0  0  0  0  0  0  0  0  0  0  0  0
   -7.2480    4.7790   -9.6847 C   0  0  1  0  0  0  0  0  0  0  0  0
   -6.9108    3.7152  -10.7941 C   0  0  0  0  0  0  0  0  0  0  0  0
   -7.4931    4.9169  -11.6503 C   0  0  1  0  0  0  0  0  0  0  0  0
   -7.8978    4.7310  -13.1409 C   0  0  0  0  0  0  0  0  0  0  0  0
   -8.9908    4.5267  -13.5079 O   0  0  0  0  0  0  0  0  0  0  0  0
   -6.5838    4.9267  -13.9491 N   0  0  0  0  0  0  0  0  0  0  0  0
   -6.3748    5.0012  -15.2927 C   0  0  0  0  0  0  0  0  0  0  0  0
   -7.4314    4.6125  -16.2097 C   0  0  0  0  0  0  0  0  0  0  0  0
   -7.2834    4.8067  -17.5340 C   0  0  0  0  0  0  0  0  0  0  0  0
   -8.6655    4.3183  -18.6731 Br  0  0  0  0  0  0  0  0  0  0  0  0
   -6.0913    5.3880  -17.9956 N   0  0  0  0  0  0  0  0  0  0  0  0
   -5.6873    5.8162  -19.2364 C   0  0  0  0  0  0  0  0  0  0  0  0
   -4.4278    6.3381  -19.0922 C   0  0  0  0  0  0  0  0  0  0  0  0
   -4.0179    6.2558  -17.7937 N   0  0  0  0  0  0  0  0  0  0  0  0
   -5.0285    5.7055  -17.1497 C   0  0  0  0  0  0  0  0  0  0  0  0
   -5.2025    5.4717  -15.7606 C   0  0  0  0  0  0  0  0  0  0  0  0
   -8.5661    4.8972  -10.5071 C   0  0  0  0  0  0  0  0  0  0  0  0
   -6.6088    6.0755  -11.4302 O   0  0  0  0  0  0  0  0  0  0  0  0
   -6.4280    6.0505  -10.0067 C   0  0  0  0  0  0  0  0  0  0  0  0
   -4.9463    5.8901   -9.6775 C   0  0  0  0  0  0  0  0  0  0  0  0
   -6.9738    7.3360   -9.3951 C   0  0  0  0  0  0  0  0  0  0  0  0
  1  2  1  0
  2  3  1  0
  2  4  1  0
  2  5  1  0
  5  6  1  0
  6  7  2  0
  6  8  1  0
  9  8  1  1
  9 10  1  0
 10 11  1  0
 11 12  1  6
 12 13  2  0
 12 14  1  0
 14 15  1  0
 15 16  1  0
 16 17  2  0
 17 18  1  0
 17 19  1  0
 19 20  1  0
 20 21  2  0
 21 22  1  0
 22 23  2  0
 23 24  1  0
 11 25  1  0
 11 26  1  0
 26 27  1  0
 27 28  1  0
 27 29  1  0
 25  9  1  0
 27  9  1  0
 24 15  2  0
 23 19  1  0
M  END
>  <fragmenstein_outcome>  (134) 
nan

>  <exports>  (134) 
['/opt/xchem-fragalysis-2/maxwin/openbind-hippo/xx01zvns2b/cycle_01/syndirella/elabs/openbind_xx01zvns2b_c1_elab_chemspace_filtered.sdf']

>  <Energy>  (134) 
nan

>  <alias>  (134) 
None

>  <fragmenstein_runtime>  (134) 
nan

>  <scratch_subdir>  (134) 
nan

>  <HIPPO Compound ID>  (134) 
139356

>  <rmsd(smina/fragmenstein)>  (134) 
1.539

>  <distance_score>  (134) 
1.904096

>  <orig_smiles>  (134) 
nan

>  <fragmenstein_mode>  (134) 
nan

>  <inchikey>  (134) 
IZBBTTJYDLNWBB-MXVIHJGJSA-N

>  <ref_pdb>  (134) 
Z1495a

>  <GNINA pK>  (134) 
nan

>  <gnina_score_min>  (134) 
5.749

>  <tags>  (134) 
openbind_xx01zvns2b_c1_elab_nonasap_filtered_scored_top80percent,openbind_xx01zvns2b_c1_elab_chemspace_filtered_scored_top80percent,openbind_xx01zvns2b_c1_elab_chemspace_filtered_scored,openbind_xx01zvns2b_c1_elab_chemspace_filtered_scored_top40percent,openbind_xx01zvns2b_c1_elab_chemspace_filtered_scored_top20percent,openbind_xx01zvns2b_c1_elab_chemspace_filtered_scored_top60percent,openbind_xx01zvns2b_c1_elabs_filtered

>  <smiles>  (134) 
CC(C)(C)OC(=O)N[C@]12C[C@](C(=O)Nc3cc(Br)n4ccnc4c3)(C1)OC2(C)C

>  <subsites>  (134) 
1 - Z4590/B/203/1

>  <gnina_score>  (134) 
5.423

>  <HIPPO Pose ID>  (134) 
69949

>  <ref_mols>  (134) 
Z1046b,Z1495a

>  <energy_score>  (134) 
-63.341433

>  <inspiration_score>  (134) 
None

>  <smina_score_min>  (134) 
-7.305

>  <fragmenstein_error>  (134) 
nan

>  <name>  (134) 
P69949

$$$$
P69955
     RDKit          3D

 27 30  0  0  0  0  0  0  0  0999 V2000
   -3.0605    5.0250  -17.4158 C   0  0  0  0  0  0  0  0  0  0  0  0
   -3.9464    6.2033  -17.4656 C   0  0  0  0  0  0  0  0  0  0  0  0
   -3.7666    7.3023  -18.1709 N   0  0  0  0  0  0  0  0  0  0  0  0
   -4.8468    8.1050  -17.9192 N   0  0  0  0  0  0  0  0  0  0  0  0
   -5.6732    7.5289  -17.0603 N   0  0  0  0  0  0  0  0  0  0  0  0
   -5.1268    6.3288  -16.7749 N   0  0  0  0  0  0  0  0  0  0  0  0
   -5.8221    5.3383  -15.9428 C   0  0  1  0  0  0  0  0  0  0  0  0
   -5.5806    5.6815  -14.4100 C   0  0  0  0  0  0  0  0  0  0  0  0
   -4.4767    5.5492  -14.0267 O   0  0  0  0  0  0  0  0  0  0  0  0
   -6.8613    6.1836  -13.6599 N   0  0  0  0  0  0  0  0  0  0  0  0
   -7.0223    6.7202  -12.3001 C   0  0  0  0  0  0  0  0  0  0  0  0
   -7.4200    5.7912  -11.1504 C   0  0  0  0  0  0  0  0  0  0  0  0
   -7.0912    6.1412   -9.8012 C   0  0  0  0  0  0  0  0  0  0  0  0
   -7.4048    5.3275   -8.6854 C   0  0  0  0  0  0  0  0  0  0  0  0
   -8.0840    4.1577   -8.9152 C   0  0  0  0  0  0  0  0  0  0  0  0
   -8.4655    3.8558  -10.2190 C   0  0  0  0  0  0  0  0  0  0  0  0
   -8.1595    4.6267  -11.3385 C   0  0  0  0  0  0  0  0  0  0  0  0
   -9.2051    2.6038  -10.1737 C   0  0  0  0  0  0  0  0  0  0  0  0
   -9.7163    2.0823  -11.1426 O   0  0  0  0  0  0  0  0  0  0  0  0
   -9.2152    2.1773   -8.8636 N   0  0  0  0  0  0  0  0  0  0  0  0
   -8.4876    3.0559   -7.9890 C   0  0  0  0  0  0  0  0  0  0  0  0
   -7.1792    4.9557  -16.5265 C   0  0  0  0  0  0  0  0  0  0  0  0
   -7.4636    5.0463  -17.9126 C   0  0  0  0  0  0  0  0  0  0  0  0
   -8.7036    4.6739  -18.4391 C   0  0  0  0  0  0  0  0  0  0  0  0
   -9.6919    4.2199  -17.5991 C   0  0  0  0  0  0  0  0  0  0  0  0
   -9.3923    4.0582  -16.2579 C   0  0  0  0  0  0  0  0  0  0  0  0
   -8.1453    4.3592  -15.7306 C   0  0  0  0  0  0  0  0  0  0  0  0
  1  2  1  0
  2  3  2  0
  3  4  1  0
  4  5  2  0
  5  6  1  0
  7  6  1  6
  7  8  1  0
  8  9  2  0
  8 10  1  0
 10 11  1  0
 11 12  1  0
 12 13  2  0
 13 14  1  0
 14 15  2  0
 15 16  1  0
 16 17  2  0
 16 18  1  0
 18 19  2  0
 18 20  1  0
 20 21  1  0
  7 22  1  0
 22 23  2  0
 23 24  1  0
 24 25  2  0
 25 26  1  0
 26 27  2  0
  6  2  1  0
 17 12  1  0
 27 22  1  0
 21 15  1  0
M  END
>  <fragmenstein_outcome>  (135) 
nan

>  <exports>  (135) 
['/opt/xchem-fragalysis-2/maxwin/openbind-hippo/xx01zvns2b/cycle_01/syndirella/elabs/openbind_xx01zvns2b_c1_elab_chemspace_filtered.sdf']

>  <Energy>  (135) 
nan

>  <alias>  (135) 
None

>  <fragmenstein_runtime>  (135) 
nan

>  <scratch_subdir>  (135) 
nan

>  <HIPPO Compound ID>  (135) 
139401

>  <rmsd(smina/fragmenstein)>  (135) 
1.003

>  <distance_score>  (135) 
1.634905

>  <orig_smiles>  (135) 
nan

>  <fragmenstein_mode>  (135) 
nan

>  <inchikey>  (135) 
MXDCCQYVQPVQSY-QGZVFWFLSA-N

>  <ref_pdb>  (135) 
Z0788a

>  <GNINA pK>  (135) 
nan

>  <gnina_score_min>  (135) 
5.158

>  <tags>  (135) 
openbind_xx01zvns2b_c1_elab_nonasap_filtered_scored_top80percent,openbind_xx01zvns2b_c1_elab_chemspace_filtered_scored_top80percent,openbind_xx01zvns2b_c1_elab_chemspace_filtered_scored,openbind_xx01zvns2b_c1_elab_chemspace_filtered_scored_top40percent,openbind_xx01zvns2b_c1_elab_chemspace_filtered_scored_top20percent,openbind_xx01zvns2b_c1_elab_chemspace_filtered_scored_top60percent,openbind_xx01zvns2b_c1_elabs_filtered

>  <smiles>  (135) 
Cc1nnnn1[C@@H](C(=O)NCc1ccc2c(c1)C(=O)NC2)c1ccccc1

>  <subsites>  (135) 
1 - Z4590/B/203/1

>  <gnina_score>  (135) 
5.623

>  <HIPPO Pose ID>  (135) 
69955

>  <ref_mols>  (135) 
Z0788a,Z0969a

>  <energy_score>  (135) 
-18.514358

>  <inspiration_score>  (135) 
None

>  <smina_score_min>  (135) 
-6.143

>  <fragmenstein_error>  (135) 
nan

>  <name>  (135) 
P69955

$$$$
P69958
     RDKit          3D

 28 31  0  0  0  0  0  0  0  0999 V2000
   -3.1484    5.0420  -17.0334 C   0  0  0  0  0  0  0  0  0  0  0  0
   -3.9574    6.2036  -17.4456 C   0  0  0  0  0  0  0  0  0  0  0  0
   -3.6430    7.0918  -18.3669 N   0  0  0  0  0  0  0  0  0  0  0  0
   -4.7117    7.9403  -18.4702 N   0  0  0  0  0  0  0  0  0  0  0  0
   -5.6720    7.5934  -17.6299 N   0  0  0  0  0  0  0  0  0  0  0  0
   -5.1954    6.5275  -16.9417 N   0  0  0  0  0  0  0  0  0  0  0  0
   -5.9999    5.8089  -15.9329 C   0  0  1  0  0  0  0  0  0  0  0  0
   -6.2410    6.7499  -14.6699 C   0  0  0  0  0  0  0  0  0  0  0  0
   -6.2806    7.9125  -14.8229 O   0  0  0  0  0  0  0  0  0  0  0  0
   -6.2880    5.8945  -13.3491 N   0  0  0  0  0  0  0  0  0  0  0  0
   -6.2963    6.3120  -11.9524 C   0  0  0  0  0  0  0  0  0  0  0  0
   -7.1898    5.6786  -10.8922 C   0  0  0  0  0  0  0  0  0  0  0  0
   -7.5233    6.4882   -9.7604 C   0  0  0  0  0  0  0  0  0  0  0  0
   -8.1347    5.9742   -8.6130 C   0  0  0  0  0  0  0  0  0  0  0  0
   -8.4159    4.6353   -8.6120 C   0  0  0  0  0  0  0  0  0  0  0  0
   -8.1318    3.8116   -9.6981 C   0  0  0  0  0  0  0  0  0  0  0  0
   -7.5217    4.3162  -10.8493 C   0  0  0  0  0  0  0  0  0  0  0  0
   -8.5279    2.4133   -9.3469 C   0  0  0  0  0  0  0  0  0  0  0  0
   -9.1199    2.5613   -8.0269 N   0  0  0  0  0  0  0  0  0  0  0  0
   -9.3894    1.4422   -7.1708 C   0  0  0  0  0  0  0  0  0  0  0  0
   -9.0048    3.8400   -7.5354 C   0  0  0  0  0  0  0  0  0  0  0  0
   -9.3051    4.2907   -6.4456 O   0  0  0  0  0  0  0  0  0  0  0  0
   -7.2485    5.1940  -16.5707 C   0  0  0  0  0  0  0  0  0  0  0  0
   -7.4168    5.0254  -17.9671 C   0  0  0  0  0  0  0  0  0  0  0  0
   -8.5813    4.4769  -18.5099 C   0  0  0  0  0  0  0  0  0  0  0  0
   -9.5874    4.0508  -17.6746 C   0  0  0  0  0  0  0  0  0  0  0  0
   -9.3968    4.1370  -16.3062 C   0  0  0  0  0  0  0  0  0  0  0  0
   -8.2576    4.7014  -15.7507 C   0  0  0  0  0  0  0  0  0  0  0  0
  1  2  1  0
  2  3  2  0
  3  4  1  0
  4  5  2  0
  5  6  1  0
  7  6  1  6
  7  8  1  0
  8  9  2  0
  8 10  1  0
 10 11  1  0
 11 12  1  0
 12 13  2  0
 13 14  1  0
 14 15  2  0
 15 16  1  0
 16 17  2  0
 16 18  1  0
 18 19  1  0
 19 20  1  0
 19 21  1  0
 21 22  2  0
  7 23  1  0
 23 24  2  0
 24 25  1  0
 25 26  2  0
 26 27  1  0
 27 28  2  0
  6  2  1  0
 17 12  1  0
 28 23  1  0
 21 15  1  0
M  END
>  <fragmenstein_outcome>  (136) 
nan

>  <exports>  (136) 
['/opt/xchem-fragalysis-2/maxwin/openbind-hippo/xx01zvns2b/cycle_01/syndirella/elabs/openbind_xx01zvns2b_c1_elab_chemspace_filtered.sdf']

>  <Energy>  (136) 
nan

>  <alias>  (136) 
None

>  <fragmenstein_runtime>  (136) 
nan

>  <scratch_subdir>  (136) 
nan

>  <HIPPO Compound ID>  (136) 
139405

>  <rmsd(smina/fragmenstein)>  (136) 
1.83

>  <distance_score>  (136) 
1.596425

>  <orig_smiles>  (136) 
nan

>  <fragmenstein_mode>  (136) 
nan

>  <inchikey>  (136) 
DBVNXFMCXAWFFG-GOSISDBHSA-N

>  <ref_pdb>  (136) 
Z0788a

>  <GNINA pK>  (136) 
nan

>  <gnina_score_min>  (136) 
5.224

>  <tags>  (136) 
openbind_xx01zvns2b_c1_elab_nonasap_filtered_scored_top80percent,openbind_xx01zvns2b_c1_elab_chemspace_filtered_scored_top80percent,openbind_xx01zvns2b_c1_elab_chemspace_filtered_scored,openbind_xx01zvns2b_c1_elab_chemspace_filtered_scored_top40percent,openbind_xx01zvns2b_c1_elab_chemspace_filtered_scored_top20percent,openbind_xx01zvns2b_c1_elab_chemspace_filtered_scored_top60percent,openbind_xx01zvns2b_c1_elabs_filtered

>  <smiles>  (136) 
Cc1nnnn1[C@@H](C(=O)NCc1ccc2c(c1)CN(C)C2=O)c1ccccc1

>  <subsites>  (136) 
1 - Z4590/B/203/1

>  <gnina_score>  (136) 
5.325

>  <HIPPO Pose ID>  (136) 
69958

>  <ref_mols>  (136) 
Z0788a,Z0969a

>  <energy_score>  (136) 
-1.659158

>  <inspiration_score>  (136) 
None

>  <smina_score_min>  (136) 
-6.591

>  <fragmenstein_error>  (136) 
nan

>  <name>  (136) 
P69958

$$$$
P69959
     RDKit          3D

 28 31  0  0  0  0  0  0  0  0999 V2000
   -2.9731    5.1072  -16.9902 C   0  0  0  0  0  0  0  0  0  0  0  0
   -3.9140    6.2422  -17.0472 C   0  0  0  0  0  0  0  0  0  0  0  0
   -3.8637    7.2672  -17.8747 N   0  0  0  0  0  0  0  0  0  0  0  0
   -4.9579    8.0397  -17.5974 N   0  0  0  0  0  0  0  0  0  0  0  0
   -5.6663    7.5168  -16.6077 N   0  0  0  0  0  0  0  0  0  0  0  0
   -5.0296    6.3853  -16.2536 N   0  0  0  0  0  0  0  0  0  0  0  0
   -5.6077    5.4485  -15.2884 C   0  0  2  0  0  0  0  0  0  0  0  0
   -7.1136    5.2149  -15.4680 C   0  0  0  0  0  0  0  0  0  0  0  0
   -7.6847    4.7256  -16.7604 C   0  0  0  0  0  0  0  0  0  0  0  0
   -6.9505    4.5351  -17.9256 C   0  0  0  0  0  0  0  0  0  0  0  0
   -7.6077    4.2863  -19.1167 C   0  0  0  0  0  0  0  0  0  0  0  0
   -8.9948    4.2148  -19.1475 C   0  0  0  0  0  0  0  0  0  0  0  0
   -9.7385    4.3088  -17.9836 C   0  0  0  0  0  0  0  0  0  0  0  0
   -9.0761    4.5442  -16.7908 C   0  0  0  0  0  0  0  0  0  0  0  0
   -5.0961    5.7708  -13.8280 C   0  0  0  0  0  0  0  0  0  0  0  0
   -3.9391    5.7060  -13.6364 O   0  0  0  0  0  0  0  0  0  0  0  0
   -6.2758    6.0463  -12.8326 N   0  0  0  0  0  0  0  0  0  0  0  0
   -6.2738    6.2030  -11.3759 C   0  0  0  0  0  0  0  0  0  0  0  0
   -7.1691    5.2221  -10.6202 C   0  0  0  0  0  0  0  0  0  0  0  0
   -7.9645    4.2982  -11.3220 C   0  0  0  0  0  0  0  0  0  0  0  0
   -8.6789    3.3009  -10.6682 C   0  0  0  0  0  0  0  0  0  0  0  0
   -8.6210    3.2428   -9.2958 C   0  0  0  0  0  0  0  0  0  0  0  0
   -7.9088    4.1787   -8.5644 C   0  0  0  0  0  0  0  0  0  0  0  0
   -7.1784    5.1710   -9.2054 C   0  0  0  0  0  0  0  0  0  0  0  0
   -8.0876    3.8848   -7.1089 C   0  0  0  0  0  0  0  0  0  0  0  0
   -8.7468    2.5695   -7.0428 N   0  0  0  0  0  0  0  0  0  0  0  0
   -9.7729    2.4987   -6.0166 C   0  0  0  0  0  0  0  0  0  0  0  0
   -9.2693    2.2617   -8.3843 C   0  0  0  0  0  0  0  0  0  0  0  0
  1  2  1  0
  2  3  2  0
  3  4  1  0
  4  5  2  0
  5  6  1  0
  6  7  1  0
  7  8  1  1
  8  9  1  0
  9 10  2  0
 10 11  1  0
 11 12  2  0
 12 13  1  0
 13 14  2  0
  7 15  1  0
 15 16  2  0
 15 17  1  0
 17 18  1  0
 18 19  1  0
 19 20  2  0
 20 21  1  0
 21 22  2  0
 22 23  1  0
 23 24  2  0
 23 25  1  0
 25 26  1  0
 26 27  1  0
 26 28  1  0
  6  2  1  0
 14  9  1  0
 24 19  1  0
 28 22  1  0
M  END
>  <fragmenstein_outcome>  (137) 
nan

>  <exports>  (137) 
['/opt/xchem-fragalysis-2/maxwin/openbind-hippo/xx01zvns2b/cycle_01/syndirella/elabs/openbind_xx01zvns2b_c1_elab_chemspace_filtered.sdf']

>  <Energy>  (137) 
nan

>  <alias>  (137) 
None

>  <fragmenstein_runtime>  (137) 
nan

>  <scratch_subdir>  (137) 
nan

>  <HIPPO Compound ID>  (137) 
139406

>  <rmsd(smina/fragmenstein)>  (137) 
1.048

>  <distance_score>  (137) 
1.956596

>  <orig_smiles>  (137) 
nan

>  <fragmenstein_mode>  (137) 
nan

>  <inchikey>  (137) 
LYAUFQKJPYWBTD-HXUWFJFHSA-N

>  <ref_pdb>  (137) 
Z0788a

>  <GNINA pK>  (137) 
nan

>  <gnina_score_min>  (137) 
5.142

>  <tags>  (137) 
openbind_xx01zvns2b_c1_elab_nonasap_filtered_scored_top80percent,openbind_xx01zvns2b_c1_elab_chemspace_filtered_scored_top80percent,openbind_xx01zvns2b_c1_elab_chemspace_filtered_scored,openbind_xx01zvns2b_c1_elab_chemspace_filtered_scored_top40percent,openbind_xx01zvns2b_c1_elab_chemspace_filtered_scored_top20percent,openbind_xx01zvns2b_c1_elab_chemspace_filtered_scored_top60percent,openbind_xx01zvns2b_c1_elabs_filtered

>  <smiles>  (137) 
Cc1nnnn1[C@H](Cc1ccccc1)C(=O)NCc1ccc2c(c1)CN(C)C2

>  <subsites>  (137) 
1 - Z4590/B/203/1

>  <gnina_score>  (137) 
5.356

>  <HIPPO Pose ID>  (137) 
69959

>  <ref_mols>  (137) 
Z0788a,Z0969a

>  <energy_score>  (137) 
-2.006699

>  <inspiration_score>  (137) 
None

>  <smina_score_min>  (137) 
-6.486

>  <fragmenstein_error>  (137) 
nan

>  <name>  (137) 
P69959

$$$$
P69962
     RDKit          3D

 29 32  0  0  0  0  0  0  0  0999 V2000
   -2.9273    5.2694  -16.7898 C   0  0  0  0  0  0  0  0  0  0  0  0
   -3.8950    6.3316  -17.1198 C   0  0  0  0  0  0  0  0  0  0  0  0
   -3.8170    7.1763  -18.1281 N   0  0  0  0  0  0  0  0  0  0  0  0
   -4.9690    7.9128  -18.1038 N   0  0  0  0  0  0  0  0  0  0  0  0
   -5.7472    7.5363  -17.1018 N   0  0  0  0  0  0  0  0  0  0  0  0
   -5.0723    6.5710  -16.4466 N   0  0  0  0  0  0  0  0  0  0  0  0
   -5.6414    5.8525  -15.3028 C   0  0  2  0  0  0  0  0  0  0  0  0
   -7.1087    5.4101  -15.5006 C   0  0  0  0  0  0  0  0  0  0  0  0
   -7.6450    4.8099  -16.7602 C   0  0  0  0  0  0  0  0  0  0  0  0
   -9.0340    4.5981  -16.7923 C   0  0  0  0  0  0  0  0  0  0  0  0
   -9.6845    4.2988  -17.9776 C   0  0  0  0  0  0  0  0  0  0  0  0
   -8.9312    4.1738  -19.1319 C   0  0  0  0  0  0  0  0  0  0  0  0
   -7.5447    4.2614  -19.0920 C   0  0  0  0  0  0  0  0  0  0  0  0
   -6.8979    4.5552  -17.9036 C   0  0  0  0  0  0  0  0  0  0  0  0
   -5.5586    6.7306  -13.9958 C   0  0  0  0  0  0  0  0  0  0  0  0
   -5.2904    7.8696  -14.0484 O   0  0  0  0  0  0  0  0  0  0  0  0
   -5.9742    5.8415  -12.7731 N   0  0  0  0  0  0  0  0  0  0  0  0
   -6.2363    6.2061  -11.3772 C   0  0  0  0  0  0  0  0  0  0  0  0
   -7.1185    5.2241  -10.6164 C   0  0  0  0  0  0  0  0  0  0  0  0
   -7.9765    4.3564  -11.3226 C   0  0  0  0  0  0  0  0  0  0  0  0
   -8.6861    3.3430  -10.6847 C   0  0  0  0  0  0  0  0  0  0  0  0
   -8.6084    3.2530   -9.3152 C   0  0  0  0  0  0  0  0  0  0  0  0
   -7.8674    4.1727   -8.5894 C   0  0  0  0  0  0  0  0  0  0  0  0
   -7.1087    5.1541   -9.2054 C   0  0  0  0  0  0  0  0  0  0  0  0
   -8.1143    3.9142   -7.1641 C   0  0  0  0  0  0  0  0  0  0  0  0
   -7.7323    4.6395   -6.2635 O   0  0  0  0  0  0  0  0  0  0  0  0
   -8.9228    2.7955   -7.0988 N   0  0  0  0  0  0  0  0  0  0  0  0
   -9.6780    2.4225   -5.9296 C   0  0  0  0  0  0  0  0  0  0  0  0
   -9.2834    2.2959   -8.4053 C   0  0  0  0  0  0  0  0  0  0  0  0
  1  2  1  0
  2  3  2  0
  3  4  1  0
  4  5  2  0
  5  6  1  0
  6  7  1  0
  7  8  1  6
  8  9  1  0
  9 10  2  0
 10 11  1  0
 11 12  2  0
 12 13  1  0
 13 14  2  0
  7 15  1  0
 15 16  2  0
 15 17  1  0
 17 18  1  0
 18 19  1  0
 19 20  2  0
 20 21  1  0
 21 22  2  0
 22 23  1  0
 23 24  2  0
 23 25  1  0
 25 26  2  0
 25 27  1  0
 27 28  1  0
 27 29  1  0
  6  2  1  0
 14  9  1  0
 24 19  1  0
 29 22  1  0
M  END
>  <fragmenstein_outcome>  (138) 
nan

>  <exports>  (138) 
['/opt/xchem-fragalysis-2/maxwin/openbind-hippo/xx01zvns2b/cycle_01/syndirella/elabs/openbind_xx01zvns2b_c1_elab_chemspace_filtered.sdf']

>  <Energy>  (138) 
nan

>  <alias>  (138) 
None

>  <fragmenstein_runtime>  (138) 
nan

>  <scratch_subdir>  (138) 
nan

>  <HIPPO Compound ID>  (138) 
139409

>  <rmsd(smina/fragmenstein)>  (138) 
1.423

>  <distance_score>  (138) 
1.951197

>  <orig_smiles>  (138) 
nan

>  <fragmenstein_mode>  (138) 
nan

>  <inchikey>  (138) 
POKZTMACGDKXAK-LJQANCHMSA-N

>  <ref_pdb>  (138) 
Z0788a

>  <GNINA pK>  (138) 
nan

>  <gnina_score_min>  (138) 
5.288

>  <tags>  (138) 
openbind_xx01zvns2b_c1_elab_nonasap_filtered_scored_top80percent,openbind_xx01zvns2b_c1_elab_chemspace_filtered_scored_top80percent,openbind_xx01zvns2b_c1_elab_chemspace_filtered_scored,openbind_xx01zvns2b_c1_elab_chemspace_filtered_scored_top40percent,openbind_xx01zvns2b_c1_elab_chemspace_filtered_scored_top20percent,openbind_xx01zvns2b_c1_elab_chemspace_filtered_scored_top60percent,openbind_xx01zvns2b_c1_elabs_filtered

>  <smiles>  (138) 
Cc1nnnn1[C@H](Cc1ccccc1)C(=O)NCc1ccc2c(c1)C(=O)N(C)C2

>  <subsites>  (138) 
1 - Z4590/B/203/1

>  <gnina_score>  (138) 
5.306

>  <HIPPO Pose ID>  (138) 
69962

>  <ref_mols>  (138) 
Z0788a,Z0969a

>  <energy_score>  (138) 
-1.139017

>  <inspiration_score>  (138) 
None

>  <smina_score_min>  (138) 
-6.817

>  <fragmenstein_error>  (138) 
nan

>  <name>  (138) 
P69962

$$$$
P69963
     RDKit          3D

 29 32  0  0  0  0  0  0  0  0999 V2000
   -3.0935    5.1068  -17.1423 C   0  0  0  0  0  0  0  0  0  0  0  0
   -3.9267    6.2494  -17.5600 C   0  0  0  0  0  0  0  0  0  0  0  0
   -3.6265    7.1500  -18.4737 N   0  0  0  0  0  0  0  0  0  0  0  0
   -4.7138    7.9754  -18.5789 N   0  0  0  0  0  0  0  0  0  0  0  0
   -5.6703    7.6049  -17.7441 N   0  0  0  0  0  0  0  0  0  0  0  0
   -5.1734    6.5444  -17.0631 N   0  0  0  0  0  0  0  0  0  0  0  0
   -5.9478    5.8296  -16.0312 C   0  0  1  0  0  0  0  0  0  0  0  0
   -6.1358    6.7768  -14.7655 C   0  0  0  0  0  0  0  0  0  0  0  0
   -6.1498    7.9399  -14.9165 O   0  0  0  0  0  0  0  0  0  0  0  0
   -6.1739    5.9220  -13.4463 N   0  0  0  0  0  0  0  0  0  0  0  0
   -6.1396    6.3367  -12.0520 C   0  0  0  0  0  0  0  0  0  0  0  0
   -7.0356    5.6816  -11.0120 C   0  0  0  0  0  0  0  0  0  0  0  0
   -7.7493    6.5134  -10.0977 C   0  0  0  0  0  0  0  0  0  0  0  0
   -8.4024    6.0037   -8.9687 C   0  0  0  0  0  0  0  0  0  0  0  0
   -8.3522    4.6481   -8.7790 C   0  0  0  0  0  0  0  0  0  0  0  0
   -7.6612    3.8218   -9.6390 C   0  0  0  0  0  0  0  0  0  0  0  0
   -6.9994    4.3011  -10.7638 C   0  0  0  0  0  0  0  0  0  0  0  0
   -7.6649    2.4949   -9.0275 C   0  0  0  0  0  0  0  0  0  0  0  0
   -6.8696    1.6323   -9.3478 O   0  0  0  0  0  0  0  0  0  0  0  0
   -8.5599    2.5547   -7.9915 N   0  0  0  0  0  0  0  0  0  0  0  0
   -8.8291    1.4835   -7.0838 C   0  0  0  0  0  0  0  0  0  0  0  0
   -8.8883    3.8408   -7.6957 C   0  0  0  0  0  0  0  0  0  0  0  0
   -9.4536    4.3206   -6.7297 O   0  0  0  0  0  0  0  0  0  0  0  0
   -7.2184    5.2147  -16.6216 C   0  0  0  0  0  0  0  0  0  0  0  0
   -7.4348    5.0410  -18.0102 C   0  0  0  0  0  0  0  0  0  0  0  0
   -8.6181    4.4911  -18.5096 C   0  0  0  0  0  0  0  0  0  0  0  0
   -9.5961    4.0698  -17.6380 C   0  0  0  0  0  0  0  0  0  0  0  0
   -9.3582    4.1591  -16.2764 C   0  0  0  0  0  0  0  0  0  0  0  0
   -8.1975    4.7223  -15.7643 C   0  0  0  0  0  0  0  0  0  0  0  0
  1  2  1  0
  2  3  2  0
  3  4  1  0
  4  5  2  0
  5  6  1  0
  7  6  1  6
  7  8  1  0
  8  9  2  0
  8 10  1  0
 10 11  1  0
 11 12  1  0
 12 13  2  0
 13 14  1  0
 14 15  2  0
 15 16  1  0
 16 17  2  0
 16 18  1  0
 18 19  2  0
 18 20  1  0
 20 21  1  0
 20 22  1  0
 22 23  2  0
  7 24  1  0
 24 25  2  0
 25 26  1  0
 26 27  2  0
 27 28  1  0
 28 29  2  0
  6  2  1  0
 17 12  1  0
 29 24  1  0
 22 15  1  0
M  END
>  <fragmenstein_outcome>  (139) 
nan

>  <exports>  (139) 
['/opt/xchem-fragalysis-2/maxwin/openbind-hippo/xx01zvns2b/cycle_01/syndirella/elabs/openbind_xx01zvns2b_c1_elab_chemspace_filtered.sdf']

>  <Energy>  (139) 
nan

>  <alias>  (139) 
None

>  <fragmenstein_runtime>  (139) 
nan

>  <scratch_subdir>  (139) 
nan

>  <HIPPO Compound ID>  (139) 
139414

>  <rmsd(smina/fragmenstein)>  (139) 
1.023

>  <distance_score>  (139) 
1.662457

>  <orig_smiles>  (139) 
nan

>  <fragmenstein_mode>  (139) 
nan

>  <inchikey>  (139) 
IQUFEWVXWYNNIP-QGZVFWFLSA-N

>  <ref_pdb>  (139) 
Z0788a

>  <GNINA pK>  (139) 
nan

>  <gnina_score_min>  (139) 
5.324

>  <tags>  (139) 
openbind_xx01zvns2b_c1_elab_nonasap_filtered_scored_top80percent,openbind_xx01zvns2b_c1_elab_chemspace_filtered_scored_top80percent,openbind_xx01zvns2b_c1_elab_chemspace_filtered_scored,openbind_xx01zvns2b_c1_elab_chemspace_filtered_scored_top40percent,openbind_xx01zvns2b_c1_elab_chemspace_filtered_scored_top20percent,openbind_xx01zvns2b_c1_elab_chemspace_filtered_scored_top60percent,openbind_xx01zvns2b_c1_elabs_filtered

>  <smiles>  (139) 
Cc1nnnn1[C@@H](C(=O)NCc1ccc2c(c1)C(=O)N(C)C2=O)c1ccccc1

>  <subsites>  (139) 
1 - Z4590/B/203/1

>  <gnina_score>  (139) 
5.508

>  <HIPPO Pose ID>  (139) 
69963

>  <ref_mols>  (139) 
Z0788a,Z0969a

>  <energy_score>  (139) 
-0.286381

>  <inspiration_score>  (139) 
None

>  <smina_score_min>  (139) 
-6.426

>  <fragmenstein_error>  (139) 
nan

>  <name>  (139) 
P69963

$$$$
P69965
     RDKit          3D

 29 32  0  0  0  0  0  0  0  0999 V2000
   -2.9550    5.1324  -16.9458 C   0  0  0  0  0  0  0  0  0  0  0  0
   -3.8972    6.2655  -17.0197 C   0  0  0  0  0  0  0  0  0  0  0  0
   -3.8473    7.2781  -17.8624 N   0  0  0  0  0  0  0  0  0  0  0  0
   -4.9474    8.0486  -17.6043 N   0  0  0  0  0  0  0  0  0  0  0  0
   -5.6612    7.5351  -16.6137 N   0  0  0  0  0  0  0  0  0  0  0  0
   -5.0189    6.4145  -16.2356 N   0  0  0  0  0  0  0  0  0  0  0  0
   -5.6074    5.4818  -15.2722 C   0  0  2  0  0  0  0  0  0  0  0  0
   -7.1120    5.2457  -15.4694 C   0  0  0  0  0  0  0  0  0  0  0  0
   -7.6641    4.7395  -16.7645 C   0  0  0  0  0  0  0  0  0  0  0  0
   -6.9221    4.5843  -17.9330 C   0  0  0  0  0  0  0  0  0  0  0  0
   -7.5625    4.3107  -19.1296 C   0  0  0  0  0  0  0  0  0  0  0  0
   -8.9440    4.1763  -19.1641 C   0  0  0  0  0  0  0  0  0  0  0  0
   -9.6783    4.2315  -17.9972 C   0  0  0  0  0  0  0  0  0  0  0  0
  -11.0028    4.0493  -18.0237 F   0  0  0  0  0  0  0  0  0  0  0  0
   -9.0458    4.4979  -16.7988 C   0  0  0  0  0  0  0  0  0  0  0  0
   -5.1095    5.8115  -13.8092 C   0  0  0  0  0  0  0  0  0  0  0  0
   -3.9534    5.7576  -13.6099 O   0  0  0  0  0  0  0  0  0  0  0  0
   -6.2979    6.0782  -12.8226 N   0  0  0  0  0  0  0  0  0  0  0  0
   -6.3071    6.2378  -11.3660 C   0  0  0  0  0  0  0  0  0  0  0  0
   -7.1887    5.2428  -10.6133 C   0  0  0  0  0  0  0  0  0  0  0  0
   -7.9721    4.3107  -11.3174 C   0  0  0  0  0  0  0  0  0  0  0  0
   -8.6761    3.3043  -10.6660 C   0  0  0  0  0  0  0  0  0  0  0  0
   -8.6197    3.2453   -9.2935 C   0  0  0  0  0  0  0  0  0  0  0  0
   -7.9191    4.1882   -8.5599 C   0  0  0  0  0  0  0  0  0  0  0  0
   -7.1992    5.1896   -9.1986 C   0  0  0  0  0  0  0  0  0  0  0  0
   -8.0975    3.8914   -7.1050 C   0  0  0  0  0  0  0  0  0  0  0  0
   -8.7460    2.5708   -7.0406 N   0  0  0  0  0  0  0  0  0  0  0  0
   -9.7762    2.4925   -6.0190 C   0  0  0  0  0  0  0  0  0  0  0  0
   -9.2602    2.2572   -8.3841 C   0  0  0  0  0  0  0  0  0  0  0  0
  1  2  1  0
  2  3  2  0
  3  4  1  0
  4  5  2  0
  5  6  1  0
  6  7  1  0
  7  8  1  1
  8  9  1  0
  9 10  2  0
 10 11  1  0
 11 12  2  0
 12 13  1  0
 13 14  1  0
 13 15  2  0
  7 16  1  0
 16 17  2  0
 16 18  1  0
 18 19  1  0
 19 20  1  0
 20 21  2  0
 21 22  1  0
 22 23  2  0
 23 24  1  0
 24 25  2  0
 24 26  1  0
 26 27  1  0
 27 28  1  0
 27 29  1  0
  6  2  1  0
 15  9  1  0
 25 20  1  0
 29 23  1  0
M  END
>  <fragmenstein_outcome>  (140) 
nan

>  <exports>  (140) 
['/opt/xchem-fragalysis-2/maxwin/openbind-hippo/xx01zvns2b/cycle_01/syndirella/elabs/openbind_xx01zvns2b_c1_elab_chemspace_filtered.sdf']

>  <Energy>  (140) 
nan

>  <alias>  (140) 
None

>  <fragmenstein_runtime>  (140) 
nan

>  <scratch_subdir>  (140) 
nan

>  <HIPPO Compound ID>  (140) 
139420

>  <rmsd(smina/fragmenstein)>  (140) 
0.941

>  <distance_score>  (140) 
1.92653

>  <orig_smiles>  (140) 
nan

>  <fragmenstein_mode>  (140) 
nan

>  <inchikey>  (140) 
KBWSDAKLPVJHQB-HXUWFJFHSA-N

>  <ref_pdb>  (140) 
Z0788a

>  <GNINA pK>  (140) 
nan

>  <gnina_score_min>  (140) 
5.503

>  <tags>  (140) 
openbind_xx01zvns2b_c1_elab_nonasap_filtered_scored_top80percent,openbind_xx01zvns2b_c1_elab_chemspace_filtered_scored_top80percent,openbind_xx01zvns2b_c1_elab_chemspace_filtered_scored,openbind_xx01zvns2b_c1_elab_chemspace_filtered_scored_top40percent,openbind_xx01zvns2b_c1_elab_chemspace_filtered_scored_top20percent,openbind_xx01zvns2b_c1_elab_chemspace_filtered_scored_top60percent,openbind_xx01zvns2b_c1_elabs_filtered

>  <smiles>  (140) 
Cc1nnnn1[C@H](Cc1cccc(F)c1)C(=O)NCc1ccc2c(c1)CN(C)C2

>  <subsites>  (140) 
1 - Z4590/B/203/1

>  <gnina_score>  (140) 
5.689

>  <HIPPO Pose ID>  (140) 
69965

>  <ref_mols>  (140) 
Z0788a,Z0969a

>  <energy_score>  (140) 
-7.245393

>  <inspiration_score>  (140) 
None

>  <smina_score_min>  (140) 
-6.79

>  <fragmenstein_error>  (140) 
nan

>  <name>  (140) 
P69965

$$$$
P69966
     RDKit          3D

 29 32  0  0  0  0  0  0  0  0999 V2000
   -2.9040    5.5449  -16.4983 C   0  0  0  0  0  0  0  0  0  0  0  0
   -3.9492    6.4900  -16.9465 C   0  0  0  0  0  0  0  0  0  0  0  0
   -3.8103    7.3628  -17.9246 N   0  0  0  0  0  0  0  0  0  0  0  0
   -5.0558    7.8256  -18.2029 N   0  0  0  0  0  0  0  0  0  0  0  0
   -5.9558    7.2506  -17.4259 N   0  0  0  0  0  0  0  0  0  0  0  0
   -5.2813    6.4812  -16.5101 N   0  0  0  0  0  0  0  0  0  0  0  0
   -5.8540    5.7547  -15.4412 C   0  0  0  0  0  0  0  0  0  0  0  0
   -6.8965    4.9042  -15.5780 C   0  0  0  0  0  0  0  0  0  0  0  0
   -7.6420    4.6160  -16.7906 C   0  0  0  0  0  0  0  0  0  0  0  0
   -7.0022    4.3835  -18.0066 C   0  0  0  0  0  0  0  0  0  0  0  0
   -7.7570    4.2753  -19.1569 C   0  0  0  0  0  0  0  0  0  0  0  0
   -9.1354    4.3903  -19.0811 C   0  0  0  0  0  0  0  0  0  0  0  0
   -9.8352    4.4571  -20.2139 F   0  0  0  0  0  0  0  0  0  0  0  0
   -9.7946    4.4901  -17.8688 C   0  0  0  0  0  0  0  0  0  0  0  0
   -9.0376    4.5889  -16.7103 C   0  0  0  0  0  0  0  0  0  0  0  0
   -5.2710    5.8251  -14.0400 C   0  0  0  0  0  0  0  0  0  0  0  0
   -4.1507    5.5535  -13.8497 O   0  0  0  0  0  0  0  0  0  0  0  0
   -6.3850    6.2712  -13.0443 N   0  0  0  0  0  0  0  0  0  0  0  0
   -6.3660    6.3814  -11.5817 C   0  0  0  0  0  0  0  0  0  0  0  0
   -7.2209    5.3611  -10.8348 C   0  0  0  0  0  0  0  0  0  0  0  0
   -7.8994    4.3578  -11.5498 C   0  0  0  0  0  0  0  0  0  0  0  0
   -8.5458    3.3084  -10.9139 C   0  0  0  0  0  0  0  0  0  0  0  0
   -8.5462    3.2883   -9.5434 C   0  0  0  0  0  0  0  0  0  0  0  0
   -7.9722    4.3102   -8.7959 C   0  0  0  0  0  0  0  0  0  0  0  0
   -7.2924    5.3436   -9.4210 C   0  0  0  0  0  0  0  0  0  0  0  0
   -8.1825    3.9948   -7.3469 C   0  0  0  0  0  0  0  0  0  0  0  0
   -9.2301    2.9550   -7.3593 N   0  0  0  0  0  0  0  0  0  0  0  0
   -9.1526    2.0710   -6.2181 C   0  0  0  0  0  0  0  0  0  0  0  0
   -9.0566    2.2317   -8.6295 C   0  0  0  0  0  0  0  0  0  0  0  0
  1  2  1  0
  2  3  2  0
  3  4  1  0
  4  5  2  0
  5  6  1  0
  6  7  1  0
  7  8  2  0
  8  9  1  0
  9 10  2  0
 10 11  1  0
 11 12  2  0
 12 13  1  0
 12 14  1  0
 14 15  2  0
  7 16  1  0
 16 17  2  0
 16 18  1  0
 18 19  1  0
 19 20  1  0
 20 21  2  0
 21 22  1  0
 22 23  2  0
 23 24  1  0
 24 25  2  0
 24 26  1  0
 26 27  1  0
 27 28  1  0
 27 29  1  0
  6  2  1  0
 15  9  1  0
 25 20  1  0
 29 23  1  0
M  END
>  <fragmenstein_outcome>  (141) 
nan

>  <exports>  (141) 
['/opt/xchem-fragalysis-2/maxwin/openbind-hippo/xx01zvns2b/cycle_01/syndirella/elabs/openbind_xx01zvns2b_c1_elab_chemspace_filtered.sdf']

>  <Energy>  (141) 
nan

>  <alias>  (141) 
None

>  <fragmenstein_runtime>  (141) 
nan

>  <scratch_subdir>  (141) 
nan

>  <HIPPO Compound ID>  (141) 
139421

>  <rmsd(smina/fragmenstein)>  (141) 
0.693

>  <distance_score>  (141) 
1.898681

>  <orig_smiles>  (141) 
nan

>  <fragmenstein_mode>  (141) 
nan

>  <inchikey>  (141) 
NLORIYPTXAAKNN-JMIUGGIZSA-N

>  <ref_pdb>  (141) 
Z0788a

>  <GNINA pK>  (141) 
nan

>  <gnina_score_min>  (141) 
5.5

>  <tags>  (141) 
openbind_xx01zvns2b_c1_elab_nonasap_filtered_scored_top80percent,openbind_xx01zvns2b_c1_elab_chemspace_filtered_scored_top80percent,openbind_xx01zvns2b_c1_elab_chemspace_filtered_scored,openbind_xx01zvns2b_c1_elab_chemspace_filtered_scored_top40percent,openbind_xx01zvns2b_c1_elab_chemspace_filtered_scored_top20percent,openbind_xx01zvns2b_c1_elab_chemspace_filtered_scored_top60percent,openbind_xx01zvns2b_c1_elabs_filtered

>  <smiles>  (141) 
Cc1nnnn1/C(=C\c1ccc(F)cc1)C(=O)NCc1ccc2c(c1)CN(C)C2

>  <subsites>  (141) 
1 - Z4590/B/203/1

>  <gnina_score>  (141) 
5.257

>  <HIPPO Pose ID>  (141) 
69966

>  <ref_mols>  (141) 
Z0788a,Z0969a

>  <energy_score>  (141) 
-37.295894

>  <inspiration_score>  (141) 
None

>  <smina_score_min>  (141) 
-6.755

>  <fragmenstein_error>  (141) 
nan

>  <name>  (141) 
P69966

$$$$
P69967
     RDKit          3D

 30 33  0  0  0  0  0  0  0  0999 V2000
   -2.8751    5.2999  -16.9332 C   0  0  0  0  0  0  0  0  0  0  0  0
   -3.9709    6.2798  -17.0929 C   0  0  0  0  0  0  0  0  0  0  0  0
   -3.9403    7.2939  -17.9354 N   0  0  0  0  0  0  0  0  0  0  0  0
   -5.2073    7.7692  -18.0074 N   0  0  0  0  0  0  0  0  0  0  0  0
   -6.0160    7.0720  -17.2302 N   0  0  0  0  0  0  0  0  0  0  0  0
   -5.2504    6.1788  -16.5181 N   0  0  0  0  0  0  0  0  0  0  0  0
   -5.7255    5.3022  -15.5007 C   0  0  0  0  0  0  0  0  0  0  0  0
   -6.8370    4.5439  -15.6444 C   0  0  0  0  0  0  0  0  0  0  0  0
   -7.6844    4.4724  -16.8220 C   0  0  0  0  0  0  0  0  0  0  0  0
   -7.1254    4.2814  -18.0834 C   0  0  0  0  0  0  0  0  0  0  0  0
   -7.9420    4.2466  -19.1926 C   0  0  0  0  0  0  0  0  0  0  0  0
   -9.3093    4.4284  -19.0495 C   0  0  0  0  0  0  0  0  0  0  0  0
   -9.8867    4.5256  -17.7922 C   0  0  0  0  0  0  0  0  0  0  0  0
   -9.0686    4.5329  -16.6698 C   0  0  0  0  0  0  0  0  0  0  0  0
   -4.9147    5.0544  -14.2361 C   0  0  0  0  0  0  0  0  0  0  0  0
   -3.7580    4.9323  -14.3357 O   0  0  0  0  0  0  0  0  0  0  0  0
   -5.8300    4.9883  -12.9802 N   0  0  0  0  0  0  0  0  0  0  0  0
   -5.5162    4.6637  -11.6064 C   0  0  0  0  0  0  0  0  0  0  0  0
   -6.6588    4.6186  -10.6086 C   0  0  0  0  0  0  0  0  0  0  0  0
   -7.3082    5.8055  -10.1956 C   0  0  0  0  0  0  0  0  0  0  0  0
   -8.2020    5.7927   -9.1218 C   0  0  0  0  0  0  0  0  0  0  0  0
   -8.4340    4.5820   -8.4956 C   0  0  0  0  0  0  0  0  0  0  0  0
   -7.8586    3.4128   -8.9232 C   0  0  0  0  0  0  0  0  0  0  0  0
   -6.9673    3.3958   -9.9699 C   0  0  0  0  0  0  0  0  0  0  0  0
   -8.2969    2.3413   -8.0378 C   0  0  0  0  0  0  0  0  0  0  0  0
   -7.8455    1.2187   -8.0786 O   0  0  0  0  0  0  0  0  0  0  0  0
   -9.1899    2.8969   -7.1774 N   0  0  0  0  0  0  0  0  0  0  0  0
   -9.8469    2.1988   -6.1031 C   0  0  0  0  0  0  0  0  0  0  0  0
   -9.2042    4.2536   -7.3030 C   0  0  0  0  0  0  0  0  0  0  0  0
   -9.7030    5.0930   -6.5717 O   0  0  0  0  0  0  0  0  0  0  0  0
  1  2  1  0
  2  3  2  0
  3  4  1  0
  4  5  2  0
  5  6  1  0
  6  7  1  0
  7  8  2  0
  8  9  1  0
  9 10  2  0
 10 11  1  0
 11 12  2  0
 12 13  1  0
 13 14  2  0
  7 15  1  0
 15 16  2  0
 15 17  1  0
 17 18  1  0
 18 19  1  0
 19 20  2  0
 20 21  1  0
 21 22  2  0
 22 23  1  0
 23 24  2  0
 23 25  1  0
 25 26  2  0
 25 27  1  0
 27 28  1  0
 27 29  1  0
 29 30  2  0
  6  2  1  0
 14  9  1  0
 24 19  1  0
 29 22  1  0
M  END
>  <fragmenstein_outcome>  (142) 
nan

>  <exports>  (142) 
['/opt/xchem-fragalysis-2/maxwin/openbind-hippo/xx01zvns2b/cycle_01/syndirella/elabs/openbind_xx01zvns2b_c1_elab_chemspace_filtered.sdf']

>  <Energy>  (142) 
nan

>  <alias>  (142) 
None

>  <fragmenstein_runtime>  (142) 
nan

>  <scratch_subdir>  (142) 
nan

>  <HIPPO Compound ID>  (142) 
139422

>  <rmsd(smina/fragmenstein)>  (142) 
1.756

>  <distance_score>  (142) 
1.976202

>  <orig_smiles>  (142) 
nan

>  <fragmenstein_mode>  (142) 
nan

>  <inchikey>  (142) 
FJVLFIOAHVOBDW-WQRHYEAKSA-N

>  <ref_pdb>  (142) 
Z0788a

>  <GNINA pK>  (142) 
nan

>  <gnina_score_min>  (142) 
5.213

>  <tags>  (142) 
openbind_xx01zvns2b_c1_elab_nonasap_filtered_scored_top80percent,openbind_xx01zvns2b_c1_elab_chemspace_filtered_scored_top80percent,openbind_xx01zvns2b_c1_elab_chemspace_filtered_scored,openbind_xx01zvns2b_c1_elab_chemspace_filtered_scored_top40percent,openbind_xx01zvns2b_c1_elab_chemspace_filtered_scored_top20percent,openbind_xx01zvns2b_c1_elab_chemspace_filtered_scored_top60percent,openbind_xx01zvns2b_c1_elabs_filtered

>  <smiles>  (142) 
Cc1nnnn1/C(=C\c1ccccc1)C(=O)NCc1ccc2c(c1)C(=O)N(C)C2=O

>  <subsites>  (142) 
1 - Z4590/B/203/1

>  <gnina_score>  (142) 
5.406

>  <HIPPO Pose ID>  (142) 
69967

>  <ref_mols>  (142) 
Z0788a,Z0969a

>  <energy_score>  (142) 
-32.01283

>  <inspiration_score>  (142) 
None

>  <smina_score_min>  (142) 
-7.254

>  <fragmenstein_error>  (142) 
nan

>  <name>  (142) 
P69967

$$$$
P69968
     RDKit          3D

 30 33  0  0  0  0  0  0  0  0999 V2000
   -2.9859    5.1295  -16.8619 C   0  0  0  0  0  0  0  0  0  0  0  0
   -3.9251    6.2614  -16.9789 C   0  0  0  0  0  0  0  0  0  0  0  0
   -3.8646    7.2464  -17.8530 N   0  0  0  0  0  0  0  0  0  0  0  0
   -4.9636    8.0284  -17.6285 N   0  0  0  0  0  0  0  0  0  0  0  0
   -5.6881    7.5473  -16.6297 N   0  0  0  0  0  0  0  0  0  0  0  0
   -5.0527    6.4390  -16.2087 N   0  0  0  0  0  0  0  0  0  0  0  0
   -5.6566    5.5370  -15.2274 C   0  0  2  0  0  0  0  0  0  0  0  0
   -7.1524    5.2748  -15.4446 C   0  0  0  0  0  0  0  0  0  0  0  0
   -7.6967    4.7507  -16.7344 C   0  0  0  0  0  0  0  0  0  0  0  0
   -9.0890    4.5626  -16.7736 C   0  0  0  0  0  0  0  0  0  0  0  0
   -9.7424    4.3538  -17.9744 C   0  0  0  0  0  0  0  0  0  0  0  0
   -8.9821    4.2913  -19.1244 C   0  0  0  0  0  0  0  0  0  0  0  0
   -9.5930    4.2374  -20.3069 F   0  0  0  0  0  0  0  0  0  0  0  0
   -7.5972    4.3353  -19.0906 C   0  0  0  0  0  0  0  0  0  0  0  0
   -6.9475    4.5609  -17.8909 C   0  0  0  0  0  0  0  0  0  0  0  0
   -5.2055    5.9116  -13.7579 C   0  0  0  0  0  0  0  0  0  0  0  0
   -4.0596    5.8266  -13.5126 O   0  0  0  0  0  0  0  0  0  0  0  0
   -6.4227    6.2469  -12.8239 N   0  0  0  0  0  0  0  0  0  0  0  0
   -6.4809    6.4514  -11.3710 C   0  0  0  0  0  0  0  0  0  0  0  0
   -7.2581    5.3624  -10.6281 C   0  0  0  0  0  0  0  0  0  0  0  0
   -7.6418    4.1956  -11.3195 C   0  0  0  0  0  0  0  0  0  0  0  0
   -8.2534    3.1194  -10.6882 C   0  0  0  0  0  0  0  0  0  0  0  0
   -8.4747    3.1952   -9.3365 C   0  0  0  0  0  0  0  0  0  0  0  0
   -8.1602    4.3513   -8.6376 C   0  0  0  0  0  0  0  0  0  0  0  0
   -7.5554    5.4429   -9.2483 C   0  0  0  0  0  0  0  0  0  0  0  0
   -8.6100    4.1548   -7.2518 C   0  0  0  0  0  0  0  0  0  0  0  0
   -8.6159    5.0309   -6.4058 O   0  0  0  0  0  0  0  0  0  0  0  0
   -9.0744    2.8562   -7.1624 N   0  0  0  0  0  0  0  0  0  0  0  0
   -9.8396    2.3497   -6.0512 C   0  0  0  0  0  0  0  0  0  0  0  0
   -9.0292    2.1594   -8.4290 C   0  0  0  0  0  0  0  0  0  0  0  0
  1  2  1  0
  2  3  2  0
  3  4  1  0
  4  5  2  0
  5  6  1  0
  6  7  1  0
  7  8  1  1
  8  9  1  0
  9 10  2  0
 10 11  1  0
 11 12  2  0
 12 13  1  0
 12 14  1  0
 14 15  2  0
  7 16  1  0
 16 17  2  0
 16 18  1  0
 18 19  1  0
 19 20  1  0
 20 21  2  0
 21 22  1  0
 22 23  2  0
 23 24  1  0
 24 25  2  0
 24 26  1  0
 26 27  2  0
 26 28  1  0
 28 29  1  0
 28 30  1  0
  6  2  1  0
 15  9  1  0
 25 20  1  0
 30 23  1  0
M  END
>  <fragmenstein_outcome>  (143) 
nan

>  <exports>  (143) 
['/opt/xchem-fragalysis-2/maxwin/openbind-hippo/xx01zvns2b/cycle_01/syndirella/elabs/openbind_xx01zvns2b_c1_elab_chemspace_filtered.sdf']

>  <Energy>  (143) 
nan

>  <alias>  (143) 
None

>  <fragmenstein_runtime>  (143) 
nan

>  <scratch_subdir>  (143) 
nan

>  <HIPPO Compound ID>  (143) 
139423

>  <rmsd(smina/fragmenstein)>  (143) 
0.986

>  <distance_score>  (143) 
1.958683

>  <orig_smiles>  (143) 
nan

>  <fragmenstein_mode>  (143) 
nan

>  <inchikey>  (143) 
JIGQFWGFGWWKNH-LJQANCHMSA-N

>  <ref_pdb>  (143) 
Z0788a

>  <GNINA pK>  (143) 
nan

>  <gnina_score_min>  (143) 
5.419

>  <tags>  (143) 
openbind_xx01zvns2b_c1_elab_nonasap_filtered_scored_top80percent,openbind_xx01zvns2b_c1_elab_chemspace_filtered_scored_top80percent,openbind_xx01zvns2b_c1_elab_chemspace_filtered_scored,openbind_xx01zvns2b_c1_elab_chemspace_filtered_scored_top40percent,openbind_xx01zvns2b_c1_elab_chemspace_filtered_scored_top20percent,openbind_xx01zvns2b_c1_elab_chemspace_filtered_scored_top60percent,openbind_xx01zvns2b_c1_elabs_filtered

>  <smiles>  (143) 
Cc1nnnn1[C@H](Cc1ccc(F)cc1)C(=O)NCc1ccc2c(c1)C(=O)N(C)C2

>  <subsites>  (143) 
1 - Z4590/B/203/1

>  <gnina_score>  (143) 
5.33

>  <HIPPO Pose ID>  (143) 
69968

>  <ref_mols>  (143) 
Z0788a,Z0969a

>  <energy_score>  (143) 
-8.877456

>  <inspiration_score>  (143) 
None

>  <smina_score_min>  (143) 
-6.709

>  <fragmenstein_error>  (143) 
nan

>  <name>  (143) 
P69968

$$$$
P69969
     RDKit          3D

 30 33  0  0  0  0  0  0  0  0999 V2000
   -7.4354    4.7084  -18.8352 C   0  0  0  0  0  0  0  0  0  0  0  0
   -6.1562    4.8341  -19.6549 C   0  0  0  0  0  0  0  0  0  0  0  0
   -5.1381    5.5785  -18.9644 N   0  0  0  0  0  0  0  0  0  0  0  0
   -4.3376    4.9104  -17.9648 C   0  0  0  0  0  0  0  0  0  0  0  0
   -3.9454    6.0261  -17.0805 C   0  0  0  0  0  0  0  0  0  0  0  0
   -3.3945    5.9411  -15.8248 C   0  0  0  0  0  0  0  0  0  0  0  0
   -3.4106    7.1049  -15.0390 C   0  0  0  0  0  0  0  0  0  0  0  0
   -3.1456    7.0157  -13.5574 C   0  0  0  0  0  0  0  0  0  0  0  0
   -4.0728    6.1049  -12.9323 N   0  0  0  0  0  0  0  0  0  0  0  0
   -5.6235    6.1504  -12.8382 C   0  0  0  0  0  0  0  0  0  0  0  0
   -6.3895    6.8909  -13.3181 O   0  0  0  0  0  0  0  0  0  0  0  0
   -6.0878    5.0296  -11.9098 C   0  0  0  0  0  0  0  0  0  0  0  0
   -7.0997    5.4236  -11.1002 C   0  0  0  0  0  0  0  0  0  0  0  0
   -7.8172    4.6771  -10.0644 C   0  0  0  0  0  0  0  0  0  0  0  0
   -7.8752    5.2251   -8.7741 C   0  0  0  0  0  0  0  0  0  0  0  0
   -8.4312    4.4952   -7.7226 C   0  0  0  0  0  0  0  0  0  0  0  0
   -8.9569    3.2256   -7.9596 C   0  0  0  0  0  0  0  0  0  0  0  0
   -8.9782    2.7193   -9.2547 C   0  0  0  0  0  0  0  0  0  0  0  0
   -8.4182    3.4422  -10.3086 C   0  0  0  0  0  0  0  0  0  0  0  0
   -5.4513    3.7785  -12.0086 N   0  0  0  0  0  0  0  0  0  0  0  0
   -4.8793    3.3151  -13.1696 N   0  0  0  0  0  0  0  0  0  0  0  0
   -4.3334    2.1445  -12.9098 N   0  0  0  0  0  0  0  0  0  0  0  0
   -4.4165    1.8577  -11.5901 N   0  0  0  0  0  0  0  0  0  0  0  0
   -5.0710    2.8519  -11.0229 C   0  0  0  0  0  0  0  0  0  0  0  0
   -5.1702    3.0190   -9.5570 C   0  0  0  0  0  0  0  0  0  0  0  0
   -3.8132    8.3462  -15.5976 C   0  0  0  0  0  0  0  0  0  0  0  0
   -4.3140    8.4225  -16.8971 C   0  0  0  0  0  0  0  0  0  0  0  0
   -4.4151    7.2390  -17.5890 C   0  0  0  0  0  0  0  0  0  0  0  0
   -5.2094    6.9538  -18.7845 C   0  0  0  0  0  0  0  0  0  0  0  0
   -5.8504    7.7954  -19.3876 O   0  0  0  0  0  0  0  0  0  0  0  0
  1  2  1  0
  2  3  1  0
  3  4  1  0
  4  5  1  0
  5  6  2  0
  6  7  1  0
  7  8  1  0
  8  9  1  0
  9 10  1  0
 10 11  2  0
 10 12  1  0
 12 13  2  0
 13 14  1  0
 14 15  2  0
 15 16  1  0
 16 17  2  0
 17 18  1  0
 18 19  2  0
 12 20  1  0
 20 21  1  0
 21 22  2  0
 22 23  1  0
 23 24  2  0
 24 25  1  0
  7 26  2  0
 26 27  1  0
 27 28  2  0
 28 29  1  0
 29 30  2  0
 29  3  1  0
 28  5  1  0
 19 14  1  0
 24 20  1  0
M  END
>  <fragmenstein_outcome>  (144) 
nan

>  <exports>  (144) 
['/opt/xchem-fragalysis-2/maxwin/openbind-hippo/xx01zvns2b/cycle_01/syndirella/elabs/openbind_xx01zvns2b_c1_elab_chemspace_filtered.sdf']

>  <Energy>  (144) 
nan

>  <alias>  (144) 
None

>  <fragmenstein_runtime>  (144) 
nan

>  <scratch_subdir>  (144) 
nan

>  <HIPPO Compound ID>  (144) 
139425

>  <rmsd(smina/fragmenstein)>  (144) 
1.756

>  <distance_score>  (144) 
1.782619

>  <orig_smiles>  (144) 
nan

>  <fragmenstein_mode>  (144) 
nan

>  <inchikey>  (144) 
AWYCSTIKCDMXAW-NDENLUEZSA-N

>  <ref_pdb>  (144) 
Z0788a

>  <GNINA pK>  (144) 
nan

>  <gnina_score_min>  (144) 
5.338

>  <tags>  (144) 
openbind_xx01zvns2b_c1_elab_nonasap_filtered_scored_top80percent,openbind_xx01zvns2b_c1_elab_chemspace_filtered_scored_top80percent,openbind_xx01zvns2b_c1_elab_chemspace_filtered_scored,openbind_xx01zvns2b_c1_elab_chemspace_filtered_scored_top40percent,openbind_xx01zvns2b_c1_elab_chemspace_filtered_scored_top20percent,openbind_xx01zvns2b_c1_elab_chemspace_filtered_scored_top60percent,openbind_xx01zvns2b_c1_elabs_filtered

>  <smiles>  (144) 
CCN1Cc2cc(CNC(=O)/C(=C/c3ccccc3)n3nnnc3C)ccc2C1=O

>  <subsites>  (144) 
1 - Z4590/B/203/1

>  <gnina_score>  (144) 
5.529

>  <HIPPO Pose ID>  (144) 
69969

>  <ref_mols>  (144) 
Z0788a,Z0969a

>  <energy_score>  (144) 
-21.185434

>  <inspiration_score>  (144) 
None

>  <smina_score_min>  (144) 
-6.722

>  <fragmenstein_error>  (144) 
nan

>  <name>  (144) 
P69969

$$$$
P69972
     RDKit          3D

 30 33  0  0  0  0  0  0  0  0999 V2000
   -7.7020    4.7918  -17.8814 C   0  0  0  0  0  0  0  0  0  0  0  0
   -6.8689    5.3460  -19.0251 C   0  0  0  0  0  0  0  0  0  0  0  0
   -5.5778    5.8468  -18.6241 N   0  0  0  0  0  0  0  0  0  0  0  0
   -4.6080    4.9772  -17.9931 C   0  0  0  0  0  0  0  0  0  0  0  0
   -3.9535    5.8989  -17.0336 C   0  0  0  0  0  0  0  0  0  0  0  0
   -3.2689    5.5744  -15.8815 C   0  0  0  0  0  0  0  0  0  0  0  0
   -3.0485    6.6077  -14.9540 C   0  0  0  0  0  0  0  0  0  0  0  0
   -2.6584    6.2846  -13.5300 C   0  0  0  0  0  0  0  0  0  0  0  0
   -3.7502    5.6572  -12.8165 N   0  0  0  0  0  0  0  0  0  0  0  0
   -5.2145    6.1512  -12.5612 C   0  0  0  0  0  0  0  0  0  0  0  0
   -5.7741    7.1020  -12.9563 O   0  0  0  0  0  0  0  0  0  0  0  0
   -5.9173    5.1227  -11.6372 C   0  0  1  0  0  0  0  0  0  0  0  0
   -7.3742    5.5189  -11.2877 C   0  0  0  0  0  0  0  0  0  0  0  0
   -7.9031    4.7896  -10.0727 C   0  0  0  0  0  0  0  0  0  0  0  0
   -7.8969    5.4125   -8.8171 C   0  0  0  0  0  0  0  0  0  0  0  0
   -8.2872    4.7051   -7.6775 C   0  0  0  0  0  0  0  0  0  0  0  0
   -8.6866    3.3713   -7.7798 C   0  0  0  0  0  0  0  0  0  0  0  0
   -8.7345    2.7606   -9.0258 C   0  0  0  0  0  0  0  0  0  0  0  0
   -8.3526    3.4655  -10.1661 C   0  0  0  0  0  0  0  0  0  0  0  0
   -5.7952    3.7964  -12.2093 N   0  0  0  0  0  0  0  0  0  0  0  0
   -4.8105    2.9892  -11.7609 N   0  0  0  0  0  0  0  0  0  0  0  0
   -4.8571    1.9181  -12.5344 N   0  0  0  0  0  0  0  0  0  0  0  0
   -5.8041    2.0630  -13.5115 N   0  0  0  0  0  0  0  0  0  0  0  0
   -6.3553    3.2464  -13.3329 C   0  0  0  0  0  0  0  0  0  0  0  0
   -7.3702    3.8854  -14.1939 C   0  0  0  0  0  0  0  0  0  0  0  0
   -3.3595    7.9523  -15.2897 C   0  0  0  0  0  0  0  0  0  0  0  0
   -4.0018    8.2700  -16.4868 C   0  0  0  0  0  0  0  0  0  0  0  0
   -4.3347    7.2168  -17.3051 C   0  0  0  0  0  0  0  0  0  0  0  0
   -5.3856    7.1884  -18.3241 C   0  0  0  0  0  0  0  0  0  0  0  0
   -6.0177    8.1661  -18.6841 O   0  0  0  0  0  0  0  0  0  0  0  0
  1  2  1  0
  2  3  1  0
  3  4  1  0
  4  5  1  0
  5  6  2  0
  6  7  1  0
  7  8  1  0
  8  9  1  0
  9 10  1  0
 10 11  2  0
 10 12  1  0
 12 13  1  6
 13 14  1  0
 14 15  2  0
 15 16  1  0
 16 17  2  0
 17 18  1  0
 18 19  2  0
 12 20  1  0
 20 21  1  0
 21 22  2  0
 22 23  1  0
 23 24  2  0
 24 25  1  0
  7 26  2  0
 26 27  1  0
 27 28  2  0
 28 29  1  0
 29 30  2  0
 29  3  1  0
 28  5  1  0
 19 14  1  0
 24 20  1  0
M  END
>  <fragmenstein_outcome>  (145) 
nan

>  <exports>  (145) 
['/opt/xchem-fragalysis-2/maxwin/openbind-hippo/xx01zvns2b/cycle_01/syndirella/elabs/openbind_xx01zvns2b_c1_elab_chemspace_filtered.sdf']

>  <Energy>  (145) 
nan

>  <alias>  (145) 
None

>  <fragmenstein_runtime>  (145) 
nan

>  <scratch_subdir>  (145) 
nan

>  <HIPPO Compound ID>  (145) 
139428

>  <rmsd(smina/fragmenstein)>  (145) 
1.673

>  <distance_score>  (145) 
1.618145

>  <orig_smiles>  (145) 
nan

>  <fragmenstein_mode>  (145) 
nan

>  <inchikey>  (145) 
TZOBDARSXNQKAY-HXUWFJFHSA-N

>  <ref_pdb>  (145) 
Z0788a

>  <GNINA pK>  (145) 
nan

>  <gnina_score_min>  (145) 
5.24

>  <tags>  (145) 
openbind_xx01zvns2b_c1_elab_nonasap_filtered_scored_top80percent,openbind_xx01zvns2b_c1_elab_chemspace_filtered_scored_top80percent,openbind_xx01zvns2b_c1_elab_chemspace_filtered_scored,openbind_xx01zvns2b_c1_elab_chemspace_filtered_scored_top40percent,openbind_xx01zvns2b_c1_elab_chemspace_filtered_scored_top20percent,openbind_xx01zvns2b_c1_elab_chemspace_filtered_scored_top60percent,openbind_xx01zvns2b_c1_elabs_filtered

>  <smiles>  (145) 
CCN1Cc2cc(CNC(=O)[C@@H](Cc3ccccc3)n3nnnc3C)ccc2C1=O

>  <subsites>  (145) 
1 - Z4590/B/203/1

>  <gnina_score>  (145) 
5.35

>  <HIPPO Pose ID>  (145) 
69972

>  <ref_mols>  (145) 
Z0788a,Z0969a

>  <energy_score>  (145) 
-6.51212

>  <inspiration_score>  (145) 
None

>  <smina_score_min>  (145) 
-6.172

>  <fragmenstein_error>  (145) 
nan

>  <name>  (145) 
P69972

$$$$
P69973
     RDKit          3D

 30 33  0  0  0  0  0  0  0  0999 V2000
   -2.9972    5.5453  -16.3383 C   0  0  0  0  0  0  0  0  0  0  0  0
   -4.0060    6.4988  -16.8478 C   0  0  0  0  0  0  0  0  0  0  0  0
   -3.8218    7.3227  -17.8604 N   0  0  0  0  0  0  0  0  0  0  0  0
   -5.0466    7.8097  -18.1841 N   0  0  0  0  0  0  0  0  0  0  0  0
   -5.9786    7.2940  -17.4035 N   0  0  0  0  0  0  0  0  0  0  0  0
   -5.3468    6.5495  -16.4379 N   0  0  0  0  0  0  0  0  0  0  0  0
   -5.9683    5.8731  -15.3588 C   0  0  0  0  0  0  0  0  0  0  0  0
   -6.9919    5.0016  -15.5138 C   0  0  0  0  0  0  0  0  0  0  0  0
   -7.6758    4.6561  -16.7501 C   0  0  0  0  0  0  0  0  0  0  0  0
   -9.0720    4.5937  -16.7163 C   0  0  0  0  0  0  0  0  0  0  0  0
   -9.7902    4.4614  -17.8954 C   0  0  0  0  0  0  0  0  0  0  0  0
   -9.0909    4.3625  -19.0847 C   0  0  0  0  0  0  0  0  0  0  0  0
   -9.7579    4.3884  -20.2384 F   0  0  0  0  0  0  0  0  0  0  0  0
   -7.7079    4.2849  -19.1162 C   0  0  0  0  0  0  0  0  0  0  0  0
   -6.9928    4.4194  -17.9418 C   0  0  0  0  0  0  0  0  0  0  0  0
   -5.4410    6.0276  -13.9365 C   0  0  0  0  0  0  0  0  0  0  0  0
   -4.3019    5.8769  -13.7208 O   0  0  0  0  0  0  0  0  0  0  0  0
   -6.6145    6.3846  -12.9698 N   0  0  0  0  0  0  0  0  0  0  0  0
   -6.6338    6.5355  -11.5063 C   0  0  0  0  0  0  0  0  0  0  0  0
   -7.3263    5.4046  -10.7510 C   0  0  0  0  0  0  0  0  0  0  0  0
   -7.4880    4.1645  -11.3923 C   0  0  0  0  0  0  0  0  0  0  0  0
   -8.0228    3.0558  -10.7480 C   0  0  0  0  0  0  0  0  0  0  0  0
   -8.3782    3.1704   -9.4269 C   0  0  0  0  0  0  0  0  0  0  0  0
   -8.2488    4.3856   -8.7710 C   0  0  0  0  0  0  0  0  0  0  0  0
   -7.7324    5.5124   -9.3999 C   0  0  0  0  0  0  0  0  0  0  0  0
   -8.7540    4.1964   -7.4030 C   0  0  0  0  0  0  0  0  0  0  0  0
   -8.8934    5.0973   -6.5951 O   0  0  0  0  0  0  0  0  0  0  0  0
   -9.0781    2.8589   -7.2783 N   0  0  0  0  0  0  0  0  0  0  0  0
   -9.8076    2.3060   -6.1659 C   0  0  0  0  0  0  0  0  0  0  0  0
   -8.8975    2.1219   -8.5108 C   0  0  0  0  0  0  0  0  0  0  0  0
  1  2  1  0
  2  3  2  0
  3  4  1  0
  4  5  2  0
  5  6  1  0
  6  7  1  0
  7  8  2  0
  8  9  1  0
  9 10  2  0
 10 11  1  0
 11 12  2  0
 12 13  1  0
 12 14  1  0
 14 15  2  0
  7 16  1  0
 16 17  2  0
 16 18  1  0
 18 19  1  0
 19 20  1  0
 20 21  2  0
 21 22  1  0
 22 23  2  0
 23 24  1  0
 24 25  2  0
 24 26  1  0
 26 27  2  0
 26 28  1  0
 28 29  1  0
 28 30  1  0
  6  2  1  0
 15  9  1  0
 25 20  1  0
 30 23  1  0
M  END
>  <fragmenstein_outcome>  (146) 
nan

>  <exports>  (146) 
['/opt/xchem-fragalysis-2/maxwin/openbind-hippo/xx01zvns2b/cycle_01/syndirella/elabs/openbind_xx01zvns2b_c1_elab_chemspace_filtered.sdf']

>  <Energy>  (146) 
nan

>  <alias>  (146) 
None

>  <fragmenstein_runtime>  (146) 
nan

>  <scratch_subdir>  (146) 
nan

>  <HIPPO Compound ID>  (146) 
139429

>  <rmsd(smina/fragmenstein)>  (146) 
0.9

>  <distance_score>  (146) 
1.933841

>  <orig_smiles>  (146) 
nan

>  <fragmenstein_mode>  (146) 
nan

>  <inchikey>  (146) 
UYOCZSBBAVYORI-GRSHGNNSSA-N

>  <ref_pdb>  (146) 
Z0788a

>  <GNINA pK>  (146) 
nan

>  <gnina_score_min>  (146) 
5.433

>  <tags>  (146) 
openbind_xx01zvns2b_c1_elab_nonasap_filtered_scored_top80percent,openbind_xx01zvns2b_c1_elab_chemspace_filtered_scored_top80percent,openbind_xx01zvns2b_c1_elab_chemspace_filtered_scored,openbind_xx01zvns2b_c1_elab_chemspace_filtered_scored_top40percent,openbind_xx01zvns2b_c1_elab_chemspace_filtered_scored_top20percent,openbind_xx01zvns2b_c1_elab_chemspace_filtered_scored_top60percent,openbind_xx01zvns2b_c1_elabs_filtered

>  <smiles>  (146) 
Cc1nnnn1/C(=C\c1ccc(F)cc1)C(=O)NCc1ccc2c(c1)C(=O)N(C)C2

>  <subsites>  (146) 
1 - Z4590/B/203/1

>  <gnina_score>  (146) 
5.396

>  <HIPPO Pose ID>  (146) 
69973

>  <ref_mols>  (146) 
Z0788a,Z0969a

>  <energy_score>  (146) 
-21.350546

>  <inspiration_score>  (146) 
None

>  <smina_score_min>  (146) 
-7.038

>  <fragmenstein_error>  (146) 
nan

>  <name>  (146) 
P69973

$$$$
P69974
     RDKit          3D

 30 33  0  0  0  0  0  0  0  0999 V2000
   -2.8822    5.5222  -16.5972 C   0  0  0  0  0  0  0  0  0  0  0  0
   -3.9456    6.4667  -17.0012 C   0  0  0  0  0  0  0  0  0  0  0  0
   -3.8312    7.3707  -17.9534 N   0  0  0  0  0  0  0  0  0  0  0  0
   -5.0863    7.8251  -18.2011 N   0  0  0  0  0  0  0  0  0  0  0  0
   -5.9678    7.2171  -17.4280 N   0  0  0  0  0  0  0  0  0  0  0  0
   -5.2708    6.4287  -16.5465 N   0  0  0  0  0  0  0  0  0  0  0  0
   -5.8195    5.6758  -15.4828 C   0  0  0  0  0  0  0  0  0  0  0  0
   -6.8715    4.8352  -15.6145 C   0  0  0  0  0  0  0  0  0  0  0  0
   -7.6440    4.5832  -16.8170 C   0  0  0  0  0  0  0  0  0  0  0  0
   -9.0383    4.5816  -16.7155 C   0  0  0  0  0  0  0  0  0  0  0  0
   -9.8126    4.5084  -17.8644 C   0  0  0  0  0  0  0  0  0  0  0  0
   -9.1725    4.4077  -19.0869 C   0  0  0  0  0  0  0  0  0  0  0  0
   -9.8871    4.5036  -20.2085 F   0  0  0  0  0  0  0  0  0  0  0  0
   -7.7984    4.2649  -19.1831 C   0  0  0  0  0  0  0  0  0  0  0  0
   -7.0254    4.3539  -18.0441 C   0  0  0  0  0  0  0  0  0  0  0  0
   -5.2025    5.7106  -14.0945 C   0  0  0  0  0  0  0  0  0  0  0  0
   -4.0606    5.5167  -13.9454 O   0  0  0  0  0  0  0  0  0  0  0  0
   -6.3258    5.9735  -13.0485 N   0  0  0  0  0  0  0  0  0  0  0  0
   -6.2507    6.1464  -11.6004 C   0  0  0  0  0  0  0  0  0  0  0  0
   -7.1702    5.2244  -10.8011 C   0  0  0  0  0  0  0  0  0  0  0  0
   -7.9597    4.2614  -11.4655 C   0  0  0  0  0  0  0  0  0  0  0  0
   -8.6882    3.3032  -10.7729 C   0  0  0  0  0  0  0  0  0  0  0  0
   -8.6456    3.3484   -9.4048 C   0  0  0  0  0  0  0  0  0  0  0  0
   -7.9323    4.3112   -8.7017 C   0  0  0  0  0  0  0  0  0  0  0  0
   -7.1825    5.2535   -9.3858 C   0  0  0  0  0  0  0  0  0  0  0  0
   -8.0779    4.0575   -7.2412 C   0  0  0  0  0  0  0  0  0  0  0  0
   -9.0597    3.0006   -7.1992 N   0  0  0  0  0  0  0  0  0  0  0  0
   -9.2455    2.2065   -6.0241 C   0  0  0  0  0  0  0  0  0  0  0  0
   -9.2656    2.4434   -8.4444 C   0  0  0  0  0  0  0  0  0  0  0  0
   -9.8237    1.3965   -8.6881 O   0  0  0  0  0  0  0  0  0  0  0  0
  1  2  1  0
  2  3  2  0
  3  4  1  0
  4  5  2  0
  5  6  1  0
  6  7  1  0
  7  8  2  0
  8  9  1  0
  9 10  2  0
 10 11  1  0
 11 12  2  0
 12 13  1  0
 12 14  1  0
 14 15  2  0
  7 16  1  0
 16 17  2  0
 16 18  1  0
 18 19  1  0
 19 20  1  0
 20 21  2  0
 21 22  1  0
 22 23  2  0
 23 24  1  0
 24 25  2  0
 24 26  1  0
 26 27  1  0
 27 28  1  0
 27 29  1  0
 29 30  2  0
  6  2  1  0
 15  9  1  0
 25 20  1  0
 29 23  1  0
M  END
>  <fragmenstein_outcome>  (147) 
nan

>  <exports>  (147) 
['/opt/xchem-fragalysis-2/maxwin/openbind-hippo/xx01zvns2b/cycle_01/syndirella/elabs/openbind_xx01zvns2b_c1_elab_chemspace_filtered.sdf']

>  <Energy>  (147) 
nan

>  <alias>  (147) 
None

>  <fragmenstein_runtime>  (147) 
nan

>  <scratch_subdir>  (147) 
nan

>  <HIPPO Compound ID>  (147) 
139430

>  <rmsd(smina/fragmenstein)>  (147) 
1.195

>  <distance_score>  (147) 
1.896066

>  <orig_smiles>  (147) 
nan

>  <fragmenstein_mode>  (147) 
nan

>  <inchikey>  (147) 
DUGYJDWEVPKRKZ-GRSHGNNSSA-N

>  <ref_pdb>  (147) 
Z0788a

>  <GNINA pK>  (147) 
nan

>  <gnina_score_min>  (147) 
5.264

>  <tags>  (147) 
openbind_xx01zvns2b_c1_elab_nonasap_filtered_scored_top80percent,openbind_xx01zvns2b_c1_elab_chemspace_filtered_scored_top80percent,openbind_xx01zvns2b_c1_elab_chemspace_filtered_scored,openbind_xx01zvns2b_c1_elab_chemspace_filtered_scored_top40percent,openbind_xx01zvns2b_c1_elab_chemspace_filtered_scored_top20percent,openbind_xx01zvns2b_c1_elab_chemspace_filtered_scored_top60percent,openbind_xx01zvns2b_c1_elabs_filtered

>  <smiles>  (147) 
Cc1nnnn1/C(=C\c1ccc(F)cc1)C(=O)NCc1ccc2c(c1)CN(C)C2=O

>  <subsites>  (147) 
1 - Z4590/B/203/1

>  <gnina_score>  (147) 
5.461

>  <HIPPO Pose ID>  (147) 
69974

>  <ref_mols>  (147) 
Z0788a,Z0969a

>  <energy_score>  (147) 
-22.962246

>  <inspiration_score>  (147) 
None

>  <smina_score_min>  (147) 
-6.964

>  <fragmenstein_error>  (147) 
nan

>  <name>  (147) 
P69974

$$$$
P69976
     RDKit          3D

 30 33  0  0  0  0  0  0  0  0999 V2000
   -2.9214    5.0425  -16.8947 C   0  0  0  0  0  0  0  0  0  0  0  0
   -3.8930    6.1337  -17.0761 C   0  0  0  0  0  0  0  0  0  0  0  0
   -3.8283    7.1052  -17.9644 N   0  0  0  0  0  0  0  0  0  0  0  0
   -4.9674    7.8456  -17.8085 N   0  0  0  0  0  0  0  0  0  0  0  0
   -5.7249    7.3472  -16.8436 N   0  0  0  0  0  0  0  0  0  0  0  0
   -5.0600    6.2762  -16.3603 N   0  0  0  0  0  0  0  0  0  0  0  0
   -5.6594    5.3572  -15.3748 C   0  0  2  0  0  0  0  0  0  0  0  0
   -7.1829    5.2435  -15.5299 C   0  0  0  0  0  0  0  0  0  0  0  0
   -7.7497    4.7166  -16.8117 C   0  0  0  0  0  0  0  0  0  0  0  0
   -7.0085    4.5116  -17.9751 C   0  0  0  0  0  0  0  0  0  0  0  0
   -7.6519    4.2592  -19.1719 C   0  0  0  0  0  0  0  0  0  0  0  0
   -9.0357    4.1883  -19.2092 C   0  0  0  0  0  0  0  0  0  0  0  0
   -9.7721    4.2728  -18.0453 C   0  0  0  0  0  0  0  0  0  0  0  0
  -11.1023    4.1413  -18.0777 F   0  0  0  0  0  0  0  0  0  0  0  0
   -9.1354    4.5233  -16.8470 C   0  0  0  0  0  0  0  0  0  0  0  0
   -5.2405    5.7597  -13.9227 C   0  0  0  0  0  0  0  0  0  0  0  0
   -4.5897    6.7173  -13.7403 O   0  0  0  0  0  0  0  0  0  0  0  0
   -5.7337    4.6609  -12.9177 N   0  0  0  0  0  0  0  0  0  0  0  0
   -5.4426    4.4755  -11.5119 C   0  0  0  0  0  0  0  0  0  0  0  0
   -6.6226    4.4373  -10.5546 C   0  0  0  0  0  0  0  0  0  0  0  0
   -7.1957    5.6459  -10.1003 C   0  0  0  0  0  0  0  0  0  0  0  0
   -8.1060    5.6420   -9.0469 C   0  0  0  0  0  0  0  0  0  0  0  0
   -8.4344    4.4199   -8.4893 C   0  0  0  0  0  0  0  0  0  0  0  0
   -7.9623    3.2087   -8.9670 C   0  0  0  0  0  0  0  0  0  0  0  0
   -7.0480    3.2041   -9.9998 C   0  0  0  0  0  0  0  0  0  0  0  0
   -8.5309    2.0756   -8.1735 C   0  0  0  0  0  0  0  0  0  0  0  0
   -9.4096    2.7662   -7.2549 N   0  0  0  0  0  0  0  0  0  0  0  0
  -10.0684    2.1071   -6.1597 C   0  0  0  0  0  0  0  0  0  0  0  0
   -9.2562    4.1356   -7.3163 C   0  0  0  0  0  0  0  0  0  0  0  0
   -9.6969    4.9828   -6.5586 O   0  0  0  0  0  0  0  0  0  0  0  0
  1  2  1  0
  2  3  2  0
  3  4  1  0
  4  5  2  0
  5  6  1  0
  6  7  1  0
  7  8  1  1
  8  9  1  0
  9 10  2  0
 10 11  1  0
 11 12  2  0
 12 13  1  0
 13 14  1  0
 13 15  2  0
  7 16  1  0
 16 17  2  0
 16 18  1  0
 18 19  1  0
 19 20  1  0
 20 21  2  0
 21 22  1  0
 22 23  2  0
 23 24  1  0
 24 25  2  0
 24 26  1  0
 26 27  1  0
 27 28  1  0
 27 29  1  0
 29 30  2  0
  6  2  1  0
 15  9  1  0
 25 20  1  0
 29 23  1  0
M  END
>  <fragmenstein_outcome>  (148) 
nan

>  <exports>  (148) 
['/opt/xchem-fragalysis-2/maxwin/openbind-hippo/xx01zvns2b/cycle_01/syndirella/elabs/openbind_xx01zvns2b_c1_elab_chemspace_filtered.sdf']

>  <Energy>  (148) 
nan

>  <alias>  (148) 
None

>  <fragmenstein_runtime>  (148) 
nan

>  <scratch_subdir>  (148) 
nan

>  <HIPPO Compound ID>  (148) 
139434

>  <rmsd(smina/fragmenstein)>  (148) 
1.426

>  <distance_score>  (148) 
1.963655

>  <orig_smiles>  (148) 
nan

>  <fragmenstein_mode>  (148) 
nan

>  <inchikey>  (148) 
NMVIAHLTIYRMRZ-LJQANCHMSA-N

>  <ref_pdb>  (148) 
Z0788a

>  <GNINA pK>  (148) 
nan

>  <gnina_score_min>  (148) 
5.6

>  <tags>  (148) 
openbind_xx01zvns2b_c1_elab_nonasap_filtered_scored_top80percent,openbind_xx01zvns2b_c1_elab_chemspace_filtered_scored_top80percent,openbind_xx01zvns2b_c1_elab_chemspace_filtered_scored,openbind_xx01zvns2b_c1_elab_chemspace_filtered_scored_top40percent,openbind_xx01zvns2b_c1_elab_chemspace_filtered_scored_top20percent,openbind_xx01zvns2b_c1_elab_chemspace_filtered_scored_top60percent,openbind_xx01zvns2b_c1_elabs_filtered

>  <smiles>  (148) 
Cc1nnnn1[C@H](Cc1cccc(F)c1)C(=O)NCc1ccc2c(c1)CN(C)C2=O

>  <subsites>  (148) 
1 - Z4590/B/203/1

>  <gnina_score>  (148) 
5.534

>  <HIPPO Pose ID>  (148) 
69976

>  <ref_mols>  (148) 
Z0788a,Z0969a

>  <energy_score>  (148) 
-0.093878

>  <inspiration_score>  (148) 
None

>  <smina_score_min>  (148) 
-6.909

>  <fragmenstein_error>  (148) 
nan

>  <name>  (148) 
P69976

$$$$
P69977
     RDKit          3D

 30 33  0  0  0  0  0  0  0  0999 V2000
   -5.6615    4.8158  -20.5160 C   0  0  0  0  0  0  0  0  0  0  0  0
   -6.8171    4.0007  -20.3141 O   0  0  0  0  0  0  0  0  0  0  0  0
   -7.4466    4.2488  -19.1194 C   0  0  0  0  0  0  0  0  0  0  0  0
   -8.8375    4.2724  -19.0984 C   0  0  0  0  0  0  0  0  0  0  0  0
   -9.5347    4.4475  -17.9037 C   0  0  0  0  0  0  0  0  0  0  0  0
   -8.8303    4.6067  -16.7137 C   0  0  0  0  0  0  0  0  0  0  0  0
   -7.4335    4.5885  -16.7212 C   0  0  0  0  0  0  0  0  0  0  0  0
   -6.6521    4.6733  -15.4504 C   0  0  0  0  0  0  0  0  0  0  0  0
   -5.7724    5.9142  -15.1553 C   0  0  2  0  0  0  0  0  0  0  0  0
   -6.4077    6.8973  -14.1053 C   0  0  0  0  0  0  0  0  0  0  0  0
   -6.6700    8.0060  -14.3772 O   0  0  0  0  0  0  0  0  0  0  0  0
   -6.5427    6.1248  -12.7417 N   0  0  0  0  0  0  0  0  0  0  0  0
   -7.1230    6.5482  -11.4603 C   0  0  0  0  0  0  0  0  0  0  0  0
   -7.6851    5.3948  -10.6429 C   0  0  0  0  0  0  0  0  0  0  0  0
   -8.3128    4.3417  -11.3289 C   0  0  0  0  0  0  0  0  0  0  0  0
   -8.7261    3.1904  -10.6716 C   0  0  0  0  0  0  0  0  0  0  0  0
   -8.5693    3.1179   -9.3066 C   0  0  0  0  0  0  0  0  0  0  0  0
   -8.0672    4.1859   -8.5835 C   0  0  0  0  0  0  0  0  0  0  0  0
   -7.6138    5.3294   -9.2325 C   0  0  0  0  0  0  0  0  0  0  0  0
   -8.0776    3.8265   -7.1314 C   0  0  0  0  0  0  0  0  0  0  0  0
   -8.6135    2.4523   -7.0329 N   0  0  0  0  0  0  0  0  0  0  0  0
   -9.8322    2.3841   -6.2412 C   0  0  0  0  0  0  0  0  0  0  0  0
   -8.8177    1.9557   -8.4085 C   0  0  0  0  0  0  0  0  0  0  0  0
   -5.2003    6.5489  -16.3538 N   0  0  0  0  0  0  0  0  0  0  0  0
   -5.8678    7.4396  -17.1098 N   0  0  0  0  0  0  0  0  0  0  0  0
   -5.0582    7.7690  -18.1031 N   0  0  0  0  0  0  0  0  0  0  0  0
   -3.8997    7.0480  -18.0436 N   0  0  0  0  0  0  0  0  0  0  0  0
   -4.0050    6.2674  -16.9870 C   0  0  0  0  0  0  0  0  0  0  0  0
   -3.0449    5.2252  -16.5780 C   0  0  0  0  0  0  0  0  0  0  0  0
   -6.7549    4.3813  -17.9278 C   0  0  0  0  0  0  0  0  0  0  0  0
  1  2  1  0
  2  3  1  0
  3  4  2  0
  4  5  1  0
  5  6  2  0
  6  7  1  0
  7  8  1  0
  9  8  1  6
  9 10  1  0
 10 11  2  0
 10 12  1  0
 12 13  1  0
 13 14  1  0
 14 15  2  0
 15 16  1  0
 16 17  2  0
 17 18  1  0
 18 19  2  0
 18 20  1  0
 20 21  1  0
 21 22  1  0
 21 23  1  0
  9 24  1  0
 24 25  1  0
 25 26  2  0
 26 27  1  0
 27 28  2  0
 28 29  1  0
  7 30  2  0
 30  3  1  0
 19 14  1  0
 28 24  1  0
 23 17  1  0
M  END
>  <fragmenstein_outcome>  (149) 
nan

>  <exports>  (149) 
['/opt/xchem-fragalysis-2/maxwin/openbind-hippo/xx01zvns2b/cycle_01/syndirella/elabs/openbind_xx01zvns2b_c1_elab_chemspace_filtered.sdf']

>  <Energy>  (149) 
nan

>  <alias>  (149) 
None

>  <fragmenstein_runtime>  (149) 
nan

>  <scratch_subdir>  (149) 
nan

>  <HIPPO Compound ID>  (149) 
139435

>  <rmsd(smina/fragmenstein)>  (149) 
1.308

>  <distance_score>  (149) 
1.95687

>  <orig_smiles>  (149) 
nan

>  <fragmenstein_mode>  (149) 
nan

>  <inchikey>  (149) 
QBIUGRPDMVXCFR-OAQYLSRUSA-N

>  <ref_pdb>  (149) 
Z0788a

>  <GNINA pK>  (149) 
nan

>  <gnina_score_min>  (149) 
5.37

>  <tags>  (149) 
openbind_xx01zvns2b_c1_elab_nonasap_filtered_scored_top80percent,openbind_xx01zvns2b_c1_elab_chemspace_filtered_scored_top80percent,openbind_xx01zvns2b_c1_elab_chemspace_filtered_scored,openbind_xx01zvns2b_c1_elab_chemspace_filtered_scored_top40percent,openbind_xx01zvns2b_c1_elab_chemspace_filtered_scored_top20percent,openbind_xx01zvns2b_c1_elab_chemspace_filtered_scored_top60percent,openbind_xx01zvns2b_c1_elabs_filtered

>  <smiles>  (149) 
COc1cccc(C[C@H](C(=O)NCc2ccc3c(c2)CN(C)C3)n2nnnc2C)c1

>  <subsites>  (149) 
1 - Z4590/B/203/1

>  <gnina_score>  (149) 
5.677

>  <HIPPO Pose ID>  (149) 
69977

>  <ref_mols>  (149) 
Z0788a,Z0969a

>  <energy_score>  (149) 
-3.218043

>  <inspiration_score>  (149) 
None

>  <smina_score_min>  (149) 
-6.684

>  <fragmenstein_error>  (149) 
nan

>  <name>  (149) 
P69977

$$$$
P69979
     RDKit          3D

 30 33  0  0  0  0  0  0  0  0999 V2000
   -5.6768    4.8019  -20.5302 C   0  0  0  0  0  0  0  0  0  0  0  0
   -6.8320    3.9820  -20.3423 O   0  0  0  0  0  0  0  0  0  0  0  0
   -7.4744    4.2294  -19.1541 C   0  0  0  0  0  0  0  0  0  0  0  0
   -8.8650    4.2663  -19.1469 C   0  0  0  0  0  0  0  0  0  0  0  0
   -9.5749    4.4454  -17.9603 C   0  0  0  0  0  0  0  0  0  0  0  0
   -8.8830    4.5935  -16.7629 C   0  0  0  0  0  0  0  0  0  0  0  0
   -7.4873    4.5605  -16.7566 C   0  0  0  0  0  0  0  0  0  0  0  0
   -6.7190    4.6414  -15.4792 C   0  0  0  0  0  0  0  0  0  0  0  0
   -5.8667    5.8949  -15.1679 C   0  0  2  0  0  0  0  0  0  0  0  0
   -6.5354    6.9366  -14.1986 C   0  0  0  0  0  0  0  0  0  0  0  0
   -6.6615    8.0518  -14.5312 O   0  0  0  0  0  0  0  0  0  0  0  0
   -6.9353    6.2257  -12.8580 N   0  0  0  0  0  0  0  0  0  0  0  0
   -7.4837    6.7738  -11.6261 C   0  0  0  0  0  0  0  0  0  0  0  0
   -7.7666    5.8546  -10.4517 C   0  0  0  0  0  0  0  0  0  0  0  0
   -7.8985    6.4430   -9.1572 C   0  0  0  0  0  0  0  0  0  0  0  0
   -8.2187    5.6939   -8.0166 C   0  0  0  0  0  0  0  0  0  0  0  0
   -8.4163    4.3498   -8.1934 C   0  0  0  0  0  0  0  0  0  0  0  0
   -8.2994    3.7432   -9.4393 C   0  0  0  0  0  0  0  0  0  0  0  0
   -7.9947    4.4781  -10.5811 C   0  0  0  0  0  0  0  0  0  0  0  0
   -8.5466    2.2828   -9.2863 C   0  0  0  0  0  0  0  0  0  0  0  0
   -8.8647    2.1433   -7.8877 N   0  0  0  0  0  0  0  0  0  0  0  0
   -8.7913    3.3327   -7.2069 C   0  0  0  0  0  0  0  0  0  0  0  0
   -8.9971    3.5558   -6.0313 O   0  0  0  0  0  0  0  0  0  0  0  0
   -5.2493    6.4959  -16.3672 N   0  0  0  0  0  0  0  0  0  0  0  0
   -5.8976    7.3596  -17.1746 N   0  0  0  0  0  0  0  0  0  0  0  0
   -5.0490    7.6795  -18.1377 N   0  0  0  0  0  0  0  0  0  0  0  0
   -3.8884    6.9698  -18.0160 N   0  0  0  0  0  0  0  0  0  0  0  0
   -4.0300    6.2100  -16.9483 C   0  0  0  0  0  0  0  0  0  0  0  0
   -3.0813    5.1825  -16.4836 C   0  0  0  0  0  0  0  0  0  0  0  0
   -6.7958    4.3512  -17.9553 C   0  0  0  0  0  0  0  0  0  0  0  0
  1  2  1  0
  2  3  1  0
  3  4  2  0
  4  5  1  0
  5  6  2  0
  6  7  1  0
  7  8  1  0
  9  8  1  6
  9 10  1  0
 10 11  2  0
 10 12  1  0
 12 13  1  0
 13 14  1  0
 14 15  2  0
 15 16  1  0
 16 17  2  0
 17 18  1  0
 18 19  2  0
 18 20  1  0
 20 21  1  0
 21 22  1  0
 22 23  2  0
  9 24  1  0
 24 25  1  0
 25 26  2  0
 26 27  1  0
 27 28  2  0
 28 29  1  0
  7 30  2  0
 30  3  1  0
 19 14  1  0
 28 24  1  0
 22 17  1  0
M  END
>  <fragmenstein_outcome>  (150) 
nan

>  <exports>  (150) 
['/opt/xchem-fragalysis-2/maxwin/openbind-hippo/xx01zvns2b/cycle_01/syndirella/elabs/openbind_xx01zvns2b_c1_elab_chemspace_filtered.sdf']

>  <Energy>  (150) 
nan

>  <alias>  (150) 
None

>  <fragmenstein_runtime>  (150) 
nan

>  <scratch_subdir>  (150) 
nan

>  <HIPPO Compound ID>  (150) 
139437

>  <rmsd(smina/fragmenstein)>  (150) 
1.694

>  <distance_score>  (150) 
1.520647

>  <orig_smiles>  (150) 
nan

>  <fragmenstein_mode>  (150) 
nan

>  <inchikey>  (150) 
WWDIWHXWGCKUST-LJQANCHMSA-N

>  <ref_pdb>  (150) 
Z0788a

>  <GNINA pK>  (150) 
nan

>  <gnina_score_min>  (150) 
5.211

>  <tags>  (150) 
openbind_xx01zvns2b_c1_elab_nonasap_filtered_scored_top80percent,openbind_xx01zvns2b_c1_elab_chemspace_filtered_scored_top80percent,openbind_xx01zvns2b_c1_elab_chemspace_filtered_scored,openbind_xx01zvns2b_c1_elab_chemspace_filtered_scored_top40percent,openbind_xx01zvns2b_c1_elab_chemspace_filtered_scored_top20percent,openbind_xx01zvns2b_c1_elab_chemspace_filtered_scored_top60percent,openbind_xx01zvns2b_c1_elabs_filtered

>  <smiles>  (150) 
COc1cccc(C[C@H](C(=O)NCc2ccc3c(c2)CNC3=O)n2nnnc2C)c1

>  <subsites>  (150) 
1 - Z4590/B/203/1

>  <gnina_score>  (150) 
5.664

>  <HIPPO Pose ID>  (150) 
69979

>  <ref_mols>  (150) 
Z0788a,Z0969a

>  <energy_score>  (150) 
-1.360415

>  <inspiration_score>  (150) 
None

>  <smina_score_min>  (150) 
-6.599

>  <fragmenstein_error>  (150) 
nan

>  <name>  (150) 
P69979

$$$$
P69981
     RDKit          3D

 31 34  0  0  0  0  0  0  0  0999 V2000
   -7.4555    4.7462  -18.7712 C   0  0  0  0  0  0  0  0  0  0  0  0
   -6.1702    4.9129  -19.5703 C   0  0  0  0  0  0  0  0  0  0  0  0
   -5.1664    5.6382  -18.8399 N   0  0  0  0  0  0  0  0  0  0  0  0
   -4.3443    4.9358  -17.8845 C   0  0  0  0  0  0  0  0  0  0  0  0
   -3.8640    6.0317  -17.0184 C   0  0  0  0  0  0  0  0  0  0  0  0
   -3.2184    5.9178  -15.8101 C   0  0  0  0  0  0  0  0  0  0  0  0
   -3.1294    7.0711  -15.0134 C   0  0  0  0  0  0  0  0  0  0  0  0
   -2.7754    6.9317  -13.5520 C   0  0  0  0  0  0  0  0  0  0  0  0
   -3.9640    6.8683  -12.7293 N   0  0  0  0  0  0  0  0  0  0  0  0
   -5.2414    6.0080  -12.8740 C   0  0  0  0  0  0  0  0  0  0  0  0
   -5.5666    5.2730  -13.7214 O   0  0  0  0  0  0  0  0  0  0  0  0
   -6.1706    6.1867  -11.6516 C   0  0  0  0  0  0  0  0  0  0  0  0
   -6.8861    5.0600  -11.3995 C   0  0  0  0  0  0  0  0  0  0  0  0
   -7.6553    4.5779  -10.2308 C   0  0  0  0  0  0  0  0  0  0  0  0
   -8.4836    3.4625  -10.4415 C   0  0  0  0  0  0  0  0  0  0  0  0
   -9.0385    2.7596   -9.3736 C   0  0  0  0  0  0  0  0  0  0  0  0
   -8.7953    3.1753   -8.0803 C   0  0  0  0  0  0  0  0  0  0  0  0
   -9.3186    2.4849   -7.0599 F   0  0  0  0  0  0  0  0  0  0  0  0
   -8.0228    4.3070   -7.8392 C   0  0  0  0  0  0  0  0  0  0  0  0
   -7.4314    4.9925   -8.9103 C   0  0  0  0  0  0  0  0  0  0  0  0
   -6.1894    7.3790  -10.9132 N   0  0  0  0  0  0  0  0  0  0  0  0
   -5.1055    8.1894  -10.6889 N   0  0  0  0  0  0  0  0  0  0  0  0
   -5.4923    9.1570   -9.8800 N   0  0  0  0  0  0  0  0  0  0  0  0
   -6.8246    9.0846   -9.6406 N   0  0  0  0  0  0  0  0  0  0  0  0
   -7.2701    8.0412  -10.3099 C   0  0  0  0  0  0  0  0  0  0  0  0
   -8.7002    7.7121  -10.4952 C   0  0  0  0  0  0  0  0  0  0  0  0
   -3.5524    8.3272  -15.5198 C   0  0  0  0  0  0  0  0  0  0  0  0
   -4.1568    8.4315  -16.7756 C   0  0  0  0  0  0  0  0  0  0  0  0
   -4.3417    7.2613  -17.4759 C   0  0  0  0  0  0  0  0  0  0  0  0
   -5.2119    7.0091  -18.6280 C   0  0  0  0  0  0  0  0  0  0  0  0
   -5.8735    7.8690  -19.1811 O   0  0  0  0  0  0  0  0  0  0  0  0
  1  2  1  0
  2  3  1  0
  3  4  1  0
  4  5  1  0
  5  6  2  0
  6  7  1  0
  7  8  1  0
  8  9  1  0
  9 10  1  0
 10 11  2  0
 10 12  1  0
 12 13  2  0
 13 14  1  0
 14 15  2  0
 15 16  1  0
 16 17  2  0
 17 18  1  0
 17 19  1  0
 19 20  2  0
 12 21  1  0
 21 22  1  0
 22 23  2  0
 23 24  1  0
 24 25  2  0
 25 26  1  0
  7 27  2  0
 27 28  1  0
 28 29  2  0
 29 30  1  0
 30 31  2  0
 30  3  1  0
 29  5  1  0
 20 14  1  0
 25 21  1  0
M  END
>  <fragmenstein_outcome>  (151) 
nan

>  <exports>  (151) 
['/opt/xchem-fragalysis-2/maxwin/openbind-hippo/xx01zvns2b/cycle_01/syndirella/elabs/openbind_xx01zvns2b_c1_elab_chemspace_filtered.sdf']

>  <Energy>  (151) 
nan

>  <alias>  (151) 
None

>  <fragmenstein_runtime>  (151) 
nan

>  <scratch_subdir>  (151) 
nan

>  <HIPPO Compound ID>  (151) 
139443

>  <rmsd(smina/fragmenstein)>  (151) 
1.718

>  <distance_score>  (151) 
1.722688

>  <orig_smiles>  (151) 
nan

>  <fragmenstein_mode>  (151) 
nan

>  <inchikey>  (151) 
KPIILKCGTTVAJK-JAIQZWGSSA-N

>  <ref_pdb>  (151) 
Z0788a

>  <GNINA pK>  (151) 
nan

>  <gnina_score_min>  (151) 
5.312

>  <tags>  (151) 
openbind_xx01zvns2b_c1_elab_nonasap_filtered_scored_top80percent,openbind_xx01zvns2b_c1_elab_chemspace_filtered_scored_top80percent,openbind_xx01zvns2b_c1_elab_chemspace_filtered_scored,openbind_xx01zvns2b_c1_elab_chemspace_filtered_scored_top40percent,openbind_xx01zvns2b_c1_elab_chemspace_filtered_scored_top20percent,openbind_xx01zvns2b_c1_elab_chemspace_filtered_scored_top60percent,openbind_xx01zvns2b_c1_elabs_filtered

>  <smiles>  (151) 
CCN1Cc2cc(CNC(=O)/C(=C/c3ccc(F)cc3)n3nnnc3C)ccc2C1=O

>  <subsites>  (151) 
1 - Z4590/B/203/1

>  <gnina_score>  (151) 
5.581

>  <HIPPO Pose ID>  (151) 
69981

>  <ref_mols>  (151) 
Z0969a,Z0788a

>  <energy_score>  (151) 
-18.936389

>  <inspiration_score>  (151) 
None

>  <smina_score_min>  (151) 
-5.748

>  <fragmenstein_error>  (151) 
nan

>  <name>  (151) 
P69981

$$$$
P69982
     RDKit          3D

 31 34  0  0  0  0  0  0  0  0999 V2000
   -2.9300    5.1983  -16.7053 C   0  0  0  0  0  0  0  0  0  0  0  0
   -4.0197    6.1805  -16.8811 C   0  0  0  0  0  0  0  0  0  0  0  0
   -3.9589    7.2090  -17.7051 N   0  0  0  0  0  0  0  0  0  0  0  0
   -5.2205    7.6898  -17.8113 N   0  0  0  0  0  0  0  0  0  0  0  0
   -6.0559    6.9833  -17.0719 N   0  0  0  0  0  0  0  0  0  0  0  0
   -5.3191    6.0688  -16.3535 N   0  0  0  0  0  0  0  0  0  0  0  0
   -5.8463    5.1586  -15.3896 C   0  0  0  0  0  0  0  0  0  0  0  0
   -6.9631    4.4292  -15.6171 C   0  0  0  0  0  0  0  0  0  0  0  0
   -7.7641    4.4258  -16.8262 C   0  0  0  0  0  0  0  0  0  0  0  0
   -7.1649    4.2627  -18.0737 C   0  0  0  0  0  0  0  0  0  0  0  0
   -7.9476    4.2715  -19.2068 C   0  0  0  0  0  0  0  0  0  0  0  0
   -9.3101    4.4815  -19.0908 C   0  0  0  0  0  0  0  0  0  0  0  0
  -10.0322    4.6522  -20.1996 F   0  0  0  0  0  0  0  0  0  0  0  0
   -9.9329    4.5564  -17.8576 C   0  0  0  0  0  0  0  0  0  0  0  0
   -9.1507    4.5119  -16.7126 C   0  0  0  0  0  0  0  0  0  0  0  0
   -5.0966    4.7994  -14.1105 C   0  0  0  0  0  0  0  0  0  0  0  0
   -3.9347    4.6889  -14.1617 O   0  0  0  0  0  0  0  0  0  0  0  0
   -6.0813    4.5670  -12.9241 N   0  0  0  0  0  0  0  0  0  0  0  0
   -5.8410    4.0594  -11.5892 C   0  0  0  0  0  0  0  0  0  0  0  0
   -6.9345    4.2294  -10.5453 C   0  0  0  0  0  0  0  0  0  0  0  0
   -7.2476    5.5136  -10.0442 C   0  0  0  0  0  0  0  0  0  0  0  0
   -8.0413    5.6563   -8.9049 C   0  0  0  0  0  0  0  0  0  0  0  0
   -8.5084    4.5030   -8.2992 C   0  0  0  0  0  0  0  0  0  0  0  0
   -8.2986    3.2502   -8.8227 C   0  0  0  0  0  0  0  0  0  0  0  0
   -7.5100    3.0826   -9.9395 C   0  0  0  0  0  0  0  0  0  0  0  0
   -8.9944    2.2857   -7.9637 C   0  0  0  0  0  0  0  0  0  0  0  0
   -9.1742    1.1137   -8.2138 O   0  0  0  0  0  0  0  0  0  0  0  0
   -9.4547    2.9905   -6.8953 N   0  0  0  0  0  0  0  0  0  0  0  0
  -10.2471    2.4230   -5.8312 C   0  0  0  0  0  0  0  0  0  0  0  0
   -9.2454    4.3276   -7.0539 C   0  0  0  0  0  0  0  0  0  0  0  0
   -9.6129    5.2544   -6.3512 O   0  0  0  0  0  0  0  0  0  0  0  0
  1  2  1  0
  2  3  2  0
  3  4  1  0
  4  5  2  0
  5  6  1  0
  6  7  1  0
  7  8  2  0
  8  9  1  0
  9 10  2  0
 10 11  1  0
 11 12  2  0
 12 13  1  0
 12 14  1  0
 14 15  2  0
  7 16  1  0
 16 17  2  0
 16 18  1  0
 18 19  1  0
 19 20  1  0
 20 21  2  0
 21 22  1  0
 22 23  2  0
 23 24  1  0
 24 25  2  0
 24 26  1  0
 26 27  2  0
 26 28  1  0
 28 29  1  0
 28 30  1  0
 30 31  2  0
  6  2  1  0
 15  9  1  0
 25 20  1  0
 30 23  1  0
M  END
>  <fragmenstein_outcome>  (152) 
nan

>  <exports>  (152) 
['/opt/xchem-fragalysis-2/maxwin/openbind-hippo/xx01zvns2b/cycle_01/syndirella/elabs/openbind_xx01zvns2b_c1_elab_chemspace_filtered.sdf']

>  <Energy>  (152) 
nan

>  <alias>  (152) 
None

>  <fragmenstein_runtime>  (152) 
nan

>  <scratch_subdir>  (152) 
nan

>  <HIPPO Compound ID>  (152) 
139444

>  <rmsd(smina/fragmenstein)>  (152) 
1.181

>  <distance_score>  (152) 
1.953047

>  <orig_smiles>  (152) 
nan

>  <fragmenstein_mode>  (152) 
nan

>  <inchikey>  (152) 
ATOOOUJIFLEZID-ZDLGFXPLSA-N

>  <ref_pdb>  (152) 
Z0788a

>  <GNINA pK>  (152) 
nan

>  <gnina_score_min>  (152) 
5.527

>  <tags>  (152) 
openbind_xx01zvns2b_c1_elab_nonasap_filtered_scored_top80percent,openbind_xx01zvns2b_c1_elab_chemspace_filtered_scored_top80percent,openbind_xx01zvns2b_c1_elab_chemspace_filtered_scored,openbind_xx01zvns2b_c1_elab_chemspace_filtered_scored_top40percent,openbind_xx01zvns2b_c1_elab_chemspace_filtered_scored_top20percent,openbind_xx01zvns2b_c1_elab_chemspace_filtered_scored_top60percent,openbind_xx01zvns2b_c1_elabs_filtered

>  <smiles>  (152) 
Cc1nnnn1/C(=C\c1ccc(F)cc1)C(=O)NCc1ccc2c(c1)C(=O)N(C)C2=O

>  <subsites>  (152) 
1 - Z4590/B/203/1

>  <gnina_score>  (152) 
5.321

>  <HIPPO Pose ID>  (152) 
69982

>  <ref_mols>  (152) 
Z0788a,Z0969a

>  <energy_score>  (152) 
-27.076725

>  <inspiration_score>  (152) 
None

>  <smina_score_min>  (152) 
-7.308

>  <fragmenstein_error>  (152) 
nan

>  <name>  (152) 
P69982

$$$$
P69984
     RDKit          3D

 31 34  0  0  0  0  0  0  0  0999 V2000
   -7.2766    4.7215  -18.9303 C   0  0  0  0  0  0  0  0  0  0  0  0
   -6.0276    4.9997  -19.7602 C   0  0  0  0  0  0  0  0  0  0  0  0
   -5.0212    5.6971  -19.0033 N   0  0  0  0  0  0  0  0  0  0  0  0
   -4.1757    4.9484  -18.1060 C   0  0  0  0  0  0  0  0  0  0  0  0
   -3.8326    5.9600  -17.0859 C   0  0  0  0  0  0  0  0  0  0  0  0
   -3.3077    5.7331  -15.8365 C   0  0  0  0  0  0  0  0  0  0  0  0
   -3.3734    6.7854  -14.9072 C   0  0  0  0  0  0  0  0  0  0  0  0
   -3.2453    6.4590  -13.4391 C   0  0  0  0  0  0  0  0  0  0  0  0
   -4.5542    6.1116  -12.9346 N   0  0  0  0  0  0  0  0  0  0  0  0
   -5.4118    4.8421  -13.1552 C   0  0  0  0  0  0  0  0  0  0  0  0
   -5.2279    3.9159  -13.8383 O   0  0  0  0  0  0  0  0  0  0  0  0
   -6.6560    5.0083  -12.3452 C   0  0  0  0  0  0  0  0  0  0  0  0
   -6.4903    4.5822  -11.0813 C   0  0  0  0  0  0  0  0  0  0  0  0
   -7.4582    4.4560   -9.9925 C   0  0  0  0  0  0  0  0  0  0  0  0
   -7.7365    5.5159   -9.1243 C   0  0  0  0  0  0  0  0  0  0  0  0
   -8.4441    5.2766   -7.9438 C   0  0  0  0  0  0  0  0  0  0  0  0
   -8.8836    3.9851   -7.6437 C   0  0  0  0  0  0  0  0  0  0  0  0
   -8.6457    2.9473   -8.5374 C   0  0  0  0  0  0  0  0  0  0  0  0
   -9.0523    1.7070   -8.2392 F   0  0  0  0  0  0  0  0  0  0  0  0
   -7.9418    3.1745   -9.7076 C   0  0  0  0  0  0  0  0  0  0  0  0
   -7.7901    5.6106  -12.8831 N   0  0  0  0  0  0  0  0  0  0  0  0
   -8.6202    6.4593  -12.2081 N   0  0  0  0  0  0  0  0  0  0  0  0
   -9.4394    6.9924  -13.0945 N   0  0  0  0  0  0  0  0  0  0  0  0
   -9.2652    6.4304  -14.3149 N   0  0  0  0  0  0  0  0  0  0  0  0
   -8.2582    5.5909  -14.2004 C   0  0  0  0  0  0  0  0  0  0  0  0
   -7.7720    4.6936  -15.2702 C   0  0  0  0  0  0  0  0  0  0  0  0
   -3.8039    8.0749  -15.3129 C   0  0  0  0  0  0  0  0  0  0  0  0
   -4.2831    8.2986  -16.6073 C   0  0  0  0  0  0  0  0  0  0  0  0
   -4.3358    7.2104  -17.4484 C   0  0  0  0  0  0  0  0  0  0  0  0
   -5.1280    7.0414  -18.6701 C   0  0  0  0  0  0  0  0  0  0  0  0
   -5.8016    7.9241  -19.1700 O   0  0  0  0  0  0  0  0  0  0  0  0
  1  2  1  0
  2  3  1  0
  3  4  1  0
  4  5  1  0
  5  6  2  0
  6  7  1  0
  7  8  1  0
  8  9  1  0
  9 10  1  0
 10 11  2  0
 10 12  1  0
 12 13  2  0
 13 14  1  0
 14 15  2  0
 15 16  1  0
 16 17  2  0
 17 18  1  0
 18 19  1  0
 18 20  2  0
 12 21  1  0
 21 22  1  0
 22 23  2  0
 23 24  1  0
 24 25  2  0
 25 26  1  0
  7 27  2  0
 27 28  1  0
 28 29  2  0
 29 30  1  0
 30 31  2  0
 30  3  1  0
 29  5  1  0
 20 14  1  0
 25 21  1  0
M  END
>  <fragmenstein_outcome>  (153) 
nan

>  <exports>  (153) 
['/opt/xchem-fragalysis-2/maxwin/openbind-hippo/xx01zvns2b/cycle_01/syndirella/elabs/openbind_xx01zvns2b_c1_elab_chemspace_filtered.sdf']

>  <Energy>  (153) 
nan

>  <alias>  (153) 
None

>  <fragmenstein_runtime>  (153) 
nan

>  <scratch_subdir>  (153) 
nan

>  <HIPPO Compound ID>  (153) 
139445

>  <rmsd(smina/fragmenstein)>  (153) 
1.979

>  <distance_score>  (153) 
1.377134

>  <orig_smiles>  (153) 
nan

>  <fragmenstein_mode>  (153) 
nan

>  <inchikey>  (153) 
QLIBBAWNBLYREH-JAIQZWGSSA-N

>  <ref_pdb>  (153) 
Z0788a

>  <GNINA pK>  (153) 
nan

>  <gnina_score_min>  (153) 
5.621

>  <tags>  (153) 
openbind_xx01zvns2b_c1_elab_nonasap_filtered_scored_top80percent,openbind_xx01zvns2b_c1_elab_chemspace_filtered_scored_top80percent,openbind_xx01zvns2b_c1_elab_chemspace_filtered_scored,openbind_xx01zvns2b_c1_elab_chemspace_filtered_scored_top40percent,openbind_xx01zvns2b_c1_elab_chemspace_filtered_scored_top20percent,openbind_xx01zvns2b_c1_elab_chemspace_filtered_scored_top60percent,openbind_xx01zvns2b_c1_elabs_filtered

>  <smiles>  (153) 
CCN1Cc2cc(CNC(=O)/C(=C/c3cccc(F)c3)n3nnnc3C)ccc2C1=O

>  <subsites>  (153) 
1 - Z4590/B/203/1

>  <gnina_score>  (153) 
5.612

>  <HIPPO Pose ID>  (153) 
69984

>  <ref_mols>  (153) 
Z0969a,Z0788a

>  <energy_score>  (153) 
-27.453527

>  <inspiration_score>  (153) 
None

>  <smina_score_min>  (153) 
-6.518

>  <fragmenstein_error>  (153) 
nan

>  <name>  (153) 
P69984

$$$$
P69986
     RDKit          3D

 31 34  0  0  0  0  0  0  0  0999 V2000
   -2.9738    5.4591  -16.3793 C   0  0  0  0  0  0  0  0  0  0  0  0
   -3.9859    6.4412  -16.8240 C   0  0  0  0  0  0  0  0  0  0  0  0
   -3.8127    7.3111  -17.7997 N   0  0  0  0  0  0  0  0  0  0  0  0
   -5.0394    7.8164  -18.0837 N   0  0  0  0  0  0  0  0  0  0  0  0
   -5.9623    7.2698  -17.3135 N   0  0  0  0  0  0  0  0  0  0  0  0
   -5.3215    6.4753  -16.3939 N   0  0  0  0  0  0  0  0  0  0  0  0
   -5.9380    5.7476  -15.3433 C   0  0  0  0  0  0  0  0  0  0  0  0
   -6.9804    4.9062  -15.5342 C   0  0  0  0  0  0  0  0  0  0  0  0
   -7.6556    4.6124  -16.7907 C   0  0  0  0  0  0  0  0  0  0  0  0
   -6.9507    4.4266  -17.9816 C   0  0  0  0  0  0  0  0  0  0  0  0
   -7.6360    4.2612  -19.1700 C   0  0  0  0  0  0  0  0  0  0  0  0
   -9.0234    4.2384  -19.1654 C   0  0  0  0  0  0  0  0  0  0  0  0
   -9.7207    4.3055  -17.9737 C   0  0  0  0  0  0  0  0  0  0  0  0
  -11.0541    4.2025  -17.9771 F   0  0  0  0  0  0  0  0  0  0  0  0
   -9.0449    4.4855  -16.7801 C   0  0  0  0  0  0  0  0  0  0  0  0
   -5.3777    5.8026  -13.9263 C   0  0  0  0  0  0  0  0  0  0  0  0
   -4.2333    5.6406  -13.7525 O   0  0  0  0  0  0  0  0  0  0  0  0
   -6.5172    6.1311  -12.9119 N   0  0  0  0  0  0  0  0  0  0  0  0
   -6.4889    6.2330  -11.4489 C   0  0  0  0  0  0  0  0  0  0  0  0
   -7.3258    5.2193  -10.6708 C   0  0  0  0  0  0  0  0  0  0  0  0
   -7.9086    4.1171  -11.3271 C   0  0  0  0  0  0  0  0  0  0  0  0
   -8.5763    3.1087  -10.6304 C   0  0  0  0  0  0  0  0  0  0  0  0
   -8.6496    3.2095   -9.2630 C   0  0  0  0  0  0  0  0  0  0  0  0
   -8.1408    4.2998   -8.5953 C   0  0  0  0  0  0  0  0  0  0  0  0
   -7.4737    5.3155   -9.2644 C   0  0  0  0  0  0  0  0  0  0  0  0
   -8.4865    4.1372   -7.1837 C   0  0  0  0  0  0  0  0  0  0  0  0
   -8.2964    4.9983   -6.3430 O   0  0  0  0  0  0  0  0  0  0  0  0
   -9.1095    2.9308   -7.0686 N   0  0  0  0  0  0  0  0  0  0  0  0
   -9.7624    2.4658   -5.8717 C   0  0  0  0  0  0  0  0  0  0  0  0
   -9.2501    2.3169   -8.2771 C   0  0  0  0  0  0  0  0  0  0  0  0
   -9.7984    1.2615   -8.5138 O   0  0  0  0  0  0  0  0  0  0  0  0
  1  2  1  0
  2  3  2  0
  3  4  1  0
  4  5  2  0
  5  6  1  0
  6  7  1  0
  7  8  2  0
  8  9  1  0
  9 10  2  0
 10 11  1  0
 11 12  2  0
 12 13  1  0
 13 14  1  0
 13 15  2  0
  7 16  1  0
 16 17  2  0
 16 18  1  0
 18 19  1  0
 19 20  1  0
 20 21  2  0
 21 22  1  0
 22 23  2  0
 23 24  1  0
 24 25  2  0
 24 26  1  0
 26 27  2  0
 26 28  1  0
 28 29  1  0
 28 30  1  0
 30 31  2  0
  6  2  1  0
 15  9  1  0
 25 20  1  0
 30 23  1  0
M  END
>  <fragmenstein_outcome>  (154) 
nan

>  <exports>  (154) 
['/opt/xchem-fragalysis-2/maxwin/openbind-hippo/xx01zvns2b/cycle_01/syndirella/elabs/openbind_xx01zvns2b_c1_elab_chemspace_filtered.sdf']

>  <Energy>  (154) 
nan

>  <alias>  (154) 
None

>  <fragmenstein_runtime>  (154) 
nan

>  <scratch_subdir>  (154) 
nan

>  <HIPPO Compound ID>  (154) 
139446

>  <rmsd(smina/fragmenstein)>  (154) 
1.42

>  <distance_score>  (154) 
1.999669

>  <orig_smiles>  (154) 
nan

>  <fragmenstein_mode>  (154) 
nan

>  <inchikey>  (154) 
POINTZJHQLHNOV-ZDLGFXPLSA-N

>  <ref_pdb>  (154) 
Z0788a

>  <GNINA pK>  (154) 
nan

>  <gnina_score_min>  (154) 
5.55

>  <tags>  (154) 
openbind_xx01zvns2b_c1_elab_nonasap_filtered_scored_top80percent,openbind_xx01zvns2b_c1_elab_chemspace_filtered_scored_top80percent,openbind_xx01zvns2b_c1_elab_chemspace_filtered_scored,openbind_xx01zvns2b_c1_elab_chemspace_filtered_scored_top40percent,openbind_xx01zvns2b_c1_elab_chemspace_filtered_scored_top20percent,openbind_xx01zvns2b_c1_elab_chemspace_filtered_scored_top60percent,openbind_xx01zvns2b_c1_elabs_filtered

>  <smiles>  (154) 
Cc1nnnn1/C(=C\c1cccc(F)c1)C(=O)NCc1ccc2c(c1)C(=O)N(C)C2=O

>  <subsites>  (154) 
1 - Z4590/B/203/1

>  <gnina_score>  (154) 
5.769

>  <HIPPO Pose ID>  (154) 
69986

>  <ref_mols>  (154) 
Z0788a,Z0969a

>  <energy_score>  (154) 
-22.903359

>  <inspiration_score>  (154) 
None

>  <smina_score_min>  (154) 
-7.512

>  <fragmenstein_error>  (154) 
nan

>  <name>  (154) 
P69986

$$$$
P69987
     RDKit          3D

 31 34  0  0  0  0  0  0  0  0999 V2000
   -5.6071    4.7995  -20.4693 C   0  0  0  0  0  0  0  0  0  0  0  0
   -6.7485    3.9614  -20.3001 O   0  0  0  0  0  0  0  0  0  0  0  0
   -7.4565    4.2102  -19.1518 C   0  0  0  0  0  0  0  0  0  0  0  0
   -8.8431    4.1437  -19.2339 C   0  0  0  0  0  0  0  0  0  0  0  0
   -9.6439    4.3236  -18.1141 C   0  0  0  0  0  0  0  0  0  0  0  0
   -9.0421    4.6380  -16.9088 C   0  0  0  0  0  0  0  0  0  0  0  0
   -7.6522    4.7937  -16.8223 C   0  0  0  0  0  0  0  0  0  0  0  0
   -7.1267    5.3807  -15.5498 C   0  0  0  0  0  0  0  0  0  0  0  0
   -5.6419    5.7588  -15.3771 C   0  0  2  0  0  0  0  0  0  0  0  0
   -5.3854    6.5975  -14.0681 C   0  0  0  0  0  0  0  0  0  0  0  0
   -4.7871    7.6024  -14.1378 O   0  0  0  0  0  0  0  0  0  0  0  0
   -6.0282    5.8847  -12.8310 N   0  0  0  0  0  0  0  0  0  0  0  0
   -5.9789    6.2211  -11.4193 C   0  0  0  0  0  0  0  0  0  0  0  0
   -6.8008    5.3544  -10.4878 C   0  0  0  0  0  0  0  0  0  0  0  0
   -7.7835    5.9248   -9.6475 C   0  0  0  0  0  0  0  0  0  0  0  0
   -8.4756    5.1396   -8.7162 C   0  0  0  0  0  0  0  0  0  0  0  0
   -8.2141    3.7871   -8.6716 C   0  0  0  0  0  0  0  0  0  0  0  0
   -7.2317    3.2379   -9.4516 C   0  0  0  0  0  0  0  0  0  0  0  0
   -6.5100    3.9857  -10.3567 C   0  0  0  0  0  0  0  0  0  0  0  0
   -7.0910    1.8358   -9.0850 C   0  0  0  0  0  0  0  0  0  0  0  0
   -6.1914    1.1278   -9.5061 O   0  0  0  0  0  0  0  0  0  0  0  0
   -8.0816    1.5776   -8.1930 N   0  0  0  0  0  0  0  0  0  0  0  0
   -8.7595    2.7079   -7.8516 C   0  0  0  0  0  0  0  0  0  0  0  0
   -9.6261    2.8590   -7.0145 O   0  0  0  0  0  0  0  0  0  0  0  0
   -5.0885    6.4881  -16.5293 N   0  0  0  0  0  0  0  0  0  0  0  0
   -5.7662    7.4735  -17.1513 N   0  0  0  0  0  0  0  0  0  0  0  0
   -4.9966    7.8697  -18.1528 N   0  0  0  0  0  0  0  0  0  0  0  0
   -3.8425    7.1359  -18.2005 N   0  0  0  0  0  0  0  0  0  0  0  0
   -3.9087    6.2755  -17.2050 C   0  0  0  0  0  0  0  0  0  0  0  0
   -2.9243    5.2276  -16.8823 C   0  0  0  0  0  0  0  0  0  0  0  0
   -6.8643    4.4783  -17.9286 C   0  0  0  0  0  0  0  0  0  0  0  0
  1  2  1  0
  2  3  1  0
  3  4  2  0
  4  5  1  0
  5  6  2  0
  6  7  1  0
  7  8  1  0
  9  8  1  6
  9 10  1  0
 10 11  2  0
 10 12  1  0
 12 13  1  0
 13 14  1  0
 14 15  2  0
 15 16  1  0
 16 17  2  0
 17 18  1  0
 18 19  2  0
 18 20  1  0
 20 21  2  0
 20 22  1  0
 22 23  1  0
 23 24  2  0
  9 25  1  0
 25 26  1  0
 26 27  2  0
 27 28  1  0
 28 29  2  0
 29 30  1  0
  7 31  2  0
 31  3  1  0
 19 14  1  0
 29 25  1  0
 23 17  1  0
M  END
>  <fragmenstein_outcome>  (155) 
nan

>  <exports>  (155) 
['/opt/xchem-fragalysis-2/maxwin/openbind-hippo/xx01zvns2b/cycle_01/syndirella/elabs/openbind_xx01zvns2b_c1_elab_chemspace_filtered.sdf']

>  <Energy>  (155) 
nan

>  <alias>  (155) 
None

>  <fragmenstein_runtime>  (155) 
nan

>  <scratch_subdir>  (155) 
nan

>  <HIPPO Compound ID>  (155) 
139449

>  <rmsd(smina/fragmenstein)>  (155) 
1.352

>  <distance_score>  (155) 
1.974766

>  <orig_smiles>  (155) 
nan

>  <fragmenstein_mode>  (155) 
nan

>  <inchikey>  (155) 
GPEOFDJSJCUJRW-GOSISDBHSA-N

>  <ref_pdb>  (155) 
Z0788a

>  <GNINA pK>  (155) 
nan

>  <gnina_score_min>  (155) 
5.5

>  <tags>  (155) 
openbind_xx01zvns2b_c1_elab_nonasap_filtered_scored_top80percent,openbind_xx01zvns2b_c1_elab_chemspace_filtered_scored_top80percent,openbind_xx01zvns2b_c1_elab_chemspace_filtered_scored,openbind_xx01zvns2b_c1_elab_chemspace_filtered_scored_top40percent,openbind_xx01zvns2b_c1_elab_chemspace_filtered_scored_top20percent,openbind_xx01zvns2b_c1_elab_chemspace_filtered_scored_top60percent,openbind_xx01zvns2b_c1_elabs_filtered

>  <smiles>  (155) 
COc1cccc(C[C@H](C(=O)NCc2ccc3c(c2)C(=O)NC3=O)n2nnnc2C)c1

>  <subsites>  (155) 
1 - Z4590/B/203/1

>  <gnina_score>  (155) 
5.729

>  <HIPPO Pose ID>  (155) 
69987

>  <ref_mols>  (155) 
Z0969a,Z0788a

>  <energy_score>  (155) 
-14.489913

>  <inspiration_score>  (155) 
None

>  <smina_score_min>  (155) 
-6.336

>  <fragmenstein_error>  (155) 
nan

>  <name>  (155) 
P69987

$$$$
P69988
     RDKit          3D

 21 23  0  0  0  0  0  0  0  0999 V2000
   -4.4523    3.9617  -14.1355 C   0  0  0  0  0  0  0  0  0  0  0  0
   -4.9680    4.6034  -15.4098 C   0  0  0  0  0  0  0  0  0  0  0  0
   -4.0247    4.9064  -16.3956 C   0  0  0  0  0  0  0  0  0  0  0  0
   -4.4718    5.1583  -17.6717 C   0  0  0  0  0  0  0  0  0  0  0  0
   -5.7613    5.0608  -18.0263 N   0  0  0  0  0  0  0  0  0  0  0  0
   -6.6924    4.8024  -17.0813 C   0  0  0  0  0  0  0  0  0  0  0  0
   -8.0200    4.5348  -17.4441 C   0  0  0  0  0  0  0  0  0  0  0  0
   -8.4684    4.2259  -19.0695 Cl  0  0  0  0  0  0  0  0  0  0  0  0
   -9.0388    4.3773  -16.5173 C   0  0  0  0  0  0  0  0  0  0  0  0
   -8.7378    4.4896  -15.1816 C   0  0  0  0  0  0  0  0  0  0  0  0
   -7.4243    4.7022  -14.7736 C   0  0  0  0  0  0  0  0  0  0  0  0
   -7.3195    4.9882  -13.4182 N   0  0  0  0  0  0  0  0  0  0  0  0
   -6.3939    5.9737  -12.6683 C   0  0  0  0  0  0  0  0  0  0  0  0
   -5.5221    6.6427  -13.0633 O   0  0  0  0  0  0  0  0  0  0  0  0
   -6.8569    6.0384  -11.2896 C   0  0  0  0  0  0  0  0  0  0  0  0
   -7.1282    7.5850  -10.5921 S   0  0  0  0  0  0  0  0  0  0  0  0
   -7.7941    6.8960   -9.1765 C   0  0  0  0  0  0  0  0  0  0  0  0
   -7.7787    5.5195   -9.2186 C   0  0  0  0  0  0  0  0  0  0  0  0
   -7.1928    5.0351  -10.4089 C   0  0  0  0  0  0  0  0  0  0  0  0
   -6.8975    2.9880  -10.6822 I   0  0  0  0  0  0  0  0  0  0  0  0
   -6.3576    4.7390  -15.7084 C   0  0  0  0  0  0  0  0  0  0  0  0
  1  2  1  0
  2  3  2  0
  3  4  1  0
  4  5  2  0
  5  6  1  0
  6  7  2  0
  7  8  1  0
  7  9  1  0
  9 10  2  0
 10 11  1  0
 11 12  1  0
 12 13  1  0
 13 14  2  0
 13 15  1  0
 15 16  1  0
 16 17  1  0
 17 18  2  0
 18 19  1  0
 19 20  1  0
 11 21  2  0
 21  2  1  0
 21  6  1  0
 19 15  2  0
M  END
>  <fragmenstein_outcome>  (156) 
nan

>  <exports>  (156) 
['/opt/xchem-fragalysis-2/maxwin/openbind-hippo/xx01zvns2b/cycle_01/syndirella/elabs/openbind_xx01zvns2b_c1_elab_chemspace_filtered.sdf']

>  <Energy>  (156) 
nan

>  <alias>  (156) 
None

>  <fragmenstein_runtime>  (156) 
nan

>  <scratch_subdir>  (156) 
nan

>  <HIPPO Compound ID>  (156) 
139764

>  <rmsd(smina/fragmenstein)>  (156) 
0.88

>  <distance_score>  (156) 
1.605817

>  <orig_smiles>  (156) 
nan

>  <fragmenstein_mode>  (156) 
nan

>  <inchikey>  (156) 
KUZPYXMRYAAWIV-UHFFFAOYSA-N

>  <ref_pdb>  (156) 
Z0719a

>  <GNINA pK>  (156) 
nan

>  <gnina_score_min>  (156) 
5.321

>  <tags>  (156) 
openbind_xx01zvns2b_c1_elab_nonasap_filtered_scored_top80percent,openbind_xx01zvns2b_c1_elab_chemspace_filtered_scored_top80percent,openbind_xx01zvns2b_c1_elab_chemspace_filtered_scored,openbind_xx01zvns2b_c1_elab_chemspace_filtered_scored_top40percent,openbind_xx01zvns2b_c1_elab_chemspace_filtered_scored_top20percent,openbind_xx01zvns2b_c1_elab_chemspace_filtered_scored_top60percent,openbind_xx01zvns2b_c1_elabs_filtered

>  <smiles>  (156) 
Cc1ccnc2c(Cl)ccc(NC(=O)c3sccc3I)c12

>  <subsites>  (156) 
1 - Z4590/B/203/1

>  <gnina_score>  (156) 
5.432

>  <HIPPO Pose ID>  (156) 
69988

>  <ref_mols>  (156) 
Z1688a,Z0719a

>  <energy_score>  (156) 
-16.796143

>  <inspiration_score>  (156) 
None

>  <smina_score_min>  (156) 
-5.243

>  <fragmenstein_error>  (156) 
nan

>  <name>  (156) 
P69988

$$$$
P69990
     RDKit          3D

 21 23  0  0  0  0  0  0  0  0999 V2000
   -4.6808    3.9394  -14.1380 C   0  0  0  0  0  0  0  0  0  0  0  0
   -5.1176    4.6073  -15.4226 C   0  0  0  0  0  0  0  0  0  0  0  0
   -4.1303    4.9019  -16.3664 C   0  0  0  0  0  0  0  0  0  0  0  0
   -4.5235    5.1554  -17.6595 C   0  0  0  0  0  0  0  0  0  0  0  0
   -5.7986    5.0589  -18.0642 N   0  0  0  0  0  0  0  0  0  0  0  0
   -6.7675    4.8112  -17.1537 C   0  0  0  0  0  0  0  0  0  0  0  0
   -8.0794    4.5263  -17.5532 C   0  0  0  0  0  0  0  0  0  0  0  0
   -8.4617    4.1613  -19.1795 Cl  0  0  0  0  0  0  0  0  0  0  0  0
   -9.1268    4.3728  -16.6580 C   0  0  0  0  0  0  0  0  0  0  0  0
   -8.8689    4.5024  -15.3155 C   0  0  0  0  0  0  0  0  0  0  0  0
   -7.5765    4.7347  -14.8693 C   0  0  0  0  0  0  0  0  0  0  0  0
   -7.5048    5.0149  -13.5106 N   0  0  0  0  0  0  0  0  0  0  0  0
   -6.5908    5.9894  -12.7332 C   0  0  0  0  0  0  0  0  0  0  0  0
   -5.7033    6.6521  -13.1028 O   0  0  0  0  0  0  0  0  0  0  0  0
   -7.0385    6.0197  -11.3423 C   0  0  0  0  0  0  0  0  0  0  0  0
   -6.9500    7.5078  -10.4820 S   0  0  0  0  0  0  0  0  0  0  0  0
   -7.6701    6.8230   -9.0917 C   0  0  0  0  0  0  0  0  0  0  0  0
   -7.9568    5.4880   -9.2669 C   0  0  0  0  0  0  0  0  0  0  0  0
   -7.5681    5.0290  -10.5433 C   0  0  0  0  0  0  0  0  0  0  0  0
   -7.8006    3.1983  -10.9623 Br  0  0  0  0  0  0  0  0  0  0  0  0
   -6.4866    4.7617  -15.7721 C   0  0  0  0  0  0  0  0  0  0  0  0
  1  2  1  0
  2  3  2  0
  3  4  1  0
  4  5  2  0
  5  6  1  0
  6  7  2  0
  7  8  1  0
  7  9  1  0
  9 10  2  0
 10 11  1  0
 11 12  1  0
 12 13  1  0
 13 14  2  0
 13 15  1  0
 15 16  1  0
 16 17  1  0
 17 18  2  0
 18 19  1  0
 19 20  1  0
 11 21  2  0
 21  2  1  0
 21  6  1  0
 19 15  2  0
M  END
>  <fragmenstein_outcome>  (157) 
nan

>  <exports>  (157) 
['/opt/xchem-fragalysis-2/maxwin/openbind-hippo/xx01zvns2b/cycle_01/syndirella/elabs/openbind_xx01zvns2b_c1_elab_chemspace_filtered.sdf']

>  <Energy>  (157) 
nan

>  <alias>  (157) 
None

>  <fragmenstein_runtime>  (157) 
nan

>  <scratch_subdir>  (157) 
nan

>  <HIPPO Compound ID>  (157) 
139768

>  <rmsd(smina/fragmenstein)>  (157) 
0.981

>  <distance_score>  (157) 
1.280301

>  <orig_smiles>  (157) 
nan

>  <fragmenstein_mode>  (157) 
nan

>  <inchikey>  (157) 
HQLJFFQWTBWSHZ-UHFFFAOYSA-N

>  <ref_pdb>  (157) 
Z0719a

>  <GNINA pK>  (157) 
nan

>  <gnina_score_min>  (157) 
5.229

>  <tags>  (157) 
openbind_xx01zvns2b_c1_elab_nonasap_filtered_scored_top80percent,openbind_xx01zvns2b_c1_elab_chemspace_filtered_scored_top80percent,openbind_xx01zvns2b_c1_elab_chemspace_filtered_scored,openbind_xx01zvns2b_c1_elab_chemspace_filtered_scored_top40percent,openbind_xx01zvns2b_c1_elab_chemspace_filtered_scored_top20percent,openbind_xx01zvns2b_c1_elab_chemspace_filtered_scored_top60percent,openbind_xx01zvns2b_c1_elabs_filtered

>  <smiles>  (157) 
Cc1ccnc2c(Cl)ccc(NC(=O)c3sccc3Br)c12

>  <subsites>  (157) 
1 - Z4590/B/203/1

>  <gnina_score>  (157) 
5.403

>  <HIPPO Pose ID>  (157) 
69990

>  <ref_mols>  (157) 
Z1688a,Z0719a

>  <energy_score>  (157) 
-17.486817

>  <inspiration_score>  (157) 
None

>  <smina_score_min>  (157) 
-5.412

>  <fragmenstein_error>  (157) 
nan

>  <name>  (157) 
P69990

$$$$
P69991
     RDKit          3D

 21 23  0  0  0  0  0  0  0  0999 V2000
   -4.6769    3.9608  -14.1368 C   0  0  0  0  0  0  0  0  0  0  0  0
   -5.1178    4.6134  -15.4274 C   0  0  0  0  0  0  0  0  0  0  0  0
   -4.1318    4.9181  -16.3695 C   0  0  0  0  0  0  0  0  0  0  0  0
   -4.5252    5.1717  -17.6626 C   0  0  0  0  0  0  0  0  0  0  0  0
   -5.7993    5.0715  -18.0694 N   0  0  0  0  0  0  0  0  0  0  0  0
   -6.7674    4.8104  -17.1618 C   0  0  0  0  0  0  0  0  0  0  0  0
   -8.0776    4.5212  -17.5645 C   0  0  0  0  0  0  0  0  0  0  0  0
   -8.4557    4.1601  -19.1921 Cl  0  0  0  0  0  0  0  0  0  0  0  0
   -9.1267    4.3595  -16.6726 C   0  0  0  0  0  0  0  0  0  0  0  0
   -8.8700    4.4749  -15.3290 C   0  0  0  0  0  0  0  0  0  0  0  0
   -7.5778    4.7015  -14.8798 C   0  0  0  0  0  0  0  0  0  0  0  0
   -7.5056    4.9582  -13.5179 N   0  0  0  0  0  0  0  0  0  0  0  0
   -6.6409    5.9730  -12.7300 C   0  0  0  0  0  0  0  0  0  0  0  0
   -5.7998    6.6961  -13.0968 O   0  0  0  0  0  0  0  0  0  0  0  0
   -7.0556    5.9478  -11.3276 C   0  0  0  0  0  0  0  0  0  0  0  0
   -6.6027    7.2202  -10.2640 S   0  0  0  0  0  0  0  0  0  0  0  0
   -7.4308    6.5013   -8.9462 C   0  0  0  0  0  0  0  0  0  0  0  0
   -8.0434    5.3215   -9.3059 C   0  0  0  0  0  0  0  0  0  0  0  0
   -7.8171    5.0209  -10.6578 C   0  0  0  0  0  0  0  0  0  0  0  0
   -8.3241    3.9201  -11.2313 F   0  0  0  0  0  0  0  0  0  0  0  0
   -6.4874    4.7525  -15.7804 C   0  0  0  0  0  0  0  0  0  0  0  0
  1  2  1  0
  2  3  2  0
  3  4  1  0
  4  5  2  0
  5  6  1  0
  6  7  2  0
  7  8  1  0
  7  9  1  0
  9 10  2  0
 10 11  1  0
 11 12  1  0
 12 13  1  0
 13 14  2  0
 13 15  1  0
 15 16  1  0
 16 17  1  0
 17 18  2  0
 18 19  1  0
 19 20  1  0
 11 21  2  0
 21  2  1  0
 21  6  1  0
 19 15  2  0
M  END
>  <fragmenstein_outcome>  (158) 
nan

>  <exports>  (158) 
['/opt/xchem-fragalysis-2/maxwin/openbind-hippo/xx01zvns2b/cycle_01/syndirella/elabs/openbind_xx01zvns2b_c1_elab_chemspace_filtered.sdf']

>  <Energy>  (158) 
nan

>  <alias>  (158) 
None

>  <fragmenstein_runtime>  (158) 
nan

>  <scratch_subdir>  (158) 
nan

>  <HIPPO Compound ID>  (158) 
139774

>  <rmsd(smina/fragmenstein)>  (158) 
0.867

>  <distance_score>  (158) 
1.406216

>  <orig_smiles>  (158) 
nan

>  <fragmenstein_mode>  (158) 
nan

>  <inchikey>  (158) 
ZYJWHQROLBIKLK-UHFFFAOYSA-N

>  <ref_pdb>  (158) 
Z0719a

>  <GNINA pK>  (158) 
nan

>  <gnina_score_min>  (158) 
5.158

>  <tags>  (158) 
openbind_xx01zvns2b_c1_elab_nonasap_filtered_scored_top80percent,openbind_xx01zvns2b_c1_elab_chemspace_filtered_scored_top80percent,openbind_xx01zvns2b_c1_elab_chemspace_filtered_scored,openbind_xx01zvns2b_c1_elab_chemspace_filtered_scored_top40percent,openbind_xx01zvns2b_c1_elab_chemspace_filtered_scored_top20percent,openbind_xx01zvns2b_c1_elab_chemspace_filtered_scored_top60percent,openbind_xx01zvns2b_c1_elabs_filtered

>  <smiles>  (158) 
Cc1ccnc2c(Cl)ccc(NC(=O)c3sccc3F)c12

>  <subsites>  (158) 
1 - Z4590/B/203/1

>  <gnina_score>  (158) 
5.301

>  <HIPPO Pose ID>  (158) 
69991

>  <ref_mols>  (158) 
Z0719a,Z1688a

>  <energy_score>  (158) 
-14.476387

>  <inspiration_score>  (158) 
None

>  <smina_score_min>  (158) 
-5.36

>  <fragmenstein_error>  (158) 
nan

>  <name>  (158) 
P69991

$$$$
P69993
     RDKit          3D

 21 23  0  0  0  0  0  0  0  0999 V2000
   -4.5100    3.9334  -14.0761 C   0  0  0  0  0  0  0  0  0  0  0  0
   -4.9955    4.5785  -15.3615 C   0  0  0  0  0  0  0  0  0  0  0  0
   -4.0268    4.8856  -16.3216 C   0  0  0  0  0  0  0  0  0  0  0  0
   -4.4398    5.1474  -17.6074 C   0  0  0  0  0  0  0  0  0  0  0  0
   -5.7197    5.0562  -17.9964 N   0  0  0  0  0  0  0  0  0  0  0  0
   -6.6755    4.7930  -17.0776 C   0  0  0  0  0  0  0  0  0  0  0  0
   -7.9938    4.5301  -17.4773 C   0  0  0  0  0  0  0  0  0  0  0  0
   -8.3934    4.2110  -19.1123 Cl  0  0  0  0  0  0  0  0  0  0  0  0
   -9.0398    4.3756  -16.5813 C   0  0  0  0  0  0  0  0  0  0  0  0
   -8.7720    4.4746  -15.2387 C   0  0  0  0  0  0  0  0  0  0  0  0
   -7.4687    4.6712  -14.7934 C   0  0  0  0  0  0  0  0  0  0  0  0
   -7.3976    4.9145  -13.4292 N   0  0  0  0  0  0  0  0  0  0  0  0
   -6.5012    5.8856  -12.6278 C   0  0  0  0  0  0  0  0  0  0  0  0
   -5.6290    6.5768  -12.9816 O   0  0  0  0  0  0  0  0  0  0  0  0
   -6.9644    5.8993  -11.2388 C   0  0  0  0  0  0  0  0  0  0  0  0
   -6.7937    7.3538  -10.3330 S   0  0  0  0  0  0  0  0  0  0  0  0
   -7.5684    6.6751   -8.9721 C   0  0  0  0  0  0  0  0  0  0  0  0
   -7.9400    5.3695   -9.1960 C   0  0  0  0  0  0  0  0  0  0  0  0
   -7.5728    4.9135  -10.4851 C   0  0  0  0  0  0  0  0  0  0  0  0
   -7.9045    3.2965  -10.9445 Cl  0  0  0  0  0  0  0  0  0  0  0  0
   -6.3767    4.7173  -15.6970 C   0  0  0  0  0  0  0  0  0  0  0  0
  1  2  1  0
  2  3  2  0
  3  4  1  0
  4  5  2  0
  5  6  1  0
  6  7  2  0
  7  8  1  0
  7  9  1  0
  9 10  2  0
 10 11  1  0
 11 12  1  0
 12 13  1  0
 13 14  2  0
 13 15  1  0
 15 16  1  0
 16 17  1  0
 17 18  2  0
 18 19  1  0
 19 20  1  0
 11 21  2  0
 21  2  1  0
 21  6  1  0
 19 15  2  0
M  END
>  <fragmenstein_outcome>  (159) 
nan

>  <exports>  (159) 
['/opt/xchem-fragalysis-2/maxwin/openbind-hippo/xx01zvns2b/cycle_01/syndirella/elabs/openbind_xx01zvns2b_c1_elab_chemspace_filtered.sdf']

>  <Energy>  (159) 
nan

>  <alias>  (159) 
None

>  <fragmenstein_runtime>  (159) 
nan

>  <scratch_subdir>  (159) 
nan

>  <HIPPO Compound ID>  (159) 
139782

>  <rmsd(smina/fragmenstein)>  (159) 
0.688

>  <distance_score>  (159) 
1.227637

>  <orig_smiles>  (159) 
nan

>  <fragmenstein_mode>  (159) 
nan

>  <inchikey>  (159) 
OQHAMWPQQVHZKV-UHFFFAOYSA-N

>  <ref_pdb>  (159) 
Z0719a

>  <GNINA pK>  (159) 
nan

>  <gnina_score_min>  (159) 
5.311

>  <tags>  (159) 
openbind_xx01zvns2b_c1_elab_nonasap_filtered_scored_top80percent,openbind_xx01zvns2b_c1_elab_chemspace_filtered_scored_top80percent,openbind_xx01zvns2b_c1_elab_chemspace_filtered_scored,openbind_xx01zvns2b_c1_elab_chemspace_filtered_scored_top40percent,openbind_xx01zvns2b_c1_elab_chemspace_filtered_scored_top20percent,openbind_xx01zvns2b_c1_elab_chemspace_filtered_scored_top60percent,openbind_xx01zvns2b_c1_elabs_filtered

>  <smiles>  (159) 
Cc1ccnc2c(Cl)ccc(NC(=O)c3sccc3Cl)c12

>  <subsites>  (159) 
1 - Z4590/B/203/1

>  <gnina_score>  (159) 
5.401

>  <HIPPO Pose ID>  (159) 
69993

>  <ref_mols>  (159) 
Z0719a,Z1688a

>  <energy_score>  (159) 
-25.142361

>  <inspiration_score>  (159) 
None

>  <smina_score_min>  (159) 
-5.333

>  <fragmenstein_error>  (159) 
nan

>  <name>  (159) 
P69993

$$$$
P69994
     RDKit          3D

 22 24  0  0  0  0  0  0  0  0999 V2000
   -4.3004    4.8711  -14.6965 C   0  0  0  0  0  0  0  0  0  0  0  0
   -5.0411    5.2733  -15.9432 C   0  0  0  0  0  0  0  0  0  0  0  0
   -4.2042    5.6464  -17.0040 C   0  0  0  0  0  0  0  0  0  0  0  0
   -4.7366    5.7115  -18.2619 C   0  0  0  0  0  0  0  0  0  0  0  0
   -6.0087    5.3962  -18.5160 N   0  0  0  0  0  0  0  0  0  0  0  0
   -6.8467    5.0758  -17.5081 C   0  0  0  0  0  0  0  0  0  0  0  0
   -8.1283    4.6076  -17.8256 C   0  0  0  0  0  0  0  0  0  0  0  0
   -8.5173    4.0563  -19.3901 Cl  0  0  0  0  0  0  0  0  0  0  0  0
   -9.1251    4.3918  -16.8965 C   0  0  0  0  0  0  0  0  0  0  0  0
   -8.8095    4.5579  -15.5819 C   0  0  0  0  0  0  0  0  0  0  0  0
   -7.5136    4.9137  -15.1987 C   0  0  0  0  0  0  0  0  0  0  0  0
   -7.4298    4.9132  -13.8223 N   0  0  0  0  0  0  0  0  0  0  0  0
   -6.5686    5.7619  -12.8733 C   0  0  0  0  0  0  0  0  0  0  0  0
   -5.8486    6.6501  -13.0975 O   0  0  0  0  0  0  0  0  0  0  0  0
   -6.7289    5.1761  -11.5528 C   0  0  0  0  0  0  0  0  0  0  0  0
   -6.9857    6.2075  -10.2153 S   0  0  0  0  0  0  0  0  0  0  0  0
   -7.2489    4.8673   -9.1887 C   0  0  0  0  0  0  0  0  0  0  0  0
   -7.0873    3.6633   -9.8421 C   0  0  0  0  0  0  0  0  0  0  0  0
   -6.7438    3.8292  -11.2089 C   0  0  0  0  0  0  0  0  0  0  0  0
   -6.5193    2.7360  -12.1341 C   0  0  0  0  0  0  0  0  0  0  0  0
   -6.4237    1.8932  -12.9280 N   0  0  0  0  0  0  0  0  0  0  0  0
   -6.4616    5.1329  -16.1486 C   0  0  0  0  0  0  0  0  0  0  0  0
  1  2  1  0
  2  3  2  0
  3  4  1  0
  4  5  2  0
  5  6  1  0
  6  7  2  0
  7  8  1  0
  7  9  1  0
  9 10  2  0
 10 11  1  0
 11 12  1  0
 12 13  1  0
 13 14  2  0
 13 15  1  0
 15 16  1  0
 16 17  1  0
 17 18  2  0
 18 19  1  0
 19 20  1  0
 20 21  3  0
 11 22  2  0
 22  2  1  0
 22  6  1  0
 19 15  2  0
M  END
>  <fragmenstein_outcome>  (160) 
nan

>  <exports>  (160) 
['/opt/xchem-fragalysis-2/maxwin/openbind-hippo/xx01zvns2b/cycle_01/syndirella/elabs/openbind_xx01zvns2b_c1_elab_chemspace_filtered.sdf']

>  <Energy>  (160) 
nan

>  <alias>  (160) 
None

>  <fragmenstein_runtime>  (160) 
nan

>  <scratch_subdir>  (160) 
nan

>  <HIPPO Compound ID>  (160) 
139785

>  <rmsd(smina/fragmenstein)>  (160) 
0.969

>  <distance_score>  (160) 
1.196485

>  <orig_smiles>  (160) 
nan

>  <fragmenstein_mode>  (160) 
nan

>  <inchikey>  (160) 
LYYXHRSLGXSNOJ-UHFFFAOYSA-N

>  <ref_pdb>  (160) 
Z0719a

>  <GNINA pK>  (160) 
nan

>  <gnina_score_min>  (160) 
5.555

>  <tags>  (160) 
openbind_xx01zvns2b_c1_elab_nonasap_filtered_scored_top80percent,openbind_xx01zvns2b_c1_elab_chemspace_filtered_scored_top80percent,openbind_xx01zvns2b_c1_elab_chemspace_filtered_scored,openbind_xx01zvns2b_c1_elab_chemspace_filtered_scored_top40percent,openbind_xx01zvns2b_c1_elab_chemspace_filtered_scored_top20percent,openbind_xx01zvns2b_c1_elab_chemspace_filtered_scored_top60percent,openbind_xx01zvns2b_c1_elabs_filtered

>  <smiles>  (160) 
Cc1ccnc2c(Cl)ccc(NC(=O)c3sccc3C#N)c12

>  <subsites>  (160) 
1 - Z4590/B/203/1

>  <gnina_score>  (160) 
5.388

>  <HIPPO Pose ID>  (160) 
69994

>  <ref_mols>  (160) 
Z1688a,Z0719a

>  <energy_score>  (160) 
-8.249351

>  <inspiration_score>  (160) 
None

>  <smina_score_min>  (160) 
-6.346

>  <fragmenstein_error>  (160) 
nan

>  <name>  (160) 
P69994

$$$$
P69995
     RDKit          3D

 22 24  0  0  0  0  0  0  0  0999 V2000
   -6.2240    2.7481  -13.3151 O   0  0  0  0  0  0  0  0  0  0  0  0
   -6.5084    2.7290  -12.1220 C   0  0  0  0  0  0  0  0  0  0  0  0
   -6.3857    3.8714  -11.2044 C   0  0  0  0  0  0  0  0  0  0  0  0
   -6.3633    3.6489   -9.7893 C   0  0  0  0  0  0  0  0  0  0  0  0
   -6.2422    4.7972   -9.0482 C   0  0  0  0  0  0  0  0  0  0  0  0
   -6.1329    6.1751  -10.0254 S   0  0  0  0  0  0  0  0  0  0  0  0
   -6.3775    5.2479  -11.4712 C   0  0  0  0  0  0  0  0  0  0  0  0
   -6.7431    6.0402  -12.6613 C   0  0  0  0  0  0  0  0  0  0  0  0
   -7.1534    7.1222  -12.5236 O   0  0  0  0  0  0  0  0  0  0  0  0
   -6.5889    5.1897  -13.9269 N   0  0  0  0  0  0  0  0  0  0  0  0
   -6.9780    5.4388  -15.2310 C   0  0  0  0  0  0  0  0  0  0  0  0
   -8.3537    5.4872  -15.4632 C   0  0  0  0  0  0  0  0  0  0  0  0
   -9.5516    6.1755  -14.1859 Br  0  0  0  0  0  0  0  0  0  0  0  0
   -8.8584    5.0212  -16.6585 C   0  0  0  0  0  0  0  0  0  0  0  0
   -7.9734    4.6967  -17.6789 C   0  0  0  0  0  0  0  0  0  0  0  0
   -8.6811    4.0683  -19.1049 Cl  0  0  0  0  0  0  0  0  0  0  0  0
   -6.5894    4.8740  -17.5574 C   0  0  0  0  0  0  0  0  0  0  0  0
   -5.7474    4.7373  -18.6021 N   0  0  0  0  0  0  0  0  0  0  0  0
   -4.4263    4.9237  -18.4219 C   0  0  0  0  0  0  0  0  0  0  0  0
   -3.8558    5.2077  -17.2009 C   0  0  0  0  0  0  0  0  0  0  0  0
   -4.7013    5.3281  -16.1111 C   0  0  0  0  0  0  0  0  0  0  0  0
   -6.0905    5.1958  -16.2821 C   0  0  0  0  0  0  0  0  0  0  0  0
  1  2  2  0
  2  3  1  0
  3  4  1  0
  4  5  2  0
  5  6  1  0
  6  7  1  0
  7  8  1  0
  8  9  2  0
  8 10  1  0
 10 11  1  0
 11 12  2  0
 12 13  1  0
 12 14  1  0
 14 15  2  0
 15 16  1  0
 15 17  1  0
 17 18  2  0
 18 19  1  0
 19 20  2  0
 20 21  1  0
 21 22  2  0
  7  3  2  0
 22 11  1  0
 22 17  1  0
M  END
>  <fragmenstein_outcome>  (161) 
nan

>  <exports>  (161) 
['/opt/xchem-fragalysis-2/maxwin/openbind-hippo/xx01zvns2b/cycle_01/syndirella/elabs/openbind_xx01zvns2b_c1_elab_chemspace_filtered.sdf']

>  <Energy>  (161) 
nan

>  <alias>  (161) 
None

>  <fragmenstein_runtime>  (161) 
nan

>  <scratch_subdir>  (161) 
nan

>  <HIPPO Compound ID>  (161) 
139831

>  <rmsd(smina/fragmenstein)>  (161) 
2.09

>  <distance_score>  (161) 
1.626987

>  <orig_smiles>  (161) 
nan

>  <fragmenstein_mode>  (161) 
nan

>  <inchikey>  (161) 
QDMDMDMPBPJRBP-UHFFFAOYSA-N

>  <ref_pdb>  (161) 
Z0719a

>  <GNINA pK>  (161) 
nan

>  <gnina_score_min>  (161) 
5.235

>  <tags>  (161) 
openbind_xx01zvns2b_c1_elab_nonasap_filtered_scored_top80percent,openbind_xx01zvns2b_c1_elab_chemspace_filtered_scored_top80percent,openbind_xx01zvns2b_c1_elab_chemspace_filtered_scored,openbind_xx01zvns2b_c1_elab_chemspace_filtered_scored_top40percent,openbind_xx01zvns2b_c1_elab_chemspace_filtered_scored_top20percent,openbind_xx01zvns2b_c1_elab_chemspace_filtered_scored_top60percent,openbind_xx01zvns2b_c1_elabs_filtered

>  <smiles>  (161) 
O=Cc1ccsc1C(=O)Nc1c(Br)cc(Cl)c2ncccc12

>  <subsites>  (161) 
1 - Z4590/B/203/1

>  <gnina_score>  (161) 
5.36

>  <HIPPO Pose ID>  (161) 
69995

>  <ref_mols>  (161) 
Z1688a,Z0719a

>  <energy_score>  (161) 
-5.301825

>  <inspiration_score>  (161) 
None

>  <smina_score_min>  (161) 
-6.418

>  <fragmenstein_error>  (161) 
nan

>  <name>  (161) 
P69995

$$$$
P69996
     RDKit          3D

 22 24  0  0  0  0  0  0  0  0999 V2000
   -4.2109    4.8450  -14.7302 C   0  0  0  0  0  0  0  0  0  0  0  0
   -4.9986    5.2119  -15.9584 C   0  0  0  0  0  0  0  0  0  0  0  0
   -4.2100    5.5927  -17.0530 C   0  0  0  0  0  0  0  0  0  0  0  0
   -4.7975    5.6717  -18.2864 C   0  0  0  0  0  0  0  0  0  0  0  0
   -6.0832    5.3728  -18.4887 N   0  0  0  0  0  0  0  0  0  0  0  0
   -6.8769    5.0439  -17.4487 C   0  0  0  0  0  0  0  0  0  0  0  0
   -8.1824    4.6107  -17.7156 C   0  0  0  0  0  0  0  0  0  0  0  0
   -8.6787    4.1339  -19.2778 Cl  0  0  0  0  0  0  0  0  0  0  0  0
   -9.1339    4.3921  -16.7405 C   0  0  0  0  0  0  0  0  0  0  0  0
   -8.7489    4.5094  -15.4379 C   0  0  0  0  0  0  0  0  0  0  0  0
   -7.4257    4.8158  -15.1117 C   0  0  0  0  0  0  0  0  0  0  0  0
   -7.2579    4.7420  -13.7449 N   0  0  0  0  0  0  0  0  0  0  0  0
   -6.4193    5.6041  -12.7962 C   0  0  0  0  0  0  0  0  0  0  0  0
   -5.7937    6.5648  -13.0026 O   0  0  0  0  0  0  0  0  0  0  0  0
   -6.5484    5.0267  -11.4576 C   0  0  0  0  0  0  0  0  0  0  0  0
   -6.7370    6.1498  -10.1625 S   0  0  0  0  0  0  0  0  0  0  0  0
   -6.9205    4.8977   -9.0261 C   0  0  0  0  0  0  0  0  0  0  0  0
   -6.8195    3.6578   -9.6124 C   0  0  0  0  0  0  0  0  0  0  0  0
   -6.5713    3.7002  -11.0231 C   0  0  0  0  0  0  0  0  0  0  0  0
   -6.3879    2.4690  -11.8125 C   0  0  0  0  0  0  0  0  0  0  0  0
   -6.4804    2.3680  -13.0309 O   0  0  0  0  0  0  0  0  0  0  0  0
   -6.4246    5.0655  -16.1063 C   0  0  0  0  0  0  0  0  0  0  0  0
  1  2  1  0
  2  3  2  0
  3  4  1  0
  4  5  2  0
  5  6  1  0
  6  7  2  0
  7  8  1  0
  7  9  1  0
  9 10  2  0
 10 11  1  0
 11 12  1  0
 12 13  1  0
 13 14  2  0
 13 15  1  0
 15 16  1  0
 16 17  1  0
 17 18  2  0
 18 19  1  0
 19 20  1  0
 20 21  2  0
 11 22  2  0
 22  2  1  0
 22  6  1  0
 19 15  2  0
M  END
>  <fragmenstein_outcome>  (162) 
nan

>  <exports>  (162) 
['/opt/xchem-fragalysis-2/maxwin/openbind-hippo/xx01zvns2b/cycle_01/syndirella/elabs/openbind_xx01zvns2b_c1_elab_chemspace_filtered.sdf']

>  <Energy>  (162) 
nan

>  <alias>  (162) 
None

>  <fragmenstein_runtime>  (162) 
nan

>  <scratch_subdir>  (162) 
nan

>  <HIPPO Compound ID>  (162) 
139832

>  <rmsd(smina/fragmenstein)>  (162) 
0.965

>  <distance_score>  (162) 
1.667752

>  <orig_smiles>  (162) 
nan

>  <fragmenstein_mode>  (162) 
nan

>  <inchikey>  (162) 
RIBHRPIBFVJYAF-UHFFFAOYSA-N

>  <ref_pdb>  (162) 
Z0719a

>  <GNINA pK>  (162) 
nan

>  <gnina_score_min>  (162) 
5.409

>  <tags>  (162) 
openbind_xx01zvns2b_c1_elab_nonasap_filtered_scored_top80percent,openbind_xx01zvns2b_c1_elab_chemspace_filtered_scored_top80percent,openbind_xx01zvns2b_c1_elab_chemspace_filtered_scored,openbind_xx01zvns2b_c1_elab_chemspace_filtered_scored_top40percent,openbind_xx01zvns2b_c1_elab_chemspace_filtered_scored_top20percent,openbind_xx01zvns2b_c1_elab_chemspace_filtered_scored_top60percent,openbind_xx01zvns2b_c1_elabs_filtered

>  <smiles>  (162) 
Cc1ccnc2c(Cl)ccc(NC(=O)c3sccc3C=O)c12

>  <subsites>  (162) 
1 - Z4590/B/203/1

>  <gnina_score>  (162) 
5.287

>  <HIPPO Pose ID>  (162) 
69996

>  <ref_mols>  (162) 
Z0719a,Z1688a

>  <energy_score>  (162) 
-31.12816

>  <inspiration_score>  (162) 
None

>  <smina_score_min>  (162) 
-6.031

>  <fragmenstein_error>  (162) 
nan

>  <name>  (162) 
P69996

$$$$
P69997
     RDKit          3D

 22 24  0  0  0  0  0  0  0  0999 V2000
   -4.1782    4.9412  -13.6555 O   0  0  0  0  0  0  0  0  0  0  0  0
   -5.2559    4.9776  -13.2140 C   0  0  0  0  0  0  0  0  0  0  0  0
   -6.6049    5.2635  -13.8967 N   0  0  0  0  0  0  0  0  0  0  0  0
   -6.9158    5.4647  -15.2403 C   0  0  0  0  0  0  0  0  0  0  0  0
   -8.3033    5.4356  -15.4350 C   0  0  0  0  0  0  0  0  0  0  0  0
   -9.4239    6.1050  -14.0652 Br  0  0  0  0  0  0  0  0  0  0  0  0
   -8.8429    4.9732  -16.6094 C   0  0  0  0  0  0  0  0  0  0  0  0
   -7.9760    4.6994  -17.6557 C   0  0  0  0  0  0  0  0  0  0  0  0
   -8.7035    4.0585  -19.0679 Cl  0  0  0  0  0  0  0  0  0  0  0  0
   -6.6033    4.9795  -17.5866 C   0  0  0  0  0  0  0  0  0  0  0  0
   -5.8209    4.8682  -18.6758 N   0  0  0  0  0  0  0  0  0  0  0  0
   -4.5242    5.2157  -18.6103 C   0  0  0  0  0  0  0  0  0  0  0  0
   -3.9286    5.6904  -17.4671 C   0  0  0  0  0  0  0  0  0  0  0  0
   -4.7125    5.7868  -16.3285 C   0  0  0  0  0  0  0  0  0  0  0  0
   -6.0648    5.4001  -16.3487 C   0  0  0  0  0  0  0  0  0  0  0  0
   -5.6392    4.6540  -11.8623 C   0  0  0  0  0  0  0  0  0  0  0  0
   -6.0890    5.8767  -10.7619 S   0  0  0  0  0  0  0  0  0  0  0  0
   -6.9147    4.7351   -9.7905 C   0  0  0  0  0  0  0  0  0  0  0  0
   -6.8224    3.4542  -10.2968 C   0  0  0  0  0  0  0  0  0  0  0  0
   -6.0432    3.3795  -11.4928 C   0  0  0  0  0  0  0  0  0  0  0  0
   -5.7844    2.1289  -12.2968 C   0  0  0  0  0  0  0  0  0  0  0  0
   -6.8503    1.7876  -13.1771 O   0  0  0  0  0  0  0  0  0  0  0  0
  1  2  2  0
  2  3  1  0
  3  4  1  0
  4  5  2  0
  5  6  1  0
  5  7  1  0
  7  8  2  0
  8  9  1  0
  8 10  1  0
 10 11  2  0
 11 12  1  0
 12 13  2  0
 13 14  1  0
 14 15  2  0
  2 16  1  0
 16 17  1  0
 17 18  1  0
 18 19  2  0
 19 20  1  0
 20 21  1  0
 21 22  1  0
 15  4  1  0
 20 16  2  0
 15 10  1  0
M  END
>  <fragmenstein_outcome>  (163) 
nan

>  <exports>  (163) 
['/opt/xchem-fragalysis-2/maxwin/openbind-hippo/xx01zvns2b/cycle_01/syndirella/elabs/openbind_xx01zvns2b_c1_elab_chemspace_filtered.sdf']

>  <Energy>  (163) 
nan

>  <alias>  (163) 
None

>  <fragmenstein_runtime>  (163) 
nan

>  <scratch_subdir>  (163) 
nan

>  <HIPPO Compound ID>  (163) 
139885

>  <rmsd(smina/fragmenstein)>  (163) 
1.242

>  <distance_score>  (163) 
1.574101

>  <orig_smiles>  (163) 
nan

>  <fragmenstein_mode>  (163) 
nan

>  <inchikey>  (163) 
PIOXIWZFSUZXDA-UHFFFAOYSA-N

>  <ref_pdb>  (163) 
Z0719a

>  <GNINA pK>  (163) 
nan

>  <gnina_score_min>  (163) 
5.228

>  <tags>  (163) 
openbind_xx01zvns2b_c1_elab_nonasap_filtered_scored_top80percent,openbind_xx01zvns2b_c1_elab_chemspace_filtered_scored_top80percent,openbind_xx01zvns2b_c1_elab_chemspace_filtered_scored,openbind_xx01zvns2b_c1_elab_chemspace_filtered_scored_top40percent,openbind_xx01zvns2b_c1_elab_chemspace_filtered_scored_top20percent,openbind_xx01zvns2b_c1_elab_chemspace_filtered_scored_top60percent,openbind_xx01zvns2b_c1_elabs_filtered

>  <smiles>  (163) 
O=C(Nc1c(Br)cc(Cl)c2ncccc12)c1sccc1CO

>  <subsites>  (163) 
1 - Z4590/B/203/1

>  <gnina_score>  (163) 
5.14

>  <HIPPO Pose ID>  (163) 
69997

>  <ref_mols>  (163) 
Z1688a,Z0719a

>  <energy_score>  (163) 
-0.630262

>  <inspiration_score>  (163) 
None

>  <smina_score_min>  (163) 
-6.37

>  <fragmenstein_error>  (163) 
nan

>  <name>  (163) 
P69997

$$$$
P69999
     RDKit          3D

 22 24  0  0  0  0  0  0  0  0999 V2000
   -4.1866    4.7719  -13.6669 O   0  0  0  0  0  0  0  0  0  0  0  0
   -5.2468    4.9293  -13.2089 C   0  0  0  0  0  0  0  0  0  0  0  0
   -6.5805    5.2939  -13.8827 N   0  0  0  0  0  0  0  0  0  0  0  0
   -6.9036    5.4440  -15.2296 C   0  0  0  0  0  0  0  0  0  0  0  0
   -8.2907    5.4074  -15.4241 C   0  0  0  0  0  0  0  0  0  0  0  0
   -9.4153    6.0785  -14.0583 Br  0  0  0  0  0  0  0  0  0  0  0  0
   -8.8294    4.9534  -16.6024 C   0  0  0  0  0  0  0  0  0  0  0  0
   -7.9616    4.6901  -17.6506 C   0  0  0  0  0  0  0  0  0  0  0  0
   -8.6883    4.0614  -19.0695 Cl  0  0  0  0  0  0  0  0  0  0  0  0
   -6.5891    4.9727  -17.5792 C   0  0  0  0  0  0  0  0  0  0  0  0
   -5.8054    4.8772  -18.6703 N   0  0  0  0  0  0  0  0  0  0  0  0
   -4.5088    5.2246  -18.5968 C   0  0  0  0  0  0  0  0  0  0  0  0
   -3.9138    5.6831  -17.4462 C   0  0  0  0  0  0  0  0  0  0  0  0
   -4.6991    5.7659  -16.3077 C   0  0  0  0  0  0  0  0  0  0  0  0
   -6.0523    5.3831  -16.3371 C   0  0  0  0  0  0  0  0  0  0  0  0
   -5.6090    4.7142  -11.8277 C   0  0  0  0  0  0  0  0  0  0  0  0
   -5.9656    6.0223  -10.7933 S   0  0  0  0  0  0  0  0  0  0  0  0
   -6.7677    4.9776   -9.7011 C   0  0  0  0  0  0  0  0  0  0  0  0
   -6.7425    3.6635  -10.1214 C   0  0  0  0  0  0  0  0  0  0  0  0
   -6.0402    3.4856  -11.3528 C   0  0  0  0  0  0  0  0  0  0  0  0
   -5.8948    2.1894  -12.1062 C   0  0  0  0  0  0  0  0  0  0  0  0
   -6.7315    2.1465  -13.1809 F   0  0  0  0  0  0  0  0  0  0  0  0
  1  2  2  0
  2  3  1  0
  3  4  1  0
  4  5  2  0
  5  6  1  0
  5  7  1  0
  7  8  2  0
  8  9  1  0
  8 10  1  0
 10 11  2  0
 11 12  1  0
 12 13  2  0
 13 14  1  0
 14 15  2  0
  2 16  1  0
 16 17  1  0
 17 18  1  0
 18 19  2  0
 19 20  1  0
 20 21  1  0
 21 22  1  0
 15  4  1  0
 20 16  2  0
 15 10  1  0
M  END
>  <fragmenstein_outcome>  (164) 
nan

>  <exports>  (164) 
['/opt/xchem-fragalysis-2/maxwin/openbind-hippo/xx01zvns2b/cycle_01/syndirella/elabs/openbind_xx01zvns2b_c1_elab_chemspace_filtered.sdf']

>  <Energy>  (164) 
nan

>  <alias>  (164) 
None

>  <fragmenstein_runtime>  (164) 
nan

>  <scratch_subdir>  (164) 
nan

>  <HIPPO Compound ID>  (164) 
139892

>  <rmsd(smina/fragmenstein)>  (164) 
1.374

>  <distance_score>  (164) 
1.646204

>  <orig_smiles>  (164) 
nan

>  <fragmenstein_mode>  (164) 
nan

>  <inchikey>  (164) 
SHPIYUWFJMRESE-UHFFFAOYSA-N

>  <ref_pdb>  (164) 
Z0719a

>  <GNINA pK>  (164) 
nan

>  <gnina_score_min>  (164) 
5.379

>  <tags>  (164) 
openbind_xx01zvns2b_c1_elab_nonasap_filtered_scored_top80percent,openbind_xx01zvns2b_c1_elab_chemspace_filtered_scored_top80percent,openbind_xx01zvns2b_c1_elab_chemspace_filtered_scored,openbind_xx01zvns2b_c1_elab_chemspace_filtered_scored_top40percent,openbind_xx01zvns2b_c1_elab_chemspace_filtered_scored_top20percent,openbind_xx01zvns2b_c1_elab_chemspace_filtered_scored_top60percent,openbind_xx01zvns2b_c1_elabs_filtered

>  <smiles>  (164) 
O=C(Nc1c(Br)cc(Cl)c2ncccc12)c1sccc1CF

>  <subsites>  (164) 
1 - Z4590/B/203/1

>  <gnina_score>  (164) 
5.409

>  <HIPPO Pose ID>  (164) 
69999

>  <ref_mols>  (164) 
Z1688a,Z0719a

>  <energy_score>  (164) 
-16.290774

>  <inspiration_score>  (164) 
None

>  <smina_score_min>  (164) 
-5.983

>  <fragmenstein_error>  (164) 
nan

>  <name>  (164) 
P69999

$$$$
P70000
     RDKit          3D

 22 24  0  0  0  0  0  0  0  0999 V2000
   -4.1374    5.0847  -14.8068 C   0  0  0  0  0  0  0  0  0  0  0  0
   -4.9751    5.3488  -16.0254 C   0  0  0  0  0  0  0  0  0  0  0  0
   -4.2312    5.7141  -17.1566 C   0  0  0  0  0  0  0  0  0  0  0  0
   -4.8550    5.7322  -18.3736 C   0  0  0  0  0  0  0  0  0  0  0  0
   -6.1373    5.3949  -18.5247 N   0  0  0  0  0  0  0  0  0  0  0  0
   -6.8915    5.0771  -17.4545 C   0  0  0  0  0  0  0  0  0  0  0  0
   -8.1959    4.6187  -17.6802 C   0  0  0  0  0  0  0  0  0  0  0  0
   -8.7469    4.1558  -19.2298 Cl  0  0  0  0  0  0  0  0  0  0  0  0
   -9.1080    4.3830  -16.6732 C   0  0  0  0  0  0  0  0  0  0  0  0
   -8.6855    4.5201  -15.3837 C   0  0  0  0  0  0  0  0  0  0  0  0
   -7.3629    4.8747  -15.0969 C   0  0  0  0  0  0  0  0  0  0  0  0
   -7.1742    4.8356  -13.7297 N   0  0  0  0  0  0  0  0  0  0  0  0
   -6.3420    5.7420  -12.8098 C   0  0  0  0  0  0  0  0  0  0  0  0
   -5.7432    6.7133  -13.0467 O   0  0  0  0  0  0  0  0  0  0  0  0
   -6.4283    5.1493  -11.4804 C   0  0  0  0  0  0  0  0  0  0  0  0
   -6.7570    6.1838  -10.1565 S   0  0  0  0  0  0  0  0  0  0  0  0
   -6.9476    4.8520   -9.1071 C   0  0  0  0  0  0  0  0  0  0  0  0
   -6.7234    3.6537   -9.7485 C   0  0  0  0  0  0  0  0  0  0  0  0
   -6.3523    3.8034  -11.1209 C   0  0  0  0  0  0  0  0  0  0  0  0
   -5.9710    2.6398  -12.0109 C   0  0  0  0  0  0  0  0  0  0  0  0
   -6.9537    2.3498  -12.9091 F   0  0  0  0  0  0  0  0  0  0  0  0
   -6.3992    5.1412  -16.1249 C   0  0  0  0  0  0  0  0  0  0  0  0
  1  2  1  0
  2  3  2  0
  3  4  1  0
  4  5  2  0
  5  6  1  0
  6  7  2  0
  7  8  1  0
  7  9  1  0
  9 10  2  0
 10 11  1  0
 11 12  1  0
 12 13  1  0
 13 14  2  0
 13 15  1  0
 15 16  1  0
 16 17  1  0
 17 18  2  0
 18 19  1  0
 19 20  1  0
 20 21  1  0
 11 22  2  0
 22  2  1  0
 22  6  1  0
 19 15  2  0
M  END
>  <fragmenstein_outcome>  (165) 
nan

>  <exports>  (165) 
['/opt/xchem-fragalysis-2/maxwin/openbind-hippo/xx01zvns2b/cycle_01/syndirella/elabs/openbind_xx01zvns2b_c1_elab_chemspace_filtered.sdf']

>  <Energy>  (165) 
nan

>  <alias>  (165) 
None

>  <fragmenstein_runtime>  (165) 
nan

>  <scratch_subdir>  (165) 
nan

>  <HIPPO Compound ID>  (165) 
139893

>  <rmsd(smina/fragmenstein)>  (165) 
1.35

>  <distance_score>  (165) 
1.509897

>  <orig_smiles>  (165) 
nan

>  <fragmenstein_mode>  (165) 
nan

>  <inchikey>  (165) 
JKZBANVMFXEREM-UHFFFAOYSA-N

>  <ref_pdb>  (165) 
Z0719a

>  <GNINA pK>  (165) 
nan

>  <gnina_score_min>  (165) 
5.152

>  <tags>  (165) 
openbind_xx01zvns2b_c1_elab_nonasap_filtered_scored_top80percent,openbind_xx01zvns2b_c1_elab_chemspace_filtered_scored_top80percent,openbind_xx01zvns2b_c1_elab_chemspace_filtered_scored,openbind_xx01zvns2b_c1_elab_chemspace_filtered_scored_top40percent,openbind_xx01zvns2b_c1_elab_chemspace_filtered_scored_top20percent,openbind_xx01zvns2b_c1_elab_chemspace_filtered_scored_top60percent,openbind_xx01zvns2b_c1_elabs_filtered

>  <smiles>  (165) 
Cc1ccnc2c(Cl)ccc(NC(=O)c3sccc3CF)c12

>  <subsites>  (165) 
1 - Z4590/B/203/1

>  <gnina_score>  (165) 
5.3

>  <HIPPO Pose ID>  (165) 
70000

>  <ref_mols>  (165) 
Z0719a,Z1688a

>  <energy_score>  (165) 
-26.867319

>  <inspiration_score>  (165) 
None

>  <smina_score_min>  (165) 
-5.917

>  <fragmenstein_error>  (165) 
nan

>  <name>  (165) 
P70000

$$$$
P70001
     RDKit          3D

 22 24  0  0  0  0  0  0  0  0999 V2000
   -4.0489    5.2267  -13.6662 O   0  0  0  0  0  0  0  0  0  0  0  0
   -5.1137    5.2522  -13.1925 C   0  0  0  0  0  0  0  0  0  0  0  0
   -6.4939    5.4441  -13.8478 N   0  0  0  0  0  0  0  0  0  0  0  0
   -6.8544    5.5468  -15.1952 C   0  0  0  0  0  0  0  0  0  0  0  0
   -8.2453    5.4519  -15.3575 C   0  0  0  0  0  0  0  0  0  0  0  0
   -9.3714    6.0831  -13.9745 Br  0  0  0  0  0  0  0  0  0  0  0  0
   -8.8003    4.9671  -16.5186 C   0  0  0  0  0  0  0  0  0  0  0  0
   -7.9554    4.7078  -17.5854 C   0  0  0  0  0  0  0  0  0  0  0  0
   -8.7084    4.0715  -18.9912 Cl  0  0  0  0  0  0  0  0  0  0  0  0
   -6.5882    5.0128  -17.5463 C   0  0  0  0  0  0  0  0  0  0  0  0
   -5.8308    4.8929  -18.6529 N   0  0  0  0  0  0  0  0  0  0  0  0
   -4.5415    5.2692  -18.6281 C   0  0  0  0  0  0  0  0  0  0  0  0
   -3.9314    5.7882  -17.5130 C   0  0  0  0  0  0  0  0  0  0  0  0
   -4.6907    5.8980  -16.3587 C   0  0  0  0  0  0  0  0  0  0  0  0
   -6.0318    5.4749  -16.3282 C   0  0  0  0  0  0  0  0  0  0  0  0
   -5.4099    4.9970  -11.8009 C   0  0  0  0  0  0  0  0  0  0  0  0
   -5.7739    6.2696  -10.7287 S   0  0  0  0  0  0  0  0  0  0  0  0
   -6.3489    5.1619   -9.5572 C   0  0  0  0  0  0  0  0  0  0  0  0
   -6.2919    3.8576  -10.0034 C   0  0  0  0  0  0  0  0  0  0  0  0
   -5.7074    3.7367  -11.3027 C   0  0  0  0  0  0  0  0  0  0  0  0
   -5.5117    2.4462  -12.0558 C   0  0  0  0  0  0  0  0  0  0  0  0
   -6.8382    2.1896  -13.1961 Cl  0  0  0  0  0  0  0  0  0  0  0  0
  1  2  2  0
  2  3  1  0
  3  4  1  0
  4  5  2  0
  5  6  1  0
  5  7  1  0
  7  8  2  0
  8  9  1  0
  8 10  1  0
 10 11  2  0
 11 12  1  0
 12 13  2  0
 13 14  1  0
 14 15  2  0
  2 16  1  0
 16 17  1  0
 17 18  1  0
 18 19  2  0
 19 20  1  0
 20 21  1  0
 21 22  1  0
 15  4  1  0
 20 16  2  0
 15 10  1  0
M  END
>  <fragmenstein_outcome>  (166) 
nan

>  <exports>  (166) 
['/opt/xchem-fragalysis-2/maxwin/openbind-hippo/xx01zvns2b/cycle_01/syndirella/elabs/openbind_xx01zvns2b_c1_elab_chemspace_filtered.sdf']

>  <Energy>  (166) 
nan

>  <alias>  (166) 
None

>  <fragmenstein_runtime>  (166) 
nan

>  <scratch_subdir>  (166) 
nan

>  <HIPPO Compound ID>  (166) 
139898

>  <rmsd(smina/fragmenstein)>  (166) 
1.291

>  <distance_score>  (166) 
1.719159

>  <orig_smiles>  (166) 
nan

>  <fragmenstein_mode>  (166) 
nan

>  <inchikey>  (166) 
OVZOZOFDEFRWHP-UHFFFAOYSA-N

>  <ref_pdb>  (166) 
Z0719a

>  <GNINA pK>  (166) 
nan

>  <gnina_score_min>  (166) 
5.453

>  <tags>  (166) 
openbind_xx01zvns2b_c1_elab_nonasap_filtered_scored_top80percent,openbind_xx01zvns2b_c1_elab_chemspace_filtered_scored_top80percent,openbind_xx01zvns2b_c1_elab_chemspace_filtered_scored,openbind_xx01zvns2b_c1_elab_chemspace_filtered_scored_top40percent,openbind_xx01zvns2b_c1_elab_chemspace_filtered_scored_top20percent,openbind_xx01zvns2b_c1_elab_chemspace_filtered_scored_top60percent,openbind_xx01zvns2b_c1_elabs_filtered

>  <smiles>  (166) 
O=C(Nc1c(Br)cc(Cl)c2ncccc12)c1sccc1CCl

>  <subsites>  (166) 
1 - Z4590/B/203/1

>  <gnina_score>  (166) 
5.543

>  <HIPPO Pose ID>  (166) 
70001

>  <ref_mols>  (166) 
Z1688a,Z0719a

>  <energy_score>  (166) 
-27.226098

>  <inspiration_score>  (166) 
None

>  <smina_score_min>  (166) 
-5.884

>  <fragmenstein_error>  (166) 
nan

>  <name>  (166) 
P70001

$$$$
P70002
     RDKit          3D

 22 24  0  0  0  0  0  0  0  0999 V2000
   -4.0973    5.3844  -14.9410 C   0  0  0  0  0  0  0  0  0  0  0  0
   -4.9608    5.5153  -16.1617 C   0  0  0  0  0  0  0  0  0  0  0  0
   -4.2490    5.8335  -17.3266 C   0  0  0  0  0  0  0  0  0  0  0  0
   -4.8973    5.7721  -18.5290 C   0  0  0  0  0  0  0  0  0  0  0  0
   -6.1766    5.4077  -18.6341 N   0  0  0  0  0  0  0  0  0  0  0  0
   -6.9019    5.1260  -17.5356 C   0  0  0  0  0  0  0  0  0  0  0  0
   -8.2045    4.6398  -17.7123 C   0  0  0  0  0  0  0  0  0  0  0  0
   -8.7953    4.1443  -19.2361 Cl  0  0  0  0  0  0  0  0  0  0  0  0
   -9.0837    4.4099  -16.6744 C   0  0  0  0  0  0  0  0  0  0  0  0
   -8.6295    4.5890  -15.4014 C   0  0  0  0  0  0  0  0  0  0  0  0
   -7.3093    4.9943  -15.1662 C   0  0  0  0  0  0  0  0  0  0  0  0
   -7.0595    4.9624  -13.8109 N   0  0  0  0  0  0  0  0  0  0  0  0
   -6.3347    5.9691  -12.9053 C   0  0  0  0  0  0  0  0  0  0  0  0
   -5.7650    6.9500  -13.1704 O   0  0  0  0  0  0  0  0  0  0  0  0
   -6.4767    5.4310  -11.5615 C   0  0  0  0  0  0  0  0  0  0  0  0
   -7.0994    6.4586  -10.3478 S   0  0  0  0  0  0  0  0  0  0  0  0
   -7.3347    5.1355   -9.2993 C   0  0  0  0  0  0  0  0  0  0  0  0
   -6.8614    3.9568   -9.8321 C   0  0  0  0  0  0  0  0  0  0  0  0
   -6.2927    4.1145  -11.1351 C   0  0  0  0  0  0  0  0  0  0  0  0
   -5.6295    2.9884  -11.8990 C   0  0  0  0  0  0  0  0  0  0  0  0
   -6.7909    2.0781  -12.8733 Cl  0  0  0  0  0  0  0  0  0  0  0  0
   -6.3791    5.2556  -16.2235 C   0  0  0  0  0  0  0  0  0  0  0  0
  1  2  1  0
  2  3  2  0
  3  4  1  0
  4  5  2  0
  5  6  1  0
  6  7  2  0
  7  8  1  0
  7  9  1  0
  9 10  2  0
 10 11  1  0
 11 12  1  0
 12 13  1  0
 13 14  2  0
 13 15  1  0
 15 16  1  0
 16 17  1  0
 17 18  2  0
 18 19  1  0
 19 20  1  0
 20 21  1  0
 11 22  2  0
 22  2  1  0
 22  6  1  0
 19 15  2  0
M  END
>  <fragmenstein_outcome>  (167) 
nan

>  <exports>  (167) 
['/opt/xchem-fragalysis-2/maxwin/openbind-hippo/xx01zvns2b/cycle_01/syndirella/elabs/openbind_xx01zvns2b_c1_elab_chemspace_filtered.sdf']

>  <Energy>  (167) 
nan

>  <alias>  (167) 
None

>  <fragmenstein_runtime>  (167) 
nan

>  <scratch_subdir>  (167) 
nan

>  <HIPPO Compound ID>  (167) 
139899

>  <rmsd(smina/fragmenstein)>  (167) 
1.6

>  <distance_score>  (167) 
1.331602

>  <orig_smiles>  (167) 
nan

>  <fragmenstein_mode>  (167) 
nan

>  <inchikey>  (167) 
ZEUILYWIBICOLS-UHFFFAOYSA-N

>  <ref_pdb>  (167) 
Z0719a

>  <GNINA pK>  (167) 
nan

>  <gnina_score_min>  (167) 
5.245

>  <tags>  (167) 
openbind_xx01zvns2b_c1_elab_nonasap_filtered_scored_top80percent,openbind_xx01zvns2b_c1_elab_chemspace_filtered_scored_top80percent,openbind_xx01zvns2b_c1_elab_chemspace_filtered_scored,openbind_xx01zvns2b_c1_elab_chemspace_filtered_scored_top40percent,openbind_xx01zvns2b_c1_elab_chemspace_filtered_scored_top20percent,openbind_xx01zvns2b_c1_elab_chemspace_filtered_scored_top60percent,openbind_xx01zvns2b_c1_elabs_filtered

>  <smiles>  (167) 
Cc1ccnc2c(Cl)ccc(NC(=O)c3sccc3CCl)c12

>  <subsites>  (167) 
1 - Z4590/B/203/1

>  <gnina_score>  (167) 
5.412

>  <HIPPO Pose ID>  (167) 
70002

>  <ref_mols>  (167) 
Z0719a,Z1688a

>  <energy_score>  (167) 
-26.582646

>  <inspiration_score>  (167) 
None

>  <smina_score_min>  (167) 
-5.889

>  <fragmenstein_error>  (167) 
nan

>  <name>  (167) 
P70002

$$$$
P70003
     RDKit          3D

 23 25  0  0  0  0  0  0  0  0999 V2000
   -4.2715    6.2182  -14.9651 C   0  0  0  0  0  0  0  0  0  0  0  0
   -5.0685    5.9232  -16.2018 C   0  0  0  0  0  0  0  0  0  0  0  0
   -4.3207    6.0437  -17.3842 C   0  0  0  0  0  0  0  0  0  0  0  0
   -4.9148    5.7447  -18.5770 C   0  0  0  0  0  0  0  0  0  0  0  0
   -6.1806    5.3388  -18.6574 N   0  0  0  0  0  0  0  0  0  0  0  0
   -6.9412    5.2249  -17.5544 C   0  0  0  0  0  0  0  0  0  0  0  0
   -8.2296    4.7021  -17.7203 C   0  0  0  0  0  0  0  0  0  0  0  0
   -8.7685    4.0761  -19.2179 Cl  0  0  0  0  0  0  0  0  0  0  0  0
   -9.1349    4.5563  -16.6888 C   0  0  0  0  0  0  0  0  0  0  0  0
   -8.7266    4.8758  -15.4258 C   0  0  0  0  0  0  0  0  0  0  0  0
   -7.4337    5.3628  -15.1970 C   0  0  0  0  0  0  0  0  0  0  0  0
   -7.1352    5.2467  -13.8566 N   0  0  0  0  0  0  0  0  0  0  0  0
   -6.5182    6.2584  -12.8797 C   0  0  0  0  0  0  0  0  0  0  0  0
   -6.0919    7.3267  -13.0673 O   0  0  0  0  0  0  0  0  0  0  0  0
   -6.4673    5.5580  -11.5976 C   0  0  0  0  0  0  0  0  0  0  0  0
   -6.9082    6.3974  -10.1791 S   0  0  0  0  0  0  0  0  0  0  0  0
   -6.8385    4.9621   -9.2572 C   0  0  0  0  0  0  0  0  0  0  0  0
   -6.4311    3.8814  -10.0091 C   0  0  0  0  0  0  0  0  0  0  0  0
   -6.1298    4.2159  -11.3669 C   0  0  0  0  0  0  0  0  0  0  0  0
   -5.5793    3.2130  -12.3998 C   0  0  0  0  0  0  0  0  0  0  0  0
   -6.5712    2.1039  -12.7336 C   0  0  0  0  0  0  0  0  0  0  0  0
   -4.2433    2.6039  -11.9793 C   0  0  0  0  0  0  0  0  0  0  0  0
   -6.4706    5.5555  -16.2547 C   0  0  0  0  0  0  0  0  0  0  0  0
  1  2  1  0
  2  3  2  0
  3  4  1  0
  4  5  2  0
  5  6  1  0
  6  7  2  0
  7  8  1  0
  7  9  1  0
  9 10  2  0
 10 11  1  0
 11 12  1  0
 12 13  1  0
 13 14  2  0
 13 15  1  0
 15 16  1  0
 16 17  1  0
 17 18  2  0
 18 19  1  0
 19 20  1  0
 20 21  1  0
 20 22  1  0
 11 23  2  0
 23  2  1  0
 23  6  1  0
 19 15  2  0
M  END
>  <fragmenstein_outcome>  (168) 
nan

>  <exports>  (168) 
['/opt/xchem-fragalysis-2/maxwin/openbind-hippo/xx01zvns2b/cycle_01/syndirella/elabs/openbind_xx01zvns2b_c1_elab_chemspace_filtered.sdf']

>  <Energy>  (168) 
nan

>  <alias>  (168) 
None

>  <fragmenstein_runtime>  (168) 
nan

>  <scratch_subdir>  (168) 
nan

>  <HIPPO Compound ID>  (168) 
139911

>  <rmsd(smina/fragmenstein)>  (168) 
0.869

>  <distance_score>  (168) 
1.310709

>  <orig_smiles>  (168) 
nan

>  <fragmenstein_mode>  (168) 
nan

>  <inchikey>  (168) 
FRBWHNLIACVRCA-UHFFFAOYSA-N

>  <ref_pdb>  (168) 
Z0719a

>  <GNINA pK>  (168) 
nan

>  <gnina_score_min>  (168) 
5.429

>  <tags>  (168) 
openbind_xx01zvns2b_c1_elab_nonasap_filtered_scored_top80percent,openbind_xx01zvns2b_c1_elab_chemspace_filtered_scored_top80percent,openbind_xx01zvns2b_c1_elab_chemspace_filtered_scored,openbind_xx01zvns2b_c1_elab_chemspace_filtered_scored_top40percent,openbind_xx01zvns2b_c1_elab_chemspace_filtered_scored_top20percent,openbind_xx01zvns2b_c1_elab_chemspace_filtered_scored_top60percent,openbind_xx01zvns2b_c1_elabs_filtered

>  <smiles>  (168) 
Cc1ccnc2c(Cl)ccc(NC(=O)c3sccc3C(C)C)c12

>  <subsites>  (168) 
1 - Z4590/B/203/1

>  <gnina_score>  (168) 
5.502

>  <HIPPO Pose ID>  (168) 
70003

>  <ref_mols>  (168) 
Z0719a,Z1688a

>  <energy_score>  (168) 
-31.894201

>  <inspiration_score>  (168) 
None

>  <smina_score_min>  (168) 
-5.829

>  <fragmenstein_error>  (168) 
nan

>  <name>  (168) 
P70003

$$$$
P70004
     RDKit          3D

 23 25  0  0  0  0  0  0  0  0999 V2000
   -4.2863    5.9490  -14.8816 C   0  0  0  0  0  0  0  0  0  0  0  0
   -5.0885    5.7844  -16.1383 C   0  0  0  0  0  0  0  0  0  0  0  0
   -4.3238    6.0091  -17.2962 C   0  0  0  0  0  0  0  0  0  0  0  0
   -4.8920    5.7929  -18.5176 C   0  0  0  0  0  0  0  0  0  0  0  0
   -6.1480    5.3734  -18.6471 N   0  0  0  0  0  0  0  0  0  0  0  0
   -6.9269    5.1711  -17.5696 C   0  0  0  0  0  0  0  0  0  0  0  0
   -8.2028    4.6444  -17.8051 C   0  0  0  0  0  0  0  0  0  0  0  0
   -8.6686    4.0495  -19.3341 Cl  0  0  0  0  0  0  0  0  0  0  0  0
   -9.1490    4.4484  -16.8235 C   0  0  0  0  0  0  0  0  0  0  0  0
   -8.7804    4.6912  -15.5362 C   0  0  0  0  0  0  0  0  0  0  0  0
   -7.4938    5.1537  -15.2312 C   0  0  0  0  0  0  0  0  0  0  0  0
   -7.3252    5.0630  -13.8663 N   0  0  0  0  0  0  0  0  0  0  0  0
   -6.6039    5.9971  -12.8860 C   0  0  0  0  0  0  0  0  0  0  0  0
   -6.1016    7.0326  -13.0608 O   0  0  0  0  0  0  0  0  0  0  0  0
   -6.5704    5.2676  -11.6313 C   0  0  0  0  0  0  0  0  0  0  0  0
   -6.9984    6.0729  -10.1936 S   0  0  0  0  0  0  0  0  0  0  0  0
   -6.9971    4.5985   -9.3351 C   0  0  0  0  0  0  0  0  0  0  0  0
   -6.5973    3.5353  -10.1175 C   0  0  0  0  0  0  0  0  0  0  0  0
   -6.2785    3.9115  -11.4576 C   0  0  0  0  0  0  0  0  0  0  0  0
   -5.7793    2.9494  -12.5234 C   0  0  0  0  0  0  0  0  0  0  0  0
   -6.7765    2.1298  -12.9575 F   0  0  0  0  0  0  0  0  0  0  0  0
   -4.7837    2.1526  -12.0607 F   0  0  0  0  0  0  0  0  0  0  0  0
   -6.4923    5.4189  -16.2392 C   0  0  0  0  0  0  0  0  0  0  0  0
  1  2  1  0
  2  3  2  0
  3  4  1  0
  4  5  2  0
  5  6  1  0
  6  7  2  0
  7  8  1  0
  7  9  1  0
  9 10  2  0
 10 11  1  0
 11 12  1  0
 12 13  1  0
 13 14  2  0
 13 15  1  0
 15 16  1  0
 16 17  1  0
 17 18  2  0
 18 19  1  0
 19 20  1  0
 20 21  1  0
 20 22  1  0
 11 23  2  0
 23  2  1  0
 23  6  1  0
 19 15  2  0
M  END
>  <fragmenstein_outcome>  (169) 
nan

>  <exports>  (169) 
['/opt/xchem-fragalysis-2/maxwin/openbind-hippo/xx01zvns2b/cycle_01/syndirella/elabs/openbind_xx01zvns2b_c1_elab_chemspace_filtered.sdf']

>  <Energy>  (169) 
nan

>  <alias>  (169) 
None

>  <fragmenstein_runtime>  (169) 
nan

>  <scratch_subdir>  (169) 
nan

>  <HIPPO Compound ID>  (169) 
139921

>  <rmsd(smina/fragmenstein)>  (169) 
1.952

>  <distance_score>  (169) 
1.181506

>  <orig_smiles>  (169) 
nan

>  <fragmenstein_mode>  (169) 
nan

>  <inchikey>  (169) 
BMCFFLWUQPXZLG-UHFFFAOYSA-N

>  <ref_pdb>  (169) 
Z0719a

>  <GNINA pK>  (169) 
nan

>  <gnina_score_min>  (169) 
5.311

>  <tags>  (169) 
openbind_xx01zvns2b_c1_elab_nonasap_filtered_scored_top80percent,openbind_xx01zvns2b_c1_elab_chemspace_filtered_scored_top80percent,openbind_xx01zvns2b_c1_elab_chemspace_filtered_scored,openbind_xx01zvns2b_c1_elab_chemspace_filtered_scored_top40percent,openbind_xx01zvns2b_c1_elab_chemspace_filtered_scored_top20percent,openbind_xx01zvns2b_c1_elab_chemspace_filtered_scored_top60percent,openbind_xx01zvns2b_c1_elabs_filtered

>  <smiles>  (169) 
Cc1ccnc2c(Cl)ccc(NC(=O)c3sccc3C(F)F)c12

>  <subsites>  (169) 
1 - Z4590/B/203/1

>  <gnina_score>  (169) 
5.45

>  <HIPPO Pose ID>  (169) 
70004

>  <ref_mols>  (169) 
Z1688a,Z0719a

>  <energy_score>  (169) 
-7.080107

>  <inspiration_score>  (169) 
None

>  <smina_score_min>  (169) 
-6.333

>  <fragmenstein_error>  (169) 
nan

>  <name>  (169) 
P70004

$$$$
P70005
     RDKit          3D

 23 25  0  0  0  0  0  0  0  0999 V2000
   -6.6862    1.7582  -13.3981 N   0  0  0  0  0  0  0  0  0  0  0  0
   -5.8823    2.3305  -12.7889 C   0  0  0  0  0  0  0  0  0  0  0  0
   -4.8700    3.0430  -12.0000 C   0  0  0  0  0  0  0  0  0  0  0  0
   -5.4747    4.2238  -11.2608 C   0  0  0  0  0  0  0  0  0  0  0  0
   -6.1865    4.1372  -10.0206 C   0  0  0  0  0  0  0  0  0  0  0  0
   -6.6536    5.3577   -9.5801 C   0  0  0  0  0  0  0  0  0  0  0  0
   -6.2411    6.6301  -10.6434 S   0  0  0  0  0  0  0  0  0  0  0  0
   -5.5210    5.5321  -11.7308 C   0  0  0  0  0  0  0  0  0  0  0  0
   -5.3087    5.9407  -13.1041 C   0  0  0  0  0  0  0  0  0  0  0  0
   -4.3946    6.5402  -13.5082 O   0  0  0  0  0  0  0  0  0  0  0  0
   -6.4977    5.3095  -13.8508 N   0  0  0  0  0  0  0  0  0  0  0  0
   -6.8526    5.3611  -15.1981 C   0  0  0  0  0  0  0  0  0  0  0  0
   -8.2446    5.2842  -15.3663 C   0  0  0  0  0  0  0  0  0  0  0  0
   -9.3559    5.9313  -13.9784 Br  0  0  0  0  0  0  0  0  0  0  0  0
   -8.8112    4.8892  -16.5512 C   0  0  0  0  0  0  0  0  0  0  0  0
   -7.9704    4.6990  -17.6322 C   0  0  0  0  0  0  0  0  0  0  0  0
   -8.7301    4.1156  -19.0552 Cl  0  0  0  0  0  0  0  0  0  0  0  0
   -6.5945    4.9638  -17.5744 C   0  0  0  0  0  0  0  0  0  0  0  0
   -5.8528    4.9055  -18.6954 N   0  0  0  0  0  0  0  0  0  0  0  0
   -4.5283    5.1100  -18.6394 C   0  0  0  0  0  0  0  0  0  0  0  0
   -3.8577    5.3447  -17.4664 C   0  0  0  0  0  0  0  0  0  0  0  0
   -4.6038    5.3981  -16.2983 C   0  0  0  0  0  0  0  0  0  0  0  0
   -6.0073    5.2662  -16.3197 C   0  0  0  0  0  0  0  0  0  0  0  0
  1  2  3  0
  2  3  1  0
  3  4  1  0
  4  5  1  0
  5  6  2  0
  6  7  1  0
  7  8  1  0
  8  9  1  0
  9 10  2  0
  9 11  1  0
 11 12  1  0
 12 13  2  0
 13 14  1  0
 13 15  1  0
 15 16  2  0
 16 17  1  0
 16 18  1  0
 18 19  2  0
 19 20  1  0
 20 21  2  0
 21 22  1  0
 22 23  2  0
  8  4  2  0
 23 12  1  0
 23 18  1  0
M  END
>  <fragmenstein_outcome>  (170) 
nan

>  <exports>  (170) 
['/opt/xchem-fragalysis-2/maxwin/openbind-hippo/xx01zvns2b/cycle_01/syndirella/elabs/openbind_xx01zvns2b_c1_elab_chemspace_filtered.sdf']

>  <Energy>  (170) 
nan

>  <alias>  (170) 
None

>  <fragmenstein_runtime>  (170) 
nan

>  <scratch_subdir>  (170) 
nan

>  <HIPPO Compound ID>  (170) 
139923

>  <rmsd(smina/fragmenstein)>  (170) 
0.759

>  <distance_score>  (170) 
1.361761

>  <orig_smiles>  (170) 
nan

>  <fragmenstein_mode>  (170) 
nan

>  <inchikey>  (170) 
QQSFLKQQZJPFQG-UHFFFAOYSA-N

>  <ref_pdb>  (170) 
Z0719a

>  <GNINA pK>  (170) 
nan

>  <gnina_score_min>  (170) 
5.65

>  <tags>  (170) 
openbind_xx01zvns2b_c1_elab_nonasap_filtered_scored_top80percent,openbind_xx01zvns2b_c1_elab_chemspace_filtered_scored_top80percent,openbind_xx01zvns2b_c1_elab_chemspace_filtered_scored,openbind_xx01zvns2b_c1_elab_chemspace_filtered_scored_top40percent,openbind_xx01zvns2b_c1_elab_chemspace_filtered_scored_top20percent,openbind_xx01zvns2b_c1_elab_chemspace_filtered_scored_top60percent,openbind_xx01zvns2b_c1_elabs_filtered

>  <smiles>  (170) 
N#CCc1ccsc1C(=O)Nc1c(Br)cc(Cl)c2ncccc12

>  <subsites>  (170) 
1 - Z4590/B/203/1

>  <gnina_score>  (170) 
5.666

>  <HIPPO Pose ID>  (170) 
70005

>  <ref_mols>  (170) 
Z0719a,Z1688a

>  <energy_score>  (170) 
-1.441847

>  <inspiration_score>  (170) 
None

>  <smina_score_min>  (170) 
-6.233

>  <fragmenstein_error>  (170) 
nan

>  <name>  (170) 
P70005

$$$$
P70006
     RDKit          3D

 23 25  0  0  0  0  0  0  0  0999 V2000
   -4.0131    5.0081  -15.0251 C   0  0  0  0  0  0  0  0  0  0  0  0
   -4.9216    5.3697  -16.1647 C   0  0  0  0  0  0  0  0  0  0  0  0
   -4.2439    5.7442  -17.3323 C   0  0  0  0  0  0  0  0  0  0  0  0
   -4.9425    5.7804  -18.5071 C   0  0  0  0  0  0  0  0  0  0  0  0
   -6.2326    5.4454  -18.5817 N   0  0  0  0  0  0  0  0  0  0  0  0
   -6.9188    5.1121  -17.4714 C   0  0  0  0  0  0  0  0  0  0  0  0
   -8.2274    4.6367  -17.6181 C   0  0  0  0  0  0  0  0  0  0  0  0
   -8.8878    4.2201  -19.1400 Cl  0  0  0  0  0  0  0  0  0  0  0  0
   -9.0620    4.3713  -16.5523 C   0  0  0  0  0  0  0  0  0  0  0  0
   -8.5712    4.5400  -15.2885 C   0  0  0  0  0  0  0  0  0  0  0  0
   -7.2471    4.9482  -15.0820 C   0  0  0  0  0  0  0  0  0  0  0  0
   -7.0105    5.0496  -13.7201 N   0  0  0  0  0  0  0  0  0  0  0  0
   -6.0509    5.9627  -12.9367 C   0  0  0  0  0  0  0  0  0  0  0  0
   -5.3625    6.8282  -13.3042 O   0  0  0  0  0  0  0  0  0  0  0  0
   -6.1538    5.5108  -11.5630 C   0  0  0  0  0  0  0  0  0  0  0  0
   -6.9091    6.5489  -10.4382 S   0  0  0  0  0  0  0  0  0  0  0  0
   -7.0940    5.2665   -9.3300 C   0  0  0  0  0  0  0  0  0  0  0  0
   -6.5031    4.1041   -9.7755 C   0  0  0  0  0  0  0  0  0  0  0  0
   -5.8839    4.2403  -11.0596 C   0  0  0  0  0  0  0  0  0  0  0  0
   -5.1142    3.1257  -11.7520 C   0  0  0  0  0  0  0  0  0  0  0  0
   -5.9648    2.3314  -12.6453 C   0  0  0  0  0  0  0  0  0  0  0  0
   -6.6473    1.7044  -13.3424 N   0  0  0  0  0  0  0  0  0  0  0  0
   -6.3496    5.1831  -16.1743 C   0  0  0  0  0  0  0  0  0  0  0  0
  1  2  1  0
  2  3  2  0
  3  4  1  0
  4  5  2  0
  5  6  1  0
  6  7  2  0
  7  8  1  0
  7  9  1  0
  9 10  2  0
 10 11  1  0
 11 12  1  0
 12 13  1  0
 13 14  2  0
 13 15  1  0
 15 16  1  0
 16 17  1  0
 17 18  2  0
 18 19  1  0
 19 20  1  0
 20 21  1  0
 21 22  3  0
 11 23  2  0
 23  2  1  0
 23  6  1  0
 19 15  2  0
M  END
>  <fragmenstein_outcome>  (171) 
nan

>  <exports>  (171) 
['/opt/xchem-fragalysis-2/maxwin/openbind-hippo/xx01zvns2b/cycle_01/syndirella/elabs/openbind_xx01zvns2b_c1_elab_chemspace_filtered.sdf']

>  <Energy>  (171) 
nan

>  <alias>  (171) 
None

>  <fragmenstein_runtime>  (171) 
nan

>  <scratch_subdir>  (171) 
nan

>  <HIPPO Compound ID>  (171) 
139924

>  <rmsd(smina/fragmenstein)>  (171) 
0.614

>  <distance_score>  (171) 
1.192564

>  <orig_smiles>  (171) 
nan

>  <fragmenstein_mode>  (171) 
nan

>  <inchikey>  (171) 
FPQSRCMJZBCULS-UHFFFAOYSA-N

>  <ref_pdb>  (171) 
Z0719a

>  <GNINA pK>  (171) 
nan

>  <gnina_score_min>  (171) 
5.476

>  <tags>  (171) 
openbind_xx01zvns2b_c1_elab_nonasap_filtered_scored_top80percent,openbind_xx01zvns2b_c1_elab_chemspace_filtered_scored_top80percent,openbind_xx01zvns2b_c1_elab_chemspace_filtered_scored,openbind_xx01zvns2b_c1_elab_chemspace_filtered_scored_top40percent,openbind_xx01zvns2b_c1_elab_chemspace_filtered_scored_top20percent,openbind_xx01zvns2b_c1_elab_chemspace_filtered_scored_top60percent,openbind_xx01zvns2b_c1_elabs_filtered

>  <smiles>  (171) 
Cc1ccnc2c(Cl)ccc(NC(=O)c3sccc3CC#N)c12

>  <subsites>  (171) 
1 - Z4590/B/203/1

>  <gnina_score>  (171) 
5.534

>  <HIPPO Pose ID>  (171) 
70006

>  <ref_mols>  (171) 
Z1688a,Z0719a

>  <energy_score>  (171) 
-8.526058

>  <inspiration_score>  (171) 
None

>  <smina_score_min>  (171) 
-6.208

>  <fragmenstein_error>  (171) 
nan

>  <name>  (171) 
P70006

$$$$
P70009
     RDKit          3D

 23 25  0  0  0  0  0  0  0  0999 V2000
   -5.3291    2.2970  -13.3050 C   0  0  0  0  0  0  0  0  0  0  0  0
   -5.4640    2.9792  -11.9598 C   0  0  0  0  0  0  0  0  0  0  0  0
   -6.5895    3.8477  -12.0662 O   0  0  0  0  0  0  0  0  0  0  0  0
   -6.7081    4.8208  -11.1300 C   0  0  0  0  0  0  0  0  0  0  0  0
   -6.2281    4.8246   -9.8027 C   0  0  0  0  0  0  0  0  0  0  0  0
   -6.5544    5.9913   -9.1420 C   0  0  0  0  0  0  0  0  0  0  0  0
   -7.4562    7.0636  -10.1294 S   0  0  0  0  0  0  0  0  0  0  0  0
   -7.4246    5.9651  -11.4330 C   0  0  0  0  0  0  0  0  0  0  0  0
   -8.1063    6.2624  -12.6890 C   0  0  0  0  0  0  0  0  0  0  0  0
   -9.1610    6.7629  -12.7269 O   0  0  0  0  0  0  0  0  0  0  0  0
   -7.2213    5.7036  -13.8265 N   0  0  0  0  0  0  0  0  0  0  0  0
   -7.4774    5.5635  -15.1755 C   0  0  0  0  0  0  0  0  0  0  0  0
   -8.7900    5.2218  -15.4834 C   0  0  0  0  0  0  0  0  0  0  0  0
   -9.0987    4.7479  -16.7349 C   0  0  0  0  0  0  0  0  0  0  0  0
   -8.0885    4.6513  -17.6790 C   0  0  0  0  0  0  0  0  0  0  0  0
   -8.5624    3.9994  -19.1888 Cl  0  0  0  0  0  0  0  0  0  0  0  0
   -6.7662    5.0412  -17.4283 C   0  0  0  0  0  0  0  0  0  0  0  0
   -5.8480    4.9473  -18.4111 N   0  0  0  0  0  0  0  0  0  0  0  0
   -4.5828    5.3224  -18.1917 C   0  0  0  0  0  0  0  0  0  0  0  0
   -4.1496    5.8247  -16.9902 C   0  0  0  0  0  0  0  0  0  0  0  0
   -5.0718    5.9557  -15.9470 C   0  0  0  0  0  0  0  0  0  0  0  0
   -4.5552    6.5849  -14.6799 C   0  0  0  0  0  0  0  0  0  0  0  0
   -6.4294    5.5238  -16.1406 C   0  0  0  0  0  0  0  0  0  0  0  0
  1  2  1  0
  2  3  1  0
  3  4  1  0
  4  5  1  0
  5  6  2  0
  6  7  1  0
  7  8  1  0
  8  9  1  0
  9 10  2  0
  9 11  1  0
 11 12  1  0
 12 13  2  0
 13 14  1  0
 14 15  2  0
 15 16  1  0
 15 17  1  0
 17 18  2  0
 18 19  1  0
 19 20  2  0
 20 21  1  0
 21 22  1  0
 21 23  2  0
  8  4  2  0
 23 12  1  0
 23 17  1  0
M  END
>  <fragmenstein_outcome>  (172) 
nan

>  <exports>  (172) 
['/opt/xchem-fragalysis-2/maxwin/openbind-hippo/xx01zvns2b/cycle_01/syndirella/elabs/openbind_xx01zvns2b_c1_elab_chemspace_filtered.sdf']

>  <Energy>  (172) 
nan

>  <alias>  (172) 
None

>  <fragmenstein_runtime>  (172) 
nan

>  <scratch_subdir>  (172) 
nan

>  <HIPPO Compound ID>  (172) 
139937

>  <rmsd(smina/fragmenstein)>  (172) 
1.178

>  <distance_score>  (172) 
1.222671

>  <orig_smiles>  (172) 
nan

>  <fragmenstein_mode>  (172) 
nan

>  <inchikey>  (172) 
KZXUDWIOSUHCPP-UHFFFAOYSA-N

>  <ref_pdb>  (172) 
Z0719a

>  <GNINA pK>  (172) 
nan

>  <gnina_score_min>  (172) 
5.145

>  <tags>  (172) 
openbind_xx01zvns2b_c1_elab_nonasap_filtered_scored_top80percent,openbind_xx01zvns2b_c1_elab_chemspace_filtered_scored_top80percent,openbind_xx01zvns2b_c1_elab_chemspace_filtered_scored,openbind_xx01zvns2b_c1_elab_chemspace_filtered_scored_top40percent,openbind_xx01zvns2b_c1_elab_chemspace_filtered_scored_top20percent,openbind_xx01zvns2b_c1_elab_chemspace_filtered_scored_top60percent,openbind_xx01zvns2b_c1_elabs_filtered

>  <smiles>  (172) 
CCOc1ccsc1C(=O)Nc1ccc(Cl)c2nccc(C)c12

>  <subsites>  (172) 
1 - Z4590/B/203/1

>  <gnina_score>  (172) 
5.247

>  <HIPPO Pose ID>  (172) 
70009

>  <ref_mols>  (172) 
Z0719a,Z1688a

>  <energy_score>  (172) 
-32.967188

>  <inspiration_score>  (172) 
None

>  <smina_score_min>  (172) 
-5.571

>  <fragmenstein_error>  (172) 
nan

>  <name>  (172) 
P70009

$$$$
P70010
     RDKit          3D

 23 25  0  0  0  0  0  0  0  0999 V2000
   -7.0863    2.3812  -13.0153 C   0  0  0  0  0  0  0  0  0  0  0  0
   -5.6971    2.6146  -13.1910 O   0  0  0  0  0  0  0  0  0  0  0  0
   -5.0200    2.8203  -11.9456 C   0  0  0  0  0  0  0  0  0  0  0  0
   -5.4054    4.1210  -11.2747 C   0  0  0  0  0  0  0  0  0  0  0  0
   -6.1034    4.2418  -10.0326 C   0  0  0  0  0  0  0  0  0  0  0  0
   -6.4125    5.5484   -9.7180 C   0  0  0  0  0  0  0  0  0  0  0  0
   -5.8751    6.6468  -10.9153 S   0  0  0  0  0  0  0  0  0  0  0  0
   -5.2744    5.3676  -11.8685 C   0  0  0  0  0  0  0  0  0  0  0  0
   -5.0166    5.5290  -13.2843 C   0  0  0  0  0  0  0  0  0  0  0  0
   -3.9635    5.4825  -13.7847 O   0  0  0  0  0  0  0  0  0  0  0  0
   -6.4188    5.6594  -13.9144 N   0  0  0  0  0  0  0  0  0  0  0  0
   -6.8163    5.6640  -15.2558 C   0  0  0  0  0  0  0  0  0  0  0  0
   -8.2043    5.4737  -15.3787 C   0  0  0  0  0  0  0  0  0  0  0  0
   -9.3351    6.0133  -13.9604 Br  0  0  0  0  0  0  0  0  0  0  0  0
   -8.7642    4.9527  -16.5220 C   0  0  0  0  0  0  0  0  0  0  0  0
   -7.9330    4.7239  -17.6059 C   0  0  0  0  0  0  0  0  0  0  0  0
   -8.6933    4.0544  -18.9924 Cl  0  0  0  0  0  0  0  0  0  0  0  0
   -6.5766    5.0777  -17.5974 C   0  0  0  0  0  0  0  0  0  0  0  0
   -5.8333    4.9454  -18.7109 N   0  0  0  0  0  0  0  0  0  0  0  0
   -4.5552    5.3583  -18.7183 C   0  0  0  0  0  0  0  0  0  0  0  0
   -3.9455    5.9360  -17.6325 C   0  0  0  0  0  0  0  0  0  0  0  0
   -4.6916    6.0657  -16.4721 C   0  0  0  0  0  0  0  0  0  0  0  0
   -6.0158    5.5976  -16.4043 C   0  0  0  0  0  0  0  0  0  0  0  0
  1  2  1  0
  2  3  1  0
  3  4  1  0
  4  5  1  0
  5  6  2  0
  6  7  1  0
  7  8  1  0
  8  9  1  0
  9 10  2  0
  9 11  1  0
 11 12  1  0
 12 13  2  0
 13 14  1  0
 13 15  1  0
 15 16  2  0
 16 17  1  0
 16 18  1  0
 18 19  2  0
 19 20  1  0
 20 21  2  0
 21 22  1  0
 22 23  2  0
  8  4  2  0
 23 12  1  0
 23 18  1  0
M  END
>  <fragmenstein_outcome>  (173) 
nan

>  <exports>  (173) 
['/opt/xchem-fragalysis-2/maxwin/openbind-hippo/xx01zvns2b/cycle_01/syndirella/elabs/openbind_xx01zvns2b_c1_elab_chemspace_filtered.sdf']

>  <Energy>  (173) 
nan

>  <alias>  (173) 
None

>  <fragmenstein_runtime>  (173) 
nan

>  <scratch_subdir>  (173) 
nan

>  <HIPPO Compound ID>  (173) 
139993

>  <rmsd(smina/fragmenstein)>  (173) 
1.382

>  <distance_score>  (173) 
1.457222

>  <orig_smiles>  (173) 
nan

>  <fragmenstein_mode>  (173) 
nan

>  <inchikey>  (173) 
QGRZUDSQTSTNKW-UHFFFAOYSA-N

>  <ref_pdb>  (173) 
Z0719a

>  <GNINA pK>  (173) 
nan

>  <gnina_score_min>  (173) 
5.362

>  <tags>  (173) 
openbind_xx01zvns2b_c1_elab_nonasap_filtered_scored_top80percent,openbind_xx01zvns2b_c1_elab_chemspace_filtered_scored_top80percent,openbind_xx01zvns2b_c1_elab_chemspace_filtered_scored,openbind_xx01zvns2b_c1_elab_chemspace_filtered_scored_top40percent,openbind_xx01zvns2b_c1_elab_chemspace_filtered_scored_top20percent,openbind_xx01zvns2b_c1_elab_chemspace_filtered_scored_top60percent,openbind_xx01zvns2b_c1_elabs_filtered

>  <smiles>  (173) 
COCc1ccsc1C(=O)Nc1c(Br)cc(Cl)c2ncccc12

>  <subsites>  (173) 
1 - Z4590/B/203/1

>  <gnina_score>  (173) 
5.343

>  <HIPPO Pose ID>  (173) 
70010

>  <ref_mols>  (173) 
Z1688a,Z0719a

>  <energy_score>  (173) 
-33.527833

>  <inspiration_score>  (173) 
None

>  <smina_score_min>  (173) 
-5.824

>  <fragmenstein_error>  (173) 
nan

>  <name>  (173) 
P70010

$$$$
P70011
     RDKit          3D

 23 25  0  0  0  0  0  0  0  0999 V2000
   -6.8138    2.0962  -12.6131 C   0  0  0  0  0  0  0  0  0  0  0  0
   -5.7563    2.9719  -12.9632 O   0  0  0  0  0  0  0  0  0  0  0  0
   -5.0772    3.5035  -11.8285 C   0  0  0  0  0  0  0  0  0  0  0  0
   -5.8509    4.6036  -11.1181 C   0  0  0  0  0  0  0  0  0  0  0  0
   -6.4036    4.4500   -9.8064 C   0  0  0  0  0  0  0  0  0  0  0  0
   -7.0262    5.5870   -9.3435 C   0  0  0  0  0  0  0  0  0  0  0  0
   -6.9439    6.8673  -10.4658 S   0  0  0  0  0  0  0  0  0  0  0  0
   -6.2001    5.8561  -11.6266 C   0  0  0  0  0  0  0  0  0  0  0  0
   -6.1637    6.3205  -13.0082 C   0  0  0  0  0  0  0  0  0  0  0  0
   -5.7045    7.3338  -13.3561 O   0  0  0  0  0  0  0  0  0  0  0  0
   -6.8557    5.2111  -13.8151 N   0  0  0  0  0  0  0  0  0  0  0  0
   -7.2004    5.1548  -15.1481 C   0  0  0  0  0  0  0  0  0  0  0  0
   -8.5101    4.6796  -15.2956 C   0  0  0  0  0  0  0  0  0  0  0  0
   -9.0199    4.4410  -16.5410 C   0  0  0  0  0  0  0  0  0  0  0  0
   -8.2095    4.6738  -17.6362 C   0  0  0  0  0  0  0  0  0  0  0  0
   -8.8884    4.1791  -19.1282 Cl  0  0  0  0  0  0  0  0  0  0  0  0
   -6.9073    5.1839  -17.5398 C   0  0  0  0  0  0  0  0  0  0  0  0
   -6.2313    5.4262  -18.6777 N   0  0  0  0  0  0  0  0  0  0  0  0
   -4.9514    5.8045  -18.6390 C   0  0  0  0  0  0  0  0  0  0  0  0
   -4.2547    5.9263  -17.4679 C   0  0  0  0  0  0  0  0  0  0  0  0
   -4.9155    5.6577  -16.2627 C   0  0  0  0  0  0  0  0  0  0  0  0
   -4.0093    5.5974  -15.0660 C   0  0  0  0  0  0  0  0  0  0  0  0
   -6.3297    5.3788  -16.2598 C   0  0  0  0  0  0  0  0  0  0  0  0
  1  2  1  0
  2  3  1  0
  3  4  1  0
  4  5  1  0
  5  6  2  0
  6  7  1  0
  7  8  1  0
  8  9  1  0
  9 10  2  0
  9 11  1  0
 11 12  1  0
 12 13  2  0
 13 14  1  0
 14 15  2  0
 15 16  1  0
 15 17  1  0
 17 18  2  0
 18 19  1  0
 19 20  2  0
 20 21  1  0
 21 22  1  0
 21 23  2  0
  8  4  2  0
 23 12  1  0
 23 17  1  0
M  END
>  <fragmenstein_outcome>  (174) 
nan

>  <exports>  (174) 
['/opt/xchem-fragalysis-2/maxwin/openbind-hippo/xx01zvns2b/cycle_01/syndirella/elabs/openbind_xx01zvns2b_c1_elab_chemspace_filtered.sdf']

>  <Energy>  (174) 
nan

>  <alias>  (174) 
None

>  <fragmenstein_runtime>  (174) 
nan

>  <scratch_subdir>  (174) 
nan

>  <HIPPO Compound ID>  (174) 
139994

>  <rmsd(smina/fragmenstein)>  (174) 
0.926

>  <distance_score>  (174) 
1.189272

>  <orig_smiles>  (174) 
nan

>  <fragmenstein_mode>  (174) 
nan

>  <inchikey>  (174) 
UMNFQCQYAZJFEA-UHFFFAOYSA-N

>  <ref_pdb>  (174) 
Z0719a

>  <GNINA pK>  (174) 
nan

>  <gnina_score_min>  (174) 
5.168

>  <tags>  (174) 
openbind_xx01zvns2b_c1_elab_nonasap_filtered_scored_top80percent,openbind_xx01zvns2b_c1_elab_chemspace_filtered_scored_top80percent,openbind_xx01zvns2b_c1_elab_chemspace_filtered_scored,openbind_xx01zvns2b_c1_elab_chemspace_filtered_scored_top40percent,openbind_xx01zvns2b_c1_elab_chemspace_filtered_scored_top20percent,openbind_xx01zvns2b_c1_elab_chemspace_filtered_scored_top60percent,openbind_xx01zvns2b_c1_elabs_filtered

>  <smiles>  (174) 
COCc1ccsc1C(=O)Nc1ccc(Cl)c2nccc(C)c12

>  <subsites>  (174) 
1 - Z4590/B/203/1

>  <gnina_score>  (174) 
5.254

>  <HIPPO Pose ID>  (174) 
70011

>  <ref_mols>  (174) 
Z0719a,Z1688a

>  <energy_score>  (174) 
-10.887206

>  <inspiration_score>  (174) 
None

>  <smina_score_min>  (174) 
-5.643

>  <fragmenstein_error>  (174) 
nan

>  <name>  (174) 
P70011

$$$$
P70012
     RDKit          3D

 23 25  0  0  0  0  0  0  0  0999 V2000
   -8.0753    3.8440   -7.9484 C   0  0  0  0  0  0  0  0  0  0  0  0
   -7.4734    3.8691   -9.3109 C   0  0  0  0  0  0  0  0  0  0  0  0
   -6.9384    2.8117  -10.0142 C   0  0  0  0  0  0  0  0  0  0  0  0
   -6.4475    3.1916  -11.3040 C   0  0  0  0  0  0  0  0  0  0  0  0
   -5.8452    2.2163  -12.2856 C   0  0  0  0  0  0  0  0  0  0  0  0
   -6.7949    1.7580  -13.2453 O   0  0  0  0  0  0  0  0  0  0  0  0
   -6.6448    4.5571  -11.4960 C   0  0  0  0  0  0  0  0  0  0  0  0
   -6.4738    5.3218  -12.7159 C   0  0  0  0  0  0  0  0  0  0  0  0
   -5.8496    6.3006  -12.8043 O   0  0  0  0  0  0  0  0  0  0  0  0
   -7.2118    4.5125  -13.7891 N   0  0  0  0  0  0  0  0  0  0  0  0
   -7.4121    4.7727  -15.1302 C   0  0  0  0  0  0  0  0  0  0  0  0
   -8.7493    4.5092  -15.4439 C   0  0  0  0  0  0  0  0  0  0  0  0
   -9.1576    4.4244  -16.7403 C   0  0  0  0  0  0  0  0  0  0  0  0
   -8.2136    4.6277  -17.7228 C   0  0  0  0  0  0  0  0  0  0  0  0
   -8.7295    4.1442  -19.2759 Cl  0  0  0  0  0  0  0  0  0  0  0  0
   -6.9030    5.0504  -17.4686 C   0  0  0  0  0  0  0  0  0  0  0  0
   -6.1326    5.3632  -18.5276 N   0  0  0  0  0  0  0  0  0  0  0  0
   -4.8484    5.6810  -18.3630 C   0  0  0  0  0  0  0  0  0  0  0  0
   -4.2419    5.6562  -17.1384 C   0  0  0  0  0  0  0  0  0  0  0  0
   -5.0006    5.2933  -16.0145 C   0  0  0  0  0  0  0  0  0  0  0  0
   -4.1801    5.1065  -14.7725 C   0  0  0  0  0  0  0  0  0  0  0  0
   -6.4255    5.0775  -16.1315 C   0  0  0  0  0  0  0  0  0  0  0  0
   -7.3414    5.3386  -10.1575 S   0  0  0  0  0  0  0  0  0  0  0  0
  1  2  1  0
  2  3  2  0
  3  4  1  0
  4  5  1  0
  5  6  1  0
  4  7  2  0
  7  8  1  0
  8  9  2  0
  8 10  1  0
 10 11  1  0
 11 12  2  0
 12 13  1  0
 13 14  2  0
 14 15  1  0
 14 16  1  0
 16 17  2  0
 17 18  1  0
 18 19  2  0
 19 20  1  0
 20 21  1  0
 20 22  2  0
  7 23  1  0
 23  2  1  0
 22 11  1  0
 22 16  1  0
M  END
>  <fragmenstein_outcome>  (175) 
nan

>  <exports>  (175) 
['/opt/xchem-fragalysis-2/maxwin/openbind-hippo/xx01zvns2b/cycle_01/syndirella/elabs/openbind_xx01zvns2b_c1_elab_chemspace_filtered.sdf']

>  <Energy>  (175) 
nan

>  <alias>  (175) 
None

>  <fragmenstein_runtime>  (175) 
nan

>  <scratch_subdir>  (175) 
nan

>  <HIPPO Compound ID>  (175) 
140027

>  <rmsd(smina/fragmenstein)>  (175) 
0.58

>  <distance_score>  (175) 
1.342961

>  <orig_smiles>  (175) 
nan

>  <fragmenstein_mode>  (175) 
nan

>  <inchikey>  (175) 
KEWSBRXPTATOKC-UHFFFAOYSA-N

>  <ref_pdb>  (175) 
Z0719a

>  <GNINA pK>  (175) 
nan

>  <gnina_score_min>  (175) 
5.255

>  <tags>  (175) 
openbind_xx01zvns2b_c1_elab_nonasap_filtered_scored_top80percent,openbind_xx01zvns2b_c1_elab_chemspace_filtered_scored_top80percent,openbind_xx01zvns2b_c1_elab_chemspace_filtered_scored,openbind_xx01zvns2b_c1_elab_chemspace_filtered_scored_top40percent,openbind_xx01zvns2b_c1_elab_chemspace_filtered_scored_top20percent,openbind_xx01zvns2b_c1_elab_chemspace_filtered_scored_top60percent,openbind_xx01zvns2b_c1_elabs_filtered

>  <smiles>  (175) 
Cc1cc(CO)c(C(=O)Nc2ccc(Cl)c3nccc(C)c23)s1

>  <subsites>  (175) 
1 - Z4590/B/203/1

>  <gnina_score>  (175) 
5.313

>  <HIPPO Pose ID>  (175) 
70012

>  <ref_mols>  (175) 
Z0719a,Z1688a

>  <energy_score>  (175) 
-16.789027

>  <inspiration_score>  (175) 
None

>  <smina_score_min>  (175) 
-6.468

>  <fragmenstein_error>  (175) 
nan

>  <name>  (175) 
P70012

$$$$
P70013
     RDKit          3D

 24 26  0  0  0  0  0  0  0  0999 V2000
   -6.0148    2.5279  -13.3694 C   0  0  0  0  0  0  0  0  0  0  0  0
   -6.5329    3.5929  -12.5094 N   0  0  0  0  0  0  0  0  0  0  0  0
   -7.6587    3.0720  -11.7193 C   0  0  0  0  0  0  0  0  0  0  0  0
   -5.4609    4.0991  -11.6373 C   0  0  0  0  0  0  0  0  0  0  0  0
   -5.8336    5.4701  -11.1165 C   0  0  0  0  0  0  0  0  0  0  0  0
   -6.3337    5.7061   -9.7980 C   0  0  0  0  0  0  0  0  0  0  0  0
   -6.5169    7.0433   -9.5276 C   0  0  0  0  0  0  0  0  0  0  0  0
   -6.1341    8.0257  -10.8696 S   0  0  0  0  0  0  0  0  0  0  0  0
   -5.7521    6.6661  -11.8321 C   0  0  0  0  0  0  0  0  0  0  0  0
   -5.5486    6.8494  -13.2740 C   0  0  0  0  0  0  0  0  0  0  0  0
   -4.8435    7.6475  -13.7488 O   0  0  0  0  0  0  0  0  0  0  0  0
   -6.5167    5.8555  -13.9351 N   0  0  0  0  0  0  0  0  0  0  0  0
   -6.8821    5.7001  -15.2652 C   0  0  0  0  0  0  0  0  0  0  0  0
   -8.2496    5.4229  -15.4118 C   0  0  0  0  0  0  0  0  0  0  0  0
   -9.4217    5.9599  -14.0297 Br  0  0  0  0  0  0  0  0  0  0  0  0
   -8.7634    4.9042  -16.5746 C   0  0  0  0  0  0  0  0  0  0  0  0
   -7.8965    4.7373  -17.6425 C   0  0  0  0  0  0  0  0  0  0  0  0
   -8.5979    4.0590  -19.0554 Cl  0  0  0  0  0  0  0  0  0  0  0  0
   -6.5390    5.0974  -17.5835 C   0  0  0  0  0  0  0  0  0  0  0  0
   -5.7478    4.9662  -18.6645 N   0  0  0  0  0  0  0  0  0  0  0  0
   -4.4415    5.2701  -18.5817 C   0  0  0  0  0  0  0  0  0  0  0  0
   -3.8348    5.6854  -17.4208 C   0  0  0  0  0  0  0  0  0  0  0  0
   -4.6286    5.8199  -16.2932 C   0  0  0  0  0  0  0  0  0  0  0  0
   -6.0128    5.5707  -16.3559 C   0  0  0  0  0  0  0  0  0  0  0  0
  1  2  1  0
  2  3  1  0
  2  4  1  0
  4  5  1  0
  5  6  1  0
  6  7  2  0
  7  8  1  0
  8  9  1  0
  9 10  1  0
 10 11  2  0
 10 12  1  0
 12 13  1  0
 13 14  2  0
 14 15  1  0
 14 16  1  0
 16 17  2  0
 17 18  1  0
 17 19  1  0
 19 20  2  0
 20 21  1  0
 21 22  2  0
 22 23  1  0
 23 24  2  0
  9  5  2  0
 24 13  1  0
 24 19  1  0
M  END
>  <fragmenstein_outcome>  (176) 
nan

>  <exports>  (176) 
['/opt/xchem-fragalysis-2/maxwin/openbind-hippo/xx01zvns2b/cycle_01/syndirella/elabs/openbind_xx01zvns2b_c1_elab_chemspace_filtered.sdf']

>  <Energy>  (176) 
nan

>  <alias>  (176) 
None

>  <fragmenstein_runtime>  (176) 
nan

>  <scratch_subdir>  (176) 
nan

>  <HIPPO Compound ID>  (176) 
140042

>  <rmsd(smina/fragmenstein)>  (176) 
1.594

>  <distance_score>  (176) 
1.579703

>  <orig_smiles>  (176) 
nan

>  <fragmenstein_mode>  (176) 
nan

>  <inchikey>  (176) 
WLEGJCPUKWYOMO-UHFFFAOYSA-N

>  <ref_pdb>  (176) 
Z0719a

>  <GNINA pK>  (176) 
nan

>  <gnina_score_min>  (176) 
5.272

>  <tags>  (176) 
openbind_xx01zvns2b_c1_elab_nonasap_filtered_scored_top80percent,openbind_xx01zvns2b_c1_elab_chemspace_filtered_scored_top80percent,openbind_xx01zvns2b_c1_elab_chemspace_filtered_scored,openbind_xx01zvns2b_c1_elab_chemspace_filtered_scored_top40percent,openbind_xx01zvns2b_c1_elab_chemspace_filtered_scored_top20percent,openbind_xx01zvns2b_c1_elab_chemspace_filtered_scored_top60percent,openbind_xx01zvns2b_c1_elabs_filtered

>  <smiles>  (176) 
CN(C)Cc1ccsc1C(=O)Nc1c(Br)cc(Cl)c2ncccc12

>  <subsites>  (176) 
1 - Z4590/B/203/1

>  <gnina_score>  (176) 
5.561

>  <HIPPO Pose ID>  (176) 
70013

>  <ref_mols>  (176) 
Z1688a,Z0719a

>  <energy_score>  (176) 
-32.525711

>  <inspiration_score>  (176) 
None

>  <smina_score_min>  (176) 
-5.559

>  <fragmenstein_error>  (176) 
nan

>  <name>  (176) 
P70013

$$$$
P70014
     RDKit          3D

 24 26  0  0  0  0  0  0  0  0999 V2000
   -4.4138    6.0780  -14.6228 C   0  0  0  0  0  0  0  0  0  0  0  0
   -5.1391    5.9567  -15.9312 C   0  0  0  0  0  0  0  0  0  0  0  0
   -4.3146    6.1932  -17.0428 C   0  0  0  0  0  0  0  0  0  0  0  0
   -4.8024    5.9361  -18.2927 C   0  0  0  0  0  0  0  0  0  0  0  0
   -6.0270    5.4494  -18.4921 N   0  0  0  0  0  0  0  0  0  0  0  0
   -6.8584    5.2357  -17.4539 C   0  0  0  0  0  0  0  0  0  0  0  0
   -8.0914    4.6348  -17.7348 C   0  0  0  0  0  0  0  0  0  0  0  0
   -8.4819    4.0370  -19.2893 Cl  0  0  0  0  0  0  0  0  0  0  0  0
   -9.0532    4.3870  -16.7787 C   0  0  0  0  0  0  0  0  0  0  0  0
   -8.7668    4.7104  -15.4840 C   0  0  0  0  0  0  0  0  0  0  0  0
   -7.5521    5.3178  -15.1385 C   0  0  0  0  0  0  0  0  0  0  0  0
   -7.5419    5.5253  -13.7688 N   0  0  0  0  0  0  0  0  0  0  0  0
   -6.9113    6.6493  -12.9337 C   0  0  0  0  0  0  0  0  0  0  0  0
   -6.3641    7.6234  -13.2676 O   0  0  0  0  0  0  0  0  0  0  0  0
   -7.1183    6.3007  -11.5135 C   0  0  0  0  0  0  0  0  0  0  0  0
   -7.3207    7.6052  -10.4105 S   0  0  0  0  0  0  0  0  0  0  0  0
   -7.6367    6.5525   -9.1135 C   0  0  0  0  0  0  0  0  0  0  0  0
   -7.5468    5.2350   -9.4926 C   0  0  0  0  0  0  0  0  0  0  0  0
   -7.1884    5.0566  -10.8688 C   0  0  0  0  0  0  0  0  0  0  0  0
   -6.9741    3.6520  -11.4228 C   0  0  0  0  0  0  0  0  0  0  0  0
   -5.8771    3.6307  -12.3999 N   0  0  0  0  0  0  0  0  0  0  0  0
   -4.5769    3.6641  -11.7165 C   0  0  0  0  0  0  0  0  0  0  0  0
   -5.9519    2.4333  -13.2333 C   0  0  0  0  0  0  0  0  0  0  0  0
   -6.5161    5.5530  -16.1092 C   0  0  0  0  0  0  0  0  0  0  0  0
  1  2  1  0
  2  3  2  0
  3  4  1  0
  4  5  2  0
  5  6  1  0
  6  7  2  0
  7  8  1  0
  7  9  1  0
  9 10  2  0
 10 11  1  0
 11 12  1  0
 12 13  1  0
 13 14  2  0
 13 15  1  0
 15 16  1  0
 16 17  1  0
 17 18  2  0
 18 19  1  0
 19 20  1  0
 20 21  1  0
 21 22  1  0
 21 23  1  0
 11 24  2  0
 24  2  1  0
 24  6  1  0
 19 15  2  0
M  END
>  <fragmenstein_outcome>  (177) 
nan

>  <exports>  (177) 
['/opt/xchem-fragalysis-2/maxwin/openbind-hippo/xx01zvns2b/cycle_01/syndirella/elabs/openbind_xx01zvns2b_c1_elab_chemspace_filtered.sdf']

>  <Energy>  (177) 
nan

>  <alias>  (177) 
None

>  <fragmenstein_runtime>  (177) 
nan

>  <scratch_subdir>  (177) 
nan

>  <HIPPO Compound ID>  (177) 
140043

>  <rmsd(smina/fragmenstein)>  (177) 
1.44

>  <distance_score>  (177) 
1.359004

>  <orig_smiles>  (177) 
nan

>  <fragmenstein_mode>  (177) 
nan

>  <inchikey>  (177) 
YXPSZNWUXGYYND-UHFFFAOYSA-N

>  <ref_pdb>  (177) 
Z0719a

>  <GNINA pK>  (177) 
nan

>  <gnina_score_min>  (177) 
5.48

>  <tags>  (177) 
openbind_xx01zvns2b_c1_elab_nonasap_filtered_scored_top80percent,openbind_xx01zvns2b_c1_elab_chemspace_filtered_scored_top80percent,openbind_xx01zvns2b_c1_elab_chemspace_filtered_scored,openbind_xx01zvns2b_c1_elab_chemspace_filtered_scored_top40percent,openbind_xx01zvns2b_c1_elab_chemspace_filtered_scored_top20percent,openbind_xx01zvns2b_c1_elab_chemspace_filtered_scored_top60percent,openbind_xx01zvns2b_c1_elabs_filtered

>  <smiles>  (177) 
Cc1ccnc2c(Cl)ccc(NC(=O)c3sccc3CN(C)C)c12

>  <subsites>  (177) 
1 - Z4590/B/203/1

>  <gnina_score>  (177) 
5.39

>  <HIPPO Pose ID>  (177) 
70014

>  <ref_mols>  (177) 
Z0719a,Z1688a

>  <energy_score>  (177) 
-42.682533

>  <inspiration_score>  (177) 
None

>  <smina_score_min>  (177) 
-6.254

>  <fragmenstein_error>  (177) 
nan

>  <name>  (177) 
P70014

$$$$
P70015
     RDKit          3D

 24 26  0  0  0  0  0  0  0  0999 V2000
   -7.2865    7.3332  -12.4598 O   0  0  0  0  0  0  0  0  0  0  0  0
   -6.7534    6.3105  -12.6392 C   0  0  0  0  0  0  0  0  0  0  0  0
   -6.5428    5.5078  -13.9385 N   0  0  0  0  0  0  0  0  0  0  0  0
   -7.0079    5.7371  -15.2261 C   0  0  0  0  0  0  0  0  0  0  0  0
   -8.3875    5.6481  -15.4159 C   0  0  0  0  0  0  0  0  0  0  0  0
   -9.6015    6.2816  -14.1293 Br  0  0  0  0  0  0  0  0  0  0  0  0
   -8.8868    5.0854  -16.5761 C   0  0  0  0  0  0  0  0  0  0  0  0
   -8.0126    4.7668  -17.6092 C   0  0  0  0  0  0  0  0  0  0  0  0
   -8.7232    4.0684  -19.0048 Cl  0  0  0  0  0  0  0  0  0  0  0  0
   -6.6382    5.0125  -17.5263 C   0  0  0  0  0  0  0  0  0  0  0  0
   -5.8076    4.8086  -18.5683 N   0  0  0  0  0  0  0  0  0  0  0  0
   -4.4899    5.0437  -18.4290 C   0  0  0  0  0  0  0  0  0  0  0  0
   -3.9119    5.4558  -17.2496 C   0  0  0  0  0  0  0  0  0  0  0  0
   -4.7469    5.6564  -16.1630 C   0  0  0  0  0  0  0  0  0  0  0  0
   -6.1348    5.4638  -16.2909 C   0  0  0  0  0  0  0  0  0  0  0  0
   -6.2357    5.5055  -11.5307 C   0  0  0  0  0  0  0  0  0  0  0  0
   -5.7385    6.2960  -10.0918 S   0  0  0  0  0  0  0  0  0  0  0  0
   -5.5139    4.8048   -9.2836 C   0  0  0  0  0  0  0  0  0  0  0  0
   -5.8275    3.7277  -10.0839 C   0  0  0  0  0  0  0  0  0  0  0  0
   -6.1952    4.1215  -11.3915 C   0  0  0  0  0  0  0  0  0  0  0  0
   -6.6477    3.2536  -12.3387 O   0  0  0  0  0  0  0  0  0  0  0  0
   -5.6326    2.4842  -12.9749 C   0  0  0  0  0  0  0  0  0  0  0  0
   -4.4149    2.6685  -12.4140 F   0  0  0  0  0  0  0  0  0  0  0  0
   -5.5373    2.9819  -14.2347 F   0  0  0  0  0  0  0  0  0  0  0  0
  1  2  2  0
  2  3  1  0
  3  4  1  0
  4  5  2  0
  5  6  1  0
  5  7  1  0
  7  8  2  0
  8  9  1  0
  8 10  1  0
 10 11  2  0
 11 12  1  0
 12 13  2  0
 13 14  1  0
 14 15  2  0
  2 16  1  0
 16 17  1  0
 17 18  1  0
 18 19  2  0
 19 20  1  0
 20 21  1  0
 21 22  1  0
 22 23  1  0
 22 24  1  0
 15  4  1  0
 20 16  2  0
 15 10  1  0
M  END
>  <fragmenstein_outcome>  (178) 
nan

>  <exports>  (178) 
['/opt/xchem-fragalysis-2/maxwin/openbind-hippo/xx01zvns2b/cycle_01/syndirella/elabs/openbind_xx01zvns2b_c1_elab_chemspace_filtered.sdf']

>  <Energy>  (178) 
nan

>  <alias>  (178) 
None

>  <fragmenstein_runtime>  (178) 
nan

>  <scratch_subdir>  (178) 
nan

>  <HIPPO Compound ID>  (178) 
140054

>  <rmsd(smina/fragmenstein)>  (178) 
1.971

>  <distance_score>  (178) 
1.491057

>  <orig_smiles>  (178) 
nan

>  <fragmenstein_mode>  (178) 
nan

>  <inchikey>  (178) 
SVQFFLQAWSCFCP-UHFFFAOYSA-N

>  <ref_pdb>  (178) 
Z0719a

>  <GNINA pK>  (178) 
nan

>  <gnina_score_min>  (178) 
5.551

>  <tags>  (178) 
openbind_xx01zvns2b_c1_elab_nonasap_filtered_scored_top80percent,openbind_xx01zvns2b_c1_elab_chemspace_filtered_scored_top80percent,openbind_xx01zvns2b_c1_elab_chemspace_filtered_scored,openbind_xx01zvns2b_c1_elab_chemspace_filtered_scored_top40percent,openbind_xx01zvns2b_c1_elab_chemspace_filtered_scored_top20percent,openbind_xx01zvns2b_c1_elab_chemspace_filtered_scored_top60percent,openbind_xx01zvns2b_c1_elabs_filtered

>  <smiles>  (178) 
O=C(Nc1c(Br)cc(Cl)c2ncccc12)c1sccc1OC(F)F

>  <subsites>  (178) 
1 - Z4590/B/203/1

>  <gnina_score>  (178) 
5.572

>  <HIPPO Pose ID>  (178) 
70015

>  <ref_mols>  (178) 
Z1688a,Z0719a

>  <energy_score>  (178) 
-5.989713

>  <inspiration_score>  (178) 
None

>  <smina_score_min>  (178) 
-6.149

>  <fragmenstein_error>  (178) 
nan

>  <name>  (178) 
P70015

$$$$
P70016
     RDKit          3D

 24 26  0  0  0  0  0  0  0  0999 V2000
   -5.1206    6.6932  -14.4169 C   0  0  0  0  0  0  0  0  0  0  0  0
   -5.4239    6.2318  -15.8126 C   0  0  0  0  0  0  0  0  0  0  0  0
   -4.3887    6.4593  -16.7325 C   0  0  0  0  0  0  0  0  0  0  0  0
   -4.5708    6.0911  -18.0355 C   0  0  0  0  0  0  0  0  0  0  0  0
   -5.6980    5.5281  -18.4669 N   0  0  0  0  0  0  0  0  0  0  0  0
   -6.7180    5.2871  -17.6167 C   0  0  0  0  0  0  0  0  0  0  0  0
   -7.8397    4.6195  -18.1233 C   0  0  0  0  0  0  0  0  0  0  0  0
   -7.8111    3.9356  -19.6891 Cl  0  0  0  0  0  0  0  0  0  0  0  0
   -8.9723    4.3324  -17.3843 C   0  0  0  0  0  0  0  0  0  0  0  0
   -8.9403    4.6064  -16.0484 C   0  0  0  0  0  0  0  0  0  0  0  0
   -7.8304    5.2335  -15.4796 C   0  0  0  0  0  0  0  0  0  0  0  0
   -7.8308    5.0436  -14.1166 N   0  0  0  0  0  0  0  0  0  0  0  0
   -7.7111    6.0534  -12.9692 C   0  0  0  0  0  0  0  0  0  0  0  0
   -7.6699    7.2176  -12.9887 O   0  0  0  0  0  0  0  0  0  0  0  0
   -7.5416    5.2809  -11.7326 C   0  0  0  0  0  0  0  0  0  0  0  0
   -7.6080    6.1194  -10.2313 S   0  0  0  0  0  0  0  0  0  0  0  0
   -7.4294    4.6682   -9.3523 C   0  0  0  0  0  0  0  0  0  0  0  0
   -7.2620    3.5746  -10.1717 C   0  0  0  0  0  0  0  0  0  0  0  0
   -7.2576    3.9319  -11.5388 C   0  0  0  0  0  0  0  0  0  0  0  0
   -7.0942    3.0220  -12.5441 O   0  0  0  0  0  0  0  0  0  0  0  0
   -5.7196    2.8478  -12.8829 C   0  0  0  0  0  0  0  0  0  0  0  0
   -5.4759    3.5643  -14.0060 F   0  0  0  0  0  0  0  0  0  0  0  0
   -5.5316    1.5529  -13.2194 F   0  0  0  0  0  0  0  0  0  0  0  0
   -6.6710    5.6304  -16.2430 C   0  0  0  0  0  0  0  0  0  0  0  0
  1  2  1  0
  2  3  2  0
  3  4  1  0
  4  5  2  0
  5  6  1  0
  6  7  2  0
  7  8  1  0
  7  9  1  0
  9 10  2  0
 10 11  1  0
 11 12  1  0
 12 13  1  0
 13 14  2  0
 13 15  1  0
 15 16  1  0
 16 17  1  0
 17 18  2  0
 18 19  1  0
 19 20  1  0
 20 21  1  0
 21 22  1  0
 21 23  1  0
 11 24  2  0
 24  2  1  0
 24  6  1  0
 19 15  2  0
M  END
>  <fragmenstein_outcome>  (179) 
nan

>  <exports>  (179) 
['/opt/xchem-fragalysis-2/maxwin/openbind-hippo/xx01zvns2b/cycle_01/syndirella/elabs/openbind_xx01zvns2b_c1_elab_chemspace_filtered.sdf']

>  <Energy>  (179) 
nan

>  <alias>  (179) 
None

>  <fragmenstein_runtime>  (179) 
nan

>  <scratch_subdir>  (179) 
nan

>  <HIPPO Compound ID>  (179) 
140055

>  <rmsd(smina/fragmenstein)>  (179) 
1.162

>  <distance_score>  (179) 
1.198873

>  <orig_smiles>  (179) 
nan

>  <fragmenstein_mode>  (179) 
nan

>  <inchikey>  (179) 
QJEXFPCYDWFDSN-UHFFFAOYSA-N

>  <ref_pdb>  (179) 
Z0719a

>  <GNINA pK>  (179) 
nan

>  <gnina_score_min>  (179) 
5.311

>  <tags>  (179) 
openbind_xx01zvns2b_c1_elab_nonasap_filtered_scored_top80percent,openbind_xx01zvns2b_c1_elab_chemspace_filtered_scored_top80percent,openbind_xx01zvns2b_c1_elab_chemspace_filtered_scored,openbind_xx01zvns2b_c1_elab_chemspace_filtered_scored_top40percent,openbind_xx01zvns2b_c1_elab_chemspace_filtered_scored_top20percent,openbind_xx01zvns2b_c1_elab_chemspace_filtered_scored_top60percent,openbind_xx01zvns2b_c1_elabs_filtered

>  <smiles>  (179) 
Cc1ccnc2c(Cl)ccc(NC(=O)c3sccc3OC(F)F)c12

>  <subsites>  (179) 
1 - Z4590/B/203/1

>  <gnina_score>  (179) 
5.432

>  <HIPPO Pose ID>  (179) 
70016

>  <ref_mols>  (179) 
Z0719a,Z1688a

>  <energy_score>  (179) 
-18.112389

>  <inspiration_score>  (179) 
None

>  <smina_score_min>  (179) 
-6.22

>  <fragmenstein_error>  (179) 
nan

>  <name>  (179) 
P70016

$$$$
P70017
     RDKit          3D

 24 26  0  0  0  0  0  0  0  0999 V2000
   -3.4832    1.7555  -12.9684 C   0  0  0  0  0  0  0  0  0  0  0  0
   -4.1749    2.7205  -12.1814 O   0  0  0  0  0  0  0  0  0  0  0  0
   -5.4914    2.4414  -11.9567 C   0  0  0  0  0  0  0  0  0  0  0  0
   -6.0979    1.4795  -12.4092 O   0  0  0  0  0  0  0  0  0  0  0  0
   -6.0547    3.5146  -11.1685 C   0  0  0  0  0  0  0  0  0  0  0  0
   -6.9843    3.1669   -9.7848 S   0  0  0  0  0  0  0  0  0  0  0  0
   -7.3688    4.8176   -9.5601 C   0  0  0  0  0  0  0  0  0  0  0  0
   -6.7807    5.6302  -10.4999 C   0  0  0  0  0  0  0  0  0  0  0  0
   -6.0425    4.8722  -11.4585 C   0  0  0  0  0  0  0  0  0  0  0  0
   -5.6253    5.3592  -12.7652 C   0  0  0  0  0  0  0  0  0  0  0  0
   -4.6294    5.9144  -12.9993 O   0  0  0  0  0  0  0  0  0  0  0  0
   -6.7719    4.9356  -13.6946 N   0  0  0  0  0  0  0  0  0  0  0  0
   -6.9763    5.1803  -15.0535 C   0  0  0  0  0  0  0  0  0  0  0  0
   -8.3442    5.2599  -15.3446 C   0  0  0  0  0  0  0  0  0  0  0  0
   -9.4649    6.0931  -14.0647 Br  0  0  0  0  0  0  0  0  0  0  0  0
   -8.8419    4.9227  -16.5760 C   0  0  0  0  0  0  0  0  0  0  0  0
   -7.9293    4.6854  -17.5871 C   0  0  0  0  0  0  0  0  0  0  0  0
   -8.5969    4.1293  -19.0657 Cl  0  0  0  0  0  0  0  0  0  0  0  0
   -6.5523    4.8939  -17.4194 C   0  0  0  0  0  0  0  0  0  0  0  0
   -5.7336    4.8655  -18.4883 N   0  0  0  0  0  0  0  0  0  0  0  0
   -4.4137    5.0435  -18.3277 C   0  0  0  0  0  0  0  0  0  0  0  0
   -3.8259    5.2156  -17.0993 C   0  0  0  0  0  0  0  0  0  0  0  0
   -4.6508    5.2258  -15.9826 C   0  0  0  0  0  0  0  0  0  0  0  0
   -6.0499    5.1158  -16.1103 C   0  0  0  0  0  0  0  0  0  0  0  0
  1  2  1  0
  2  3  1  0
  3  4  2  0
  3  5  1  0
  5  6  1  0
  6  7  1  0
  7  8  2  0
  8  9  1  0
  9 10  1  0
 10 11  2  0
 10 12  1  0
 12 13  1  0
 13 14  2  0
 14 15  1  0
 14 16  1  0
 16 17  2  0
 17 18  1  0
 17 19  1  0
 19 20  2  0
 20 21  1  0
 21 22  2  0
 22 23  1  0
 23 24  2  0
  9  5  2  0
 24 13  1  0
 24 19  1  0
M  END
>  <fragmenstein_outcome>  (180) 
nan

>  <exports>  (180) 
['/opt/xchem-fragalysis-2/maxwin/openbind-hippo/xx01zvns2b/cycle_01/syndirella/elabs/openbind_xx01zvns2b_c1_elab_chemspace_filtered.sdf']

>  <Energy>  (180) 
nan

>  <alias>  (180) 
None

>  <fragmenstein_runtime>  (180) 
nan

>  <scratch_subdir>  (180) 
nan

>  <HIPPO Compound ID>  (180) 
140062

>  <rmsd(smina/fragmenstein)>  (180) 
1.63

>  <distance_score>  (180) 
1.371816

>  <orig_smiles>  (180) 
nan

>  <fragmenstein_mode>  (180) 
nan

>  <inchikey>  (180) 
XQFLHSGHXXIHAZ-UHFFFAOYSA-N

>  <ref_pdb>  (180) 
Z0719a

>  <GNINA pK>  (180) 
nan

>  <gnina_score_min>  (180) 
5.264

>  <tags>  (180) 
openbind_xx01zvns2b_c1_elab_nonasap_filtered_scored_top80percent,openbind_xx01zvns2b_c1_elab_chemspace_filtered_scored_top80percent,openbind_xx01zvns2b_c1_elab_chemspace_filtered_scored,openbind_xx01zvns2b_c1_elab_chemspace_filtered_scored_top40percent,openbind_xx01zvns2b_c1_elab_chemspace_filtered_scored_top20percent,openbind_xx01zvns2b_c1_elab_chemspace_filtered_scored_top60percent,openbind_xx01zvns2b_c1_elabs_filtered

>  <smiles>  (180) 
COC(=O)c1sccc1C(=O)Nc1c(Br)cc(Cl)c2ncccc12

>  <subsites>  (180) 
1 - Z4590/B/203/1

>  <gnina_score>  (180) 
5.351

>  <HIPPO Pose ID>  (180) 
70017

>  <ref_mols>  (180) 
Z1688a,Z0719a

>  <energy_score>  (180) 
-8.782664

>  <inspiration_score>  (180) 
None

>  <smina_score_min>  (180) 
-6.366

>  <fragmenstein_error>  (180) 
nan

>  <name>  (180) 
P70017

$$$$
P70020
     RDKit          3D

 24 27  0  0  0  0  0  0  0  0999 V2000
   -4.5779    6.7214  -14.6969 C   0  0  0  0  0  0  0  0  0  0  0  0
   -5.0883    6.0458  -15.9437 C   0  0  0  0  0  0  0  0  0  0  0  0
   -4.1599    5.8532  -16.9711 C   0  0  0  0  0  0  0  0  0  0  0  0
   -4.5931    5.3092  -18.1550 C   0  0  0  0  0  0  0  0  0  0  0  0
   -5.8632    4.9454  -18.3697 N   0  0  0  0  0  0  0  0  0  0  0  0
   -6.7872    5.0996  -17.4001 C   0  0  0  0  0  0  0  0  0  0  0  0
   -8.1123    4.7129  -17.6347 C   0  0  0  0  0  0  0  0  0  0  0  0
   -8.5944    4.0053  -19.1191 Cl  0  0  0  0  0  0  0  0  0  0  0  0
   -9.1202    4.8687  -16.6934 C   0  0  0  0  0  0  0  0  0  0  0  0
   -8.8146    5.4148  -15.4666 C   0  0  0  0  0  0  0  0  0  0  0  0
   -7.4971    5.7426  -15.1710 C   0  0  0  0  0  0  0  0  0  0  0  0
   -7.2045    5.8322  -13.8232 N   0  0  0  0  0  0  0  0  0  0  0  0
   -8.0615    6.3517  -12.6381 C   0  0  0  0  0  0  0  0  0  0  0  0
   -9.1158    6.8550  -12.6297 O   0  0  0  0  0  0  0  0  0  0  0  0
   -7.2917    5.9798  -11.4692 C   0  0  0  0  0  0  0  0  0  0  0  0
   -6.2873    7.0442  -10.6203 S   0  0  0  0  0  0  0  0  0  0  0  0
   -5.2612    5.7347  -10.1495 C   0  0  0  0  0  0  0  0  0  0  0  0
   -5.7239    4.5186  -10.6213 C   0  0  0  0  0  0  0  0  0  0  0  0
   -7.0348    4.6532  -11.1735 C   0  0  0  0  0  0  0  0  0  0  0  0
   -7.7906    3.4667  -11.7026 C   0  0  0  0  0  0  0  0  0  0  0  0
   -6.8064    2.4926  -12.3423 C   0  0  0  0  0  0  0  0  0  0  0  0
   -5.7730    2.0498  -11.3118 C   0  0  0  0  0  0  0  0  0  0  0  0
   -4.9656    3.2175  -10.7143 C   0  0  0  0  0  0  0  0  0  0  0  0
   -6.4510    5.6355  -16.1335 C   0  0  0  0  0  0  0  0  0  0  0  0
  1  2  1  0
  2  3  2  0
  3  4  1  0
  4  5  2  0
  5  6  1  0
  6  7  2  0
  7  8  1  0
  7  9  1  0
  9 10  2  0
 10 11  1  0
 11 12  1  0
 12 13  1  0
 13 14  2  0
 13 15  1  0
 15 16  1  0
 16 17  1  0
 17 18  2  0
 18 19  1  0
 19 20  1  0
 20 21  1  0
 21 22  1  0
 22 23  1  0
 11 24  2  0
 24  2  1  0
 24  6  1  0
 19 15  2  0
 23 18  1  0
M  END
>  <fragmenstein_outcome>  (181) 
nan

>  <exports>  (181) 
['/opt/xchem-fragalysis-2/maxwin/openbind-hippo/xx01zvns2b/cycle_01/syndirella/elabs/openbind_xx01zvns2b_c1_elab_chemspace_filtered.sdf']

>  <Energy>  (181) 
nan

>  <alias>  (181) 
None

>  <fragmenstein_runtime>  (181) 
nan

>  <scratch_subdir>  (181) 
nan

>  <HIPPO Compound ID>  (181) 
140095

>  <rmsd(smina/fragmenstein)>  (181) 
0.457

>  <distance_score>  (181) 
1.651447

>  <orig_smiles>  (181) 
nan

>  <fragmenstein_mode>  (181) 
nan

>  <inchikey>  (181) 
PAATVYXRXKFSTC-UHFFFAOYSA-N

>  <ref_pdb>  (181) 
Z0719a

>  <GNINA pK>  (181) 
nan

>  <gnina_score_min>  (181) 
5.448

>  <tags>  (181) 
openbind_xx01zvns2b_c1_elab_nonasap_filtered_scored_top80percent,openbind_xx01zvns2b_c1_elab_chemspace_filtered_scored_top80percent,openbind_xx01zvns2b_c1_elab_chemspace_filtered_scored,openbind_xx01zvns2b_c1_elab_chemspace_filtered_scored_top40percent,openbind_xx01zvns2b_c1_elab_chemspace_filtered_scored_top20percent,openbind_xx01zvns2b_c1_elab_chemspace_filtered_scored_top60percent,openbind_xx01zvns2b_c1_elabs_filtered

>  <smiles>  (181) 
Cc1ccnc2c(Cl)ccc(NC(=O)c3scc4c3CCCC4)c12

>  <subsites>  (181) 
1 - Z4590/B/203/1

>  <gnina_score>  (181) 
5.542

>  <HIPPO Pose ID>  (181) 
70020

>  <ref_mols>  (181) 
Z0719a,Z1688a

>  <energy_score>  (181) 
-25.332049

>  <inspiration_score>  (181) 
None

>  <smina_score_min>  (181) 
-5.839

>  <fragmenstein_error>  (181) 
nan

>  <name>  (181) 
P70020

$$$$
P70021
     RDKit          3D

 24 26  0  0  0  0  0  0  0  0999 V2000
   -4.2441    5.7819  -13.4511 O   0  0  0  0  0  0  0  0  0  0  0  0
   -5.3394    5.7415  -13.0535 C   0  0  0  0  0  0  0  0  0  0  0  0
   -6.6814    5.7765  -13.8134 N   0  0  0  0  0  0  0  0  0  0  0  0
   -6.9498    5.7725  -15.1881 C   0  0  0  0  0  0  0  0  0  0  0  0
   -8.3293    5.5971  -15.3994 C   0  0  0  0  0  0  0  0  0  0  0  0
   -9.5315    6.2380  -14.0795 Br  0  0  0  0  0  0  0  0  0  0  0  0
   -8.8212    5.0256  -16.5493 C   0  0  0  0  0  0  0  0  0  0  0  0
   -7.9274    4.7553  -17.5720 C   0  0  0  0  0  0  0  0  0  0  0  0
   -8.6115    4.0530  -18.9835 Cl  0  0  0  0  0  0  0  0  0  0  0  0
   -6.5704    5.0979  -17.4906 C   0  0  0  0  0  0  0  0  0  0  0  0
   -5.7692    4.9244  -18.5577 N   0  0  0  0  0  0  0  0  0  0  0  0
   -4.4832    5.3052  -18.5000 C   0  0  0  0  0  0  0  0  0  0  0  0
   -3.9220    5.8865  -17.3902 C   0  0  0  0  0  0  0  0  0  0  0  0
   -4.7305    6.0641  -16.2772 C   0  0  0  0  0  0  0  0  0  0  0  0
   -6.0728    5.6438  -16.2774 C   0  0  0  0  0  0  0  0  0  0  0  0
   -5.7465    5.5416  -11.6831 C   0  0  0  0  0  0  0  0  0  0  0  0
   -6.3332    6.8605  -10.7664 S   0  0  0  0  0  0  0  0  0  0  0  0
   -7.0443    5.8026   -9.6247 C   0  0  0  0  0  0  0  0  0  0  0  0
   -6.8058    4.4783   -9.9224 C   0  0  0  0  0  0  0  0  0  0  0  0
   -6.0340    4.3193  -11.1049 C   0  0  0  0  0  0  0  0  0  0  0  0
   -5.5870    2.7136  -11.6724 S   0  0  0  0  0  0  0  0  0  0  0  0
   -6.2804    2.5551  -13.3060 C   0  0  0  0  0  0  0  0  0  0  0  0
   -5.6013    3.2930  -14.2137 F   0  0  0  0  0  0  0  0  0  0  0  0
   -6.1103    1.2687  -13.6888 F   0  0  0  0  0  0  0  0  0  0  0  0
  1  2  2  0
  2  3  1  0
  3  4  1  0
  4  5  2  0
  5  6  1  0
  5  7  1  0
  7  8  2  0
  8  9  1  0
  8 10  1  0
 10 11  2  0
 11 12  1  0
 12 13  2  0
 13 14  1  0
 14 15  2  0
  2 16  1  0
 16 17  1  0
 17 18  1  0
 18 19  2  0
 19 20  1  0
 20 21  1  0
 21 22  1  0
 22 23  1  0
 22 24  1  0
 15  4  1  0
 20 16  2  0
 15 10  1  0
M  END
>  <fragmenstein_outcome>  (182) 
nan

>  <exports>  (182) 
['/opt/xchem-fragalysis-2/maxwin/openbind-hippo/xx01zvns2b/cycle_01/syndirella/elabs/openbind_xx01zvns2b_c1_elab_chemspace_filtered.sdf']

>  <Energy>  (182) 
nan

>  <alias>  (182) 
None

>  <fragmenstein_runtime>  (182) 
nan

>  <scratch_subdir>  (182) 
nan

>  <HIPPO Compound ID>  (182) 
140136

>  <rmsd(smina/fragmenstein)>  (182) 
1.425

>  <distance_score>  (182) 
1.410385

>  <orig_smiles>  (182) 
nan

>  <fragmenstein_mode>  (182) 
nan

>  <inchikey>  (182) 
AUFPPWDLYCNGSF-UHFFFAOYSA-N

>  <ref_pdb>  (182) 
Z0719a

>  <GNINA pK>  (182) 
nan

>  <gnina_score_min>  (182) 
5.687

>  <tags>  (182) 
openbind_xx01zvns2b_c1_elab_nonasap_filtered_scored_top80percent,openbind_xx01zvns2b_c1_elab_chemspace_filtered_scored_top80percent,openbind_xx01zvns2b_c1_elab_chemspace_filtered_scored,openbind_xx01zvns2b_c1_elab_chemspace_filtered_scored_top40percent,openbind_xx01zvns2b_c1_elab_chemspace_filtered_scored_top20percent,openbind_xx01zvns2b_c1_elab_chemspace_filtered_scored_top60percent,openbind_xx01zvns2b_c1_elabs_filtered

>  <smiles>  (182) 
O=C(Nc1c(Br)cc(Cl)c2ncccc12)c1sccc1SC(F)F

>  <subsites>  (182) 
1 - Z4590/B/203/1

>  <gnina_score>  (182) 
5.919

>  <HIPPO Pose ID>  (182) 
70021

>  <ref_mols>  (182) 
Z0719a,Z1688a

>  <energy_score>  (182) 
-2.973716

>  <inspiration_score>  (182) 
None

>  <smina_score_min>  (182) 
-5.319

>  <fragmenstein_error>  (182) 
nan

>  <name>  (182) 
P70021

$$$$
P70022
     RDKit          3D

 24 26  0  0  0  0  0  0  0  0999 V2000
   -4.4647    6.0194  -14.6378 C   0  0  0  0  0  0  0  0  0  0  0  0
   -5.1557    5.8787  -15.9640 C   0  0  0  0  0  0  0  0  0  0  0  0
   -4.3069    6.1265  -17.0553 C   0  0  0  0  0  0  0  0  0  0  0  0
   -4.7730    5.9032  -18.3194 C   0  0  0  0  0  0  0  0  0  0  0  0
   -6.0026    5.4477  -18.5532 N   0  0  0  0  0  0  0  0  0  0  0  0
   -6.8589    5.2231  -17.5379 C   0  0  0  0  0  0  0  0  0  0  0  0
   -8.0959    4.6479  -17.8591 C   0  0  0  0  0  0  0  0  0  0  0  0
   -8.4126    4.0043  -19.4075 Cl  0  0  0  0  0  0  0  0  0  0  0  0
   -9.1048    4.4245  -16.9463 C   0  0  0  0  0  0  0  0  0  0  0  0
   -8.8385    4.6916  -15.6382 C   0  0  0  0  0  0  0  0  0  0  0  0
   -7.6005    5.2131  -15.2476 C   0  0  0  0  0  0  0  0  0  0  0  0
   -7.5280    5.1559  -13.8727 N   0  0  0  0  0  0  0  0  0  0  0  0
   -6.9313    6.1417  -12.8655 C   0  0  0  0  0  0  0  0  0  0  0  0
   -6.4717    7.1996  -13.0257 O   0  0  0  0  0  0  0  0  0  0  0  0
   -6.9304    5.4661  -11.5622 C   0  0  0  0  0  0  0  0  0  0  0  0
   -6.8686    6.4723  -10.1644 S   0  0  0  0  0  0  0  0  0  0  0  0
   -7.0260    5.1344   -9.1249 C   0  0  0  0  0  0  0  0  0  0  0  0
   -7.0790    3.9433   -9.8100 C   0  0  0  0  0  0  0  0  0  0  0  0
   -6.9842    4.1162  -11.2153 C   0  0  0  0  0  0  0  0  0  0  0  0
   -7.1055    2.6672  -12.2472 S   0  0  0  0  0  0  0  0  0  0  0  0
   -5.5248    2.5334  -13.0758 C   0  0  0  0  0  0  0  0  0  0  0  0
   -4.5186    3.1142  -12.3843 F   0  0  0  0  0  0  0  0  0  0  0  0
   -5.5762    3.1489  -14.2803 F   0  0  0  0  0  0  0  0  0  0  0  0
   -6.5367    5.4902  -16.1806 C   0  0  0  0  0  0  0  0  0  0  0  0
  1  2  1  0
  2  3  2  0
  3  4  1  0
  4  5  2  0
  5  6  1  0
  6  7  2  0
  7  8  1  0
  7  9  1  0
  9 10  2  0
 10 11  1  0
 11 12  1  0
 12 13  1  0
 13 14  2  0
 13 15  1  0
 15 16  1  0
 16 17  1  0
 17 18  2  0
 18 19  1  0
 19 20  1  0
 20 21  1  0
 21 22  1  0
 21 23  1  0
 11 24  2  0
 24  2  1  0
 24  6  1  0
 19 15  2  0
M  END
>  <fragmenstein_outcome>  (183) 
nan

>  <exports>  (183) 
['/opt/xchem-fragalysis-2/maxwin/openbind-hippo/xx01zvns2b/cycle_01/syndirella/elabs/openbind_xx01zvns2b_c1_elab_chemspace_filtered.sdf']

>  <Energy>  (183) 
nan

>  <alias>  (183) 
None

>  <fragmenstein_runtime>  (183) 
nan

>  <scratch_subdir>  (183) 
nan

>  <HIPPO Compound ID>  (183) 
140137

>  <rmsd(smina/fragmenstein)>  (183) 
1.92

>  <distance_score>  (183) 
1.112547

>  <orig_smiles>  (183) 
nan

>  <fragmenstein_mode>  (183) 
nan

>  <inchikey>  (183) 
NUBKETCPBRNKNE-UHFFFAOYSA-N

>  <ref_pdb>  (183) 
Z0719a

>  <GNINA pK>  (183) 
nan

>  <gnina_score_min>  (183) 
5.554

>  <tags>  (183) 
openbind_xx01zvns2b_c1_elab_nonasap_filtered_scored_top80percent,openbind_xx01zvns2b_c1_elab_chemspace_filtered_scored_top80percent,openbind_xx01zvns2b_c1_elab_chemspace_filtered_scored,openbind_xx01zvns2b_c1_elab_chemspace_filtered_scored_top40percent,openbind_xx01zvns2b_c1_elab_chemspace_filtered_scored_top20percent,openbind_xx01zvns2b_c1_elab_chemspace_filtered_scored_top60percent,openbind_xx01zvns2b_c1_elabs_filtered

>  <smiles>  (183) 
Cc1ccnc2c(Cl)ccc(NC(=O)c3sccc3SC(F)F)c12

>  <subsites>  (183) 
1 - Z4590/B/203/1

>  <gnina_score>  (183) 
5.603

>  <HIPPO Pose ID>  (183) 
70022

>  <ref_mols>  (183) 
Z1688a,Z0719a

>  <energy_score>  (183) 
-16.679632

>  <inspiration_score>  (183) 
None

>  <smina_score_min>  (183) 
-6.002

>  <fragmenstein_error>  (183) 
nan

>  <name>  (183) 
P70022

$$$$
P70023
     RDKit          3D

 24 26  0  0  0  0  0  0  0  0999 V2000
   -6.4916    3.1020  -14.3830 N   0  0  0  0  0  0  0  0  0  0  0  0
   -5.8441    2.5617  -12.9484 S   0  0  0  0  0  0  0  0  0  0  0  0
   -4.4196    2.4651  -13.1476 O   0  0  0  0  0  0  0  0  0  0  0  0
   -6.6800    1.4484  -12.5814 O   0  0  0  0  0  0  0  0  0  0  0  0
   -6.0465    3.8002  -11.7325 C   0  0  0  0  0  0  0  0  0  0  0  0
   -6.7292    3.6391  -10.4984 C   0  0  0  0  0  0  0  0  0  0  0  0
   -6.7977    4.8256   -9.7923 C   0  0  0  0  0  0  0  0  0  0  0  0
   -6.0698    6.1385  -10.6314 S   0  0  0  0  0  0  0  0  0  0  0  0
   -5.6619    5.1206  -11.9286 C   0  0  0  0  0  0  0  0  0  0  0  0
   -5.3173    5.6245  -13.2356 C   0  0  0  0  0  0  0  0  0  0  0  0
   -4.2436    5.8055  -13.6486 O   0  0  0  0  0  0  0  0  0  0  0  0
   -6.6856    5.7460  -13.9273 N   0  0  0  0  0  0  0  0  0  0  0  0
   -7.0099    6.0151  -15.2612 C   0  0  0  0  0  0  0  0  0  0  0  0
   -8.3845    5.7868  -15.4357 C   0  0  0  0  0  0  0  0  0  0  0  0
   -9.5608    6.3466  -14.0615 Br  0  0  0  0  0  0  0  0  0  0  0  0
   -8.8622    5.1359  -16.5512 C   0  0  0  0  0  0  0  0  0  0  0  0
   -7.9710    4.8577  -17.5779 C   0  0  0  0  0  0  0  0  0  0  0  0
   -8.6365    4.0527  -18.9429 Cl  0  0  0  0  0  0  0  0  0  0  0  0
   -6.6263    5.2566  -17.5327 C   0  0  0  0  0  0  0  0  0  0  0  0
   -5.8107    5.0338  -18.5792 N   0  0  0  0  0  0  0  0  0  0  0  0
   -4.5344    5.4529  -18.5388 C   0  0  0  0  0  0  0  0  0  0  0  0
   -3.9942    6.1164  -17.4638 C   0  0  0  0  0  0  0  0  0  0  0  0
   -4.8138    6.3415  -16.3689 C   0  0  0  0  0  0  0  0  0  0  0  0
   -6.1425    5.8847  -16.3575 C   0  0  0  0  0  0  0  0  0  0  0  0
  1  2  1  0
  2  3  2  0
  2  4  2  0
  2  5  1  0
  5  6  1  0
  6  7  2  0
  7  8  1  0
  8  9  1  0
  9 10  1  0
 10 11  2  0
 10 12  1  0
 12 13  1  0
 13 14  2  0
 14 15  1  0
 14 16  1  0
 16 17  2  0
 17 18  1  0
 17 19  1  0
 19 20  2  0
 20 21  1  0
 21 22  2  0
 22 23  1  0
 23 24  2  0
  9  5  2  0
 24 13  1  0
 24 19  1  0
M  END
>  <fragmenstein_outcome>  (184) 
nan

>  <exports>  (184) 
['/opt/xchem-fragalysis-2/maxwin/openbind-hippo/xx01zvns2b/cycle_01/syndirella/elabs/openbind_xx01zvns2b_c1_elab_chemspace_filtered.sdf']

>  <Energy>  (184) 
nan

>  <alias>  (184) 
None

>  <fragmenstein_runtime>  (184) 
nan

>  <scratch_subdir>  (184) 
nan

>  <HIPPO Compound ID>  (184) 
140140

>  <rmsd(smina/fragmenstein)>  (184) 
0.795

>  <distance_score>  (184) 
1.348704

>  <orig_smiles>  (184) 
nan

>  <fragmenstein_mode>  (184) 
nan

>  <inchikey>  (184) 
SPVYGXFYLZBJMT-UHFFFAOYSA-N

>  <ref_pdb>  (184) 
Z0719a

>  <GNINA pK>  (184) 
nan

>  <gnina_score_min>  (184) 
5.563

>  <tags>  (184) 
openbind_xx01zvns2b_c1_elab_nonasap_filtered_scored_top80percent,openbind_xx01zvns2b_c1_elab_chemspace_filtered_scored_top80percent,openbind_xx01zvns2b_c1_elab_chemspace_filtered_scored,openbind_xx01zvns2b_c1_elab_chemspace_filtered_scored_top40percent,openbind_xx01zvns2b_c1_elab_chemspace_filtered_scored_top20percent,openbind_xx01zvns2b_c1_elab_chemspace_filtered_scored_top60percent,openbind_xx01zvns2b_c1_elabs_filtered

>  <smiles>  (184) 
NS(=O)(=O)c1ccsc1C(=O)Nc1c(Br)cc(Cl)c2ncccc12

>  <subsites>  (184) 
1 - Z4590/B/203/1

>  <gnina_score>  (184) 
5.594

>  <HIPPO Pose ID>  (184) 
70023

>  <ref_mols>  (184) 
Z0719a,Z1688a

>  <energy_score>  (184) 
-5.256775

>  <inspiration_score>  (184) 
None

>  <smina_score_min>  (184) 
-6.386

>  <fragmenstein_error>  (184) 
nan

>  <name>  (184) 
P70023

$$$$
P70024
     RDKit          3D

 24 26  0  0  0  0  0  0  0  0999 V2000
   -4.5874    6.8399  -15.0256 C   0  0  0  0  0  0  0  0  0  0  0  0
   -5.2304    6.2119  -16.2259 C   0  0  0  0  0  0  0  0  0  0  0  0
   -4.3993    6.2152  -17.3593 C   0  0  0  0  0  0  0  0  0  0  0  0
   -4.8848    5.7319  -18.5388 C   0  0  0  0  0  0  0  0  0  0  0  0
   -6.1261    5.2680  -18.6547 N   0  0  0  0  0  0  0  0  0  0  0  0
   -6.9546    5.2347  -17.5958 C   0  0  0  0  0  0  0  0  0  0  0  0
   -8.2171    4.6728  -17.8141 C   0  0  0  0  0  0  0  0  0  0  0  0
   -8.6512    3.9900  -19.3166 Cl  0  0  0  0  0  0  0  0  0  0  0  0
   -9.1814    4.5422  -16.8378 C   0  0  0  0  0  0  0  0  0  0  0  0
   -8.8481    4.9072  -15.5679 C   0  0  0  0  0  0  0  0  0  0  0  0
   -7.5983    5.4701  -15.2837 C   0  0  0  0  0  0  0  0  0  0  0  0
   -7.3793    5.3442  -13.9260 N   0  0  0  0  0  0  0  0  0  0  0  0
   -6.7671    6.3239  -12.9208 C   0  0  0  0  0  0  0  0  0  0  0  0
   -6.4177    7.4259  -13.0575 O   0  0  0  0  0  0  0  0  0  0  0  0
   -6.5776    5.5847  -11.6811 C   0  0  0  0  0  0  0  0  0  0  0  0
   -6.9572    6.3875  -10.2137 S   0  0  0  0  0  0  0  0  0  0  0  0
   -6.7593    4.9486   -9.3205 C   0  0  0  0  0  0  0  0  0  0  0  0
   -6.3283    3.9020  -10.1052 C   0  0  0  0  0  0  0  0  0  0  0  0
   -6.1565    4.2755  -11.4699 C   0  0  0  0  0  0  0  0  0  0  0  0
   -5.6509    3.1084  -12.6802 S   0  0  0  0  0  0  0  0  0  0  0  0
   -7.0762    2.3967  -13.1919 N   0  0  0  0  0  0  0  0  0  0  0  0
   -4.8922    2.1137  -11.9707 O   0  0  0  0  0  0  0  0  0  0  0  0
   -5.1053    3.8388  -13.7914 O   0  0  0  0  0  0  0  0  0  0  0  0
   -6.5878    5.6933  -16.3008 C   0  0  0  0  0  0  0  0  0  0  0  0
  1  2  1  0
  2  3  2  0
  3  4  1  0
  4  5  2  0
  5  6  1  0
  6  7  2  0
  7  8  1  0
  7  9  1  0
  9 10  2  0
 10 11  1  0
 11 12  1  0
 12 13  1  0
 13 14  2  0
 13 15  1  0
 15 16  1  0
 16 17  1  0
 17 18  2  0
 18 19  1  0
 19 20  1  0
 20 21  1  0
 20 22  2  0
 20 23  2  0
 11 24  2  0
 24  2  1  0
 24  6  1  0
 19 15  2  0
M  END
>  <fragmenstein_outcome>  (185) 
nan

>  <exports>  (185) 
['/opt/xchem-fragalysis-2/maxwin/openbind-hippo/xx01zvns2b/cycle_01/syndirella/elabs/openbind_xx01zvns2b_c1_elab_chemspace_filtered.sdf']

>  <Energy>  (185) 
nan

>  <alias>  (185) 
None

>  <fragmenstein_runtime>  (185) 
nan

>  <scratch_subdir>  (185) 
nan

>  <HIPPO Compound ID>  (185) 
140141

>  <rmsd(smina/fragmenstein)>  (185) 
1.173

>  <distance_score>  (185) 
1.150032

>  <orig_smiles>  (185) 
nan

>  <fragmenstein_mode>  (185) 
nan

>  <inchikey>  (185) 
CRVVBGAYLBVECV-UHFFFAOYSA-N

>  <ref_pdb>  (185) 
Z0719a

>  <GNINA pK>  (185) 
nan

>  <gnina_score_min>  (185) 
5.255

>  <tags>  (185) 
openbind_xx01zvns2b_c1_elab_nonasap_filtered_scored_top80percent,openbind_xx01zvns2b_c1_elab_chemspace_filtered_scored_top80percent,openbind_xx01zvns2b_c1_elab_chemspace_filtered_scored,openbind_xx01zvns2b_c1_elab_chemspace_filtered_scored_top40percent,openbind_xx01zvns2b_c1_elab_chemspace_filtered_scored_top20percent,openbind_xx01zvns2b_c1_elab_chemspace_filtered_scored_top60percent,openbind_xx01zvns2b_c1_elabs_filtered

>  <smiles>  (185) 
Cc1ccnc2c(Cl)ccc(NC(=O)c3sccc3S(N)(=O)=O)c12

>  <subsites>  (185) 
1 - Z4590/B/203/1

>  <gnina_score>  (185) 
5.341

>  <HIPPO Pose ID>  (185) 
70024

>  <ref_mols>  (185) 
Z1688a,Z0719a

>  <energy_score>  (185) 
-18.894125

>  <inspiration_score>  (185) 
None

>  <smina_score_min>  (185) 
-6.297

>  <fragmenstein_error>  (185) 
nan

>  <name>  (185) 
P70024

$$$$
P70025
     RDKit          3D

 24 26  0  0  0  0  0  0  0  0999 V2000
   -5.3840    8.3109  -15.5438 C   0  0  0  0  0  0  0  0  0  0  0  0
   -5.4804    7.0504  -16.3701 C   0  0  0  0  0  0  0  0  0  0  0  0
   -4.5274    6.9176  -17.3842 C   0  0  0  0  0  0  0  0  0  0  0  0
   -4.7729    6.0239  -18.3946 C   0  0  0  0  0  0  0  0  0  0  0  0
   -5.9135    5.3295  -18.4816 N   0  0  0  0  0  0  0  0  0  0  0  0
   -6.8355    5.4172  -17.5020 C   0  0  0  0  0  0  0  0  0  0  0  0
   -8.0676    4.7684  -17.6555 C   0  0  0  0  0  0  0  0  0  0  0  0
   -8.4956    3.9786  -19.1155 Cl  0  0  0  0  0  0  0  0  0  0  0  0
   -9.0353    4.7502  -16.6642 C   0  0  0  0  0  0  0  0  0  0  0  0
   -8.7352    5.3135  -15.4462 C   0  0  0  0  0  0  0  0  0  0  0  0
   -7.4987    5.9445  -15.2383 C   0  0  0  0  0  0  0  0  0  0  0  0
   -7.1330    5.8045  -13.8951 N   0  0  0  0  0  0  0  0  0  0  0  0
   -5.8058    6.1311  -13.1773 C   0  0  0  0  0  0  0  0  0  0  0  0
   -4.8356    6.6399  -13.5766 O   0  0  0  0  0  0  0  0  0  0  0  0
   -5.9536    5.5716  -11.8632 C   0  0  0  0  0  0  0  0  0  0  0  0
   -6.3602    6.5420  -10.5351 S   0  0  0  0  0  0  0  0  0  0  0  0
   -6.6488    5.1551   -9.5775 C   0  0  0  0  0  0  0  0  0  0  0  0
   -6.4305    3.9867  -10.2791 C   0  0  0  0  0  0  0  0  0  0  0  0
   -5.9516    4.2018  -11.6168 C   0  0  0  0  0  0  0  0  0  0  0  0
   -5.6026    3.0626  -12.6248 C   0  0  0  0  0  0  0  0  0  0  0  0
   -4.8178    3.5014  -13.8812 C   0  0  0  0  0  0  0  0  0  0  0  0
   -6.8923    2.3772  -13.0944 C   0  0  0  0  0  0  0  0  0  0  0  0
   -4.6940    2.0296  -11.9307 C   0  0  0  0  0  0  0  0  0  0  0  0
   -6.5986    6.1635  -16.3212 C   0  0  0  0  0  0  0  0  0  0  0  0
  1  2  1  0
  2  3  2  0
  3  4  1  0
  4  5  2  0
  5  6  1  0
  6  7  2  0
  7  8  1  0
  7  9  1  0
  9 10  2  0
 10 11  1  0
 11 12  1  0
 12 13  1  0
 13 14  2  0
 13 15  1  0
 15 16  1  0
 16 17  1  0
 17 18  2  0
 18 19  1  0
 19 20  1  0
 20 21  1  0
 20 22  1  0
 20 23  1  0
 11 24  2  0
 24  2  1  0
 24  6  1  0
 19 15  2  0
M  END
>  <fragmenstein_outcome>  (186) 
nan

>  <exports>  (186) 
['/opt/xchem-fragalysis-2/maxwin/openbind-hippo/xx01zvns2b/cycle_01/syndirella/elabs/openbind_xx01zvns2b_c1_elab_chemspace_filtered.sdf']

>  <Energy>  (186) 
nan

>  <alias>  (186) 
None

>  <fragmenstein_runtime>  (186) 
nan

>  <scratch_subdir>  (186) 
nan

>  <HIPPO Compound ID>  (186) 
140143

>  <rmsd(smina/fragmenstein)>  (186) 
0.842

>  <distance_score>  (186) 
1.378648

>  <orig_smiles>  (186) 
nan

>  <fragmenstein_mode>  (186) 
nan

>  <inchikey>  (186) 
UKSGLCJFYGUFOK-UHFFFAOYSA-N

>  <ref_pdb>  (186) 
Z0719a

>  <GNINA pK>  (186) 
nan

>  <gnina_score_min>  (186) 
5.422

>  <tags>  (186) 
openbind_xx01zvns2b_c1_elab_nonasap_filtered_scored_top80percent,openbind_xx01zvns2b_c1_elab_chemspace_filtered_scored_top80percent,openbind_xx01zvns2b_c1_elab_chemspace_filtered_scored,openbind_xx01zvns2b_c1_elab_chemspace_filtered_scored_top40percent,openbind_xx01zvns2b_c1_elab_chemspace_filtered_scored_top20percent,openbind_xx01zvns2b_c1_elab_chemspace_filtered_scored_top60percent,openbind_xx01zvns2b_c1_elabs_filtered

>  <smiles>  (186) 
Cc1ccnc2c(Cl)ccc(NC(=O)c3sccc3C(C)(C)C)c12

>  <subsites>  (186) 
1 - Z4590/B/203/1

>  <gnina_score>  (186) 
5.431

>  <HIPPO Pose ID>  (186) 
70025

>  <ref_mols>  (186) 
Z0719a,Z1688a

>  <energy_score>  (186) 
-20.746331

>  <inspiration_score>  (186) 
None

>  <smina_score_min>  (186) 
-5.213

>  <fragmenstein_error>  (186) 
nan

>  <name>  (186) 
P70025

$$$$
P70026
     RDKit          3D

 24 26  0  0  0  0  0  0  0  0999 V2000
   -5.3239    8.3000  -15.6108 C   0  0  0  0  0  0  0  0  0  0  0  0
   -5.4511    7.0536  -16.4525 C   0  0  0  0  0  0  0  0  0  0  0  0
   -4.5162    6.9171  -17.4820 C   0  0  0  0  0  0  0  0  0  0  0  0
   -4.7830    6.0260  -18.4901 C   0  0  0  0  0  0  0  0  0  0  0  0
   -5.9291    5.3387  -18.5632 N   0  0  0  0  0  0  0  0  0  0  0  0
   -6.8278    5.4202  -17.5627 C   0  0  0  0  0  0  0  0  0  0  0  0
   -8.0605    4.7661  -17.6889 C   0  0  0  0  0  0  0  0  0  0  0  0
   -8.5155    3.9684  -19.1357 Cl  0  0  0  0  0  0  0  0  0  0  0  0
   -9.0123    4.7514  -16.6816 C   0  0  0  0  0  0  0  0  0  0  0  0
   -8.6949    5.3275  -15.4750 C   0  0  0  0  0  0  0  0  0  0  0  0
   -7.4545    5.9618  -15.2950 C   0  0  0  0  0  0  0  0  0  0  0  0
   -7.0787    5.8710  -13.9532 N   0  0  0  0  0  0  0  0  0  0  0  0
   -5.7129    6.1276  -13.2721 C   0  0  0  0  0  0  0  0  0  0  0  0
   -4.7109    6.5292  -13.7141 O   0  0  0  0  0  0  0  0  0  0  0  0
   -5.8809    5.6614  -11.9267 C   0  0  0  0  0  0  0  0  0  0  0  0
   -6.3646    6.6648  -10.6512 S   0  0  0  0  0  0  0  0  0  0  0  0
   -6.6560    5.2978   -9.6515 C   0  0  0  0  0  0  0  0  0  0  0  0
   -6.3660    4.1059  -10.2880 C   0  0  0  0  0  0  0  0  0  0  0  0
   -5.8914    4.3165  -11.6114 C   0  0  0  0  0  0  0  0  0  0  0  0
   -5.5520    3.0270  -12.7540 S   0  0  0  0  0  0  0  0  0  0  0  0
   -7.1343    2.2892  -12.9735 C   0  0  0  0  0  0  0  0  0  0  0  0
   -4.6587    2.1425  -12.0454 O   0  0  0  0  0  0  0  0  0  0  0  0
   -5.1806    3.6450  -14.0055 O   0  0  0  0  0  0  0  0  0  0  0  0
   -6.5701    6.1700  -16.3890 C   0  0  0  0  0  0  0  0  0  0  0  0
  1  2  1  0
  2  3  2  0
  3  4  1  0
  4  5  2  0
  5  6  1  0
  6  7  2  0
  7  8  1  0
  7  9  1  0
  9 10  2  0
 10 11  1  0
 11 12  1  0
 12 13  1  0
 13 14  2  0
 13 15  1  0
 15 16  1  0
 16 17  1  0
 17 18  2  0
 18 19  1  0
 19 20  1  0
 20 21  1  0
 20 22  2  0
 20 23  2  0
 11 24  2  0
 24  2  1  0
 24  6  1  0
 19 15  2  0
M  END
>  <fragmenstein_outcome>  (187) 
nan

>  <exports>  (187) 
['/opt/xchem-fragalysis-2/maxwin/openbind-hippo/xx01zvns2b/cycle_01/syndirella/elabs/openbind_xx01zvns2b_c1_elab_chemspace_filtered.sdf']

>  <Energy>  (187) 
nan

>  <alias>  (187) 
None

>  <fragmenstein_runtime>  (187) 
nan

>  <scratch_subdir>  (187) 
nan

>  <HIPPO Compound ID>  (187) 
140189

>  <rmsd(smina/fragmenstein)>  (187) 
1.296

>  <distance_score>  (187) 
1.25728

>  <orig_smiles>  (187) 
nan

>  <fragmenstein_mode>  (187) 
nan

>  <inchikey>  (187) 
JXLYWWUAEFLNFY-UHFFFAOYSA-N

>  <ref_pdb>  (187) 
Z0719a

>  <GNINA pK>  (187) 
nan

>  <gnina_score_min>  (187) 
5.204

>  <tags>  (187) 
openbind_xx01zvns2b_c1_elab_nonasap_filtered_scored_top80percent,openbind_xx01zvns2b_c1_elab_chemspace_filtered_scored_top80percent,openbind_xx01zvns2b_c1_elab_chemspace_filtered_scored,openbind_xx01zvns2b_c1_elab_chemspace_filtered_scored_top40percent,openbind_xx01zvns2b_c1_elab_chemspace_filtered_scored_top20percent,openbind_xx01zvns2b_c1_elab_chemspace_filtered_scored_top60percent,openbind_xx01zvns2b_c1_elabs_filtered

>  <smiles>  (187) 
Cc1ccnc2c(Cl)ccc(NC(=O)c3sccc3S(C)(=O)=O)c12

>  <subsites>  (187) 
1 - Z4590/B/203/1

>  <gnina_score>  (187) 
5.226

>  <HIPPO Pose ID>  (187) 
70026

>  <ref_mols>  (187) 
Z1688a,Z0719a

>  <energy_score>  (187) 
-32.410531

>  <inspiration_score>  (187) 
None

>  <smina_score_min>  (187) 
-5.211

>  <fragmenstein_error>  (187) 
nan

>  <name>  (187) 
P70026

$$$$
P70027
     RDKit          3D

 25 27  0  0  0  0  0  0  0  0999 V2000
   -7.0590    2.3930  -12.7403 C   0  0  0  0  0  0  0  0  0  0  0  0
   -5.3909    2.9147  -13.0381 S   0  0  0  0  0  0  0  0  0  0  0  0
   -5.3735    3.7753  -14.1930 O   0  0  0  0  0  0  0  0  0  0  0  0
   -4.5010    1.7801  -12.9941 O   0  0  0  0  0  0  0  0  0  0  0  0
   -5.0026    3.8393  -11.6586 N   0  0  0  0  0  0  0  0  0  0  0  0
   -5.7408    4.9677  -11.2317 C   0  0  0  0  0  0  0  0  0  0  0  0
   -6.6042    4.9138  -10.1020 C   0  0  0  0  0  0  0  0  0  0  0  0
   -7.1256    6.1484   -9.7746 C   0  0  0  0  0  0  0  0  0  0  0  0
   -6.6202    7.3681  -10.8661 S   0  0  0  0  0  0  0  0  0  0  0  0
   -5.7390    6.2357  -11.7862 C   0  0  0  0  0  0  0  0  0  0  0  0
   -5.4070    6.5011  -13.1672 C   0  0  0  0  0  0  0  0  0  0  0  0
   -4.3645    6.8163  -13.5832 O   0  0  0  0  0  0  0  0  0  0  0  0
   -6.7181    6.1645  -13.9053 N   0  0  0  0  0  0  0  0  0  0  0  0
   -6.9907    6.0546  -15.2785 C   0  0  0  0  0  0  0  0  0  0  0  0
   -8.3494    5.7064  -15.4352 C   0  0  0  0  0  0  0  0  0  0  0  0
   -9.5730    6.2460  -14.0856 Br  0  0  0  0  0  0  0  0  0  0  0  0
   -8.8213    5.0438  -16.5441 C   0  0  0  0  0  0  0  0  0  0  0  0
   -7.9363    4.8153  -17.5821 C   0  0  0  0  0  0  0  0  0  0  0  0
   -8.6065    4.0334  -18.9607 Cl  0  0  0  0  0  0  0  0  0  0  0  0
   -6.6052    5.2520  -17.5447 C   0  0  0  0  0  0  0  0  0  0  0  0
   -5.8173    5.0399  -18.6144 N   0  0  0  0  0  0  0  0  0  0  0  0
   -4.5445    5.4607  -18.6053 C   0  0  0  0  0  0  0  0  0  0  0  0
   -3.9883    6.1324  -17.5475 C   0  0  0  0  0  0  0  0  0  0  0  0
   -4.7894    6.3675  -16.4388 C   0  0  0  0  0  0  0  0  0  0  0  0
   -6.1203    5.9121  -16.3797 C   0  0  0  0  0  0  0  0  0  0  0  0
  1  2  1  0
  2  3  2  0
  2  4  2  0
  2  5  1  0
  5  6  1  0
  6  7  1  0
  7  8  2  0
  8  9  1  0
  9 10  1  0
 10 11  1  0
 11 12  2  0
 11 13  1  0
 13 14  1  0
 14 15  2  0
 15 16  1  0
 15 17  1  0
 17 18  2  0
 18 19  1  0
 18 20  1  0
 20 21  2  0
 21 22  1  0
 22 23  2  0
 23 24  1  0
 24 25  2  0
 10  6  2  0
 25 14  1  0
 25 20  1  0
M  END
>  <fragmenstein_outcome>  (188) 
nan

>  <exports>  (188) 
['/opt/xchem-fragalysis-2/maxwin/openbind-hippo/xx01zvns2b/cycle_01/syndirella/elabs/openbind_xx01zvns2b_c1_elab_chemspace_filtered.sdf']

>  <Energy>  (188) 
nan

>  <alias>  (188) 
None

>  <fragmenstein_runtime>  (188) 
nan

>  <scratch_subdir>  (188) 
nan

>  <HIPPO Compound ID>  (188) 
140199

>  <rmsd(smina/fragmenstein)>  (188) 
1.363

>  <distance_score>  (188) 
1.26163

>  <orig_smiles>  (188) 
nan

>  <fragmenstein_mode>  (188) 
nan

>  <inchikey>  (188) 
YCIMZUOXMHXQGA-UHFFFAOYSA-N

>  <ref_pdb>  (188) 
Z0719a

>  <GNINA pK>  (188) 
nan

>  <gnina_score_min>  (188) 
5.358

>  <tags>  (188) 
openbind_xx01zvns2b_c1_elab_nonasap_filtered_scored_top80percent,openbind_xx01zvns2b_c1_elab_chemspace_filtered_scored_top80percent,openbind_xx01zvns2b_c1_elab_chemspace_filtered_scored,openbind_xx01zvns2b_c1_elab_chemspace_filtered_scored_top40percent,openbind_xx01zvns2b_c1_elab_chemspace_filtered_scored_top20percent,openbind_xx01zvns2b_c1_elab_chemspace_filtered_scored_top60percent,openbind_xx01zvns2b_c1_elabs_filtered

>  <smiles>  (188) 
CS(=O)(=O)Nc1ccsc1C(=O)Nc1c(Br)cc(Cl)c2ncccc12

>  <subsites>  (188) 
1 - Z4590/B/203/1

>  <gnina_score>  (188) 
5.463

>  <HIPPO Pose ID>  (188) 
70027

>  <ref_mols>  (188) 
Z0719a,Z1688a

>  <energy_score>  (188) 
-3.253578

>  <inspiration_score>  (188) 
None

>  <smina_score_min>  (188) 
-5.609

>  <fragmenstein_error>  (188) 
nan

>  <name>  (188) 
P70027

$$$$
P70028
     RDKit          3D

 25 27  0  0  0  0  0  0  0  0999 V2000
   -4.7610    6.9273  -14.7183 C   0  0  0  0  0  0  0  0  0  0  0  0
   -5.3111    6.3730  -15.9969 C   0  0  0  0  0  0  0  0  0  0  0  0
   -4.4453    6.4880  -17.0958 C   0  0  0  0  0  0  0  0  0  0  0  0
   -4.8591    6.0305  -18.3159 C   0  0  0  0  0  0  0  0  0  0  0  0
   -6.0609    5.4878  -18.5048 N   0  0  0  0  0  0  0  0  0  0  0  0
   -6.9207    5.3466  -17.4779 C   0  0  0  0  0  0  0  0  0  0  0  0
   -8.1341    4.6989  -17.7420 C   0  0  0  0  0  0  0  0  0  0  0  0
   -8.4902    4.0224  -19.2733 Cl  0  0  0  0  0  0  0  0  0  0  0  0
   -9.1038    4.4801  -16.7853 C   0  0  0  0  0  0  0  0  0  0  0  0
   -8.8274    4.8436  -15.4981 C   0  0  0  0  0  0  0  0  0  0  0  0
   -7.6346    5.4985  -15.1723 C   0  0  0  0  0  0  0  0  0  0  0  0
   -7.4622    5.4538  -13.8003 N   0  0  0  0  0  0  0  0  0  0  0  0
   -7.1742    6.5806  -12.7899 C   0  0  0  0  0  0  0  0  0  0  0  0
   -6.9602    7.7139  -12.9620 O   0  0  0  0  0  0  0  0  0  0  0  0
   -7.1387    5.9184  -11.4974 C   0  0  0  0  0  0  0  0  0  0  0  0
   -8.0838    6.5120  -10.2131 S   0  0  0  0  0  0  0  0  0  0  0  0
   -7.9323    5.0252   -9.3728 C   0  0  0  0  0  0  0  0  0  0  0  0
   -7.0658    4.1598  -10.0090 C   0  0  0  0  0  0  0  0  0  0  0  0
   -6.5055    4.7255  -11.1822 C   0  0  0  0  0  0  0  0  0  0  0  0
   -5.4207    4.1362  -11.8779 N   0  0  0  0  0  0  0  0  0  0  0  0
   -5.6166    2.8845  -13.0265 S   0  0  0  0  0  0  0  0  0  0  0  0
   -4.2778    1.8373  -12.5459 C   0  0  0  0  0  0  0  0  0  0  0  0
   -6.8741    2.2039  -12.8400 O   0  0  0  0  0  0  0  0  0  0  0  0
   -5.2508    3.4812  -14.2903 O   0  0  0  0  0  0  0  0  0  0  0  0
   -6.6248    5.7902  -16.1573 C   0  0  0  0  0  0  0  0  0  0  0  0
  1  2  1  0
  2  3  2  0
  3  4  1  0
  4  5  2  0
  5  6  1  0
  6  7  2  0
  7  8  1  0
  7  9  1  0
  9 10  2  0
 10 11  1  0
 11 12  1  0
 12 13  1  0
 13 14  2  0
 13 15  1  0
 15 16  1  0
 16 17  1  0
 17 18  2  0
 18 19  1  0
 19 20  1  0
 20 21  1  0
 21 22  1  0
 21 23  2  0
 21 24  2  0
 11 25  2  0
 25  2  1  0
 25  6  1  0
 19 15  2  0
M  END
>  <fragmenstein_outcome>  (189) 
nan

>  <exports>  (189) 
['/opt/xchem-fragalysis-2/maxwin/openbind-hippo/xx01zvns2b/cycle_01/syndirella/elabs/openbind_xx01zvns2b_c1_elab_chemspace_filtered.sdf']

>  <Energy>  (189) 
nan

>  <alias>  (189) 
None

>  <fragmenstein_runtime>  (189) 
nan

>  <scratch_subdir>  (189) 
nan

>  <HIPPO Compound ID>  (189) 
140200

>  <rmsd(smina/fragmenstein)>  (189) 
1.172

>  <distance_score>  (189) 
0.983929

>  <orig_smiles>  (189) 
nan

>  <fragmenstein_mode>  (189) 
nan

>  <inchikey>  (189) 
VHGRZYANBHHSHM-UHFFFAOYSA-N

>  <ref_pdb>  (189) 
Z0719a

>  <GNINA pK>  (189) 
nan

>  <gnina_score_min>  (189) 
5.35

>  <tags>  (189) 
openbind_xx01zvns2b_c1_elab_nonasap_filtered_scored_top80percent,openbind_xx01zvns2b_c1_elab_chemspace_filtered_scored_top80percent,openbind_xx01zvns2b_c1_elab_chemspace_filtered_scored,openbind_xx01zvns2b_c1_elab_chemspace_filtered_scored_top40percent,openbind_xx01zvns2b_c1_elab_chemspace_filtered_scored_top20percent,openbind_xx01zvns2b_c1_elab_chemspace_filtered_scored_top60percent,openbind_xx01zvns2b_c1_elabs_filtered

>  <smiles>  (189) 
Cc1ccnc2c(Cl)ccc(NC(=O)c3sccc3NS(C)(=O)=O)c12

>  <subsites>  (189) 
1 - Z4590/B/203/1

>  <gnina_score>  (189) 
5.328

>  <HIPPO Pose ID>  (189) 
70028

>  <ref_mols>  (189) 
Z0719a,Z1688a

>  <energy_score>  (189) 
-22.499301

>  <inspiration_score>  (189) 
None

>  <smina_score_min>  (189) 
-5.817

>  <fragmenstein_error>  (189) 
nan

>  <name>  (189) 
P70028

$$$$
P70029
     RDKit          3D

 25 28  0  0  0  0  0  0  0  0999 V2000
   -7.4224    7.6780  -12.6458 O   0  0  0  0  0  0  0  0  0  0  0  0
   -6.8100    6.6878  -12.7132 C   0  0  0  0  0  0  0  0  0  0  0  0
   -6.5086    5.7829  -13.9183 N   0  0  0  0  0  0  0  0  0  0  0  0
   -6.9589    5.8476  -15.2327 C   0  0  0  0  0  0  0  0  0  0  0  0
   -8.3359    5.6929  -15.4299 C   0  0  0  0  0  0  0  0  0  0  0  0
   -9.5960    6.2273  -14.1419 Br  0  0  0  0  0  0  0  0  0  0  0  0
   -8.8124    5.0936  -16.5826 C   0  0  0  0  0  0  0  0  0  0  0  0
   -7.9236    4.7808  -17.6025 C   0  0  0  0  0  0  0  0  0  0  0  0
   -8.6128    4.0628  -19.0014 Cl  0  0  0  0  0  0  0  0  0  0  0  0
   -6.5535    5.0467  -17.5038 C   0  0  0  0  0  0  0  0  0  0  0  0
   -5.7099    4.8258  -18.5317 N   0  0  0  0  0  0  0  0  0  0  0  0
   -4.3962    5.0735  -18.3829 C   0  0  0  0  0  0  0  0  0  0  0  0
   -3.8356    5.5241  -17.2093 C   0  0  0  0  0  0  0  0  0  0  0  0
   -4.6842    5.7535  -16.1388 C   0  0  0  0  0  0  0  0  0  0  0  0
   -6.0686    5.5431  -16.2742 C   0  0  0  0  0  0  0  0  0  0  0  0
   -6.2776    6.0734  -11.4746 C   0  0  0  0  0  0  0  0  0  0  0  0
   -5.9992    7.1369  -10.1422 S   0  0  0  0  0  0  0  0  0  0  0  0
   -6.0040    5.8541   -9.0237 C   0  0  0  0  0  0  0  0  0  0  0  0
   -6.1761    4.6341   -9.6361 C   0  0  0  0  0  0  0  0  0  0  0  0
   -6.2354    4.7345  -11.0591 C   0  0  0  0  0  0  0  0  0  0  0  0
   -6.2931    3.5539  -11.8698 N   0  0  0  0  0  0  0  0  0  0  0  0
   -6.6774    2.2805  -11.5299 C   0  0  0  0  0  0  0  0  0  0  0  0
   -6.5507    1.4904  -12.5732 N   0  0  0  0  0  0  0  0  0  0  0  0
   -6.0123    2.2573  -13.5578 N   0  0  0  0  0  0  0  0  0  0  0  0
   -5.8121    3.4916  -13.1357 N   0  0  0  0  0  0  0  0  0  0  0  0
  1  2  2  0
  2  3  1  0
  3  4  1  0
  4  5  2  0
  5  6  1  0
  5  7  1  0
  7  8  2  0
  8  9  1  0
  8 10  1  0
 10 11  2  0
 11 12  1  0
 12 13  2  0
 13 14  1  0
 14 15  2  0
  2 16  1  0
 16 17  1  0
 17 18  1  0
 18 19  2  0
 19 20  1  0
 20 21  1  0
 21 22  1  0
 22 23  2  0
 23 24  1  0
 24 25  2  0
 15  4  1  0
 20 16  2  0
 25 21  1  0
 15 10  1  0
M  END
>  <fragmenstein_outcome>  (190) 
nan

>  <exports>  (190) 
['/opt/xchem-fragalysis-2/maxwin/openbind-hippo/xx01zvns2b/cycle_01/syndirella/elabs/openbind_xx01zvns2b_c1_elab_chemspace_filtered.sdf']

>  <Energy>  (190) 
nan

>  <alias>  (190) 
None

>  <fragmenstein_runtime>  (190) 
nan

>  <scratch_subdir>  (190) 
nan

>  <HIPPO Compound ID>  (190) 
140210

>  <rmsd(smina/fragmenstein)>  (190) 
1.008

>  <distance_score>  (190) 
1.358957

>  <orig_smiles>  (190) 
nan

>  <fragmenstein_mode>  (190) 
nan

>  <inchikey>  (190) 
WNFGOJAVGODYIB-UHFFFAOYSA-N

>  <ref_pdb>  (190) 
Z0719a

>  <GNINA pK>  (190) 
nan

>  <gnina_score_min>  (190) 
5.603

>  <tags>  (190) 
openbind_xx01zvns2b_c1_elab_nonasap_filtered_scored_top80percent,openbind_xx01zvns2b_c1_elab_chemspace_filtered_scored_top80percent,openbind_xx01zvns2b_c1_elab_chemspace_filtered_scored,openbind_xx01zvns2b_c1_elab_chemspace_filtered_scored_top40percent,openbind_xx01zvns2b_c1_elab_chemspace_filtered_scored_top20percent,openbind_xx01zvns2b_c1_elab_chemspace_filtered_scored_top60percent,openbind_xx01zvns2b_c1_elabs_filtered

>  <smiles>  (190) 
O=C(Nc1c(Br)cc(Cl)c2ncccc12)c1sccc1-n1cnnn1

>  <subsites>  (190) 
1 - Z4590/B/203/1

>  <gnina_score>  (190) 
5.75

>  <HIPPO Pose ID>  (190) 
70029

>  <ref_mols>  (190) 
Z0719a,Z1688a

>  <energy_score>  (190) 
-6.671565

>  <inspiration_score>  (190) 
None

>  <smina_score_min>  (190) 
-6.176

>  <fragmenstein_error>  (190) 
nan

>  <name>  (190) 
P70029

$$$$
P70030
     RDKit          3D

 25 28  0  0  0  0  0  0  0  0999 V2000
   -4.6783    6.9707  -14.8423 C   0  0  0  0  0  0  0  0  0  0  0  0
   -5.1104    6.2236  -16.0762 C   0  0  0  0  0  0  0  0  0  0  0  0
   -4.1352    6.0307  -17.0580 C   0  0  0  0  0  0  0  0  0  0  0  0
   -4.5008    5.4287  -18.2364 C   0  0  0  0  0  0  0  0  0  0  0  0
   -5.7475    5.0123  -18.4894 N   0  0  0  0  0  0  0  0  0  0  0  0
   -6.7128    5.1543  -17.5584 C   0  0  0  0  0  0  0  0  0  0  0  0
   -8.0136    4.7041  -17.8265 C   0  0  0  0  0  0  0  0  0  0  0  0
   -8.4101    3.9454  -19.3040 Cl  0  0  0  0  0  0  0  0  0  0  0  0
   -9.0618    4.8237  -16.9279 C   0  0  0  0  0  0  0  0  0  0  0  0
   -8.8118    5.3920  -15.7040 C   0  0  0  0  0  0  0  0  0  0  0  0
   -7.5208    5.8007  -15.3762 C   0  0  0  0  0  0  0  0  0  0  0  0
   -7.2983    5.8848  -14.0175 N   0  0  0  0  0  0  0  0  0  0  0  0
   -8.2311    6.3148  -12.8798 C   0  0  0  0  0  0  0  0  0  0  0  0
   -9.3142    6.7419  -12.9119 O   0  0  0  0  0  0  0  0  0  0  0  0
   -7.5829    6.0078  -11.6053 C   0  0  0  0  0  0  0  0  0  0  0  0
   -7.6936    7.1164  -10.3082 S   0  0  0  0  0  0  0  0  0  0  0  0
   -7.2586    5.9128   -9.1738 C   0  0  0  0  0  0  0  0  0  0  0  0
   -6.9923    4.7014   -9.7766 C   0  0  0  0  0  0  0  0  0  0  0  0
   -7.0736    4.7788  -11.1938 C   0  0  0  0  0  0  0  0  0  0  0  0
   -6.7470    3.6818  -12.0483 N   0  0  0  0  0  0  0  0  0  0  0  0
   -6.8930    2.3412  -11.8327 C   0  0  0  0  0  0  0  0  0  0  0  0
   -6.4226    1.6734  -12.8618 N   0  0  0  0  0  0  0  0  0  0  0  0
   -5.8996    2.6060  -13.6989 N   0  0  0  0  0  0  0  0  0  0  0  0
   -6.0578    3.8182  -13.2031 N   0  0  0  0  0  0  0  0  0  0  0  0
   -6.4426    5.7396  -16.2996 C   0  0  0  0  0  0  0  0  0  0  0  0
  1  2  1  0
  2  3  2  0
  3  4  1  0
  4  5  2  0
  5  6  1  0
  6  7  2  0
  7  8  1  0
  7  9  1  0
  9 10  2  0
 10 11  1  0
 11 12  1  0
 12 13  1  0
 13 14  2  0
 13 15  1  0
 15 16  1  0
 16 17  1  0
 17 18  2  0
 18 19  1  0
 19 20  1  0
 20 21  1  0
 21 22  2  0
 22 23  1  0
 23 24  2  0
 11 25  2  0
 25  2  1  0
 25  6  1  0
 19 15  2  0
 24 20  1  0
M  END
>  <fragmenstein_outcome>  (191) 
nan

>  <exports>  (191) 
['/opt/xchem-fragalysis-2/maxwin/openbind-hippo/xx01zvns2b/cycle_01/syndirella/elabs/openbind_xx01zvns2b_c1_elab_chemspace_filtered.sdf']

>  <Energy>  (191) 
nan

>  <alias>  (191) 
None

>  <fragmenstein_runtime>  (191) 
nan

>  <scratch_subdir>  (191) 
nan

>  <HIPPO Compound ID>  (191) 
140211

>  <rmsd(smina/fragmenstein)>  (191) 
0.717

>  <distance_score>  (191) 
1.871674

>  <orig_smiles>  (191) 
nan

>  <fragmenstein_mode>  (191) 
nan

>  <inchikey>  (191) 
OJUAHAYTTIOBCN-UHFFFAOYSA-N

>  <ref_pdb>  (191) 
Z0719a

>  <GNINA pK>  (191) 
nan

>  <gnina_score_min>  (191) 
5.375

>  <tags>  (191) 
openbind_xx01zvns2b_c1_elab_nonasap_filtered_scored_top80percent,openbind_xx01zvns2b_c1_elab_chemspace_filtered_scored_top80percent,openbind_xx01zvns2b_c1_elab_chemspace_filtered_scored,openbind_xx01zvns2b_c1_elab_chemspace_filtered_scored_top40percent,openbind_xx01zvns2b_c1_elab_chemspace_filtered_scored_top20percent,openbind_xx01zvns2b_c1_elab_chemspace_filtered_scored_top60percent,openbind_xx01zvns2b_c1_elabs_filtered

>  <smiles>  (191) 
Cc1ccnc2c(Cl)ccc(NC(=O)c3sccc3-n3cnnn3)c12

>  <subsites>  (191) 
1 - Z4590/B/203/1

>  <gnina_score>  (191) 
5.497

>  <HIPPO Pose ID>  (191) 
70030

>  <ref_mols>  (191) 
Z0719a,Z1688a

>  <energy_score>  (191) 
-29.071246

>  <inspiration_score>  (191) 
None

>  <smina_score_min>  (191) 
-6.17

>  <fragmenstein_error>  (191) 
nan

>  <name>  (191) 
P70030

$$$$
P70031
     RDKit          3D

 25 27  0  0  0  0  0  0  0  0999 V2000
   -7.2701    2.5759   -9.9087 C   0  0  0  0  0  0  0  0  0  0  0  0
   -6.6387    3.7990  -10.4909 C   0  0  0  0  0  0  0  0  0  0  0  0
   -6.6448    5.0360   -9.8651 C   0  0  0  0  0  0  0  0  0  0  0  0
   -5.8677    6.2575  -10.7747 S   0  0  0  0  0  0  0  0  0  0  0  0
   -5.5325    5.1518  -12.0116 C   0  0  0  0  0  0  0  0  0  0  0  0
   -5.2069    5.5802  -13.3489 C   0  0  0  0  0  0  0  0  0  0  0  0
   -4.1430    5.7524  -13.7910 O   0  0  0  0  0  0  0  0  0  0  0  0
   -6.5895    5.6386  -14.0227 N   0  0  0  0  0  0  0  0  0  0  0  0
   -6.9391    5.8211  -15.3594 C   0  0  0  0  0  0  0  0  0  0  0  0
   -8.3214    5.6152  -15.5039 C   0  0  0  0  0  0  0  0  0  0  0  0
   -9.4644    6.1616  -14.0946 Br  0  0  0  0  0  0  0  0  0  0  0  0
   -8.8404    5.0290  -16.6321 C   0  0  0  0  0  0  0  0  0  0  0  0
   -7.9740    4.7736  -17.6840 C   0  0  0  0  0  0  0  0  0  0  0  0
   -8.6820    4.0230  -19.0533 Cl  0  0  0  0  0  0  0  0  0  0  0  0
   -6.6228    5.1541  -17.6607 C   0  0  0  0  0  0  0  0  0  0  0  0
   -5.8424    4.9798  -18.7429 N   0  0  0  0  0  0  0  0  0  0  0  0
   -4.5651    5.3961  -18.7257 C   0  0  0  0  0  0  0  0  0  0  0  0
   -3.9913    6.0202  -17.6456 C   0  0  0  0  0  0  0  0  0  0  0  0
   -4.7760    6.1984  -16.5181 C   0  0  0  0  0  0  0  0  0  0  0  0
   -6.1014    5.7307  -16.4782 C   0  0  0  0  0  0  0  0  0  0  0  0
   -5.9596    3.8471  -11.7630 C   0  0  0  0  0  0  0  0  0  0  0  0
   -5.7981    2.7112  -12.7730 C   0  0  0  0  0  0  0  0  0  0  0  0
   -6.7346    1.7357  -12.6552 F   0  0  0  0  0  0  0  0  0  0  0  0
   -5.8819    3.1354  -14.0613 F   0  0  0  0  0  0  0  0  0  0  0  0
   -4.5811    2.1267  -12.6505 F   0  0  0  0  0  0  0  0  0  0  0  0
  1  2  1  0
  2  3  2  0
  3  4  1  0
  4  5  1  0
  5  6  1  0
  6  7  2  0
  6  8  1  0
  8  9  1  0
  9 10  2  0
 10 11  1  0
 10 12  1  0
 12 13  2  0
 13 14  1  0
 13 15  1  0
 15 16  2  0
 16 17  1  0
 17 18  2  0
 18 19  1  0
 19 20  2  0
  5 21  2  0
 21 22  1  0
 22 23  1  0
 22 24  1  0
 22 25  1  0
 21  2  1  0
 20  9  1  0
 20 15  1  0
M  END
>  <fragmenstein_outcome>  (192) 
nan

>  <exports>  (192) 
['/opt/xchem-fragalysis-2/maxwin/openbind-hippo/xx01zvns2b/cycle_01/syndirella/elabs/openbind_xx01zvns2b_c1_elab_chemspace_filtered.sdf']

>  <Energy>  (192) 
nan

>  <alias>  (192) 
None

>  <fragmenstein_runtime>  (192) 
nan

>  <scratch_subdir>  (192) 
nan

>  <HIPPO Compound ID>  (192) 
140380

>  <rmsd(smina/fragmenstein)>  (192) 
1.231

>  <distance_score>  (192) 
1.354954

>  <orig_smiles>  (192) 
nan

>  <fragmenstein_mode>  (192) 
nan

>  <inchikey>  (192) 
OJRIOKMWOVUSEX-UHFFFAOYSA-N

>  <ref_pdb>  (192) 
Z0719a

>  <GNINA pK>  (192) 
nan

>  <gnina_score_min>  (192) 
5.827

>  <tags>  (192) 
openbind_xx01zvns2b_c1_elab_nonasap_filtered_scored_top80percent,openbind_xx01zvns2b_c1_elab_chemspace_filtered_scored_top80percent,openbind_xx01zvns2b_c1_elab_chemspace_filtered_scored,openbind_xx01zvns2b_c1_elab_chemspace_filtered_scored_top40percent,openbind_xx01zvns2b_c1_elab_chemspace_filtered_scored_top20percent,openbind_xx01zvns2b_c1_elab_chemspace_filtered_scored_top60percent,openbind_xx01zvns2b_c1_elabs_filtered

>  <smiles>  (192) 
Cc1csc(C(=O)Nc2c(Br)cc(Cl)c3ncccc23)c1C(F)(F)F

>  <subsites>  (192) 
1 - Z4590/B/203/1

>  <gnina_score>  (192) 
5.828

>  <HIPPO Pose ID>  (192) 
70031

>  <ref_mols>  (192) 
Z1688a,Z0719a

>  <energy_score>  (192) 
-28.172192

>  <inspiration_score>  (192) 
None

>  <smina_score_min>  (192) 
-6.127

>  <fragmenstein_error>  (192) 
nan

>  <name>  (192) 
P70031

$$$$
P70032
     RDKit          3D

 25 27  0  0  0  0  0  0  0  0999 V2000
   -6.3763    2.0965   -9.7849 C   0  0  0  0  0  0  0  0  0  0  0  0
   -6.5450    3.5033  -10.2665 C   0  0  0  0  0  0  0  0  0  0  0  0
   -6.9472    4.5466   -9.4523 C   0  0  0  0  0  0  0  0  0  0  0  0
   -6.9964    6.0427  -10.2601 S   0  0  0  0  0  0  0  0  0  0  0  0
   -6.5955    5.2926  -11.7347 C   0  0  0  0  0  0  0  0  0  0  0  0
   -6.6737    6.0851  -12.9488 C   0  0  0  0  0  0  0  0  0  0  0  0
   -6.2115    7.1457  -13.0716 O   0  0  0  0  0  0  0  0  0  0  0  0
   -7.3721    5.1828  -13.9682 N   0  0  0  0  0  0  0  0  0  0  0  0
   -7.5617    5.3413  -15.3230 C   0  0  0  0  0  0  0  0  0  0  0  0
   -8.8399    4.8557  -15.6263 C   0  0  0  0  0  0  0  0  0  0  0  0
   -9.1823    4.5400  -16.9042 C   0  0  0  0  0  0  0  0  0  0  0  0
   -8.2108    4.6745  -17.8716 C   0  0  0  0  0  0  0  0  0  0  0  0
   -8.6422    3.9995  -19.3754 Cl  0  0  0  0  0  0  0  0  0  0  0  0
   -6.9369    5.2075  -17.6409 C   0  0  0  0  0  0  0  0  0  0  0  0
   -6.1281    5.3063  -18.7107 N   0  0  0  0  0  0  0  0  0  0  0  0
   -4.8740    5.7304  -18.5878 C   0  0  0  0  0  0  0  0  0  0  0  0
   -4.3423    6.0733  -17.3800 C   0  0  0  0  0  0  0  0  0  0  0  0
   -5.1422    5.9735  -16.2281 C   0  0  0  0  0  0  0  0  0  0  0  0
   -4.4027    6.3569  -14.9810 C   0  0  0  0  0  0  0  0  0  0  0  0
   -6.5370    5.5622  -16.3250 C   0  0  0  0  0  0  0  0  0  0  0  0
   -6.2719    3.9359  -11.6151 C   0  0  0  0  0  0  0  0  0  0  0  0
   -5.7792    2.9889  -12.7102 C   0  0  0  0  0  0  0  0  0  0  0  0
   -5.4118    3.6062  -13.8577 F   0  0  0  0  0  0  0  0  0  0  0  0
   -6.7386    2.0874  -13.0591 F   0  0  0  0  0  0  0  0  0  0  0  0
   -4.6915    2.2793  -12.3172 F   0  0  0  0  0  0  0  0  0  0  0  0
  1  2  1  0
  2  3  2  0
  3  4  1  0
  4  5  1  0
  5  6  1  0
  6  7  2  0
  6  8  1  0
  8  9  1  0
  9 10  2  0
 10 11  1  0
 11 12  2  0
 12 13  1  0
 12 14  1  0
 14 15  2  0
 15 16  1  0
 16 17  2  0
 17 18  1  0
 18 19  1  0
 18 20  2  0
  5 21  2  0
 21 22  1  0
 22 23  1  0
 22 24  1  0
 22 25  1  0
 21  2  1  0
 20  9  1  0
 20 14  1  0
M  END
>  <fragmenstein_outcome>  (193) 
nan

>  <exports>  (193) 
['/opt/xchem-fragalysis-2/maxwin/openbind-hippo/xx01zvns2b/cycle_01/syndirella/elabs/openbind_xx01zvns2b_c1_elab_chemspace_filtered.sdf']

>  <Energy>  (193) 
nan

>  <alias>  (193) 
None

>  <fragmenstein_runtime>  (193) 
nan

>  <scratch_subdir>  (193) 
nan

>  <HIPPO Compound ID>  (193) 
140381

>  <rmsd(smina/fragmenstein)>  (193) 
1.58

>  <distance_score>  (193) 
1.134516

>  <orig_smiles>  (193) 
nan

>  <fragmenstein_mode>  (193) 
nan

>  <inchikey>  (193) 
PYDRBLWNXBJPGT-UHFFFAOYSA-N

>  <ref_pdb>  (193) 
Z0719a

>  <GNINA pK>  (193) 
nan

>  <gnina_score_min>  (193) 
5.549

>  <tags>  (193) 
openbind_xx01zvns2b_c1_elab_nonasap_filtered_scored_top80percent,openbind_xx01zvns2b_c1_elab_chemspace_filtered_scored_top80percent,openbind_xx01zvns2b_c1_elab_chemspace_filtered_scored,openbind_xx01zvns2b_c1_elab_chemspace_filtered_scored_top40percent,openbind_xx01zvns2b_c1_elab_chemspace_filtered_scored_top20percent,openbind_xx01zvns2b_c1_elab_chemspace_filtered_scored_top60percent,openbind_xx01zvns2b_c1_elabs_filtered

>  <smiles>  (193) 
Cc1csc(C(=O)Nc2ccc(Cl)c3nccc(C)c23)c1C(F)(F)F

>  <subsites>  (193) 
1 - Z4590/B/203/1

>  <gnina_score>  (193) 
5.704

>  <HIPPO Pose ID>  (193) 
70032

>  <ref_mols>  (193) 
Z0719a,Z1688a

>  <energy_score>  (193) 
-7.660877

>  <inspiration_score>  (193) 
None

>  <smina_score_min>  (193) 
-6.689

>  <fragmenstein_error>  (193) 
nan

>  <name>  (193) 
P70032

$$$$
P70033
     RDKit          3D

 25 28  0  0  0  0  0  0  0  0999 V2000
   -4.5901    7.3930  -13.5645 O   0  0  0  0  0  0  0  0  0  0  0  0
   -5.5301    6.8767  -13.1044 C   0  0  0  0  0  0  0  0  0  0  0  0
   -6.7184    6.1681  -13.7889 N   0  0  0  0  0  0  0  0  0  0  0  0
   -6.9467    5.8710  -15.1374 C   0  0  0  0  0  0  0  0  0  0  0  0
   -8.3155    5.6065  -15.3509 C   0  0  0  0  0  0  0  0  0  0  0  0
   -9.5672    6.2438  -14.0720 Br  0  0  0  0  0  0  0  0  0  0  0  0
   -8.7865    5.0143  -16.5000 C   0  0  0  0  0  0  0  0  0  0  0  0
   -7.8857    4.7877  -17.5245 C   0  0  0  0  0  0  0  0  0  0  0  0
   -8.5509    4.0897  -18.9505 Cl  0  0  0  0  0  0  0  0  0  0  0  0
   -6.5279    5.1195  -17.4170 C   0  0  0  0  0  0  0  0  0  0  0  0
   -5.7180    4.9281  -18.4742 N   0  0  0  0  0  0  0  0  0  0  0  0
   -4.4038    5.1705  -18.3665 C   0  0  0  0  0  0  0  0  0  0  0  0
   -3.8139    5.5760  -17.1967 C   0  0  0  0  0  0  0  0  0  0  0  0
   -4.6343    5.7831  -16.0961 C   0  0  0  0  0  0  0  0  0  0  0  0
   -6.0314    5.6248  -16.1815 C   0  0  0  0  0  0  0  0  0  0  0  0
   -5.7764    6.6796  -11.6777 C   0  0  0  0  0  0  0  0  0  0  0  0
   -6.0215    7.9805  -10.6134 S   0  0  0  0  0  0  0  0  0  0  0  0
   -6.5483    6.9221   -9.3655 C   0  0  0  0  0  0  0  0  0  0  0  0
   -6.5327    5.5976   -9.7569 C   0  0  0  0  0  0  0  0  0  0  0  0
   -6.0230    5.4577  -11.0666 C   0  0  0  0  0  0  0  0  0  0  0  0
   -5.8710    4.1690  -11.7488 C   0  0  0  0  0  0  0  0  0  0  0  0
   -6.9819    3.4270  -12.2239 C   0  0  0  0  0  0  0  0  0  0  0  0
   -6.5894    2.4498  -13.1100 C   0  0  0  0  0  0  0  0  0  0  0  0
   -4.8976    2.3056  -13.2119 S   0  0  0  0  0  0  0  0  0  0  0  0
   -4.6761    3.6376  -12.1764 C   0  0  0  0  0  0  0  0  0  0  0  0
  1  2  2  0
  2  3  1  0
  3  4  1  0
  4  5  2  0
  5  6  1  0
  5  7  1  0
  7  8  2  0
  8  9  1  0
  8 10  1  0
 10 11  2  0
 11 12  1  0
 12 13  2  0
 13 14  1  0
 14 15  2  0
  2 16  1  0
 16 17  1  0
 17 18  1  0
 18 19  2  0
 19 20  1  0
 20 21  1  0
 21 22  1  0
 22 23  2  0
 23 24  1  0
 24 25  1  0
 15  4  1  0
 20 16  2  0
 25 21  2  0
 15 10  1  0
M  END
>  <fragmenstein_outcome>  (194) 
nan

>  <exports>  (194) 
['/opt/xchem-fragalysis-2/maxwin/openbind-hippo/xx01zvns2b/cycle_01/syndirella/elabs/openbind_xx01zvns2b_c1_elab_chemspace_filtered.sdf']

>  <Energy>  (194) 
nan

>  <alias>  (194) 
None

>  <fragmenstein_runtime>  (194) 
nan

>  <scratch_subdir>  (194) 
nan

>  <HIPPO Compound ID>  (194) 
140392

>  <rmsd(smina/fragmenstein)>  (194) 
1.885

>  <distance_score>  (194) 
1.58236

>  <orig_smiles>  (194) 
nan

>  <fragmenstein_mode>  (194) 
nan

>  <inchikey>  (194) 
OHGUNXWHYONBAK-UHFFFAOYSA-N

>  <ref_pdb>  (194) 
Z0719a

>  <GNINA pK>  (194) 
nan

>  <gnina_score_min>  (194) 
5.833

>  <tags>  (194) 
openbind_xx01zvns2b_c1_elab_nonasap_filtered_scored_top80percent,openbind_xx01zvns2b_c1_elab_chemspace_filtered_scored_top80percent,openbind_xx01zvns2b_c1_elab_chemspace_filtered_scored,openbind_xx01zvns2b_c1_elab_chemspace_filtered_scored_top40percent,openbind_xx01zvns2b_c1_elab_chemspace_filtered_scored_top20percent,openbind_xx01zvns2b_c1_elab_chemspace_filtered_scored_top60percent,openbind_xx01zvns2b_c1_elabs_filtered

>  <smiles>  (194) 
O=C(Nc1c(Br)cc(Cl)c2ncccc12)c1sccc1-c1ccsc1

>  <subsites>  (194) 
1 - Z4590/B/203/1

>  <gnina_score>  (194) 
5.99

>  <HIPPO Pose ID>  (194) 
70033

>  <ref_mols>  (194) 
Z0719a,Z1688a

>  <energy_score>  (194) 
-26.035524

>  <inspiration_score>  (194) 
None

>  <smina_score_min>  (194) 
-5.94

>  <fragmenstein_error>  (194) 
nan

>  <name>  (194) 
P70033

$$$$
P70034
     RDKit          3D

 25 28  0  0  0  0  0  0  0  0999 V2000
   -4.3705    5.9790  -14.5899 C   0  0  0  0  0  0  0  0  0  0  0  0
   -5.1042    5.9073  -15.8975 C   0  0  0  0  0  0  0  0  0  0  0  0
   -4.2947    6.1466  -17.0177 C   0  0  0  0  0  0  0  0  0  0  0  0
   -4.8113    5.9210  -18.2640 C   0  0  0  0  0  0  0  0  0  0  0  0
   -6.0496    5.4614  -18.4528 N   0  0  0  0  0  0  0  0  0  0  0  0
   -6.8639    5.2390  -17.4028 C   0  0  0  0  0  0  0  0  0  0  0  0
   -8.1104    4.6527  -17.6560 C   0  0  0  0  0  0  0  0  0  0  0  0
   -8.5536    4.0776  -19.2076 Cl  0  0  0  0  0  0  0  0  0  0  0  0
   -9.0461    4.4079  -16.6710 C   0  0  0  0  0  0  0  0  0  0  0  0
   -8.7250    4.7234  -15.3798 C   0  0  0  0  0  0  0  0  0  0  0  0
   -7.4943    5.3130  -15.0664 C   0  0  0  0  0  0  0  0  0  0  0  0
   -7.4143    5.5171  -13.6978 N   0  0  0  0  0  0  0  0  0  0  0  0
   -6.8559    6.7093  -12.8923 C   0  0  0  0  0  0  0  0  0  0  0  0
   -6.3053    7.6736  -13.2518 O   0  0  0  0  0  0  0  0  0  0  0  0
   -7.0750    6.3837  -11.4806 C   0  0  0  0  0  0  0  0  0  0  0  0
   -7.6354    7.5856  -10.4033 S   0  0  0  0  0  0  0  0  0  0  0  0
   -7.8762    6.4334   -9.1580 C   0  0  0  0  0  0  0  0  0  0  0  0
   -7.4743    5.1691   -9.5340 C   0  0  0  0  0  0  0  0  0  0  0  0
   -6.9361    5.1584  -10.8419 C   0  0  0  0  0  0  0  0  0  0  0  0
   -6.3401    3.9490  -11.4260 C   0  0  0  0  0  0  0  0  0  0  0  0
   -4.9316    3.8206  -11.6080 C   0  0  0  0  0  0  0  0  0  0  0  0
   -4.6130    2.6978  -12.3411 C   0  0  0  0  0  0  0  0  0  0  0  0
   -6.0062    1.8306  -12.8083 S   0  0  0  0  0  0  0  0  0  0  0  0
   -7.0350    2.8697  -11.9315 C   0  0  0  0  0  0  0  0  0  0  0  0
   -6.4869    5.5352  -16.0630 C   0  0  0  0  0  0  0  0  0  0  0  0
  1  2  1  0
  2  3  2  0
  3  4  1  0
  4  5  2  0
  5  6  1  0
  6  7  2  0
  7  8  1  0
  7  9  1  0
  9 10  2  0
 10 11  1  0
 11 12  1  0
 12 13  1  0
 13 14  2  0
 13 15  1  0
 15 16  1  0
 16 17  1  0
 17 18  2  0
 18 19  1  0
 19 20  1  0
 20 21  1  0
 21 22  2  0
 22 23  1  0
 23 24  1  0
 11 25  2  0
 25  2  1  0
 25  6  1  0
 19 15  2  0
 24 20  2  0
M  END
>  <fragmenstein_outcome>  (195) 
nan

>  <exports>  (195) 
['/opt/xchem-fragalysis-2/maxwin/openbind-hippo/xx01zvns2b/cycle_01/syndirella/elabs/openbind_xx01zvns2b_c1_elab_chemspace_filtered.sdf']

>  <Energy>  (195) 
nan

>  <alias>  (195) 
None

>  <fragmenstein_runtime>  (195) 
nan

>  <scratch_subdir>  (195) 
nan

>  <HIPPO Compound ID>  (195) 
140393

>  <rmsd(smina/fragmenstein)>  (195) 
0.759

>  <distance_score>  (195) 
1.639641

>  <orig_smiles>  (195) 
nan

>  <fragmenstein_mode>  (195) 
nan

>  <inchikey>  (195) 
USIYZJBYYLDEJZ-UHFFFAOYSA-N

>  <ref_pdb>  (195) 
Z0719a

>  <GNINA pK>  (195) 
nan

>  <gnina_score_min>  (195) 
5.698

>  <tags>  (195) 
openbind_xx01zvns2b_c1_elab_nonasap_filtered_scored_top80percent,openbind_xx01zvns2b_c1_elab_chemspace_filtered_scored_top80percent,openbind_xx01zvns2b_c1_elab_chemspace_filtered_scored,openbind_xx01zvns2b_c1_elab_chemspace_filtered_scored_top40percent,openbind_xx01zvns2b_c1_elab_chemspace_filtered_scored_top20percent,openbind_xx01zvns2b_c1_elab_chemspace_filtered_scored_top60percent,openbind_xx01zvns2b_c1_elabs_filtered

>  <smiles>  (195) 
Cc1ccnc2c(Cl)ccc(NC(=O)c3sccc3-c3ccsc3)c12

>  <subsites>  (195) 
1 - Z4590/B/203/1

>  <gnina_score>  (195) 
5.841

>  <HIPPO Pose ID>  (195) 
70034

>  <ref_mols>  (195) 
Z0719a,Z1688a

>  <energy_score>  (195) 
-39.54053

>  <inspiration_score>  (195) 
None

>  <smina_score_min>  (195) 
-5.562

>  <fragmenstein_error>  (195) 
nan

>  <name>  (195) 
P70034

$$$$
P70035
     RDKit          3D

 25 28  0  0  0  0  0  0  0  0999 V2000
   -7.6691    7.9430  -12.7551 O   0  0  0  0  0  0  0  0  0  0  0  0
   -6.9151    7.0523  -12.8110 C   0  0  0  0  0  0  0  0  0  0  0  0
   -6.4973    6.1652  -14.0092 N   0  0  0  0  0  0  0  0  0  0  0  0
   -6.9743    6.1284  -15.3189 C   0  0  0  0  0  0  0  0  0  0  0  0
   -8.3393    5.8443  -15.4831 C   0  0  0  0  0  0  0  0  0  0  0  0
   -9.6306    6.2644  -14.1812 Br  0  0  0  0  0  0  0  0  0  0  0  0
   -8.7865    5.1523  -16.5985 C   0  0  0  0  0  0  0  0  0  0  0  0
   -7.8924    4.8468  -17.6146 C   0  0  0  0  0  0  0  0  0  0  0  0
   -8.5585    4.0430  -18.9785 Cl  0  0  0  0  0  0  0  0  0  0  0  0
   -6.5371    5.1807  -17.5354 C   0  0  0  0  0  0  0  0  0  0  0  0
   -5.6848    4.9020  -18.5406 N   0  0  0  0  0  0  0  0  0  0  0  0
   -4.3800    5.2009  -18.4118 C   0  0  0  0  0  0  0  0  0  0  0  0
   -3.8389    5.7682  -17.2808 C   0  0  0  0  0  0  0  0  0  0  0  0
   -4.6987    6.0646  -16.2359 C   0  0  0  0  0  0  0  0  0  0  0  0
   -6.0753    5.7956  -16.3487 C   0  0  0  0  0  0  0  0  0  0  0  0
   -6.2690    6.5405  -11.5986 C   0  0  0  0  0  0  0  0  0  0  0  0
   -5.8963    7.5902  -10.3018 S   0  0  0  0  0  0  0  0  0  0  0  0
   -5.4317    6.2837   -9.2953 C   0  0  0  0  0  0  0  0  0  0  0  0
   -5.5947    5.0620   -9.9134 C   0  0  0  0  0  0  0  0  0  0  0  0
   -6.0905    5.2077  -11.2289 C   0  0  0  0  0  0  0  0  0  0  0  0
   -6.3027    4.0870  -12.0847 N   0  0  0  0  0  0  0  0  0  0  0  0
   -7.5199    3.6339  -12.5443 C   0  0  0  0  0  0  0  0  0  0  0  0
   -7.2521    3.0797  -13.7707 C   0  0  0  0  0  0  0  0  0  0  0  0
   -5.9256    3.1905  -14.0451 N   0  0  0  0  0  0  0  0  0  0  0  0
   -5.3408    3.7535  -12.9940 N   0  0  0  0  0  0  0  0  0  0  0  0
  1  2  2  0
  2  3  1  0
  3  4  1  0
  4  5  2  0
  5  6  1  0
  5  7  1  0
  7  8  2  0
  8  9  1  0
  8 10  1  0
 10 11  2  0
 11 12  1  0
 12 13  2  0
 13 14  1  0
 14 15  2  0
  2 16  1  0
 16 17  1  0
 17 18  1  0
 18 19  2  0
 19 20  1  0
 20 21  1  0
 21 22  1  0
 22 23  2  0
 23 24  1  0
 24 25  2  0
 15  4  1  0
 20 16  2  0
 25 21  1  0
 15 10  1  0
M  END
>  <fragmenstein_outcome>  (196) 
nan

>  <exports>  (196) 
['/opt/xchem-fragalysis-2/maxwin/openbind-hippo/xx01zvns2b/cycle_01/syndirella/elabs/openbind_xx01zvns2b_c1_elab_chemspace_filtered.sdf']

>  <Energy>  (196) 
nan

>  <alias>  (196) 
None

>  <fragmenstein_runtime>  (196) 
nan

>  <scratch_subdir>  (196) 
nan

>  <HIPPO Compound ID>  (196) 
140401

>  <rmsd(smina/fragmenstein)>  (196) 
2.203

>  <distance_score>  (196) 
1.694438

>  <orig_smiles>  (196) 
nan

>  <fragmenstein_mode>  (196) 
nan

>  <inchikey>  (196) 
QAGRFHPTETVAMP-UHFFFAOYSA-N

>  <ref_pdb>  (196) 
Z0719a

>  <GNINA pK>  (196) 
nan

>  <gnina_score_min>  (196) 
5.589

>  <tags>  (196) 
openbind_xx01zvns2b_c1_elab_nonasap_filtered_scored_top80percent,openbind_xx01zvns2b_c1_elab_chemspace_filtered_scored_top80percent,openbind_xx01zvns2b_c1_elab_chemspace_filtered_scored,openbind_xx01zvns2b_c1_elab_chemspace_filtered_scored_top40percent,openbind_xx01zvns2b_c1_elab_chemspace_filtered_scored_top20percent,openbind_xx01zvns2b_c1_elab_chemspace_filtered_scored_top60percent,openbind_xx01zvns2b_c1_elabs_filtered

>  <smiles>  (196) 
O=C(Nc1c(Br)cc(Cl)c2ncccc12)c1sccc1-n1ccnn1

>  <subsites>  (196) 
1 - Z4590/B/203/1

>  <gnina_score>  (196) 
5.725

>  <HIPPO Pose ID>  (196) 
70035

>  <ref_mols>  (196) 
Z0719a,Z1688a

>  <energy_score>  (196) 
-2.833881

>  <inspiration_score>  (196) 
None

>  <smina_score_min>  (196) 
-6.711

>  <fragmenstein_error>  (196) 
nan

>  <name>  (196) 
P70035

$$$$
P70036
     RDKit          3D

 25 28  0  0  0  0  0  0  0  0999 V2000
   -4.6921    7.1825  -14.8828 C   0  0  0  0  0  0  0  0  0  0  0  0
   -5.1404    6.3674  -16.0675 C   0  0  0  0  0  0  0  0  0  0  0  0
   -4.1661    6.1009  -17.0344 C   0  0  0  0  0  0  0  0  0  0  0  0
   -4.5355    5.4315  -18.1742 C   0  0  0  0  0  0  0  0  0  0  0  0
   -5.7855    5.0119  -18.4010 N   0  0  0  0  0  0  0  0  0  0  0  0
   -6.7483    5.2204  -17.4820 C   0  0  0  0  0  0  0  0  0  0  0  0
   -8.0459    4.7537  -17.7287 C   0  0  0  0  0  0  0  0  0  0  0  0
   -8.4570    3.9580  -19.1872 Cl  0  0  0  0  0  0  0  0  0  0  0  0
   -9.0869    4.9086  -16.8279 C   0  0  0  0  0  0  0  0  0  0  0  0
   -8.8450    5.5672  -15.6441 C   0  0  0  0  0  0  0  0  0  0  0  0
   -7.5628    6.0224  -15.3419 C   0  0  0  0  0  0  0  0  0  0  0  0
   -7.3314    6.2399  -13.9928 N   0  0  0  0  0  0  0  0  0  0  0  0
   -8.3136    6.5966  -12.8474 C   0  0  0  0  0  0  0  0  0  0  0  0
   -9.4557    6.8383  -12.8778 O   0  0  0  0  0  0  0  0  0  0  0  0
   -7.5744    6.4850  -11.6002 C   0  0  0  0  0  0  0  0  0  0  0  0
   -7.4749    7.7490  -10.4730 S   0  0  0  0  0  0  0  0  0  0  0  0
   -6.3380    6.8757   -9.5276 C   0  0  0  0  0  0  0  0  0  0  0  0
   -6.0613    5.6312  -10.0588 C   0  0  0  0  0  0  0  0  0  0  0  0
   -6.8404    5.3729  -11.2088 C   0  0  0  0  0  0  0  0  0  0  0  0
   -6.7371    4.1864  -11.9993 N   0  0  0  0  0  0  0  0  0  0  0  0
   -7.7493    3.5931  -12.7186 C   0  0  0  0  0  0  0  0  0  0  0  0
   -7.1290    3.0756  -13.8245 C   0  0  0  0  0  0  0  0  0  0  0  0
   -5.7862    3.2559  -13.7216 N   0  0  0  0  0  0  0  0  0  0  0  0
   -5.5437    3.8192  -12.5391 N   0  0  0  0  0  0  0  0  0  0  0  0
   -6.4797    5.8873  -16.2596 C   0  0  0  0  0  0  0  0  0  0  0  0
  1  2  1  0
  2  3  2  0
  3  4  1  0
  4  5  2  0
  5  6  1  0
  6  7  2  0
  7  8  1  0
  7  9  1  0
  9 10  2  0
 10 11  1  0
 11 12  1  0
 12 13  1  0
 13 14  2  0
 13 15  1  0
 15 16  1  0
 16 17  1  0
 17 18  2  0
 18 19  1  0
 19 20  1  0
 20 21  1  0
 21 22  2  0
 22 23  1  0
 23 24  2  0
 11 25  2  0
 25  2  1  0
 25  6  1  0
 19 15  2  0
 24 20  1  0
M  END
>  <fragmenstein_outcome>  (197) 
nan

>  <exports>  (197) 
['/opt/xchem-fragalysis-2/maxwin/openbind-hippo/xx01zvns2b/cycle_01/syndirella/elabs/openbind_xx01zvns2b_c1_elab_chemspace_filtered.sdf']

>  <Energy>  (197) 
nan

>  <alias>  (197) 
None

>  <fragmenstein_runtime>  (197) 
nan

>  <scratch_subdir>  (197) 
nan

>  <HIPPO Compound ID>  (197) 
140402

>  <rmsd(smina/fragmenstein)>  (197) 
1.171

>  <distance_score>  (197) 
1.575299

>  <orig_smiles>  (197) 
nan

>  <fragmenstein_mode>  (197) 
nan

>  <inchikey>  (197) 
HDFQRNCKICOMNP-UHFFFAOYSA-N

>  <ref_pdb>  (197) 
Z0719a

>  <GNINA pK>  (197) 
nan

>  <gnina_score_min>  (197) 
5.416

>  <tags>  (197) 
openbind_xx01zvns2b_c1_elab_nonasap_filtered_scored_top80percent,openbind_xx01zvns2b_c1_elab_chemspace_filtered_scored_top80percent,openbind_xx01zvns2b_c1_elab_chemspace_filtered_scored,openbind_xx01zvns2b_c1_elab_chemspace_filtered_scored_top40percent,openbind_xx01zvns2b_c1_elab_chemspace_filtered_scored_top20percent,openbind_xx01zvns2b_c1_elab_chemspace_filtered_scored_top60percent,openbind_xx01zvns2b_c1_elabs_filtered

>  <smiles>  (197) 
Cc1ccnc2c(Cl)ccc(NC(=O)c3sccc3-n3ccnn3)c12

>  <subsites>  (197) 
1 - Z4590/B/203/1

>  <gnina_score>  (197) 
5.485

>  <HIPPO Pose ID>  (197) 
70036

>  <ref_mols>  (197) 
Z1688a,Z0719a

>  <energy_score>  (197) 
-34.657709

>  <inspiration_score>  (197) 
None

>  <smina_score_min>  (197) 
-5.79

>  <fragmenstein_error>  (197) 
nan

>  <name>  (197) 
P70036

$$$$
P70037
     RDKit          3D

 24 27  0  0  0  0  0  0  0  0999 V2000
   -9.7667    4.4398  -17.5971 C   0  0  0  0  0  0  0  0  0  0  0  0
   -9.2357    4.1676  -16.1985 C   0  0  0  0  0  0  0  0  0  0  0  0
   -9.0584    5.3952  -15.2904 C   0  0  0  0  0  0  0  0  0  0  0  0
   -7.9841    5.2858  -14.3640 O   0  0  0  0  0  0  0  0  0  0  0  0
   -6.8173    5.2467  -15.0539 C   0  0  0  0  0  0  0  0  0  0  0  0
   -6.8485    5.9103  -16.2298 N   0  0  0  0  0  0  0  0  0  0  0  0
   -5.9847    5.5607  -17.1527 C   0  0  0  0  0  0  0  0  0  0  0  0
   -6.2721    5.9126  -18.4599 C   0  0  0  0  0  0  0  0  0  0  0  0
   -5.4182    5.5691  -19.4937 C   0  0  0  0  0  0  0  0  0  0  0  0
   -4.2270    4.9299  -19.1903 C   0  0  0  0  0  0  0  0  0  0  0  0
   -3.9395    4.5588  -17.8708 C   0  0  0  0  0  0  0  0  0  0  0  0
   -4.8572    4.8040  -16.8368 C   0  0  0  0  0  0  0  0  0  0  0  0
   -4.7683    4.2611  -15.5218 C   0  0  0  0  0  0  0  0  0  0  0  0
   -5.8387    4.3832  -14.6211 C   0  0  0  0  0  0  0  0  0  0  0  0
   -6.0993    3.4331  -13.4554 C   0  0  1  0  0  0  0  0  0  0  0  0
   -4.8824    2.8165  -13.0628 O   0  0  0  0  0  0  0  0  0  0  0  0
   -6.7649    4.0008  -12.3078 N   0  0  0  0  0  0  0  0  0  0  0  0
   -6.0152    4.9577  -11.4908 C   0  0  0  0  0  0  0  0  0  0  0  0
   -6.8576    5.4075  -10.2728 C   0  0  1  0  0  0  0  0  0  0  0  0
   -8.3656    5.4054  -10.6051 C   0  0  0  0  0  0  0  0  0  0  0  0
   -8.2211    3.8771  -10.3150 C   0  0  1  0  0  0  0  0  0  0  0  0
   -7.6383    3.1101  -11.5341 C   0  0  0  0  0  0  0  0  0  0  0  0
   -7.0859    4.2187   -9.3800 N   0  0  0  0  0  0  0  0  0  0  0  0
   -7.5528    4.5735   -8.0461 C   0  0  0  0  0  0  0  0  0  0  0  0
  1  2  1  0
  2  3  1  0
  3  4  1  0
  4  5  1  0
  5  6  2  0
  6  7  1  0
  7  8  2  0
  8  9  1  0
  9 10  2  0
 10 11  1  0
 11 12  2  0
 12 13  1  0
 13 14  2  0
 14 15  1  0
 15 16  1  1
 15 17  1  0
 17 18  1  0
 19 18  1  6
 19 20  1  0
 21 20  1  6
 21 22  1  0
 21 23  1  0
 23 24  1  0
 14  5  1  0
 22 17  1  0
 12  7  1  0
 23 19  1  0
M  END
>  <fragmenstein_outcome>  (198) 
nan

>  <exports>  (198) 
['/opt/xchem-fragalysis-2/maxwin/openbind-hippo/xx01zvns2b/cycle_01/syndirella/elabs/openbind_xx01zvns2b_c1_elab_chemspace_filtered.sdf']

>  <Energy>  (198) 
nan

>  <alias>  (198) 
None

>  <fragmenstein_runtime>  (198) 
nan

>  <scratch_subdir>  (198) 
nan

>  <HIPPO Compound ID>  (198) 
140476

>  <rmsd(smina/fragmenstein)>  (198) 
0.987

>  <distance_score>  (198) 
1.962492

>  <orig_smiles>  (198) 
nan

>  <fragmenstein_mode>  (198) 
nan

>  <inchikey>  (198) 
OXPUVAFKDHDJAL-ZRGWGRIASA-N

>  <ref_pdb>  (198) 
Z0673a

>  <GNINA pK>  (198) 
nan

>  <gnina_score_min>  (198) 
5.152

>  <tags>  (198) 
openbind_xx01zvns2b_c1_elab_nonasap_filtered_scored_top80percent,openbind_xx01zvns2b_c1_elab_chemspace_filtered_scored_top80percent,openbind_xx01zvns2b_c1_elab_chemspace_filtered_scored,openbind_xx01zvns2b_c1_elab_chemspace_filtered_scored_top40percent,openbind_xx01zvns2b_c1_elab_chemspace_filtered_scored_top20percent,openbind_xx01zvns2b_c1_elab_chemspace_filtered_scored_top60percent,openbind_xx01zvns2b_c1_elabs_filtered

>  <smiles>  (198) 
CCCOc1nc2ccccc2cc1[C@@H](O)N1C[C@H]2C[C@@H](C1)N2C

>  <subsites>  (198) 
1 - Z4590/B/203/1

>  <gnina_score>  (198) 
5.156

>  <HIPPO Pose ID>  (198) 
70037

>  <ref_mols>  (198) 
Z0673a,Z1719a

>  <energy_score>  (198) 
-18.880775

>  <inspiration_score>  (198) 
None

>  <smina_score_min>  (198) 
-6.66

>  <fragmenstein_error>  (198) 
nan

>  <name>  (198) 
P70037

$$$$
P70038
     RDKit          3D

 25 28  0  0  0  0  0  0  0  0999 V2000
   -9.7595    4.4511  -17.5287 C   0  0  0  0  0  0  0  0  0  0  0  0
   -9.3016    4.1937  -16.1003 C   0  0  0  0  0  0  0  0  0  0  0  0
   -9.1181    5.4361  -15.2027 C   0  0  0  0  0  0  0  0  0  0  0  0
   -8.0108    5.3399  -14.3144 O   0  0  0  0  0  0  0  0  0  0  0  0
   -6.8667    5.2443  -15.0344 C   0  0  0  0  0  0  0  0  0  0  0  0
   -6.9065    5.8702  -16.2323 N   0  0  0  0  0  0  0  0  0  0  0  0
   -6.0204    5.5248  -17.1365 C   0  0  0  0  0  0  0  0  0  0  0  0
   -6.2760    5.8651  -18.4563 C   0  0  0  0  0  0  0  0  0  0  0  0
   -5.3781    5.5411  -19.4609 C   0  0  0  0  0  0  0  0  0  0  0  0
   -4.1889    4.9336  -19.1042 C   0  0  0  0  0  0  0  0  0  0  0  0
   -3.2601    4.6874  -20.0373 F   0  0  0  0  0  0  0  0  0  0  0  0
   -3.9297    4.5642  -17.7853 C   0  0  0  0  0  0  0  0  0  0  0  0
   -4.8834    4.7931  -16.7860 C   0  0  0  0  0  0  0  0  0  0  0  0
   -4.8090    4.2602  -15.4695 C   0  0  0  0  0  0  0  0  0  0  0  0
   -5.8899    4.3859  -14.5852 C   0  0  0  0  0  0  0  0  0  0  0  0
   -6.1566    3.4446  -13.4134 C   0  0  1  0  0  0  0  0  0  0  0  0
   -4.9460    2.8134  -13.0247 O   0  0  0  0  0  0  0  0  0  0  0  0
   -6.8089    4.0267  -12.2667 N   0  0  0  0  0  0  0  0  0  0  0  0
   -6.0391    4.9769  -11.4601 C   0  0  0  0  0  0  0  0  0  0  0  0
   -6.8648    5.4428  -10.2371 C   0  0  1  0  0  0  0  0  0  0  0  0
   -8.3755    5.4567  -10.5565 C   0  0  0  0  0  0  0  0  0  0  0  0
   -8.2463    3.9281  -10.2593 C   0  0  1  0  0  0  0  0  0  0  0  0
   -7.6836    3.1483  -11.4796 C   0  0  0  0  0  0  0  0  0  0  0  0
   -7.0990    4.2615   -9.3363 N   0  0  0  0  0  0  0  0  0  0  0  0
   -7.5498    4.6287   -8.0002 C   0  0  0  0  0  0  0  0  0  0  0  0
  1  2  1  0
  2  3  1  0
  3  4  1  0
  4  5  1  0
  5  6  2  0
  6  7  1  0
  7  8  2  0
  8  9  1  0
  9 10  2  0
 10 11  1  0
 10 12  1  0
 12 13  2  0
 13 14  1  0
 14 15  2  0
 15 16  1  0
 16 17  1  1
 16 18  1  0
 18 19  1  0
 20 19  1  6
 20 21  1  0
 22 21  1  6
 22 23  1  0
 22 24  1  0
 24 25  1  0
 15  5  1  0
 23 18  1  0
 13  7  1  0
 24 20  1  0
M  END
>  <fragmenstein_outcome>  (199) 
nan

>  <exports>  (199) 
['/opt/xchem-fragalysis-2/maxwin/openbind-hippo/xx01zvns2b/cycle_01/syndirella/elabs/openbind_xx01zvns2b_c1_elab_chemspace_filtered.sdf']

>  <Energy>  (199) 
nan

>  <alias>  (199) 
None

>  <fragmenstein_runtime>  (199) 
nan

>  <scratch_subdir>  (199) 
nan

>  <HIPPO Compound ID>  (199) 
140479

>  <rmsd(smina/fragmenstein)>  (199) 
1.159

>  <distance_score>  (199) 
1.949387

>  <orig_smiles>  (199) 
nan

>  <fragmenstein_mode>  (199) 
nan

>  <inchikey>  (199) 
YNSUJDAXDBGSKI-ZRGWGRIASA-N

>  <ref_pdb>  (199) 
Z0673a

>  <GNINA pK>  (199) 
nan

>  <gnina_score_min>  (199) 
5.293

>  <tags>  (199) 
openbind_xx01zvns2b_c1_elab_nonasap_filtered_scored_top80percent,openbind_xx01zvns2b_c1_elab_chemspace_filtered_scored_top80percent,openbind_xx01zvns2b_c1_elab_chemspace_filtered_scored,openbind_xx01zvns2b_c1_elab_chemspace_filtered_scored_top40percent,openbind_xx01zvns2b_c1_elab_chemspace_filtered_scored_top20percent,openbind_xx01zvns2b_c1_elab_chemspace_filtered_scored_top60percent,openbind_xx01zvns2b_c1_elabs_filtered

>  <smiles>  (199) 
CCCOc1nc2ccc(F)cc2cc1[C@@H](O)N1C[C@H]2C[C@@H](C1)N2C

>  <subsites>  (199) 
1 - Z4590/B/203/1

>  <gnina_score>  (199) 
5.262

>  <HIPPO Pose ID>  (199) 
70038

>  <ref_mols>  (199) 
Z0673a,Z1719a

>  <energy_score>  (199) 
-44.334483

>  <inspiration_score>  (199) 
None

>  <smina_score_min>  (199) 
-6.624

>  <fragmenstein_error>  (199) 
nan

>  <name>  (199) 
P70038

$$$$
P70040
     RDKit          3D

 25 28  0  0  0  0  0  0  0  0999 V2000
   -9.8178    4.4855  -17.5627 C   0  0  0  0  0  0  0  0  0  0  0  0
   -9.3315    4.2523  -16.1407 C   0  0  0  0  0  0  0  0  0  0  0  0
   -9.1678    5.5064  -15.2553 C   0  0  0  0  0  0  0  0  0  0  0  0
   -8.1755    5.3358  -14.2383 O   0  0  0  0  0  0  0  0  0  0  0  0
   -6.9642    5.2456  -14.8527 C   0  0  0  0  0  0  0  0  0  0  0  0
   -6.8793    5.9430  -16.0055 N   0  0  0  0  0  0  0  0  0  0  0  0
   -6.0063    5.5534  -16.9016 C   0  0  0  0  0  0  0  0  0  0  0  0
   -6.2305    5.9234  -18.2184 C   0  0  0  0  0  0  0  0  0  0  0  0
   -5.3572    5.5462  -19.2232 C   0  0  0  0  0  0  0  0  0  0  0  0
   -4.2030    4.8644  -18.8737 C   0  0  0  0  0  0  0  0  0  0  0  0
   -3.9849    4.4760  -17.5436 C   0  0  0  0  0  0  0  0  0  0  0  0
   -4.9385    4.7379  -16.5451 C   0  0  0  0  0  0  0  0  0  0  0  0
   -4.9550    4.1620  -15.2350 C   0  0  0  0  0  0  0  0  0  0  0  0
   -6.0733    4.3086  -14.3920 C   0  0  0  0  0  0  0  0  0  0  0  0
   -6.4502    3.3120  -13.2975 C   0  0  1  0  0  0  0  0  0  0  0  0
   -5.2848    2.7508  -12.7229 O   0  0  0  0  0  0  0  0  0  0  0  0
   -7.3885    3.6939  -12.2453 N   0  0  0  0  0  0  0  0  0  0  0  0
   -6.8484    4.3739  -11.0679 C   0  0  1  0  0  0  0  0  0  0  0  0
   -5.8419    5.5286  -11.3322 C   0  0  0  0  0  0  0  0  0  0  0  0
   -6.0296    6.6733  -10.4096 N   0  0  0  0  0  0  0  0  0  0  0  0
   -6.0984    6.1663   -9.0210 C   0  0  0  0  0  0  0  0  0  0  0  0
   -7.3247    5.2656   -8.7999 C   0  0  0  0  0  0  0  0  0  0  0  0
   -7.9680    4.9504  -10.1637 C   0  0  0  0  0  0  0  0  0  0  0  0
   -8.4568    6.2957  -10.7344 C   0  0  0  0  0  0  0  0  0  0  0  0
   -7.3116    7.3140  -10.7511 C   0  0  0  0  0  0  0  0  0  0  0  0
  1  2  1  0
  2  3  1  0
  3  4  1  0
  4  5  1  0
  5  6  2  0
  6  7  1  0
  7  8  2  0
  8  9  1  0
  9 10  2  0
 10 11  1  0
 11 12  2  0
 12 13  1  0
 13 14  2  0
 14 15  1  0
 15 16  1  1
 15 17  1  0
 18 17  1  6
 18 19  1  0
 20 19  1  0
 20 21  1  0
 21 22  1  0
 22 23  1  0
 23 24  1  0
 24 25  1  0
 14  5  1  0
 23 18  1  0
 12  7  1  0
 25 20  1  0
M  END
>  <fragmenstein_outcome>  (200) 
nan

>  <exports>  (200) 
['/opt/xchem-fragalysis-2/maxwin/openbind-hippo/xx01zvns2b/cycle_01/syndirella/elabs/openbind_xx01zvns2b_c1_elab_chemspace_filtered.sdf']

>  <Energy>  (200) 
nan

>  <alias>  (200) 
None

>  <fragmenstein_runtime>  (200) 
nan

>  <scratch_subdir>  (200) 
nan

>  <HIPPO Compound ID>  (200) 
140481

>  <rmsd(smina/fragmenstein)>  (200) 
1.364

>  <distance_score>  (200) 
1.84918

>  <orig_smiles>  (200) 
nan

>  <fragmenstein_mode>  (200) 
nan

>  <inchikey>  (200) 
GCGXPLVGMBGIGW-RBUKOAKNSA-N

>  <ref_pdb>  (200) 
Z0673a

>  <GNINA pK>  (200) 
nan

>  <gnina_score_min>  (200) 
5.475

>  <tags>  (200) 
openbind_xx01zvns2b_c1_elab_nonasap_filtered_scored_top80percent,openbind_xx01zvns2b_c1_elab_chemspace_filtered_scored_top80percent,openbind_xx01zvns2b_c1_elab_chemspace_filtered_scored,openbind_xx01zvns2b_c1_elab_chemspace_filtered_scored_top40percent,openbind_xx01zvns2b_c1_elab_chemspace_filtered_scored_top20percent,openbind_xx01zvns2b_c1_elab_chemspace_filtered_scored_top60percent,openbind_xx01zvns2b_c1_elabs_filtered

>  <smiles>  (200) 
CCCOc1nc2ccccc2cc1[C@@H](O)N[C@H]1CN2CCC1CC2

>  <subsites>  (200) 
1 - Z4590/B/203/1

>  <gnina_score>  (200) 
5.35

>  <HIPPO Pose ID>  (200) 
70040

>  <ref_mols>  (200) 
Z0673a,Z1719a

>  <energy_score>  (200) 
-24.518665

>  <inspiration_score>  (200) 
None

>  <smina_score_min>  (200) 
-6.245

>  <fragmenstein_error>  (200) 
nan

>  <name>  (200) 
P70040

$$$$
P70041
     RDKit          3D

 25 28  0  0  0  0  0  0  0  0999 V2000
   -9.8959    4.1324  -17.8075 C   0  0  0  0  0  0  0  0  0  0  0  0
   -8.9981    3.8676  -16.6118 C   0  0  0  0  0  0  0  0  0  0  0  0
   -9.2328    4.8105  -15.4240 C   0  0  0  0  0  0  0  0  0  0  0  0
   -8.2160    5.0246  -14.4476 O   0  0  0  0  0  0  0  0  0  0  0  0
   -7.0195    5.2036  -15.0431 C   0  0  0  0  0  0  0  0  0  0  0  0
   -7.0656    5.9264  -16.1811 N   0  0  0  0  0  0  0  0  0  0  0  0
   -6.1413    5.6511  -17.0816 C   0  0  0  0  0  0  0  0  0  0  0  0
   -6.4114    5.9753  -18.4003 C   0  0  0  0  0  0  0  0  0  0  0  0
   -5.5288    5.6448  -19.4177 C   0  0  0  0  0  0  0  0  0  0  0  0
   -4.3274    5.0347  -19.0954 C   0  0  0  0  0  0  0  0  0  0  0  0
   -4.0468    4.6935  -17.7686 C   0  0  0  0  0  0  0  0  0  0  0  0
   -4.9841    4.9345  -16.7517 C   0  0  0  0  0  0  0  0  0  0  0  0
   -4.8830    4.3940  -15.4413 C   0  0  0  0  0  0  0  0  0  0  0  0
   -5.9840    4.4272  -14.5743 C   0  0  0  0  0  0  0  0  0  0  0  0
   -6.2074    3.4815  -13.4020 C   0  0  1  0  0  0  0  0  0  0  0  0
   -5.0728    2.6266  -13.2914 O   0  0  0  0  0  0  0  0  0  0  0  0
   -6.4173    4.0115  -12.0791 N   0  0  0  0  0  0  0  0  0  0  0  0
   -7.7700    3.9915  -11.5075 C   0  0  0  0  0  0  0  0  0  0  0  0
   -7.9307    5.1758  -10.5080 C   0  0  2  0  0  0  0  0  0  0  0  0
   -7.7092    6.4763  -11.3096 C   0  0  0  0  0  0  0  0  0  0  0  0
   -6.2827    6.4867  -11.8791 C   0  0  0  0  0  0  0  0  0  0  0  0
   -5.6089    5.1319  -11.5873 C   0  0  1  0  0  0  0  0  0  0  0  0
   -5.5606    4.9792  -10.0328 C   0  0  0  0  0  0  0  0  0  0  0  0
   -6.9035    5.1829   -9.4285 N   0  0  0  0  0  0  0  0  0  0  0  0
   -7.1811    4.1698   -8.4119 C   0  0  0  0  0  0  0  0  0  0  0  0
  1  2  1  0
  2  3  1  0
  3  4  1  0
  4  5  1  0
  5  6  2  0
  6  7  1  0
  7  8  2  0
  8  9  1  0
  9 10  2  0
 10 11  1  0
 11 12  2  0
 12 13  1  0
 13 14  2  0
 14 15  1  0
 15 16  1  1
 15 17  1  0
 17 18  1  0
 19 18  1  6
 19 20  1  0
 20 21  1  0
 22 21  1  1
 22 23  1  0
 23 24  1  0
 24 25  1  0
 14  5  1  0
 22 17  1  0
 12  7  1  0
 24 19  1  0
M  END
>  <fragmenstein_outcome>  (201) 
nan

>  <exports>  (201) 
['/opt/xchem-fragalysis-2/maxwin/openbind-hippo/xx01zvns2b/cycle_01/syndirella/elabs/openbind_xx01zvns2b_c1_elab_chemspace_filtered.sdf']

>  <Energy>  (201) 
nan

>  <alias>  (201) 
None

>  <fragmenstein_runtime>  (201) 
nan

>  <scratch_subdir>  (201) 
nan

>  <HIPPO Compound ID>  (201) 
140482

>  <rmsd(smina/fragmenstein)>  (201) 
1.495

>  <distance_score>  (201) 
1.669702

>  <orig_smiles>  (201) 
nan

>  <fragmenstein_mode>  (201) 
nan

>  <inchikey>  (201) 
LKEBCQJCVOWJFA-TWOQFEAHSA-N

>  <ref_pdb>  (201) 
Z0673a

>  <GNINA pK>  (201) 
nan

>  <gnina_score_min>  (201) 
5.525

>  <tags>  (201) 
openbind_xx01zvns2b_c1_elab_nonasap_filtered_scored_top80percent,openbind_xx01zvns2b_c1_elab_chemspace_filtered_scored_top80percent,openbind_xx01zvns2b_c1_elab_chemspace_filtered_scored,openbind_xx01zvns2b_c1_elab_chemspace_filtered_scored_top40percent,openbind_xx01zvns2b_c1_elab_chemspace_filtered_scored_top20percent,openbind_xx01zvns2b_c1_elab_chemspace_filtered_scored_top60percent,openbind_xx01zvns2b_c1_elabs_filtered

>  <smiles>  (201) 
CCCOc1nc2ccccc2cc1[C@@H](O)N1C[C@@H]2CC[C@H]1CN2C

>  <subsites>  (201) 
1 - Z4590/B/203/1

>  <gnina_score>  (201) 
5.27

>  <HIPPO Pose ID>  (201) 
70041

>  <ref_mols>  (201) 
Z0673a,Z1719a

>  <energy_score>  (201) 
-37.550119

>  <inspiration_score>  (201) 
None

>  <smina_score_min>  (201) 
-7.06

>  <fragmenstein_error>  (201) 
nan

>  <name>  (201) 
P70041

$$$$
P70042
     RDKit          3D

 26 29  0  0  0  0  0  0  0  0999 V2000
   -9.3327    3.8008  -18.4777 C   0  0  0  0  0  0  0  0  0  0  0  0
  -10.0215    4.3883  -17.2718 C   0  0  0  0  0  0  0  0  0  0  0  0
   -9.3602    4.0329  -15.9438 C   0  0  0  0  0  0  0  0  0  0  0  0
   -8.8740    5.1152  -15.1250 O   0  0  0  0  0  0  0  0  0  0  0  0
   -7.5756    5.2729  -15.4600 C   0  0  0  0  0  0  0  0  0  0  0  0
   -7.4632    5.7405  -16.7099 N   0  0  0  0  0  0  0  0  0  0  0  0
   -6.3468    5.5128  -17.3584 C   0  0  0  0  0  0  0  0  0  0  0  0
   -6.3745    5.7457  -18.7156 C   0  0  0  0  0  0  0  0  0  0  0  0
   -5.2814    5.4508  -19.5102 C   0  0  0  0  0  0  0  0  0  0  0  0
   -4.1220    4.9821  -18.9083 C   0  0  0  0  0  0  0  0  0  0  0  0
   -4.0775    4.7679  -17.5252 C   0  0  0  0  0  0  0  0  0  0  0  0
   -5.2148    4.9899  -16.7331 C   0  0  0  0  0  0  0  0  0  0  0  0
   -5.3182    4.6850  -15.3533 C   0  0  0  0  0  0  0  0  0  0  0  0
   -6.5529    4.7795  -14.6792 C   0  0  0  0  0  0  0  0  0  0  0  0
   -6.6752    4.4017  -13.2161 C   0  0  1  0  0  0  0  0  0  0  0  0
   -5.9071    5.4209  -12.5982 O   0  0  0  0  0  0  0  0  0  0  0  0
   -8.0195    4.3865  -12.6630 N   0  0  0  0  0  0  0  0  0  0  0  0
   -8.1599    4.1126  -11.2275 C   0  0  2  0  0  0  0  0  0  0  0  0
   -7.9163    5.3624  -10.3543 C   0  0  0  0  0  0  0  0  0  0  0  0
   -7.1093    4.9530   -9.1195 C   0  0  1  0  0  0  0  0  0  0  0  0
   -7.9026    3.8804   -8.3537 C   0  0  0  0  0  0  0  0  0  0  0  0
   -8.0187    2.6223   -9.2231 C   0  0  0  0  0  0  0  0  0  0  0  0
   -7.4019    2.8862  -10.6184 C   0  0  2  0  0  0  0  0  0  0  0  0
   -5.9707    3.2216  -10.4920 N   0  0  0  0  0  0  0  0  0  0  0  0
   -5.1217    2.0695  -10.2368 C   0  0  0  0  0  0  0  0  0  0  0  0
   -5.7623    4.3237   -9.5409 C   0  0  0  0  0  0  0  0  0  0  0  0
  1  2  1  0
  2  3  1  0
  3  4  1  0
  4  5  1  0
  5  6  2  0
  6  7  1  0
  7  8  2  0
  8  9  1  0
  9 10  2  0
 10 11  1  0
 11 12  2  0
 12 13  1  0
 13 14  2  0
 14 15  1  0
 15 16  1  1
 15 17  1  0
 18 17  1  6
 18 19  1  0
 20 19  1  6
 20 21  1  0
 21 22  1  0
 23 22  1  1
 23 24  1  0
 24 25  1  0
 24 26  1  0
 14  5  1  0
 23 18  1  0
 12  7  1  0
 26 20  1  0
M  END
>  <fragmenstein_outcome>  (202) 
nan

>  <exports>  (202) 
['/opt/xchem-fragalysis-2/maxwin/openbind-hippo/xx01zvns2b/cycle_01/syndirella/elabs/openbind_xx01zvns2b_c1_elab_chemspace_filtered.sdf']

>  <Energy>  (202) 
nan

>  <alias>  (202) 
None

>  <fragmenstein_runtime>  (202) 
nan

>  <scratch_subdir>  (202) 
nan

>  <HIPPO Compound ID>  (202) 
140486

>  <rmsd(smina/fragmenstein)>  (202) 
0.728

>  <distance_score>  (202) 
1.805983

>  <orig_smiles>  (202) 
nan

>  <fragmenstein_mode>  (202) 
nan

>  <inchikey>  (202) 
IBPIZUGARTYLHI-PPRPKMEESA-N

>  <ref_pdb>  (202) 
Z0673a

>  <GNINA pK>  (202) 
nan

>  <gnina_score_min>  (202) 
5.545

>  <tags>  (202) 
openbind_xx01zvns2b_c1_elab_nonasap_filtered_scored_top80percent,openbind_xx01zvns2b_c1_elab_chemspace_filtered_scored_top80percent,openbind_xx01zvns2b_c1_elab_chemspace_filtered_scored,openbind_xx01zvns2b_c1_elab_chemspace_filtered_scored_top40percent,openbind_xx01zvns2b_c1_elab_chemspace_filtered_scored_top20percent,openbind_xx01zvns2b_c1_elab_chemspace_filtered_scored_top60percent,openbind_xx01zvns2b_c1_elabs_filtered

>  <smiles>  (202) 
CCCOc1nc2ccccc2cc1[C@@H](O)N[C@@H]1C[C@H]2CC[C@@H]1N(C)C2

>  <subsites>  (202) 
1 - Z4590/B/203/1

>  <gnina_score>  (202) 
5.593

>  <HIPPO Pose ID>  (202) 
70042

>  <ref_mols>  (202) 
Z0673a,Z1719a

>  <energy_score>  (202) 
-16.88646

>  <inspiration_score>  (202) 
None

>  <smina_score_min>  (202) 
-6.384

>  <fragmenstein_error>  (202) 
nan

>  <name>  (202) 
P70042

$$$$
P70043
     RDKit          3D

 26 29  0  0  0  0  0  0  0  0999 V2000
   -9.8737    4.4651  -17.6637 C   0  0  0  0  0  0  0  0  0  0  0  0
   -9.3257    4.1826  -16.2758 C   0  0  0  0  0  0  0  0  0  0  0  0
   -9.1129    5.4036  -15.3706 C   0  0  0  0  0  0  0  0  0  0  0  0
   -8.1095    5.1860  -14.3882 O   0  0  0  0  0  0  0  0  0  0  0  0
   -6.8980    5.1647  -14.9988 C   0  0  0  0  0  0  0  0  0  0  0  0
   -6.8801    5.7790  -16.2021 N   0  0  0  0  0  0  0  0  0  0  0  0
   -5.9564    5.4482  -17.0617 C   0  0  0  0  0  0  0  0  0  0  0  0
   -6.2019    5.7525  -18.3898 C   0  0  0  0  0  0  0  0  0  0  0  0
   -5.2812    5.4277  -19.3681 C   0  0  0  0  0  0  0  0  0  0  0  0
   -4.0775    4.8583  -18.9807 C   0  0  0  0  0  0  0  0  0  0  0  0
   -3.8400    4.5374  -17.6348 C   0  0  0  0  0  0  0  0  0  0  0  0
   -4.8162    4.7661  -16.6511 C   0  0  0  0  0  0  0  0  0  0  0  0
   -4.7757    4.2935  -15.2982 C   0  0  0  0  0  0  0  0  0  0  0  0
   -5.8944    4.4105  -14.4489 C   0  0  0  0  0  0  0  0  0  0  0  0
   -6.1286    3.5417  -13.2147 C   0  0  1  0  0  0  0  0  0  0  0  0
   -4.8862    3.2199  -12.6024 O   0  0  0  0  0  0  0  0  0  0  0  0
   -7.1107    3.9855  -12.2168 N   0  0  0  0  0  0  0  0  0  0  0  0
   -7.8664    2.8507  -11.6862 C   0  0  0  0  0  0  0  0  0  0  0  0
   -6.6601    4.8770  -11.1368 C   0  0  2  0  0  0  0  0  0  0  0  0
   -7.8891    5.5488  -10.4401 C   0  0  0  0  0  0  0  0  0  0  0  0
   -7.6183    6.9392  -10.0054 N   0  0  0  0  0  0  0  0  0  0  0  0
   -7.4711    7.7715  -11.2149 C   0  0  0  0  0  0  0  0  0  0  0  0
   -6.3877    7.2173  -12.1471 C   0  0  0  0  0  0  0  0  0  0  0  0
   -5.6688    6.0345  -11.4748 C   0  0  0  0  0  0  0  0  0  0  0  0
   -5.1528    6.5712  -10.1208 C   0  0  0  0  0  0  0  0  0  0  0  0
   -6.3523    6.9680   -9.2449 C   0  0  0  0  0  0  0  0  0  0  0  0
  1  2  1  0
  2  3  1  0
  3  4  1  0
  4  5  1  0
  5  6  2  0
  6  7  1  0
  7  8  2  0
  8  9  1  0
  9 10  2  0
 10 11  1  0
 11 12  2  0
 12 13  1  0
 13 14  2  0
 14 15  1  0
 15 16  1  1
 15 17  1  0
 17 18  1  0
 19 17  1  6
 19 20  1  0
 21 20  1  0
 21 22  1  0
 22 23  1  0
 23 24  1  0
 24 25  1  0
 25 26  1  0
 14  5  1  0
 24 19  1  0
 12  7  1  0
 26 21  1  0
M  END
>  <fragmenstein_outcome>  (203) 
nan

>  <exports>  (203) 
['/opt/xchem-fragalysis-2/maxwin/openbind-hippo/xx01zvns2b/cycle_01/syndirella/elabs/openbind_xx01zvns2b_c1_elab_chemspace_filtered.sdf']

>  <Energy>  (203) 
nan

>  <alias>  (203) 
None

>  <fragmenstein_runtime>  (203) 
nan

>  <scratch_subdir>  (203) 
nan

>  <HIPPO Compound ID>  (203) 
140489

>  <rmsd(smina/fragmenstein)>  (203) 
1.266

>  <distance_score>  (203) 
1.871987

>  <orig_smiles>  (203) 
nan

>  <fragmenstein_mode>  (203) 
nan

>  <inchikey>  (203) 
MAGXAFMOFZYOLR-TZIWHRDSSA-N

>  <ref_pdb>  (203) 
Z0673a

>  <GNINA pK>  (203) 
nan

>  <gnina_score_min>  (203) 
5.377

>  <tags>  (203) 
openbind_xx01zvns2b_c1_elab_nonasap_filtered_scored_top80percent,openbind_xx01zvns2b_c1_elab_chemspace_filtered_scored_top80percent,openbind_xx01zvns2b_c1_elab_chemspace_filtered_scored,openbind_xx01zvns2b_c1_elab_chemspace_filtered_scored_top40percent,openbind_xx01zvns2b_c1_elab_chemspace_filtered_scored_top20percent,openbind_xx01zvns2b_c1_elab_chemspace_filtered_scored_top60percent,openbind_xx01zvns2b_c1_elabs_filtered

>  <smiles>  (203) 
CCCOc1nc2ccccc2cc1[C@@H](O)N(C)[C@@H]1CN2CCC1CC2

>  <subsites>  (203) 
1 - Z4590/B/203/1

>  <gnina_score>  (203) 
5.304

>  <HIPPO Pose ID>  (203) 
70043

>  <ref_mols>  (203) 
Z0673a,Z1719a

>  <energy_score>  (203) 
-11.705096

>  <inspiration_score>  (203) 
None

>  <smina_score_min>  (203) 
-6.107

>  <fragmenstein_error>  (203) 
nan

>  <name>  (203) 
P70043

$$$$
P70045
     RDKit          3D

 26 29  0  0  0  0  0  0  0  0999 V2000
   -9.5458    4.2544  -18.7219 C   0  0  0  0  0  0  0  0  0  0  0  0
  -10.0647    4.4220  -17.3150 C   0  0  0  0  0  0  0  0  0  0  0  0
   -9.0950    3.9039  -16.2724 C   0  0  0  0  0  0  0  0  0  0  0  0
   -8.8532    4.8233  -15.1831 O   0  0  0  0  0  0  0  0  0  0  0  0
   -7.5630    5.2296  -15.3495 C   0  0  0  0  0  0  0  0  0  0  0  0
   -7.3881    5.8748  -16.5156 N   0  0  0  0  0  0  0  0  0  0  0  0
   -6.2742    5.6274  -17.1682 C   0  0  0  0  0  0  0  0  0  0  0  0
   -6.2562    5.9369  -18.5162 C   0  0  0  0  0  0  0  0  0  0  0  0
   -5.1833    5.5786  -19.3163 C   0  0  0  0  0  0  0  0  0  0  0  0
   -4.0863    4.9855  -18.7188 C   0  0  0  0  0  0  0  0  0  0  0  0
   -3.0156    4.6694  -19.4598 F   0  0  0  0  0  0  0  0  0  0  0  0
   -4.0656    4.7061  -17.3528 C   0  0  0  0  0  0  0  0  0  0  0  0
   -5.1906    4.9744  -16.5629 C   0  0  0  0  0  0  0  0  0  0  0  0
   -5.3303    4.5558  -15.2148 C   0  0  0  0  0  0  0  0  0  0  0  0
   -6.5798    4.6269  -14.5857 C   0  0  0  0  0  0  0  0  0  0  0  0
   -6.8961    3.9770  -13.2534 C   0  0  2  0  0  0  0  0  0  0  0  0
   -7.5216    2.7327  -13.5090 O   0  0  0  0  0  0  0  0  0  0  0  0
   -7.7242    4.7989  -12.3759 N   0  0  0  0  0  0  0  0  0  0  0  0
   -8.0279    4.1420  -11.0782 C   0  0  0  0  0  0  0  0  0  0  0  0
   -7.6515    5.0603   -9.8755 C   0  0  1  0  0  0  0  0  0  0  0  0
   -6.1389    5.3317   -9.9947 C   0  0  0  0  0  0  0  0  0  0  0  0
   -5.8494    6.0688  -11.3026 C   0  0  0  0  0  0  0  0  0  0  0  0
   -7.1560    6.1533  -12.1136 C   0  0  2  0  0  0  0  0  0  0  0  0
   -8.1635    6.9765  -11.2558 C   0  0  0  0  0  0  0  0  0  0  0  0
   -8.4241    6.3204   -9.9584 N   0  0  0  0  0  0  0  0  0  0  0  0
   -8.2400    7.2130   -8.8258 C   0  0  0  0  0  0  0  0  0  0  0  0
  1  2  1  0
  2  3  1  0
  3  4  1  0
  4  5  1  0
  5  6  2  0
  6  7  1  0
  7  8  2  0
  8  9  1  0
  9 10  2  0
 10 11  1  0
 10 12  1  0
 12 13  2  0
 13 14  1  0
 14 15  2  0
 15 16  1  0
 16 17  1  6
 16 18  1  0
 18 19  1  0
 20 19  1  6
 20 21  1  0
 21 22  1  0
 23 22  1  1
 23 24  1  0
 24 25  1  0
 25 26  1  0
 15  5  1  0
 23 18  1  0
 13  7  1  0
 25 20  1  0
M  END
>  <fragmenstein_outcome>  (204) 
nan

>  <exports>  (204) 
['/opt/xchem-fragalysis-2/maxwin/openbind-hippo/xx01zvns2b/cycle_01/syndirella/elabs/openbind_xx01zvns2b_c1_elab_chemspace_filtered.sdf']

>  <Energy>  (204) 
nan

>  <alias>  (204) 
None

>  <fragmenstein_runtime>  (204) 
nan

>  <scratch_subdir>  (204) 
nan

>  <HIPPO Compound ID>  (204) 
140491

>  <rmsd(smina/fragmenstein)>  (204) 
0.775

>  <distance_score>  (204) 
1.919316

>  <orig_smiles>  (204) 
nan

>  <fragmenstein_mode>  (204) 
nan

>  <inchikey>  (204) 
XGTUCHHEJJVXMV-QINHECLXSA-N

>  <ref_pdb>  (204) 
Z0673a

>  <GNINA pK>  (204) 
nan

>  <gnina_score_min>  (204) 
5.549

>  <tags>  (204) 
openbind_xx01zvns2b_c1_elab_nonasap_filtered_scored_top80percent,openbind_xx01zvns2b_c1_elab_chemspace_filtered_scored_top80percent,openbind_xx01zvns2b_c1_elab_chemspace_filtered_scored,openbind_xx01zvns2b_c1_elab_chemspace_filtered_scored_top40percent,openbind_xx01zvns2b_c1_elab_chemspace_filtered_scored_top20percent,openbind_xx01zvns2b_c1_elab_chemspace_filtered_scored_top60percent,openbind_xx01zvns2b_c1_elabs_filtered

>  <smiles>  (204) 
CCCOc1nc2ccc(F)cc2cc1[C@H](O)N1C[C@H]2CC[C@@H]1CN2C

>  <subsites>  (204) 
1 - Z4590/B/203/1

>  <gnina_score>  (204) 
5.459

>  <HIPPO Pose ID>  (204) 
70045

>  <ref_mols>  (204) 
Z0673a,Z1719a

>  <energy_score>  (204) 
-16.614499

>  <inspiration_score>  (204) 
None

>  <smina_score_min>  (204) 
-6.563

>  <fragmenstein_error>  (204) 
nan

>  <name>  (204) 
P70045

$$$$
P70046
     RDKit          3D

 26 29  0  0  0  0  0  0  0  0999 V2000
   -9.2600    3.8993  -18.4395 C   0  0  0  0  0  0  0  0  0  0  0  0
   -9.9653    4.4283  -17.2152 C   0  0  0  0  0  0  0  0  0  0  0  0
   -9.3737    3.9532  -15.8950 C   0  0  0  0  0  0  0  0  0  0  0  0
   -8.8958    4.9150  -14.9263 O   0  0  0  0  0  0  0  0  0  0  0  0
   -7.5871    5.1010  -15.2176 C   0  0  0  0  0  0  0  0  0  0  0  0
   -7.4462    5.7870  -16.3641 N   0  0  0  0  0  0  0  0  0  0  0  0
   -6.3630    5.5617  -17.0741 C   0  0  0  0  0  0  0  0  0  0  0  0
   -6.3974    5.9177  -18.4124 C   0  0  0  0  0  0  0  0  0  0  0  0
   -5.3442    5.6126  -19.2604 C   0  0  0  0  0  0  0  0  0  0  0  0
   -4.2180    5.0174  -18.7223 C   0  0  0  0  0  0  0  0  0  0  0  0
   -3.1657    4.7522  -19.5079 F   0  0  0  0  0  0  0  0  0  0  0  0
   -4.1539    4.6753  -17.3719 C   0  0  0  0  0  0  0  0  0  0  0  0
   -5.2602    4.8874  -16.5377 C   0  0  0  0  0  0  0  0  0  0  0  0
   -5.3710    4.3751  -15.2184 C   0  0  0  0  0  0  0  0  0  0  0  0
   -6.6042    4.3965  -14.5445 C   0  0  0  0  0  0  0  0  0  0  0  0
   -6.8711    3.5139  -13.3350 C   0  0  2  0  0  0  0  0  0  0  0  0
   -7.4849    2.3206  -13.7509 O   0  0  0  0  0  0  0  0  0  0  0  0
   -7.6738    4.0647  -12.2585 N   0  0  0  0  0  0  0  0  0  0  0  0
   -6.9032    5.0551  -11.5022 C   0  0  1  0  0  0  0  0  0  0  0  0
   -7.4341    6.5009  -11.6873 C   0  0  0  0  0  0  0  0  0  0  0  0
   -7.3354    7.2742  -10.4306 N   0  0  0  0  0  0  0  0  0  0  0  0
   -5.9894    7.0947   -9.8405 C   0  0  0  0  0  0  0  0  0  0  0  0
   -5.7546    5.6415   -9.3888 C   0  0  0  0  0  0  0  0  0  0  0  0
   -6.8586    4.7466   -9.9871 C   0  0  0  0  0  0  0  0  0  0  0  0
   -8.1816    5.1845   -9.3447 C   0  0  0  0  0  0  0  0  0  0  0  0
   -8.3279    6.7120   -9.4857 C   0  0  0  0  0  0  0  0  0  0  0  0
  1  2  1  0
  2  3  1  0
  3  4  1  0
  4  5  1  0
  5  6  2  0
  6  7  1  0
  7  8  2  0
  8  9  1  0
  9 10  2  0
 10 11  1  0
 10 12  1  0
 12 13  2  0
 13 14  1  0
 14 15  2  0
 15 16  1  0
 16 17  1  6
 16 18  1  0
 19 18  1  6
 19 20  1  0
 21 20  1  0
 21 22  1  0
 22 23  1  0
 23 24  1  0
 24 25  1  0
 25 26  1  0
 15  5  1  0
 24 19  1  0
 13  7  1  0
 26 21  1  0
M  END
>  <fragmenstein_outcome>  (205) 
nan

>  <exports>  (205) 
['/opt/xchem-fragalysis-2/maxwin/openbind-hippo/xx01zvns2b/cycle_01/syndirella/elabs/openbind_xx01zvns2b_c1_elab_chemspace_filtered.sdf']

>  <Energy>  (205) 
nan

>  <alias>  (205) 
None

>  <fragmenstein_runtime>  (205) 
nan

>  <scratch_subdir>  (205) 
nan

>  <HIPPO Compound ID>  (205) 
140493

>  <rmsd(smina/fragmenstein)>  (205) 
0.843

>  <distance_score>  (205) 
1.994734

>  <orig_smiles>  (205) 
nan

>  <fragmenstein_mode>  (205) 
nan

>  <inchikey>  (205) 
UQPDOBYRUZYDJN-OALUTQOASA-N

>  <ref_pdb>  (205) 
Z0673a

>  <GNINA pK>  (205) 
nan

>  <gnina_score_min>  (205) 
5.41

>  <tags>  (205) 
openbind_xx01zvns2b_c1_elab_nonasap_filtered_scored_top80percent,openbind_xx01zvns2b_c1_elab_chemspace_filtered_scored_top80percent,openbind_xx01zvns2b_c1_elab_chemspace_filtered_scored,openbind_xx01zvns2b_c1_elab_chemspace_filtered_scored_top40percent,openbind_xx01zvns2b_c1_elab_chemspace_filtered_scored_top20percent,openbind_xx01zvns2b_c1_elab_chemspace_filtered_scored_top60percent,openbind_xx01zvns2b_c1_elabs_filtered

>  <smiles>  (205) 
CCCOc1nc2ccc(F)cc2cc1[C@H](O)N[C@H]1CN2CCC1CC2

>  <subsites>  (205) 
1 - Z4590/B/203/1

>  <gnina_score>  (205) 
5.458

>  <HIPPO Pose ID>  (205) 
70046

>  <ref_mols>  (205) 
Z0673a,Z1719a

>  <energy_score>  (205) 
-24.27708

>  <inspiration_score>  (205) 
None

>  <smina_score_min>  (205) 
-6.207

>  <fragmenstein_error>  (205) 
nan

>  <name>  (205) 
P70046

$$$$
P70048
     RDKit          3D

 27 30  0  0  0  0  0  0  0  0999 V2000
   -9.8894    3.5710  -18.1330 C   0  0  0  0  0  0  0  0  0  0  0  0
   -9.6560    4.7171  -17.1972 C   0  0  0  0  0  0  0  0  0  0  0  0
   -9.4253    4.3596  -15.7262 C   0  0  0  0  0  0  0  0  0  0  0  0
   -8.3222    3.5814  -15.2785 O   0  0  0  0  0  0  0  0  0  0  0  0
   -7.1843    4.1748  -15.6522 C   0  0  0  0  0  0  0  0  0  0  0  0
   -7.0572    4.2080  -16.9776 N   0  0  0  0  0  0  0  0  0  0  0  0
   -6.0561    4.8380  -17.5073 C   0  0  0  0  0  0  0  0  0  0  0  0
   -6.0943    4.9483  -18.8815 C   0  0  0  0  0  0  0  0  0  0  0  0
   -5.0810    5.6065  -19.5450 C   0  0  0  0  0  0  0  0  0  0  0  0
   -4.0417    6.1350  -18.7950 C   0  0  0  0  0  0  0  0  0  0  0  0
   -3.0436    6.7769  -19.4180 F   0  0  0  0  0  0  0  0  0  0  0  0
   -4.0028    6.0251  -17.3993 C   0  0  0  0  0  0  0  0  0  0  0  0
   -5.0367    5.3724  -16.7155 C   0  0  0  0  0  0  0  0  0  0  0  0
   -5.1416    5.2059  -15.2972 C   0  0  0  0  0  0  0  0  0  0  0  0
   -6.2729    4.5989  -14.7243 C   0  0  0  0  0  0  0  0  0  0  0  0
   -6.4890    4.3223  -13.2491 C   0  0  2  0  0  0  0  0  0  0  0  0
   -6.2926    2.9349  -13.0420 O   0  0  0  0  0  0  0  0  0  0  0  0
   -7.8089    4.6683  -12.7501 N   0  0  0  0  0  0  0  0  0  0  0  0
   -7.9093    5.2693  -11.4170 C   0  0  1  0  0  0  0  0  0  0  0  0
   -6.9918    4.7127  -10.3186 C   0  0  0  0  0  0  0  0  0  0  0  0
   -6.3445    5.8841   -9.5666 C   0  0  2  0  0  0  0  0  0  0  0  0
   -7.4544    6.7237   -8.9064 C   0  0  0  0  0  0  0  0  0  0  0  0
   -8.3708    7.2962   -9.9997 C   0  0  0  0  0  0  0  0  0  0  0  0
   -7.8698    6.8460  -11.3957 C   0  0  1  0  0  0  0  0  0  0  0  0
   -6.5340    7.4588  -11.4370 N   0  0  0  0  0  0  0  0  0  0  0  0
   -6.0461    7.8704  -12.7287 C   0  0  0  0  0  0  0  0  0  0  0  0
   -5.5773    6.7704  -10.5726 C   0  0  0  0  0  0  0  0  0  0  0  0
  1  2  1  0
  2  3  1  0
  3  4  1  0
  4  5  1  0
  5  6  2  0
  6  7  1  0
  7  8  2  0
  8  9  1  0
  9 10  2  0
 10 11  1  0
 10 12  1  0
 12 13  2  0
 13 14  1  0
 14 15  2  0
 15 16  1  0
 16 17  1  6
 16 18  1  0
 19 18  1  6
 19 20  1  0
 21 20  1  6
 21 22  1  0
 22 23  1  0
 24 23  1  1
 24 25  1  0
 25 26  1  0
 25 27  1  0
 15  5  1  0
 24 19  1  0
 13  7  1  0
 27 21  1  0
M  END
>  <fragmenstein_outcome>  (206) 
nan

>  <exports>  (206) 
['/opt/xchem-fragalysis-2/maxwin/openbind-hippo/xx01zvns2b/cycle_01/syndirella/elabs/openbind_xx01zvns2b_c1_elab_chemspace_filtered.sdf']

>  <Energy>  (206) 
nan

>  <alias>  (206) 
None

>  <fragmenstein_runtime>  (206) 
nan

>  <scratch_subdir>  (206) 
nan

>  <HIPPO Compound ID>  (206) 
140507

>  <rmsd(smina/fragmenstein)>  (206) 
1.557

>  <distance_score>  (206) 
1.904168

>  <orig_smiles>  (206) 
nan

>  <fragmenstein_mode>  (206) 
nan

>  <inchikey>  (206) 
MONSMZJFEDCRLK-JZOCTASASA-N

>  <ref_pdb>  (206) 
Z0673a

>  <GNINA pK>  (206) 
nan

>  <gnina_score_min>  (206) 
5.702

>  <tags>  (206) 
openbind_xx01zvns2b_c1_elab_nonasap_filtered_scored_top80percent,openbind_xx01zvns2b_c1_elab_chemspace_filtered_scored_top80percent,openbind_xx01zvns2b_c1_elab_chemspace_filtered_scored,openbind_xx01zvns2b_c1_elab_chemspace_filtered_scored_top40percent,openbind_xx01zvns2b_c1_elab_chemspace_filtered_scored_top20percent,openbind_xx01zvns2b_c1_elab_chemspace_filtered_scored_top60percent,openbind_xx01zvns2b_c1_elabs_filtered

>  <smiles>  (206) 
CCCOc1nc2ccc(F)cc2cc1[C@H](O)N[C@H]1C[C@@H]2CC[C@H]1N(C)C2

>  <subsites>  (206) 
1 - Z4590/B/203/1

>  <gnina_score>  (206) 
5.549

>  <HIPPO Pose ID>  (206) 
70048

>  <ref_mols>  (206) 
Z0673a,Z1719a

>  <energy_score>  (206) 
-16.670044

>  <inspiration_score>  (206) 
None

>  <smina_score_min>  (206) 
-6.775

>  <fragmenstein_error>  (206) 
nan

>  <name>  (206) 
P70048

$$$$
P70050
     RDKit          3D

 27 30  0  0  0  0  0  0  0  0999 V2000
   -9.9251    4.1329  -17.8663 C   0  0  0  0  0  0  0  0  0  0  0  0
   -9.0184    3.8468  -16.6841 C   0  0  0  0  0  0  0  0  0  0  0  0
   -9.2419    4.7732  -15.4852 C   0  0  0  0  0  0  0  0  0  0  0  0
   -8.2212    4.9345  -14.5066 O   0  0  0  0  0  0  0  0  0  0  0  0
   -7.0230    5.1918  -15.0831 C   0  0  0  0  0  0  0  0  0  0  0  0
   -7.0853    5.8613  -16.2491 N   0  0  0  0  0  0  0  0  0  0  0  0
   -6.1372    5.5955  -17.1228 C   0  0  0  0  0  0  0  0  0  0  0  0
   -6.4041    5.8884  -18.4484 C   0  0  0  0  0  0  0  0  0  0  0  0
   -5.4981    5.5691  -19.4469 C   0  0  0  0  0  0  0  0  0  0  0  0
   -4.2822    5.0032  -19.0962 C   0  0  0  0  0  0  0  0  0  0  0  0
   -4.0056    4.6947  -17.7591 C   0  0  0  0  0  0  0  0  0  0  0  0
   -4.9593    4.9272  -16.7558 C   0  0  0  0  0  0  0  0  0  0  0  0
   -4.8452    4.4480  -15.4189 C   0  0  0  0  0  0  0  0  0  0  0  0
   -5.9436    4.5110  -14.5569 C   0  0  0  0  0  0  0  0  0  0  0  0
   -6.0741    3.7689  -13.2293 C   0  0  2  0  0  0  0  0  0  0  0  0
   -6.8146    2.5815  -13.4591 O   0  0  0  0  0  0  0  0  0  0  0  0
   -6.6796    4.5923  -12.2151 N   0  0  0  0  0  0  0  0  0  0  0  0
   -7.6126    4.0577  -11.2235 C   0  0  0  0  0  0  0  0  0  0  0  0
   -7.9032    5.1984  -10.1929 C   0  0  2  0  0  0  0  0  0  0  0  0
   -8.1567    6.5095  -10.9832 C   0  0  0  0  0  0  0  0  0  0  0  0
   -6.8725    6.9142  -11.7326 C   0  0  0  0  0  0  0  0  0  0  0  0
   -5.8984    5.7215  -11.6910 C   0  0  1  0  0  0  0  0  0  0  0  0
   -5.5092    5.4757  -10.1989 C   0  0  0  0  0  0  0  0  0  0  0  0
   -6.7184    5.5046   -9.3406 N   0  0  0  0  0  0  0  0  0  0  0  0
   -6.6252    4.6355   -8.1664 C   0  0  0  0  0  0  0  0  0  0  0  0
   -5.5448    5.0961   -7.1666 C   0  0  0  0  0  0  0  0  0  0  0  0
   -5.6024    4.3640   -5.9377 O   0  0  0  0  0  0  0  0  0  0  0  0
  1  2  1  0
  2  3  1  0
  3  4  1  0
  4  5  1  0
  5  6  2  0
  6  7  1  0
  7  8  2  0
  8  9  1  0
  9 10  2  0
 10 11  1  0
 11 12  2  0
 12 13  1  0
 13 14  2  0
 14 15  1  0
 15 16  1  6
 15 17  1  0
 17 18  1  0
 19 18  1  6
 19 20  1  0
 20 21  1  0
 22 21  1  1
 22 23  1  0
 23 24  1  0
 24 25  1  0
 25 26  1  0
 26 27  1  0
 14  5  1  0
 22 17  1  0
 12  7  1  0
 24 19  1  0
M  END
>  <fragmenstein_outcome>  (207) 
nan

>  <exports>  (207) 
['/opt/xchem-fragalysis-2/maxwin/openbind-hippo/xx01zvns2b/cycle_01/syndirella/elabs/openbind_xx01zvns2b_c1_elab_chemspace_filtered.sdf']

>  <Energy>  (207) 
nan

>  <alias>  (207) 
None

>  <fragmenstein_runtime>  (207) 
nan

>  <scratch_subdir>  (207) 
nan

>  <HIPPO Compound ID>  (207) 
140512

>  <rmsd(smina/fragmenstein)>  (207) 
1.872

>  <distance_score>  (207) 
1.835242

>  <orig_smiles>  (207) 
nan

>  <fragmenstein_mode>  (207) 
nan

>  <inchikey>  (207) 
SZMOJYNUSSXJGG-FIKGOQFSSA-N

>  <ref_pdb>  (207) 
Z0673a

>  <GNINA pK>  (207) 
nan

>  <gnina_score_min>  (207) 
5.395

>  <tags>  (207) 
openbind_xx01zvns2b_c1_elab_nonasap_filtered_scored_top80percent,openbind_xx01zvns2b_c1_elab_chemspace_filtered_scored_top80percent,openbind_xx01zvns2b_c1_elab_chemspace_filtered_scored,openbind_xx01zvns2b_c1_elab_chemspace_filtered_scored_top40percent,openbind_xx01zvns2b_c1_elab_chemspace_filtered_scored_top20percent,openbind_xx01zvns2b_c1_elab_chemspace_filtered_scored_top60percent,openbind_xx01zvns2b_c1_elabs_filtered

>  <smiles>  (207) 
CCCOc1nc2ccccc2cc1[C@H](O)N1C[C@@H]2CC[C@H]1CN2CCO

>  <subsites>  (207) 
1 - Z4590/B/203/1

>  <gnina_score>  (207) 
5.357

>  <HIPPO Pose ID>  (207) 
70050

>  <ref_mols>  (207) 
Z0673a,Z1719a

>  <energy_score>  (207) 
-20.449346

>  <inspiration_score>  (207) 
None

>  <smina_score_min>  (207) 
-7.4

>  <fragmenstein_error>  (207) 
nan

>  <name>  (207) 
P70050

$$$$
P70053
     RDKit          3D

 26 29  0  0  0  0  0  0  0  0999 V2000
   -5.8524    3.3360  -13.4587 C   0  0  0  0  0  0  0  0  0  0  0  0
   -6.4146    4.3254  -14.3900 N   0  0  0  0  0  0  0  0  0  0  0  0
   -6.6823    5.5585  -13.6603 C   0  0  0  0  0  0  0  0  0  0  0  0
   -7.6689    3.8188  -14.9717 C   0  0  0  0  0  0  0  0  0  0  0  0
   -7.7968    4.0596  -16.4854 C   0  0  0  0  0  0  0  0  0  0  0  0
   -6.5482    4.1930  -17.4258 C   0  0  0  0  0  0  0  0  0  0  0  0
   -6.8125    5.6550  -17.4965 C   0  0  0  0  0  0  0  0  0  0  0  0
   -8.1901    5.4660  -16.9271 C   0  0  0  0  0  0  0  0  0  0  0  0
   -5.8946    6.5934  -16.8671 C   0  0  0  0  0  0  0  0  0  0  0  0
   -5.2756    7.0330  -18.2615 N   0  0  0  0  0  0  0  0  0  0  0  0
   -3.8374    6.5922  -18.3900 C   0  0  0  0  0  0  0  0  0  0  0  0
   -3.3810    5.5941  -18.8210 O   0  0  0  0  0  0  0  0  0  0  0  0
   -2.9667    7.6608  -17.7979 C   0  0  0  0  0  0  0  0  0  0  0  0
   -1.7888    7.2640  -17.2781 C   0  0  0  0  0  0  0  0  0  0  0  0
   -0.8794    8.1952  -16.6509 C   0  0  0  0  0  0  0  0  0  0  0  0
   -1.1816    9.5026  -16.5825 C   0  0  0  0  0  0  0  0  0  0  0  0
   -0.2676   10.4743  -15.9341 C   0  0  0  0  0  0  0  0  0  0  0  0
   -0.1831   11.7986  -16.3628 C   0  0  0  0  0  0  0  0  0  0  0  0
    0.6845   12.6701  -15.7061 C   0  0  0  0  0  0  0  0  0  0  0  0
    1.4430   12.2023  -14.6417 C   0  0  0  0  0  0  0  0  0  0  0  0
    1.3076   10.8739  -14.2805 C   0  0  0  0  0  0  0  0  0  0  0  0
    0.4786   10.0064  -14.9016 N   0  0  0  0  0  0  0  0  0  0  0  0
   -2.3769    9.9311  -17.1177 N   0  0  0  0  0  0  0  0  0  0  0  0
   -3.3049    9.1174  -17.7321 C   0  0  0  0  0  0  0  0  0  0  0  0
   -4.3253    9.6207  -18.1935 O   0  0  0  0  0  0  0  0  0  0  0  0
   -6.5729    6.3682  -18.7419 C   0  0  0  0  0  0  0  0  0  0  0  0
  1  2  1  0
  2  3  1  0
  2  4  1  0
  4  5  1  0
  5  6  1  0
  6  7  1  0
  7  8  1  0
  7  9  1  0
  9 10  1  0
 10 11  1  0
 11 12  2  0
 11 13  1  0
 13 14  2  0
 14 15  1  0
 15 16  2  0
 16 17  1  0
 17 18  2  0
 18 19  1  0
 19 20  2  0
 20 21  1  0
 21 22  2  0
 16 23  1  0
 23 24  1  0
 24 25  2  0
 10 26  1  0
  8  5  1  0
 24 13  1  0
 26  7  1  0
 22 17  1  0
M  END
>  <fragmenstein_outcome>  (208) 
nan

>  <exports>  (208) 
['/opt/xchem-fragalysis-2/maxwin/openbind-hippo/xx01zvns2b/cycle_01/syndirella/elabs/openbind_xx01zvns2b_c1_elab_chemspace_filtered.sdf']

>  <Energy>  (208) 
nan

>  <alias>  (208) 
None

>  <fragmenstein_runtime>  (208) 
nan

>  <scratch_subdir>  (208) 
nan

>  <HIPPO Compound ID>  (208) 
140701

>  <rmsd(smina/fragmenstein)>  (208) 
2.392

>  <distance_score>  (208) 
1.87703

>  <orig_smiles>  (208) 
nan

>  <fragmenstein_mode>  (208) 
nan

>  <inchikey>  (208) 
PCBAAFKNVACOQO-UHFFFAOYSA-N

>  <ref_pdb>  (208) 
Z0719a

>  <GNINA pK>  (208) 
nan

>  <gnina_score_min>  (208) 
5.191

>  <tags>  (208) 
openbind_xx01zvns2b_c1_elab_nonasap_filtered_scored_top80percent,openbind_xx01zvns2b_c1_elab_chemspace_filtered_scored_top80percent,openbind_xx01zvns2b_c1_elab_chemspace_filtered_scored,openbind_xx01zvns2b_c1_elab_chemspace_filtered_scored_top40percent,openbind_xx01zvns2b_c1_elab_chemspace_filtered_scored_top20percent,openbind_xx01zvns2b_c1_elab_chemspace_filtered_scored_top60percent,openbind_xx01zvns2b_c1_elabs_filtered

>  <smiles>  (208) 
CN(C)CC1CC2(C1)CN(C(=O)c1ccc(-c3ccccn3)[nH]c1=O)C2

>  <subsites>  (208) 
1 - Z4590/B/203/1

>  <gnina_score>  (208) 
5.23

>  <HIPPO Pose ID>  (208) 
70053

>  <ref_mols>  (208) 
Z0490a,Z0719a

>  <energy_score>  (208) 
-14.384608

>  <inspiration_score>  (208) 
None

>  <smina_score_min>  (208) 
-3.074

>  <fragmenstein_error>  (208) 
nan

>  <name>  (208) 
P70053

$$$$
P70054
     RDKit          3D

 26 30  0  0  0  0  0  0  0  0999 V2000
   -3.7467    5.4468  -16.4116 O   0  0  0  0  0  0  0  0  0  0  0  0
   -4.7393    5.0835  -15.8967 C   0  0  0  0  0  0  0  0  0  0  0  0
   -4.7983    4.1630  -14.7341 C   0  0  0  0  0  0  0  0  0  0  0  0
   -3.7213    3.3860  -14.5387 C   0  0  0  0  0  0  0  0  0  0  0  0
   -3.6063    2.5840  -13.3538 C   0  0  0  0  0  0  0  0  0  0  0  0
   -4.5544    2.6584  -12.4094 C   0  0  0  0  0  0  0  0  0  0  0  0
   -4.1738    2.3253  -11.0296 C   0  0  0  0  0  0  0  0  0  0  0  0
   -3.6260    1.1002  -10.6700 C   0  0  0  0  0  0  0  0  0  0  0  0
   -2.9946    0.9876   -9.4335 C   0  0  0  0  0  0  0  0  0  0  0  0
   -2.9209    2.0913   -8.5964 C   0  0  0  0  0  0  0  0  0  0  0  0
   -3.5212    3.2636   -9.0142 C   0  0  0  0  0  0  0  0  0  0  0  0
   -4.1550    3.4032  -10.1966 N   0  0  0  0  0  0  0  0  0  0  0  0
   -5.7274    3.3249  -12.6595 N   0  0  0  0  0  0  0  0  0  0  0  0
   -5.9747    4.0460  -13.8020 C   0  0  0  0  0  0  0  0  0  0  0  0
   -7.0659    4.5754  -13.9854 O   0  0  0  0  0  0  0  0  0  0  0  0
   -6.1640    5.3195  -16.2712 N   0  0  0  0  0  0  0  0  0  0  0  0
   -6.6890    4.2178  -17.2211 C   0  0  0  0  0  0  0  0  0  0  0  0
   -7.7885    5.1145  -17.5401 C   0  0  0  0  0  0  0  0  0  0  0  0
   -8.6756    4.8523  -18.7012 C   0  0  0  0  0  0  0  0  0  0  0  0
   -9.6816    4.1958  -17.7439 C   0  0  0  0  0  0  0  0  0  0  0  0
   -8.9618    4.8904  -16.5687 C   0  0  0  0  0  0  0  0  0  0  0  0
   -6.7752    6.1825  -17.3701 C   0  0  2  0  0  0  0  0  0  0  0  0
   -5.7210    6.6261  -18.3983 C   0  0  0  0  0  0  0  0  0  0  0  0
   -5.3875    5.7266  -19.5894 C   0  0  0  0  0  0  0  0  0  0  0  0
   -5.2436    7.0299  -20.4136 C   0  0  0  0  0  0  0  0  0  0  0  0
   -6.2314    7.6503  -19.4099 C   0  0  0  0  0  0  0  0  0  0  0  0
  1  2  2  0
  2  3  1  0
  3  4  2  0
  4  5  1  0
  5  6  2  0
  6  7  1  0
  7  8  2  0
  8  9  1  0
  9 10  2  0
 10 11  1  0
 11 12  2  0
  6 13  1  0
 13 14  1  0
 14 15  2  0
  2 16  1  0
 16 17  1  0
 17 18  1  0
 18 19  1  0
 19 20  1  0
 20 21  1  0
 18 22  1  0
 22 23  1  6
 23 24  1  0
 24 25  1  0
 25 26  1  0
 14  3  1  0
 22 16  1  0
 26 23  1  0
 12  7  1  0
 21 18  1  0
M  END
>  <fragmenstein_outcome>  (209) 
nan

>  <exports>  (209) 
['/opt/xchem-fragalysis-2/maxwin/openbind-hippo/xx01zvns2b/cycle_01/syndirella/elabs/openbind_xx01zvns2b_c1_elab_chemspace_filtered.sdf']

>  <Energy>  (209) 
nan

>  <alias>  (209) 
None

>  <fragmenstein_runtime>  (209) 
nan

>  <scratch_subdir>  (209) 
nan

>  <HIPPO Compound ID>  (209) 
140702

>  <rmsd(smina/fragmenstein)>  (209) 
0.963

>  <distance_score>  (209) 
1.791454

>  <orig_smiles>  (209) 
nan

>  <fragmenstein_mode>  (209) 
nan

>  <inchikey>  (209) 
JFRWVBOOVWTYON-SFHVURJKSA-N

>  <ref_pdb>  (209) 
Z0719a

>  <GNINA pK>  (209) 
nan

>  <gnina_score_min>  (209) 
5.302

>  <tags>  (209) 
openbind_xx01zvns2b_c1_elab_nonasap_filtered_scored_top80percent,openbind_xx01zvns2b_c1_elab_chemspace_filtered_scored_top80percent,openbind_xx01zvns2b_c1_elab_chemspace_filtered_scored,openbind_xx01zvns2b_c1_elab_chemspace_filtered_scored_top40percent,openbind_xx01zvns2b_c1_elab_chemspace_filtered_scored_top20percent,openbind_xx01zvns2b_c1_elab_chemspace_filtered_scored_top60percent,openbind_xx01zvns2b_c1_elabs_filtered

>  <smiles>  (209) 
O=C(c1ccc(-c2ccccn2)[nH]c1=O)N1CC2(CCC2)[C@@H]1C1CCC1

>  <subsites>  (209) 
1 - Z4590/B/203/1

>  <gnina_score>  (209) 
5.398

>  <HIPPO Pose ID>  (209) 
70054

>  <ref_mols>  (209) 
Z0490a,Z0719a

>  <energy_score>  (209) 
-10.871976

>  <inspiration_score>  (209) 
None

>  <smina_score_min>  (209) 
-5.714

>  <fragmenstein_error>  (209) 
nan

>  <name>  (209) 
P70054

$$$$
P70058
     RDKit          3D

 27 31  0  0  0  0  0  0  0  0999 V2000
   -3.8966    6.1144  -16.8586 O   0  0  0  0  0  0  0  0  0  0  0  0
   -4.7886    5.5315  -16.3662 C   0  0  0  0  0  0  0  0  0  0  0  0
   -4.7208    4.6059  -15.2064 C   0  0  0  0  0  0  0  0  0  0  0  0
   -3.5952    3.8961  -15.0373 C   0  0  0  0  0  0  0  0  0  0  0  0
   -3.4935    2.9301  -13.9721 C   0  0  0  0  0  0  0  0  0  0  0  0
   -4.5201    2.7281  -13.1352 C   0  0  0  0  0  0  0  0  0  0  0  0
   -4.4593    1.9171  -11.9093 C   0  0  0  0  0  0  0  0  0  0  0  0
   -3.2722    1.4137  -11.3804 C   0  0  0  0  0  0  0  0  0  0  0  0
   -3.3037    0.8020  -10.1368 C   0  0  0  0  0  0  0  0  0  0  0  0
   -4.5136    0.7015   -9.4709 C   0  0  0  0  0  0  0  0  0  0  0  0
   -5.6539    1.2004  -10.0700 C   0  0  0  0  0  0  0  0  0  0  0  0
   -5.6491    1.8263  -11.2607 N   0  0  0  0  0  0  0  0  0  0  0  0
   -5.7015    3.3910  -13.3530 N   0  0  0  0  0  0  0  0  0  0  0  0
   -5.9017    4.3518  -14.2982 C   0  0  0  0  0  0  0  0  0  0  0  0
   -6.9673    4.9583  -14.3465 O   0  0  0  0  0  0  0  0  0  0  0  0
   -6.2382    5.5199  -16.7072 N   0  0  0  0  0  0  0  0  0  0  0  0
   -6.5708    4.4086  -17.7429 C   0  0  0  0  0  0  0  0  0  0  0  0
   -7.8571    5.1001  -17.8633 C   0  0  0  0  0  0  0  0  0  0  0  0
   -8.8379    4.7399  -18.9161 C   0  0  0  0  0  0  0  0  0  0  0  0
   -9.6543    3.9764  -17.8664 C   0  0  0  0  0  0  0  0  0  0  0  0
   -8.8685    4.7051  -16.7692 C   0  0  0  0  0  0  0  0  0  0  0  0
   -7.0173    6.3208  -17.7141 C   0  0  2  0  0  0  0  0  0  0  0  0
   -6.1499    7.0561  -18.7797 C   0  0  0  0  0  0  0  0  0  0  0  0
   -5.5171    8.3041  -18.4824 C   0  0  0  0  0  0  0  0  0  0  0  0
   -4.8088    8.7981  -19.5549 C   0  0  0  0  0  0  0  0  0  0  0  0
   -4.9109    7.7659  -20.9136 S   0  0  0  0  0  0  0  0  0  0  0  0
   -5.8829    6.6485  -20.0568 C   0  0  0  0  0  0  0  0  0  0  0  0
  1  2  2  0
  2  3  1  0
  3  4  2  0
  4  5  1  0
  5  6  2  0
  6  7  1  0
  7  8  2  0
  8  9  1  0
  9 10  2  0
 10 11  1  0
 11 12  2  0
  6 13  1  0
 13 14  1  0
 14 15  2  0
  2 16  1  0
 16 17  1  0
 17 18  1  0
 18 19  1  0
 19 20  1  0
 20 21  1  0
 18 22  1  0
 22 23  1  6
 23 24  1  0
 24 25  2  0
 25 26  1  0
 26 27  1  0
 14  3  1  0
 22 16  1  0
 27 23  2  0
 12  7  1  0
 21 18  1  0
M  END
>  <fragmenstein_outcome>  (210) 
nan

>  <exports>  (210) 
['/opt/xchem-fragalysis-2/maxwin/openbind-hippo/xx01zvns2b/cycle_01/syndirella/elabs/openbind_xx01zvns2b_c1_elab_chemspace_filtered.sdf']

>  <Energy>  (210) 
nan

>  <alias>  (210) 
None

>  <fragmenstein_runtime>  (210) 
nan

>  <scratch_subdir>  (210) 
nan

>  <HIPPO Compound ID>  (210) 
140711

>  <rmsd(smina/fragmenstein)>  (210) 
0.946

>  <distance_score>  (210) 
1.744375

>  <orig_smiles>  (210) 
nan

>  <fragmenstein_mode>  (210) 
nan

>  <inchikey>  (210) 
JHYZMDSSFHUVEC-SFHVURJKSA-N

>  <ref_pdb>  (210) 
Z0719a

>  <GNINA pK>  (210) 
nan

>  <gnina_score_min>  (210) 
5.486

>  <tags>  (210) 
openbind_xx01zvns2b_c1_elab_nonasap_filtered_scored_top80percent,openbind_xx01zvns2b_c1_elab_chemspace_filtered_scored_top80percent,openbind_xx01zvns2b_c1_elab_chemspace_filtered_scored,openbind_xx01zvns2b_c1_elab_chemspace_filtered_scored_top40percent,openbind_xx01zvns2b_c1_elab_chemspace_filtered_scored_top20percent,openbind_xx01zvns2b_c1_elab_chemspace_filtered_scored_top60percent,openbind_xx01zvns2b_c1_elabs_filtered

>  <smiles>  (210) 
O=C(c1ccc(-c2ccccn2)[nH]c1=O)N1CC2(CCC2)[C@@H]1c1ccsc1

>  <subsites>  (210) 
1 - Z4590/B/203/1

>  <gnina_score>  (210) 
5.615

>  <HIPPO Pose ID>  (210) 
70058

>  <ref_mols>  (210) 
Z0490a,Z0719a

>  <energy_score>  (210) 
-4.566361

>  <inspiration_score>  (210) 
None

>  <smina_score_min>  (210) 
-6.34

>  <fragmenstein_error>  (210) 
nan

>  <name>  (210) 
P70058

$$$$
P70060
     RDKit          3D

 27 31  0  0  0  0  0  0  0  0999 V2000
   -3.9339    7.0361  -16.0659 O   0  0  0  0  0  0  0  0  0  0  0  0
   -4.8594    6.3605  -15.8082 C   0  0  0  0  0  0  0  0  0  0  0  0
   -5.0690    5.5962  -14.5491 C   0  0  0  0  0  0  0  0  0  0  0  0
   -3.9323    5.1482  -13.9891 C   0  0  0  0  0  0  0  0  0  0  0  0
   -3.9644    4.0888  -13.0193 C   0  0  0  0  0  0  0  0  0  0  0  0
   -5.1174    3.4806  -12.7191 C   0  0  0  0  0  0  0  0  0  0  0  0
   -5.1982    2.4608  -11.6768 C   0  0  0  0  0  0  0  0  0  0  0  0
   -4.1702    1.5588  -11.4317 C   0  0  0  0  0  0  0  0  0  0  0  0
   -4.3117    0.6687  -10.3813 C   0  0  0  0  0  0  0  0  0  0  0  0
   -5.4780    0.6908   -9.6328 C   0  0  0  0  0  0  0  0  0  0  0  0
   -6.4479    1.6257   -9.9412 C   0  0  0  0  0  0  0  0  0  0  0  0
   -6.3373    2.5099  -10.9476 N   0  0  0  0  0  0  0  0  0  0  0  0
   -6.2874    3.9116  -13.2901 N   0  0  0  0  0  0  0  0  0  0  0  0
   -6.3880    4.9754  -14.1460 C   0  0  0  0  0  0  0  0  0  0  0  0
   -7.4858    5.3538  -14.5445 O   0  0  0  0  0  0  0  0  0  0  0  0
   -6.0321    5.9697  -16.6430 N   0  0  0  0  0  0  0  0  0  0  0  0
   -5.7598    4.6527  -17.4276 C   0  0  0  0  0  0  0  0  0  0  0  0
   -6.9781    5.0103  -18.1567 C   0  0  0  0  0  0  0  0  0  0  0  0
   -7.3499    4.3179  -19.3987 C   0  0  0  0  0  0  0  0  0  0  0  0
   -8.8210    4.3116  -18.8821 C   0  0  0  0  0  0  0  0  0  0  0  0
   -8.2898    4.6230  -17.4783 C   0  0  0  0  0  0  0  0  0  0  0  0
   -6.4487    6.4070  -18.0592 C   0  0  2  0  0  0  0  0  0  0  0  0
   -5.3311    7.1459  -18.8054 C   0  0  2  0  0  0  0  0  0  0  0  0
   -5.7518    7.7362  -20.1301 C   0  0  0  0  0  0  0  0  0  0  0  0
   -4.4182    8.0670  -20.7514 C   0  0  0  0  0  0  0  0  0  0  0  0
   -3.5377    6.9379  -20.2610 C   0  0  0  0  0  0  0  0  0  0  0  0
   -4.1685    6.3577  -19.1135 O   0  0  0  0  0  0  0  0  0  0  0  0
  1  2  2  0
  2  3  1  0
  3  4  2  0
  4  5  1  0
  5  6  2  0
  6  7  1  0
  7  8  2  0
  8  9  1  0
  9 10  2  0
 10 11  1  0
 11 12  2  0
  6 13  1  0
 13 14  1  0
 14 15  2  0
  2 16  1  0
 16 17  1  0
 17 18  1  0
 18 19  1  0
 19 20  1  0
 20 21  1  0
 18 22  1  0
 22 23  1  0
 23 24  1  6
 24 25  1  0
 25 26  1  0
 26 27  1  0
 14  3  1  0
 22 16  1  1
 27 23  1  0
 12  7  1  0
 21 18  1  0
M  END
>  <fragmenstein_outcome>  (211) 
nan

>  <exports>  (211) 
['/opt/xchem-fragalysis-2/maxwin/openbind-hippo/xx01zvns2b/cycle_01/syndirella/elabs/openbind_xx01zvns2b_c1_elab_chemspace_filtered.sdf']

>  <Energy>  (211) 
nan

>  <alias>  (211) 
None

>  <fragmenstein_runtime>  (211) 
nan

>  <scratch_subdir>  (211) 
nan

>  <HIPPO Compound ID>  (211) 
140713

>  <rmsd(smina/fragmenstein)>  (211) 
1.356

>  <distance_score>  (211) 
1.903798

>  <orig_smiles>  (211) 
nan

>  <fragmenstein_mode>  (211) 
nan

>  <inchikey>  (211) 
ULZADVJWPCCABJ-ROUUACIJSA-N

>  <ref_pdb>  (211) 
Z0719a

>  <GNINA pK>  (211) 
nan

>  <gnina_score_min>  (211) 
5.365

>  <tags>  (211) 
openbind_xx01zvns2b_c1_elab_nonasap_filtered_scored_top80percent,openbind_xx01zvns2b_c1_elab_chemspace_filtered_scored_top80percent,openbind_xx01zvns2b_c1_elab_chemspace_filtered_scored,openbind_xx01zvns2b_c1_elab_chemspace_filtered_scored_top40percent,openbind_xx01zvns2b_c1_elab_chemspace_filtered_scored_top20percent,openbind_xx01zvns2b_c1_elab_chemspace_filtered_scored_top60percent,openbind_xx01zvns2b_c1_elabs_filtered

>  <smiles>  (211) 
O=C(c1ccc(-c2ccccn2)[nH]c1=O)N1CC2(CCC2)[C@@H]1[C@@H]1CCCO1

>  <subsites>  (211) 
1 - Z4590/B/203/1

>  <gnina_score>  (211) 
5.656

>  <HIPPO Pose ID>  (211) 
70060

>  <ref_mols>  (211) 
Z0490a,Z0719a

>  <energy_score>  (211) 
-2.522868

>  <inspiration_score>  (211) 
None

>  <smina_score_min>  (211) 
-6.118

>  <fragmenstein_error>  (211) 
nan

>  <name>  (211) 
P70060

$$$$
P70061
     RDKit          3D

 27 31  0  0  0  0  0  0  0  0999 V2000
   -2.9911    5.5269  -16.9251 O   0  0  0  0  0  0  0  0  0  0  0  0
   -4.1142    5.4879  -16.5799 C   0  0  0  0  0  0  0  0  0  0  0  0
   -4.5547    5.1912  -15.1753 C   0  0  0  0  0  0  0  0  0  0  0  0
   -3.6462    4.4763  -14.4800 C   0  0  0  0  0  0  0  0  0  0  0  0
   -4.0252    3.6798  -13.3394 C   0  0  0  0  0  0  0  0  0  0  0  0
   -5.3125    3.5784  -12.9911 C   0  0  0  0  0  0  0  0  0  0  0  0
   -5.7740    2.8472  -11.8112 C   0  0  0  0  0  0  0  0  0  0  0  0
   -5.1258    1.7236  -11.3206 C   0  0  0  0  0  0  0  0  0  0  0  0
   -5.6137    1.1441  -10.1633 C   0  0  0  0  0  0  0  0  0  0  0  0
   -6.7289    1.6961   -9.5428 C   0  0  0  0  0  0  0  0  0  0  0  0
   -7.3379    2.7936  -10.1160 C   0  0  0  0  0  0  0  0  0  0  0  0
   -6.8866    3.3808  -11.2380 N   0  0  0  0  0  0  0  0  0  0  0  0
   -6.2558    4.2903  -13.6827 N   0  0  0  0  0  0  0  0  0  0  0  0
   -5.9965    5.1479  -14.7143 C   0  0  0  0  0  0  0  0  0  0  0  0
   -6.9154    5.7908  -15.2111 O   0  0  0  0  0  0  0  0  0  0  0  0
   -5.3694    5.6030  -17.3704 N   0  0  0  0  0  0  0  0  0  0  0  0
   -5.8457    4.2553  -17.8495 C   0  0  0  0  0  0  0  0  0  0  0  0
   -6.7483    4.9909  -18.7408 C   0  0  0  0  0  0  0  0  0  0  0  0
   -7.3151    4.1341  -19.8064 C   0  0  0  0  0  0  0  0  0  0  0  0
   -8.6702    4.1831  -19.0411 C   0  0  0  0  0  0  0  0  0  0  0  0
   -8.1036    5.3515  -18.2229 C   0  0  0  0  0  0  0  0  0  0  0  0
   -5.5926    5.9075  -18.8548 C   0  0  1  0  0  0  0  0  0  0  0  0
   -5.7608    7.4132  -19.1397 C   0  0  0  0  0  0  0  0  0  0  0  0
   -5.6746    7.9750  -20.3981 C   0  0  0  0  0  0  0  0  0  0  0  0
   -5.6251    9.3783  -20.2125 C   0  0  0  0  0  0  0  0  0  0  0  0
   -5.7069    9.5857  -18.8567 C   0  0  0  0  0  0  0  0  0  0  0  0
   -5.8061    8.4024  -18.2001 O   0  0  0  0  0  0  0  0  0  0  0  0
  1  2  2  0
  2  3  1  0
  3  4  2  0
  4  5  1  0
  5  6  2  0
  6  7  1  0
  7  8  2  0
  8  9  1  0
  9 10  2  0
 10 11  1  0
 11 12  2  0
  6 13  1  0
 13 14  1  0
 14 15  2  0
  2 16  1  0
 16 17  1  0
 17 18  1  0
 18 19  1  0
 19 20  1  0
 20 21  1  0
 18 22  1  0
 22 23  1  1
 23 24  2  0
 24 25  1  0
 25 26  2  0
 26 27  1  0
 14  3  1  0
 22 16  1  0
 27 23  1  0
 12  7  1  0
 21 18  1  0
M  END
>  <fragmenstein_outcome>  (212) 
nan

>  <exports>  (212) 
['/opt/xchem-fragalysis-2/maxwin/openbind-hippo/xx01zvns2b/cycle_01/syndirella/elabs/openbind_xx01zvns2b_c1_elab_chemspace_filtered.sdf']

>  <Energy>  (212) 
nan

>  <alias>  (212) 
None

>  <fragmenstein_runtime>  (212) 
nan

>  <scratch_subdir>  (212) 
nan

>  <HIPPO Compound ID>  (212) 
140714

>  <rmsd(smina/fragmenstein)>  (212) 
1.562

>  <distance_score>  (212) 
1.74141

>  <orig_smiles>  (212) 
nan

>  <fragmenstein_mode>  (212) 
nan

>  <inchikey>  (212) 
WNGLDGVGBXOJEW-GOSISDBHSA-N

>  <ref_pdb>  (212) 
Z0719a

>  <GNINA pK>  (212) 
nan

>  <gnina_score_min>  (212) 
5.591

>  <tags>  (212) 
openbind_xx01zvns2b_c1_elab_nonasap_filtered_scored_top80percent,openbind_xx01zvns2b_c1_elab_chemspace_filtered_scored_top80percent,openbind_xx01zvns2b_c1_elab_chemspace_filtered_scored,openbind_xx01zvns2b_c1_elab_chemspace_filtered_scored_top40percent,openbind_xx01zvns2b_c1_elab_chemspace_filtered_scored_top20percent,openbind_xx01zvns2b_c1_elab_chemspace_filtered_scored_top60percent,openbind_xx01zvns2b_c1_elabs_filtered

>  <smiles>  (212) 
O=C(c1ccc(-c2ccccn2)[nH]c1=O)N1CC2(CCC2)[C@H]1c1ccco1

>  <subsites>  (212) 
1 - Z4590/B/203/1

>  <gnina_score>  (212) 
5.72

>  <HIPPO Pose ID>  (212) 
70061

>  <ref_mols>  (212) 
Z0490a,Z0719a

>  <energy_score>  (212) 
-9.533094

>  <inspiration_score>  (212) 
None

>  <smina_score_min>  (212) 
-5.11

>  <fragmenstein_error>  (212) 
nan

>  <name>  (212) 
P70061

$$$$
P70062
     RDKit          3D

 28 32  0  0  0  0  0  0  0  0999 V2000
   -3.0975    5.4871  -16.6700 O   0  0  0  0  0  0  0  0  0  0  0  0
   -4.2390    5.4620  -16.3900 C   0  0  0  0  0  0  0  0  0  0  0  0
   -4.7575    5.1753  -15.0074 C   0  0  0  0  0  0  0  0  0  0  0  0
   -3.8834    4.5084  -14.2291 C   0  0  0  0  0  0  0  0  0  0  0  0
   -4.3184    3.7708  -13.0707 C   0  0  0  0  0  0  0  0  0  0  0  0
   -5.6205    3.6610  -12.7722 C   0  0  0  0  0  0  0  0  0  0  0  0
   -6.0380    2.9874  -11.5283 C   0  0  0  0  0  0  0  0  0  0  0  0
   -7.2340    3.3147  -10.8867 C   0  0  0  0  0  0  0  0  0  0  0  0
   -7.4931    2.7842   -9.6282 C   0  0  0  0  0  0  0  0  0  0  0  0
   -6.5625    1.9340   -9.0519 C   0  0  0  0  0  0  0  0  0  0  0  0
   -5.4242    1.6160   -9.7725 C   0  0  0  0  0  0  0  0  0  0  0  0
   -5.1362    2.1413  -10.9784 N   0  0  0  0  0  0  0  0  0  0  0  0
   -6.5370    4.2852  -13.5783 N   0  0  0  0  0  0  0  0  0  0  0  0
   -6.2192    5.1037  -14.6306 C   0  0  0  0  0  0  0  0  0  0  0  0
   -7.1226    5.7054  -15.2030 O   0  0  0  0  0  0  0  0  0  0  0  0
   -5.4479    5.5873  -17.2544 N   0  0  0  0  0  0  0  0  0  0  0  0
   -5.9107    4.2419  -17.7550 C   0  0  0  0  0  0  0  0  0  0  0  0
   -6.7496    4.9754  -18.7014 C   0  0  0  0  0  0  0  0  0  0  0  0
   -8.1288    5.3682  -18.2755 C   0  0  0  0  0  0  0  0  0  0  0  0
   -8.6559    4.1663  -19.0671 C   0  0  0  0  0  0  0  0  0  0  0  0
   -7.2792    4.1295  -19.7889 C   0  0  0  0  0  0  0  0  0  0  0  0
   -5.5831    5.8916  -18.7708 C   0  0  1  0  0  0  0  0  0  0  0  0
   -5.6855    7.3776  -19.2284 C   0  0  0  0  0  0  0  0  0  0  0  0
   -5.5227    7.7512  -20.5747 C   0  0  0  0  0  0  0  0  0  0  0  0
   -5.4987    9.0881  -20.9688 C   0  0  0  0  0  0  0  0  0  0  0  0
   -5.6941   10.0521  -20.0008 C   0  0  0  0  0  0  0  0  0  0  0  0
   -5.9060    9.7643  -18.7026 N   0  0  0  0  0  0  0  0  0  0  0  0
   -5.8479    8.4498  -18.3543 C   0  0  0  0  0  0  0  0  0  0  0  0
  1  2  2  0
  2  3  1  0
  3  4  2  0
  4  5  1  0
  5  6  2  0
  6  7  1  0
  7  8  2  0
  8  9  1  0
  9 10  2  0
 10 11  1  0
 11 12  2  0
  6 13  1  0
 13 14  1  0
 14 15  2  0
  2 16  1  0
 16 17  1  0
 17 18  1  0
 18 19  1  0
 19 20  1  0
 20 21  1  0
 18 22  1  0
 22 23  1  1
 23 24  2  0
 24 25  1  0
 25 26  2  0
 26 27  1  0
 27 28  2  0
 14  3  1  0
 22 16  1  0
 28 23  1  0
 12  7  1  0
 21 18  1  0
M  END
>  <fragmenstein_outcome>  (213) 
nan

>  <exports>  (213) 
['/opt/xchem-fragalysis-2/maxwin/openbind-hippo/xx01zvns2b/cycle_01/syndirella/elabs/openbind_xx01zvns2b_c1_elab_chemspace_filtered.sdf']

>  <Energy>  (213) 
nan

>  <alias>  (213) 
None

>  <fragmenstein_runtime>  (213) 
nan

>  <scratch_subdir>  (213) 
nan

>  <HIPPO Compound ID>  (213) 
140726

>  <rmsd(smina/fragmenstein)>  (213) 
1.502

>  <distance_score>  (213) 
1.854419

>  <orig_smiles>  (213) 
nan

>  <fragmenstein_mode>  (213) 
nan

>  <inchikey>  (213) 
LZRGBQNEPMUEEE-LJQANCHMSA-N

>  <ref_pdb>  (213) 
Z0719a

>  <GNINA pK>  (213) 
nan

>  <gnina_score_min>  (213) 
5.726

>  <tags>  (213) 
openbind_xx01zvns2b_c1_elab_nonasap_filtered_scored_top80percent,openbind_xx01zvns2b_c1_elab_chemspace_filtered_scored_top80percent,openbind_xx01zvns2b_c1_elab_chemspace_filtered_scored,openbind_xx01zvns2b_c1_elab_chemspace_filtered_scored_top40percent,openbind_xx01zvns2b_c1_elab_chemspace_filtered_scored_top20percent,openbind_xx01zvns2b_c1_elab_chemspace_filtered_scored_top60percent,openbind_xx01zvns2b_c1_elabs_filtered

>  <smiles>  (213) 
O=C(c1ccc(-c2ccccn2)[nH]c1=O)N1CC2(CCC2)[C@H]1c1cccnc1

>  <subsites>  (213) 
1 - Z4590/B/203/1

>  <gnina_score>  (213) 
5.895

>  <HIPPO Pose ID>  (213) 
70062

>  <ref_mols>  (213) 
Z0490a,Z0719a

>  <energy_score>  (213) 
-13.385813

>  <inspiration_score>  (213) 
None

>  <smina_score_min>  (213) 
-5.122

>  <fragmenstein_error>  (213) 
nan

>  <name>  (213) 
P70062

$$$$
P70064
     RDKit          3D

 28 32  0  0  0  0  0  0  0  0999 V2000
   -3.8910    6.0853  -16.8238 O   0  0  0  0  0  0  0  0  0  0  0  0
   -4.7935    5.5166  -16.3345 C   0  0  0  0  0  0  0  0  0  0  0  0
   -4.7306    4.5779  -15.1868 C   0  0  0  0  0  0  0  0  0  0  0  0
   -3.6065    3.8653  -15.0404 C   0  0  0  0  0  0  0  0  0  0  0  0
   -3.4960    2.9036  -13.9801 C   0  0  0  0  0  0  0  0  0  0  0  0
   -4.4975    2.7046  -13.1089 C   0  0  0  0  0  0  0  0  0  0  0  0
   -4.2533    1.8889  -11.9021 C   0  0  0  0  0  0  0  0  0  0  0  0
   -5.2698    1.5210  -11.0283 C   0  0  0  0  0  0  0  0  0  0  0  0
   -4.9294    0.8791   -9.8448 C   0  0  0  0  0  0  0  0  0  0  0  0
   -3.5953    0.6076   -9.5713 C   0  0  0  0  0  0  0  0  0  0  0  0
   -2.6472    0.9671  -10.5039 C   0  0  0  0  0  0  0  0  0  0  0  0
   -2.9419    1.6128  -11.6454 N   0  0  0  0  0  0  0  0  0  0  0  0
   -5.6835    3.3709  -13.2957 N   0  0  0  0  0  0  0  0  0  0  0  0
   -5.8950    4.3142  -14.2664 C   0  0  0  0  0  0  0  0  0  0  0  0
   -6.9726    4.9001  -14.3142 O   0  0  0  0  0  0  0  0  0  0  0  0
   -6.2381    5.5152  -16.6903 N   0  0  0  0  0  0  0  0  0  0  0  0
   -6.5700    4.3983  -17.7146 C   0  0  0  0  0  0  0  0  0  0  0  0
   -7.8559    5.0932  -17.8389 C   0  0  0  0  0  0  0  0  0  0  0  0
   -8.8311    4.7361  -18.8988 C   0  0  0  0  0  0  0  0  0  0  0  0
   -9.6565    3.9807  -17.8501 C   0  0  0  0  0  0  0  0  0  0  0  0
   -8.8729    4.7108  -16.7502 C   0  0  0  0  0  0  0  0  0  0  0  0
   -6.9998    6.3132  -17.7157 C   0  0  2  0  0  0  0  0  0  0  0  0
   -6.1447    7.0961  -18.7970 C   0  0  0  0  0  0  0  0  0  0  0  0
   -5.5403    8.3281  -18.4674 C   0  0  0  0  0  0  0  0  0  0  0  0
   -4.8282    9.0552  -19.4123 C   0  0  0  0  0  0  0  0  0  0  0  0
   -4.6771    8.6665  -20.6899 N   0  0  0  0  0  0  0  0  0  0  0  0
   -5.2129    7.4699  -21.0005 C   0  0  0  0  0  0  0  0  0  0  0  0
   -5.9124    6.6733  -20.1016 C   0  0  0  0  0  0  0  0  0  0  0  0
  1  2  2  0
  2  3  1  0
  3  4  2  0
  4  5  1  0
  5  6  2  0
  6  7  1  0
  7  8  2  0
  8  9  1  0
  9 10  2  0
 10 11  1  0
 11 12  2  0
  6 13  1  0
 13 14  1  0
 14 15  2  0
  2 16  1  0
 16 17  1  0
 17 18  1  0
 18 19  1  0
 19 20  1  0
 20 21  1  0
 18 22  1  0
 22 23  1  6
 23 24  2  0
 24 25  1  0
 25 26  2  0
 26 27  1  0
 27 28  2  0
 14  3  1  0
 22 16  1  0
 28 23  1  0
 12  7  1  0
 21 18  1  0
M  END
>  <fragmenstein_outcome>  (214) 
nan

>  <exports>  (214) 
['/opt/xchem-fragalysis-2/maxwin/openbind-hippo/xx01zvns2b/cycle_01/syndirella/elabs/openbind_xx01zvns2b_c1_elab_chemspace_filtered.sdf']

>  <Energy>  (214) 
nan

>  <alias>  (214) 
None

>  <fragmenstein_runtime>  (214) 
nan

>  <scratch_subdir>  (214) 
nan

>  <HIPPO Compound ID>  (214) 
140727

>  <rmsd(smina/fragmenstein)>  (214) 
0.801

>  <distance_score>  (214) 
1.652465

>  <orig_smiles>  (214) 
nan

>  <fragmenstein_mode>  (214) 
nan

>  <inchikey>  (214) 
RTBXVJKVXKPFDQ-IBGZPJMESA-N

>  <ref_pdb>  (214) 
Z0719a

>  <GNINA pK>  (214) 
nan

>  <gnina_score_min>  (214) 
5.438

>  <tags>  (214) 
openbind_xx01zvns2b_c1_elab_nonasap_filtered_scored_top80percent,openbind_xx01zvns2b_c1_elab_chemspace_filtered_scored_top80percent,openbind_xx01zvns2b_c1_elab_chemspace_filtered_scored,openbind_xx01zvns2b_c1_elab_chemspace_filtered_scored_top40percent,openbind_xx01zvns2b_c1_elab_chemspace_filtered_scored_top20percent,openbind_xx01zvns2b_c1_elab_chemspace_filtered_scored_top60percent,openbind_xx01zvns2b_c1_elabs_filtered

>  <smiles>  (214) 
O=C(c1ccc(-c2ccccn2)[nH]c1=O)N1CC2(CCC2)[C@@H]1c1ccncc1

>  <subsites>  (214) 
1 - Z4590/B/203/1

>  <gnina_score>  (214) 
5.568

>  <HIPPO Pose ID>  (214) 
70064

>  <ref_mols>  (214) 
Z0490a,Z0719a

>  <energy_score>  (214) 
-14.272014

>  <inspiration_score>  (214) 
None

>  <smina_score_min>  (214) 
-6.282

>  <fragmenstein_error>  (214) 
nan

>  <name>  (214) 
P70064

$$$$
P70065
     RDKit          3D

 29 33  0  0  0  0  0  0  0  0999 V2000
   -5.6464    2.2534  -12.7153 C   0  0  0  0  0  0  0  0  0  0  0  0
   -6.0734    3.5772  -13.1661 N   0  0  0  0  0  0  0  0  0  0  0  0
   -5.0730    4.1453  -14.0583 C   0  0  0  0  0  0  0  0  0  0  0  0
   -5.4721    5.5592  -14.4598 C   0  0  0  0  0  0  0  0  0  0  0  0
   -6.8235    5.6682  -15.1955 C   0  0  0  0  0  0  0  0  0  0  0  0
   -6.7452    5.1069  -16.6242 C   0  0  2  0  0  0  0  0  0  0  0  0
   -5.6875    5.8103  -17.5825 N   0  0  0  0  0  0  0  0  0  0  0  0
   -4.7409    6.9700  -17.3299 C   0  0  0  0  0  0  0  0  0  0  0  0
   -4.6264    7.6699  -16.3882 O   0  0  0  0  0  0  0  0  0  0  0  0
   -3.8457    7.0284  -18.5049 C   0  0  0  0  0  0  0  0  0  0  0  0
   -3.8915    8.0856  -19.3330 C   0  0  0  0  0  0  0  0  0  0  0  0
   -3.0649    8.1289  -20.5232 C   0  0  0  0  0  0  0  0  0  0  0  0
   -2.2270    7.1140  -20.7998 C   0  0  0  0  0  0  0  0  0  0  0  0
   -1.3686    7.0166  -21.9983 C   0  0  0  0  0  0  0  0  0  0  0  0
   -0.8453    8.1202  -22.6636 C   0  0  0  0  0  0  0  0  0  0  0  0
    0.0075    7.9064  -23.7450 C   0  0  0  0  0  0  0  0  0  0  0  0
    0.3236    6.6060  -24.1217 C   0  0  0  0  0  0  0  0  0  0  0  0
   -0.2341    5.5628  -23.4044 C   0  0  0  0  0  0  0  0  0  0  0  0
   -1.0830    5.7362  -22.3658 N   0  0  0  0  0  0  0  0  0  0  0  0
   -2.1640    6.0430  -19.9342 N   0  0  0  0  0  0  0  0  0  0  0  0
   -2.8960    5.9150  -18.7818 C   0  0  0  0  0  0  0  0  0  0  0  0
   -2.7430    4.9532  -18.0371 O   0  0  0  0  0  0  0  0  0  0  0  0
   -7.0246    6.2972  -18.2473 C   0  0  0  0  0  0  0  0  0  0  0  0
   -7.7539    5.1690  -17.7164 C   0  0  0  0  0  0  0  0  0  0  0  0
   -7.8794    3.9949  -18.6478 C   0  0  0  0  0  0  0  0  0  0  0  0
   -9.1098    3.6064  -17.7875 C   0  0  0  0  0  0  0  0  0  0  0  0
   -9.2435    5.0944  -17.4994 C   0  0  0  0  0  0  0  0  0  0  0  0
   -7.8442    4.9247  -14.3034 C   0  0  0  0  0  0  0  0  0  0  0  0
   -7.3829    3.5365  -13.8214 C   0  0  0  0  0  0  0  0  0  0  0  0
  1  2  1  0
  2  3  1  0
  3  4  1  0
  4  5  1  0
  6  5  1  1
  6  7  1  0
  7  8  1  0
  8  9  2  0
  8 10  1  0
 10 11  2  0
 11 12  1  0
 12 13  2  0
 13 14  1  0
 14 15  2  0
 15 16  1  0
 16 17  2  0
 17 18  1  0
 18 19  2  0
 13 20  1  0
 20 21  1  0
 21 22  2  0
  7 23  1  0
 23 24  1  0
 24 25  1  0
 25 26  1  0
 26 27  1  0
  5 28  1  0
 28 29  1  0
 29  2  1  0
 24  6  1  0
 21 10  1  0
 27 24  1  0
 19 14  1  0
M  END
>  <fragmenstein_outcome>  (215) 
nan

>  <exports>  (215) 
['/opt/xchem-fragalysis-2/maxwin/openbind-hippo/xx01zvns2b/cycle_01/syndirella/elabs/openbind_xx01zvns2b_c1_elab_chemspace_filtered.sdf']

>  <Energy>  (215) 
nan

>  <alias>  (215) 
None

>  <fragmenstein_runtime>  (215) 
nan

>  <scratch_subdir>  (215) 
nan

>  <HIPPO Compound ID>  (215) 
140737

>  <rmsd(smina/fragmenstein)>  (215) 
0.981

>  <distance_score>  (215) 
1.566718

>  <orig_smiles>  (215) 
nan

>  <fragmenstein_mode>  (215) 
nan

>  <inchikey>  (215) 
JMZSKLPWMBHMMU-FQEVSTJZSA-N

>  <ref_pdb>  (215) 
Z0719a

>  <GNINA pK>  (215) 
nan

>  <gnina_score_min>  (215) 
5.362

>  <tags>  (215) 
openbind_xx01zvns2b_c1_elab_nonasap_filtered_scored_top80percent,openbind_xx01zvns2b_c1_elab_chemspace_filtered_scored_top80percent,openbind_xx01zvns2b_c1_elab_chemspace_filtered_scored,openbind_xx01zvns2b_c1_elab_chemspace_filtered_scored_top40percent,openbind_xx01zvns2b_c1_elab_chemspace_filtered_scored_top20percent,openbind_xx01zvns2b_c1_elab_chemspace_filtered_scored_top60percent,openbind_xx01zvns2b_c1_elabs_filtered

>  <smiles>  (215) 
CN1CCC([C@@H]2N(C(=O)c3ccc(-c4ccccn4)[nH]c3=O)CC23CCC3)CC1

>  <subsites>  (215) 
1 - Z4590/B/203/1

>  <gnina_score>  (215) 
5.845

>  <HIPPO Pose ID>  (215) 
70065

>  <ref_mols>  (215) 
Z0490a,Z0719a

>  <energy_score>  (215) 
-38.7127

>  <inspiration_score>  (215) 
None

>  <smina_score_min>  (215) 
-5.431

>  <fragmenstein_error>  (215) 
nan

>  <name>  (215) 
P70065

$$$$
P70066
     RDKit          3D

 29 33  0  0  0  0  0  0  0  0999 V2000
   -3.7490    4.7311  -17.8213 O   0  0  0  0  0  0  0  0  0  0  0  0
   -4.6742    4.7783  -17.0964 C   0  0  0  0  0  0  0  0  0  0  0  0
   -4.6479    4.3106  -15.6701 C   0  0  0  0  0  0  0  0  0  0  0  0
   -3.6038    3.5349  -15.3386 C   0  0  0  0  0  0  0  0  0  0  0  0
   -3.5187    2.8902  -14.0579 C   0  0  0  0  0  0  0  0  0  0  0  0
   -4.4911    3.0524  -13.1519 C   0  0  0  0  0  0  0  0  0  0  0  0
   -4.2871    2.6434  -11.7533 C   0  0  0  0  0  0  0  0  0  0  0  0
   -3.5577    1.5095  -11.4010 C   0  0  0  0  0  0  0  0  0  0  0  0
   -3.1599    1.3509  -10.0798 C   0  0  0  0  0  0  0  0  0  0  0  0
   -3.5130    2.3204   -9.1533 C   0  0  0  0  0  0  0  0  0  0  0  0
   -4.3172    3.3691   -9.5637 C   0  0  0  0  0  0  0  0  0  0  0  0
   -4.7083    3.5542  -10.8400 N   0  0  0  0  0  0  0  0  0  0  0  0
   -5.5872    3.8130  -13.4719 N   0  0  0  0  0  0  0  0  0  0  0  0
   -5.7478    4.4965  -14.6534 C   0  0  0  0  0  0  0  0  0  0  0  0
   -6.7238    5.2215  -14.8115 O   0  0  0  0  0  0  0  0  0  0  0  0
   -6.0834    5.1818  -17.3572 N   0  0  0  0  0  0  0  0  0  0  0  0
   -6.9205    4.0148  -17.7716 C   0  0  0  0  0  0  0  0  0  0  0  0
   -7.9763    5.0440  -18.0709 C   0  0  0  0  0  0  0  0  0  0  0  0
   -9.1059    4.4284  -18.8540 C   0  0  0  0  0  0  0  0  0  0  0  0
  -10.0489    4.7641  -17.6882 C   0  0  0  0  0  0  0  0  0  0  0  0
   -8.8308    5.1121  -16.8054 C   0  0  0  0  0  0  0  0  0  0  0  0
   -6.7344    5.7462  -18.5963 C   0  0  1  0  0  0  0  0  0  0  0  0
   -6.3007    7.2557  -18.7814 C   0  0  0  0  0  0  0  0  0  0  0  0
   -6.0310    7.7839  -20.0642 C   0  0  0  0  0  0  0  0  0  0  0  0
   -5.4958    9.0619  -20.2638 C   0  0  0  0  0  0  0  0  0  0  0  0
   -5.1875    9.8467  -19.1673 C   0  0  0  0  0  0  0  0  0  0  0  0
   -4.6823   11.0734  -19.3485 F   0  0  0  0  0  0  0  0  0  0  0  0
   -5.3852    9.3664  -17.8849 C   0  0  0  0  0  0  0  0  0  0  0  0
   -5.9208    8.0846  -17.7041 C   0  0  0  0  0  0  0  0  0  0  0  0
  1  2  2  0
  2  3  1  0
  3  4  2  0
  4  5  1  0
  5  6  2  0
  6  7  1  0
  7  8  2  0
  8  9  1  0
  9 10  2  0
 10 11  1  0
 11 12  2  0
  6 13  1  0
 13 14  1  0
 14 15  2  0
  2 16  1  0
 16 17  1  0
 17 18  1  0
 18 19  1  0
 19 20  1  0
 20 21  1  0
 18 22  1  0
 22 23  1  1
 23 24  2  0
 24 25  1  0
 25 26  2  0
 26 27  1  0
 26 28  1  0
 28 29  2  0
 14  3  1  0
 22 16  1  0
 29 23  1  0
 12  7  1  0
 21 18  1  0
M  END
>  <fragmenstein_outcome>  (216) 
nan

>  <exports>  (216) 
['/opt/xchem-fragalysis-2/maxwin/openbind-hippo/xx01zvns2b/cycle_01/syndirella/elabs/openbind_xx01zvns2b_c1_elab_chemspace_filtered.sdf']

>  <Energy>  (216) 
nan

>  <alias>  (216) 
None

>  <fragmenstein_runtime>  (216) 
nan

>  <scratch_subdir>  (216) 
nan

>  <HIPPO Compound ID>  (216) 
140741

>  <rmsd(smina/fragmenstein)>  (216) 
1.204

>  <distance_score>  (216) 
1.543883

>  <orig_smiles>  (216) 
nan

>  <fragmenstein_mode>  (216) 
nan

>  <inchikey>  (216) 
NNRZCTHIAJXFFP-HXUWFJFHSA-N

>  <ref_pdb>  (216) 
Z0719a

>  <GNINA pK>  (216) 
nan

>  <gnina_score_min>  (216) 
5.592

>  <tags>  (216) 
openbind_xx01zvns2b_c1_elab_nonasap_filtered_scored_top80percent,openbind_xx01zvns2b_c1_elab_chemspace_filtered_scored_top80percent,openbind_xx01zvns2b_c1_elab_chemspace_filtered_scored,openbind_xx01zvns2b_c1_elab_chemspace_filtered_scored_top40percent,openbind_xx01zvns2b_c1_elab_chemspace_filtered_scored_top20percent,openbind_xx01zvns2b_c1_elab_chemspace_filtered_scored_top60percent,openbind_xx01zvns2b_c1_elabs_filtered

>  <smiles>  (216) 
O=C(c1ccc(-c2ccccn2)[nH]c1=O)N1CC2(CCC2)[C@H]1c1ccc(F)cc1

>  <subsites>  (216) 
1 - Z4590/B/203/1

>  <gnina_score>  (216) 
5.85

>  <HIPPO Pose ID>  (216) 
70066

>  <ref_mols>  (216) 
Z0490a,Z0719a

>  <energy_score>  (216) 
-0.701201

>  <inspiration_score>  (216) 
None

>  <smina_score_min>  (216) 
-5.989

>  <fragmenstein_error>  (216) 
nan

>  <name>  (216) 
P70066

$$$$
P70067
     RDKit          3D

 30 34  0  0  0  0  0  0  0  0999 V2000
   -2.5079    4.8557  -16.5013 O   0  0  0  0  0  0  0  0  0  0  0  0
   -3.4517    4.4360  -15.9350 C   0  0  0  0  0  0  0  0  0  0  0  0
   -3.3511    3.9869  -14.4951 C   0  0  0  0  0  0  0  0  0  0  0  0
   -2.2226    4.3912  -13.8764 C   0  0  0  0  0  0  0  0  0  0  0  0
   -1.8944    3.9920  -12.5364 C   0  0  0  0  0  0  0  0  0  0  0  0
   -2.6903    3.1406  -11.8754 C   0  0  0  0  0  0  0  0  0  0  0  0
   -2.2845    2.6673  -10.5404 C   0  0  0  0  0  0  0  0  0  0  0  0
   -2.2222    1.3080  -10.2562 C   0  0  0  0  0  0  0  0  0  0  0  0
   -1.6814    0.9112   -9.0362 C   0  0  0  0  0  0  0  0  0  0  0  0
   -1.2626    1.8702   -8.1223 C   0  0  0  0  0  0  0  0  0  0  0  0
   -1.3829    3.2008   -8.4763 C   0  0  0  0  0  0  0  0  0  0  0  0
   -1.8634    3.6185   -9.6660 N   0  0  0  0  0  0  0  0  0  0  0  0
   -3.8570    2.7096  -12.4642 N   0  0  0  0  0  0  0  0  0  0  0  0
   -4.3167    3.1306  -13.7006 C   0  0  0  0  0  0  0  0  0  0  0  0
   -5.4305    2.7659  -14.0648 O   0  0  0  0  0  0  0  0  0  0  0  0
   -4.8627    4.2825  -16.3928 N   0  0  0  0  0  0  0  0  0  0  0  0
   -5.7074    5.5584  -16.0818 C   0  0  0  0  0  0  0  0  0  0  0  0
   -6.6859    4.9725  -17.0323 C   0  0  0  0  0  0  0  0  0  0  0  0
   -7.7208    5.8091  -17.6875 C   0  0  0  0  0  0  0  0  0  0  0  0
   -8.6234    5.3780  -16.4613 C   0  0  0  0  0  0  0  0  0  0  0  0
   -8.4994    6.2785  -15.3283 O   0  0  0  0  0  0  0  0  0  0  0  0
   -8.9768    5.8105  -14.0740 C   0  0  0  0  0  0  0  0  0  0  0  0
   -7.9090    5.9196  -13.0198 C   0  0  0  0  0  0  0  0  0  0  0  0
   -7.5573    4.8024  -12.2499 C   0  0  0  0  0  0  0  0  0  0  0  0
   -6.5754    4.9029  -11.2630 C   0  0  0  0  0  0  0  0  0  0  0  0
   -5.9321    6.1179  -11.0383 C   0  0  0  0  0  0  0  0  0  0  0  0
   -6.2780    7.2378  -11.7924 C   0  0  0  0  0  0  0  0  0  0  0  0
   -7.2652    7.1411  -12.7748 C   0  0  0  0  0  0  0  0  0  0  0  0
   -7.7633    4.1011  -16.4355 C   0  0  0  0  0  0  0  0  0  0  0  0
   -5.4969    4.5227  -17.7534 C   0  0  0  0  0  0  0  0  0  0  0  0
  1  2  2  0
  2  3  1  0
  3  4  2  0
  4  5  1  0
  5  6  2  0
  6  7  1  0
  7  8  2  0
  8  9  1  0
  9 10  2  0
 10 11  1  0
 11 12  2  0
  6 13  1  0
 13 14  1  0
 14 15  2  0
  2 16  1  0
 16 17  1  0
 17 18  1  0
 18 19  1  0
 19 20  1  0
 20 21  1  0
 21 22  1  0
 22 23  1  0
 23 24  2  0
 24 25  1  0
 25 26  2  0
 26 27  1  0
 27 28  2  0
 20 29  1  0
 18 30  1  0
 14  3  1  0
 30 16  1  0
 12  7  1  0
 29 18  1  0
 28 23  1  0
M  END
>  <fragmenstein_outcome>  (217) 
nan

>  <exports>  (217) 
['/opt/xchem-fragalysis-2/maxwin/openbind-hippo/xx01zvns2b/cycle_01/syndirella/elabs/openbind_xx01zvns2b_c1_elab_chemspace_filtered.sdf']

>  <Energy>  (217) 
nan

>  <alias>  (217) 
None

>  <fragmenstein_runtime>  (217) 
nan

>  <scratch_subdir>  (217) 
nan

>  <HIPPO Compound ID>  (217) 
140745

>  <rmsd(smina/fragmenstein)>  (217) 
2.404

>  <distance_score>  (217) 
1.80596

>  <orig_smiles>  (217) 
nan

>  <fragmenstein_mode>  (217) 
nan

>  <inchikey>  (217) 
WNSHLRSKKSKJQU-UHFFFAOYSA-N

>  <ref_pdb>  (217) 
Z0719a

>  <GNINA pK>  (217) 
nan

>  <gnina_score_min>  (217) 
5.268

>  <tags>  (217) 
openbind_xx01zvns2b_c1_elab_nonasap_filtered_scored_top80percent,openbind_xx01zvns2b_c1_elab_chemspace_filtered_scored_top80percent,openbind_xx01zvns2b_c1_elab_chemspace_filtered_scored,openbind_xx01zvns2b_c1_elab_chemspace_filtered_scored_top40percent,openbind_xx01zvns2b_c1_elab_chemspace_filtered_scored_top20percent,openbind_xx01zvns2b_c1_elab_chemspace_filtered_scored_top60percent,openbind_xx01zvns2b_c1_elabs_filtered

>  <smiles>  (217) 
O=C(c1ccc(-c2ccccn2)[nH]c1=O)N1CC2(CC(OCc3ccccc3)C2)C1

>  <subsites>  (217) 
1 - Z4590/B/203/1

>  <gnina_score>  (217) 
5.839

>  <HIPPO Pose ID>  (217) 
70067

>  <ref_mols>  (217) 
Z0490a,Z0719a

>  <energy_score>  (217) 
-10.243502

>  <inspiration_score>  (217) 
None

>  <smina_score_min>  (217) 
-5.816

>  <fragmenstein_error>  (217) 
nan

>  <name>  (217) 
P70067

$$$$
P70068
     RDKit          3D

 31 34  0  0  0  0  0  0  0  0999 V2000
   -2.1197    8.1517  -20.6419 C   0  0  0  0  0  0  0  0  0  0  0  0
   -3.6450    8.2882  -20.5114 C   0  0  0  0  0  0  0  0  0  0  0  0
   -3.9802    9.7596  -20.2360 C   0  0  0  0  0  0  0  0  0  0  0  0
   -4.2891    7.7967  -21.8102 C   0  0  0  0  0  0  0  0  0  0  0  0
   -3.9913    7.4538  -19.3769 O   0  0  0  0  0  0  0  0  0  0  0  0
   -5.2796    7.3743  -18.9328 C   0  0  0  0  0  0  0  0  0  0  0  0
   -6.1941    7.8394  -19.5070 O   0  0  0  0  0  0  0  0  0  0  0  0
   -5.2155    6.6971  -17.5944 N   0  0  0  0  0  0  0  0  0  0  0  0
   -6.2711    6.4983  -16.5463 C   0  0  0  0  0  0  0  0  0  0  0  0
   -6.8031    5.2883  -17.1867 C   0  0  0  0  0  0  0  0  0  0  0  0
   -7.9273    5.2251  -18.1865 C   0  0  0  0  0  0  0  0  0  0  0  0
   -8.8029    4.5928  -17.0840 C   0  0  0  0  0  0  0  0  0  0  0  0
   -7.5067    4.3074  -16.2722 C   0  0  2  0  0  0  0  0  0  0  0  0
   -7.6590    4.5122  -14.7737 C   0  0  0  0  0  0  0  0  0  0  0  0
   -6.4714    3.9973  -14.1432 N   0  0  0  0  0  0  0  0  0  0  0  0
   -6.2279    2.6673  -13.3977 C   0  0  0  0  0  0  0  0  0  0  0  0
   -6.9712    1.8137  -13.1103 O   0  0  0  0  0  0  0  0  0  0  0  0
   -4.7818    2.5596  -12.9920 C   0  0  0  0  0  0  0  0  0  0  0  0
   -4.4867    1.6659  -12.0284 C   0  0  0  0  0  0  0  0  0  0  0  0
   -3.1249    1.3056  -11.7006 C   0  0  0  0  0  0  0  0  0  0  0  0
   -2.1012    1.8565  -12.3723 C   0  0  0  0  0  0  0  0  0  0  0  0
   -0.6737    1.4799  -12.2173 C   0  0  0  0  0  0  0  0  0  0  0  0
   -0.2430    0.3720  -11.4904 C   0  0  0  0  0  0  0  0  0  0  0  0
    1.1179    0.0715  -11.4519 C   0  0  0  0  0  0  0  0  0  0  0  0
    2.0160    0.8806  -12.1341 C   0  0  0  0  0  0  0  0  0  0  0  0
    1.5139    1.9597  -12.8376 C   0  0  0  0  0  0  0  0  0  0  0  0
    0.1998    2.2676  -12.9048 N   0  0  0  0  0  0  0  0  0  0  0  0
   -2.3840    2.8437  -13.2953 N   0  0  0  0  0  0  0  0  0  0  0  0
   -3.6431    3.2779  -13.6309 C   0  0  0  0  0  0  0  0  0  0  0  0
   -3.8146    4.2060  -14.4175 O   0  0  0  0  0  0  0  0  0  0  0  0
   -5.4481    5.1121  -17.7246 C   0  0  0  0  0  0  0  0  0  0  0  0
  1  2  1  0
  2  3  1  0
  2  4  1  0
  2  5  1  0
  5  6  1  0
  6  7  2  0
  6  8  1  0
  8  9  1  0
  9 10  1  0
 10 11  1  0
 11 12  1  0
 12 13  1  0
 13 14  1  1
 14 15  1  0
 15 16  1  0
 16 17  2  0
 16 18  1  0
 18 19  2  0
 19 20  1  0
 20 21  2  0
 21 22  1  0
 22 23  2  0
 23 24  1  0
 24 25  2  0
 25 26  1  0
 26 27  2  0
 21 28  1  0
 28 29  1  0
 29 30  2  0
 10 31  1  0
 31  8  1  0
 13 10  1  0
 29 18  1  0
 27 22  1  0
M  END
>  <fragmenstein_outcome>  (218) 
nan

>  <exports>  (218) 
['/opt/xchem-fragalysis-2/maxwin/openbind-hippo/xx01zvns2b/cycle_01/syndirella/elabs/openbind_xx01zvns2b_c1_elab_chemspace_filtered.sdf']

>  <Energy>  (218) 
nan

>  <alias>  (218) 
None

>  <fragmenstein_runtime>  (218) 
nan

>  <scratch_subdir>  (218) 
nan

>  <HIPPO Compound ID>  (218) 
140749

>  <rmsd(smina/fragmenstein)>  (218) 
0.846

>  <distance_score>  (218) 
1.723796

>  <orig_smiles>  (218) 
nan

>  <fragmenstein_mode>  (218) 
nan

>  <inchikey>  (218) 
XYLFZOFYOWAPLP-OAHLLOKOSA-N

>  <ref_pdb>  (218) 
Z0719a

>  <GNINA pK>  (218) 
nan

>  <gnina_score_min>  (218) 
5.544

>  <tags>  (218) 
openbind_xx01zvns2b_c1_elab_nonasap_filtered_scored_top80percent,openbind_xx01zvns2b_c1_elab_chemspace_filtered_scored_top80percent,openbind_xx01zvns2b_c1_elab_chemspace_filtered_scored,openbind_xx01zvns2b_c1_elab_chemspace_filtered_scored_top40percent,openbind_xx01zvns2b_c1_elab_chemspace_filtered_scored_top20percent,openbind_xx01zvns2b_c1_elab_chemspace_filtered_scored_top60percent,openbind_xx01zvns2b_c1_elabs_filtered

>  <smiles>  (218) 
CC(C)(C)OC(=O)N1CC2(CC[C@@H]2CNC(=O)c2ccc(-c3ccccn3)[nH]c2=O)C1

>  <subsites>  (218) 
1 - Z4590/B/203/1

>  <gnina_score>  (218) 
5.563

>  <HIPPO Pose ID>  (218) 
70068

>  <ref_mols>  (218) 
Z0490a,Z0719a

>  <energy_score>  (218) 
-16.253852

>  <inspiration_score>  (218) 
None

>  <smina_score_min>  (218) 
-6.949

>  <fragmenstein_error>  (218) 
nan

>  <name>  (218) 
P70068

$$$$
P70069
     RDKit          3D

 32 36  0  0  0  0  0  0  0  0999 V2000
   -5.2013    8.5703  -16.7732 O   0  0  0  0  0  0  0  0  0  0  0  0
   -5.0554    7.6215  -17.4532 C   0  0  0  0  0  0  0  0  0  0  0  0
   -4.0377    7.5275  -18.5212 C   0  0  0  0  0  0  0  0  0  0  0  0
   -3.0197    6.6647  -18.3680 C   0  0  0  0  0  0  0  0  0  0  0  0
   -2.0785    6.4465  -19.4371 C   0  0  0  0  0  0  0  0  0  0  0  0
   -2.2016    7.1196  -20.5937 C   0  0  0  0  0  0  0  0  0  0  0  0
   -1.2783    6.8435  -21.7054 C   0  0  0  0  0  0  0  0  0  0  0  0
   -0.6325    7.8675  -22.3900 C   0  0  0  0  0  0  0  0  0  0  0  0
    0.2799    7.5291  -23.3864 C   0  0  0  0  0  0  0  0  0  0  0  0
    0.5273    6.1883  -23.6597 C   0  0  0  0  0  0  0  0  0  0  0  0
   -0.1679    5.2332  -22.9382 C   0  0  0  0  0  0  0  0  0  0  0  0
   -1.0901    5.5288  -21.9922 N   0  0  0  0  0  0  0  0  0  0  0  0
   -3.2193    8.0352  -20.7486 N   0  0  0  0  0  0  0  0  0  0  0  0
   -4.1820    8.2856  -19.7930 C   0  0  0  0  0  0  0  0  0  0  0  0
   -5.1072    9.0653  -20.0042 O   0  0  0  0  0  0  0  0  0  0  0  0
   -5.8488    6.3367  -17.5228 N   0  0  0  0  0  0  0  0  0  0  0  0
   -7.0181    6.4408  -18.5632 C   0  0  0  0  0  0  0  0  0  0  0  0
   -7.7125    5.3569  -17.8765 C   0  0  0  0  0  0  0  0  0  0  0  0
   -7.4982    4.0044  -18.4576 C   0  0  0  0  0  0  0  0  0  0  0  0
   -8.8918    3.6355  -17.8935 C   0  0  0  0  0  0  0  0  0  0  0  0
   -9.2030    5.1223  -17.8566 C   0  0  0  0  0  0  0  0  0  0  0  0
   -7.0333    5.8280  -16.6520 C   0  0  1  0  0  0  0  0  0  0  0  0
   -6.5977    4.8280  -15.4952 C   0  0  0  0  0  0  0  0  0  0  0  0
   -7.5037    4.2501  -14.5865 C   0  0  0  0  0  0  0  0  0  0  0  0
   -7.0843    3.3968  -13.5526 C   0  0  0  0  0  0  0  0  0  0  0  0
   -5.7290    3.0975  -13.3852 C   0  0  0  0  0  0  0  0  0  0  0  0
   -5.2272    2.2432  -12.2517 C   0  0  0  0  0  0  0  0  0  0  0  0
   -4.9880    2.9872  -11.1311 F   0  0  0  0  0  0  0  0  0  0  0  0
   -6.0905    1.2713  -11.8765 F   0  0  0  0  0  0  0  0  0  0  0  0
   -4.0387    1.6346  -12.5320 F   0  0  0  0  0  0  0  0  0  0  0  0
   -4.8140    3.6671  -14.2663 C   0  0  0  0  0  0  0  0  0  0  0  0
   -5.2475    4.4994  -15.2939 C   0  0  0  0  0  0  0  0  0  0  0  0
  1  2  2  0
  2  3  1  0
  3  4  2  0
  4  5  1  0
  5  6  2  0
  6  7  1  0
  7  8  2  0
  8  9  1  0
  9 10  2  0
 10 11  1  0
 11 12  2  0
  6 13  1  0
 13 14  1  0
 14 15  2  0
  2 16  1  0
 16 17  1  0
 17 18  1  0
 18 19  1  0
 19 20  1  0
 20 21  1  0
 18 22  1  0
 22 23  1  1
 23 24  2  0
 24 25  1  0
 25 26  2  0
 26 27  1  0
 27 28  1  0
 27 29  1  0
 27 30  1  0
 26 31  1  0
 31 32  2  0
 14  3  1  0
 22 16  1  0
 32 23  1  0
 12  7  1  0
 21 18  1  0
M  END
>  <fragmenstein_outcome>  (219) 
nan

>  <exports>  (219) 
['/opt/xchem-fragalysis-2/maxwin/openbind-hippo/xx01zvns2b/cycle_01/syndirella/elabs/openbind_xx01zvns2b_c1_elab_chemspace_filtered.sdf']

>  <Energy>  (219) 
nan

>  <alias>  (219) 
None

>  <fragmenstein_runtime>  (219) 
nan

>  <scratch_subdir>  (219) 
nan

>  <HIPPO Compound ID>  (219) 
140750

>  <rmsd(smina/fragmenstein)>  (219) 
0.684

>  <distance_score>  (219) 
1.796973

>  <orig_smiles>  (219) 
nan

>  <fragmenstein_mode>  (219) 
nan

>  <inchikey>  (219) 
TUAZHTMVJHCAAK-HXUWFJFHSA-N

>  <ref_pdb>  (219) 
Z0719a

>  <GNINA pK>  (219) 
nan

>  <gnina_score_min>  (219) 
5.904

>  <tags>  (219) 
openbind_xx01zvns2b_c1_elab_nonasap_filtered_scored_top80percent,openbind_xx01zvns2b_c1_elab_chemspace_filtered_scored_top80percent,openbind_xx01zvns2b_c1_elab_chemspace_filtered_scored,openbind_xx01zvns2b_c1_elab_chemspace_filtered_scored_top40percent,openbind_xx01zvns2b_c1_elab_chemspace_filtered_scored_top20percent,openbind_xx01zvns2b_c1_elab_chemspace_filtered_scored_top60percent,openbind_xx01zvns2b_c1_elabs_filtered

>  <smiles>  (219) 
O=C(c1ccc(-c2ccccn2)[nH]c1=O)N1CC2(CCC2)[C@H]1c1ccc(C(F)(F)F)cc1

>  <subsites>  (219) 
1 - Z4590/B/203/1

>  <gnina_score>  (219) 
6.07

>  <HIPPO Pose ID>  (219) 
70069

>  <ref_mols>  (219) 
Z0490a,Z0719a

>  <energy_score>  (219) 
-34.600036

>  <inspiration_score>  (219) 
None

>  <smina_score_min>  (219) 
-5.318

>  <fragmenstein_error>  (219) 
nan

>  <name>  (219) 
P70069

$$$$
P70071
     RDKit          3D

 32 35  0  0  0  0  0  0  0  0999 V2000
   -7.3900    6.3108  -14.8162 C   0  0  0  0  0  0  0  0  0  0  0  0
   -7.2522    4.9328  -15.4746 C   0  0  0  0  0  0  0  0  0  0  0  0
   -7.4913    3.8393  -14.4352 C   0  0  0  0  0  0  0  0  0  0  0  0
   -6.2557    3.4244  -13.8223 N   0  0  0  0  0  0  0  0  0  0  0  0
   -5.9324    3.0783  -12.3552 C   0  0  0  0  0  0  0  0  0  0  0  0
   -6.5955    3.1485  -11.3984 O   0  0  0  0  0  0  0  0  0  0  0  0
   -4.5469    2.4705  -12.2587 C   0  0  0  0  0  0  0  0  0  0  0  0
   -4.2370    1.8326  -11.1108 C   0  0  0  0  0  0  0  0  0  0  0  0
   -2.9658    1.1684  -10.9083 C   0  0  0  0  0  0  0  0  0  0  0  0
   -2.0184    1.2024  -11.8610 C   0  0  0  0  0  0  0  0  0  0  0  0
   -0.6662    0.5879  -11.7586 C   0  0  0  0  0  0  0  0  0  0  0  0
   -0.1379    0.1109  -10.5597 C   0  0  0  0  0  0  0  0  0  0  0  0
    1.1743   -0.3594  -10.5267 C   0  0  0  0  0  0  0  0  0  0  0  0
    1.9348   -0.3368  -11.6855 C   0  0  0  0  0  0  0  0  0  0  0  0
    1.3444    0.1455  -12.8393 C   0  0  0  0  0  0  0  0  0  0  0  0
    0.0666    0.5880  -12.9135 N   0  0  0  0  0  0  0  0  0  0  0  0
   -2.3118    1.8582  -13.0374 N   0  0  0  0  0  0  0  0  0  0  0  0
   -3.5105    2.4592  -13.3329 C   0  0  0  0  0  0  0  0  0  0  0  0
   -3.7074    2.9528  -14.4407 O   0  0  0  0  0  0  0  0  0  0  0  0
   -5.9927    4.8532  -16.4096 C   0  0  0  0  0  0  0  0  0  0  0  0
   -6.8902    5.1372  -17.5763 C   0  0  0  0  0  0  0  0  0  0  0  0
   -6.5808    4.5819  -18.8966 C   0  0  0  0  0  0  0  0  0  0  0  0
   -5.8358    5.8511  -19.3085 N   0  0  0  0  0  0  0  0  0  0  0  0
   -4.4240    6.2806  -19.0563 C   0  0  0  0  0  0  0  0  0  0  0  0
   -3.5792    5.7764  -18.4142 O   0  0  0  0  0  0  0  0  0  0  0  0
   -4.2678    7.4667  -19.7147 O   0  0  0  0  0  0  0  0  0  0  0  0
   -3.0056    8.1775  -19.6885 C   0  0  0  0  0  0  0  0  0  0  0  0
   -2.6432    8.6197  -18.2664 C   0  0  0  0  0  0  0  0  0  0  0  0
   -1.8879    7.3538  -20.3380 C   0  0  0  0  0  0  0  0  0  0  0  0
   -3.2497    9.4308  -20.5433 C   0  0  0  0  0  0  0  0  0  0  0  0
   -6.8122    6.4403  -18.2410 C   0  0  0  0  0  0  0  0  0  0  0  0
   -8.1118    4.7400  -16.7879 C   0  0  0  0  0  0  0  0  0  0  0  0
  1  2  1  0
  2  3  1  0
  3  4  1  0
  4  5  1  0
  5  6  2  0
  5  7  1  0
  7  8  2  0
  8  9  1  0
  9 10  2  0
 10 11  1  0
 11 12  2  0
 12 13  1  0
 13 14  2  0
 14 15  1  0
 15 16  2  0
 10 17  1  0
 17 18  1  0
 18 19  2  0
  2 20  1  0
 20 21  1  0
 21 22  1  0
 22 23  1  0
 23 24  1  0
 24 25  2  0
 24 26  1  0
 26 27  1  0
 27 28  1  0
 27 29  1  0
 27 30  1  0
 23 31  1  0
 21 32  1  0
 32  2  1  0
 18  7  1  0
 31 21  1  0
 16 11  1  0
M  END
>  <fragmenstein_outcome>  (220) 
nan

>  <exports>  (220) 
['/opt/xchem-fragalysis-2/maxwin/openbind-hippo/xx01zvns2b/cycle_01/syndirella/elabs/openbind_xx01zvns2b_c1_elab_chemspace_filtered.sdf']

>  <Energy>  (220) 
nan

>  <alias>  (220) 
None

>  <fragmenstein_runtime>  (220) 
nan

>  <scratch_subdir>  (220) 
nan

>  <HIPPO Compound ID>  (220) 
140751

>  <rmsd(smina/fragmenstein)>  (220) 
0.719

>  <distance_score>  (220) 
1.950345

>  <orig_smiles>  (220) 
nan

>  <fragmenstein_mode>  (220) 
nan

>  <inchikey>  (220) 
KBIFEOUHTFYQRW-UHFFFAOYSA-N

>  <ref_pdb>  (220) 
Z0719a

>  <GNINA pK>  (220) 
nan

>  <gnina_score_min>  (220) 
5.589

>  <tags>  (220) 
openbind_xx01zvns2b_c1_elab_nonasap_filtered_scored_top80percent,openbind_xx01zvns2b_c1_elab_chemspace_filtered_scored_top80percent,openbind_xx01zvns2b_c1_elab_chemspace_filtered_scored,openbind_xx01zvns2b_c1_elab_chemspace_filtered_scored_top40percent,openbind_xx01zvns2b_c1_elab_chemspace_filtered_scored_top20percent,openbind_xx01zvns2b_c1_elab_chemspace_filtered_scored_top60percent,openbind_xx01zvns2b_c1_elabs_filtered

>  <smiles>  (220) 
CC1(CNC(=O)c2ccc(-c3ccccn3)[nH]c2=O)CC2(CN(C(=O)OC(C)(C)C)C2)C1

>  <subsites>  (220) 
1 - Z4590/B/203/1

>  <gnina_score>  (220) 
5.633

>  <HIPPO Pose ID>  (220) 
70071

>  <ref_mols>  (220) 
Z0490a,Z0719a

>  <energy_score>  (220) 
-20.864304

>  <inspiration_score>  (220) 
None

>  <smina_score_min>  (220) 
-6.654

>  <fragmenstein_error>  (220) 
nan

>  <name>  (220) 
P70071

$$$$
P70073
     RDKit          3D

 23 25  0  0  0  0  0  0  0  0999 V2000
   -3.1143    5.1907  -16.7853 C   0  0  0  0  0  0  0  0  0  0  0  0
   -3.3093    4.1120  -15.8602 O   0  0  0  0  0  0  0  0  0  0  0  0
   -4.3857    3.9752  -15.0452 C   0  0  0  0  0  0  0  0  0  0  0  0
   -4.3754    3.0704  -14.2058 O   0  0  0  0  0  0  0  0  0  0  0  0
   -5.5581    4.9544  -15.1515 C   0  0  2  0  0  0  0  0  0  0  0  0
   -6.3544    4.9022  -13.9376 N   0  0  0  0  0  0  0  0  0  0  0  0
   -7.4396    5.8519  -13.4162 C   0  0  0  0  0  0  0  0  0  0  0  0
   -7.9249    6.7866  -13.9108 O   0  0  0  0  0  0  0  0  0  0  0  0
   -7.8359    5.5460  -12.0094 C   0  0  0  0  0  0  0  0  0  0  0  0
   -8.2783    6.5970  -11.1889 C   0  0  0  0  0  0  0  0  0  0  0  0
   -8.4008    7.8467  -11.6642 F   0  0  0  0  0  0  0  0  0  0  0  0
   -8.5588    6.4151   -9.8363 C   0  0  0  0  0  0  0  0  0  0  0  0
   -8.4357    5.1645   -9.2345 C   0  0  0  0  0  0  0  0  0  0  0  0
   -8.0069    4.1250  -10.0519 C   0  0  0  0  0  0  0  0  0  0  0  0
   -7.7590    2.8041   -9.7756 N   0  0  0  0  0  0  0  0  0  0  0  0
   -7.1978    2.2604  -10.8873 C   0  0  0  0  0  0  0  0  0  0  0  0
   -7.1966    3.0996  -11.8953 N   0  0  0  0  0  0  0  0  0  0  0  0
   -7.6911    4.2834  -11.4018 C   0  0  0  0  0  0  0  0  0  0  0  0
   -6.3561    4.7417  -16.4001 C   0  0  0  0  0  0  0  0  0  0  0  0
   -5.9412    5.0237  -17.6253 N   0  0  0  0  0  0  0  0  0  0  0  0
   -6.9917    4.7670  -18.4545 C   0  0  0  0  0  0  0  0  0  0  0  0
   -8.0742    4.3454  -17.7294 C   0  0  0  0  0  0  0  0  0  0  0  0
   -7.6605    4.3046  -16.4276 N   0  0  0  0  0  0  0  0  0  0  0  0
  1  2  1  0
  2  3  1  0
  3  4  2  0
  3  5  1  0
  5  6  1  1
  6  7  1  0
  7  8  2  0
  7  9  1  0
  9 10  2  0
 10 11  1  0
 10 12  1  0
 12 13  2  0
 13 14  1  0
 14 15  1  0
 15 16  1  0
 16 17  2  0
 17 18  1  0
  5 19  1  0
 19 20  2  0
 20 21  1  0
 21 22  2  0
 22 23  1  0
 18  9  1  0
 23 19  1  0
 18 14  2  0
M  END
>  <fragmenstein_outcome>  (221) 
nan

>  <exports>  (221) 
['/opt/xchem-fragalysis-2/maxwin/openbind-hippo/xx01zvns2b/cycle_01/syndirella/elabs/openbind_xx01zvns2b_c1_elab_chemspace_filtered.sdf']

>  <Energy>  (221) 
nan

>  <alias>  (221) 
None

>  <fragmenstein_runtime>  (221) 
nan

>  <scratch_subdir>  (221) 
nan

>  <HIPPO Compound ID>  (221) 
140769

>  <rmsd(smina/fragmenstein)>  (221) 
1.465

>  <distance_score>  (221) 
1.900616

>  <orig_smiles>  (221) 
nan

>  <fragmenstein_mode>  (221) 
nan

>  <inchikey>  (221) 
VRJCTNYYNWTNPB-LLVKDONJSA-N

>  <ref_pdb>  (221) 
Z1495a

>  <GNINA pK>  (221) 
nan

>  <gnina_score_min>  (221) 
5.158

>  <tags>  (221) 
openbind_xx01zvns2b_c1_elab_nonasap_filtered_scored_top80percent,openbind_xx01zvns2b_c1_elab_chemspace_filtered_scored_top80percent,openbind_xx01zvns2b_c1_elab_chemspace_filtered_scored,openbind_xx01zvns2b_c1_elab_chemspace_filtered_scored_top40percent,openbind_xx01zvns2b_c1_elab_chemspace_filtered_scored_top20percent,openbind_xx01zvns2b_c1_elab_chemspace_filtered_scored_top60percent,openbind_xx01zvns2b_c1_elabs_filtered

>  <smiles>  (221) 
COC(=O)[C@H](NC(=O)c1c(F)ccc2[nH]cnc12)c1ncc[nH]1

>  <subsites>  (221) 
1 - Z4590/B/203/1

>  <gnina_score>  (221) 
5.172

>  <HIPPO Pose ID>  (221) 
70073

>  <ref_mols>  (221) 
Z1674a,Z1495a

>  <energy_score>  (221) 
-1.011406

>  <inspiration_score>  (221) 
None

>  <smina_score_min>  (221) 
-6.176

>  <fragmenstein_error>  (221) 
nan

>  <name>  (221) 
P70073

$$$$
P70076
     RDKit          3D

 25 28  0  0  0  0  0  0  0  0999 V2000
   -3.3308    5.6149  -17.8457 N   0  0  0  0  0  0  0  0  0  0  0  0
   -4.4408    5.2770  -17.8984 C   0  0  0  0  0  0  0  0  0  0  0  0
   -5.8041    4.8519  -17.9853 C   0  0  0  0  0  0  0  0  0  0  0  0
   -6.3830    4.5550  -19.1976 C   0  0  0  0  0  0  0  0  0  0  0  0
   -7.9907    4.0335  -19.0211 S   0  0  0  0  0  0  0  0  0  0  0  0
   -7.9597    4.2566  -17.3260 C   0  0  0  0  0  0  0  0  0  0  0  0
   -9.0378    4.0657  -16.4499 C   0  0  0  0  0  0  0  0  0  0  0  0
   -8.8317    4.2127  -15.0771 C   0  0  0  0  0  0  0  0  0  0  0  0
   -7.5840    4.5371  -14.5683 C   0  0  0  0  0  0  0  0  0  0  0  0
   -7.3802    4.7613  -13.0984 C   0  0  0  0  0  0  0  0  0  0  0  0
   -6.6855    5.6645  -12.8183 O   0  0  0  0  0  0  0  0  0  0  0  0
   -8.2192    3.8055  -12.1845 N   0  0  0  0  0  0  0  0  0  0  0  0
   -8.2927    3.7139  -10.7750 C   0  0  0  0  0  0  0  0  0  0  0  0
   -8.9362    2.6397  -10.1632 C   0  0  0  0  0  0  0  0  0  0  0  0
   -9.0128    2.6321   -8.7674 C   0  0  0  0  0  0  0  0  0  0  0  0
   -8.4996    3.6489   -7.9612 C   0  0  0  0  0  0  0  0  0  0  0  0
   -7.8619    4.7053   -8.5410 C   0  0  0  0  0  0  0  0  0  0  0  0
   -7.7761    4.7106   -9.9315 C   0  0  0  0  0  0  0  0  0  0  0  0
   -7.1921    5.7766  -10.4446 F   0  0  0  0  0  0  0  0  0  0  0  0
   -8.7559    3.3815   -6.5256 C   0  0  0  0  0  0  0  0  0  0  0  0
   -9.4913    2.1548   -6.5693 N   0  0  0  0  0  0  0  0  0  0  0  0
   -9.5987    1.6487   -7.8488 C   0  0  0  0  0  0  0  0  0  0  0  0
  -10.0971    0.5860   -8.1458 O   0  0  0  0  0  0  0  0  0  0  0  0
   -6.5301    4.8078  -15.4655 C   0  0  0  0  0  0  0  0  0  0  0  0
   -6.7021    4.6611  -16.8725 C   0  0  0  0  0  0  0  0  0  0  0  0
  1  2  3  0
  2  3  1  0
  3  4  2  0
  4  5  1  0
  5  6  1  0
  6  7  2  0
  7  8  1  0
  8  9  2  0
  9 10  1  0
 10 11  2  0
 10 12  1  0
 12 13  1  0
 13 14  2  0
 14 15  1  0
 15 16  2  0
 16 17  1  0
 17 18  2  0
 18 19  1  0
 16 20  1  0
 20 21  1  0
 21 22  1  0
 22 23  2  0
  9 24  1  0
 24 25  2  0
 25  3  1  0
 25  6  1  0
 18 13  1  0
 22 15  1  0
M  END
>  <fragmenstein_outcome>  (222) 
nan

>  <exports>  (222) 
['/opt/xchem-fragalysis-2/maxwin/openbind-hippo/xx01zvns2b/cycle_01/syndirella/elabs/openbind_xx01zvns2b_c1_elab_chemspace_filtered.sdf']

>  <Energy>  (222) 
nan

>  <alias>  (222) 
None

>  <fragmenstein_runtime>  (222) 
nan

>  <scratch_subdir>  (222) 
nan

>  <HIPPO Compound ID>  (222) 
140999

>  <rmsd(smina/fragmenstein)>  (222) 
0.66

>  <distance_score>  (222) 
1.210681

>  <orig_smiles>  (222) 
nan

>  <fragmenstein_mode>  (222) 
nan

>  <inchikey>  (222) 
WMTQSDGFSFIMNL-UHFFFAOYSA-N

>  <ref_pdb>  (222) 
Z3970a

>  <GNINA pK>  (222) 
nan

>  <gnina_score_min>  (222) 
5.246

>  <tags>  (222) 
openbind_xx01zvns2b_c1_elab_nonasap_filtered_scored_top80percent,openbind_xx01zvns2b_c1_elab_chemspace_filtered_scored_top80percent,openbind_xx01zvns2b_c1_elab_chemspace_filtered_scored,openbind_xx01zvns2b_c1_elab_chemspace_filtered_scored_top40percent,openbind_xx01zvns2b_c1_elab_chemspace_filtered_scored_top20percent,openbind_xx01zvns2b_c1_elab_chemspace_filtered_scored_top60percent,openbind_xx01zvns2b_c1_elabs_filtered

>  <smiles>  (222) 
N#Cc1csc2ccc(C(=O)Nc3cc4c(cc3F)CNC4=O)cc12

>  <subsites>  (222) 
1 - Z4590/B/203/1

>  <gnina_score>  (222) 
5.815

>  <HIPPO Pose ID>  (222) 
70076

>  <ref_mols>  (222) 
Z3970a,Z2057a

>  <energy_score>  (222) 
-16.88429

>  <inspiration_score>  (222) 
None

>  <smina_score_min>  (222) 
-7.664

>  <fragmenstein_error>  (222) 
nan

>  <name>  (222) 
P70076

$$$$
P70077
     RDKit          3D

 28 31  0  0  0  0  0  0  0  0999 V2000
   -3.3392    5.2172  -14.7594 C   0  0  0  0  0  0  0  0  0  0  0  0
   -4.4946    4.8045  -14.0331 O   0  0  0  0  0  0  0  0  0  0  0  0
   -4.1266    4.1746  -12.7979 C   0  0  0  0  0  0  0  0  0  0  0  0
   -5.3154    3.9556  -11.8319 C   0  0  0  0  0  0  0  0  0  0  0  0
   -4.8969    3.3228  -10.4638 C   0  0  0  0  0  0  0  0  0  0  0  0
   -5.8569    3.0192   -9.3543 N   0  0  0  0  0  0  0  0  0  0  0  0
   -6.4873    4.2180   -8.7333 C   0  0  0  0  0  0  0  0  0  0  0  0
   -7.6946    4.4629   -9.5803 C   0  0  0  0  0  0  0  0  0  0  0  0
   -8.1144    5.6881  -10.0482 C   0  0  0  0  0  0  0  0  0  0  0  0
   -8.5934    5.6924  -11.3495 C   0  0  0  0  0  0  0  0  0  0  0  0
   -8.7707    4.4819  -12.0496 C   0  0  0  0  0  0  0  0  0  0  0  0
   -8.6615    4.4611  -13.4269 N   0  0  0  0  0  0  0  0  0  0  0  0
   -8.1986    5.5475  -14.4069 C   0  0  0  0  0  0  0  0  0  0  0  0
   -7.9084    6.6592  -14.2194 O   0  0  0  0  0  0  0  0  0  0  0  0
   -8.0284    4.9936  -15.7690 C   0  0  0  0  0  0  0  0  0  0  0  0
   -9.0114    4.2258  -16.3746 C   0  0  0  0  0  0  0  0  0  0  0  0
   -8.8337    3.7723  -17.6769 C   0  0  0  0  0  0  0  0  0  0  0  0
   -7.6465    4.1052  -18.3544 C   0  0  0  0  0  0  0  0  0  0  0  0
   -7.2211    3.6350  -19.9425 S   0  0  0  0  0  0  0  0  0  0  0  0
   -5.7723    4.5073  -19.9158 C   0  0  0  0  0  0  0  0  0  0  0  0
   -5.5527    5.0852  -18.6901 C   0  0  0  0  0  0  0  0  0  0  0  0
   -4.3500    5.8089  -18.4293 C   0  0  0  0  0  0  0  0  0  0  0  0
   -3.3535    6.3796  -18.2555 N   0  0  0  0  0  0  0  0  0  0  0  0
   -6.6382    4.8757  -17.7705 C   0  0  0  0  0  0  0  0  0  0  0  0
   -6.8422    5.3142  -16.4448 C   0  0  0  0  0  0  0  0  0  0  0  0
   -8.6777    3.2448  -11.4277 C   0  0  0  0  0  0  0  0  0  0  0  0
   -8.0061    3.2607  -10.2335 C   0  0  0  0  0  0  0  0  0  0  0  0
   -7.0293    2.2087   -9.8003 C   0  0  0  0  0  0  0  0  0  0  0  0
  1  2  1  0
  2  3  1  0
  3  4  1  0
  4  5  1  0
  5  6  1  0
  6  7  1  0
  7  8  1  0
  8  9  2  0
  9 10  1  0
 10 11  2  0
 11 12  1  0
 12 13  1  0
 13 14  2  0
 13 15  1  0
 15 16  2  0
 16 17  1  0
 17 18  2  0
 18 19  1  0
 19 20  1  0
 20 21  2  0
 21 22  1  0
 22 23  3  0
 21 24  1  0
 24 25  2  0
 11 26  1  0
 26 27  2  0
 27 28  1  0
 28  6  1  0
 27  8  1  0
 25 15  1  0
 24 18  1  0
M  END
>  <fragmenstein_outcome>  (223) 
nan

>  <exports>  (223) 
['/opt/xchem-fragalysis-2/maxwin/openbind-hippo/xx01zvns2b/cycle_01/syndirella/elabs/openbind_xx01zvns2b_c1_elab_chemspace_filtered.sdf']

>  <Energy>  (223) 
nan

>  <alias>  (223) 
None

>  <fragmenstein_runtime>  (223) 
nan

>  <scratch_subdir>  (223) 
nan

>  <HIPPO Compound ID>  (223) 
141004

>  <rmsd(smina/fragmenstein)>  (223) 
0.947

>  <distance_score>  (223) 
1.635744

>  <orig_smiles>  (223) 
nan

>  <fragmenstein_mode>  (223) 
nan

>  <inchikey>  (223) 
KEHIGCNDRBVFOW-UHFFFAOYSA-N

>  <ref_pdb>  (223) 
Z3970a

>  <GNINA pK>  (223) 
nan

>  <gnina_score_min>  (223) 
5.686

>  <tags>  (223) 
openbind_xx01zvns2b_c1_elab_nonasap_filtered_scored_top80percent,openbind_xx01zvns2b_c1_elab_chemspace_filtered_scored_top80percent,openbind_xx01zvns2b_c1_elab_chemspace_filtered_scored,openbind_xx01zvns2b_c1_elab_chemspace_filtered_scored_top40percent,openbind_xx01zvns2b_c1_elab_chemspace_filtered_scored_top20percent,openbind_xx01zvns2b_c1_elab_chemspace_filtered_scored_top60percent,openbind_xx01zvns2b_c1_elabs_filtered

>  <smiles>  (223) 
COCCCN1Cc2ccc(NC(=O)c3ccc4scc(C#N)c4c3)cc2C1

>  <subsites>  (223) 
1 - Z4590/B/203/1

>  <gnina_score>  (223) 
5.914

>  <HIPPO Pose ID>  (223) 
70077

>  <ref_mols>  (223) 
Z3970a,Z2057a

>  <energy_score>  (223) 
-14.473772

>  <inspiration_score>  (223) 
None

>  <smina_score_min>  (223) 
-5.961

>  <fragmenstein_error>  (223) 
nan

>  <name>  (223) 
P70077

$$$$
P70082
     RDKit          3D

 27 30  0  0  0  0  0  0  0  0999 V2000
   -6.9824    1.6407  -13.4516 O   0  0  0  0  0  0  0  0  0  0  0  0
   -6.2419    2.5155  -13.0218 C   0  0  0  0  0  0  0  0  0  0  0  0
   -6.6989    3.8897  -12.6005 C   0  0  0  0  0  0  0  0  0  0  0  0
   -5.9276    4.4950  -11.4294 C   0  0  0  0  0  0  0  0  0  0  0  0
   -4.4083    4.3135  -11.5443 C   0  0  2  0  0  0  0  0  0  0  0  0
   -3.6894    5.1964  -12.4545 N   0  0  0  0  0  0  0  0  0  0  0  0
   -4.1788    6.0972  -13.3587 C   0  0  0  0  0  0  0  0  0  0  0  0
   -3.1826    6.2296  -14.2948 C   0  0  0  0  0  0  0  0  0  0  0  0
   -3.3425    6.6897  -15.5648 N   0  0  0  0  0  0  0  0  0  0  0  0
   -4.4566    7.5918  -16.1828 C   0  0  0  0  0  0  0  0  0  0  0  0
   -5.3598    8.1368  -15.6747 O   0  0  0  0  0  0  0  0  0  0  0  0
   -4.2293    7.5729  -17.7100 C   0  0  0  0  0  0  0  0  0  0  0  0
   -5.0787    6.4694  -18.1329 N   0  0  0  0  0  0  0  0  0  0  0  0
   -4.8008    5.1775  -17.7971 C   0  0  0  0  0  0  0  0  0  0  0  0
   -3.7040    4.7448  -17.4761 O   0  0  0  0  0  0  0  0  0  0  0  0
   -6.1044    4.4497  -17.7076 C   0  0  1  0  0  0  0  0  0  0  0  0
   -6.5517    4.4184  -16.2418 C   0  0  0  0  0  0  0  0  0  0  0  0
   -8.0298    4.1215  -16.0711 C   0  0  0  0  0  0  0  0  0  0  0  0
   -8.8227    5.1171  -16.8523 C   0  0  0  0  0  0  0  0  0  0  0  0
   -8.4772    5.0735  -18.3372 C   0  0  0  0  0  0  0  0  0  0  0  0
   -6.9971    5.2452  -18.6419 C   0  0  1  0  0  0  0  0  0  0  0  0
   -6.3716    6.6225  -18.5542 C   0  0  0  0  0  0  0  0  0  0  0  0
   -6.8587    7.7036  -18.8387 O   0  0  0  0  0  0  0  0  0  0  0  0
   -2.0621    5.5960  -13.7338 C   0  0  0  0  0  0  0  0  0  0  0  0
   -2.3439    5.0484  -12.5499 N   0  0  0  0  0  0  0  0  0  0  0  0
   -4.1332    2.8430  -11.8881 C   0  0  0  0  0  0  0  0  0  0  0  0
   -4.8962    2.3036  -12.9874 N   0  0  0  0  0  0  0  0  0  0  0  0
  1  2  2  0
  2  3  1  0
  3  4  1  0
  4  5  1  0
  5  6  1  6
  6  7  1  0
  7  8  2  0
  8  9  1  0
  9 10  1  0
 10 11  2  0
 10 12  1  0
 12 13  1  0
 13 14  1  0
 14 15  2  0
 14 16  1  0
 16 17  1  1
 17 18  1  0
 18 19  1  0
 19 20  1  0
 21 20  1  1
 21 22  1  0
 22 23  2  0
  8 24  1  0
 24 25  2  0
  5 26  1  0
 26 27  1  0
 27  2  1  0
 25  6  1  0
 22 13  1  0
 21 16  1  0
M  END
>  <fragmenstein_outcome>  (224) 
nan

>  <exports>  (224) 
['/opt/xchem-fragalysis-2/maxwin/openbind-hippo/xx01zvns2b/cycle_01/syndirella/elabs/openbind_xx01zvns2b_c1_elab_chemspace_filtered.sdf']

>  <Energy>  (224) 
nan

>  <alias>  (224) 
None

>  <fragmenstein_runtime>  (224) 
nan

>  <scratch_subdir>  (224) 
nan

>  <HIPPO Compound ID>  (224) 
141254

>  <rmsd(smina/fragmenstein)>  (224) 
0.696

>  <distance_score>  (224) 
1.934234

>  <orig_smiles>  (224) 
nan

>  <fragmenstein_mode>  (224) 
nan

>  <inchikey>  (224) 
MJVBFXXMBVLHEJ-MELADBBJSA-N

>  <ref_pdb>  (224) 
Z0719a

>  <GNINA pK>  (224) 
nan

>  <gnina_score_min>  (224) 
5.225

>  <tags>  (224) 
openbind_xx01zvns2b_c1_elab_nonasap_filtered_scored_top80percent,openbind_xx01zvns2b_c1_elab_chemspace_filtered_scored_top80percent,openbind_xx01zvns2b_c1_elab_chemspace_filtered_scored,openbind_xx01zvns2b_c1_elab_chemspace_filtered_scored_top40percent,openbind_xx01zvns2b_c1_elab_chemspace_filtered_scored_top20percent,openbind_xx01zvns2b_c1_elab_chemspace_filtered_scored_top60percent,openbind_xx01zvns2b_c1_elabs_filtered

>  <smiles>  (224) 
O=C1CC[C@H](n2cc(NC(=O)CN3C(=O)[C@H]4CCCC[C@H]4C3=O)cn2)CN1

>  <subsites>  (224) 
1 - Z4590/B/203/1

>  <gnina_score>  (224) 
5.435

>  <HIPPO Pose ID>  (224) 
70082

>  <ref_mols>  (224) 
Z0701a,Z0719a

>  <energy_score>  (224) 
-39.425466

>  <inspiration_score>  (224) 
None

>  <smina_score_min>  (224) 
-5.788

>  <fragmenstein_error>  (224) 
nan

>  <name>  (224) 
P70082

$$$$
P70083
     RDKit          3D

 28 30  0  0  0  0  0  0  0  0999 V2000
  -10.9890    2.5370   -5.2568 C   0  0  0  0  0  0  0  0  0  0  0  0
   -9.7893    3.2455   -5.8663 C   0  0  0  0  0  0  0  0  0  0  0  0
   -9.3527    2.5804   -7.1723 C   0  0  0  0  0  0  0  0  0  0  0  0
   -8.2360    3.3771   -7.8547 C   0  0  0  0  0  0  0  0  0  0  0  0
   -7.7955    2.7981   -9.2007 C   0  0  2  0  0  0  0  0  0  0  0  0
   -8.9021    2.8155  -10.2565 C   0  0  0  0  0  0  0  0  0  0  0  0
   -7.1658    1.5060   -9.1251 N   0  0  0  0  0  0  0  0  0  0  0  0
   -6.0238    1.4425   -9.8985 C   0  0  0  0  0  0  0  0  0  0  0  0
   -5.4102    0.4146  -10.1350 O   0  0  0  0  0  0  0  0  0  0  0  0
   -5.7217    2.7017  -10.3151 N   0  0  0  0  0  0  0  0  0  0  0  0
   -4.6787    3.0352  -11.2658 C   0  0  0  0  0  0  0  0  0  0  0  0
   -5.2270    3.0053  -12.7167 C   0  0  0  0  0  0  0  0  0  0  0  0
   -4.7670    2.3215  -13.5491 O   0  0  0  0  0  0  0  0  0  0  0  0
   -6.4429    3.9861  -12.7698 N   0  0  0  0  0  0  0  0  0  0  0  0
   -7.2261    4.3679  -13.8175 C   0  0  0  0  0  0  0  0  0  0  0  0
   -8.3625    5.1910  -13.7591 C   0  0  0  0  0  0  0  0  0  0  0  0
   -8.8663    5.4556  -14.9655 N   0  0  0  0  0  0  0  0  0  0  0  0
   -8.0344    4.7854  -15.8145 N   0  0  0  0  0  0  0  0  0  0  0  0
   -7.9794    5.2487  -17.1978 C   0  0  1  0  0  0  0  0  0  0  0  0
   -7.0706    6.4733  -17.2786 C   0  0  0  0  0  0  0  0  0  0  0  0
   -5.6000    6.1528  -17.1114 C   0  0  0  0  0  0  0  0  0  0  0  0
   -5.1516    5.0317  -17.9896 C   0  0  0  0  0  0  0  0  0  0  0  0
   -3.9582    4.8274  -18.1910 O   0  0  0  0  0  0  0  0  0  0  0  0
   -6.1157    4.2338  -18.5143 N   0  0  0  0  0  0  0  0  0  0  0  0
   -7.5517    4.2964  -18.2828 C   0  0  0  0  0  0  0  0  0  0  0  0
   -7.0764    4.0740  -15.1456 C   0  0  0  0  0  0  0  0  0  0  0  0
   -6.6282    3.5813   -9.8016 C   0  0  0  0  0  0  0  0  0  0  0  0
   -6.6028    4.7930   -9.9968 O   0  0  0  0  0  0  0  0  0  0  0  0
  1  2  1  0
  2  3  1  0
  3  4  1  0
  5  4  1  0
  5  6  1  6
  5  7  1  0
  7  8  1  0
  8  9  2  0
  8 10  1  0
 10 11  1  0
 11 12  1  0
 12 13  2  0
 12 14  1  0
 14 15  1  0
 15 16  1  0
 16 17  2  0
 17 18  1  0
 19 18  1  1
 19 20  1  0
 20 21  1  0
 21 22  1  0
 22 23  2  0
 22 24  1  0
 24 25  1  0
 18 26  1  0
 10 27  1  0
 27 28  2  0
 27  5  1  0
 26 15  2  0
 25 19  1  0
M  END
>  <fragmenstein_outcome>  (225) 
nan

>  <exports>  (225) 
['/opt/xchem-fragalysis-2/maxwin/openbind-hippo/xx01zvns2b/cycle_01/syndirella/elabs/openbind_xx01zvns2b_c1_elab_chemspace_filtered.sdf']

>  <Energy>  (225) 
nan

>  <alias>  (225) 
None

>  <fragmenstein_runtime>  (225) 
nan

>  <scratch_subdir>  (225) 
nan

>  <HIPPO Compound ID>  (225) 
141268

>  <rmsd(smina/fragmenstein)>  (225) 
0.477

>  <distance_score>  (225) 
1.721

>  <orig_smiles>  (225) 
nan

>  <fragmenstein_mode>  (225) 
nan

>  <inchikey>  (225) 
QALOJQRCMCKQLE-UGSOOPFHSA-N

>  <ref_pdb>  (225) 
Z0719a

>  <GNINA pK>  (225) 
nan

>  <gnina_score_min>  (225) 
5.51

>  <tags>  (225) 
openbind_xx01zvns2b_c1_elab_nonasap_filtered_scored_top80percent,openbind_xx01zvns2b_c1_elab_chemspace_filtered_scored_top80percent,openbind_xx01zvns2b_c1_elab_chemspace_filtered_scored,openbind_xx01zvns2b_c1_elab_chemspace_filtered_scored_top40percent,openbind_xx01zvns2b_c1_elab_chemspace_filtered_scored_top20percent,openbind_xx01zvns2b_c1_elab_chemspace_filtered_scored_top60percent,openbind_xx01zvns2b_c1_elabs_filtered

>  <smiles>  (225) 
CCCC[C@]1(C)NC(=O)N(CC(=O)Nc2cnn([C@H]3CCC(=O)NC3)c2)C1=O

>  <subsites>  (225) 
1 - Z4590/B/203/1

>  <gnina_score>  (225) 
5.856

>  <HIPPO Pose ID>  (225) 
70083

>  <ref_mols>  (225) 
Z0701a,Z0719a

>  <energy_score>  (225) 
-60.503218

>  <inspiration_score>  (225) 
None

>  <smina_score_min>  (225) 
-6.721

>  <fragmenstein_error>  (225) 
nan

>  <name>  (225) 
P70083

$$$$
P70085
     RDKit          3D

 28 31  0  0  0  0  0  0  0  0999 V2000
   -8.7044    5.3283  -12.8554 O   0  0  0  0  0  0  0  0  0  0  0  0
   -7.7286    4.6283  -12.5913 C   0  0  0  0  0  0  0  0  0  0  0  0
   -6.6557    5.1046  -11.6406 C   0  0  0  0  0  0  0  0  0  0  0  0
   -5.7661    3.9966  -11.0872 C   0  0  0  0  0  0  0  0  0  0  0  0
   -5.3570    2.9349  -12.1104 C   0  0  2  0  0  0  0  0  0  0  0  0
   -4.2620    3.2699  -13.0074 N   0  0  0  0  0  0  0  0  0  0  0  0
   -4.0689    4.4320  -13.7000 C   0  0  0  0  0  0  0  0  0  0  0  0
   -3.4818    4.0509  -14.8844 C   0  0  0  0  0  0  0  0  0  0  0  0
   -3.5046    4.8631  -15.9749 N   0  0  0  0  0  0  0  0  0  0  0  0
   -3.0662    4.5940  -17.4461 C   0  0  0  0  0  0  0  0  0  0  0  0
   -2.5487    3.6614  -17.9229 O   0  0  0  0  0  0  0  0  0  0  0  0
   -3.5419    5.7917  -18.2924 C   0  0  0  0  0  0  0  0  0  0  0  0
   -4.9986    5.7660  -18.2103 N   0  0  0  0  0  0  0  0  0  0  0  0
   -5.6579    6.2545  -17.1254 C   0  0  0  0  0  0  0  0  0  0  0  0
   -5.1387    6.8657  -16.2029 O   0  0  0  0  0  0  0  0  0  0  0  0
   -7.0832    5.8619  -17.2227 C   0  0  2  0  0  0  0  0  0  0  0  0
   -7.7734    5.4816  -15.9367 C   0  0  0  0  0  0  0  0  0  0  0  0
   -9.1527    4.8730  -16.2127 C   0  0  0  0  0  0  0  0  0  0  0  0
   -9.3146    4.0204  -17.4834 C   0  0  0  0  0  0  0  0  0  0  0  0
   -8.3830    4.3812  -18.6437 C   0  0  0  0  0  0  0  0  0  0  0  0
   -7.0114    4.6237  -18.0742 C   0  0  1  0  0  0  0  0  0  0  0  0
   -5.7551    4.8219  -18.8639 C   0  0  0  0  0  0  0  0  0  0  0  0
   -5.3473    4.0908  -19.7415 O   0  0  0  0  0  0  0  0  0  0  0  0
   -3.1556    2.7039  -14.7014 C   0  0  0  0  0  0  0  0  0  0  0  0
   -3.4896    2.2712  -13.4826 N   0  0  0  0  0  0  0  0  0  0  0  0
   -6.5561    2.4943  -12.9283 C   0  0  0  0  0  0  0  0  0  0  0  0
   -6.6745    1.3629  -13.3887 O   0  0  0  0  0  0  0  0  0  0  0  0
   -7.5429    3.4095  -13.1778 N   0  0  0  0  0  0  0  0  0  0  0  0
  1  2  2  0
  2  3  1  0
  3  4  1  0
  4  5  1  0
  5  6  1  6
  6  7  1  0
  7  8  2  0
  8  9  1  0
  9 10  1  0
 10 11  2  0
 10 12  1  0
 12 13  1  0
 13 14  1  0
 14 15  2  0
 14 16  1  0
 16 17  1  1
 17 18  1  0
 18 19  1  0
 19 20  1  0
 21 20  1  6
 21 22  1  0
 22 23  2  0
  8 24  1  0
 24 25  2  0
  5 26  1  0
 26 27  2  0
 26 28  1  0
 28  2  1  0
 25  6  1  0
 22 13  1  0
 21 16  1  0
M  END
>  <fragmenstein_outcome>  (226) 
nan

>  <exports>  (226) 
['/opt/xchem-fragalysis-2/maxwin/openbind-hippo/xx01zvns2b/cycle_01/syndirella/elabs/openbind_xx01zvns2b_c1_elab_chemspace_filtered.sdf']

>  <Energy>  (226) 
nan

>  <alias>  (226) 
None

>  <fragmenstein_runtime>  (226) 
nan

>  <scratch_subdir>  (226) 
nan

>  <HIPPO Compound ID>  (226) 
141289

>  <rmsd(smina/fragmenstein)>  (226) 
0.907

>  <distance_score>  (226) 
1.416532

>  <orig_smiles>  (226) 
nan

>  <fragmenstein_mode>  (226) 
nan

>  <inchikey>  (226) 
WGEJGSNJOCJFIP-UPJWGTAASA-N

>  <ref_pdb>  (226) 
Z0719a

>  <GNINA pK>  (226) 
nan

>  <gnina_score_min>  (226) 
5.497

>  <tags>  (226) 
openbind_xx01zvns2b_c1_elab_nonasap_filtered_scored_top80percent,openbind_xx01zvns2b_c1_elab_chemspace_filtered_scored_top80percent,openbind_xx01zvns2b_c1_elab_chemspace_filtered_scored,openbind_xx01zvns2b_c1_elab_chemspace_filtered_scored_top40percent,openbind_xx01zvns2b_c1_elab_chemspace_filtered_scored_top20percent,openbind_xx01zvns2b_c1_elab_chemspace_filtered_scored_top60percent,openbind_xx01zvns2b_c1_elabs_filtered

>  <smiles>  (226) 
O=C1CC[C@H](n2cc(NC(=O)CN3C(=O)[C@@H]4CCCC[C@H]4C3=O)cn2)C(=O)N1

>  <subsites>  (226) 
1 - Z4590/B/203/1

>  <gnina_score>  (226) 
5.567

>  <HIPPO Pose ID>  (226) 
70085

>  <ref_mols>  (226) 
Z0701a,Z0719a

>  <energy_score>  (226) 
-55.859925

>  <inspiration_score>  (226) 
None

>  <smina_score_min>  (226) 
-6.519

>  <fragmenstein_error>  (226) 
nan

>  <name>  (226) 
P70085

$$$$
P70090
     RDKit          3D

 29 31  0  0  0  0  0  0  0  0999 V2000
   -8.5741    4.5682   -7.0805 C   0  0  0  0  0  0  0  0  0  0  0  0
   -8.4834    4.6881   -8.5951 C   0  0  0  0  0  0  0  0  0  0  0  0
   -7.1613    4.1839   -9.1702 C   0  0  0  0  0  0  0  0  0  0  0  0
   -5.9581    5.0489   -8.7684 C   0  0  0  0  0  0  0  0  0  0  0  0
   -4.5927    4.5166   -9.2359 C   0  0  1  0  0  0  0  0  0  0  0  0
   -3.4535    5.4134   -8.7640 C   0  0  0  0  0  0  0  0  0  0  0  0
   -4.3767    3.1545   -8.8266 N   0  0  0  0  0  0  0  0  0  0  0  0
   -4.4814    2.2756   -9.8826 C   0  0  0  0  0  0  0  0  0  0  0  0
   -4.4626    1.0650   -9.7403 O   0  0  0  0  0  0  0  0  0  0  0  0
   -4.5793    2.9923  -11.0373 N   0  0  0  0  0  0  0  0  0  0  0  0
   -4.5554    2.3639  -12.3482 C   0  0  2  0  0  0  0  0  0  0  0  0
   -3.2845    2.6983  -13.1317 C   0  0  0  0  0  0  0  0  0  0  0  0
   -5.8149    2.5868  -13.2312 C   0  0  0  0  0  0  0  0  0  0  0  0
   -6.4314    1.6791  -13.6446 O   0  0  0  0  0  0  0  0  0  0  0  0
   -5.9696    4.1187  -13.4944 N   0  0  0  0  0  0  0  0  0  0  0  0
   -6.8014    4.7928  -14.3414 C   0  0  0  0  0  0  0  0  0  0  0  0
   -7.0830    6.1674  -14.3678 C   0  0  0  0  0  0  0  0  0  0  0  0
   -7.7483    6.5235  -15.4712 N   0  0  0  0  0  0  0  0  0  0  0  0
   -7.7511    5.3877  -16.2210 N   0  0  0  0  0  0  0  0  0  0  0  0
   -7.7851    5.5102  -17.6857 C   0  0  1  0  0  0  0  0  0  0  0  0
   -6.9077    6.6731  -18.1856 C   0  0  0  0  0  0  0  0  0  0  0  0
   -5.4584    6.5326  -17.7562 C   0  0  0  0  0  0  0  0  0  0  0  0
   -4.9277    5.1595  -17.9930 C   0  0  0  0  0  0  0  0  0  0  0  0
   -3.7471    4.8817  -17.8051 O   0  0  0  0  0  0  0  0  0  0  0  0
   -5.8144    4.2299  -18.4197 N   0  0  0  0  0  0  0  0  0  0  0  0
   -7.2644    4.3249  -18.4567 C   0  0  0  0  0  0  0  0  0  0  0  0
   -7.4174    4.2986  -15.4620 C   0  0  0  0  0  0  0  0  0  0  0  0
   -4.5299    4.3253  -10.7523 C   0  0  0  0  0  0  0  0  0  0  0  0
   -4.4986    5.2317  -11.5768 O   0  0  0  0  0  0  0  0  0  0  0  0
  1  2  1  0
  2  3  1  0
  3  4  1  0
  5  4  1  0
  5  6  1  1
  5  7  1  0
  7  8  1  0
  8  9  2  0
  8 10  1  0
 10 11  1  0
 11 12  1  6
 11 13  1  0
 13 14  2  0
 13 15  1  0
 15 16  1  0
 16 17  1  0
 17 18  2  0
 18 19  1  0
 20 19  1  1
 20 21  1  0
 21 22  1  0
 22 23  1  0
 23 24  2  0
 23 25  1  0
 25 26  1  0
 19 27  1  0
 10 28  1  0
 28 29  2  0
 28  5  1  0
 27 16  2  0
 26 20  1  0
M  END
>  <fragmenstein_outcome>  (227) 
nan

>  <exports>  (227) 
['/opt/xchem-fragalysis-2/maxwin/openbind-hippo/xx01zvns2b/cycle_01/syndirella/elabs/openbind_xx01zvns2b_c1_elab_chemspace_filtered.sdf']

>  <Energy>  (227) 
nan

>  <alias>  (227) 
None

>  <fragmenstein_runtime>  (227) 
nan

>  <scratch_subdir>  (227) 
nan

>  <HIPPO Compound ID>  (227) 
141337

>  <rmsd(smina/fragmenstein)>  (227) 
0.989

>  <distance_score>  (227) 
1.571332

>  <orig_smiles>  (227) 
nan

>  <fragmenstein_mode>  (227) 
nan

>  <inchikey>  (227) 
UCXARZVECHMAJB-SPKLELGKSA-N

>  <ref_pdb>  (227) 
Z0719a

>  <GNINA pK>  (227) 
nan

>  <gnina_score_min>  (227) 
5.276

>  <tags>  (227) 
openbind_xx01zvns2b_c1_elab_nonasap_filtered_scored_top80percent,openbind_xx01zvns2b_c1_elab_chemspace_filtered_scored_top80percent,openbind_xx01zvns2b_c1_elab_chemspace_filtered_scored,openbind_xx01zvns2b_c1_elab_chemspace_filtered_scored_top40percent,openbind_xx01zvns2b_c1_elab_chemspace_filtered_scored_top20percent,openbind_xx01zvns2b_c1_elab_chemspace_filtered_scored_top60percent,openbind_xx01zvns2b_c1_elabs_filtered

>  <smiles>  (227) 
CCCC[C@@]1(C)NC(=O)N([C@H](C)C(=O)Nc2cnn([C@H]3CCC(=O)NC3)c2)C1=O

>  <subsites>  (227) 
1 - Z4590/B/203/1

>  <gnina_score>  (227) 
5.843

>  <HIPPO Pose ID>  (227) 
70090

>  <ref_mols>  (227) 
Z0701a,Z0719a

>  <energy_score>  (227) 
-76.091329

>  <inspiration_score>  (227) 
None

>  <smina_score_min>  (227) 
-5.883

>  <fragmenstein_error>  (227) 
nan

>  <name>  (227) 
P70090

$$$$
P70092
     RDKit          3D

 29 32  0  0  0  0  0  0  0  0999 V2000
   -8.9694    4.9398  -13.1129 O   0  0  0  0  0  0  0  0  0  0  0  0
   -8.1064    4.2128  -12.6222 C   0  0  0  0  0  0  0  0  0  0  0  0
   -7.7633    4.2695  -11.1423 C   0  0  0  0  0  0  0  0  0  0  0  0
   -6.5968    3.3715  -10.7063 C   0  0  0  0  0  0  0  0  0  0  0  0
   -5.5528    3.1649  -11.8148 C   0  0  2  0  0  0  0  0  0  0  0  0
   -4.8475    4.3821  -12.2207 N   0  0  0  0  0  0  0  0  0  0  0  0
   -4.0312    4.5293  -13.3139 C   0  0  0  0  0  0  0  0  0  0  0  0
   -4.1464    5.8558  -13.6616 C   0  0  0  0  0  0  0  0  0  0  0  0
   -3.8658    6.3613  -14.8925 N   0  0  0  0  0  0  0  0  0  0  0  0
   -2.8482    5.8846  -15.9750 C   0  0  0  0  0  0  0  0  0  0  0  0
   -2.0454    5.0336  -15.9384 O   0  0  0  0  0  0  0  0  0  0  0  0
   -3.1551    6.7060  -17.2436 C   0  0  0  0  0  0  0  0  0  0  0  0
   -4.5743    6.4863  -17.5051 N   0  0  0  0  0  0  0  0  0  0  0  0
   -5.5294    7.4180  -17.7211 C   0  0  0  0  0  0  0  0  0  0  0  0
   -5.3766    8.6236  -17.8229 O   0  0  0  0  0  0  0  0  0  0  0  0
   -6.7433    6.7817  -17.8169 N   0  0  0  0  0  0  0  0  0  0  0  0
   -6.6392    5.3430  -17.6800 C   0  0  0  0  0  0  0  0  0  0  0  0
   -7.2212    4.6102  -18.8663 C   0  0  0  0  0  0  0  0  0  0  0  0
   -8.7456    4.6137  -18.8412 C   0  0  0  0  0  0  0  0  0  0  0  0
   -9.3208    4.0577  -17.5593 C   0  0  0  0  0  0  0  0  0  0  0  0
   -8.7374    4.7200  -16.3262 C   0  0  0  0  0  0  0  0  0  0  0  0
   -7.2148    4.8424  -16.3467 C   0  0  0  0  0  0  0  0  0  0  0  0
   -5.1123    5.2369  -17.6370 C   0  0  0  0  0  0  0  0  0  0  0  0
   -4.4538    4.2111  -17.6125 O   0  0  0  0  0  0  0  0  0  0  0  0
   -4.8178    6.4621  -12.5908 C   0  0  0  0  0  0  0  0  0  0  0  0
   -5.1562    5.5730  -11.6556 N   0  0  0  0  0  0  0  0  0  0  0  0
   -6.3355    2.5777  -12.9749 C   0  0  0  0  0  0  0  0  0  0  0  0
   -6.0903    1.4912  -13.4906 O   0  0  0  0  0  0  0  0  0  0  0  0
   -7.4209    3.3035  -13.3831 N   0  0  0  0  0  0  0  0  0  0  0  0
  1  2  2  0
  2  3  1  0
  3  4  1  0
  4  5  1  0
  5  6  1  6
  6  7  1  0
  7  8  2  0
  8  9  1  0
  9 10  1  0
 10 11  2  0
 10 12  1  0
 12 13  1  0
 13 14  1  0
 14 15  2  0
 14 16  1  0
 16 17  1  0
 17 18  1  0
 18 19  1  0
 19 20  1  0
 20 21  1  0
 21 22  1  0
 17 23  1  0
 23 24  2  0
  8 25  1  0
 25 26  2  0
  5 27  1  0
 27 28  2  0
 27 29  1  0
 29  2  1  0
 26  6  1  0
 23 13  1  0
 22 17  1  0
M  END
>  <fragmenstein_outcome>  (228) 
nan

>  <exports>  (228) 
['/opt/xchem-fragalysis-2/maxwin/openbind-hippo/xx01zvns2b/cycle_01/syndirella/elabs/openbind_xx01zvns2b_c1_elab_chemspace_filtered.sdf']

>  <Energy>  (228) 
nan

>  <alias>  (228) 
None

>  <fragmenstein_runtime>  (228) 
nan

>  <scratch_subdir>  (228) 
nan

>  <HIPPO Compound ID>  (228) 
141352

>  <rmsd(smina/fragmenstein)>  (228) 
1.101

>  <distance_score>  (228) 
1.692026

>  <orig_smiles>  (228) 
nan

>  <fragmenstein_mode>  (228) 
nan

>  <inchikey>  (228) 
CXPUWCUCJYWSEW-LBPRGKRZSA-N

>  <ref_pdb>  (228) 
Z0719a

>  <GNINA pK>  (228) 
nan

>  <gnina_score_min>  (228) 
5.512

>  <tags>  (228) 
openbind_xx01zvns2b_c1_elab_nonasap_filtered_scored_top80percent,openbind_xx01zvns2b_c1_elab_chemspace_filtered_scored_top80percent,openbind_xx01zvns2b_c1_elab_chemspace_filtered_scored,openbind_xx01zvns2b_c1_elab_chemspace_filtered_scored_top40percent,openbind_xx01zvns2b_c1_elab_chemspace_filtered_scored_top20percent,openbind_xx01zvns2b_c1_elab_chemspace_filtered_scored_top60percent,openbind_xx01zvns2b_c1_elabs_filtered

>  <smiles>  (228) 
O=C1CC[C@H](n2cc(NC(=O)CN3C(=O)NC4(CCCCC4)C3=O)cn2)C(=O)N1

>  <subsites>  (228) 
1 - Z4590/B/203/1

>  <gnina_score>  (228) 
5.361

>  <HIPPO Pose ID>  (228) 
70092

>  <ref_mols>  (228) 
Z0701a,Z0719a

>  <energy_score>  (228) 
-42.337405

>  <inspiration_score>  (228) 
None

>  <smina_score_min>  (228) 
-6.501

>  <fragmenstein_error>  (228) 
nan

>  <name>  (228) 
P70092

$$$$
P70094
     RDKit          3D

 29 32  0  0  0  0  0  0  0  0999 V2000
   -6.2831    4.0336  -19.7101 C   0  0  0  0  0  0  0  0  0  0  0  0
   -5.5626    4.6233  -18.6258 N   0  0  0  0  0  0  0  0  0  0  0  0
   -4.3249    5.1962  -18.9298 C   0  0  0  0  0  0  0  0  0  0  0  0
   -3.5554    4.8721  -19.8242 O   0  0  0  0  0  0  0  0  0  0  0  0
   -4.1059    6.2109  -18.0588 N   0  0  0  0  0  0  0  0  0  0  0  0
   -2.8684    6.9742  -17.9363 C   0  0  0  0  0  0  0  0  0  0  0  0
   -1.9053    6.2251  -16.9968 C   0  0  0  0  0  0  0  0  0  0  0  0
   -0.8788    5.7941  -17.3564 O   0  0  0  0  0  0  0  0  0  0  0  0
   -2.6244    6.1034  -15.6196 N   0  0  0  0  0  0  0  0  0  0  0  0
   -2.2913    5.3933  -14.5112 C   0  0  0  0  0  0  0  0  0  0  0  0
   -1.1219    4.6947  -14.1789 C   0  0  0  0  0  0  0  0  0  0  0  0
   -1.3262    3.8561  -13.1552 N   0  0  0  0  0  0  0  0  0  0  0  0
   -2.6577    3.9649  -12.9223 N   0  0  0  0  0  0  0  0  0  0  0  0
   -3.3867    2.7680  -12.5046 C   0  0  1  0  0  0  0  0  0  0  0  0
   -4.1857    2.8998  -11.2093 C   0  0  0  0  0  0  0  0  0  0  0  0
   -5.5678    3.5072  -11.4023 C   0  0  0  0  0  0  0  0  0  0  0  0
   -6.3140    2.9700  -12.5964 C   0  0  0  0  0  0  0  0  0  0  0  0
   -7.5179    2.7669  -12.6336 O   0  0  0  0  0  0  0  0  0  0  0  0
   -5.5843    2.8221  -13.7324 N   0  0  0  0  0  0  0  0  0  0  0  0
   -4.2639    2.2480  -13.6524 C   0  0  0  0  0  0  0  0  0  0  0  0
   -3.2069    5.0563  -13.5449 C   0  0  0  0  0  0  0  0  0  0  0  0
   -5.1652    6.3267  -17.2266 C   0  0  0  0  0  0  0  0  0  0  0  0
   -5.1664    7.0819  -16.2614 O   0  0  0  0  0  0  0  0  0  0  0  0
   -6.2857    5.3638  -17.6064 C   0  0  0  0  0  0  0  0  0  0  0  0
   -7.4671    6.1240  -18.1795 C   0  0  0  0  0  0  0  0  0  0  0  0
   -8.7654    5.2901  -18.2440 C   0  0  0  0  0  0  0  0  0  0  0  0
   -9.1586    4.8146  -16.8579 C   0  0  0  0  0  0  0  0  0  0  0  0
   -8.0414    3.9631  -16.3315 C   0  0  0  0  0  0  0  0  0  0  0  0
   -6.6684    4.6161  -16.3221 C   0  0  0  0  0  0  0  0  0  0  0  0
  1  2  1  0
  2  3  1  0
  3  4  2  0
  3  5  1  0
  5  6  1  0
  6  7  1  0
  7  8  2  0
  7  9  1  0
  9 10  1  0
 10 11  1  0
 11 12  2  0
 12 13  1  0
 14 13  1  6
 14 15  1  0
 15 16  1  0
 16 17  1  0
 17 18  2  0
 17 19  1  0
 19 20  1  0
 13 21  1  0
  5 22  1  0
 22 23  2  0
 22 24  1  0
 24 25  1  0
 25 26  1  0
 26 27  1  0
 27 28  1  0
 28 29  1  0
 24  2  1  0
 21 10  2  0
 29 24  1  0
 20 14  1  0
M  END
>  <fragmenstein_outcome>  (229) 
nan

>  <exports>  (229) 
['/opt/xchem-fragalysis-2/maxwin/openbind-hippo/xx01zvns2b/cycle_01/syndirella/elabs/openbind_xx01zvns2b_c1_elab_chemspace_filtered.sdf']

>  <Energy>  (229) 
nan

>  <alias>  (229) 
None

>  <fragmenstein_runtime>  (229) 
nan

>  <scratch_subdir>  (229) 
nan

>  <HIPPO Compound ID>  (229) 
141373

>  <rmsd(smina/fragmenstein)>  (229) 
1.438

>  <distance_score>  (229) 
1.806383

>  <orig_smiles>  (229) 
nan

>  <fragmenstein_mode>  (229) 
nan

>  <inchikey>  (229) 
TXEZCRRNPRBLRD-AWEZNQCLSA-N

>  <ref_pdb>  (229) 
Z0719a

>  <GNINA pK>  (229) 
nan

>  <gnina_score_min>  (229) 
5.295

>  <tags>  (229) 
openbind_xx01zvns2b_c1_elab_nonasap_filtered_scored_top80percent,openbind_xx01zvns2b_c1_elab_chemspace_filtered_scored_top80percent,openbind_xx01zvns2b_c1_elab_chemspace_filtered_scored,openbind_xx01zvns2b_c1_elab_chemspace_filtered_scored_top40percent,openbind_xx01zvns2b_c1_elab_chemspace_filtered_scored_top20percent,openbind_xx01zvns2b_c1_elab_chemspace_filtered_scored_top60percent,openbind_xx01zvns2b_c1_elabs_filtered

>  <smiles>  (229) 
CN1C(=O)N(CC(=O)Nc2cnn([C@H]3CCC(=O)NC3)c2)C(=O)C12CCCCC2

>  <subsites>  (229) 
1 - Z4590/B/203/1

>  <gnina_score>  (229) 
5.534

>  <HIPPO Pose ID>  (229) 
70094

>  <ref_mols>  (229) 
Z0701a,Z0719a

>  <energy_score>  (229) 
-57.846239

>  <inspiration_score>  (229) 
None

>  <smina_score_min>  (229) 
-5.038

>  <fragmenstein_error>  (229) 
nan

>  <name>  (229) 
P70094

$$$$
P70097
     RDKit          3D

 29 32  0  0  0  0  0  0  0  0999 V2000
   -3.1859    6.3113  -19.8698 C   0  0  0  0  0  0  0  0  0  0  0  0
   -3.8952    6.7694  -18.6023 C   0  0  2  0  0  0  0  0  0  0  0  0
   -3.0010    6.5663  -17.3389 C   0  0  0  0  0  0  0  0  0  0  0  0
   -1.8797    6.2301  -17.3869 O   0  0  0  0  0  0  0  0  0  0  0  0
   -3.9375    6.7975  -16.1072 N   0  0  0  0  0  0  0  0  0  0  0  0
   -3.7219    6.5818  -14.7832 C   0  0  0  0  0  0  0  0  0  0  0  0
   -2.7060    5.8049  -14.2025 C   0  0  0  0  0  0  0  0  0  0  0  0
   -3.0525    5.3703  -12.9841 N   0  0  0  0  0  0  0  0  0  0  0  0
   -4.3056    5.8442  -12.8181 N   0  0  0  0  0  0  0  0  0  0  0  0
   -5.2637    5.1320  -11.9725 C   0  0  2  0  0  0  0  0  0  0  0  0
   -4.7420    3.8850  -11.2183 C   0  0  0  0  0  0  0  0  0  0  0  0
   -4.6208    2.6217  -12.0924 C   0  0  0  0  0  0  0  0  0  0  0  0
   -5.8361    2.4805  -12.9875 C   0  0  0  0  0  0  0  0  0  0  0  0
   -6.5090    1.4650  -13.0909 O   0  0  0  0  0  0  0  0  0  0  0  0
   -6.0918    3.6258  -13.6857 N   0  0  0  0  0  0  0  0  0  0  0  0
   -6.4221    4.6711  -12.8573 C   0  0  0  0  0  0  0  0  0  0  0  0
   -7.5220    5.2155  -12.8390 O   0  0  0  0  0  0  0  0  0  0  0  0
   -4.6615    6.7492  -13.7988 C   0  0  0  0  0  0  0  0  0  0  0  0
   -5.1668    6.0343  -18.4146 N   0  0  0  0  0  0  0  0  0  0  0  0
   -5.2838    4.8816  -17.6720 C   0  0  0  0  0  0  0  0  0  0  0  0
   -4.3972    4.2956  -17.0704 O   0  0  0  0  0  0  0  0  0  0  0  0
   -6.7077    4.4741  -17.6591 C   0  0  1  0  0  0  0  0  0  0  0  0
   -7.3535    4.2497  -16.3048 C   0  0  0  0  0  0  0  0  0  0  0  0
   -8.8472    4.1283  -16.4449 C   0  0  0  0  0  0  0  0  0  0  0  0
   -9.4871    4.4265  -17.5871 C   0  0  0  0  0  0  0  0  0  0  0  0
   -8.7584    5.0524  -18.7562 C   0  0  0  0  0  0  0  0  0  0  0  0
   -7.4426    5.6384  -18.2645 C   0  0  2  0  0  0  0  0  0  0  0  0
   -6.3680    6.4185  -18.9783 C   0  0  0  0  0  0  0  0  0  0  0  0
   -6.5141    7.4137  -19.6735 O   0  0  0  0  0  0  0  0  0  0  0  0
  2  1  1  6
  2  3  1  0
  3  4  2  0
  3  5  1  0
  5  6  1  0
  6  7  1  0
  7  8  2  0
  8  9  1  0
 10  9  1  6
 10 11  1  0
 11 12  1  0
 12 13  1  0
 13 14  2  0
 13 15  1  0
 15 16  1  0
 16 17  2  0
  9 18  1  0
  2 19  1  0
 19 20  1  0
 20 21  2  0
 20 22  1  0
 22 23  1  1
 23 24  1  0
 24 25  2  0
 25 26  1  0
 27 26  1  6
 27 28  1  0
 28 29  2  0
 18  6  2  0
 28 19  1  0
 16 10  1  0
 27 22  1  0
M  END
>  <fragmenstein_outcome>  (230) 
nan

>  <exports>  (230) 
['/opt/xchem-fragalysis-2/maxwin/openbind-hippo/xx01zvns2b/cycle_01/syndirella/elabs/openbind_xx01zvns2b_c1_elab_chemspace_filtered.sdf']

>  <Energy>  (230) 
nan

>  <alias>  (230) 
None

>  <fragmenstein_runtime>  (230) 
nan

>  <scratch_subdir>  (230) 
nan

>  <HIPPO Compound ID>  (230) 
141387

>  <rmsd(smina/fragmenstein)>  (230) 
1.055

>  <distance_score>  (230) 
1.112007

>  <orig_smiles>  (230) 
nan

>  <fragmenstein_mode>  (230) 
nan

>  <inchikey>  (230) 
KFCSCUQWIRLSHI-VZZFWQQMSA-N

>  <ref_pdb>  (230) 
Z0719a

>  <GNINA pK>  (230) 
nan

>  <gnina_score_min>  (230) 
5.581

>  <tags>  (230) 
openbind_xx01zvns2b_c1_elab_nonasap_filtered_scored_top80percent,openbind_xx01zvns2b_c1_elab_chemspace_filtered_scored_top80percent,openbind_xx01zvns2b_c1_elab_chemspace_filtered_scored,openbind_xx01zvns2b_c1_elab_chemspace_filtered_scored_top40percent,openbind_xx01zvns2b_c1_elab_chemspace_filtered_scored_top20percent,openbind_xx01zvns2b_c1_elab_chemspace_filtered_scored_top60percent,openbind_xx01zvns2b_c1_elabs_filtered

>  <smiles>  (230) 
C[C@H](C(=O)Nc1cnn([C@@H]2CCC(=O)NC2=O)c1)N1C(=O)[C@H]2CC=CC[C@@H]2C1=O

>  <subsites>  (230) 
1 - Z4590/B/203/1

>  <gnina_score>  (230) 
5.736

>  <HIPPO Pose ID>  (230) 
70097

>  <ref_mols>  (230) 
Z0701a,Z0719a

>  <energy_score>  (230) 
-13.002428

>  <inspiration_score>  (230) 
None

>  <smina_score_min>  (230) 
-5.134

>  <fragmenstein_error>  (230) 
nan

>  <name>  (230) 
P70097

$$$$
P70098
     RDKit          3D

 29 32  0  0  0  0  0  0  0  0999 V2000
  -10.6861    4.4856  -17.7930 C   0  0  0  0  0  0  0  0  0  0  0  0
   -9.2277    4.0646  -17.6542 C   0  0  1  0  0  0  0  0  0  0  0  0
   -8.5371    4.4914  -18.9345 C   0  0  0  0  0  0  0  0  0  0  0  0
   -7.0241    4.5060  -18.8992 C   0  0  0  0  0  0  0  0  0  0  0  0
   -6.5431    5.3199  -17.7287 C   0  0  2  0  0  0  0  0  0  0  0  0
   -7.0876    4.7851  -16.4052 C   0  0  0  0  0  0  0  0  0  0  0  0
   -8.6080    4.6440  -16.3755 C   0  0  0  0  0  0  0  0  0  0  0  0
   -6.8737    6.7170  -17.9416 N   0  0  0  0  0  0  0  0  0  0  0  0
   -5.7700    7.4626  -18.2426 C   0  0  0  0  0  0  0  0  0  0  0  0
   -5.8338    8.6131  -18.6445 O   0  0  0  0  0  0  0  0  0  0  0  0
   -4.6666    6.7292  -17.9702 N   0  0  0  0  0  0  0  0  0  0  0  0
   -3.3067    7.2425  -17.9484 C   0  0  0  0  0  0  0  0  0  0  0  0
   -2.6697    7.3205  -16.5296 C   0  0  0  0  0  0  0  0  0  0  0  0
   -1.5304    7.5399  -16.3779 O   0  0  0  0  0  0  0  0  0  0  0  0
   -3.7736    6.9628  -15.4941 N   0  0  0  0  0  0  0  0  0  0  0  0
   -3.6870    6.7241  -14.1608 C   0  0  0  0  0  0  0  0  0  0  0  0
   -2.5989    6.7355  -13.2768 C   0  0  0  0  0  0  0  0  0  0  0  0
   -2.9076    6.1473  -12.1130 N   0  0  0  0  0  0  0  0  0  0  0  0
   -4.1641    5.6811  -12.3191 N   0  0  0  0  0  0  0  0  0  0  0  0
   -4.5961    4.4939  -11.5888 C   0  0  1  0  0  0  0  0  0  0  0  0
   -6.0917    4.3808  -11.2680 C   0  0  0  0  0  0  0  0  0  0  0  0
   -6.9421    3.7462  -12.3684 C   0  0  0  0  0  0  0  0  0  0  0  0
   -6.2988    2.5895  -13.0835 C   0  0  0  0  0  0  0  0  0  0  0  0
   -6.9121    1.6104  -13.4853 O   0  0  0  0  0  0  0  0  0  0  0  0
   -4.9687    2.7351  -13.3532 N   0  0  0  0  0  0  0  0  0  0  0  0
   -4.1070    3.2345  -12.3099 C   0  0  0  0  0  0  0  0  0  0  0  0
   -4.7345    6.2033  -13.4428 C   0  0  0  0  0  0  0  0  0  0  0  0
   -5.0112    5.4248  -17.7181 C   0  0  0  0  0  0  0  0  0  0  0  0
   -4.2157    4.5368  -17.4568 O   0  0  0  0  0  0  0  0  0  0  0  0
  2  1  1  6
  2  3  1  0
  3  4  1  0
  5  4  1  6
  5  6  1  0
  6  7  1  0
  5  8  1  0
  8  9  1  0
  9 10  2  0
  9 11  1  0
 11 12  1  0
 12 13  1  0
 13 14  2  0
 13 15  1  0
 15 16  1  0
 16 17  1  0
 17 18  2  0
 18 19  1  0
 20 19  1  6
 20 21  1  0
 21 22  1  0
 22 23  1  0
 23 24  2  0
 23 25  1  0
 25 26  1  0
 19 27  1  0
 11 28  1  0
 28 29  2  0
  7  2  1  0
 27 16  2  0
 28  5  1  0
 26 20  1  0
M  END
>  <fragmenstein_outcome>  (231) 
nan

>  <exports>  (231) 
['/opt/xchem-fragalysis-2/maxwin/openbind-hippo/xx01zvns2b/cycle_01/syndirella/elabs/openbind_xx01zvns2b_c1_elab_chemspace_filtered.sdf']

>  <Energy>  (231) 
nan

>  <alias>  (231) 
None

>  <fragmenstein_runtime>  (231) 
nan

>  <scratch_subdir>  (231) 
nan

>  <HIPPO Compound ID>  (231) 
141395

>  <rmsd(smina/fragmenstein)>  (231) 
0.858

>  <distance_score>  (231) 
1.804113

>  <orig_smiles>  (231) 
nan

>  <fragmenstein_mode>  (231) 
nan

>  <inchikey>  (231) 
XEFGNQFSZUEWFZ-PTAUBWNISA-N

>  <ref_pdb>  (231) 
Z0719a

>  <GNINA pK>  (231) 
nan

>  <gnina_score_min>  (231) 
5.387

>  <tags>  (231) 
openbind_xx01zvns2b_c1_elab_nonasap_filtered_scored_top80percent,openbind_xx01zvns2b_c1_elab_chemspace_filtered_scored_top80percent,openbind_xx01zvns2b_c1_elab_chemspace_filtered_scored,openbind_xx01zvns2b_c1_elab_chemspace_filtered_scored_top40percent,openbind_xx01zvns2b_c1_elab_chemspace_filtered_scored_top20percent,openbind_xx01zvns2b_c1_elab_chemspace_filtered_scored_top60percent,openbind_xx01zvns2b_c1_elabs_filtered

>  <smiles>  (231) 
C[C@H]1CC[C@]2(CC1)NC(=O)N(CC(=O)Nc1cnn([C@H]3CCC(=O)NC3)c1)C2=O

>  <subsites>  (231) 
1 - Z4590/B/203/1

>  <gnina_score>  (231) 
5.373

>  <HIPPO Pose ID>  (231) 
70098

>  <ref_mols>  (231) 
Z0701a,Z0719a

>  <energy_score>  (231) 
-49.223167

>  <inspiration_score>  (231) 
None

>  <smina_score_min>  (231) 
-6.115

>  <fragmenstein_error>  (231) 
nan

>  <name>  (231) 
P70098

$$$$
P70099
     RDKit          3D

 30 32  0  0  0  0  0  0  0  0999 V2000
   -1.2909    7.1113  -16.4446 C   0  0  0  0  0  0  0  0  0  0  0  0
   -1.8045    6.1229  -15.4084 C   0  0  0  0  0  0  0  0  0  0  0  0
   -1.9636    6.7801  -14.0386 C   0  0  0  0  0  0  0  0  0  0  0  0
   -2.7254    5.9351  -13.0079 C   0  0  0  0  0  0  0  0  0  0  0  0
   -2.0917    4.5947  -12.5817 C   0  0  2  0  0  0  0  0  0  0  0  0
   -0.6228    4.6822  -12.1942 C   0  0  0  0  0  0  0  0  0  0  0  0
   -2.3276    3.5515  -13.5527 N   0  0  0  0  0  0  0  0  0  0  0  0
   -3.3209    2.6989  -13.1510 C   0  0  0  0  0  0  0  0  0  0  0  0
   -3.8777    1.9137  -13.9015 O   0  0  0  0  0  0  0  0  0  0  0  0
   -3.6195    2.9339  -11.8480 N   0  0  0  0  0  0  0  0  0  0  0  0
   -4.7126    2.2569  -11.1431 C   0  0  1  0  0  0  0  0  0  0  0  0
   -4.4010    1.9527   -9.6905 C   0  0  0  0  0  0  0  0  0  0  0  0
   -5.9973    3.1189  -11.3140 C   0  0  0  0  0  0  0  0  0  0  0  0
   -6.5159    3.7098  -10.4493 O   0  0  0  0  0  0  0  0  0  0  0  0
   -6.3303    3.0567  -12.8353 N   0  0  0  0  0  0  0  0  0  0  0  0
   -7.2501    3.7400  -13.5652 C   0  0  0  0  0  0  0  0  0  0  0  0
   -8.2736    4.6388  -13.2275 C   0  0  0  0  0  0  0  0  0  0  0  0
   -8.8483    5.1822  -14.3156 N   0  0  0  0  0  0  0  0  0  0  0  0
   -8.2124    4.5684  -15.3542 N   0  0  0  0  0  0  0  0  0  0  0  0
   -8.2657    5.1696  -16.6853 C   0  0  1  0  0  0  0  0  0  0  0  0
   -7.2844    6.3412  -16.7719 C   0  0  0  0  0  0  0  0  0  0  0  0
   -5.8375    5.9060  -16.7772 C   0  0  0  0  0  0  0  0  0  0  0  0
   -5.5960    4.8972  -17.8553 C   0  0  0  0  0  0  0  0  0  0  0  0
   -4.4468    4.6070  -18.1757 O   0  0  0  0  0  0  0  0  0  0  0  0
   -6.7175    4.3011  -18.3871 N   0  0  0  0  0  0  0  0  0  0  0  0
   -7.9965    4.2436  -17.8367 C   0  0  0  0  0  0  0  0  0  0  0  0
   -8.8505    3.4647  -18.2532 O   0  0  0  0  0  0  0  0  0  0  0  0
   -7.2489    3.7106  -14.9287 C   0  0  0  0  0  0  0  0  0  0  0  0
   -2.9240    4.0282  -11.4082 C   0  0  0  0  0  0  0  0  0  0  0  0
   -2.9684    4.5350  -10.2962 O   0  0  0  0  0  0  0  0  0  0  0  0
  1  2  1  0
  2  3  1  0
  3  4  1  0
  5  4  1  0
  5  6  1  1
  5  7  1  0
  7  8  1  0
  8  9  2  0
  8 10  1  0
 10 11  1  0
 11 12  1  1
 11 13  1  0
 13 14  2  0
 13 15  1  0
 15 16  1  0
 16 17  1  0
 17 18  2  0
 18 19  1  0
 20 19  1  1
 20 21  1  0
 21 22  1  0
 22 23  1  0
 23 24  2  0
 23 25  1  0
 25 26  1  0
 26 27  2  0
 19 28  1  0
 10 29  1  0
 29 30  2  0
 29  5  1  0
 28 16  2  0
 26 20  1  0
M  END
>  <fragmenstein_outcome>  (232) 
nan

>  <exports>  (232) 
['/opt/xchem-fragalysis-2/maxwin/openbind-hippo/xx01zvns2b/cycle_01/syndirella/elabs/openbind_xx01zvns2b_c1_elab_chemspace_filtered.sdf']

>  <Energy>  (232) 
nan

>  <alias>  (232) 
None

>  <fragmenstein_runtime>  (232) 
nan

>  <scratch_subdir>  (232) 
nan

>  <HIPPO Compound ID>  (232) 
141400

>  <rmsd(smina/fragmenstein)>  (232) 
0.591

>  <distance_score>  (232) 
1.981435

>  <orig_smiles>  (232) 
nan

>  <fragmenstein_mode>  (232) 
nan

>  <inchikey>  (232) 
JWSIHSZXFNXWKA-BLWXERESSA-N

>  <ref_pdb>  (232) 
Z0719a

>  <GNINA pK>  (232) 
nan

>  <gnina_score_min>  (232) 
5.49

>  <tags>  (232) 
openbind_xx01zvns2b_c1_elab_nonasap_filtered_scored_top80percent,openbind_xx01zvns2b_c1_elab_chemspace_filtered_scored_top80percent,openbind_xx01zvns2b_c1_elab_chemspace_filtered_scored,openbind_xx01zvns2b_c1_elab_chemspace_filtered_scored_top40percent,openbind_xx01zvns2b_c1_elab_chemspace_filtered_scored_top20percent,openbind_xx01zvns2b_c1_elab_chemspace_filtered_scored_top60percent,openbind_xx01zvns2b_c1_elabs_filtered

>  <smiles>  (232) 
CCCC[C@]1(C)NC(=O)N([C@@H](C)C(=O)Nc2cnn([C@H]3CCC(=O)NC3=O)c2)C1=O

>  <subsites>  (232) 
1 - Z4590/B/203/1

>  <gnina_score>  (232) 
6.025

>  <HIPPO Pose ID>  (232) 
70099

>  <ref_mols>  (232) 
Z0701a,Z0719a

>  <energy_score>  (232) 
-68.987135

>  <inspiration_score>  (232) 
None

>  <smina_score_min>  (232) 
-5.139

>  <fragmenstein_error>  (232) 
nan

>  <name>  (232) 
P70099

$$$$
P70103
     RDKit          3D

 30 33  0  0  0  0  0  0  0  0999 V2000
  -10.7009    4.5580  -17.8046 C   0  0  0  0  0  0  0  0  0  0  0  0
   -9.2825    4.0151  -17.7835 C   0  0  1  0  0  0  0  0  0  0  0  0
   -8.6064    4.5160  -19.0296 C   0  0  0  0  0  0  0  0  0  0  0  0
   -7.1039    4.4794  -18.9639 C   0  0  0  0  0  0  0  0  0  0  0  0
   -6.6319    5.4606  -17.9290 C   0  0  2  0  0  0  0  0  0  0  0  0
   -7.3752    5.3673  -16.5836 C   0  0  0  0  0  0  0  0  0  0  0  0
   -8.5218    4.3511  -16.4976 C   0  0  0  0  0  0  0  0  0  0  0  0
   -6.6844    6.8221  -18.4268 N   0  0  0  0  0  0  0  0  0  0  0  0
   -5.4566    7.4280  -18.4104 C   0  0  0  0  0  0  0  0  0  0  0  0
   -5.2353    8.5177  -18.9118 O   0  0  0  0  0  0  0  0  0  0  0  0
   -4.5729    6.6120  -17.7845 N   0  0  0  0  0  0  0  0  0  0  0  0
   -3.1341    6.8635  -17.6857 C   0  0  0  0  0  0  0  0  0  0  0  0
   -2.4674    6.1874  -16.4527 C   0  0  0  0  0  0  0  0  0  0  0  0
   -1.3451    5.8589  -16.4355 O   0  0  0  0  0  0  0  0  0  0  0  0
   -3.5933    5.9815  -15.4010 N   0  0  0  0  0  0  0  0  0  0  0  0
   -3.5922    5.2909  -14.2323 C   0  0  0  0  0  0  0  0  0  0  0  0
   -2.6303    4.5156  -13.5705 C   0  0  0  0  0  0  0  0  0  0  0  0
   -3.1759    3.7897  -12.5816 N   0  0  0  0  0  0  0  0  0  0  0  0
   -4.5023    4.0326  -12.6994 N   0  0  0  0  0  0  0  0  0  0  0  0
   -5.4794    3.1884  -12.0183 C   0  0  1  0  0  0  0  0  0  0  0  0
   -6.2597    3.9086  -10.9155 C   0  0  0  0  0  0  0  0  0  0  0  0
   -7.2524    4.9363  -11.4547 C   0  0  0  0  0  0  0  0  0  0  0  0
   -8.0116    4.4855  -12.6892 C   0  0  0  0  0  0  0  0  0  0  0  0
   -8.9341    5.1535  -13.1541 O   0  0  0  0  0  0  0  0  0  0  0  0
   -7.5791    3.3410  -13.3029 N   0  0  0  0  0  0  0  0  0  0  0  0
   -6.4783    2.5803  -12.9884 C   0  0  0  0  0  0  0  0  0  0  0  0
   -6.3625    1.4589  -13.4752 O   0  0  0  0  0  0  0  0  0  0  0  0
   -4.7599    5.0656  -13.5542 C   0  0  0  0  0  0  0  0  0  0  0  0
   -5.1143    5.3550  -17.7592 C   0  0  0  0  0  0  0  0  0  0  0  0
   -4.4748    4.3387  -17.5439 O   0  0  0  0  0  0  0  0  0  0  0  0
  2  1  1  1
  2  3  1  0
  3  4  1  0
  5  4  1  6
  5  6  1  0
  6  7  1  0
  5  8  1  0
  8  9  1  0
  9 10  2  0
  9 11  1  0
 11 12  1  0
 12 13  1  0
 13 14  2  0
 13 15  1  0
 15 16  1  0
 16 17  1  0
 17 18  2  0
 18 19  1  0
 20 19  1  6
 20 21  1  0
 21 22  1  0
 22 23  1  0
 23 24  2  0
 23 25  1  0
 25 26  1  0
 26 27  2  0
 19 28  1  0
 11 29  1  0
 29 30  2  0
  7  2  1  0
 28 16  2  0
 29  5  1  0
 26 20  1  0
M  END
>  <fragmenstein_outcome>  (233) 
nan

>  <exports>  (233) 
['/opt/xchem-fragalysis-2/maxwin/openbind-hippo/xx01zvns2b/cycle_01/syndirella/elabs/openbind_xx01zvns2b_c1_elab_chemspace_filtered.sdf']

>  <Energy>  (233) 
nan

>  <alias>  (233) 
None

>  <fragmenstein_runtime>  (233) 
nan

>  <scratch_subdir>  (233) 
nan

>  <HIPPO Compound ID>  (233) 
141403

>  <rmsd(smina/fragmenstein)>  (233) 
0.646

>  <distance_score>  (233) 
1.462357

>  <orig_smiles>  (233) 
nan

>  <fragmenstein_mode>  (233) 
nan

>  <inchikey>  (233) 
CXLHKUHSDWRHBX-MJLGCCKJSA-N

>  <ref_pdb>  (233) 
Z0719a

>  <GNINA pK>  (233) 
nan

>  <gnina_score_min>  (233) 
5.761

>  <tags>  (233) 
openbind_xx01zvns2b_c1_elab_nonasap_filtered_scored_top80percent,openbind_xx01zvns2b_c1_elab_chemspace_filtered_scored_top80percent,openbind_xx01zvns2b_c1_elab_chemspace_filtered_scored,openbind_xx01zvns2b_c1_elab_chemspace_filtered_scored_top40percent,openbind_xx01zvns2b_c1_elab_chemspace_filtered_scored_top20percent,openbind_xx01zvns2b_c1_elab_chemspace_filtered_scored_top60percent,openbind_xx01zvns2b_c1_elabs_filtered

>  <smiles>  (233) 
C[C@H]1CC[C@]2(CC1)NC(=O)N(CC(=O)Nc1cnn([C@H]3CCC(=O)NC3=O)c1)C2=O

>  <subsites>  (233) 
1 - Z4590/B/203/1

>  <gnina_score>  (233) 
5.692

>  <HIPPO Pose ID>  (233) 
70103

>  <ref_mols>  (233) 
Z0701a,Z0719a

>  <energy_score>  (233) 
-61.474988

>  <inspiration_score>  (233) 
None

>  <smina_score_min>  (233) 
-6.862

>  <fragmenstein_error>  (233) 
nan

>  <name>  (233) 
P70103

$$$$
P70106
     RDKit          3D

 30 33  0  0  0  0  0  0  0  0999 V2000
   -7.8552    6.0863  -15.0905 C   0  0  0  0  0  0  0  0  0  0  0  0
   -7.7586    4.7675  -15.8521 C   0  0  1  0  0  0  0  0  0  0  0  0
   -8.9087    4.5735  -16.8347 C   0  0  0  0  0  0  0  0  0  0  0  0
   -8.6462    5.0240  -18.2734 C   0  0  2  0  0  0  0  0  0  0  0  0
   -8.6876    3.8590  -19.2311 C   0  0  0  0  0  0  0  0  0  0  0  0
   -7.3854    5.8724  -18.4437 C   0  0  0  0  0  0  0  0  0  0  0  0
   -6.1356    5.3028  -17.8165 C   0  0  0  0  0  0  0  0  0  0  0  0
   -6.3853    4.5712  -16.5015 C   0  0  0  0  0  0  0  0  0  0  0  0
   -5.3315    4.5507  -18.7651 N   0  0  0  0  0  0  0  0  0  0  0  0
   -4.2357    5.2345  -19.2267 C   0  0  0  0  0  0  0  0  0  0  0  0
   -3.3992    4.8142  -20.0117 O   0  0  0  0  0  0  0  0  0  0  0  0
   -4.1445    6.3973  -18.5375 N   0  0  0  0  0  0  0  0  0  0  0  0
   -2.9904    7.3089  -18.5322 C   0  0  0  0  0  0  0  0  0  0  0  0
   -2.3253    7.2881  -17.1336 C   0  0  0  0  0  0  0  0  0  0  0  0
   -1.8902    8.2329  -16.6021 O   0  0  0  0  0  0  0  0  0  0  0  0
   -2.4780    5.8295  -16.6258 N   0  0  0  0  0  0  0  0  0  0  0  0
   -2.2321    5.2940  -15.4119 C   0  0  0  0  0  0  0  0  0  0  0  0
   -1.8997    5.8520  -14.1727 C   0  0  0  0  0  0  0  0  0  0  0  0
   -2.2205    5.0263  -13.1613 N   0  0  0  0  0  0  0  0  0  0  0  0
   -2.8191    3.9956  -13.7899 N   0  0  0  0  0  0  0  0  0  0  0  0
   -3.9565    3.3110  -13.2234 C   0  0  1  0  0  0  0  0  0  0  0  0
   -3.6902    2.3619  -12.0612 C   0  0  0  0  0  0  0  0  0  0  0  0
   -5.0231    1.8533  -11.4968 C   0  0  0  0  0  0  0  0  0  0  0  0
   -6.2001    2.1813  -12.4006 C   0  0  0  0  0  0  0  0  0  0  0  0
   -6.9562    1.3557  -12.8882 O   0  0  0  0  0  0  0  0  0  0  0  0
   -6.3210    3.5082  -12.7277 N   0  0  0  0  0  0  0  0  0  0  0  0
   -5.1040    4.2707  -12.8671 C   0  0  0  0  0  0  0  0  0  0  0  0
   -2.6363    4.0178  -15.1442 C   0  0  0  0  0  0  0  0  0  0  0  0
   -5.1580    6.4636  -17.6175 C   0  0  0  0  0  0  0  0  0  0  0  0
   -5.2506    7.3045  -16.7360 O   0  0  0  0  0  0  0  0  0  0  0  0
  2  1  1  6
  2  3  1  0
  3  4  1  0
  4  5  1  6
  4  6  1  0
  6  7  1  0
  7  8  1  0
  7  9  1  0
  9 10  1  0
 10 11  2  0
 10 12  1  0
 12 13  1  0
 13 14  1  0
 14 15  2  0
 14 16  1  0
 16 17  1  0
 17 18  1  0
 18 19  2  0
 19 20  1  0
 21 20  1  1
 21 22  1  0
 22 23  1  0
 23 24  1  0
 24 25  2  0
 24 26  1  0
 26 27  1  0
 20 28  1  0
 12 29  1  0
 29 30  2  0
  8  2  1  0
 28 17  2  0
 29  7  1  0
 27 21  1  0
M  END
>  <fragmenstein_outcome>  (234) 
nan

>  <exports>  (234) 
['/opt/xchem-fragalysis-2/maxwin/openbind-hippo/xx01zvns2b/cycle_01/syndirella/elabs/openbind_xx01zvns2b_c1_elab_chemspace_filtered.sdf']

>  <Energy>  (234) 
nan

>  <alias>  (234) 
None

>  <fragmenstein_runtime>  (234) 
nan

>  <scratch_subdir>  (234) 
nan

>  <HIPPO Compound ID>  (234) 
141416

>  <rmsd(smina/fragmenstein)>  (234) 
0.506

>  <distance_score>  (234) 
1.773192

>  <orig_smiles>  (234) 
nan

>  <fragmenstein_mode>  (234) 
nan

>  <inchikey>  (234) 
DXWAQILEDJZGGD-YDHLFZDLSA-N

>  <ref_pdb>  (234) 
Z0719a

>  <GNINA pK>  (234) 
nan

>  <gnina_score_min>  (234) 
5.38

>  <tags>  (234) 
openbind_xx01zvns2b_c1_elab_nonasap_filtered_scored_top80percent,openbind_xx01zvns2b_c1_elab_chemspace_filtered_scored_top80percent,openbind_xx01zvns2b_c1_elab_chemspace_filtered_scored,openbind_xx01zvns2b_c1_elab_chemspace_filtered_scored_top40percent,openbind_xx01zvns2b_c1_elab_chemspace_filtered_scored_top20percent,openbind_xx01zvns2b_c1_elab_chemspace_filtered_scored_top60percent,openbind_xx01zvns2b_c1_elabs_filtered

>  <smiles>  (234) 
C[C@H]1C[C@H](C)CC2(C1)NC(=O)N(CC(=O)Nc1cnn([C@H]3CCC(=O)NC3)c1)C2=O

>  <subsites>  (234) 
1 - Z4590/B/203/1

>  <gnina_score>  (234) 
5.712

>  <HIPPO Pose ID>  (234) 
70106

>  <ref_mols>  (234) 
Z0701a,Z0719a

>  <energy_score>  (234) 
-28.611455

>  <inspiration_score>  (234) 
None

>  <smina_score_min>  (234) 
-5.741

>  <fragmenstein_error>  (234) 
nan

>  <name>  (234) 
P70106

$$$$
P70107
     RDKit          3D

 30 33  0  0  0  0  0  0  0  0999 V2000
   -5.9849    7.9045  -15.7016 C   0  0  0  0  0  0  0  0  0  0  0  0
   -6.0382    7.2694  -17.0211 N   0  0  0  0  0  0  0  0  0  0  0  0
   -4.7457    7.2037  -17.5737 C   0  0  0  0  0  0  0  0  0  0  0  0
   -3.9420    8.1280  -17.5593 O   0  0  0  0  0  0  0  0  0  0  0  0
   -4.4220    5.9077  -17.7902 N   0  0  0  0  0  0  0  0  0  0  0  0
   -3.0307    5.4529  -17.7574 C   0  0  0  0  0  0  0  0  0  0  0  0
   -2.9132    4.6042  -16.4922 C   0  0  0  0  0  0  0  0  0  0  0  0
   -2.7039    3.4614  -16.5752 O   0  0  0  0  0  0  0  0  0  0  0  0
   -3.2125    5.4812  -15.2531 N   0  0  0  0  0  0  0  0  0  0  0  0
   -3.3993    5.1350  -13.9504 C   0  0  0  0  0  0  0  0  0  0  0  0
   -3.5754    5.9080  -12.7955 C   0  0  0  0  0  0  0  0  0  0  0  0
   -4.1259    5.1952  -11.8044 N   0  0  0  0  0  0  0  0  0  0  0  0
   -4.3919    3.9959  -12.3826 N   0  0  0  0  0  0  0  0  0  0  0  0
   -5.3901    3.0824  -11.8261 C   0  0  1  0  0  0  0  0  0  0  0  0
   -6.2891    3.6965  -10.7422 C   0  0  0  0  0  0  0  0  0  0  0  0
   -7.1827    4.8065  -11.2971 C   0  0  0  0  0  0  0  0  0  0  0  0
   -7.8635    4.4436  -12.5990 C   0  0  0  0  0  0  0  0  0  0  0  0
   -8.8101    5.1012  -13.0298 O   0  0  0  0  0  0  0  0  0  0  0  0
   -7.3508    3.3800  -13.2927 N   0  0  0  0  0  0  0  0  0  0  0  0
   -6.3317    2.5524  -12.8980 C   0  0  0  0  0  0  0  0  0  0  0  0
   -6.2469    1.4255  -13.3786 O   0  0  0  0  0  0  0  0  0  0  0  0
   -3.7518    3.8572  -13.5824 C   0  0  0  0  0  0  0  0  0  0  0  0
   -5.4464    5.1376  -17.3027 C   0  0  0  0  0  0  0  0  0  0  0  0
   -5.3677    3.9831  -16.9383 O   0  0  0  0  0  0  0  0  0  0  0  0
   -6.7065    5.9531  -17.1960 C   0  0  0  0  0  0  0  0  0  0  0  0
   -7.3672    5.7839  -18.5745 C   0  0  0  0  0  0  0  0  0  0  0  0
   -8.1527    4.4795  -18.7096 C   0  0  0  0  0  0  0  0  0  0  0  0
   -9.1794    4.3145  -17.6120 C   0  0  0  0  0  0  0  0  0  0  0  0
   -8.5037    4.3386  -16.2598 C   0  0  0  0  0  0  0  0  0  0  0  0
   -7.6265    5.5596  -16.0332 C   0  0  0  0  0  0  0  0  0  0  0  0
  1  2  1  0
  2  3  1  0
  3  4  2  0
  3  5  1  0
  5  6  1  0
  6  7  1  0
  7  8  2  0
  7  9  1  0
  9 10  1  0
 10 11  1  0
 11 12  2  0
 12 13  1  0
 14 13  1  6
 14 15  1  0
 15 16  1  0
 16 17  1  0
 17 18  2  0
 17 19  1  0
 19 20  1  0
 20 21  2  0
 13 22  1  0
  5 23  1  0
 23 24  2  0
 23 25  1  0
 25 26  1  0
 26 27  1  0
 27 28  1  0
 28 29  1  0
 29 30  1  0
 25  2  1  0
 22 10  2  0
 30 25  1  0
 20 14  1  0
M  END
>  <fragmenstein_outcome>  (235) 
nan

>  <exports>  (235) 
['/opt/xchem-fragalysis-2/maxwin/openbind-hippo/xx01zvns2b/cycle_01/syndirella/elabs/openbind_xx01zvns2b_c1_elab_chemspace_filtered.sdf']

>  <Energy>  (235) 
nan

>  <alias>  (235) 
None

>  <fragmenstein_runtime>  (235) 
nan

>  <scratch_subdir>  (235) 
nan

>  <HIPPO Compound ID>  (235) 
141428

>  <rmsd(smina/fragmenstein)>  (235) 
1.594

>  <distance_score>  (235) 
1.563052

>  <orig_smiles>  (235) 
nan

>  <fragmenstein_mode>  (235) 
nan

>  <inchikey>  (235) 
TUUKGDIDFWTPOW-ZDUSSCGKSA-N

>  <ref_pdb>  (235) 
Z0719a

>  <GNINA pK>  (235) 
nan

>  <gnina_score_min>  (235) 
5.342

>  <tags>  (235) 
openbind_xx01zvns2b_c1_elab_nonasap_filtered_scored_top80percent,openbind_xx01zvns2b_c1_elab_chemspace_filtered_scored_top80percent,openbind_xx01zvns2b_c1_elab_chemspace_filtered_scored,openbind_xx01zvns2b_c1_elab_chemspace_filtered_scored_top40percent,openbind_xx01zvns2b_c1_elab_chemspace_filtered_scored_top20percent,openbind_xx01zvns2b_c1_elab_chemspace_filtered_scored_top60percent,openbind_xx01zvns2b_c1_elabs_filtered

>  <smiles>  (235) 
CN1C(=O)N(CC(=O)Nc2cnn([C@H]3CCC(=O)NC3=O)c2)C(=O)C12CCCCC2

>  <subsites>  (235) 
1 - Z4590/B/203/1

>  <gnina_score>  (235) 
5.297

>  <HIPPO Pose ID>  (235) 
70107

>  <ref_mols>  (235) 
Z0701a,Z0719a

>  <energy_score>  (235) 
-27.117215

>  <inspiration_score>  (235) 
None

>  <smina_score_min>  (235) 
-6.211

>  <fragmenstein_error>  (235) 
nan

>  <name>  (235) 
P70107

$$$$
P70108
     RDKit          3D

 30 33  0  0  0  0  0  0  0  0999 V2000
   -7.9071    6.3861  -15.3918 C   0  0  0  0  0  0  0  0  0  0  0  0
   -7.8813    4.9225  -15.8310 C   0  0  0  0  0  0  0  0  0  0  0  0
   -8.1924    4.1641  -14.5442 C   0  0  0  0  0  0  0  0  0  0  0  0
   -8.9552    4.5822  -16.8893 C   0  0  0  0  0  0  0  0  0  0  0  0
   -8.5186    4.7197  -18.3477 C   0  0  0  0  0  0  0  0  0  0  0  0
   -7.3150    5.6282  -18.5421 C   0  0  0  0  0  0  0  0  0  0  0  0
   -6.1260    5.1842  -17.7203 C   0  0  1  0  0  0  0  0  0  0  0  0
   -6.4787    4.5654  -16.3555 C   0  0  0  0  0  0  0  0  0  0  0  0
   -5.2764    4.3448  -18.5425 N   0  0  0  0  0  0  0  0  0  0  0  0
   -4.0811    4.9281  -18.8735 C   0  0  0  0  0  0  0  0  0  0  0  0
   -3.2560    4.4978  -19.6637 O   0  0  0  0  0  0  0  0  0  0  0  0
   -3.9639    6.0703  -18.1610 N   0  0  0  0  0  0  0  0  0  0  0  0
   -2.7071    6.7328  -17.8501 C   0  0  0  0  0  0  0  0  0  0  0  0
   -2.3093    6.0750  -16.5129 C   0  0  0  0  0  0  0  0  0  0  0  0
   -1.5916    5.1527  -16.4415 O   0  0  0  0  0  0  0  0  0  0  0  0
   -3.1209    6.8141  -15.4012 N   0  0  0  0  0  0  0  0  0  0  0  0
   -3.2756    6.5246  -14.0813 C   0  0  0  0  0  0  0  0  0  0  0  0
   -4.0117    7.2331  -13.1173 C   0  0  0  0  0  0  0  0  0  0  0  0
   -4.1657    6.5273  -11.9949 N   0  0  0  0  0  0  0  0  0  0  0  0
   -3.6491    5.3171  -12.3161 N   0  0  0  0  0  0  0  0  0  0  0  0
   -3.9869    4.1726  -11.4767 C   0  0  2  0  0  0  0  0  0  0  0  0
   -3.3982    2.8209  -11.9120 C   0  0  0  0  0  0  0  0  0  0  0  0
   -4.1037    2.2358  -13.1336 C   0  0  0  0  0  0  0  0  0  0  0  0
   -5.6019    2.1900  -12.9802 C   0  0  0  0  0  0  0  0  0  0  0  0
   -6.3112    1.3392  -13.5053 O   0  0  0  0  0  0  0  0  0  0  0  0
   -6.1768    3.2185  -12.3087 N   0  0  0  0  0  0  0  0  0  0  0  0
   -5.5122    4.0198  -11.3099 C   0  0  0  0  0  0  0  0  0  0  0  0
   -2.9098    5.3557  -13.4657 C   0  0  0  0  0  0  0  0  0  0  0  0
   -5.1313    6.3263  -17.5126 C   0  0  0  0  0  0  0  0  0  0  0  0
   -5.2996    7.3152  -16.8101 O   0  0  0  0  0  0  0  0  0  0  0  0
  1  2  1  0
  2  3  1  0
  2  4  1  0
  4  5  1  0
  5  6  1  0
  7  6  1  6
  7  8  1  0
  7  9  1  0
  9 10  1  0
 10 11  2  0
 10 12  1  0
 12 13  1  0
 13 14  1  0
 14 15  2  0
 14 16  1  0
 16 17  1  0
 17 18  1  0
 18 19  2  0
 19 20  1  0
 21 20  1  6
 21 22  1  0
 22 23  1  0
 23 24  1  0
 24 25  2  0
 24 26  1  0
 26 27  1  0
 20 28  1  0
 12 29  1  0
 29 30  2  0
  8  2  1  0
 28 17  2  0
 29  7  1  0
 27 21  1  0
M  END
>  <fragmenstein_outcome>  (236) 
nan

>  <exports>  (236) 
['/opt/xchem-fragalysis-2/maxwin/openbind-hippo/xx01zvns2b/cycle_01/syndirella/elabs/openbind_xx01zvns2b_c1_elab_chemspace_filtered.sdf']

>  <Energy>  (236) 
nan

>  <alias>  (236) 
None

>  <fragmenstein_runtime>  (236) 
nan

>  <scratch_subdir>  (236) 
nan

>  <HIPPO Compound ID>  (236) 
141452

>  <rmsd(smina/fragmenstein)>  (236) 
1.264

>  <distance_score>  (236) 
1.82892

>  <orig_smiles>  (236) 
nan

>  <fragmenstein_mode>  (236) 
nan

>  <inchikey>  (236) 
VRJYWNDMYOADOO-VLIAUNLRSA-N

>  <ref_pdb>  (236) 
Z0719a

>  <GNINA pK>  (236) 
nan

>  <gnina_score_min>  (236) 
5.209

>  <tags>  (236) 
openbind_xx01zvns2b_c1_elab_nonasap_filtered_scored_top80percent,openbind_xx01zvns2b_c1_elab_chemspace_filtered_scored_top80percent,openbind_xx01zvns2b_c1_elab_chemspace_filtered_scored,openbind_xx01zvns2b_c1_elab_chemspace_filtered_scored_top40percent,openbind_xx01zvns2b_c1_elab_chemspace_filtered_scored_top20percent,openbind_xx01zvns2b_c1_elab_chemspace_filtered_scored_top60percent,openbind_xx01zvns2b_c1_elabs_filtered

>  <smiles>  (236) 
CC1(C)CCC[C@@]2(C1)NC(=O)N(CC(=O)Nc1cnn([C@@H]3CCC(=O)NC3)c1)C2=O

>  <subsites>  (236) 
1 - Z4590/B/203/1

>  <gnina_score>  (236) 
5.769

>  <HIPPO Pose ID>  (236) 
70108

>  <ref_mols>  (236) 
Z0701a,Z0719a

>  <energy_score>  (236) 
-58.625164

>  <inspiration_score>  (236) 
None

>  <smina_score_min>  (236) 
-6.101

>  <fragmenstein_error>  (236) 
nan

>  <name>  (236) 
P70108

$$$$
P70110
     RDKit          3D

 31 35  0  0  0  0  0  0  0  0999 V2000
   -4.3120    4.7917  -18.1578 O   0  0  0  0  0  0  0  0  0  0  0  0
   -5.4690    4.9480  -17.7790 C   0  0  0  0  0  0  0  0  0  0  0  0
   -5.8004    5.9261  -16.6972 C   0  0  0  0  0  0  0  0  0  0  0  0
   -7.2544    6.3491  -16.7515 C   0  0  0  0  0  0  0  0  0  0  0  0
   -8.2370    5.1728  -16.7386 C   0  0  2  0  0  0  0  0  0  0  0  0
   -8.2789    4.5866  -15.4029 N   0  0  0  0  0  0  0  0  0  0  0  0
   -7.3239    3.7899  -14.8471 C   0  0  0  0  0  0  0  0  0  0  0  0
   -7.3917    3.9757  -13.4928 C   0  0  0  0  0  0  0  0  0  0  0  0
   -6.4613    3.5522  -12.5922 N   0  0  0  0  0  0  0  0  0  0  0  0
   -5.2509    2.5844  -12.7668 C   0  0  0  0  0  0  0  0  0  0  0  0
   -4.9177    1.9465  -13.6890 O   0  0  0  0  0  0  0  0  0  0  0  0
   -4.4306    2.6755  -11.4747 C   0  0  0  0  0  0  0  0  0  0  0  0
   -3.0308    2.4768  -11.7903 N   0  0  0  0  0  0  0  0  0  0  0  0
   -2.3450    3.2034  -12.7170 C   0  0  0  0  0  0  0  0  0  0  0  0
   -2.7680    4.1024  -13.4292 O   0  0  0  0  0  0  0  0  0  0  0  0
   -1.0299    2.8034  -12.6983 N   0  0  0  0  0  0  0  0  0  0  0  0
   -0.7133    1.9911  -11.5422 C   0  0  2  0  0  0  0  0  0  0  0  0
    0.1437    2.7980  -10.5684 C   0  0  0  0  0  0  0  0  0  0  0  0
    0.2414    2.6601   -9.1909 C   0  0  0  0  0  0  0  0  0  0  0  0
    1.1573    3.5755   -8.5986 C   0  0  0  0  0  0  0  0  0  0  0  0
    1.7503    4.3867   -9.5361 C   0  0  0  0  0  0  0  0  0  0  0  0
    1.2105    4.0403  -11.1169 S   0  0  0  0  0  0  0  0  0  0  0  0
   -0.1808    0.6586  -12.0298 C   0  0  0  0  0  0  0  0  0  0  0  0
    1.2086    0.5043  -12.6133 C   0  0  0  0  0  0  0  0  0  0  0  0
    0.8758   -0.1377  -11.2956 C   0  0  0  0  0  0  0  0  0  0  0  0
   -2.1505    1.8475  -10.9555 C   0  0  0  0  0  0  0  0  0  0  0  0
   -2.4483    1.3123   -9.8938 O   0  0  0  0  0  0  0  0  0  0  0  0
   -8.5045    4.8066  -13.3017 C   0  0  0  0  0  0  0  0  0  0  0  0
   -9.0614    5.1923  -14.4566 N   0  0  0  0  0  0  0  0  0  0  0  0
   -7.9165    4.2960  -17.9340 C   0  0  0  0  0  0  0  0  0  0  0  0
   -6.4999    4.2194  -18.2886 N   0  0  0  0  0  0  0  0  0  0  0  0
  1  2  2  0
  2  3  1  0
  3  4  1  0
  4  5  1  0
  5  6  1  1
  6  7  1  0
  7  8  2  0
  8  9  1  0
  9 10  1  0
 10 11  2  0
 10 12  1  0
 12 13  1  0
 13 14  1  0
 14 15  2  0
 14 16  1  0
 16 17  1  0
 17 18  1  0
 18 19  2  0
 19 20  1  0
 20 21  2  0
 21 22  1  0
 17 23  1  6
 23 24  1  0
 24 25  1  0
 17 26  1  0
 26 27  2  0
  8 28  1  0
 28 29  2  0
  5 30  1  0
 30 31  1  0
 31  2  1  0
 29  6  1  0
 26 13  1  0
 22 18  1  0
 25 23  1  0
M  END
>  <fragmenstein_outcome>  (237) 
nan

>  <exports>  (237) 
['/opt/xchem-fragalysis-2/maxwin/openbind-hippo/xx01zvns2b/cycle_01/syndirella/elabs/openbind_xx01zvns2b_c1_elab_chemspace_filtered.sdf']

>  <Energy>  (237) 
nan

>  <alias>  (237) 
None

>  <fragmenstein_runtime>  (237) 
nan

>  <scratch_subdir>  (237) 
nan

>  <HIPPO Compound ID>  (237) 
141500

>  <rmsd(smina/fragmenstein)>  (237) 
1.716

>  <distance_score>  (237) 
1.817032

>  <orig_smiles>  (237) 
nan

>  <fragmenstein_mode>  (237) 
nan

>  <inchikey>  (237) 
DXNBXMJKDJGMII-XOBRGWDASA-N

>  <ref_pdb>  (237) 
Z0719a

>  <GNINA pK>  (237) 
nan

>  <gnina_score_min>  (237) 
5.589

>  <tags>  (237) 
openbind_xx01zvns2b_c1_elab_nonasap_filtered_scored_top80percent,openbind_xx01zvns2b_c1_elab_chemspace_filtered_scored_top80percent,openbind_xx01zvns2b_c1_elab_chemspace_filtered_scored,openbind_xx01zvns2b_c1_elab_chemspace_filtered_scored_top40percent,openbind_xx01zvns2b_c1_elab_chemspace_filtered_scored_top20percent,openbind_xx01zvns2b_c1_elab_chemspace_filtered_scored_top60percent,openbind_xx01zvns2b_c1_elabs_filtered

>  <smiles>  (237) 
O=C1CC[C@H](n2cc(NC(=O)CN3C(=O)N[C@](c4cccs4)(C4CC4)C3=O)cn2)CN1

>  <subsites>  (237) 
1 - Z4590/B/203/1

>  <gnina_score>  (237) 
5.975

>  <HIPPO Pose ID>  (237) 
70110

>  <ref_mols>  (237) 
Z0701a,Z0719a

>  <energy_score>  (237) 
-48.210693

>  <inspiration_score>  (237) 
None

>  <smina_score_min>  (237) 
-6.814

>  <fragmenstein_error>  (237) 
nan

>  <name>  (237) 
P70110

$$$$
P70112
     RDKit          3D

 31 34  0  0  0  0  0  0  0  0999 V2000
   -7.2621    4.0181  -15.1146 C   0  0  0  0  0  0  0  0  0  0  0  0
   -8.1146    5.1423  -15.6861 C   0  0  0  0  0  0  0  0  0  0  0  0
   -8.7679    5.8718  -14.4987 C   0  0  0  0  0  0  0  0  0  0  0  0
   -9.2212    4.5844  -16.5904 C   0  0  0  0  0  0  0  0  0  0  0  0
   -8.6745    3.9984  -17.8647 C   0  0  0  0  0  0  0  0  0  0  0  0
   -7.8748    4.9915  -18.6580 C   0  0  0  0  0  0  0  0  0  0  0  0
   -6.8221    5.7652  -17.8892 C   0  0  2  0  0  0  0  0  0  0  0  0
   -7.1707    6.1033  -16.4279 C   0  0  0  0  0  0  0  0  0  0  0  0
   -6.5269    6.9995  -18.6152 N   0  0  0  0  0  0  0  0  0  0  0  0
   -5.1919    7.1625  -18.8801 C   0  0  0  0  0  0  0  0  0  0  0  0
   -4.7382    8.0771  -19.5472 O   0  0  0  0  0  0  0  0  0  0  0  0
   -4.5148    6.1431  -18.3150 N   0  0  0  0  0  0  0  0  0  0  0  0
   -3.0735    5.9954  -18.2221 C   0  0  0  0  0  0  0  0  0  0  0  0
   -2.6711    6.1603  -16.7336 C   0  0  0  0  0  0  0  0  0  0  0  0
   -2.2124    7.1458  -16.2993 O   0  0  0  0  0  0  0  0  0  0  0  0
   -3.0989    4.8417  -16.0151 N   0  0  0  0  0  0  0  0  0  0  0  0
   -3.1341    4.5285  -14.6908 C   0  0  0  0  0  0  0  0  0  0  0  0
   -2.7622    5.2364  -13.5397 C   0  0  0  0  0  0  0  0  0  0  0  0
   -3.1419    4.6023  -12.4202 N   0  0  0  0  0  0  0  0  0  0  0  0
   -3.8341    3.5278  -12.8739 N   0  0  0  0  0  0  0  0  0  0  0  0
   -4.6249    2.6887  -11.9722 C   0  0  1  0  0  0  0  0  0  0  0  0
   -4.8652    3.3048  -10.5853 C   0  0  0  0  0  0  0  0  0  0  0  0
   -5.7735    4.5297  -10.6740 C   0  0  0  0  0  0  0  0  0  0  0  0
   -7.0326    4.2554  -11.4623 C   0  0  0  0  0  0  0  0  0  0  0  0
   -7.9686    5.0494  -11.4804 O   0  0  0  0  0  0  0  0  0  0  0  0
   -7.0628    3.0882  -12.1721 N   0  0  0  0  0  0  0  0  0  0  0  0
   -5.9868    2.3288  -12.5629 C   0  0  0  0  0  0  0  0  0  0  0  0
   -6.1606    1.4384  -13.3936 O   0  0  0  0  0  0  0  0  0  0  0  0
   -3.6988    3.3709  -14.2221 C   0  0  0  0  0  0  0  0  0  0  0  0
   -5.4021    5.1930  -17.9200 C   0  0  0  0  0  0  0  0  0  0  0  0
   -5.0361    4.0998  -17.5226 O   0  0  0  0  0  0  0  0  0  0  0  0
  1  2  1  0
  2  3  1  0
  2  4  1  0
  4  5  1  0
  5  6  1  0
  7  6  1  6
  7  8  1  0
  7  9  1  0
  9 10  1  0
 10 11  2  0
 10 12  1  0
 12 13  1  0
 13 14  1  0
 14 15  2  0
 14 16  1  0
 16 17  1  0
 17 18  1  0
 18 19  2  0
 19 20  1  0
 21 20  1  6
 21 22  1  0
 22 23  1  0
 23 24  1  0
 24 25  2  0
 24 26  1  0
 26 27  1  0
 27 28  2  0
 20 29  1  0
 12 30  1  0
 30 31  2  0
  8  2  1  0
 29 17  2  0
 30  7  1  0
 27 21  1  0
M  END
>  <fragmenstein_outcome>  (238) 
nan

>  <exports>  (238) 
['/opt/xchem-fragalysis-2/maxwin/openbind-hippo/xx01zvns2b/cycle_01/syndirella/elabs/openbind_xx01zvns2b_c1_elab_chemspace_filtered.sdf']

>  <Energy>  (238) 
nan

>  <alias>  (238) 
None

>  <fragmenstein_runtime>  (238) 
nan

>  <scratch_subdir>  (238) 
nan

>  <HIPPO Compound ID>  (238) 
141510

>  <rmsd(smina/fragmenstein)>  (238) 
1.378

>  <distance_score>  (238) 
1.678464

>  <orig_smiles>  (238) 
nan

>  <fragmenstein_mode>  (238) 
nan

>  <inchikey>  (238) 
LLEYPFZDLYXPQX-RNODOKPDSA-N

>  <ref_pdb>  (238) 
Z0719a

>  <GNINA pK>  (238) 
nan

>  <gnina_score_min>  (238) 
5.379

>  <tags>  (238) 
openbind_xx01zvns2b_c1_elab_nonasap_filtered_scored_top80percent,openbind_xx01zvns2b_c1_elab_chemspace_filtered_scored_top80percent,openbind_xx01zvns2b_c1_elab_chemspace_filtered_scored,openbind_xx01zvns2b_c1_elab_chemspace_filtered_scored_top40percent,openbind_xx01zvns2b_c1_elab_chemspace_filtered_scored_top20percent,openbind_xx01zvns2b_c1_elab_chemspace_filtered_scored_top60percent,openbind_xx01zvns2b_c1_elabs_filtered

>  <smiles>  (238) 
CC1(C)CCC[C@]2(C1)NC(=O)N(CC(=O)Nc1cnn([C@H]3CCC(=O)NC3=O)c1)C2=O

>  <subsites>  (238) 
1 - Z4590/B/203/1

>  <gnina_score>  (238) 
5.674

>  <HIPPO Pose ID>  (238) 
70112

>  <ref_mols>  (238) 
Z0701a,Z0719a

>  <energy_score>  (238) 
-86.083913

>  <inspiration_score>  (238) 
None

>  <smina_score_min>  (238) 
-6.355

>  <fragmenstein_error>  (238) 
nan

>  <name>  (238) 
P70112

$$$$
P70114
     RDKit          3D

 31 34  0  0  0  0  0  0  0  0999 V2000
   -7.3930    5.5992  -12.1902 O   0  0  0  0  0  0  0  0  0  0  0  0
   -6.6276    4.6390  -12.1900 C   0  0  0  0  0  0  0  0  0  0  0  0
   -5.4039    4.6199  -11.2998 C   0  0  0  0  0  0  0  0  0  0  0  0
   -4.8816    3.2087  -11.0632 C   0  0  0  0  0  0  0  0  0  0  0  0
   -4.6974    2.4729  -12.3948 C   0  0  2  0  0  0  0  0  0  0  0  0
   -3.6525    3.0813  -13.2209 N   0  0  0  0  0  0  0  0  0  0  0  0
   -3.7772    3.8136  -14.3756 C   0  0  0  0  0  0  0  0  0  0  0  0
   -2.5713    4.4438  -14.5584 C   0  0  0  0  0  0  0  0  0  0  0  0
   -2.2773    5.3615  -15.5243 N   0  0  0  0  0  0  0  0  0  0  0  0
   -1.0080    6.2351  -15.7336 C   0  0  0  0  0  0  0  0  0  0  0  0
    0.0083    6.2453  -15.1555 O   0  0  0  0  0  0  0  0  0  0  0  0
   -1.3340    7.2527  -16.8438 C   0  0  0  0  0  0  0  0  0  0  0  0
   -2.2526    6.7713  -17.8521 N   0  0  0  0  0  0  0  0  0  0  0  0
   -3.6428    7.2756  -18.2550 C   0  0  0  0  0  0  0  0  0  0  0  0
   -4.2406    8.2041  -17.8948 O   0  0  0  0  0  0  0  0  0  0  0  0
   -4.1951    6.4104  -19.3288 C   0  0  1  0  0  0  0  0  0  0  0  0
   -4.1402    4.9093  -19.2181 C   0  0  0  0  0  0  0  0  0  0  0  0
   -5.4770    5.6075  -19.2623 C   0  0  1  0  0  0  0  0  0  0  0  0
   -6.4110    5.4095  -18.0988 C   0  0  0  0  0  0  0  0  0  0  0  0
   -6.1158    5.7978  -16.7913 C   0  0  0  0  0  0  0  0  0  0  0  0
   -7.0257    5.6336  -15.7572 C   0  0  0  0  0  0  0  0  0  0  0  0
   -8.2692    5.0705  -16.0024 C   0  0  0  0  0  0  0  0  0  0  0  0
   -9.3115    4.9825  -14.6499 Cl  0  0  0  0  0  0  0  0  0  0  0  0
   -8.6044    4.6736  -17.2927 C   0  0  0  0  0  0  0  0  0  0  0  0
  -10.1588    4.1089  -17.7305 Cl  0  0  0  0  0  0  0  0  0  0  0  0
   -7.6704    4.8210  -18.3177 C   0  0  0  0  0  0  0  0  0  0  0  0
   -1.7462    3.9543  -13.5307 C   0  0  0  0  0  0  0  0  0  0  0  0
   -2.3883    3.0942  -12.7374 N   0  0  0  0  0  0  0  0  0  0  0  0
   -6.0501    2.4224  -13.0664 C   0  0  0  0  0  0  0  0  0  0  0  0
   -6.4839    1.4141  -13.6150 O   0  0  0  0  0  0  0  0  0  0  0  0
   -6.8062    3.5672  -13.0261 N   0  0  0  0  0  0  0  0  0  0  0  0
  1  2  2  0
  2  3  1  0
  3  4  1  0
  4  5  1  0
  5  6  1  6
  6  7  1  0
  7  8  2  0
  8  9  1  0
  9 10  1  0
 10 11  2  0
 10 12  1  0
 12 13  1  0
 13 14  1  0
 14 15  2  0
 16 14  1  1
 16 17  1  0
 17 18  1  0
 18 19  1  1
 19 20  2  0
 20 21  1  0
 21 22  2  0
 22 23  1  0
 22 24  1  0
 24 25  1  0
 24 26  2  0
  8 27  1  0
 27 28  2  0
  5 29  1  0
 29 30  2  0
 29 31  1  0
 31  2  1  0
 28  6  1  0
 18 16  1  0
 26 19  1  0
M  END
>  <fragmenstein_outcome>  (239) 
nan

>  <exports>  (239) 
['/opt/xchem-fragalysis-2/maxwin/openbind-hippo/xx01zvns2b/cycle_01/syndirella/elabs/openbind_xx01zvns2b_c1_elab_chemspace_filtered.sdf']

>  <Energy>  (239) 
nan

>  <alias>  (239) 
None

>  <fragmenstein_runtime>  (239) 
nan

>  <scratch_subdir>  (239) 
nan

>  <HIPPO Compound ID>  (239) 
141584

>  <rmsd(smina/fragmenstein)>  (239) 
1.178

>  <distance_score>  (239) 
1.860902

>  <orig_smiles>  (239) 
nan

>  <fragmenstein_mode>  (239) 
nan

>  <inchikey>  (239) 
MCLHPJUWDYESCG-XEZPLFJOSA-N

>  <ref_pdb>  (239) 
Z0719a

>  <GNINA pK>  (239) 
nan

>  <gnina_score_min>  (239) 
5.646

>  <tags>  (239) 
openbind_xx01zvns2b_c1_elab_nonasap_filtered_scored_top80percent,openbind_xx01zvns2b_c1_elab_chemspace_filtered_scored_top80percent,openbind_xx01zvns2b_c1_elab_chemspace_filtered_scored,openbind_xx01zvns2b_c1_elab_chemspace_filtered_scored_top40percent,openbind_xx01zvns2b_c1_elab_chemspace_filtered_scored_top20percent,openbind_xx01zvns2b_c1_elab_chemspace_filtered_scored_top60percent,openbind_xx01zvns2b_c1_elabs_filtered

>  <smiles>  (239) 
O=C1CC[C@H](n2cc(NC(=O)CNC(=O)[C@H]3C[C@H]3c3ccc(Cl)c(Cl)c3)cn2)C(=O)N1

>  <subsites>  (239) 
1 - Z4590/B/203/1

>  <gnina_score>  (239) 
6.032

>  <HIPPO Pose ID>  (239) 
70114

>  <ref_mols>  (239) 
Z0701a,Z0719a

>  <energy_score>  (239) 
-10.245423

>  <inspiration_score>  (239) 
None

>  <smina_score_min>  (239) 
-6.901

>  <fragmenstein_error>  (239) 
nan

>  <name>  (239) 
P70114

$$$$
P70117
     RDKit          3D

 31 34  0  0  0  0  0  0  0  0999 V2000
   -8.4240    5.2561  -14.2759 C   0  0  0  0  0  0  0  0  0  0  0  0
   -8.0823    5.4964  -15.7364 C   0  0  2  0  0  0  0  0  0  0  0  0
   -8.9035    4.5918  -16.6364 C   0  0  0  0  0  0  0  0  0  0  0  0
   -8.5607    4.7897  -18.1079 C   0  0  2  0  0  0  0  0  0  0  0  0
   -9.4644    3.9261  -18.9146 C   0  0  0  0  0  0  0  0  0  0  0  0
   -7.0810    4.5724  -18.4028 C   0  0  0  0  0  0  0  0  0  0  0  0
   -6.2816    5.5227  -17.5444 C   0  0  2  0  0  0  0  0  0  0  0  0
   -6.5967    5.3459  -16.0463 C   0  0  0  0  0  0  0  0  0  0  0  0
   -6.4743    6.8813  -18.0046 N   0  0  0  0  0  0  0  0  0  0  0  0
   -5.3096    7.4932  -18.3575 C   0  0  0  0  0  0  0  0  0  0  0  0
   -5.2473    8.6326  -18.7904 O   0  0  0  0  0  0  0  0  0  0  0  0
   -4.2816    6.6419  -18.1097 N   0  0  0  0  0  0  0  0  0  0  0  0
   -2.9309    7.0890  -17.8154 C   0  0  0  0  0  0  0  0  0  0  0  0
   -2.9809    7.2266  -16.2751 C   0  0  0  0  0  0  0  0  0  0  0  0
   -3.5120    8.1213  -15.7387 O   0  0  0  0  0  0  0  0  0  0  0  0
   -2.3131    5.9460  -15.6836 N   0  0  0  0  0  0  0  0  0  0  0  0
   -2.2538    5.4923  -14.4012 C   0  0  0  0  0  0  0  0  0  0  0  0
   -1.5094    4.4310  -13.8652 C   0  0  0  0  0  0  0  0  0  0  0  0
   -1.9963    4.0224  -12.6908 N   0  0  0  0  0  0  0  0  0  0  0  0
   -3.0640    4.8252  -12.4941 N   0  0  0  0  0  0  0  0  0  0  0  0
   -4.1501    4.4140  -11.6106 C   0  0  2  0  0  0  0  0  0  0  0  0
   -4.0859    2.9694  -11.0825 C   0  0  0  0  0  0  0  0  0  0  0  0
   -4.4473    1.9259  -12.1485 C   0  0  0  0  0  0  0  0  0  0  0  0
   -5.6823    2.3271  -12.9371 C   0  0  0  0  0  0  0  0  0  0  0  0
   -6.5939    1.5525  -13.1975 O   0  0  0  0  0  0  0  0  0  0  0  0
   -5.6486    3.6276  -13.3705 N   0  0  0  0  0  0  0  0  0  0  0  0
   -5.4896    4.5199  -12.3341 C   0  0  0  0  0  0  0  0  0  0  0  0
   -6.3590    5.2886  -11.9359 O   0  0  0  0  0  0  0  0  0  0  0  0
   -3.1158    5.8584  -13.3979 C   0  0  0  0  0  0  0  0  0  0  0  0
   -4.7613    5.4210  -17.7088 C   0  0  0  0  0  0  0  0  0  0  0  0
   -4.0536    4.4724  -17.3930 O   0  0  0  0  0  0  0  0  0  0  0  0
  2  1  1  1
  2  3  1  0
  3  4  1  0
  4  5  1  6
  4  6  1  0
  7  6  1  6
  7  8  1  0
  7  9  1  0
  9 10  1  0
 10 11  2  0
 10 12  1  0
 12 13  1  0
 13 14  1  0
 14 15  2  0
 14 16  1  0
 16 17  1  0
 17 18  1  0
 18 19  2  0
 19 20  1  0
 21 20  1  6
 21 22  1  0
 22 23  1  0
 23 24  1  0
 24 25  2  0
 24 26  1  0
 26 27  1  0
 27 28  2  0
 20 29  1  0
 12 30  1  0
 30 31  2  0
  8  2  1  0
 29 17  2  0
 30  7  1  0
 27 21  1  0
M  END
>  <fragmenstein_outcome>  (240) 
nan

>  <exports>  (240) 
['/opt/xchem-fragalysis-2/maxwin/openbind-hippo/xx01zvns2b/cycle_01/syndirella/elabs/openbind_xx01zvns2b_c1_elab_chemspace_filtered.sdf']

>  <Energy>  (240) 
nan

>  <alias>  (240) 
None

>  <fragmenstein_runtime>  (240) 
nan

>  <scratch_subdir>  (240) 
nan

>  <HIPPO Compound ID>  (240) 
141587

>  <rmsd(smina/fragmenstein)>  (240) 
0.748

>  <distance_score>  (240) 
1.730158

>  <orig_smiles>  (240) 
nan

>  <fragmenstein_mode>  (240) 
nan

>  <inchikey>  (240) 
PLLUBJOWTVCZAZ-QJVCWMCKSA-N

>  <ref_pdb>  (240) 
Z0719a

>  <GNINA pK>  (240) 
nan

>  <gnina_score_min>  (240) 
5.443

>  <tags>  (240) 
openbind_xx01zvns2b_c1_elab_nonasap_filtered_scored_top80percent,openbind_xx01zvns2b_c1_elab_chemspace_filtered_scored_top80percent,openbind_xx01zvns2b_c1_elab_chemspace_filtered_scored,openbind_xx01zvns2b_c1_elab_chemspace_filtered_scored_top40percent,openbind_xx01zvns2b_c1_elab_chemspace_filtered_scored_top20percent,openbind_xx01zvns2b_c1_elab_chemspace_filtered_scored_top60percent,openbind_xx01zvns2b_c1_elabs_filtered

>  <smiles>  (240) 
C[C@@H]1C[C@H](C)C[C@]2(C1)NC(=O)N(CC(=O)Nc1cnn([C@@H]3CCC(=O)NC3=O)c1)C2=O

>  <subsites>  (240) 
1 - Z4590/B/203/1

>  <gnina_score>  (240) 
5.461

>  <HIPPO Pose ID>  (240) 
70117

>  <ref_mols>  (240) 
Z0701a,Z0719a

>  <energy_score>  (240) 
-51.953015

>  <inspiration_score>  (240) 
None

>  <smina_score_min>  (240) 
-6.071

>  <fragmenstein_error>  (240) 
nan

>  <name>  (240) 
P70117

$$$$
P70119
     RDKit          3D

 31 34  0  0  0  0  0  0  0  0999 V2000
   -8.3377    5.1235  -14.0536 C   0  0  0  0  0  0  0  0  0  0  0  0
   -8.0874    5.5167  -15.4984 C   0  0  2  0  0  0  0  0  0  0  0  0
   -9.1615    4.9286  -16.3928 C   0  0  0  0  0  0  0  0  0  0  0  0
   -8.8692    4.8778  -17.9002 C   0  0  0  0  0  0  0  0  0  0  0  0
  -10.2093    5.0708  -18.6191 C   0  0  0  0  0  0  0  0  0  0  0  0
   -8.5044    3.4853  -18.2880 C   0  0  0  0  0  0  0  0  0  0  0  0
   -7.6400    5.7055  -18.3729 C   0  0  0  0  0  0  0  0  0  0  0  0
   -6.4807    5.8484  -17.3661 C   0  0  2  0  0  0  0  0  0  0  0  0
   -6.6989    5.1660  -16.0058 C   0  0  0  0  0  0  0  0  0  0  0  0
   -6.2130    7.2709  -17.1498 N   0  0  0  0  0  0  0  0  0  0  0  0
   -4.9320    7.6157  -17.4521 C   0  0  0  0  0  0  0  0  0  0  0  0
   -4.4003    8.6401  -17.0480 O   0  0  0  0  0  0  0  0  0  0  0  0
   -4.3055    6.5747  -18.0378 N   0  0  0  0  0  0  0  0  0  0  0  0
   -2.8488    6.4846  -18.1068 C   0  0  0  0  0  0  0  0  0  0  0  0
   -2.4228    5.7911  -16.7984 C   0  0  0  0  0  0  0  0  0  0  0  0
   -1.9211    4.7343  -16.7961 O   0  0  0  0  0  0  0  0  0  0  0  0
   -2.8796    6.6948  -15.6126 N   0  0  0  0  0  0  0  0  0  0  0  0
   -2.8968    6.4532  -14.2758 C   0  0  0  0  0  0  0  0  0  0  0  0
   -3.3015    7.2815  -13.2180 C   0  0  0  0  0  0  0  0  0  0  0  0
   -3.5118    6.5815  -12.0978 N   0  0  0  0  0  0  0  0  0  0  0  0
   -3.3227    5.2969  -12.4899 N   0  0  0  0  0  0  0  0  0  0  0  0
   -3.8545    4.2254  -11.6548 C   0  0  2  0  0  0  0  0  0  0  0  0
   -3.3660    2.8056  -11.9806 C   0  0  0  0  0  0  0  0  0  0  0  0
   -4.0855    2.1704  -13.1683 C   0  0  0  0  0  0  0  0  0  0  0  0
   -5.5845    2.2758  -13.0741 C   0  0  0  0  0  0  0  0  0  0  0  0
   -6.3590    1.4103  -13.4647 O   0  0  0  0  0  0  0  0  0  0  0  0
   -6.0702    3.4602  -12.6160 N   0  0  0  0  0  0  0  0  0  0  0  0
   -5.3945    4.2550  -11.6167 C   0  0  0  0  0  0  0  0  0  0  0  0
   -2.7411    5.2102  -13.7195 C   0  0  0  0  0  0  0  0  0  0  0  0
   -5.1020    5.4608  -17.9411 C   0  0  0  0  0  0  0  0  0  0  0  0
   -4.7076    4.3268  -18.1514 O   0  0  0  0  0  0  0  0  0  0  0  0
  2  1  1  1
  2  3  1  0
  3  4  1  0
  4  5  1  0
  4  6  1  0
  4  7  1  0
  8  7  1  6
  8  9  1  0
  8 10  1  0
 10 11  1  0
 11 12  2  0
 11 13  1  0
 13 14  1  0
 14 15  1  0
 15 16  2  0
 15 17  1  0
 17 18  1  0
 18 19  1  0
 19 20  2  0
 20 21  1  0
 22 21  1  6
 22 23  1  0
 23 24  1  0
 24 25  1  0
 25 26  2  0
 25 27  1  0
 27 28  1  0
 21 29  1  0
 13 30  1  0
 30 31  2  0
  9  2  1  0
 29 18  2  0
 30  8  1  0
 28 22  1  0
M  END
>  <fragmenstein_outcome>  (241) 
nan

>  <exports>  (241) 
['/opt/xchem-fragalysis-2/maxwin/openbind-hippo/xx01zvns2b/cycle_01/syndirella/elabs/openbind_xx01zvns2b_c1_elab_chemspace_filtered.sdf']

>  <Energy>  (241) 
nan

>  <alias>  (241) 
None

>  <fragmenstein_runtime>  (241) 
nan

>  <scratch_subdir>  (241) 
nan

>  <HIPPO Compound ID>  (241) 
141590

>  <rmsd(smina/fragmenstein)>  (241) 
1.214

>  <distance_score>  (241) 
1.641635

>  <orig_smiles>  (241) 
nan

>  <fragmenstein_mode>  (241) 
nan

>  <inchikey>  (241) 
QRGMYILAUMOQDR-VWLHBSKXSA-N

>  <ref_pdb>  (241) 
Z0719a

>  <GNINA pK>  (241) 
nan

>  <gnina_score_min>  (241) 
5.586

>  <tags>  (241) 
openbind_xx01zvns2b_c1_elab_nonasap_filtered_scored_top80percent,openbind_xx01zvns2b_c1_elab_chemspace_filtered_scored_top80percent,openbind_xx01zvns2b_c1_elab_chemspace_filtered_scored,openbind_xx01zvns2b_c1_elab_chemspace_filtered_scored_top40percent,openbind_xx01zvns2b_c1_elab_chemspace_filtered_scored_top20percent,openbind_xx01zvns2b_c1_elab_chemspace_filtered_scored_top60percent,openbind_xx01zvns2b_c1_elabs_filtered

>  <smiles>  (241) 
C[C@@H]1CC(C)(C)C[C@]2(C1)NC(=O)N(CC(=O)Nc1cnn([C@@H]3CCC(=O)NC3)c1)C2=O

>  <subsites>  (241) 
1 - Z4590/B/203/1

>  <gnina_score>  (241) 
5.755

>  <HIPPO Pose ID>  (241) 
70119

>  <ref_mols>  (241) 
Z0701a,Z0719a

>  <energy_score>  (241) 
-69.795948

>  <inspiration_score>  (241) 
None

>  <smina_score_min>  (241) 
-5.077

>  <fragmenstein_error>  (241) 
nan

>  <name>  (241) 
P70119

$$$$
P70124
     RDKit          3D

 32 35  0  0  0  0  0  0  0  0999 V2000
   -0.7104    8.7536  -16.5747 C   0  0  0  0  0  0  0  0  0  0  0  0
   -1.4814    7.9285  -16.9829 C   0  0  0  0  0  0  0  0  0  0  0  0
   -2.4293    6.9192  -17.4835 C   0  0  0  0  0  0  0  0  0  0  0  0
   -2.7037    5.8532  -16.4222 C   0  0  0  0  0  0  0  0  0  0  0  0
   -3.7831    4.5398  -17.0434 S   0  0  0  0  0  0  0  0  0  0  0  0
   -5.2816    5.3472  -17.0570 C   0  0  0  0  0  0  0  0  0  0  0  0
   -5.9495    5.8251  -16.0030 C   0  0  0  0  0  0  0  0  0  0  0  0
   -5.7101    5.6326  -14.5399 C   0  0  0  0  0  0  0  0  0  0  0  0
   -5.7464    6.5243  -13.7872 O   0  0  0  0  0  0  0  0  0  0  0  0
   -5.5355    4.1137  -14.2896 N   0  0  0  0  0  0  0  0  0  0  0  0
   -5.4693    3.4141  -13.1288 C   0  0  0  0  0  0  0  0  0  0  0  0
   -4.9968    2.1269  -12.8395 C   0  0  0  0  0  0  0  0  0  0  0  0
   -5.1607    1.8110  -11.5503 N   0  0  0  0  0  0  0  0  0  0  0  0
   -5.8154    2.8728  -11.0404 N   0  0  0  0  0  0  0  0  0  0  0  0
   -6.2248    2.8885   -9.6389 C   0  0  2  0  0  0  0  0  0  0  0  0
   -7.7556    2.8954   -9.4746 C   0  0  0  0  0  0  0  0  0  0  0  0
   -8.3159    4.2695   -9.1243 C   0  0  0  0  0  0  0  0  0  0  0  0
   -7.6432    4.8356   -7.8959 C   0  0  0  0  0  0  0  0  0  0  0  0
   -8.2229    5.5151   -7.0553 O   0  0  0  0  0  0  0  0  0  0  0  0
   -6.3027    4.5864   -7.7955 N   0  0  0  0  0  0  0  0  0  0  0  0
   -5.5336    4.0467   -8.8974 C   0  0  0  0  0  0  0  0  0  0  0  0
   -5.9907    3.8688  -11.9506 C   0  0  0  0  0  0  0  0  0  0  0  0
   -7.1325    6.4246  -16.3713 N   0  0  0  0  0  0  0  0  0  0  0  0
   -8.2886    5.9204  -15.8470 C   0  0  0  0  0  0  0  0  0  0  0  0
   -8.7362    5.9302  -14.7231 O   0  0  0  0  0  0  0  0  0  0  0  0
   -8.6630    5.2784  -17.1864 C   0  0  2  0  0  0  0  0  0  0  0  0
   -8.7458    3.8108  -17.1553 C   0  0  2  0  0  0  0  0  0  0  0  0
   -9.4394    3.4054  -18.4249 C   0  0  0  0  0  0  0  0  0  0  0  0
   -9.5958    3.4408  -16.1079 O   0  0  0  0  0  0  0  0  0  0  0  0
   -7.4165    6.0174  -17.7861 C   0  0  2  0  0  0  0  0  0  0  0  0
   -6.0534    5.5790  -18.3201 C   0  0  2  0  0  0  0  0  0  0  0  0
   -6.1565    4.4267  -19.2753 C   0  0  0  0  0  0  0  0  0  0  0  0
  1  2  3  0
  2  3  1  0
  3  4  1  0
  4  5  1  0
  5  6  1  0
  6  7  2  0
  7  8  1  0
  8  9  2  0
  8 10  1  0
 10 11  1  0
 11 12  1  0
 12 13  2  0
 13 14  1  0
 15 14  1  6
 15 16  1  0
 16 17  1  0
 17 18  1  0
 18 19  2  0
 18 20  1  0
 20 21  1  0
 14 22  1  0
  7 23  1  0
 23 24  1  0
 24 25  2  0
 26 24  1  1
 26 27  1  0
 27 28  1  6
 27 29  1  0
 26 30  1  0
 30 31  1  0
 31 32  1  1
 31  6  1  0
 22 11  2  0
 30 23  1  1
 21 15  1  0
M  END
>  <fragmenstein_outcome>  (242) 
nan

>  <exports>  (242) 
['/opt/xchem-fragalysis-2/maxwin/openbind-hippo/xx01zvns2b/cycle_01/syndirella/elabs/openbind_xx01zvns2b_c1_elab_chemspace_filtered.sdf']

>  <Energy>  (242) 
nan

>  <alias>  (242) 
None

>  <fragmenstein_runtime>  (242) 
nan

>  <scratch_subdir>  (242) 
nan

>  <HIPPO Compound ID>  (242) 
141595

>  <rmsd(smina/fragmenstein)>  (242) 
0.728

>  <distance_score>  (242) 
1.751262

>  <orig_smiles>  (242) 
nan

>  <fragmenstein_mode>  (242) 
nan

>  <inchikey>  (242) 
WSEZWCKWGNNADW-AXRYGOTBSA-N

>  <ref_pdb>  (242) 
Z0719a

>  <GNINA pK>  (242) 
nan

>  <gnina_score_min>  (242) 
6.117

>  <tags>  (242) 
openbind_xx01zvns2b_c1_elab_nonasap_filtered_scored_top80percent,openbind_xx01zvns2b_c1_elab_chemspace_filtered_scored_top80percent,openbind_xx01zvns2b_c1_elab_chemspace_filtered_scored,openbind_xx01zvns2b_c1_elab_chemspace_filtered_scored_top40percent,openbind_xx01zvns2b_c1_elab_chemspace_filtered_scored_top20percent,openbind_xx01zvns2b_c1_elab_chemspace_filtered_scored_top60percent,openbind_xx01zvns2b_c1_elabs_filtered

>  <smiles>  (242) 
C#CCCSC1=C(C(=O)Nc2cnn([C@@H]3CCC(=O)NC3)c2)N2C(=O)[C@H]([C@H](C)O)[C@@H]2[C@@H]1C

>  <subsites>  (242) 
1 - Z4590/B/203/1

>  <gnina_score>  (242) 
6.362

>  <HIPPO Pose ID>  (242) 
70124

>  <ref_mols>  (242) 
Z0701a,Z0719a

>  <energy_score>  (242) 
-96.517307

>  <inspiration_score>  (242) 
None

>  <smina_score_min>  (242) 
-5.116

>  <fragmenstein_error>  (242) 
nan

>  <name>  (242) 
P70124

$$$$
P70127
     RDKit          3D

 32 35  0  0  0  0  0  0  0  0999 V2000
   -8.3631    3.8680  -12.0902 C   0  0  0  0  0  0  0  0  0  0  0  0
   -7.0124    3.7461  -12.5451 N   0  0  0  0  0  0  0  0  0  0  0  0
   -6.2561    2.6041  -12.9291 C   0  0  0  0  0  0  0  0  0  0  0  0
   -6.5762    1.4581  -13.0468 O   0  0  0  0  0  0  0  0  0  0  0  0
   -4.8452    3.0019  -13.1668 C   0  0  0  0  0  0  0  0  0  0  0  0
   -3.7208    2.1438  -13.2297 C   0  0  0  0  0  0  0  0  0  0  0  0
   -2.6438    2.9633  -13.4529 C   0  0  0  0  0  0  0  0  0  0  0  0
   -3.1398    4.2335  -13.5127 N   0  0  0  0  0  0  0  0  0  0  0  0
   -2.4079    5.4498  -13.8571 C   0  0  1  0  0  0  0  0  0  0  0  0
   -1.1402    5.6324  -13.0317 C   0  0  0  0  0  0  0  0  0  0  0  0
   -0.2497    6.6162  -13.7578 C   0  0  0  0  0  0  0  0  0  0  0  0
   -0.2722    6.2999  -15.2556 C   0  0  0  0  0  0  0  0  0  0  0  0
   -1.5130    6.7488  -15.9720 N   0  0  0  0  0  0  0  0  0  0  0  0
   -1.8158    6.8073  -17.3761 C   0  0  0  0  0  0  0  0  0  0  0  0
   -1.1850    6.4266  -18.3279 O   0  0  0  0  0  0  0  0  0  0  0  0
   -3.1483    7.5974  -17.5806 C   0  0  1  0  0  0  0  0  0  0  0  0
   -3.1164    8.3828  -18.9091 C   0  0  0  0  0  0  0  0  0  0  0  0
   -2.1000    9.9046  -18.7921 S   0  0  0  0  0  0  0  0  0  0  0  0
   -2.0218   10.3080  -20.5536 C   0  0  0  0  0  0  0  0  0  0  0  0
   -4.3404    6.7522  -17.4884 N   0  0  0  0  0  0  0  0  0  0  0  0
   -5.1346    6.6899  -16.3669 C   0  0  0  0  0  0  0  0  0  0  0  0
   -5.0285    7.3577  -15.3541 O   0  0  0  0  0  0  0  0  0  0  0  0
   -6.1194    5.5846  -16.6055 C   0  0  1  0  0  0  0  0  0  0  0  0
   -7.4526    5.6385  -15.8990 C   0  0  0  0  0  0  0  0  0  0  0  0
   -8.3780    4.5483  -16.4502 C   0  0  0  0  0  0  0  0  0  0  0  0
   -8.4164    4.4613  -17.9870 C   0  0  0  0  0  0  0  0  0  0  0  0
   -7.0264    4.5129  -18.6400 C   0  0  0  0  0  0  0  0  0  0  0  0
   -6.2823    5.7071  -18.1118 C   0  0  2  0  0  0  0  0  0  0  0  0
   -4.8523    5.9803  -18.5082 C   0  0  0  0  0  0  0  0  0  0  0  0
   -4.2858    5.6745  -19.5403 O   0  0  0  0  0  0  0  0  0  0  0  0
   -2.0669    5.4500  -15.3655 C   0  0  0  0  0  0  0  0  0  0  0  0
   -4.4742    4.2912  -13.3380 N   0  0  0  0  0  0  0  0  0  0  0  0
  1  2  1  0
  2  3  1  0
  3  4  2  0
  3  5  1  0
  5  6  1  0
  6  7  2  0
  7  8  1  0
  9  8  1  1
  9 10  1  0
 10 11  1  0
 11 12  1  0
 12 13  1  0
 13 14  1  0
 14 15  2  0
 14 16  1  0
 16 17  1  6
 17 18  1  0
 18 19  1  0
 16 20  1  0
 20 21  1  0
 21 22  2  0
 21 23  1  0
 23 24  1  1
 24 25  1  0
 25 26  1  0
 26 27  1  0
 28 27  1  6
 28 29  1  0
 29 30  2  0
 13 31  1  0
  8 32  1  0
 32  5  2  0
 31  9  1  0
 29 20  1  0
 28 23  1  0
M  END
>  <fragmenstein_outcome>  (243) 
nan

>  <exports>  (243) 
['/opt/xchem-fragalysis-2/maxwin/openbind-hippo/xx01zvns2b/cycle_01/syndirella/elabs/openbind_xx01zvns2b_c1_elab_chemspace_filtered.sdf']

>  <Energy>  (243) 
nan

>  <alias>  (243) 
None

>  <fragmenstein_runtime>  (243) 
nan

>  <scratch_subdir>  (243) 
nan

>  <HIPPO Compound ID>  (243) 
141602

>  <rmsd(smina/fragmenstein)>  (243) 
0.472

>  <distance_score>  (243) 
1.870763

>  <orig_smiles>  (243) 
nan

>  <fragmenstein_mode>  (243) 
nan

>  <inchikey>  (243) 
ADCAUMQJPYNGNY-NBOOPKSLSA-N

>  <ref_pdb>  (243) 
Z0719a

>  <GNINA pK>  (243) 
nan

>  <gnina_score_min>  (243) 
5.578

>  <tags>  (243) 
openbind_xx01zvns2b_c1_elab_nonasap_filtered_scored_top80percent,openbind_xx01zvns2b_c1_elab_chemspace_filtered_scored_top80percent,openbind_xx01zvns2b_c1_elab_chemspace_filtered_scored,openbind_xx01zvns2b_c1_elab_chemspace_filtered_scored_top40percent,openbind_xx01zvns2b_c1_elab_chemspace_filtered_scored_top20percent,openbind_xx01zvns2b_c1_elab_chemspace_filtered_scored_top60percent,openbind_xx01zvns2b_c1_elabs_filtered

>  <smiles>  (243) 
CNC(=O)c1ccn([C@H]2CCCN(C(=O)[C@@H](CSC)N3C(=O)[C@H]4CCCC[C@@H]4C3=O)C2)n1

>  <subsites>  (243) 
1 - Z4590/B/203/1

>  <gnina_score>  (243) 
5.644

>  <HIPPO Pose ID>  (243) 
70127

>  <ref_mols>  (243) 
Z0701a,Z0719a

>  <energy_score>  (243) 
-9.051104

>  <inspiration_score>  (243) 
None

>  <smina_score_min>  (243) 
-5.651

>  <fragmenstein_error>  (243) 
nan

>  <name>  (243) 
P70127

$$$$
P70129
     RDKit          3D

 33 38  0  0  0  0  0  0  0  0999 V2000
   -7.1116    7.1959  -13.7537 O   0  0  0  0  0  0  0  0  0  0  0  0
   -7.4765    6.1194  -14.0079 C   0  0  0  0  0  0  0  0  0  0  0  0
   -8.0825    5.0353  -13.1067 N   0  0  0  0  0  0  0  0  0  0  0  0
   -8.4415    5.0738  -11.7765 C   0  0  0  0  0  0  0  0  0  0  0  0
   -8.2417    6.2225  -10.9866 C   0  0  0  0  0  0  0  0  0  0  0  0
   -8.3897    6.1707   -9.6005 C   0  0  0  0  0  0  0  0  0  0  0  0
   -8.7472    4.9528   -9.0609 C   0  0  0  0  0  0  0  0  0  0  0  0
   -9.1111    3.8549   -9.8739 C   0  0  0  0  0  0  0  0  0  0  0  0
   -8.9123    3.8842  -11.2338 C   0  0  0  0  0  0  0  0  0  0  0  0
   -9.2024    2.6313   -9.0109 C   0  0  0  0  0  0  0  0  0  0  0  0
   -8.0978    2.9774   -8.0804 N   0  0  0  0  0  0  0  0  0  0  0  0
   -6.8708    2.8036   -8.8761 C   0  0  0  0  0  0  0  0  0  0  0  0
   -6.6297    1.5593   -9.4918 C   0  0  0  0  0  0  0  0  0  0  0  0
   -5.6942    1.4062  -10.5054 C   0  0  0  0  0  0  0  0  0  0  0  0
   -4.9663    2.5095  -10.9080 C   0  0  0  0  0  0  0  0  0  0  0  0
   -5.0821    3.7097  -10.2132 C   0  0  0  0  0  0  0  0  0  0  0  0
   -5.9837    3.8433   -9.1639 C   0  0  0  0  0  0  0  0  0  0  0  0
   -8.3854    4.3928   -7.7046 C   0  0  0  0  0  0  0  0  0  0  0  0
   -7.3015    5.5905  -15.3762 C   0  0  0  0  0  0  0  0  0  0  0  0
   -8.3444    4.8867  -16.0175 C   0  0  0  0  0  0  0  0  0  0  0  0
   -8.1986    4.4932  -17.3426 C   0  0  0  0  0  0  0  0  0  0  0  0
   -7.0067    4.8074  -17.9596 C   0  0  0  0  0  0  0  0  0  0  0  0
   -5.9643    5.4846  -17.3333 C   0  0  0  0  0  0  0  0  0  0  0  0
   -6.0963    5.8834  -16.0227 C   0  0  0  0  0  0  0  0  0  0  0  0
   -4.8422    5.7229  -18.3203 C   0  0  0  0  0  0  0  0  0  0  0  0
   -3.5298    5.0494  -17.9071 C   0  0  0  0  0  0  0  0  0  0  0  0
   -2.5885    6.0527  -17.2612 C   0  0  0  0  0  0  0  0  0  0  0  0
   -2.2738    7.1664  -18.0963 O   0  0  0  0  0  0  0  0  0  0  0  0
   -3.2419    7.4812  -19.0946 C   0  0  0  0  0  0  0  0  0  0  0  0
   -4.6608    7.2237  -18.6116 C   0  0  0  0  0  0  0  0  0  0  0  0
   -5.4169    5.0486  -19.5915 C   0  0  0  0  0  0  0  0  0  0  0  0
   -4.8925    4.9766  -20.6926 O   0  0  0  0  0  0  0  0  0  0  0  0
   -6.6681    4.5559  -19.2689 N   0  0  0  0  0  0  0  0  0  0  0  0
  1  2  2  0
  2  3  1  0
  3  4  1  0
  4  5  2  0
  5  6  1  0
  6  7  2  0
  7  8  1  0
  8  9  2  0
  8 10  1  0
 10 11  1  0
 11 12  1  0
 12 13  2  0
 13 14  1  0
 14 15  2  0
 15 16  1  0
 16 17  2  0
 11 18  1  0
  2 19  1  0
 19 20  2  0
 20 21  1  0
 21 22  2  0
 22 23  1  0
 23 24  2  0
 23 25  1  0
 25 26  1  0
 26 27  1  0
 27 28  1  0
 28 29  1  0
 29 30  1  0
 25 31  1  0
 31 32  2  0
 31 33  1  0
  9  4  1  0
 17 12  1  0
 24 19  1  0
 30 25  1  0
 18  7  1  0
 33 22  1  0
M  END
>  <fragmenstein_outcome>  (244) 
nan

>  <exports>  (244) 
['/opt/xchem-fragalysis-2/maxwin/openbind-hippo/xx01zvns2b/cycle_01/syndirella/elabs/openbind_xx01zvns2b_c1_elab_chemspace_filtered.sdf']

>  <Energy>  (244) 
nan

>  <alias>  (244) 
None

>  <fragmenstein_runtime>  (244) 
nan

>  <scratch_subdir>  (244) 
nan

>  <HIPPO Compound ID>  (244) 
141606

>  <rmsd(smina/fragmenstein)>  (244) 
1.678

>  <distance_score>  (244) 
1.591776

>  <orig_smiles>  (244) 
nan

>  <fragmenstein_mode>  (244) 
nan

>  <inchikey>  (244) 
BVVQKFQQPXZFHT-UHFFFAOYSA-N

>  <ref_pdb>  (244) 
Z4429a

>  <GNINA pK>  (244) 
nan

>  <gnina_score_min>  (244) 
5.72

>  <tags>  (244) 
openbind_xx01zvns2b_c1_elab_chemspace_filtered_scored_top80percent,openbind_xx01zvns2b_c1_elab_chemspace_filtered_scored,openbind_xx01zvns2b_c1_elab_chemspace_filtered_scored_top40percent,openbind_xx01zvns2b_c1_elab_chemspace_filtered_scored_top20percent,openbind_xx01zvns2b_c1_elab_chemspace_filtered_scored_top60percent,openbind_xx01zvns2b_c1_elabs_filtered

>  <smiles>  (244) 
O=C(Nc1ccc2c(c1)CN(c1ccccc1)C2)c1ccc2c(c1)C1(CCOCC1)C(=O)N2

>  <subsites>  (244) 
1 - Z4590/B/203/1

>  <gnina_score>  (244) 
6.262

>  <HIPPO Pose ID>  (244) 
70129

>  <ref_mols>  (244) 
Z5011a,Z4429a

>  <energy_score>  (244) 
-3.94964

>  <inspiration_score>  (244) 
None

>  <smina_score_min>  (244) 
-7.988

>  <fragmenstein_error>  (244) 
nan

>  <name>  (244) 
P70129

$$$$
P70131
     RDKit          3D

 27 30  0  0  0  0  0  0  0  0999 V2000
   -6.7121    1.5146  -12.9509 O   0  0  0  0  0  0  0  0  0  0  0  0
   -5.9564    2.3463  -13.2561 C   0  0  0  0  0  0  0  0  0  0  0  0
   -6.1961    3.7285  -13.8831 N   0  0  0  0  0  0  0  0  0  0  0  0
   -7.4110    4.3447  -14.3562 C   0  0  0  0  0  0  0  0  0  0  0  0
   -7.5237    4.4771  -15.8572 C   0  0  0  0  0  0  0  0  0  0  0  0
   -8.7540    4.2881  -16.4650 C   0  0  0  0  0  0  0  0  0  0  0  0
   -8.8198    4.5198  -17.8159 C   0  0  0  0  0  0  0  0  0  0  0  0
   -7.7669    4.9273  -18.5332 N   0  0  0  0  0  0  0  0  0  0  0  0
   -6.6081    5.1086  -17.8784 C   0  0  0  0  0  0  0  0  0  0  0  0
   -5.4411    5.6115  -18.6348 C   0  0  0  0  0  0  0  0  0  0  0  0
   -4.1577    5.1154  -18.3835 C   0  0  0  0  0  0  0  0  0  0  0  0
   -3.0665    5.6373  -19.0760 C   0  0  0  0  0  0  0  0  0  0  0  0
   -3.2772    6.6439  -20.0081 C   0  0  0  0  0  0  0  0  0  0  0  0
   -4.5737    7.0891  -20.2050 C   0  0  0  0  0  0  0  0  0  0  0  0
   -5.6430    6.6196  -19.5311 N   0  0  0  0  0  0  0  0  0  0  0  0
   -6.4388    4.9020  -16.5474 N   0  0  0  0  0  0  0  0  0  0  0  0
   -4.5289    2.1179  -12.9148 C   0  0  0  0  0  0  0  0  0  0  0  0
   -4.2025    1.5937  -11.6634 C   0  0  0  0  0  0  0  0  0  0  0  0
   -2.8790    1.2543  -11.3847 C   0  0  0  0  0  0  0  0  0  0  0  0
   -1.9151    1.4366  -12.3741 C   0  0  0  0  0  0  0  0  0  0  0  0
   -0.5214    1.0527  -12.1097 C   0  0  0  0  0  0  0  0  0  0  0  0
    0.0143    1.1215  -10.8342 N   0  0  0  0  0  0  0  0  0  0  0  0
    1.2512    0.7251  -10.9892 C   0  0  0  0  0  0  0  0  0  0  0  0
    1.4668    0.4330  -12.2937 N   0  0  0  0  0  0  0  0  0  0  0  0
    0.3577    0.6011  -13.0342 N   0  0  0  0  0  0  0  0  0  0  0  0
   -2.2078    1.9655  -13.5966 N   0  0  0  0  0  0  0  0  0  0  0  0
   -3.5063    2.2896  -13.8348 C   0  0  0  0  0  0  0  0  0  0  0  0
  1  2  2  0
  2  3  1  0
  3  4  1  0
  4  5  1  0
  5  6  2  0
  6  7  1  0
  7  8  2  0
  8  9  1  0
  9 10  1  0
 10 11  2  0
 11 12  1  0
 12 13  2  0
 13 14  1  0
 14 15  2  0
  9 16  2  0
  2 17  1  0
 17 18  2  0
 18 19  1  0
 19 20  2  0
 20 21  1  0
 21 22  1  0
 22 23  2  0
 23 24  1  0
 24 25  1  0
 20 26  1  0
 26 27  2  0
 16  5  1  0
 27 17  1  0
 15 10  1  0
 25 21  2  0
M  END
>  <fragmenstein_outcome>  (245) 
nan

>  <exports>  (245) 
['/opt/xchem-fragalysis-2/maxwin/openbind-hippo/xx01zvns2b/cycle_01/syndirella/elabs/openbind_xx01zvns2b_c1_elab_chemspace_filtered.sdf']

>  <Energy>  (245) 
nan

>  <alias>  (245) 
None

>  <fragmenstein_runtime>  (245) 
nan

>  <scratch_subdir>  (245) 
nan

>  <HIPPO Compound ID>  (245) 
141729

>  <rmsd(smina/fragmenstein)>  (245) 
0.424

>  <distance_score>  (245) 
1.003594

>  <orig_smiles>  (245) 
nan

>  <fragmenstein_mode>  (245) 
nan

>  <inchikey>  (245) 
YAALBKJOEABSOX-UHFFFAOYSA-N

>  <ref_pdb>  (245) 
Z0719a

>  <GNINA pK>  (245) 
nan

>  <gnina_score_min>  (245) 
5.253

>  <tags>  (245) 
openbind_xx01zvns2b_c1_elab_nonasap_filtered_scored_top80percent,openbind_xx01zvns2b_c1_elab_chemspace_filtered_scored_top80percent,openbind_xx01zvns2b_c1_elab_chemspace_filtered_scored,openbind_xx01zvns2b_c1_elab_chemspace_filtered_scored_top40percent,openbind_xx01zvns2b_c1_elab_chemspace_filtered_scored_top20percent,openbind_xx01zvns2b_c1_elab_chemspace_filtered_scored_top60percent,openbind_xx01zvns2b_c1_elabs_filtered

>  <smiles>  (245) 
O=C(NCc1ccnc(-c2ccccn2)n1)c1ccc(-c2nc[nH]n2)nc1

>  <subsites>  (245) 
1 - Z4590/B/203/1

>  <gnina_score>  (245) 
5.225

>  <HIPPO Pose ID>  (245) 
70131

>  <ref_mols>  (245) 
Z0490a,Z0719a

>  <energy_score>  (245) 
-3.369034

>  <inspiration_score>  (245) 
None

>  <smina_score_min>  (245) 
-7.248

>  <fragmenstein_error>  (245) 
nan

>  <name>  (245) 
P70131

$$$$
P70132
     RDKit          3D

 27 30  0  0  0  0  0  0  0  0999 V2000
   -5.6948    1.8708  -12.8810 O   0  0  0  0  0  0  0  0  0  0  0  0
   -4.7759    2.4715  -12.4965 C   0  0  0  0  0  0  0  0  0  0  0  0
   -4.4478    3.9719  -12.6055 N   0  0  0  0  0  0  0  0  0  0  0  0
   -5.2263    5.0627  -13.1273 C   0  0  0  0  0  0  0  0  0  0  0  0
   -5.4164    4.9586  -14.6199 C   0  0  0  0  0  0  0  0  0  0  0  0
   -4.3869    4.8661  -15.4695 C   0  0  0  0  0  0  0  0  0  0  0  0
   -4.6587    4.7629  -16.9163 C   0  0  0  0  0  0  0  0  0  0  0  0
   -3.6926    4.7315  -17.6800 O   0  0  0  0  0  0  0  0  0  0  0  0
   -5.9990    4.7082  -17.2691 N   0  0  0  0  0  0  0  0  0  0  0  0
   -6.3823    4.5157  -18.5889 C   0  0  0  0  0  0  0  0  0  0  0  0
   -7.6774    4.4144  -18.9216 C   0  0  0  0  0  0  0  0  0  0  0  0
   -8.7017    4.5856  -17.9278 C   0  0  0  0  0  0  0  0  0  0  0  0
  -10.4831    4.6868  -18.3753 Br  0  0  0  0  0  0  0  0  0  0  0  0
   -8.3754    4.7413  -16.6502 C   0  0  0  0  0  0  0  0  0  0  0  0
   -6.9605    4.8058  -16.2812 C   0  0  0  0  0  0  0  0  0  0  0  0
   -6.7151    4.9810  -15.0254 N   0  0  0  0  0  0  0  0  0  0  0  0
   -3.7125    1.8156  -11.7115 C   0  0  0  0  0  0  0  0  0  0  0  0
   -2.4394    1.6426  -12.2474 C   0  0  0  0  0  0  0  0  0  0  0  0
   -1.4208    1.1878  -11.4122 C   0  0  0  0  0  0  0  0  0  0  0  0
   -1.6997    0.9517  -10.0624 C   0  0  0  0  0  0  0  0  0  0  0  0
   -0.6070    0.5778   -9.1472 C   0  0  0  0  0  0  0  0  0  0  0  0
    0.7033    0.4335   -9.5903 N   0  0  0  0  0  0  0  0  0  0  0  0
    1.3704    0.1406   -8.5012 C   0  0  0  0  0  0  0  0  0  0  0  0
    0.5213    0.1193   -7.4456 N   0  0  0  0  0  0  0  0  0  0  0  0
   -0.7301    0.4108   -7.8148 N   0  0  0  0  0  0  0  0  0  0  0  0
   -2.9452    1.1211   -9.5360 N   0  0  0  0  0  0  0  0  0  0  0  0
   -3.9324    1.5198  -10.3764 C   0  0  0  0  0  0  0  0  0  0  0  0
  1  2  2  0
  2  3  1  0
  3  4  1  0
  4  5  1  0
  5  6  2  0
  6  7  1  0
  7  8  2  0
  7  9  1  0
  9 10  1  0
 10 11  2  0
 11 12  1  0
 12 13  1  0
 12 14  2  0
 14 15  1  0
 15 16  2  0
  2 17  1  0
 17 18  2  0
 18 19  1  0
 19 20  2  0
 20 21  1  0
 21 22  1  0
 22 23  2  0
 23 24  1  0
 24 25  1  0
 20 26  1  0
 26 27  2  0
 16  5  1  0
 27 17  1  0
 15  9  1  0
 25 21  2  0
M  END
>  <fragmenstein_outcome>  (246) 
nan

>  <exports>  (246) 
['/opt/xchem-fragalysis-2/maxwin/openbind-hippo/xx01zvns2b/cycle_01/syndirella/elabs/openbind_xx01zvns2b_c1_elab_chemspace_filtered.sdf']

>  <Energy>  (246) 
nan

>  <alias>  (246) 
None

>  <fragmenstein_runtime>  (246) 
nan

>  <scratch_subdir>  (246) 
nan

>  <HIPPO Compound ID>  (246) 
141731

>  <rmsd(smina/fragmenstein)>  (246) 
1.493

>  <distance_score>  (246) 
1.790625

>  <orig_smiles>  (246) 
nan

>  <fragmenstein_mode>  (246) 
nan

>  <inchikey>  (246) 
WXBZFSFYWVHKCD-UHFFFAOYSA-N

>  <ref_pdb>  (246) 
Z0719a

>  <GNINA pK>  (246) 
nan

>  <gnina_score_min>  (246) 
5.376

>  <tags>  (246) 
openbind_xx01zvns2b_c1_elab_nonasap_filtered_scored_top80percent,openbind_xx01zvns2b_c1_elab_chemspace_filtered_scored_top80percent,openbind_xx01zvns2b_c1_elab_chemspace_filtered_scored,openbind_xx01zvns2b_c1_elab_chemspace_filtered_scored_top40percent,openbind_xx01zvns2b_c1_elab_chemspace_filtered_scored_top20percent,openbind_xx01zvns2b_c1_elab_chemspace_filtered_scored_top60percent,openbind_xx01zvns2b_c1_elabs_filtered

>  <smiles>  (246) 
O=C(NCc1cc(=O)n2ccc(Br)cc2n1)c1ccc(-c2nc[nH]n2)nc1

>  <subsites>  (246) 
1 - Z4590/B/203/1

>  <gnina_score>  (246) 
5.48

>  <HIPPO Pose ID>  (246) 
70132

>  <ref_mols>  (246) 
Z0490a,Z0719a

>  <energy_score>  (246) 
-18.914346

>  <inspiration_score>  (246) 
None

>  <smina_score_min>  (246) 
-6.442

>  <fragmenstein_error>  (246) 
nan

>  <name>  (246) 
P70132

$$$$
P70134
     RDKit          3D

 28 31  0  0  0  0  0  0  0  0999 V2000
   -6.1454    3.8559  -11.6372 O   0  0  0  0  0  0  0  0  0  0  0  0
   -5.6828    3.7073  -12.6940 C   0  0  0  0  0  0  0  0  0  0  0  0
   -6.2361    4.0613  -14.0811 N   0  0  0  0  0  0  0  0  0  0  0  0
   -7.5147    4.5863  -14.4690 C   0  0  0  0  0  0  0  0  0  0  0  0
   -7.6198    4.6949  -15.9713 C   0  0  0  0  0  0  0  0  0  0  0  0
   -8.7485    4.3167  -16.5850 C   0  0  0  0  0  0  0  0  0  0  0  0
   -8.8564    4.5003  -18.0348 C   0  0  0  0  0  0  0  0  0  0  0  0
   -9.8261    4.0680  -18.6393 O   0  0  0  0  0  0  0  0  0  0  0  0
   -7.8166    5.1599  -18.6082 N   0  0  0  0  0  0  0  0  0  0  0  0
   -6.6704    5.4551  -17.9128 C   0  0  0  0  0  0  0  0  0  0  0  0
   -5.5765    6.0765  -18.7086 C   0  0  0  0  0  0  0  0  0  0  0  0
   -4.2694    6.0582  -18.2354 C   0  0  0  0  0  0  0  0  0  0  0  0
   -3.2817    6.6694  -19.0029 C   0  0  0  0  0  0  0  0  0  0  0  0
   -3.6314    7.2714  -20.2075 C   0  0  0  0  0  0  0  0  0  0  0  0
   -4.9625    7.2443  -20.5946 C   0  0  0  0  0  0  0  0  0  0  0  0
   -5.9451    6.6774  -19.8653 N   0  0  0  0  0  0  0  0  0  0  0  0
   -6.5336    5.2235  -16.6404 N   0  0  0  0  0  0  0  0  0  0  0  0
   -4.3313    3.1149  -12.7869 C   0  0  0  0  0  0  0  0  0  0  0  0
   -4.0296    1.9271  -12.1268 C   0  0  0  0  0  0  0  0  0  0  0  0
   -2.7267    1.4294  -12.1836 C   0  0  0  0  0  0  0  0  0  0  0  0
   -1.7595    2.1530  -12.8796 C   0  0  0  0  0  0  0  0  0  0  0  0
   -0.3650    1.6939  -12.9119 C   0  0  0  0  0  0  0  0  0  0  0  0
    0.7055    2.5707  -12.9036 N   0  0  0  0  0  0  0  0  0  0  0  0
    1.7535    1.7891  -12.8341 C   0  0  0  0  0  0  0  0  0  0  0  0
    1.3477    0.4967  -12.8273 N   0  0  0  0  0  0  0  0  0  0  0  0
    0.0133    0.3984  -12.9498 N   0  0  0  0  0  0  0  0  0  0  0  0
   -2.0398    3.3201  -13.5280 N   0  0  0  0  0  0  0  0  0  0  0  0
   -3.3139    3.7751  -13.4576 C   0  0  0  0  0  0  0  0  0  0  0  0
  1  2  2  0
  2  3  1  0
  3  4  1  0
  4  5  1  0
  5  6  2  0
  6  7  1  0
  7  8  2  0
  7  9  1  0
  9 10  1  0
 10 11  1  0
 11 12  2  0
 12 13  1  0
 13 14  2  0
 14 15  1  0
 15 16  2  0
 10 17  2  0
  2 18  1  0
 18 19  2  0
 19 20  1  0
 20 21  2  0
 21 22  1  0
 22 23  1  0
 23 24  2  0
 24 25  1  0
 25 26  1  0
 21 27  1  0
 27 28  2  0
 17  5  1  0
 28 18  1  0
 16 11  1  0
 26 22  2  0
M  END
>  <fragmenstein_outcome>  (247) 
nan

>  <exports>  (247) 
['/opt/xchem-fragalysis-2/maxwin/openbind-hippo/xx01zvns2b/cycle_01/syndirella/elabs/openbind_xx01zvns2b_c1_elab_chemspace_filtered.sdf']

>  <Energy>  (247) 
nan

>  <alias>  (247) 
None

>  <fragmenstein_runtime>  (247) 
nan

>  <scratch_subdir>  (247) 
nan

>  <HIPPO Compound ID>  (247) 
141739

>  <rmsd(smina/fragmenstein)>  (247) 
0.992

>  <distance_score>  (247) 
1.207039

>  <orig_smiles>  (247) 
nan

>  <fragmenstein_mode>  (247) 
nan

>  <inchikey>  (247) 
NQVUHUDXDHKSGP-UHFFFAOYSA-N

>  <ref_pdb>  (247) 
Z0719a

>  <GNINA pK>  (247) 
nan

>  <gnina_score_min>  (247) 
5.398

>  <tags>  (247) 
openbind_xx01zvns2b_c1_elab_nonasap_filtered_scored_top80percent,openbind_xx01zvns2b_c1_elab_chemspace_filtered_scored_top80percent,openbind_xx01zvns2b_c1_elab_chemspace_filtered_scored,openbind_xx01zvns2b_c1_elab_chemspace_filtered_scored_top40percent,openbind_xx01zvns2b_c1_elab_chemspace_filtered_scored_top20percent,openbind_xx01zvns2b_c1_elab_chemspace_filtered_scored_top60percent,openbind_xx01zvns2b_c1_elabs_filtered

>  <smiles>  (247) 
O=C(NCc1cc(=O)[nH]c(-c2ccccn2)n1)c1ccc(-c2nc[nH]n2)nc1

>  <subsites>  (247) 
1 - Z4590/B/203/1

>  <gnina_score>  (247) 
5.488

>  <HIPPO Pose ID>  (247) 
70134

>  <ref_mols>  (247) 
Z0490a,Z0719a

>  <energy_score>  (247) 
-20.261459

>  <inspiration_score>  (247) 
None

>  <smina_score_min>  (247) 
-7.472

>  <fragmenstein_error>  (247) 
nan

>  <name>  (247) 
P70134

$$$$
P70136
     RDKit          3D

 26 29  0  0  0  0  0  0  0  0999 V2000
  -10.7659    2.4459   -5.3695 C   0  0  0  0  0  0  0  0  0  0  0  0
   -9.8844    1.7394   -6.3745 C   0  0  0  0  0  0  0  0  0  0  0  0
   -9.4372    2.5858   -7.4453 N   0  0  0  0  0  0  0  0  0  0  0  0
   -9.0804    1.9813   -8.7119 C   0  0  0  0  0  0  0  0  0  0  0  0
   -8.5482    3.1429   -9.4641 C   0  0  0  0  0  0  0  0  0  0  0  0
   -8.2456    3.2543  -10.8006 C   0  0  0  0  0  0  0  0  0  0  0  0
   -7.7728    4.4888  -11.2531 C   0  0  0  0  0  0  0  0  0  0  0  0
   -7.5233    4.6095  -12.6065 N   0  0  0  0  0  0  0  0  0  0  0  0
   -6.8541    5.7462  -13.4038 C   0  0  0  0  0  0  0  0  0  0  0  0
   -6.4770    6.7928  -13.0561 O   0  0  0  0  0  0  0  0  0  0  0  0
   -6.8178    5.3730  -14.8284 C   0  0  0  0  0  0  0  0  0  0  0  0
   -5.6313    5.5059  -15.5416 C   0  0  0  0  0  0  0  0  0  0  0  0
   -5.5966    5.1393  -16.8799 C   0  0  0  0  0  0  0  0  0  0  0  0
   -4.1693    5.2963  -17.8089 Cl  0  0  0  0  0  0  0  0  0  0  0  0
   -6.7653    4.6478  -17.4571 C   0  0  0  0  0  0  0  0  0  0  0  0
   -6.9999    4.2074  -18.7292 N   0  0  0  0  0  0  0  0  0  0  0  0
   -8.3034    3.8227  -18.8476 C   0  0  0  0  0  0  0  0  0  0  0  0
   -8.9597    4.1185  -17.6886 C   0  0  0  0  0  0  0  0  0  0  0  0
  -10.4080    4.0724  -17.4773 C   0  0  0  0  0  0  0  0  0  0  0  0
   -7.9682    4.5380  -16.7653 C   0  0  0  0  0  0  0  0  0  0  0  0
   -8.0040    4.9146  -15.4205 C   0  0  0  0  0  0  0  0  0  0  0  0
   -7.6048    5.5785  -10.3815 C   0  0  0  0  0  0  0  0  0  0  0  0
   -7.9155    5.4535   -9.0303 C   0  0  0  0  0  0  0  0  0  0  0  0
   -8.3854    4.2285   -8.6085 C   0  0  0  0  0  0  0  0  0  0  0  0
   -8.8654    3.8363   -7.2844 C   0  0  0  0  0  0  0  0  0  0  0  0
   -8.7674    4.5425   -6.2980 O   0  0  0  0  0  0  0  0  0  0  0  0
  1  2  1  0
  2  3  1  0
  3  4  1  0
  4  5  1  0
  5  6  2  0
  6  7  1  0
  7  8  1  0
  8  9  1  0
  9 10  2  0
  9 11  1  0
 11 12  2  0
 12 13  1  0
 13 14  1  0
 13 15  2  0
 15 16  1  0
 16 17  1  0
 17 18  2  0
 18 19  1  0
 18 20  1  0
 20 21  2  0
  7 22  2  0
 22 23  1  0
 23 24  2  0
 24 25  1  0
 25 26  2  0
 25  3  1  0
 24  5  1  0
 21 11  1  0
 20 15  1  0
M  END
>  <fragmenstein_outcome>  (248) 
nan

>  <exports>  (248) 
['/opt/xchem-fragalysis-2/maxwin/openbind-hippo/xx01zvns2b/cycle_01/syndirella/elabs/openbind_xx01zvns2b_c1_elab_chemspace_filtered.sdf']

>  <Energy>  (248) 
nan

>  <alias>  (248) 
None

>  <fragmenstein_runtime>  (248) 
nan

>  <scratch_subdir>  (248) 
nan

>  <HIPPO Compound ID>  (248) 
141759

>  <rmsd(smina/fragmenstein)>  (248) 
0.287

>  <distance_score>  (248) 
1.364206

>  <orig_smiles>  (248) 
nan

>  <fragmenstein_mode>  (248) 
nan

>  <inchikey>  (248) 
XYWHNEFAJWHZHV-UHFFFAOYSA-N

>  <ref_pdb>  (248) 
Z4959a

>  <GNINA pK>  (248) 
nan

>  <gnina_score_min>  (248) 
6.16

>  <tags>  (248) 
openbind_xx01zvns2b_c1_elab_nonasap_filtered_scored_top80percent,openbind_xx01zvns2b_c1_elab_chemspace_filtered_scored_top80percent,openbind_xx01zvns2b_c1_elab_chemspace_filtered_scored,openbind_xx01zvns2b_c1_elab_chemspace_filtered_scored_top40percent,openbind_xx01zvns2b_c1_elab_chemspace_filtered_scored_top20percent,openbind_xx01zvns2b_c1_elab_chemspace_filtered_scored_top60percent,openbind_xx01zvns2b_c1_elabs_filtered

>  <smiles>  (248) 
CCN1Cc2cc(NC(=O)c3cc(Cl)c4[nH]cc(C)c4c3)ccc2C1=O

>  <subsites>  (248) 
1 - Z4590/B/203/1

>  <gnina_score>  (248) 
6.172

>  <HIPPO Pose ID>  (248) 
70136

>  <ref_mols>  (248) 
Z0553a,Z4959a

>  <energy_score>  (248) 
-21.743029

>  <inspiration_score>  (248) 
None

>  <smina_score_min>  (248) 
-8.307

>  <fragmenstein_error>  (248) 
nan

>  <name>  (248) 
P70136

$$$$
P70137
     RDKit          3D

 28 31  0  0  0  0  0  0  0  0999 V2000
  -11.2632    2.0564   -5.3416 C   0  0  0  0  0  0  0  0  0  0  0  0
  -10.7590    3.4014   -4.8682 C   0  0  0  0  0  0  0  0  0  0  0  0
   -9.2728    3.4639   -4.6034 C   0  0  0  0  0  0  0  0  0  0  0  0
   -8.4642    2.8582   -5.7363 C   0  0  0  0  0  0  0  0  0  0  0  0
   -8.6847    3.5197   -6.9898 N   0  0  0  0  0  0  0  0  0  0  0  0
   -8.8269    2.7740   -8.2431 C   0  0  0  0  0  0  0  0  0  0  0  0
   -8.4792    3.8145   -9.2515 C   0  0  0  0  0  0  0  0  0  0  0  0
   -8.3497    3.7328  -10.6216 C   0  0  0  0  0  0  0  0  0  0  0  0
   -7.9035    4.8835  -11.2848 C   0  0  0  0  0  0  0  0  0  0  0  0
   -7.6379    4.8254  -12.6369 N   0  0  0  0  0  0  0  0  0  0  0  0
   -6.9945    5.8665  -13.5779 C   0  0  0  0  0  0  0  0  0  0  0  0
   -6.6584    6.9651  -13.3738 O   0  0  0  0  0  0  0  0  0  0  0  0
   -6.9155    5.3411  -14.9407 C   0  0  0  0  0  0  0  0  0  0  0  0
   -5.7212    5.4580  -15.6455 C   0  0  0  0  0  0  0  0  0  0  0  0
   -5.6739    5.0623  -16.9728 C   0  0  0  0  0  0  0  0  0  0  0  0
   -4.2444    5.2290  -17.8965 Cl  0  0  0  0  0  0  0  0  0  0  0  0
   -6.8424    4.5670  -17.5443 C   0  0  0  0  0  0  0  0  0  0  0  0
   -7.0820    4.1240  -18.8130 N   0  0  0  0  0  0  0  0  0  0  0  0
   -8.3938    3.7681  -18.9312 C   0  0  0  0  0  0  0  0  0  0  0  0
   -9.0471    4.0705  -17.7743 C   0  0  0  0  0  0  0  0  0  0  0  0
  -10.4962    4.0717  -17.5599 C   0  0  0  0  0  0  0  0  0  0  0  0
   -8.0475    4.4662  -16.8529 C   0  0  0  0  0  0  0  0  0  0  0  0
   -8.0925    4.8545  -15.5148 C   0  0  0  0  0  0  0  0  0  0  0  0
   -7.6737    6.0942  -10.6073 C   0  0  0  0  0  0  0  0  0  0  0  0
   -7.8239    6.1738   -9.2381 C   0  0  0  0  0  0  0  0  0  0  0  0
   -8.2009    5.0182   -8.6023 C   0  0  0  0  0  0  0  0  0  0  0  0
   -8.2662    4.8152   -7.1705 C   0  0  0  0  0  0  0  0  0  0  0  0
   -7.9291    5.6460   -6.3469 O   0  0  0  0  0  0  0  0  0  0  0  0
  1  2  1  0
  2  3  1  0
  3  4  1  0
  4  5  1  0
  5  6  1  0
  6  7  1  0
  7  8  2  0
  8  9  1  0
  9 10  1  0
 10 11  1  0
 11 12  2  0
 11 13  1  0
 13 14  2  0
 14 15  1  0
 15 16  1  0
 15 17  2  0
 17 18  1  0
 18 19  1  0
 19 20  2  0
 20 21  1  0
 20 22  1  0
 22 23  2  0
  9 24  2  0
 24 25  1  0
 25 26  2  0
 26 27  1  0
 27 28  2  0
 27  5  1  0
 26  7  1  0
 23 13  1  0
 22 17  1  0
M  END
>  <fragmenstein_outcome>  (249) 
nan

>  <exports>  (249) 
['/opt/xchem-fragalysis-2/maxwin/openbind-hippo/xx01zvns2b/cycle_01/syndirella/elabs/openbind_xx01zvns2b_c1_elab_chemspace_filtered.sdf']

>  <Energy>  (249) 
nan

>  <alias>  (249) 
None

>  <fragmenstein_runtime>  (249) 
nan

>  <scratch_subdir>  (249) 
nan

>  <HIPPO Compound ID>  (249) 
141760

>  <rmsd(smina/fragmenstein)>  (249) 
0.871

>  <distance_score>  (249) 
1.351278

>  <orig_smiles>  (249) 
nan

>  <fragmenstein_mode>  (249) 
nan

>  <inchikey>  (249) 
YOPDOFBBDNJSKZ-UHFFFAOYSA-N

>  <ref_pdb>  (249) 
Z4959a

>  <GNINA pK>  (249) 
nan

>  <gnina_score_min>  (249) 
6.073

>  <tags>  (249) 
openbind_xx01zvns2b_c1_elab_nonasap_filtered_scored_top80percent,openbind_xx01zvns2b_c1_elab_chemspace_filtered_scored_top80percent,openbind_xx01zvns2b_c1_elab_chemspace_filtered_scored,openbind_xx01zvns2b_c1_elab_chemspace_filtered_scored_top40percent,openbind_xx01zvns2b_c1_elab_chemspace_filtered_scored_top20percent,openbind_xx01zvns2b_c1_elab_chemspace_filtered_scored_top60percent,openbind_xx01zvns2b_c1_elabs_filtered

>  <smiles>  (249) 
CCCCN1Cc2cc(NC(=O)c3cc(Cl)c4[nH]cc(C)c4c3)ccc2C1=O

>  <subsites>  (249) 
1 - Z4590/B/203/1

>  <gnina_score>  (249) 
6.041

>  <HIPPO Pose ID>  (249) 
70137

>  <ref_mols>  (249) 
Z0553a,Z4959a

>  <energy_score>  (249) 
-18.297371

>  <inspiration_score>  (249) 
None

>  <smina_score_min>  (249) 
-7.236

>  <fragmenstein_error>  (249) 
nan

>  <name>  (249) 
P70137

$$$$
P70139
     RDKit          3D

 24 26  0  0  0  0  0  0  0  0999 V2000
   -9.2999    4.0744  -18.3802 C   0  0  0  0  0  0  0  0  0  0  0  0
   -8.0371    4.6538  -17.7924 C   0  0  0  0  0  0  0  0  0  0  0  0
   -7.3388    5.4213  -18.7982 O   0  0  0  0  0  0  0  0  0  0  0  0
   -6.0335    5.8135  -18.6343 C   0  0  0  0  0  0  0  0  0  0  0  0
   -5.3788    6.2923  -19.5537 O   0  0  0  0  0  0  0  0  0  0  0  0
   -5.4790    5.6562  -17.2974 C   0  0  0  0  0  0  0  0  0  0  0  0
   -6.2509    5.9528  -16.1891 N   0  0  0  0  0  0  0  0  0  0  0  0
   -5.6853    5.4736  -15.1231 C   0  0  0  0  0  0  0  0  0  0  0  0
   -6.3173    5.3507  -13.9445 N   0  0  0  0  0  0  0  0  0  0  0  0
   -7.7548    5.7320  -13.5343 C   0  0  0  0  0  0  0  0  0  0  0  0
   -8.6393    6.1410  -14.1730 O   0  0  0  0  0  0  0  0  0  0  0  0
   -7.9016    5.4147  -12.1007 C   0  0  0  0  0  0  0  0  0  0  0  0
   -7.7019    6.4421  -11.0919 C   0  0  0  0  0  0  0  0  0  0  0  0
   -7.8406    6.0994   -9.8003 C   0  0  0  0  0  0  0  0  0  0  0  0
   -8.1755    4.7845   -9.4819 N   0  0  0  0  0  0  0  0  0  0  0  0
   -8.3574    4.2046   -8.2566 C   0  0  0  0  0  0  0  0  0  0  0  0
   -8.7062    2.8948   -8.5155 C   0  0  0  0  0  0  0  0  0  0  0  0
   -9.0470    1.8224   -7.5580 C   0  0  0  0  0  0  0  0  0  0  0  0
   -8.7194    2.6588   -9.8686 N   0  0  0  0  0  0  0  0  0  0  0  0
   -8.3921    3.7944  -10.4314 C   0  0  0  0  0  0  0  0  0  0  0  0
   -8.2419    4.1478  -11.7962 C   0  0  0  0  0  0  0  0  0  0  0  0
   -4.1035    4.8930  -15.2924 S   0  0  0  0  0  0  0  0  0  0  0  0
   -4.2238    5.1929  -16.9741 C   0  0  0  0  0  0  0  0  0  0  0  0
   -2.9288    4.7866  -18.0140 Cl  0  0  0  0  0  0  0  0  0  0  0  0
  1  2  1  0
  2  3  1  0
  3  4  1  0
  4  5  2  0
  4  6  1  0
  6  7  1  0
  7  8  2  0
  8  9  1  0
  9 10  1  0
 10 11  2  0
 10 12  1  0
 12 13  1  0
 13 14  2  0
 14 15  1  0
 15 16  1  0
 16 17  2  0
 17 18  1  0
 17 19  1  0
 19 20  2  0
 20 21  1  0
  8 22  1  0
 22 23  1  0
 23 24  1  0
 23  6  2  0
 21 12  2  0
 20 15  1  0
M  END
>  <fragmenstein_outcome>  (250) 
nan

>  <exports>  (250) 
['/opt/xchem-fragalysis-2/maxwin/openbind-hippo/xx01zvns2b/cycle_01/syndirella/elabs/openbind_xx01zvns2b_c1_elab_chemspace_filtered.sdf']

>  <Energy>  (250) 
nan

>  <alias>  (250) 
None

>  <fragmenstein_runtime>  (250) 
nan

>  <scratch_subdir>  (250) 
nan

>  <HIPPO Compound ID>  (250) 
141816

>  <rmsd(smina/fragmenstein)>  (250) 
0.871

>  <distance_score>  (250) 
0.952829

>  <orig_smiles>  (250) 
nan

>  <fragmenstein_mode>  (250) 
nan

>  <inchikey>  (250) 
HNUMYAVXVMGJLT-UHFFFAOYSA-N

>  <ref_pdb>  (250) 
Z0673a

>  <GNINA pK>  (250) 
nan

>  <gnina_score_min>  (250) 
5.146

>  <tags>  (250) 
openbind_xx01zvns2b_c1_elab_nonasap_filtered_scored_top80percent,openbind_xx01zvns2b_c1_elab_chemspace_filtered_scored_top80percent,openbind_xx01zvns2b_c1_elab_chemspace_filtered_scored,openbind_xx01zvns2b_c1_elab_chemspace_filtered_scored_top40percent,openbind_xx01zvns2b_c1_elab_chemspace_filtered_scored_top20percent,openbind_xx01zvns2b_c1_elab_chemspace_filtered_scored_top60percent,openbind_xx01zvns2b_c1_elabs_filtered

>  <smiles>  (250) 
CCOC(=O)c1nc(NC(=O)c2ccn3cc(C)nc3c2)sc1Cl

>  <subsites>  (250) 
1 - Z4590/B/203/1

>  <gnina_score>  (250) 
5.108

>  <HIPPO Pose ID>  (250) 
70139

>  <ref_mols>  (250) 
Z1495a,Z0673a

>  <energy_score>  (250) 
-83.914222

>  <inspiration_score>  (250) 
None

>  <smina_score_min>  (250) 
-6.356

>  <fragmenstein_error>  (250) 
nan

>  <name>  (250) 
P70139

$$$$
P70143
     RDKit          3D

 24 26  0  0  0  0  0  0  0  0999 V2000
   -9.1726    4.1212  -18.3403 C   0  0  0  0  0  0  0  0  0  0  0  0
   -7.9274    4.7428  -17.7500 C   0  0  0  0  0  0  0  0  0  0  0  0
   -7.3312    5.6518  -18.7030 O   0  0  0  0  0  0  0  0  0  0  0  0
   -6.0707    6.1638  -18.5169 C   0  0  0  0  0  0  0  0  0  0  0  0
   -5.5007    6.8242  -19.3790 O   0  0  0  0  0  0  0  0  0  0  0  0
   -5.4659    5.9009  -17.2179 C   0  0  0  0  0  0  0  0  0  0  0  0
   -6.1848    6.1719  -16.0670 N   0  0  0  0  0  0  0  0  0  0  0  0
   -5.6211    5.5841  -15.0547 C   0  0  0  0  0  0  0  0  0  0  0  0
   -6.2330    5.3847  -13.8760 N   0  0  0  0  0  0  0  0  0  0  0  0
   -7.5883    5.9007  -13.3516 C   0  0  0  0  0  0  0  0  0  0  0  0
   -8.3501    6.6409  -13.8287 O   0  0  0  0  0  0  0  0  0  0  0  0
   -7.8586    5.1848  -12.0865 C   0  0  0  0  0  0  0  0  0  0  0  0
   -8.2212    3.7851  -12.1342 C   0  0  0  0  0  0  0  0  0  0  0  0
   -8.4546    3.1380  -10.9839 C   0  0  0  0  0  0  0  0  0  0  0  0
   -8.3370    3.8061   -9.7765 N   0  0  0  0  0  0  0  0  0  0  0  0
   -8.4634    3.3616   -8.4800 C   0  0  0  0  0  0  0  0  0  0  0  0
   -8.7396    1.9604   -8.0881 C   0  0  0  0  0  0  0  0  0  0  0  0
   -8.2417    4.4775   -7.7025 C   0  0  0  0  0  0  0  0  0  0  0  0
   -7.9788    5.5840   -8.4660 N   0  0  0  0  0  0  0  0  0  0  0  0
   -8.0229    5.1599   -9.7076 C   0  0  0  0  0  0  0  0  0  0  0  0
   -7.7901    5.8556  -10.9269 C   0  0  0  0  0  0  0  0  0  0  0  0
   -4.0994    4.8892  -15.3215 S   0  0  0  0  0  0  0  0  0  0  0  0
   -4.2389    5.3225  -16.9736 C   0  0  0  0  0  0  0  0  0  0  0  0
   -2.9343    4.8836  -18.2857 Br  0  0  0  0  0  0  0  0  0  0  0  0
  1  2  1  0
  2  3  1  0
  3  4  1  0
  4  5  2  0
  4  6  1  0
  6  7  1  0
  7  8  2  0
  8  9  1  0
  9 10  1  0
 10 11  2  0
 10 12  1  0
 12 13  1  0
 13 14  2  0
 14 15  1  0
 15 16  1  0
 16 17  1  0
 16 18  2  0
 18 19  1  0
 19 20  2  0
 20 21  1  0
  8 22  1  0
 22 23  1  0
 23 24  1  0
 23  6  2  0
 21 12  2  0
 20 15  1  0
M  END
>  <fragmenstein_outcome>  (251) 
nan

>  <exports>  (251) 
['/opt/xchem-fragalysis-2/maxwin/openbind-hippo/xx01zvns2b/cycle_01/syndirella/elabs/openbind_xx01zvns2b_c1_elab_chemspace_filtered.sdf']

>  <Energy>  (251) 
nan

>  <alias>  (251) 
None

>  <fragmenstein_runtime>  (251) 
nan

>  <scratch_subdir>  (251) 
nan

>  <HIPPO Compound ID>  (251) 
141820

>  <rmsd(smina/fragmenstein)>  (251) 
0.55

>  <distance_score>  (251) 
1.495863

>  <orig_smiles>  (251) 
nan

>  <fragmenstein_mode>  (251) 
nan

>  <inchikey>  (251) 
LPLQUEAXSQZZRH-UHFFFAOYSA-N

>  <ref_pdb>  (251) 
Z0673a

>  <GNINA pK>  (251) 
nan

>  <gnina_score_min>  (251) 
5.197

>  <tags>  (251) 
openbind_xx01zvns2b_c1_elab_nonasap_filtered_scored_top80percent,openbind_xx01zvns2b_c1_elab_chemspace_filtered_scored_top80percent,openbind_xx01zvns2b_c1_elab_chemspace_filtered_scored,openbind_xx01zvns2b_c1_elab_chemspace_filtered_scored_top40percent,openbind_xx01zvns2b_c1_elab_chemspace_filtered_scored_top20percent,openbind_xx01zvns2b_c1_elab_chemspace_filtered_scored_top60percent,openbind_xx01zvns2b_c1_elabs_filtered

>  <smiles>  (251) 
CCOC(=O)c1nc(NC(=O)c2ccn3c(C)cnc3c2)sc1Br

>  <subsites>  (251) 
1 - Z4590/B/203/1

>  <gnina_score>  (251) 
5.061

>  <HIPPO Pose ID>  (251) 
70143

>  <ref_mols>  (251) 
Z1495a,Z0673a

>  <energy_score>  (251) 
-77.370902

>  <inspiration_score>  (251) 
None

>  <smina_score_min>  (251) 
-5.899

>  <fragmenstein_error>  (251) 
nan

>  <name>  (251) 
P70143

$$$$
P70147
     RDKit          3D

 24 26  0  0  0  0  0  0  0  0999 V2000
   -9.6979    3.9354  -18.1060 C   0  0  0  0  0  0  0  0  0  0  0  0
   -8.3330    4.4014  -17.6760 C   0  0  0  0  0  0  0  0  0  0  0  0
   -7.4898    4.5515  -18.8342 O   0  0  0  0  0  0  0  0  0  0  0  0
   -6.1575    4.8798  -18.7485 C   0  0  0  0  0  0  0  0  0  0  0  0
   -5.4606    4.8851  -19.7579 O   0  0  0  0  0  0  0  0  0  0  0  0
   -5.5944    5.1632  -17.4227 C   0  0  0  0  0  0  0  0  0  0  0  0
   -6.3899    5.5662  -16.3607 N   0  0  0  0  0  0  0  0  0  0  0  0
   -5.7405    5.4519  -15.2427 C   0  0  0  0  0  0  0  0  0  0  0  0
   -6.3214    5.4713  -14.0299 N   0  0  0  0  0  0  0  0  0  0  0  0
   -7.7913    5.7203  -13.6261 C   0  0  0  0  0  0  0  0  0  0  0  0
   -8.7122    6.0232  -14.2737 O   0  0  0  0  0  0  0  0  0  0  0  0
   -7.9157    5.4045  -12.1908 C   0  0  0  0  0  0  0  0  0  0  0  0
   -8.2588    4.1382  -11.8838 C   0  0  0  0  0  0  0  0  0  0  0  0
   -8.3835    3.7785  -10.5161 C   0  0  0  0  0  0  0  0  0  0  0  0
   -8.6842    2.6363   -9.9529 N   0  0  0  0  0  0  0  0  0  0  0  0
   -8.6029    2.8543   -8.6032 C   0  0  0  0  0  0  0  0  0  0  0  0
   -8.2847    4.1673   -8.3374 C   0  0  0  0  0  0  0  0  0  0  0  0
   -8.1469    4.7632   -9.5626 N   0  0  0  0  0  0  0  0  0  0  0  0
   -7.8114    6.0762   -9.8817 C   0  0  0  0  0  0  0  0  0  0  0  0
   -7.6938    6.4088  -11.1748 C   0  0  0  0  0  0  0  0  0  0  0  0
   -7.3430    7.6565  -11.5394 F   0  0  0  0  0  0  0  0  0  0  0  0
   -4.0814    5.1479  -15.3612 S   0  0  0  0  0  0  0  0  0  0  0  0
   -4.2656    5.0612  -17.0618 C   0  0  0  0  0  0  0  0  0  0  0  0
   -2.8910    4.7654  -18.0368 Cl  0  0  0  0  0  0  0  0  0  0  0  0
  1  2  1  0
  2  3  1  0
  3  4  1  0
  4  5  2  0
  4  6  1  0
  6  7  1  0
  7  8  2  0
  8  9  1  0
  9 10  1  0
 10 11  2  0
 10 12  1  0
 12 13  2  0
 13 14  1  0
 14 15  2  0
 15 16  1  0
 16 17  2  0
 17 18  1  0
 18 19  1  0
 19 20  2  0
 20 21  1  0
  8 22  1  0
 22 23  1  0
 23 24  1  0
 23  6  2  0
 20 12  1  0
 18 14  1  0
M  END
>  <fragmenstein_outcome>  (252) 
nan

>  <exports>  (252) 
['/opt/xchem-fragalysis-2/maxwin/openbind-hippo/xx01zvns2b/cycle_01/syndirella/elabs/openbind_xx01zvns2b_c1_elab_chemspace_filtered.sdf']

>  <Energy>  (252) 
nan

>  <alias>  (252) 
None

>  <fragmenstein_runtime>  (252) 
nan

>  <scratch_subdir>  (252) 
nan

>  <HIPPO Compound ID>  (252) 
141824

>  <rmsd(smina/fragmenstein)>  (252) 
0.817

>  <distance_score>  (252) 
0.85575

>  <orig_smiles>  (252) 
nan

>  <fragmenstein_mode>  (252) 
nan

>  <inchikey>  (252) 
SSRFKSRAHPYDQZ-UHFFFAOYSA-N

>  <ref_pdb>  (252) 
Z0673a

>  <GNINA pK>  (252) 
nan

>  <gnina_score_min>  (252) 
5.167

>  <tags>  (252) 
openbind_xx01zvns2b_c1_elab_nonasap_filtered_scored_top80percent,openbind_xx01zvns2b_c1_elab_chemspace_filtered_scored_top80percent,openbind_xx01zvns2b_c1_elab_chemspace_filtered_scored,openbind_xx01zvns2b_c1_elab_chemspace_filtered_scored_top40percent,openbind_xx01zvns2b_c1_elab_chemspace_filtered_scored_top20percent,openbind_xx01zvns2b_c1_elab_chemspace_filtered_scored_top60percent,openbind_xx01zvns2b_c1_elabs_filtered

>  <smiles>  (252) 
CCOC(=O)c1nc(NC(=O)c2cc3nccn3cc2F)sc1Cl

>  <subsites>  (252) 
1 - Z4590/B/203/1

>  <gnina_score>  (252) 
5.259

>  <HIPPO Pose ID>  (252) 
70147

>  <ref_mols>  (252) 
Z1495a,Z0673a

>  <energy_score>  (252) 
-49.745498

>  <inspiration_score>  (252) 
None

>  <smina_score_min>  (252) 
-6.184

>  <fragmenstein_error>  (252) 
nan

>  <name>  (252) 
P70147

$$$$
P70155
     RDKit          3D

 24 26  0  0  0  0  0  0  0  0999 V2000
   -9.7383    3.9184  -18.0861 C   0  0  0  0  0  0  0  0  0  0  0  0
   -8.3781    4.3934  -17.6539 C   0  0  0  0  0  0  0  0  0  0  0  0
   -7.5427    4.5589  -18.8152 O   0  0  0  0  0  0  0  0  0  0  0  0
   -6.2157    4.9084  -18.7402 C   0  0  0  0  0  0  0  0  0  0  0  0
   -5.5309    4.9225  -19.7578 O   0  0  0  0  0  0  0  0  0  0  0  0
   -5.6454    5.2008  -17.4157 C   0  0  0  0  0  0  0  0  0  0  0  0
   -6.4497    5.5976  -16.3573 N   0  0  0  0  0  0  0  0  0  0  0  0
   -5.8078    5.4959  -15.2349 C   0  0  0  0  0  0  0  0  0  0  0  0
   -6.3917    5.5302  -14.0238 N   0  0  0  0  0  0  0  0  0  0  0  0
   -7.8777    5.6880  -13.6308 C   0  0  0  0  0  0  0  0  0  0  0  0
   -8.8171    5.8896  -14.2915 O   0  0  0  0  0  0  0  0  0  0  0  0
   -7.9818    5.4283  -12.1791 C   0  0  0  0  0  0  0  0  0  0  0  0
   -8.2624    4.1480  -11.8636 C   0  0  0  0  0  0  0  0  0  0  0  0
   -8.3623    3.7855  -10.4979 C   0  0  0  0  0  0  0  0  0  0  0  0
   -8.6008    2.6308   -9.9313 N   0  0  0  0  0  0  0  0  0  0  0  0
   -8.5309    2.8574   -8.5828 C   0  0  0  0  0  0  0  0  0  0  0  0
   -8.2757    4.1852   -8.3234 C   0  0  0  0  0  0  0  0  0  0  0  0
   -8.1691    4.7817   -9.5517 N   0  0  0  0  0  0  0  0  0  0  0  0
   -7.9011    6.1090   -9.8751 C   0  0  0  0  0  0  0  0  0  0  0  0
   -7.8040    6.4653  -11.1694 C   0  0  0  0  0  0  0  0  0  0  0  0
   -7.4444    8.2233  -11.6715 Br  0  0  0  0  0  0  0  0  0  0  0  0
   -4.1471    5.2044  -15.3414 S   0  0  0  0  0  0  0  0  0  0  0  0
   -4.3138    5.1269  -17.0478 C   0  0  0  0  0  0  0  0  0  0  0  0
   -2.8221    4.8647  -18.2003 Br  0  0  0  0  0  0  0  0  0  0  0  0
  1  2  1  0
  2  3  1  0
  3  4  1  0
  4  5  2  0
  4  6  1  0
  6  7  1  0
  7  8  2  0
  8  9  1  0
  9 10  1  0
 10 11  2  0
 10 12  1  0
 12 13  2  0
 13 14  1  0
 14 15  2  0
 15 16  1  0
 16 17  2  0
 17 18  1  0
 18 19  1  0
 19 20  2  0
 20 21  1  0
  8 22  1  0
 22 23  1  0
 23 24  1  0
 23  6  2  0
 20 12  1  0
 18 14  1  0
M  END
>  <fragmenstein_outcome>  (253) 
nan

>  <exports>  (253) 
['/opt/xchem-fragalysis-2/maxwin/openbind-hippo/xx01zvns2b/cycle_01/syndirella/elabs/openbind_xx01zvns2b_c1_elab_chemspace_filtered.sdf']

>  <Energy>  (253) 
nan

>  <alias>  (253) 
None

>  <fragmenstein_runtime>  (253) 
nan

>  <scratch_subdir>  (253) 
nan

>  <HIPPO Compound ID>  (253) 
141837

>  <rmsd(smina/fragmenstein)>  (253) 
0.58

>  <distance_score>  (253) 
0.855488

>  <orig_smiles>  (253) 
nan

>  <fragmenstein_mode>  (253) 
nan

>  <inchikey>  (253) 
SZBRLQDUFVVHSH-UHFFFAOYSA-N

>  <ref_pdb>  (253) 
Z0673a

>  <GNINA pK>  (253) 
nan

>  <gnina_score_min>  (253) 
5.342

>  <tags>  (253) 
openbind_xx01zvns2b_c1_elab_nonasap_filtered_scored_top80percent,openbind_xx01zvns2b_c1_elab_chemspace_filtered_scored_top80percent,openbind_xx01zvns2b_c1_elab_chemspace_filtered_scored,openbind_xx01zvns2b_c1_elab_chemspace_filtered_scored_top40percent,openbind_xx01zvns2b_c1_elab_chemspace_filtered_scored_top20percent,openbind_xx01zvns2b_c1_elab_chemspace_filtered_scored_top60percent,openbind_xx01zvns2b_c1_elabs_filtered

>  <smiles>  (253) 
CCOC(=O)c1nc(NC(=O)c2cc3nccn3cc2Br)sc1Br

>  <subsites>  (253) 
1 - Z4590/B/203/1

>  <gnina_score>  (253) 
5.384

>  <HIPPO Pose ID>  (253) 
70155

>  <ref_mols>  (253) 
Z1495a,Z0673a

>  <energy_score>  (253) 
-70.272836

>  <inspiration_score>  (253) 
None

>  <smina_score_min>  (253) 
-6.402

>  <fragmenstein_error>  (253) 
nan

>  <name>  (253) 
P70155

$$$$
P70158
     RDKit          3D

 25 27  0  0  0  0  0  0  0  0999 V2000
   -9.6267    3.9213  -18.0910 C   0  0  0  0  0  0  0  0  0  0  0  0
   -8.2355    4.4069  -17.7757 C   0  0  0  0  0  0  0  0  0  0  0  0
   -7.4466    4.4575  -18.9785 O   0  0  0  0  0  0  0  0  0  0  0  0
   -6.1185    4.8170  -18.9765 C   0  0  0  0  0  0  0  0  0  0  0  0
   -5.4629    4.7470  -20.0115 O   0  0  0  0  0  0  0  0  0  0  0  0
   -5.4901    5.2059  -17.6976 C   0  0  0  0  0  0  0  0  0  0  0  0
   -6.2440    5.6640  -16.6313 N   0  0  0  0  0  0  0  0  0  0  0  0
   -5.5676    5.5805  -15.5288 C   0  0  0  0  0  0  0  0  0  0  0  0
   -6.1375    5.5969  -14.3066 N   0  0  0  0  0  0  0  0  0  0  0  0
   -7.6147    5.7765  -13.8912 C   0  0  0  0  0  0  0  0  0  0  0  0
   -8.5573    6.0149  -14.5347 O   0  0  0  0  0  0  0  0  0  0  0  0
   -7.7342    5.4849  -12.4422 C   0  0  0  0  0  0  0  0  0  0  0  0
   -7.6773    6.5402  -11.4468 C   0  0  0  0  0  0  0  0  0  0  0  0
   -7.8603    6.2292  -10.1466 C   0  0  0  0  0  0  0  0  0  0  0  0
   -7.8059    7.5533   -8.8284 Br  0  0  0  0  0  0  0  0  0  0  0  0
   -8.0919    4.8850   -9.8027 N   0  0  0  0  0  0  0  0  0  0  0  0
   -8.2620    4.2758   -8.5799 C   0  0  0  0  0  0  0  0  0  0  0  0
   -8.4317    2.9369   -8.8465 C   0  0  0  0  0  0  0  0  0  0  0  0
   -8.3826    2.7021  -10.1922 N   0  0  0  0  0  0  0  0  0  0  0  0
   -8.1688    3.8661  -10.7503 C   0  0  0  0  0  0  0  0  0  0  0  0
   -7.9981    4.2062  -12.1165 C   0  0  0  0  0  0  0  0  0  0  0  0
   -3.9049    5.3260  -15.7003 S   0  0  0  0  0  0  0  0  0  0  0  0
   -4.1267    5.1696  -17.4092 C   0  0  0  0  0  0  0  0  0  0  0  0
   -2.9551    4.9310  -18.3069 C   0  0  0  0  0  0  0  0  0  0  0  0
   -2.5693    6.1871  -19.0740 C   0  0  0  0  0  0  0  0  0  0  0  0
  1  2  1  0
  2  3  1  0
  3  4  1  0
  4  5  2  0
  4  6  1  0
  6  7  1  0
  7  8  2  0
  8  9  1  0
  9 10  1  0
 10 11  2  0
 10 12  1  0
 12 13  1  0
 13 14  2  0
 14 15  1  0
 14 16  1  0
 16 17  1  0
 17 18  2  0
 18 19  1  0
 19 20  2  0
 20 21  1  0
  8 22  1  0
 22 23  1  0
 23 24  1  0
 24 25  1  0
 23  6  2  0
 21 12  2  0
 20 16  1  0
M  END
>  <fragmenstein_outcome>  (254) 
nan

>  <exports>  (254) 
['/opt/xchem-fragalysis-2/maxwin/openbind-hippo/xx01zvns2b/cycle_01/syndirella/elabs/openbind_xx01zvns2b_c1_elab_chemspace_filtered.sdf']

>  <Energy>  (254) 
nan

>  <alias>  (254) 
None

>  <fragmenstein_runtime>  (254) 
nan

>  <scratch_subdir>  (254) 
nan

>  <HIPPO Compound ID>  (254) 
141842

>  <rmsd(smina/fragmenstein)>  (254) 
1.619

>  <distance_score>  (254) 
1.384436

>  <orig_smiles>  (254) 
nan

>  <fragmenstein_mode>  (254) 
nan

>  <inchikey>  (254) 
BWSOJEFCAFTRRM-UHFFFAOYSA-N

>  <ref_pdb>  (254) 
Z0673a

>  <GNINA pK>  (254) 
nan

>  <gnina_score_min>  (254) 
5.19

>  <tags>  (254) 
openbind_xx01zvns2b_c1_elab_nonasap_filtered_scored_top80percent,openbind_xx01zvns2b_c1_elab_chemspace_filtered_scored_top80percent,openbind_xx01zvns2b_c1_elab_chemspace_filtered_scored,openbind_xx01zvns2b_c1_elab_chemspace_filtered_scored_top40percent,openbind_xx01zvns2b_c1_elab_chemspace_filtered_scored_top20percent,openbind_xx01zvns2b_c1_elab_chemspace_filtered_scored_top60percent,openbind_xx01zvns2b_c1_elabs_filtered

>  <smiles>  (254) 
CCOC(=O)c1nc(NC(=O)c2cc(Br)n3ccnc3c2)sc1CC

>  <subsites>  (254) 
1 - Z4590/B/203/1

>  <gnina_score>  (254) 
5.38

>  <HIPPO Pose ID>  (254) 
70158

>  <ref_mols>  (254) 
Z1495a,Z0673a

>  <energy_score>  (254) 
-81.453869

>  <inspiration_score>  (254) 
None

>  <smina_score_min>  (254) 
-6.297

>  <fragmenstein_error>  (254) 
nan

>  <name>  (254) 
P70158

$$$$
P70159
     RDKit          3D

 25 27  0  0  0  0  0  0  0  0999 V2000
   -9.3750    4.0233  -18.3378 C   0  0  0  0  0  0  0  0  0  0  0  0
   -8.0468    4.4795  -17.7861 C   0  0  0  0  0  0  0  0  0  0  0  0
   -7.0657    4.5813  -18.8389 O   0  0  0  0  0  0  0  0  0  0  0  0
   -5.7544    4.9306  -18.6017 C   0  0  0  0  0  0  0  0  0  0  0  0
   -4.9393    4.9210  -19.5207 O   0  0  0  0  0  0  0  0  0  0  0  0
   -5.3352    5.2514  -17.2209 C   0  0  0  0  0  0  0  0  0  0  0  0
   -6.2648    5.5207  -16.2299 N   0  0  0  0  0  0  0  0  0  0  0  0
   -5.7121    5.4942  -15.0606 C   0  0  0  0  0  0  0  0  0  0  0  0
   -6.3666    5.4956  -13.8887 N   0  0  0  0  0  0  0  0  0  0  0  0
   -7.8728    5.6314  -13.5827 C   0  0  0  0  0  0  0  0  0  0  0  0
   -8.7722    5.8401  -14.2931 O   0  0  0  0  0  0  0  0  0  0  0  0
   -8.0393    5.3557  -12.1439 C   0  0  0  0  0  0  0  0  0  0  0  0
   -8.3374    4.0850  -11.8114 C   0  0  0  0  0  0  0  0  0  0  0  0
   -8.4332    3.7462  -10.4364 C   0  0  0  0  0  0  0  0  0  0  0  0
   -8.6884    2.6052   -9.8485 N   0  0  0  0  0  0  0  0  0  0  0  0
   -8.5898    2.8485   -8.5048 C   0  0  0  0  0  0  0  0  0  0  0  0
   -8.3041    4.1741   -8.2667 C   0  0  0  0  0  0  0  0  0  0  0  0
   -8.2063    4.7530   -9.5037 N   0  0  0  0  0  0  0  0  0  0  0  0
   -7.9135    6.0694   -9.8491 C   0  0  0  0  0  0  0  0  0  0  0  0
   -7.8299    6.3839  -11.1489 C   0  0  0  0  0  0  0  0  0  0  0  0
   -7.5177    7.6340  -11.5396 F   0  0  0  0  0  0  0  0  0  0  0  0
   -4.0371    5.3571  -15.0324 S   0  0  0  0  0  0  0  0  0  0  0  0
   -4.0189    5.3295  -16.7585 C   0  0  0  0  0  0  0  0  0  0  0  0
   -2.7262    5.2978  -17.5152 C   0  0  0  0  0  0  0  0  0  0  0  0
   -1.5417    5.8845  -16.7489 C   0  0  0  0  0  0  0  0  0  0  0  0
  1  2  1  0
  2  3  1  0
  3  4  1  0
  4  5  2  0
  4  6  1  0
  6  7  1  0
  7  8  2  0
  8  9  1  0
  9 10  1  0
 10 11  2  0
 10 12  1  0
 12 13  2  0
 13 14  1  0
 14 15  2  0
 15 16  1  0
 16 17  2  0
 17 18  1  0
 18 19  1  0
 19 20  2  0
 20 21  1  0
  8 22  1  0
 22 23  1  0
 23 24  1  0
 24 25  1  0
 23  6  2  0
 20 12  1  0
 18 14  1  0
M  END
>  <fragmenstein_outcome>  (255) 
nan

>  <exports>  (255) 
['/opt/xchem-fragalysis-2/maxwin/openbind-hippo/xx01zvns2b/cycle_01/syndirella/elabs/openbind_xx01zvns2b_c1_elab_chemspace_filtered.sdf']

>  <Energy>  (255) 
nan

>  <alias>  (255) 
None

>  <fragmenstein_runtime>  (255) 
nan

>  <scratch_subdir>  (255) 
nan

>  <HIPPO Compound ID>  (255) 
141844

>  <rmsd(smina/fragmenstein)>  (255) 
0.97

>  <distance_score>  (255) 
1.335885

>  <orig_smiles>  (255) 
nan

>  <fragmenstein_mode>  (255) 
nan

>  <inchikey>  (255) 
HXDDTCRABYXRRT-UHFFFAOYSA-N

>  <ref_pdb>  (255) 
Z0673a

>  <GNINA pK>  (255) 
nan

>  <gnina_score_min>  (255) 
5.393

>  <tags>  (255) 
openbind_xx01zvns2b_c1_elab_nonasap_filtered_scored_top80percent,openbind_xx01zvns2b_c1_elab_chemspace_filtered_scored_top80percent,openbind_xx01zvns2b_c1_elab_chemspace_filtered_scored,openbind_xx01zvns2b_c1_elab_chemspace_filtered_scored_top40percent,openbind_xx01zvns2b_c1_elab_chemspace_filtered_scored_top20percent,openbind_xx01zvns2b_c1_elab_chemspace_filtered_scored_top60percent,openbind_xx01zvns2b_c1_elabs_filtered

>  <smiles>  (255) 
CCOC(=O)c1nc(NC(=O)c2cc3nccn3cc2F)sc1CC

>  <subsites>  (255) 
1 - Z4590/B/203/1

>  <gnina_score>  (255) 
5.344

>  <HIPPO Pose ID>  (255) 
70159

>  <ref_mols>  (255) 
Z1495a,Z0673a

>  <energy_score>  (255) 
-51.930911

>  <inspiration_score>  (255) 
None

>  <smina_score_min>  (255) 
-5.94

>  <fragmenstein_error>  (255) 
nan

>  <name>  (255) 
P70159

$$$$
P70160
     RDKit          3D

 25 27  0  0  0  0  0  0  0  0999 V2000
   -9.6384    3.9215  -18.1153 C   0  0  0  0  0  0  0  0  0  0  0  0
   -8.2442    4.3945  -17.7961 C   0  0  0  0  0  0  0  0  0  0  0  0
   -7.4362    4.3936  -18.9874 O   0  0  0  0  0  0  0  0  0  0  0  0
   -6.1081    4.7559  -18.9824 C   0  0  0  0  0  0  0  0  0  0  0  0
   -5.4478    4.6622  -20.0127 O   0  0  0  0  0  0  0  0  0  0  0  0
   -5.4840    5.1712  -17.7086 C   0  0  0  0  0  0  0  0  0  0  0  0
   -6.2489    5.5876  -16.6347 N   0  0  0  0  0  0  0  0  0  0  0  0
   -5.5553    5.5779  -15.5407 C   0  0  0  0  0  0  0  0  0  0  0  0
   -6.1153    5.6017  -14.3153 N   0  0  0  0  0  0  0  0  0  0  0  0
   -7.5899    5.7868  -13.8893 C   0  0  0  0  0  0  0  0  0  0  0  0
   -8.5374    6.0242  -14.5273 O   0  0  0  0  0  0  0  0  0  0  0  0
   -7.7005    5.5029  -12.4382 C   0  0  0  0  0  0  0  0  0  0  0  0
   -8.0533    4.2331  -12.1486 C   0  0  0  0  0  0  0  0  0  0  0  0
   -8.2369    3.8595  -10.7932 C   0  0  0  0  0  0  0  0  0  0  0  0
   -8.5443    2.7075  -10.2541 N   0  0  0  0  0  0  0  0  0  0  0  0
   -8.5429    2.9194   -8.9002 C   0  0  0  0  0  0  0  0  0  0  0  0
   -8.2584    4.2353   -8.6117 C   0  0  0  0  0  0  0  0  0  0  0  0
   -8.0651    4.8396   -9.8262 N   0  0  0  0  0  0  0  0  0  0  0  0
   -7.7328    6.1591  -10.1217 C   0  0  0  0  0  0  0  0  0  0  0  0
   -7.5444    6.5215  -11.4052 C   0  0  0  0  0  0  0  0  0  0  0  0
   -7.0816    8.2668  -11.8669 Br  0  0  0  0  0  0  0  0  0  0  0  0
   -3.8847    5.4097  -15.7279 S   0  0  0  0  0  0  0  0  0  0  0  0
   -4.1176    5.1962  -17.4303 C   0  0  0  0  0  0  0  0  0  0  0  0
   -2.9424    4.9907  -18.3328 C   0  0  0  0  0  0  0  0  0  0  0  0
   -2.6164    6.2469  -19.1270 C   0  0  0  0  0  0  0  0  0  0  0  0
  1  2  1  0
  2  3  1  0
  3  4  1  0
  4  5  2  0
  4  6  1  0
  6  7  1  0
  7  8  2  0
  8  9  1  0
  9 10  1  0
 10 11  2  0
 10 12  1  0
 12 13  2  0
 13 14  1  0
 14 15  2  0
 15 16  1  0
 16 17  2  0
 17 18  1  0
 18 19  1  0
 19 20  2  0
 20 21  1  0
  8 22  1  0
 22 23  1  0
 23 24  1  0
 24 25  1  0
 23  6  2  0
 20 12  1  0
 18 14  1  0
M  END
>  <fragmenstein_outcome>  (256) 
nan

>  <exports>  (256) 
['/opt/xchem-fragalysis-2/maxwin/openbind-hippo/xx01zvns2b/cycle_01/syndirella/elabs/openbind_xx01zvns2b_c1_elab_chemspace_filtered.sdf']

>  <Energy>  (256) 
nan

>  <alias>  (256) 
None

>  <fragmenstein_runtime>  (256) 
nan

>  <scratch_subdir>  (256) 
nan

>  <HIPPO Compound ID>  (256) 
141845

>  <rmsd(smina/fragmenstein)>  (256) 
1.431

>  <distance_score>  (256) 
1.366609

>  <orig_smiles>  (256) 
nan

>  <fragmenstein_mode>  (256) 
nan

>  <inchikey>  (256) 
LIEQEIBLKSYXQO-UHFFFAOYSA-N

>  <ref_pdb>  (256) 
Z0673a

>  <GNINA pK>  (256) 
nan

>  <gnina_score_min>  (256) 
5.418

>  <tags>  (256) 
openbind_xx01zvns2b_c1_elab_nonasap_filtered_scored_top80percent,openbind_xx01zvns2b_c1_elab_chemspace_filtered_scored_top80percent,openbind_xx01zvns2b_c1_elab_chemspace_filtered_scored,openbind_xx01zvns2b_c1_elab_chemspace_filtered_scored_top40percent,openbind_xx01zvns2b_c1_elab_chemspace_filtered_scored_top20percent,openbind_xx01zvns2b_c1_elab_chemspace_filtered_scored_top60percent,openbind_xx01zvns2b_c1_elabs_filtered

>  <smiles>  (256) 
CCOC(=O)c1nc(NC(=O)c2cc3nccn3cc2Br)sc1CC

>  <subsites>  (256) 
1 - Z4590/B/203/1

>  <gnina_score>  (256) 
5.529

>  <HIPPO Pose ID>  (256) 
70160

>  <ref_mols>  (256) 
Z1495a,Z0673a

>  <energy_score>  (256) 
-76.667126

>  <inspiration_score>  (256) 
None

>  <smina_score_min>  (256) 
-6.173

>  <fragmenstein_error>  (256) 
nan

>  <name>  (256) 
P70160

$$$$
P70169
     RDKit          3D

 25 27  0  0  0  0  0  0  0  0999 V2000
   -9.5757    3.9560  -18.1345 C   0  0  0  0  0  0  0  0  0  0  0  0
   -8.1813    4.4203  -17.7973 C   0  0  0  0  0  0  0  0  0  0  0  0
   -7.3559    4.4170  -18.9778 O   0  0  0  0  0  0  0  0  0  0  0  0
   -6.0238    4.7631  -18.9496 C   0  0  0  0  0  0  0  0  0  0  0  0
   -5.3475    4.6785  -19.9706 O   0  0  0  0  0  0  0  0  0  0  0  0
   -5.4098    5.1466  -17.6620 C   0  0  0  0  0  0  0  0  0  0  0  0
   -6.1760    5.5517  -16.5859 N   0  0  0  0  0  0  0  0  0  0  0  0
   -5.4885    5.5112  -15.4881 C   0  0  0  0  0  0  0  0  0  0  0  0
   -6.0559    5.5190  -14.2656 N   0  0  0  0  0  0  0  0  0  0  0  0
   -7.5320    5.7021  -13.8459 C   0  0  0  0  0  0  0  0  0  0  0  0
   -8.4747    5.9513  -14.4859 O   0  0  0  0  0  0  0  0  0  0  0  0
   -7.6556    5.3989  -12.4031 C   0  0  0  0  0  0  0  0  0  0  0  0
   -8.0789    4.1582  -12.0882 C   0  0  0  0  0  0  0  0  0  0  0  0
   -8.2780    3.8236  -10.7207 C   0  0  0  0  0  0  0  0  0  0  0  0
   -8.6494    2.6982  -10.1620 N   0  0  0  0  0  0  0  0  0  0  0  0
   -8.6348    2.9315   -8.8097 C   0  0  0  0  0  0  0  0  0  0  0  0
   -8.2812    4.2333   -8.5471 C   0  0  0  0  0  0  0  0  0  0  0  0
   -8.1382    5.0199   -6.8261 Br  0  0  0  0  0  0  0  0  0  0  0  0
   -8.0504    4.8156   -9.7683 N   0  0  0  0  0  0  0  0  0  0  0  0
   -7.6415    6.1076  -10.0998 C   0  0  0  0  0  0  0  0  0  0  0  0
   -7.4393    6.4080  -11.3909 C   0  0  0  0  0  0  0  0  0  0  0  0
   -7.0157    7.6327  -11.7570 F   0  0  0  0  0  0  0  0  0  0  0  0
   -3.8191    5.3161  -15.6699 S   0  0  0  0  0  0  0  0  0  0  0  0
   -4.0464    5.1377  -17.3738 C   0  0  0  0  0  0  0  0  0  0  0  0
   -2.8854    4.9133  -18.2764 C   0  0  0  0  0  0  0  0  0  0  0  0
  1  2  1  0
  2  3  1  0
  3  4  1  0
  4  5  2  0
  4  6  1  0
  6  7  1  0
  7  8  2  0
  8  9  1  0
  9 10  1  0
 10 11  2  0
 10 12  1  0
 12 13  2  0
 13 14  1  0
 14 15  2  0
 15 16  1  0
 16 17  2  0
 17 18  1  0
 17 19  1  0
 19 20  1  0
 20 21  2  0
 21 22  1  0
  8 23  1  0
 23 24  1  0
 24 25  1  0
 24  6  2  0
 21 12  1  0
 19 14  1  0
M  END
>  <fragmenstein_outcome>  (257) 
nan

>  <exports>  (257) 
['/opt/xchem-fragalysis-2/maxwin/openbind-hippo/xx01zvns2b/cycle_01/syndirella/elabs/openbind_xx01zvns2b_c1_elab_chemspace_filtered.sdf']

>  <Energy>  (257) 
nan

>  <alias>  (257) 
None

>  <fragmenstein_runtime>  (257) 
nan

>  <scratch_subdir>  (257) 
nan

>  <HIPPO Compound ID>  (257) 
141855

>  <rmsd(smina/fragmenstein)>  (257) 
1.886

>  <distance_score>  (257) 
1.366987

>  <orig_smiles>  (257) 
nan

>  <fragmenstein_mode>  (257) 
nan

>  <inchikey>  (257) 
GNTGXIVXPWIQBG-UHFFFAOYSA-N

>  <ref_pdb>  (257) 
Z0673a

>  <GNINA pK>  (257) 
nan

>  <gnina_score_min>  (257) 
5.176

>  <tags>  (257) 
openbind_xx01zvns2b_c1_elab_nonasap_filtered_scored_top80percent,openbind_xx01zvns2b_c1_elab_chemspace_filtered_scored_top80percent,openbind_xx01zvns2b_c1_elab_chemspace_filtered_scored,openbind_xx01zvns2b_c1_elab_chemspace_filtered_scored_top40percent,openbind_xx01zvns2b_c1_elab_chemspace_filtered_scored_top20percent,openbind_xx01zvns2b_c1_elab_chemspace_filtered_scored_top60percent,openbind_xx01zvns2b_c1_elabs_filtered

>  <smiles>  (257) 
CCOC(=O)c1nc(NC(=O)c2cc3ncc(Br)n3cc2F)sc1C

>  <subsites>  (257) 
1 - Z4590/B/203/1

>  <gnina_score>  (257) 
5.371

>  <HIPPO Pose ID>  (257) 
70169

>  <ref_mols>  (257) 
Z1495a,Z0673a

>  <energy_score>  (257) 
-44.203532

>  <inspiration_score>  (257) 
None

>  <smina_score_min>  (257) 
-6.54

>  <fragmenstein_error>  (257) 
nan

>  <name>  (257) 
P70169

$$$$
P70174
     RDKit          3D

 25 27  0  0  0  0  0  0  0  0999 V2000
   -9.7022    3.9325  -18.1028 C   0  0  0  0  0  0  0  0  0  0  0  0
   -8.3402    4.4030  -17.6693 C   0  0  0  0  0  0  0  0  0  0  0  0
   -7.4969    4.5615  -18.8264 O   0  0  0  0  0  0  0  0  0  0  0  0
   -6.1662    4.8944  -18.7386 C   0  0  0  0  0  0  0  0  0  0  0  0
   -5.4668    4.9015  -19.7461 O   0  0  0  0  0  0  0  0  0  0  0  0
   -5.6068    5.1767  -17.4111 C   0  0  0  0  0  0  0  0  0  0  0  0
   -6.4034    5.5874  -16.3524 N   0  0  0  0  0  0  0  0  0  0  0  0
   -5.7610    5.4600  -15.2317 C   0  0  0  0  0  0  0  0  0  0  0  0
   -6.3455    5.4767  -14.0197 N   0  0  0  0  0  0  0  0  0  0  0  0
   -7.8305    5.6357  -13.6247 C   0  0  0  0  0  0  0  0  0  0  0  0
   -8.7685    5.8536  -14.2821 O   0  0  0  0  0  0  0  0  0  0  0  0
   -7.9403    5.3528  -12.1811 C   0  0  0  0  0  0  0  0  0  0  0  0
   -8.2608    4.0895  -11.8412 C   0  0  0  0  0  0  0  0  0  0  0  0
   -8.3795    3.7612  -10.4645 C   0  0  0  0  0  0  0  0  0  0  0  0
   -8.6554    2.6223   -9.8803 N   0  0  0  0  0  0  0  0  0  0  0  0
   -8.5980    2.8711   -8.5329 C   0  0  0  0  0  0  0  0  0  0  0  0
   -8.3158    4.1953   -8.2978 C   0  0  0  0  0  0  0  0  0  0  0  0
   -8.1613    5.0114   -6.5916 Br  0  0  0  0  0  0  0  0  0  0  0  0
   -8.1692    4.7758   -9.5321 N   0  0  0  0  0  0  0  0  0  0  0  0
   -7.8547    6.0868   -9.8908 C   0  0  0  0  0  0  0  0  0  0  0  0
   -7.7363    6.3858  -11.1918 C   0  0  0  0  0  0  0  0  0  0  0  0
   -7.4089    7.6300  -11.5886 F   0  0  0  0  0  0  0  0  0  0  0  0
   -4.1041    5.1398  -15.3438 S   0  0  0  0  0  0  0  0  0  0  0  0
   -4.2803    5.0635  -17.0454 C   0  0  0  0  0  0  0  0  0  0  0  0
   -2.9043    4.7588  -18.0157 Cl  0  0  0  0  0  0  0  0  0  0  0  0
  1  2  1  0
  2  3  1  0
  3  4  1  0
  4  5  2  0
  4  6  1  0
  6  7  1  0
  7  8  2  0
  8  9  1  0
  9 10  1  0
 10 11  2  0
 10 12  1  0
 12 13  2  0
 13 14  1  0
 14 15  2  0
 15 16  1  0
 16 17  2  0
 17 18  1  0
 17 19  1  0
 19 20  1  0
 20 21  2  0
 21 22  1  0
  8 23  1  0
 23 24  1  0
 24 25  1  0
 24  6  2  0
 21 12  1  0
 19 14  1  0
M  END
>  <fragmenstein_outcome>  (258) 
nan

>  <exports>  (258) 
['/opt/xchem-fragalysis-2/maxwin/openbind-hippo/xx01zvns2b/cycle_01/syndirella/elabs/openbind_xx01zvns2b_c1_elab_chemspace_filtered.sdf']

>  <Energy>  (258) 
nan

>  <alias>  (258) 
None

>  <fragmenstein_runtime>  (258) 
nan

>  <scratch_subdir>  (258) 
nan

>  <HIPPO Compound ID>  (258) 
141860

>  <rmsd(smina/fragmenstein)>  (258) 
1.178

>  <distance_score>  (258) 
0.859054

>  <orig_smiles>  (258) 
nan

>  <fragmenstein_mode>  (258) 
nan

>  <inchikey>  (258) 
DJVIELTZESWZFI-UHFFFAOYSA-N

>  <ref_pdb>  (258) 
Z0673a

>  <GNINA pK>  (258) 
nan

>  <gnina_score_min>  (258) 
5.288

>  <tags>  (258) 
openbind_xx01zvns2b_c1_elab_nonasap_filtered_scored_top80percent,openbind_xx01zvns2b_c1_elab_chemspace_filtered_scored_top80percent,openbind_xx01zvns2b_c1_elab_chemspace_filtered_scored,openbind_xx01zvns2b_c1_elab_chemspace_filtered_scored_top40percent,openbind_xx01zvns2b_c1_elab_chemspace_filtered_scored_top20percent,openbind_xx01zvns2b_c1_elab_chemspace_filtered_scored_top60percent,openbind_xx01zvns2b_c1_elabs_filtered

>  <smiles>  (258) 
CCOC(=O)c1nc(NC(=O)c2cc3ncc(Br)n3cc2F)sc1Cl

>  <subsites>  (258) 
1 - Z4590/B/203/1

>  <gnina_score>  (258) 
5.315

>  <HIPPO Pose ID>  (258) 
70174

>  <ref_mols>  (258) 
Z1495a,Z0673a

>  <energy_score>  (258) 
-29.303714

>  <inspiration_score>  (258) 
None

>  <smina_score_min>  (258) 
-6.439

>  <fragmenstein_error>  (258) 
nan

>  <name>  (258) 
P70174

$$$$
P70179
     RDKit          3D

 26 28  0  0  0  0  0  0  0  0999 V2000
   -9.8373    3.8537  -18.0435 C   0  0  0  0  0  0  0  0  0  0  0  0
   -8.5541    4.3764  -17.4618 C   0  0  0  0  0  0  0  0  0  0  0  0
   -7.6381    4.5972  -18.5499 O   0  0  0  0  0  0  0  0  0  0  0  0
   -6.3461    5.0047  -18.3688 C   0  0  0  0  0  0  0  0  0  0  0  0
   -5.5279    4.8726  -19.2730 O   0  0  0  0  0  0  0  0  0  0  0  0
   -5.9584    5.5858  -17.0743 C   0  0  0  0  0  0  0  0  0  0  0  0
   -6.9022    6.0000  -16.1420 N   0  0  0  0  0  0  0  0  0  0  0  0
   -6.3366    6.1325  -14.9821 C   0  0  0  0  0  0  0  0  0  0  0  0
   -6.9104    6.0215  -13.7790 N   0  0  0  0  0  0  0  0  0  0  0  0
   -8.3906    5.8720  -13.3881 C   0  0  0  0  0  0  0  0  0  0  0  0
   -9.3513    5.8988  -14.0448 O   0  0  0  0  0  0  0  0  0  0  0  0
   -8.3870    5.5676  -11.9437 C   0  0  0  0  0  0  0  0  0  0  0  0
   -8.4822    4.2484  -11.6798 C   0  0  0  0  0  0  0  0  0  0  0  0
   -8.4135    3.8150  -10.3350 C   0  0  0  0  0  0  0  0  0  0  0  0
   -8.4938    2.6185   -9.8140 N   0  0  0  0  0  0  0  0  0  0  0  0
   -8.3363    2.7903   -8.4654 C   0  0  0  0  0  0  0  0  0  0  0  0
   -8.1728    4.1226   -8.1587 C   0  0  0  0  0  0  0  0  0  0  0  0
   -8.2200    4.7806   -9.3583 N   0  0  0  0  0  0  0  0  0  0  0  0
   -8.1014    6.1412   -9.6308 C   0  0  0  0  0  0  0  0  0  0  0  0
   -8.1847    6.5679  -10.9041 C   0  0  0  0  0  0  0  0  0  0  0  0
   -8.0564    8.3747  -11.3389 Br  0  0  0  0  0  0  0  0  0  0  0  0
   -4.6620    6.2388  -14.9665 S   0  0  0  0  0  0  0  0  0  0  0  0
   -4.6629    5.7092  -16.5975 C   0  0  0  0  0  0  0  0  0  0  0  0
   -3.3808    5.3549  -17.1089 C   0  0  0  0  0  0  0  0  0  0  0  0
   -2.9756    5.7961  -18.4889 C   0  0  0  0  0  0  0  0  0  0  0  0
   -2.5973    4.7227  -16.4029 O   0  0  0  0  0  0  0  0  0  0  0  0
  1  2  1  0
  2  3  1  0
  3  4  1  0
  4  5  2  0
  4  6  1  0
  6  7  1  0
  7  8  2  0
  8  9  1  0
  9 10  1  0
 10 11  2  0
 10 12  1  0
 12 13  2  0
 13 14  1  0
 14 15  2  0
 15 16  1  0
 16 17  2  0
 17 18  1  0
 18 19  1  0
 19 20  2  0
 20 21  1  0
  8 22  1  0
 22 23  1  0
 23 24  1  0
 24 25  1  0
 24 26  2  0
 23  6  2  0
 20 12  1  0
 18 14  1  0
M  END
>  <fragmenstein_outcome>  (259) 
nan

>  <exports>  (259) 
['/opt/xchem-fragalysis-2/maxwin/openbind-hippo/xx01zvns2b/cycle_01/syndirella/elabs/openbind_xx01zvns2b_c1_elab_chemspace_filtered.sdf']

>  <Energy>  (259) 
nan

>  <alias>  (259) 
None

>  <fragmenstein_runtime>  (259) 
nan

>  <scratch_subdir>  (259) 
nan

>  <HIPPO Compound ID>  (259) 
141870

>  <rmsd(smina/fragmenstein)>  (259) 
0.549

>  <distance_score>  (259) 
1.55495

>  <orig_smiles>  (259) 
nan

>  <fragmenstein_mode>  (259) 
nan

>  <inchikey>  (259) 
BCHGBKCTUINUMJ-UHFFFAOYSA-N

>  <ref_pdb>  (259) 
Z0673a

>  <GNINA pK>  (259) 
nan

>  <gnina_score_min>  (259) 
5.267

>  <tags>  (259) 
openbind_xx01zvns2b_c1_elab_nonasap_filtered_scored_top80percent,openbind_xx01zvns2b_c1_elab_chemspace_filtered_scored_top80percent,openbind_xx01zvns2b_c1_elab_chemspace_filtered_scored,openbind_xx01zvns2b_c1_elab_chemspace_filtered_scored_top40percent,openbind_xx01zvns2b_c1_elab_chemspace_filtered_scored_top20percent,openbind_xx01zvns2b_c1_elab_chemspace_filtered_scored_top60percent,openbind_xx01zvns2b_c1_elabs_filtered

>  <smiles>  (259) 
CCOC(=O)c1nc(NC(=O)c2cc3nccn3cc2Br)sc1C(C)=O

>  <subsites>  (259) 
1 - Z4590/B/203/1

>  <gnina_score>  (259) 
5.588

>  <HIPPO Pose ID>  (259) 
70179

>  <ref_mols>  (259) 
Z1495a,Z0673a

>  <energy_score>  (259) 
-83.832655

>  <inspiration_score>  (259) 
None

>  <smina_score_min>  (259) 
-5.792

>  <fragmenstein_error>  (259) 
nan

>  <name>  (259) 
P70179

$$$$
P70180
     RDKit          3D

 26 28  0  0  0  0  0  0  0  0999 V2000
  -10.0315    4.0858  -18.1474 C   0  0  0  0  0  0  0  0  0  0  0  0
   -8.7765    4.4513  -17.3969 C   0  0  0  0  0  0  0  0  0  0  0  0
   -7.8204    4.8778  -18.3871 O   0  0  0  0  0  0  0  0  0  0  0  0
   -6.4825    4.9816  -18.1494 C   0  0  0  0  0  0  0  0  0  0  0  0
   -5.6905    4.9497  -19.0854 O   0  0  0  0  0  0  0  0  0  0  0  0
   -6.0171    5.1647  -16.7663 C   0  0  0  0  0  0  0  0  0  0  0  0
   -6.9015    5.2827  -15.6999 N   0  0  0  0  0  0  0  0  0  0  0  0
   -6.2655    5.1839  -14.5721 C   0  0  0  0  0  0  0  0  0  0  0  0
   -6.8100    5.1193  -13.3449 N   0  0  0  0  0  0  0  0  0  0  0  0
   -8.1737    5.1385  -12.9247 C   0  0  0  0  0  0  0  0  0  0  0  0
   -9.1829    5.2957  -13.5468 O   0  0  0  0  0  0  0  0  0  0  0  0
   -8.2240    4.9270  -11.4508 C   0  0  0  0  0  0  0  0  0  0  0  0
   -7.8679    6.0028  -10.5366 C   0  0  0  0  0  0  0  0  0  0  0  0
   -7.8769    5.7696   -9.2091 C   0  0  0  0  0  0  0  0  0  0  0  0
   -7.4361    7.1223   -7.9969 Br  0  0  0  0  0  0  0  0  0  0  0  0
   -8.2408    4.4895   -8.7551 N   0  0  0  0  0  0  0  0  0  0  0  0
   -8.3249    3.9732   -7.4830 C   0  0  0  0  0  0  0  0  0  0  0  0
   -8.7445    2.6722   -7.6321 C   0  0  0  0  0  0  0  0  0  0  0  0
   -8.9500    2.3760   -8.9494 N   0  0  0  0  0  0  0  0  0  0  0  0
   -8.6102    3.4546   -9.6144 C   0  0  0  0  0  0  0  0  0  0  0  0
   -8.5766    3.7045  -11.0127 C   0  0  0  0  0  0  0  0  0  0  0  0
   -4.5817    5.1234  -14.6519 S   0  0  0  0  0  0  0  0  0  0  0  0
   -4.6863    5.2435  -16.3718 C   0  0  0  0  0  0  0  0  0  0  0  0
   -3.4488    5.3582  -17.1066 C   0  0  0  0  0  0  0  0  0  0  0  0
   -3.3815    6.2997  -18.2838 C   0  0  0  0  0  0  0  0  0  0  0  0
   -2.4224    4.7784  -16.7503 O   0  0  0  0  0  0  0  0  0  0  0  0
  1  2  1  0
  2  3  1  0
  3  4  1  0
  4  5  2  0
  4  6  1  0
  6  7  1  0
  7  8  2  0
  8  9  1  0
  9 10  1  0
 10 11  2  0
 10 12  1  0
 12 13  1  0
 13 14  2  0
 14 15  1  0
 14 16  1  0
 16 17  1  0
 17 18  2  0
 18 19  1  0
 19 20  2  0
 20 21  1  0
  8 22  1  0
 22 23  1  0
 23 24  1  0
 24 25  1  0
 24 26  2  0
 23  6  2  0
 21 12  2  0
 20 16  1  0
M  END
>  <fragmenstein_outcome>  (260) 
nan

>  <exports>  (260) 
['/opt/xchem-fragalysis-2/maxwin/openbind-hippo/xx01zvns2b/cycle_01/syndirella/elabs/openbind_xx01zvns2b_c1_elab_chemspace_filtered.sdf']

>  <Energy>  (260) 
nan

>  <alias>  (260) 
None

>  <fragmenstein_runtime>  (260) 
nan

>  <scratch_subdir>  (260) 
nan

>  <HIPPO Compound ID>  (260) 
141872

>  <rmsd(smina/fragmenstein)>  (260) 
0.502

>  <distance_score>  (260) 
1.619236

>  <orig_smiles>  (260) 
nan

>  <fragmenstein_mode>  (260) 
nan

>  <inchikey>  (260) 
LWAIZLBWTKLHPL-UHFFFAOYSA-N

>  <ref_pdb>  (260) 
Z0673a

>  <GNINA pK>  (260) 
nan

>  <gnina_score_min>  (260) 
5.344

>  <tags>  (260) 
openbind_xx01zvns2b_c1_elab_nonasap_filtered_scored_top80percent,openbind_xx01zvns2b_c1_elab_chemspace_filtered_scored_top80percent,openbind_xx01zvns2b_c1_elab_chemspace_filtered_scored,openbind_xx01zvns2b_c1_elab_chemspace_filtered_scored_top40percent,openbind_xx01zvns2b_c1_elab_chemspace_filtered_scored_top20percent,openbind_xx01zvns2b_c1_elab_chemspace_filtered_scored_top60percent,openbind_xx01zvns2b_c1_elabs_filtered

>  <smiles>  (260) 
CCOC(=O)c1nc(NC(=O)c2cc(Br)n3ccnc3c2)sc1C(C)=O

>  <subsites>  (260) 
1 - Z4590/B/203/1

>  <gnina_score>  (260) 
5.344

>  <HIPPO Pose ID>  (260) 
70180

>  <ref_mols>  (260) 
Z1495a,Z0673a

>  <energy_score>  (260) 
-73.486052

>  <inspiration_score>  (260) 
None

>  <smina_score_min>  (260) 
-6.238

>  <fragmenstein_error>  (260) 
nan

>  <name>  (260) 
P70180

$$$$
P70182
     RDKit          3D

 26 28  0  0  0  0  0  0  0  0999 V2000
   -9.3391    3.9590  -18.4374 C   0  0  0  0  0  0  0  0  0  0  0  0
   -8.1919    4.6129  -17.7146 C   0  0  0  0  0  0  0  0  0  0  0  0
   -7.5236    5.5102  -18.6274 O   0  0  0  0  0  0  0  0  0  0  0  0
   -6.3430    6.1184  -18.3063 C   0  0  0  0  0  0  0  0  0  0  0  0
   -5.7140    6.7900  -19.1168 O   0  0  0  0  0  0  0  0  0  0  0  0
   -5.8804    5.9611  -16.9329 C   0  0  0  0  0  0  0  0  0  0  0  0
   -6.7871    6.1572  -15.9008 N   0  0  0  0  0  0  0  0  0  0  0  0
   -6.2338    5.8614  -14.7686 C   0  0  0  0  0  0  0  0  0  0  0  0
   -6.8362    5.7483  -13.5822 N   0  0  0  0  0  0  0  0  0  0  0  0
   -8.3255    5.8129  -13.2089 C   0  0  0  0  0  0  0  0  0  0  0  0
   -9.2576    6.0508  -13.8628 O   0  0  0  0  0  0  0  0  0  0  0  0
   -8.3718    5.4499  -11.7823 C   0  0  0  0  0  0  0  0  0  0  0  0
   -8.1448    6.4520  -10.7565 C   0  0  0  0  0  0  0  0  0  0  0  0
   -8.0966    6.0469   -9.4773 C   0  0  0  0  0  0  0  0  0  0  0  0
   -8.2676    4.6913   -9.1847 N   0  0  0  0  0  0  0  0  0  0  0  0
   -8.2808    4.0329   -7.9824 C   0  0  0  0  0  0  0  0  0  0  0  0
   -8.0867    4.7639   -6.2419 Br  0  0  0  0  0  0  0  0  0  0  0  0
   -8.4696    2.7049   -8.2804 C   0  0  0  0  0  0  0  0  0  0  0  0
   -8.6025    2.5275   -9.6327 N   0  0  0  0  0  0  0  0  0  0  0  0
   -8.4743    3.7190  -10.1597 C   0  0  0  0  0  0  0  0  0  0  0  0
   -8.5109    4.1387  -11.5122 C   0  0  0  0  0  0  0  0  0  0  0  0
   -4.5977    5.4994  -14.7840 S   0  0  0  0  0  0  0  0  0  0  0  0
   -4.6070    5.6313  -16.5016 C   0  0  0  0  0  0  0  0  0  0  0  0
   -3.3622    5.3254  -17.1419 C   0  0  0  0  0  0  0  0  0  0  0  0
   -3.2859    5.2133  -18.6405 C   0  0  0  0  0  0  0  0  0  0  0  0
   -2.3465    5.1316  -16.4750 O   0  0  0  0  0  0  0  0  0  0  0  0
  1  2  1  0
  2  3  1  0
  3  4  1  0
  4  5  2  0
  4  6  1  0
  6  7  1  0
  7  8  2  0
  8  9  1  0
  9 10  1  0
 10 11  2  0
 10 12  1  0
 12 13  1  0
 13 14  2  0
 14 15  1  0
 15 16  1  0
 16 17  1  0
 16 18  2  0
 18 19  1  0
 19 20  2  0
 20 21  1  0
  8 22  1  0
 22 23  1  0
 23 24  1  0
 24 25  1  0
 24 26  2  0
 23  6  2  0
 21 12  2  0
 20 15  1  0
M  END
>  <fragmenstein_outcome>  (261) 
nan

>  <exports>  (261) 
['/opt/xchem-fragalysis-2/maxwin/openbind-hippo/xx01zvns2b/cycle_01/syndirella/elabs/openbind_xx01zvns2b_c1_elab_chemspace_filtered.sdf']

>  <Energy>  (261) 
nan

>  <alias>  (261) 
None

>  <fragmenstein_runtime>  (261) 
nan

>  <scratch_subdir>  (261) 
nan

>  <HIPPO Compound ID>  (261) 
141874

>  <rmsd(smina/fragmenstein)>  (261) 
0.645

>  <distance_score>  (261) 
1.57611

>  <orig_smiles>  (261) 
nan

>  <fragmenstein_mode>  (261) 
nan

>  <inchikey>  (261) 
ZDQDGFDGYYQNMY-UHFFFAOYSA-N

>  <ref_pdb>  (261) 
Z0673a

>  <GNINA pK>  (261) 
nan

>  <gnina_score_min>  (261) 
5.232

>  <tags>  (261) 
openbind_xx01zvns2b_c1_elab_nonasap_filtered_scored_top80percent,openbind_xx01zvns2b_c1_elab_chemspace_filtered_scored_top80percent,openbind_xx01zvns2b_c1_elab_chemspace_filtered_scored,openbind_xx01zvns2b_c1_elab_chemspace_filtered_scored_top40percent,openbind_xx01zvns2b_c1_elab_chemspace_filtered_scored_top20percent,openbind_xx01zvns2b_c1_elab_chemspace_filtered_scored_top60percent,openbind_xx01zvns2b_c1_elabs_filtered

>  <smiles>  (261) 
CCOC(=O)c1nc(NC(=O)c2ccn3c(Br)cnc3c2)sc1C(C)=O

>  <subsites>  (261) 
1 - Z4590/B/203/1

>  <gnina_score>  (261) 
5.46

>  <HIPPO Pose ID>  (261) 
70182

>  <ref_mols>  (261) 
Z1495a,Z0673a

>  <energy_score>  (261) 
-49.092122

>  <inspiration_score>  (261) 
None

>  <smina_score_min>  (261) 
-5.939

>  <fragmenstein_error>  (261) 
nan

>  <name>  (261) 
P70182

$$$$
P70184
     RDKit          3D

 26 29  0  0  0  0  0  0  0  0999 V2000
   -9.6850    3.9158  -18.1394 C   0  0  0  0  0  0  0  0  0  0  0  0
   -8.2976    4.3788  -17.7848 C   0  0  0  0  0  0  0  0  0  0  0  0
   -7.4723    4.4149  -18.9645 O   0  0  0  0  0  0  0  0  0  0  0  0
   -6.1420    4.7707  -18.9351 C   0  0  0  0  0  0  0  0  0  0  0  0
   -5.4827    4.7336  -19.9684 O   0  0  0  0  0  0  0  0  0  0  0  0
   -5.5344    5.1150  -17.6382 C   0  0  0  0  0  0  0  0  0  0  0  0
   -6.3142    5.5248  -16.5715 N   0  0  0  0  0  0  0  0  0  0  0  0
   -5.6462    5.4526  -15.4638 C   0  0  0  0  0  0  0  0  0  0  0  0
   -6.2225    5.4980  -14.2537 N   0  0  0  0  0  0  0  0  0  0  0  0
   -7.6945    5.7120  -13.8547 C   0  0  0  0  0  0  0  0  0  0  0  0
   -8.6258    5.9588  -14.5085 O   0  0  0  0  0  0  0  0  0  0  0  0
   -7.7830    5.5293  -12.3941 C   0  0  0  0  0  0  0  0  0  0  0  0
   -7.5089    6.6377  -11.4951 C   0  0  0  0  0  0  0  0  0  0  0  0
   -7.6448    6.4315  -10.1763 C   0  0  0  0  0  0  0  0  0  0  0  0
   -8.0456    5.1762   -9.7288 N   0  0  0  0  0  0  0  0  0  0  0  0
   -8.3059    4.7663   -8.4551 C   0  0  0  0  0  0  0  0  0  0  0  0
   -8.7886    3.4889   -8.5970 C   0  0  0  0  0  0  0  0  0  0  0  0
   -9.4621    2.7061   -7.4654 C   0  0  0  0  0  0  0  0  0  0  0  0
   -8.8267    1.4648   -6.9636 C   0  0  0  0  0  0  0  0  0  0  0  0
   -8.8548    2.6871   -6.0930 C   0  0  0  0  0  0  0  0  0  0  0  0
   -8.7394    3.0596   -9.8917 N   0  0  0  0  0  0  0  0  0  0  0  0
   -8.3130    4.0989  -10.5685 C   0  0  0  0  0  0  0  0  0  0  0  0
   -8.1584    4.3088  -11.9634 C   0  0  0  0  0  0  0  0  0  0  0  0
   -3.9860    5.1993  -15.5972 S   0  0  0  0  0  0  0  0  0  0  0  0
   -4.1929    5.0790  -17.2990 C   0  0  0  0  0  0  0  0  0  0  0  0
   -2.7198    4.8256  -18.4732 Br  0  0  0  0  0  0  0  0  0  0  0  0
  1  2  1  0
  2  3  1  0
  3  4  1  0
  4  5  2  0
  4  6  1  0
  6  7  1  0
  7  8  2  0
  8  9  1  0
  9 10  1  0
 10 11  2  0
 10 12  1  0
 12 13  1  0
 13 14  2  0
 14 15  1  0
 15 16  1  0
 16 17  2  0
 17 18  1  0
 18 19  1  0
 19 20  1  0
 17 21  1  0
 21 22  2  0
 22 23  1  0
  8 24  1  0
 24 25  1  0
 25 26  1  0
 25  6  2  0
 23 12  2  0
 22 15  1  0
 20 18  1  0
M  END
>  <fragmenstein_outcome>  (262) 
nan

>  <exports>  (262) 
['/opt/xchem-fragalysis-2/maxwin/openbind-hippo/xx01zvns2b/cycle_01/syndirella/elabs/openbind_xx01zvns2b_c1_elab_chemspace_filtered.sdf']

>  <Energy>  (262) 
nan

>  <alias>  (262) 
None

>  <fragmenstein_runtime>  (262) 
nan

>  <scratch_subdir>  (262) 
nan

>  <HIPPO Compound ID>  (262) 
141877

>  <rmsd(smina/fragmenstein)>  (262) 
1.987

>  <distance_score>  (262) 
0.917036

>  <orig_smiles>  (262) 
nan

>  <fragmenstein_mode>  (262) 
nan

>  <inchikey>  (262) 
SAIBXCIQFSPIBJ-UHFFFAOYSA-N

>  <ref_pdb>  (262) 
Z0673a

>  <GNINA pK>  (262) 
nan

>  <gnina_score_min>  (262) 
5.213

>  <tags>  (262) 
openbind_xx01zvns2b_c1_elab_nonasap_filtered_scored_top80percent,openbind_xx01zvns2b_c1_elab_chemspace_filtered_scored_top80percent,openbind_xx01zvns2b_c1_elab_chemspace_filtered_scored,openbind_xx01zvns2b_c1_elab_chemspace_filtered_scored_top40percent,openbind_xx01zvns2b_c1_elab_chemspace_filtered_scored_top20percent,openbind_xx01zvns2b_c1_elab_chemspace_filtered_scored_top60percent,openbind_xx01zvns2b_c1_elabs_filtered

>  <smiles>  (262) 
CCOC(=O)c1nc(NC(=O)c2ccn3cc(C4CC4)nc3c2)sc1Br

>  <subsites>  (262) 
1 - Z4590/B/203/1

>  <gnina_score>  (262) 
5.401

>  <HIPPO Pose ID>  (262) 
70184

>  <ref_mols>  (262) 
Z1495a,Z0673a

>  <energy_score>  (262) 
-76.674138

>  <inspiration_score>  (262) 
None

>  <smina_score_min>  (262) 
-6.787

>  <fragmenstein_error>  (262) 
nan

>  <name>  (262) 
P70184

$$$$
P70185
     RDKit          3D

 26 28  0  0  0  0  0  0  0  0999 V2000
   -3.6362    7.6038  -14.2530 C   0  0  0  0  0  0  0  0  0  0  0  0
   -4.8354    7.1229  -13.8961 C   0  0  0  0  0  0  0  0  0  0  0  0
   -6.0053    6.9775  -14.8476 C   0  0  0  0  0  0  0  0  0  0  0  0
   -6.6077    5.5019  -14.6889 N   0  0  0  0  0  0  0  0  0  0  0  0
   -7.9398    5.5659  -14.1996 C   0  0  0  0  0  0  0  0  0  0  0  0
   -8.9877    5.6246  -14.7852 O   0  0  0  0  0  0  0  0  0  0  0  0
   -7.9472    5.4390  -12.7161 C   0  0  0  0  0  0  0  0  0  0  0  0
   -7.9189    6.5933  -11.8247 C   0  0  0  0  0  0  0  0  0  0  0  0
   -7.9896    6.3837  -10.4970 C   0  0  0  0  0  0  0  0  0  0  0  0
   -8.1043    5.0774  -10.0209 N   0  0  0  0  0  0  0  0  0  0  0  0
   -8.2092    4.6179   -8.7328 C   0  0  0  0  0  0  0  0  0  0  0  0
   -8.3468    3.2481   -8.8381 C   0  0  0  0  0  0  0  0  0  0  0  0
   -8.5495    2.2344   -7.7802 C   0  0  0  0  0  0  0  0  0  0  0  0
   -8.2883    2.8613  -10.1542 N   0  0  0  0  0  0  0  0  0  0  0  0
   -8.1506    3.9638  -10.8485 C   0  0  0  0  0  0  0  0  0  0  0  0
   -8.0668    4.1797  -12.2486 C   0  0  0  0  0  0  0  0  0  0  0  0
   -6.1110    5.3815  -16.0178 C   0  0  0  0  0  0  0  0  0  0  0  0
   -6.8515    5.2981  -17.1009 N   0  0  0  0  0  0  0  0  0  0  0  0
   -6.0922    4.8240  -18.1751 C   0  0  0  0  0  0  0  0  0  0  0  0
   -6.6029    4.3632  -19.4803 C   0  0  0  0  0  0  0  0  0  0  0  0
   -5.8458    4.2920  -20.4432 O   0  0  0  0  0  0  0  0  0  0  0  0
   -7.8909    3.9226  -19.5781 O   0  0  0  0  0  0  0  0  0  0  0  0
   -8.9611    4.6636  -18.9921 C   0  0  0  0  0  0  0  0  0  0  0  0
   -9.5675    3.8970  -17.8424 C   0  0  0  0  0  0  0  0  0  0  0  0
   -4.7364    4.7301  -17.8919 C   0  0  0  0  0  0  0  0  0  0  0  0
   -4.4809    4.8255  -16.2069 S   0  0  0  0  0  0  0  0  0  0  0  0
  1  2  2  0
  2  3  1  0
  3  4  1  0
  4  5  1  0
  5  6  2  0
  5  7  1  0
  7  8  1  0
  8  9  2  0
  9 10  1  0
 10 11  1  0
 11 12  2  0
 12 13  1  0
 12 14  1  0
 14 15  2  0
 15 16  1  0
  4 17  1  0
 17 18  2  0
 18 19  1  0
 19 20  1  0
 20 21  2  0
 20 22  1  0
 22 23  1  0
 23 24  1  0
 19 25  2  0
 25 26  1  0
 16  7  2  0
 26 17  1  0
 15 10  1  0
M  END
>  <fragmenstein_outcome>  (263) 
nan

>  <exports>  (263) 
['/opt/xchem-fragalysis-2/maxwin/openbind-hippo/xx01zvns2b/cycle_01/syndirella/elabs/openbind_xx01zvns2b_c1_elab_chemspace_filtered.sdf']

>  <Energy>  (263) 
nan

>  <alias>  (263) 
None

>  <fragmenstein_runtime>  (263) 
nan

>  <scratch_subdir>  (263) 
nan

>  <HIPPO Compound ID>  (263) 
141879

>  <rmsd(smina/fragmenstein)>  (263) 
1.332

>  <distance_score>  (263) 
1.518448

>  <orig_smiles>  (263) 
nan

>  <fragmenstein_mode>  (263) 
nan

>  <inchikey>  (263) 
JMLDXTJIBMMWNN-UHFFFAOYSA-N

>  <ref_pdb>  (263) 
Z0673a

>  <GNINA pK>  (263) 
nan

>  <gnina_score_min>  (263) 
5.256

>  <tags>  (263) 
openbind_xx01zvns2b_c1_elab_nonasap_filtered_scored_top80percent,openbind_xx01zvns2b_c1_elab_chemspace_filtered_scored_top80percent,openbind_xx01zvns2b_c1_elab_chemspace_filtered_scored,openbind_xx01zvns2b_c1_elab_chemspace_filtered_scored_top40percent,openbind_xx01zvns2b_c1_elab_chemspace_filtered_scored_top20percent,openbind_xx01zvns2b_c1_elab_chemspace_filtered_scored_top60percent,openbind_xx01zvns2b_c1_elabs_filtered

>  <smiles>  (263) 
C=CCN(C(=O)c1ccn2cc(C)nc2c1)c1nc(C(=O)OCC)cs1

>  <subsites>  (263) 
1 - Z4590/B/203/1

>  <gnina_score>  (263) 
5.506

>  <HIPPO Pose ID>  (263) 
70185

>  <ref_mols>  (263) 
Z1495a,Z0673a

>  <energy_score>  (263) 
-17.641414

>  <inspiration_score>  (263) 
None

>  <smina_score_min>  (263) 
-5.893

>  <fragmenstein_error>  (263) 
nan

>  <name>  (263) 
P70185

$$$$
P70192
     RDKit          3D

 27 29  0  0  0  0  0  0  0  0999 V2000
   -9.7119    3.9343  -18.0848 C   0  0  0  0  0  0  0  0  0  0  0  0
   -8.3489    4.4084  -17.6583 C   0  0  0  0  0  0  0  0  0  0  0  0
   -7.5232    4.5943  -18.8239 O   0  0  0  0  0  0  0  0  0  0  0  0
   -6.1948    4.9399  -18.7548 C   0  0  0  0  0  0  0  0  0  0  0  0
   -5.5196    4.9793  -19.7781 O   0  0  0  0  0  0  0  0  0  0  0  0
   -5.6108    5.1985  -17.4298 C   0  0  0  0  0  0  0  0  0  0  0  0
   -6.4016    5.5848  -16.3584 N   0  0  0  0  0  0  0  0  0  0  0  0
   -5.7552    5.4409  -15.2430 C   0  0  0  0  0  0  0  0  0  0  0  0
   -6.3355    5.4505  -14.0302 N   0  0  0  0  0  0  0  0  0  0  0  0
   -7.8159    5.6186  -13.6295 C   0  0  0  0  0  0  0  0  0  0  0  0
   -8.7532    5.8516  -14.2813 O   0  0  0  0  0  0  0  0  0  0  0  0
   -7.9120    5.3421  -12.1800 C   0  0  0  0  0  0  0  0  0  0  0  0
   -7.6500    6.3826  -11.1990 C   0  0  0  0  0  0  0  0  0  0  0  0
   -7.7654    6.0712   -9.8968 C   0  0  0  0  0  0  0  0  0  0  0  0
   -8.1329    4.7746   -9.5395 N   0  0  0  0  0  0  0  0  0  0  0  0
   -8.3179    4.2365   -8.2961 C   0  0  0  0  0  0  0  0  0  0  0  0
   -8.7406    2.9302   -8.4992 C   0  0  0  0  0  0  0  0  0  0  0  0
   -9.1769    1.9392   -7.4585 C   0  0  0  0  0  0  0  0  0  0  0  0
  -10.0244    2.5347   -6.5677 F   0  0  0  0  0  0  0  0  0  0  0  0
   -8.1430    1.4693   -6.7233 F   0  0  0  0  0  0  0  0  0  0  0  0
   -9.8414    0.8678   -7.9544 F   0  0  0  0  0  0  0  0  0  0  0  0
   -8.7620    2.6615   -9.8603 N   0  0  0  0  0  0  0  0  0  0  0  0
   -8.3994    3.7692  -10.4587 C   0  0  0  0  0  0  0  0  0  0  0  0
   -8.2714    4.0900  -11.8352 C   0  0  0  0  0  0  0  0  0  0  0  0
   -4.0993    5.1323  -15.3664 S   0  0  0  0  0  0  0  0  0  0  0  0
   -4.2777    5.1012  -17.0734 C   0  0  0  0  0  0  0  0  0  0  0  0
   -2.7980    4.8511  -18.2432 Br  0  0  0  0  0  0  0  0  0  0  0  0
  1  2  1  0
  2  3  1  0
  3  4  1  0
  4  5  2  0
  4  6  1  0
  6  7  1  0
  7  8  2  0
  8  9  1  0
  9 10  1  0
 10 11  2  0
 10 12  1  0
 12 13  1  0
 13 14  2  0
 14 15  1  0
 15 16  1  0
 16 17  2  0
 17 18  1  0
 18 19  1  0
 18 20  1  0
 18 21  1  0
 17 22  1  0
 22 23  2  0
 23 24  1  0
  8 25  1  0
 25 26  1  0
 26 27  1  0
 26  6  2  0
 24 12  2  0
 23 15  1  0
M  END
>  <fragmenstein_outcome>  (264) 
nan

>  <exports>  (264) 
['/opt/xchem-fragalysis-2/maxwin/openbind-hippo/xx01zvns2b/cycle_01/syndirella/elabs/openbind_xx01zvns2b_c1_elab_chemspace_filtered.sdf']

>  <Energy>  (264) 
nan

>  <alias>  (264) 
None

>  <fragmenstein_runtime>  (264) 
nan

>  <scratch_subdir>  (264) 
nan

>  <HIPPO Compound ID>  (264) 
141893

>  <rmsd(smina/fragmenstein)>  (264) 
0.673

>  <distance_score>  (264) 
0.847032

>  <orig_smiles>  (264) 
nan

>  <fragmenstein_mode>  (264) 
nan

>  <inchikey>  (264) 
YOOJQXHAWXLWEK-UHFFFAOYSA-N

>  <ref_pdb>  (264) 
Z0673a

>  <GNINA pK>  (264) 
nan

>  <gnina_score_min>  (264) 
5.341

>  <tags>  (264) 
openbind_xx01zvns2b_c1_elab_nonasap_filtered_scored_top80percent,openbind_xx01zvns2b_c1_elab_chemspace_filtered_scored_top80percent,openbind_xx01zvns2b_c1_elab_chemspace_filtered_scored,openbind_xx01zvns2b_c1_elab_chemspace_filtered_scored_top40percent,openbind_xx01zvns2b_c1_elab_chemspace_filtered_scored_top20percent,openbind_xx01zvns2b_c1_elab_chemspace_filtered_scored_top60percent,openbind_xx01zvns2b_c1_elabs_filtered

>  <smiles>  (264) 
CCOC(=O)c1nc(NC(=O)c2ccn3cc(C(F)(F)F)nc3c2)sc1Br

>  <subsites>  (264) 
1 - Z4590/B/203/1

>  <gnina_score>  (264) 
5.242

>  <HIPPO Pose ID>  (264) 
70192

>  <ref_mols>  (264) 
Z1495a,Z0673a

>  <energy_score>  (264) 
-45.251663

>  <inspiration_score>  (264) 
None

>  <smina_score_min>  (264) 
-6.84

>  <fragmenstein_error>  (264) 
nan

>  <name>  (264) 
P70192

$$$$
P70194
     RDKit          3D

 27 29  0  0  0  0  0  0  0  0999 V2000
   -9.3861    3.9255  -18.4603 C   0  0  0  0  0  0  0  0  0  0  0  0
   -8.2539    4.5957  -17.7324 C   0  0  0  0  0  0  0  0  0  0  0  0
   -7.6181    5.5218  -18.6381 O   0  0  0  0  0  0  0  0  0  0  0  0
   -6.4710    6.1829  -18.3063 C   0  0  0  0  0  0  0  0  0  0  0  0
   -5.8895    6.9207  -19.0948 O   0  0  0  0  0  0  0  0  0  0  0  0
   -5.9837    5.9968  -16.9465 C   0  0  0  0  0  0  0  0  0  0  0  0
   -6.8752    6.1325  -15.8943 N   0  0  0  0  0  0  0  0  0  0  0  0
   -6.2859    5.8418  -14.7791 C   0  0  0  0  0  0  0  0  0  0  0  0
   -6.8609    5.6975  -13.5837 N   0  0  0  0  0  0  0  0  0  0  0  0
   -8.3378    5.7907  -13.1687 C   0  0  0  0  0  0  0  0  0  0  0  0
   -9.2785    6.0833  -13.7875 O   0  0  0  0  0  0  0  0  0  0  0  0
   -8.3642    5.4077  -11.7514 C   0  0  0  0  0  0  0  0  0  0  0  0
   -8.5214    4.0985  -11.4822 C   0  0  0  0  0  0  0  0  0  0  0  0
   -8.4968    3.6823  -10.1269 C   0  0  0  0  0  0  0  0  0  0  0  0
   -8.6498    2.4955   -9.5975 N   0  0  0  0  0  0  0  0  0  0  0  0
   -8.5154    2.6712   -8.2451 C   0  0  0  0  0  0  0  0  0  0  0  0
   -8.3066    3.9961   -7.9478 C   0  0  0  0  0  0  0  0  0  0  0  0
   -8.1058    4.7260   -6.2077 Br  0  0  0  0  0  0  0  0  0  0  0  0
   -8.2808    4.6533   -9.1501 N   0  0  0  0  0  0  0  0  0  0  0  0
   -8.0867    6.0028   -9.4416 C   0  0  0  0  0  0  0  0  0  0  0  0
   -8.1272    6.3914  -10.7213 C   0  0  0  0  0  0  0  0  0  0  0  0
   -7.9275    7.6787  -11.0606 F   0  0  0  0  0  0  0  0  0  0  0  0
   -4.6397    5.5329  -14.8353 S   0  0  0  0  0  0  0  0  0  0  0  0
   -4.6969    5.6829  -16.5499 C   0  0  0  0  0  0  0  0  0  0  0  0
   -3.4711    5.4055  -17.2323 C   0  0  0  0  0  0  0  0  0  0  0  0
   -3.4313    5.3438  -18.7356 C   0  0  0  0  0  0  0  0  0  0  0  0
   -2.4382    5.1874  -16.5991 O   0  0  0  0  0  0  0  0  0  0  0  0
  1  2  1  0
  2  3  1  0
  3  4  1  0
  4  5  2  0
  4  6  1  0
  6  7  1  0
  7  8  2  0
  8  9  1  0
  9 10  1  0
 10 11  2  0
 10 12  1  0
 12 13  2  0
 13 14  1  0
 14 15  2  0
 15 16  1  0
 16 17  2  0
 17 18  1  0
 17 19  1  0
 19 20  1  0
 20 21  2  0
 21 22  1  0
  8 23  1  0
 23 24  1  0
 24 25  1  0
 25 26  1  0
 25 27  2  0
 24  6  2  0
 21 12  1  0
 19 14  1  0
M  END
>  <fragmenstein_outcome>  (265) 
nan

>  <exports>  (265) 
['/opt/xchem-fragalysis-2/maxwin/openbind-hippo/xx01zvns2b/cycle_01/syndirella/elabs/openbind_xx01zvns2b_c1_elab_chemspace_filtered.sdf']

>  <Energy>  (265) 
nan

>  <alias>  (265) 
None

>  <fragmenstein_runtime>  (265) 
nan

>  <scratch_subdir>  (265) 
nan

>  <HIPPO Compound ID>  (265) 
141897

>  <rmsd(smina/fragmenstein)>  (265) 
0.614

>  <distance_score>  (265) 
1.469207

>  <orig_smiles>  (265) 
nan

>  <fragmenstein_mode>  (265) 
nan

>  <inchikey>  (265) 
WCBOGCPPURVOME-UHFFFAOYSA-N

>  <ref_pdb>  (265) 
Z0673a

>  <GNINA pK>  (265) 
nan

>  <gnina_score_min>  (265) 
5.46

>  <tags>  (265) 
openbind_xx01zvns2b_c1_elab_nonasap_filtered_scored_top80percent,openbind_xx01zvns2b_c1_elab_chemspace_filtered_scored_top80percent,openbind_xx01zvns2b_c1_elab_chemspace_filtered_scored,openbind_xx01zvns2b_c1_elab_chemspace_filtered_scored_top40percent,openbind_xx01zvns2b_c1_elab_chemspace_filtered_scored_top20percent,openbind_xx01zvns2b_c1_elab_chemspace_filtered_scored_top60percent,openbind_xx01zvns2b_c1_elabs_filtered

>  <smiles>  (265) 
CCOC(=O)c1nc(NC(=O)c2cc3ncc(Br)n3cc2F)sc1C(C)=O

>  <subsites>  (265) 
1 - Z4590/B/203/1

>  <gnina_score>  (265) 
5.726

>  <HIPPO Pose ID>  (265) 
70194

>  <ref_mols>  (265) 
Z1495a,Z0673a

>  <energy_score>  (265) 
-71.923515

>  <inspiration_score>  (265) 
None

>  <smina_score_min>  (265) 
-6.042

>  <fragmenstein_error>  (265) 
nan

>  <name>  (265) 
P70194

$$$$
P70197
     RDKit          3D

 27 29  0  0  0  0  0  0  0  0999 V2000
   -9.6798    3.9266  -18.1290 C   0  0  0  0  0  0  0  0  0  0  0  0
   -8.2872    4.3795  -17.7793 C   0  0  0  0  0  0  0  0  0  0  0  0
   -7.4614    4.3861  -18.9584 O   0  0  0  0  0  0  0  0  0  0  0  0
   -6.1317    4.7395  -18.9326 C   0  0  0  0  0  0  0  0  0  0  0  0
   -5.4632    4.6697  -19.9597 O   0  0  0  0  0  0  0  0  0  0  0  0
   -5.5161    5.1217  -17.6440 C   0  0  0  0  0  0  0  0  0  0  0  0
   -6.2899    5.4740  -16.5534 N   0  0  0  0  0  0  0  0  0  0  0  0
   -5.5914    5.4721  -15.4633 C   0  0  0  0  0  0  0  0  0  0  0  0
   -6.1417    5.4811  -14.2328 N   0  0  0  0  0  0  0  0  0  0  0  0
   -7.6208    5.6054  -13.7948 C   0  0  0  0  0  0  0  0  0  0  0  0
   -8.5833    5.7966  -14.4264 O   0  0  0  0  0  0  0  0  0  0  0  0
   -7.7040    5.3528  -12.3332 C   0  0  0  0  0  0  0  0  0  0  0  0
   -8.1752    4.1330  -11.9950 C   0  0  0  0  0  0  0  0  0  0  0  0
   -8.3186    3.7989  -10.6215 C   0  0  0  0  0  0  0  0  0  0  0  0
   -8.7498    2.7106  -10.0318 N   0  0  0  0  0  0  0  0  0  0  0  0
   -8.5998    2.9224   -8.6747 C   0  0  0  0  0  0  0  0  0  0  0  0
   -8.9304    1.9496   -7.6425 C   0  0  0  0  0  0  0  0  0  0  0  0
   -9.7364    1.0326   -7.7642 O   0  0  0  0  0  0  0  0  0  0  0  0
   -8.0966    4.1918   -8.4525 C   0  0  0  0  0  0  0  0  0  0  0  0
   -7.9516    4.7587   -9.6911 N   0  0  0  0  0  0  0  0  0  0  0  0
   -7.5046    6.0318  -10.0324 C   0  0  0  0  0  0  0  0  0  0  0  0
   -7.3775    6.3627  -11.3311 C   0  0  0  0  0  0  0  0  0  0  0  0
   -6.7854    8.0536  -11.8463 Br  0  0  0  0  0  0  0  0  0  0  0  0
   -3.9170    5.3596  -15.6615 S   0  0  0  0  0  0  0  0  0  0  0  0
   -4.1500    5.1717  -17.3668 C   0  0  0  0  0  0  0  0  0  0  0  0
   -2.9719    5.0152  -18.2761 C   0  0  0  0  0  0  0  0  0  0  0  0
   -2.6736    6.2989  -19.0366 C   0  0  0  0  0  0  0  0  0  0  0  0
  1  2  1  0
  2  3  1  0
  3  4  1  0
  4  5  2  0
  4  6  1  0
  6  7  1  0
  7  8  2  0
  8  9  1  0
  9 10  1  0
 10 11  2  0
 10 12  1  0
 12 13  2  0
 13 14  1  0
 14 15  2  0
 15 16  1  0
 16 17  1  0
 17 18  2  0
 16 19  2  0
 19 20  1  0
 20 21  1  0
 21 22  2  0
 22 23  1  0
  8 24  1  0
 24 25  1  0
 25 26  1  0
 26 27  1  0
 25  6  2  0
 22 12  1  0
 20 14  1  0
M  END
>  <fragmenstein_outcome>  (266) 
nan

>  <exports>  (266) 
['/opt/xchem-fragalysis-2/maxwin/openbind-hippo/xx01zvns2b/cycle_01/syndirella/elabs/openbind_xx01zvns2b_c1_elab_chemspace_filtered.sdf']

>  <Energy>  (266) 
nan

>  <alias>  (266) 
None

>  <fragmenstein_runtime>  (266) 
nan

>  <scratch_subdir>  (266) 
nan

>  <HIPPO Compound ID>  (266) 
141901

>  <rmsd(smina/fragmenstein)>  (266) 
0.934

>  <distance_score>  (266) 
1.38087

>  <orig_smiles>  (266) 
nan

>  <fragmenstein_mode>  (266) 
nan

>  <inchikey>  (266) 
PHFQMHQBFROBHL-UHFFFAOYSA-N

>  <ref_pdb>  (266) 
Z0673a

>  <GNINA pK>  (266) 
nan

>  <gnina_score_min>  (266) 
5.421

>  <tags>  (266) 
openbind_xx01zvns2b_c1_elab_nonasap_filtered_scored_top80percent,openbind_xx01zvns2b_c1_elab_chemspace_filtered_scored_top80percent,openbind_xx01zvns2b_c1_elab_chemspace_filtered_scored,openbind_xx01zvns2b_c1_elab_chemspace_filtered_scored_top40percent,openbind_xx01zvns2b_c1_elab_chemspace_filtered_scored_top20percent,openbind_xx01zvns2b_c1_elab_chemspace_filtered_scored_top60percent,openbind_xx01zvns2b_c1_elabs_filtered

>  <smiles>  (266) 
CCOC(=O)c1nc(NC(=O)c2cc3nc(C=O)cn3cc2Br)sc1CC

>  <subsites>  (266) 
1 - Z4590/B/203/1

>  <gnina_score>  (266) 
5.681

>  <HIPPO Pose ID>  (266) 
70197

>  <ref_mols>  (266) 
Z1495a,Z0673a

>  <energy_score>  (266) 
-59.597233

>  <inspiration_score>  (266) 
None

>  <smina_score_min>  (266) 
-6.313

>  <fragmenstein_error>  (266) 
nan

>  <name>  (266) 
P70197

$$$$
P70201
     RDKit          3D

 27 30  0  0  0  0  0  0  0  0999 V2000
   -9.5995    3.9267  -18.1322 C   0  0  0  0  0  0  0  0  0  0  0  0
   -8.1998    4.4064  -17.8451 C   0  0  0  0  0  0  0  0  0  0  0  0
   -7.4107    4.4015  -19.0494 O   0  0  0  0  0  0  0  0  0  0  0  0
   -6.0831    4.7683  -19.0638 C   0  0  0  0  0  0  0  0  0  0  0  0
   -5.4383    4.6883  -20.1045 O   0  0  0  0  0  0  0  0  0  0  0  0
   -5.4415    5.1759  -17.7970 C   0  0  0  0  0  0  0  0  0  0  0  0
   -6.1901    5.6266  -16.7273 N   0  0  0  0  0  0  0  0  0  0  0  0
   -5.5014    5.5710  -15.6318 C   0  0  0  0  0  0  0  0  0  0  0  0
   -6.0728    5.5927  -14.4127 N   0  0  0  0  0  0  0  0  0  0  0  0
   -7.5426    5.8164  -13.9991 C   0  0  0  0  0  0  0  0  0  0  0  0
   -8.4748    6.0931  -14.6418 O   0  0  0  0  0  0  0  0  0  0  0  0
   -7.6696    5.5421  -12.5490 C   0  0  0  0  0  0  0  0  0  0  0  0
   -7.5053    6.5993  -11.5634 C   0  0  0  0  0  0  0  0  0  0  0  0
   -7.7267    6.3073  -10.2701 C   0  0  0  0  0  0  0  0  0  0  0  0
   -8.1017    5.0108   -9.9226 N   0  0  0  0  0  0  0  0  0  0  0  0
   -8.3633    4.4841   -8.6887 C   0  0  0  0  0  0  0  0  0  0  0  0
   -8.6991    3.1710   -8.9259 C   0  0  0  0  0  0  0  0  0  0  0  0
   -9.0615    2.1132   -7.8632 C   0  0  0  0  0  0  0  0  0  0  0  0
   -8.4842    2.2529   -6.4865 C   0  0  0  0  0  0  0  0  0  0  0  0
   -9.9549    2.4176   -6.6878 C   0  0  0  0  0  0  0  0  0  0  0  0
   -8.6403    2.8726  -10.2590 N   0  0  0  0  0  0  0  0  0  0  0  0
   -8.2746    3.9860  -10.8456 C   0  0  0  0  0  0  0  0  0  0  0  0
   -8.0516    4.2929  -12.2139 C   0  0  0  0  0  0  0  0  0  0  0  0
   -3.8367    5.3558  -15.8159 S   0  0  0  0  0  0  0  0  0  0  0  0
   -4.0744    5.1693  -17.5218 C   0  0  0  0  0  0  0  0  0  0  0  0
   -2.9071    4.9443  -18.4285 C   0  0  0  0  0  0  0  0  0  0  0  0
   -2.5538    6.1999  -19.2119 C   0  0  0  0  0  0  0  0  0  0  0  0
  1  2  1  0
  2  3  1  0
  3  4  1  0
  4  5  2  0
  4  6  1  0
  6  7  1  0
  7  8  2  0
  8  9  1  0
  9 10  1  0
 10 11  2  0
 10 12  1  0
 12 13  1  0
 13 14  2  0
 14 15  1  0
 15 16  1  0
 16 17  2  0
 17 18  1  0
 18 19  1  0
 19 20  1  0
 17 21  1  0
 21 22  2  0
 22 23  1  0
  8 24  1  0
 24 25  1  0
 25 26  1  0
 26 27  1  0
 25  6  2  0
 23 12  2  0
 22 15  1  0
 20 18  1  0
M  END
>  <fragmenstein_outcome>  (267) 
nan

>  <exports>  (267) 
['/opt/xchem-fragalysis-2/maxwin/openbind-hippo/xx01zvns2b/cycle_01/syndirella/elabs/openbind_xx01zvns2b_c1_elab_chemspace_filtered.sdf']

>  <Energy>  (267) 
nan

>  <alias>  (267) 
None

>  <fragmenstein_runtime>  (267) 
nan

>  <scratch_subdir>  (267) 
nan

>  <HIPPO Compound ID>  (267) 
141905

>  <rmsd(smina/fragmenstein)>  (267) 
1.453

>  <distance_score>  (267) 
1.41696

>  <orig_smiles>  (267) 
nan

>  <fragmenstein_mode>  (267) 
nan

>  <inchikey>  (267) 
FQAQZQHDBVUVTG-UHFFFAOYSA-N

>  <ref_pdb>  (267) 
Z0673a

>  <GNINA pK>  (267) 
nan

>  <gnina_score_min>  (267) 
5.33

>  <tags>  (267) 
openbind_xx01zvns2b_c1_elab_nonasap_filtered_scored_top80percent,openbind_xx01zvns2b_c1_elab_chemspace_filtered_scored_top80percent,openbind_xx01zvns2b_c1_elab_chemspace_filtered_scored,openbind_xx01zvns2b_c1_elab_chemspace_filtered_scored_top40percent,openbind_xx01zvns2b_c1_elab_chemspace_filtered_scored_top20percent,openbind_xx01zvns2b_c1_elab_chemspace_filtered_scored_top60percent,openbind_xx01zvns2b_c1_elabs_filtered

>  <smiles>  (267) 
CCOC(=O)c1nc(NC(=O)c2ccn3cc(C4CC4)nc3c2)sc1CC

>  <subsites>  (267) 
1 - Z4590/B/203/1

>  <gnina_score>  (267) 
5.538

>  <HIPPO Pose ID>  (267) 
70201

>  <ref_mols>  (267) 
Z1495a,Z0673a

>  <energy_score>  (267) 
-94.858599

>  <inspiration_score>  (267) 
None

>  <smina_score_min>  (267) 
-6.521

>  <fragmenstein_error>  (267) 
nan

>  <name>  (267) 
P70201

$$$$
P70202
     RDKit          3D

 28 30  0  0  0  0  0  0  0  0999 V2000
   -9.6355    3.9328  -18.1039 C   0  0  0  0  0  0  0  0  0  0  0  0
   -8.2430    4.4019  -17.7706 C   0  0  0  0  0  0  0  0  0  0  0  0
   -7.4355    4.4326  -18.9621 O   0  0  0  0  0  0  0  0  0  0  0  0
   -6.1054    4.7842  -18.9489 C   0  0  0  0  0  0  0  0  0  0  0  0
   -5.4443    4.7109  -19.9803 O   0  0  0  0  0  0  0  0  0  0  0  0
   -5.4798    5.1651  -17.6654 C   0  0  0  0  0  0  0  0  0  0  0  0
   -6.2406    5.5698  -16.5837 N   0  0  0  0  0  0  0  0  0  0  0  0
   -5.5507    5.5133  -15.4884 C   0  0  0  0  0  0  0  0  0  0  0  0
   -6.1114    5.5158  -14.2618 N   0  0  0  0  0  0  0  0  0  0  0  0
   -7.5939    5.6129  -13.8369 C   0  0  0  0  0  0  0  0  0  0  0  0
   -8.5542    5.7831  -14.4764 O   0  0  0  0  0  0  0  0  0  0  0  0
   -7.6832    5.3386  -12.3801 C   0  0  0  0  0  0  0  0  0  0  0  0
   -7.4219    6.3784  -11.3962 C   0  0  0  0  0  0  0  0  0  0  0  0
   -7.5996    6.0874  -10.0953 C   0  0  0  0  0  0  0  0  0  0  0  0
   -8.0220    4.8080   -9.7353 N   0  0  0  0  0  0  0  0  0  0  0  0
   -8.2554    4.2860   -8.4917 C   0  0  0  0  0  0  0  0  0  0  0  0
   -8.6907    2.9832   -8.6924 C   0  0  0  0  0  0  0  0  0  0  0  0
   -9.1424    1.9970   -7.6507 C   0  0  0  0  0  0  0  0  0  0  0  0
   -8.1158    1.5017   -6.9222 F   0  0  0  0  0  0  0  0  0  0  0  0
   -9.8337    0.9414   -8.1429 F   0  0  0  0  0  0  0  0  0  0  0  0
   -9.9714    2.6040   -6.7487 F   0  0  0  0  0  0  0  0  0  0  0  0
   -8.6939    2.7081  -10.0542 N   0  0  0  0  0  0  0  0  0  0  0  0
   -8.2895    3.8020  -10.6534 C   0  0  0  0  0  0  0  0  0  0  0  0
   -8.1114    4.1080  -12.0301 C   0  0  0  0  0  0  0  0  0  0  0  0
   -3.8819    5.3251  -15.6776 S   0  0  0  0  0  0  0  0  0  0  0  0
   -4.1136    5.1678  -17.3860 C   0  0  0  0  0  0  0  0  0  0  0  0
   -2.9403    4.9756  -18.2937 C   0  0  0  0  0  0  0  0  0  0  0  0
   -2.6051    6.2483  -19.0573 C   0  0  0  0  0  0  0  0  0  0  0  0
  1  2  1  0
  2  3  1  0
  3  4  1  0
  4  5  2  0
  4  6  1  0
  6  7  1  0
  7  8  2  0
  8  9  1  0
  9 10  1  0
 10 11  2  0
 10 12  1  0
 12 13  1  0
 13 14  2  0
 14 15  1  0
 15 16  1  0
 16 17  2  0
 17 18  1  0
 18 19  1  0
 18 20  1  0
 18 21  1  0
 17 22  1  0
 22 23  2  0
 23 24  1  0
  8 25  1  0
 25 26  1  0
 26 27  1  0
 27 28  1  0
 26  6  2  0
 24 12  2  0
 23 15  1  0
M  END
>  <fragmenstein_outcome>  (268) 
nan

>  <exports>  (268) 
['/opt/xchem-fragalysis-2/maxwin/openbind-hippo/xx01zvns2b/cycle_01/syndirella/elabs/openbind_xx01zvns2b_c1_elab_chemspace_filtered.sdf']

>  <Energy>  (268) 
nan

>  <alias>  (268) 
None

>  <fragmenstein_runtime>  (268) 
nan

>  <scratch_subdir>  (268) 
nan

>  <HIPPO Compound ID>  (268) 
141908

>  <rmsd(smina/fragmenstein)>  (268) 
1.055

>  <distance_score>  (268) 
1.37524

>  <orig_smiles>  (268) 
nan

>  <fragmenstein_mode>  (268) 
nan

>  <inchikey>  (268) 
DTXYCYRQLULKHR-UHFFFAOYSA-N

>  <ref_pdb>  (268) 
Z0673a

>  <GNINA pK>  (268) 
nan

>  <gnina_score_min>  (268) 
5.477

>  <tags>  (268) 
openbind_xx01zvns2b_c1_elab_nonasap_filtered_scored_top80percent,openbind_xx01zvns2b_c1_elab_chemspace_filtered_scored_top80percent,openbind_xx01zvns2b_c1_elab_chemspace_filtered_scored,openbind_xx01zvns2b_c1_elab_chemspace_filtered_scored_top40percent,openbind_xx01zvns2b_c1_elab_chemspace_filtered_scored_top20percent,openbind_xx01zvns2b_c1_elab_chemspace_filtered_scored_top60percent,openbind_xx01zvns2b_c1_elabs_filtered

>  <smiles>  (268) 
CCOC(=O)c1nc(NC(=O)c2ccn3cc(C(F)(F)F)nc3c2)sc1CC

>  <subsites>  (268) 
1 - Z4590/B/203/1

>  <gnina_score>  (268) 
5.324

>  <HIPPO Pose ID>  (268) 
70202

>  <ref_mols>  (268) 
Z1495a,Z0673a

>  <energy_score>  (268) 
-103.945983

>  <inspiration_score>  (268) 
None

>  <smina_score_min>  (268) 
-6.656

>  <fragmenstein_error>  (268) 
nan

>  <name>  (268) 
P70202

$$$$
P70204
     RDKit          3D

 28 30  0  0  0  0  0  0  0  0999 V2000
   -9.3084    3.9928  -18.3239 C   0  0  0  0  0  0  0  0  0  0  0  0
   -8.1054    4.6605  -17.7075 C   0  0  0  0  0  0  0  0  0  0  0  0
   -7.5590    5.6025  -18.6547 O   0  0  0  0  0  0  0  0  0  0  0  0
   -6.4179    6.3051  -18.3886 C   0  0  0  0  0  0  0  0  0  0  0  0
   -5.9126    7.0767  -19.1966 O   0  0  0  0  0  0  0  0  0  0  0  0
   -5.8371    6.1035  -17.0700 C   0  0  0  0  0  0  0  0  0  0  0  0
   -6.6149    6.3682  -15.9521 N   0  0  0  0  0  0  0  0  0  0  0  0
   -6.0056    5.9550  -14.8849 C   0  0  0  0  0  0  0  0  0  0  0  0
   -6.5548    5.8070  -13.6715 N   0  0  0  0  0  0  0  0  0  0  0  0
   -7.9910    6.0717  -13.1854 C   0  0  0  0  0  0  0  0  0  0  0  0
   -8.9038    6.5324  -13.7423 O   0  0  0  0  0  0  0  0  0  0  0  0
   -8.0795    5.5187  -11.8211 C   0  0  0  0  0  0  0  0  0  0  0  0
   -8.5186    4.2475  -11.8123 C   0  0  0  0  0  0  0  0  0  0  0  0
   -8.6614    3.5833  -10.5761 C   0  0  0  0  0  0  0  0  0  0  0  0
   -9.1824    2.4187  -10.3139 N   0  0  0  0  0  0  0  0  0  0  0  0
   -9.0305    2.2507   -8.9700 C   0  0  0  0  0  0  0  0  0  0  0  0
   -8.4391    3.3436   -8.3858 C   0  0  0  0  0  0  0  0  0  0  0  0
   -8.1099    3.4904   -7.0033 C   0  0  0  0  0  0  0  0  0  0  0  0
   -7.6811    4.5266   -6.4976 O   0  0  0  0  0  0  0  0  0  0  0  0
   -8.2533    4.2373   -9.4213 N   0  0  0  0  0  0  0  0  0  0  0  0
   -7.7757    5.5534   -9.4406 C   0  0  0  0  0  0  0  0  0  0  0  0
   -7.6919    6.2200  -10.6094 C   0  0  0  0  0  0  0  0  0  0  0  0
   -7.0758    7.9749  -10.6959 Br  0  0  0  0  0  0  0  0  0  0  0  0
   -4.4275    5.4074  -15.0715 S   0  0  0  0  0  0  0  0  0  0  0  0
   -4.5780    5.6120  -16.7809 C   0  0  0  0  0  0  0  0  0  0  0  0
   -3.4597    5.1841  -17.5760 C   0  0  0  0  0  0  0  0  0  0  0  0
   -3.5348    5.2201  -19.0779 C   0  0  0  0  0  0  0  0  0  0  0  0
   -2.4379    4.7794  -17.0257 O   0  0  0  0  0  0  0  0  0  0  0  0
  1  2  1  0
  2  3  1  0
  3  4  1  0
  4  5  2  0
  4  6  1  0
  6  7  1  0
  7  8  2  0
  8  9  1  0
  9 10  1  0
 10 11  2  0
 10 12  1  0
 12 13  2  0
 13 14  1  0
 14 15  2  0
 15 16  1  0
 16 17  2  0
 17 18  1  0
 18 19  2  0
 17 20  1  0
 20 21  1  0
 21 22  2  0
 22 23  1  0
  8 24  1  0
 24 25  1  0
 25 26  1  0
 26 27  1  0
 26 28  2  0
 25  6  2  0
 22 12  1  0
 20 14  1  0
M  END
>  <fragmenstein_outcome>  (269) 
nan

>  <exports>  (269) 
['/opt/xchem-fragalysis-2/maxwin/openbind-hippo/xx01zvns2b/cycle_01/syndirella/elabs/openbind_xx01zvns2b_c1_elab_chemspace_filtered.sdf']

>  <Energy>  (269) 
nan

>  <alias>  (269) 
None

>  <fragmenstein_runtime>  (269) 
nan

>  <scratch_subdir>  (269) 
nan

>  <HIPPO Compound ID>  (269) 
141911

>  <rmsd(smina/fragmenstein)>  (269) 
0.911

>  <distance_score>  (269) 
1.731997

>  <orig_smiles>  (269) 
nan

>  <fragmenstein_mode>  (269) 
nan

>  <inchikey>  (269) 
VYWZANVWCSFIED-UHFFFAOYSA-N

>  <ref_pdb>  (269) 
Z0673a

>  <GNINA pK>  (269) 
nan

>  <gnina_score_min>  (269) 
5.426

>  <tags>  (269) 
openbind_xx01zvns2b_c1_elab_nonasap_filtered_scored_top80percent,openbind_xx01zvns2b_c1_elab_chemspace_filtered_scored_top80percent,openbind_xx01zvns2b_c1_elab_chemspace_filtered_scored,openbind_xx01zvns2b_c1_elab_chemspace_filtered_scored_top40percent,openbind_xx01zvns2b_c1_elab_chemspace_filtered_scored_top20percent,openbind_xx01zvns2b_c1_elab_chemspace_filtered_scored_top60percent,openbind_xx01zvns2b_c1_elabs_filtered

>  <smiles>  (269) 
CCOC(=O)c1nc(NC(=O)c2cc3ncc(C=O)n3cc2Br)sc1C(C)=O

>  <subsites>  (269) 
1 - Z4590/B/203/1

>  <gnina_score>  (269) 
5.864

>  <HIPPO Pose ID>  (269) 
70204

>  <ref_mols>  (269) 
Z1495a,Z0673a

>  <energy_score>  (269) 
-82.337631

>  <inspiration_score>  (269) 
None

>  <smina_score_min>  (269) 
-5.84

>  <fragmenstein_error>  (269) 
nan

>  <name>  (269) 
P70204

$$$$
P70208
     RDKit          3D

 29 31  0  0  0  0  0  0  0  0999 V2000
   -9.3607    4.0417  -18.3551 C   0  0  0  0  0  0  0  0  0  0  0  0
   -8.1152    4.4848  -17.6295 C   0  0  0  0  0  0  0  0  0  0  0  0
   -7.0666    4.7763  -18.5782 O   0  0  0  0  0  0  0  0  0  0  0  0
   -5.7738    5.0354  -18.1938 C   0  0  0  0  0  0  0  0  0  0  0  0
   -4.8708    5.0894  -19.0220 O   0  0  0  0  0  0  0  0  0  0  0  0
   -5.4879    5.2282  -16.7625 C   0  0  0  0  0  0  0  0  0  0  0  0
   -6.4858    5.4836  -15.8481 N   0  0  0  0  0  0  0  0  0  0  0  0
   -6.0109    5.3786  -14.6503 C   0  0  0  0  0  0  0  0  0  0  0  0
   -6.7194    5.3217  -13.5278 N   0  0  0  0  0  0  0  0  0  0  0  0
   -8.2288    5.4891  -13.2905 C   0  0  0  0  0  0  0  0  0  0  0  0
   -9.1007    5.6270  -14.0476 O   0  0  0  0  0  0  0  0  0  0  0  0
   -8.3835    5.3354  -11.8431 C   0  0  0  0  0  0  0  0  0  0  0  0
   -8.5416    4.0496  -11.4739 C   0  0  0  0  0  0  0  0  0  0  0  0
   -8.5474    3.7440  -10.0975 C   0  0  0  0  0  0  0  0  0  0  0  0
   -8.7558    2.6134   -9.4735 N   0  0  0  0  0  0  0  0  0  0  0  0
   -8.7458    2.9351   -8.1389 C   0  0  0  0  0  0  0  0  0  0  0  0
   -9.1151    2.0112   -7.0921 C   0  0  0  0  0  0  0  0  0  0  0  0
   -9.3488    2.3906   -5.9483 O   0  0  0  0  0  0  0  0  0  0  0  0
   -8.4237    4.2669   -7.9584 C   0  0  0  0  0  0  0  0  0  0  0  0
   -8.3353    4.7917   -9.2115 N   0  0  0  0  0  0  0  0  0  0  0  0
   -8.1303    6.1128   -9.5967 C   0  0  0  0  0  0  0  0  0  0  0  0
   -8.1585    6.4228  -10.9031 C   0  0  0  0  0  0  0  0  0  0  0  0
   -7.9244    8.1693  -11.5035 Br  0  0  0  0  0  0  0  0  0  0  0  0
   -4.3503    5.2100  -14.4793 S   0  0  0  0  0  0  0  0  0  0  0  0
   -4.2303    5.2214  -16.1755 C   0  0  0  0  0  0  0  0  0  0  0  0
   -2.9178    5.2104  -16.8009 C   0  0  0  0  0  0  0  0  0  0  0  0
   -1.8915    5.3426  -15.9168 F   0  0  0  0  0  0  0  0  0  0  0  0
   -2.8252    6.2529  -17.6391 F   0  0  0  0  0  0  0  0  0  0  0  0
   -2.6987    4.0603  -17.4587 F   0  0  0  0  0  0  0  0  0  0  0  0
  1  2  1  0
  2  3  1  0
  3  4  1  0
  4  5  2  0
  4  6  1  0
  6  7  1  0
  7  8  2  0
  8  9  1  0
  9 10  1  0
 10 11  2  0
 10 12  1  0
 12 13  2  0
 13 14  1  0
 14 15  2  0
 15 16  1  0
 16 17  1  0
 17 18  2  0
 16 19  2  0
 19 20  1  0
 20 21  1  0
 21 22  2  0
 22 23  1  0
  8 24  1  0
 24 25  1  0
 25 26  1  0
 26 27  1  0
 26 28  1  0
 26 29  1  0
 25  6  2  0
 22 12  1  0
 20 14  1  0
M  END
>  <fragmenstein_outcome>  (270) 
nan

>  <exports>  (270) 
['/opt/xchem-fragalysis-2/maxwin/openbind-hippo/xx01zvns2b/cycle_01/syndirella/elabs/openbind_xx01zvns2b_c1_elab_chemspace_filtered.sdf']

>  <Energy>  (270) 
nan

>  <alias>  (270) 
None

>  <fragmenstein_runtime>  (270) 
nan

>  <scratch_subdir>  (270) 
nan

>  <HIPPO Compound ID>  (270) 
141918

>  <rmsd(smina/fragmenstein)>  (270) 
0.446

>  <distance_score>  (270) 
1.484783

>  <orig_smiles>  (270) 
nan

>  <fragmenstein_mode>  (270) 
nan

>  <inchikey>  (270) 
JPXSWQJGIBDVJH-UHFFFAOYSA-N

>  <ref_pdb>  (270) 
Z0673a

>  <GNINA pK>  (270) 
nan

>  <gnina_score_min>  (270) 
5.668

>  <tags>  (270) 
openbind_xx01zvns2b_c1_elab_nonasap_filtered_scored_top80percent,openbind_xx01zvns2b_c1_elab_chemspace_filtered_scored_top80percent,openbind_xx01zvns2b_c1_elab_chemspace_filtered_scored,openbind_xx01zvns2b_c1_elab_chemspace_filtered_scored_top40percent,openbind_xx01zvns2b_c1_elab_chemspace_filtered_scored_top20percent,openbind_xx01zvns2b_c1_elab_chemspace_filtered_scored_top60percent,openbind_xx01zvns2b_c1_elabs_filtered

>  <smiles>  (270) 
CCOC(=O)c1nc(NC(=O)c2cc3nc(C=O)cn3cc2Br)sc1C(F)(F)F

>  <subsites>  (270) 
1 - Z4590/B/203/1

>  <gnina_score>  (270) 
5.731

>  <HIPPO Pose ID>  (270) 
70208

>  <ref_mols>  (270) 
Z1495a,Z0673a

>  <energy_score>  (270) 
-61.628873

>  <inspiration_score>  (270) 
None

>  <smina_score_min>  (270) 
-6.388

>  <fragmenstein_error>  (270) 
nan

>  <name>  (270) 
P70208

$$$$
P70211
     RDKit          3D

 30 33  0  0  0  0  0  0  0  0999 V2000
   -9.5125    4.0607  -17.8624 C   0  0  0  0  0  0  0  0  0  0  0  0
   -8.3278    4.2995  -18.7746 C   0  0  0  0  0  0  0  0  0  0  0  0
   -8.0813    5.7029  -18.9329 O   0  0  0  0  0  0  0  0  0  0  0  0
   -6.9516    6.2789  -18.4512 C   0  0  0  0  0  0  0  0  0  0  0  0
   -6.3896    7.2267  -18.9942 O   0  0  0  0  0  0  0  0  0  0  0  0
   -6.5095    5.7540  -17.1750 C   0  0  0  0  0  0  0  0  0  0  0  0
   -7.3667    5.7200  -16.0947 N   0  0  0  0  0  0  0  0  0  0  0  0
   -6.7610    5.1342  -15.1082 C   0  0  0  0  0  0  0  0  0  0  0  0
   -7.2377    4.9781  -13.8721 N   0  0  0  0  0  0  0  0  0  0  0  0
   -8.5315    5.4919  -13.2322 C   0  0  0  0  0  0  0  0  0  0  0  0
   -9.4265    6.0686  -13.6989 O   0  0  0  0  0  0  0  0  0  0  0  0
   -8.4114    5.2027  -11.7912 C   0  0  0  0  0  0  0  0  0  0  0  0
   -8.1381    6.2833  -10.8586 C   0  0  0  0  0  0  0  0  0  0  0  0
   -8.0494    5.9862   -9.5526 C   0  0  0  0  0  0  0  0  0  0  0  0
   -8.2240    4.6620   -9.1445 N   0  0  0  0  0  0  0  0  0  0  0  0
   -8.2120    4.1062   -7.8915 C   0  0  0  0  0  0  0  0  0  0  0  0
   -7.9519    4.9740   -6.2240 Br  0  0  0  0  0  0  0  0  0  0  0  0
   -8.4335    2.7621   -8.0714 C   0  0  0  0  0  0  0  0  0  0  0  0
   -8.6095    2.4740   -9.3981 N   0  0  0  0  0  0  0  0  0  0  0  0
   -8.4707    3.6141  -10.0279 C   0  0  0  0  0  0  0  0  0  0  0  0
   -8.5528    3.9208  -11.4077 C   0  0  0  0  0  0  0  0  0  0  0  0
   -5.2031    4.5523  -15.3722 S   0  0  0  0  0  0  0  0  0  0  0  0
   -5.2679    5.1967  -16.9526 C   0  0  0  0  0  0  0  0  0  0  0  0
   -4.1983    4.9758  -17.9430 C   0  0  0  0  0  0  0  0  0  0  0  0
   -2.8376    5.5591  -17.6977 C   0  0  0  0  0  0  0  0  0  0  0  0
   -2.4918    6.4203  -16.6516 C   0  0  0  0  0  0  0  0  0  0  0  0
   -1.1800    6.8807  -16.5295 C   0  0  0  0  0  0  0  0  0  0  0  0
   -0.2135    6.4954  -17.4573 C   0  0  0  0  0  0  0  0  0  0  0  0
   -0.5543    5.6638  -18.5176 C   0  0  0  0  0  0  0  0  0  0  0  0
   -1.8565    5.1996  -18.6356 C   0  0  0  0  0  0  0  0  0  0  0  0
  1  2  1  0
  2  3  1  0
  3  4  1  0
  4  5  2  0
  4  6  1  0
  6  7  1  0
  7  8  2  0
  8  9  1  0
  9 10  1  0
 10 11  2  0
 10 12  1  0
 12 13  1  0
 13 14  2  0
 14 15  1  0
 15 16  1  0
 16 17  1  0
 16 18  2  0
 18 19  1  0
 19 20  2  0
 20 21  1  0
  8 22  1  0
 22 23  1  0
 23 24  1  0
 24 25  1  0
 25 26  2  0
 26 27  1  0
 27 28  2  0
 28 29  1  0
 29 30  2  0
 23  6  2  0
 30 25  1  0
 21 12  2  0
 20 15  1  0
M  END
>  <fragmenstein_outcome>  (271) 
nan

>  <exports>  (271) 
['/opt/xchem-fragalysis-2/maxwin/openbind-hippo/xx01zvns2b/cycle_01/syndirella/elabs/openbind_xx01zvns2b_c1_elab_chemspace_filtered.sdf']

>  <Energy>  (271) 
nan

>  <alias>  (271) 
None

>  <fragmenstein_runtime>  (271) 
nan

>  <scratch_subdir>  (271) 
nan

>  <HIPPO Compound ID>  (271) 
141930

>  <rmsd(smina/fragmenstein)>  (271) 
0.8

>  <distance_score>  (271) 
1.484911

>  <orig_smiles>  (271) 
nan

>  <fragmenstein_mode>  (271) 
nan

>  <inchikey>  (271) 
LNSZGGNFTLHCAD-UHFFFAOYSA-N

>  <ref_pdb>  (271) 
Z0673a

>  <GNINA pK>  (271) 
nan

>  <gnina_score_min>  (271) 
5.725

>  <tags>  (271) 
openbind_xx01zvns2b_c1_elab_nonasap_filtered_scored_top80percent,openbind_xx01zvns2b_c1_elab_chemspace_filtered_scored_top80percent,openbind_xx01zvns2b_c1_elab_chemspace_filtered_scored,openbind_xx01zvns2b_c1_elab_chemspace_filtered_scored_top40percent,openbind_xx01zvns2b_c1_elab_chemspace_filtered_scored_top20percent,openbind_xx01zvns2b_c1_elab_chemspace_filtered_scored_top60percent,openbind_xx01zvns2b_c1_elabs_filtered

>  <smiles>  (271) 
CCOC(=O)c1nc(NC(=O)c2ccn3c(Br)cnc3c2)sc1Cc1ccccc1

>  <subsites>  (271) 
1 - Z4590/B/203/1

>  <gnina_score>  (271) 
6.142

>  <HIPPO Pose ID>  (271) 
70211

>  <ref_mols>  (271) 
Z1495a,Z0673a

>  <energy_score>  (271) 
-66.692249

>  <inspiration_score>  (271) 
None

>  <smina_score_min>  (271) 
-6.43

>  <fragmenstein_error>  (271) 
nan

>  <name>  (271) 
P70211

$$$$
P70212
     RDKit          3D

 30 33  0  0  0  0  0  0  0  0999 V2000
   -9.9484    3.8585  -17.9175 C   0  0  0  0  0  0  0  0  0  0  0  0
   -9.1230    4.5558  -18.9712 C   0  0  0  0  0  0  0  0  0  0  0  0
   -7.9194    3.8307  -19.2154 O   0  0  0  0  0  0  0  0  0  0  0  0
   -6.7429    4.4795  -18.9763 C   0  0  0  0  0  0  0  0  0  0  0  0
   -5.8742    4.5372  -19.8405 O   0  0  0  0  0  0  0  0  0  0  0  0
   -6.5244    5.0051  -17.6135 C   0  0  0  0  0  0  0  0  0  0  0  0
   -7.3783    4.7468  -16.5348 N   0  0  0  0  0  0  0  0  0  0  0  0
   -6.7948    5.1162  -15.4311 C   0  0  0  0  0  0  0  0  0  0  0  0
   -7.2090    5.0842  -14.1585 N   0  0  0  0  0  0  0  0  0  0  0  0
   -8.6163    4.9656  -13.5748 C   0  0  0  0  0  0  0  0  0  0  0  0
   -9.6513    4.9533  -14.1006 O   0  0  0  0  0  0  0  0  0  0  0  0
   -8.4448    4.8903  -12.1110 C   0  0  0  0  0  0  0  0  0  0  0  0
   -8.5942    3.6777  -11.5490 C   0  0  0  0  0  0  0  0  0  0  0  0
   -8.4772    3.5609  -10.1411 C   0  0  0  0  0  0  0  0  0  0  0  0
   -8.6186    2.5274   -9.3502 N   0  0  0  0  0  0  0  0  0  0  0  0
   -8.3743    2.9901   -8.0875 C   0  0  0  0  0  0  0  0  0  0  0  0
   -8.1113    4.3414   -8.1019 C   0  0  0  0  0  0  0  0  0  0  0  0
   -8.1795    4.7111   -9.4183 N   0  0  0  0  0  0  0  0  0  0  0  0
   -7.9945    5.9619  -10.0003 C   0  0  0  0  0  0  0  0  0  0  0  0
   -8.1222    6.0679  -11.3296 C   0  0  0  0  0  0  0  0  0  0  0  0
   -7.9432    7.2496  -11.9503 F   0  0  0  0  0  0  0  0  0  0  0  0
   -5.2807    5.8324  -15.5581 S   0  0  0  0  0  0  0  0  0  0  0  0
   -5.4471    5.8052  -17.2532 C   0  0  0  0  0  0  0  0  0  0  0  0
   -4.5091    6.5936  -18.0752 C   0  0  0  0  0  0  0  0  0  0  0  0
   -3.0775    6.1399  -18.0415 C   0  0  0  0  0  0  0  0  0  0  0  0
   -2.1675    6.6859  -17.1218 C   0  0  0  0  0  0  0  0  0  0  0  0
   -0.8107    6.3869  -17.2168 C   0  0  0  0  0  0  0  0  0  0  0  0
   -0.3629    5.5331  -18.2207 C   0  0  0  0  0  0  0  0  0  0  0  0
   -1.2711    4.9372  -19.0958 C   0  0  0  0  0  0  0  0  0  0  0  0
   -2.6260    5.2308  -19.0022 C   0  0  0  0  0  0  0  0  0  0  0  0
  1  2  1  0
  2  3  1  0
  3  4  1  0
  4  5  2  0
  4  6  1  0
  6  7  1  0
  7  8  2  0
  8  9  1  0
  9 10  1  0
 10 11  2  0
 10 12  1  0
 12 13  2  0
 13 14  1  0
 14 15  2  0
 15 16  1  0
 16 17  2  0
 17 18  1  0
 18 19  1  0
 19 20  2  0
 20 21  1  0
  8 22  1  0
 22 23  1  0
 23 24  1  0
 24 25  1  0
 25 26  2  0
 26 27  1  0
 27 28  2  0
 28 29  1  0
 29 30  2  0
 23  6  2  0
 30 25  1  0
 20 12  1  0
 18 14  1  0
M  END
>  <fragmenstein_outcome>  (272) 
nan

>  <exports>  (272) 
['/opt/xchem-fragalysis-2/maxwin/openbind-hippo/xx01zvns2b/cycle_01/syndirella/elabs/openbind_xx01zvns2b_c1_elab_chemspace_filtered.sdf']

>  <Energy>  (272) 
nan

>  <alias>  (272) 
None

>  <fragmenstein_runtime>  (272) 
nan

>  <scratch_subdir>  (272) 
nan

>  <HIPPO Compound ID>  (272) 
141931

>  <rmsd(smina/fragmenstein)>  (272) 
0.476

>  <distance_score>  (272) 
1.376217

>  <orig_smiles>  (272) 
nan

>  <fragmenstein_mode>  (272) 
nan

>  <inchikey>  (272) 
CEXLZLHRWDRJPH-UHFFFAOYSA-N

>  <ref_pdb>  (272) 
Z0673a

>  <GNINA pK>  (272) 
nan

>  <gnina_score_min>  (272) 
5.943

>  <tags>  (272) 
openbind_xx01zvns2b_c1_elab_nonasap_filtered_scored_top80percent,openbind_xx01zvns2b_c1_elab_chemspace_filtered_scored_top80percent,openbind_xx01zvns2b_c1_elab_chemspace_filtered_scored,openbind_xx01zvns2b_c1_elab_chemspace_filtered_scored_top40percent,openbind_xx01zvns2b_c1_elab_chemspace_filtered_scored_top20percent,openbind_xx01zvns2b_c1_elab_chemspace_filtered_scored_top60percent,openbind_xx01zvns2b_c1_elabs_filtered

>  <smiles>  (272) 
CCOC(=O)c1nc(NC(=O)c2cc3nccn3cc2F)sc1Cc1ccccc1

>  <subsites>  (272) 
1 - Z4590/B/203/1

>  <gnina_score>  (272) 
6.065

>  <HIPPO Pose ID>  (272) 
70212

>  <ref_mols>  (272) 
Z1495a,Z0673a

>  <energy_score>  (272) 
-48.452013

>  <inspiration_score>  (272) 
None

>  <smina_score_min>  (272) 
-6.304

>  <fragmenstein_error>  (272) 
nan

>  <name>  (272) 
P70212

$$$$
P70214
     RDKit          3D

 31 34  0  0  0  0  0  0  0  0999 V2000
  -10.1979    4.5906  -17.8989 C   0  0  0  0  0  0  0  0  0  0  0  0
   -9.2603    3.4596  -18.1840 C   0  0  0  0  0  0  0  0  0  0  0  0
   -8.2431    3.8003  -19.1330 O   0  0  0  0  0  0  0  0  0  0  0  0
   -7.0083    4.3015  -18.8371 C   0  0  0  0  0  0  0  0  0  0  0  0
   -6.1375    4.3393  -19.7027 O   0  0  0  0  0  0  0  0  0  0  0  0
   -6.7661    4.8480  -17.4938 C   0  0  0  0  0  0  0  0  0  0  0  0
   -7.3772    4.3549  -16.3345 N   0  0  0  0  0  0  0  0  0  0  0  0
   -7.1129    5.1486  -15.3403 C   0  0  0  0  0  0  0  0  0  0  0  0
   -7.5160    5.0145  -14.0695 N   0  0  0  0  0  0  0  0  0  0  0  0
   -7.7319    6.0747  -12.9697 C   0  0  0  0  0  0  0  0  0  0  0  0
   -7.6675    7.2386  -13.0183 O   0  0  0  0  0  0  0  0  0  0  0  0
   -7.9632    5.4110  -11.6396 C   0  0  0  0  0  0  0  0  0  0  0  0
   -8.5108    4.1851  -11.4876 C   0  0  0  0  0  0  0  0  0  0  0  0
   -8.6467    3.6262  -10.1875 C   0  0  0  0  0  0  0  0  0  0  0  0
   -9.1171    2.4604   -9.8136 N   0  0  0  0  0  0  0  0  0  0  0  0
   -8.9900    2.4330   -8.4465 C   0  0  0  0  0  0  0  0  0  0  0  0
   -8.5020    3.6281   -7.9924 C   0  0  0  0  0  0  0  0  0  0  0  0
   -8.2170    4.1994   -6.4169 Cl  0  0  0  0  0  0  0  0  0  0  0  0
   -8.2514    4.3949   -9.0969 N   0  0  0  0  0  0  0  0  0  0  0  0
   -7.7194    5.6681   -9.2295 C   0  0  0  0  0  0  0  0  0  0  0  0
   -7.5642    6.1755  -10.4559 C   0  0  0  0  0  0  0  0  0  0  0  0
   -7.0042    7.3945  -10.5865 F   0  0  0  0  0  0  0  0  0  0  0  0
   -6.0449    6.4141  -15.6323 S   0  0  0  0  0  0  0  0  0  0  0  0
   -5.8782    5.8874  -17.2400 C   0  0  0  0  0  0  0  0  0  0  0  0
   -4.9433    6.6208  -18.1212 C   0  0  0  0  0  0  0  0  0  0  0  0
   -3.5020    6.1901  -17.9959 C   0  0  0  0  0  0  0  0  0  0  0  0
   -2.6721    6.7149  -16.9919 C   0  0  0  0  0  0  0  0  0  0  0  0
   -1.3072    6.4355  -16.9895 C   0  0  0  0  0  0  0  0  0  0  0  0
   -0.7666    5.6226  -17.9819 C   0  0  0  0  0  0  0  0  0  0  0  0
   -1.5934    5.0441  -18.9442 C   0  0  0  0  0  0  0  0  0  0  0  0
   -2.9577    5.3195  -18.9475 C   0  0  0  0  0  0  0  0  0  0  0  0
  1  2  1  0
  2  3  1  0
  3  4  1  0
  4  5  2  0
  4  6  1  0
  6  7  1  0
  7  8  2  0
  8  9  1  0
  9 10  1  0
 10 11  2  0
 10 12  1  0
 12 13  2  0
 13 14  1  0
 14 15  2  0
 15 16  1  0
 16 17  2  0
 17 18  1  0
 17 19  1  0
 19 20  1  0
 20 21  2  0
 21 22  1  0
  8 23  1  0
 23 24  1  0
 24 25  1  0
 25 26  1  0
 26 27  2  0
 27 28  1  0
 28 29  2  0
 29 30  1  0
 30 31  2  0
 24  6  2  0
 31 26  1  0
 21 12  1  0
 19 14  1  0
M  END
>  <fragmenstein_outcome>  (273) 
nan

>  <exports>  (273) 
['/opt/xchem-fragalysis-2/maxwin/openbind-hippo/xx01zvns2b/cycle_01/syndirella/elabs/openbind_xx01zvns2b_c1_elab_chemspace_filtered.sdf']

>  <Energy>  (273) 
nan

>  <alias>  (273) 
None

>  <fragmenstein_runtime>  (273) 
nan

>  <scratch_subdir>  (273) 
nan

>  <HIPPO Compound ID>  (273) 
141942

>  <rmsd(smina/fragmenstein)>  (273) 
0.684

>  <distance_score>  (273) 
1.586864

>  <orig_smiles>  (273) 
nan

>  <fragmenstein_mode>  (273) 
nan

>  <inchikey>  (273) 
VVZYLDUMMADNLQ-UHFFFAOYSA-N

>  <ref_pdb>  (273) 
Z0673a

>  <GNINA pK>  (273) 
nan

>  <gnina_score_min>  (273) 
5.944

>  <tags>  (273) 
openbind_xx01zvns2b_c1_elab_nonasap_filtered_scored_top80percent,openbind_xx01zvns2b_c1_elab_chemspace_filtered_scored_top80percent,openbind_xx01zvns2b_c1_elab_chemspace_filtered_scored,openbind_xx01zvns2b_c1_elab_chemspace_filtered_scored_top40percent,openbind_xx01zvns2b_c1_elab_chemspace_filtered_scored_top20percent,openbind_xx01zvns2b_c1_elab_chemspace_filtered_scored_top60percent,openbind_xx01zvns2b_c1_elabs_filtered

>  <smiles>  (273) 
CCOC(=O)c1nc(NC(=O)c2cc3ncc(Cl)n3cc2F)sc1Cc1ccccc1

>  <subsites>  (273) 
1 - Z4590/B/203/1

>  <gnina_score>  (273) 
6.239

>  <HIPPO Pose ID>  (273) 
70214

>  <ref_mols>  (273) 
Z1495a,Z0673a

>  <energy_score>  (273) 
-40.469296

>  <inspiration_score>  (273) 
None

>  <smina_score_min>  (273) 
-6.213

>  <fragmenstein_error>  (273) 
nan

>  <name>  (273) 
P70214

$$$$
P70215
     RDKit          3D

 31 34  0  0  0  0  0  0  0  0999 V2000
  -10.4280    4.4518  -18.2943 C   0  0  0  0  0  0  0  0  0  0  0  0
   -8.9387    4.3026  -18.1217 C   0  0  0  0  0  0  0  0  0  0  0  0
   -8.3619    3.7492  -19.3174 O   0  0  0  0  0  0  0  0  0  0  0  0
   -7.1094    4.1375  -19.7438 C   0  0  0  0  0  0  0  0  0  0  0  0
   -6.7107    3.7775  -20.8519 O   0  0  0  0  0  0  0  0  0  0  0  0
   -6.3208    4.9593  -18.8120 C   0  0  0  0  0  0  0  0  0  0  0  0
   -6.2581    4.6141  -17.4616 N   0  0  0  0  0  0  0  0  0  0  0  0
   -5.7788    5.5992  -16.7395 C   0  0  0  0  0  0  0  0  0  0  0  0
   -5.9488    5.6184  -15.3250 N   0  0  0  0  0  0  0  0  0  0  0  0
   -4.5770    4.7462  -15.3929 C   0  0  0  0  0  0  0  0  0  0  0  0
   -3.2524    5.3775  -15.8274 C   0  0  0  0  0  0  0  0  0  0  0  0
   -2.5801    6.3048  -15.0218 C   0  0  0  0  0  0  0  0  0  0  0  0
   -1.4018    6.9068  -15.4694 C   0  0  0  0  0  0  0  0  0  0  0  0
   -0.8841    6.5922  -16.7249 C   0  0  0  0  0  0  0  0  0  0  0  0
   -1.5357    5.6652  -17.5323 C   0  0  0  0  0  0  0  0  0  0  0  0
   -2.6996    5.0451  -17.0782 C   0  0  0  0  0  0  0  0  0  0  0  0
   -5.8174    6.6735  -14.3897 C   0  0  0  0  0  0  0  0  0  0  0  0
   -5.4410    7.8086  -14.5355 O   0  0  0  0  0  0  0  0  0  0  0  0
   -6.3559    6.2323  -13.0223 C   0  0  0  0  0  0  0  0  0  0  0  0
   -6.2829    7.1862  -11.9038 C   0  0  0  0  0  0  0  0  0  0  0  0
   -6.7489    6.8384  -10.6908 C   0  0  0  0  0  0  0  0  0  0  0  0
   -7.2882    5.5699  -10.5091 N   0  0  0  0  0  0  0  0  0  0  0  0
   -7.7810    4.9802   -9.3753 C   0  0  0  0  0  0  0  0  0  0  0  0
   -8.1431    3.7012   -9.7472 C   0  0  0  0  0  0  0  0  0  0  0  0
   -8.7000    2.6132   -8.9094 C   0  0  0  0  0  0  0  0  0  0  0  0
   -7.9024    3.5076  -11.0910 N   0  0  0  0  0  0  0  0  0  0  0  0
   -7.3916    4.6366  -11.5289 C   0  0  0  0  0  0  0  0  0  0  0  0
   -6.9248    5.0166  -12.8216 C   0  0  0  0  0  0  0  0  0  0  0  0
   -5.4020    7.0140  -17.6364 S   0  0  0  0  0  0  0  0  0  0  0  0
   -5.6668    6.1449  -19.1084 C   0  0  0  0  0  0  0  0  0  0  0  0
   -5.3421    6.7761  -20.4132 C   0  0  0  0  0  0  0  0  0  0  0  0
  1  2  1  0
  2  3  1  0
  3  4  1  0
  4  5  2  0
  4  6  1  0
  6  7  1  0
  7  8  2  0
  8  9  1  0
  9 10  1  0
 10 11  1  0
 11 12  2  0
 12 13  1  0
 13 14  2  0
 14 15  1  0
 15 16  2  0
  9 17  1  0
 17 18  2  0
 17 19  1  0
 19 20  1  0
 20 21  2  0
 21 22  1  0
 22 23  1  0
 23 24  2  0
 24 25  1  0
 24 26  1  0
 26 27  2  0
 27 28  1  0
  8 29  1  0
 29 30  1  0
 30 31  1  0
 30  6  2  0
 16 11  1  0
 28 19  2  0
 27 22  1  0
M  END
>  <fragmenstein_outcome>  (274) 
nan

>  <exports>  (274) 
['/opt/xchem-fragalysis-2/maxwin/openbind-hippo/xx01zvns2b/cycle_01/syndirella/elabs/openbind_xx01zvns2b_c1_elab_chemspace_filtered.sdf']

>  <Energy>  (274) 
nan

>  <alias>  (274) 
None

>  <fragmenstein_runtime>  (274) 
nan

>  <scratch_subdir>  (274) 
nan

>  <HIPPO Compound ID>  (274) 
141943

>  <rmsd(smina/fragmenstein)>  (274) 
2.619

>  <distance_score>  (274) 
1.711123

>  <orig_smiles>  (274) 
nan

>  <fragmenstein_mode>  (274) 
nan

>  <inchikey>  (274) 
RUETWCGPFJRUIU-UHFFFAOYSA-N

>  <ref_pdb>  (274) 
Z0673a

>  <GNINA pK>  (274) 
nan

>  <gnina_score_min>  (274) 
5.687

>  <tags>  (274) 
openbind_xx01zvns2b_c1_elab_nonasap_filtered_scored_top80percent,openbind_xx01zvns2b_c1_elab_chemspace_filtered_scored_top80percent,openbind_xx01zvns2b_c1_elab_chemspace_filtered_scored,openbind_xx01zvns2b_c1_elab_chemspace_filtered_scored_top40percent,openbind_xx01zvns2b_c1_elab_chemspace_filtered_scored_top20percent,openbind_xx01zvns2b_c1_elab_chemspace_filtered_scored_top60percent,openbind_xx01zvns2b_c1_elabs_filtered

>  <smiles>  (274) 
CCOC(=O)c1nc(N(Cc2ccccc2)C(=O)c2ccn3cc(C)nc3c2)sc1C

>  <subsites>  (274) 
1 - Z4590/B/203/1

>  <gnina_score>  (274) 
5.858

>  <HIPPO Pose ID>  (274) 
70215

>  <ref_mols>  (274) 
Z1495a,Z0673a

>  <energy_score>  (274) 
-3.672131

>  <inspiration_score>  (274) 
None

>  <smina_score_min>  (274) 
-5.589

>  <fragmenstein_error>  (274) 
nan

>  <name>  (274) 
P70215

$$$$
P70217
     RDKit          3D

 28 31  0  0  0  0  0  0  0  0999 V2000
   -5.9570    3.9527  -20.3654 O   0  0  0  0  0  0  0  0  0  0  0  0
   -5.3393    4.7417  -19.7583 C   0  0  0  0  0  0  0  0  0  0  0  0
   -5.6209    5.3949  -18.3712 N   0  0  0  0  0  0  0  0  0  0  0  0
   -6.6378    5.1468  -17.4378 C   0  0  0  0  0  0  0  0  0  0  0  0
   -6.4199    5.4776  -16.0883 C   0  0  0  0  0  0  0  0  0  0  0  0
   -7.4173    5.2481  -15.1223 C   0  0  0  0  0  0  0  0  0  0  0  0
   -7.3174    5.7490  -13.7078 C   0  0  0  0  0  0  0  0  0  0  0  0
   -6.2371    5.2684  -13.0443 F   0  0  0  0  0  0  0  0  0  0  0  0
   -8.4068    5.4452  -12.9442 F   0  0  0  0  0  0  0  0  0  0  0  0
   -7.2225    7.1090  -13.6626 F   0  0  0  0  0  0  0  0  0  0  0  0
   -8.5976    4.6355  -15.5111 C   0  0  0  0  0  0  0  0  0  0  0  0
   -8.8451    4.4435  -16.8563 C   0  0  0  0  0  0  0  0  0  0  0  0
  -10.1332    4.1585  -17.2289 C   0  0  0  0  0  0  0  0  0  0  0  0
  -10.5297    4.3479  -18.5164 C   0  0  0  0  0  0  0  0  0  0  0  0
   -9.5427    4.5326  -19.4401 C   0  0  0  0  0  0  0  0  0  0  0  0
   -8.2449    4.6390  -19.1290 N   0  0  0  0  0  0  0  0  0  0  0  0
   -7.8910    4.6917  -17.8454 C   0  0  0  0  0  0  0  0  0  0  0  0
   -4.0955    5.2344  -20.3970 C   0  0  0  0  0  0  0  0  0  0  0  0
   -4.2168    5.5168  -21.7597 C   0  0  0  0  0  0  0  0  0  0  0  0
   -3.1048    5.9621  -22.4270 C   0  0  0  0  0  0  0  0  0  0  0  0
   -1.9223    6.1792  -21.8241 N   0  0  0  0  0  0  0  0  0  0  0  0
   -1.8019    5.9057  -20.5164 C   0  0  0  0  0  0  0  0  0  0  0  0
   -0.5823    6.1809  -19.9229 C   0  0  0  0  0  0  0  0  0  0  0  0
   -0.3867    5.9747  -18.5669 C   0  0  0  0  0  0  0  0  0  0  0  0
    0.7891    6.2889  -18.0080 F   0  0  0  0  0  0  0  0  0  0  0  0
   -1.3899    5.4353  -17.7826 C   0  0  0  0  0  0  0  0  0  0  0  0
   -2.5994    5.0791  -18.3718 C   0  0  0  0  0  0  0  0  0  0  0  0
   -2.8577    5.3887  -19.7322 C   0  0  0  0  0  0  0  0  0  0  0  0
  1  2  2  0
  2  3  1  0
  3  4  1  0
  4  5  2  0
  5  6  1  0
  6  7  1  0
  7  8  1  0
  7  9  1  0
  7 10  1  0
  6 11  2  0
 11 12  1  0
 12 13  2  0
 13 14  1  0
 14 15  2  0
 15 16  1  0
 16 17  2  0
  2 18  1  0
 18 19  2  0
 19 20  1  0
 20 21  2  0
 21 22  1  0
 22 23  2  0
 23 24  1  0
 24 25  1  0
 24 26  2  0
 26 27  1  0
 27 28  2  0
 17  4  1  0
 28 18  1  0
 17 12  1  0
 28 22  1  0
M  END
>  <fragmenstein_outcome>  (275) 
nan

>  <exports>  (275) 
['/opt/xchem-fragalysis-2/maxwin/openbind-hippo/xx01zvns2b/cycle_01/syndirella/elabs/openbind_xx01zvns2b_c1_elab_chemspace_filtered.sdf']

>  <Energy>  (275) 
nan

>  <alias>  (275) 
None

>  <fragmenstein_runtime>  (275) 
nan

>  <scratch_subdir>  (275) 
nan

>  <HIPPO Compound ID>  (275) 
142107

>  <rmsd(smina/fragmenstein)>  (275) 
1.581

>  <distance_score>  (275) 
1.065807

>  <orig_smiles>  (275) 
nan

>  <fragmenstein_mode>  (275) 
nan

>  <inchikey>  (275) 
OXSATTQGNPDTSM-UHFFFAOYSA-N

>  <ref_pdb>  (275) 
Z0852a

>  <GNINA pK>  (275) 
nan

>  <gnina_score_min>  (275) 
5.97

>  <tags>  (275) 
openbind_xx01zvns2b_c1_elab_nonasap_filtered_scored_top80percent,openbind_xx01zvns2b_c1_elab_chemspace_filtered_scored_top80percent,openbind_xx01zvns2b_c1_elab_chemspace_filtered_scored,openbind_xx01zvns2b_c1_elab_chemspace_filtered_scored_top40percent,openbind_xx01zvns2b_c1_elab_chemspace_filtered_scored_top20percent,openbind_xx01zvns2b_c1_elab_chemspace_filtered_scored_top60percent,openbind_xx01zvns2b_c1_elabs_filtered

>  <smiles>  (275) 
O=C(Nc1cc(C(F)(F)F)cc2cccnc12)c1ccnc2cc(F)ccc12

>  <subsites>  (275) 
1 - Z4590/B/203/1

>  <gnina_score>  (275) 
5.478

>  <HIPPO Pose ID>  (275) 
70217

>  <ref_mols>  (275) 
Z0917a,Z0852a

>  <energy_score>  (275) 
-2.104687

>  <inspiration_score>  (275) 
None

>  <smina_score_min>  (275) 
-6.282

>  <fragmenstein_error>  (275) 
nan

>  <name>  (275) 
P70217

$$$$
P70218
     RDKit          3D

 28 31  0  0  0  0  0  0  0  0999 V2000
   -5.7282    6.4371  -13.6455 C   0  0  0  0  0  0  0  0  0  0  0  0
   -7.0543    5.6975  -13.8014 C   0  0  0  0  0  0  0  0  0  0  0  0
   -8.1560    6.6868  -13.3651 C   0  0  0  0  0  0  0  0  0  0  0  0
   -7.0451    4.4948  -12.8478 C   0  0  0  0  0  0  0  0  0  0  0  0
   -7.2666    5.2265  -15.2378 C   0  0  0  0  0  0  0  0  0  0  0  0
   -6.3157    5.3846  -16.2633 C   0  0  0  0  0  0  0  0  0  0  0  0
   -6.5914    5.0444  -17.5978 C   0  0  0  0  0  0  0  0  0  0  0  0
   -5.5557    5.2338  -18.5213 N   0  0  0  0  0  0  0  0  0  0  0  0
   -5.3737    4.6788  -19.9620 C   0  0  0  0  0  0  0  0  0  0  0  0
   -6.0228    3.9170  -20.5694 O   0  0  0  0  0  0  0  0  0  0  0  0
   -4.1445    5.2014  -20.6129 C   0  0  0  0  0  0  0  0  0  0  0  0
   -4.2999    5.5385  -21.9568 C   0  0  0  0  0  0  0  0  0  0  0  0
   -3.2037    6.0114  -22.6316 C   0  0  0  0  0  0  0  0  0  0  0  0
   -2.0063    6.2080  -22.0510 N   0  0  0  0  0  0  0  0  0  0  0  0
   -1.8554    5.8950  -20.7565 C   0  0  0  0  0  0  0  0  0  0  0  0
   -0.6239    6.1657  -20.1860 C   0  0  0  0  0  0  0  0  0  0  0  0
   -0.3961    5.9330  -18.8403 C   0  0  0  0  0  0  0  0  0  0  0  0
    0.7869    6.2511  -18.2991 F   0  0  0  0  0  0  0  0  0  0  0  0
   -1.3782    5.3709  -18.0471 C   0  0  0  0  0  0  0  0  0  0  0  0
   -2.5956    5.0119  -18.6180 C   0  0  0  0  0  0  0  0  0  0  0  0
   -2.8907    5.3476  -19.9662 C   0  0  0  0  0  0  0  0  0  0  0  0
   -7.8674    4.6336  -17.9475 C   0  0  0  0  0  0  0  0  0  0  0  0
   -8.2683    4.5746  -19.2145 N   0  0  0  0  0  0  0  0  0  0  0  0
   -9.5805    4.5127  -19.4670 C   0  0  0  0  0  0  0  0  0  0  0  0
  -10.5356    4.3470  -18.5037 C   0  0  0  0  0  0  0  0  0  0  0  0
  -10.0933    4.1690  -17.2283 C   0  0  0  0  0  0  0  0  0  0  0  0
   -8.7865    4.4359  -16.9131 C   0  0  0  0  0  0  0  0  0  0  0  0
   -8.4796    4.6470  -15.5793 C   0  0  0  0  0  0  0  0  0  0  0  0
  1  2  1  0
  2  3  1  0
  2  4  1  0
  2  5  1  0
  5  6  2  0
  6  7  1  0
  7  8  1  0
  8  9  1  0
  9 10  2  0
  9 11  1  0
 11 12  2  0
 12 13  1  0
 13 14  2  0
 14 15  1  0
 15 16  2  0
 16 17  1  0
 17 18  1  0
 17 19  2  0
 19 20  1  0
 20 21  2  0
  7 22  2  0
 22 23  1  0
 23 24  2  0
 24 25  1  0
 25 26  2  0
 26 27  1  0
 27 28  2  0
 28  5  1  0
 21 11  1  0
 27 22  1  0
 21 15  1  0
M  END
>  <fragmenstein_outcome>  (276) 
nan

>  <exports>  (276) 
['/opt/xchem-fragalysis-2/maxwin/openbind-hippo/xx01zvns2b/cycle_01/syndirella/elabs/openbind_xx01zvns2b_c1_elab_chemspace_filtered.sdf']

>  <Energy>  (276) 
nan

>  <alias>  (276) 
None

>  <fragmenstein_runtime>  (276) 
nan

>  <scratch_subdir>  (276) 
nan

>  <HIPPO Compound ID>  (276) 
142108

>  <rmsd(smina/fragmenstein)>  (276) 
1.119

>  <distance_score>  (276) 
1.283674

>  <orig_smiles>  (276) 
nan

>  <fragmenstein_mode>  (276) 
nan

>  <inchikey>  (276) 
SJYVBHJKFUUMKM-UHFFFAOYSA-N

>  <ref_pdb>  (276) 
Z0852a

>  <GNINA pK>  (276) 
nan

>  <gnina_score_min>  (276) 
6.344

>  <tags>  (276) 
openbind_xx01zvns2b_c1_elab_nonasap_filtered_scored_top80percent,openbind_xx01zvns2b_c1_elab_chemspace_filtered_scored_top80percent,openbind_xx01zvns2b_c1_elab_chemspace_filtered_scored,openbind_xx01zvns2b_c1_elab_chemspace_filtered_scored_top40percent,openbind_xx01zvns2b_c1_elab_chemspace_filtered_scored_top20percent,openbind_xx01zvns2b_c1_elab_chemspace_filtered_scored_top60percent,openbind_xx01zvns2b_c1_elabs_filtered

>  <smiles>  (276) 
CC(C)(C)c1cc(NC(=O)c2ccnc3cc(F)ccc23)c2ncccc2c1

>  <subsites>  (276) 
1 - Z4590/B/203/1

>  <gnina_score>  (276) 
5.62

>  <HIPPO Pose ID>  (276) 
70218

>  <ref_mols>  (276) 
Z0917a,Z0852a

>  <energy_score>  (276) 
-9.295926

>  <inspiration_score>  (276) 
None

>  <smina_score_min>  (276) 
-6.618

>  <fragmenstein_error>  (276) 
nan

>  <name>  (276) 
P70218

$$$$
P70219
     RDKit          3D

 28 31  0  0  0  0  0  0  0  0999 V2000
   -6.2281    4.7758  -11.6219 C   0  0  0  0  0  0  0  0  0  0  0  0
   -6.7653    4.7523  -12.9443 O   0  0  0  0  0  0  0  0  0  0  0  0
   -5.8655    5.0287  -13.9183 C   0  0  0  0  0  0  0  0  0  0  0  0
   -4.6966    5.3398  -13.7495 O   0  0  0  0  0  0  0  0  0  0  0  0
   -6.4970    4.9246  -15.2598 C   0  0  0  0  0  0  0  0  0  0  0  0
   -5.7360    5.2560  -16.3830 C   0  0  0  0  0  0  0  0  0  0  0  0
   -6.2507    5.1212  -17.6847 C   0  0  0  0  0  0  0  0  0  0  0  0
   -5.3433    5.4089  -18.7180 N   0  0  0  0  0  0  0  0  0  0  0  0
   -5.2641    4.8648  -20.1742 C   0  0  0  0  0  0  0  0  0  0  0  0
   -5.9873    4.1534  -20.7588 O   0  0  0  0  0  0  0  0  0  0  0  0
   -3.9895    5.2823  -20.8342 C   0  0  0  0  0  0  0  0  0  0  0  0
   -2.7652    4.9929  -20.2297 C   0  0  0  0  0  0  0  0  0  0  0  0
   -2.5642    4.3003  -18.4904 Br  0  0  0  0  0  0  0  0  0  0  0  0
   -1.6148    5.2511  -20.9457 C   0  0  0  0  0  0  0  0  0  0  0  0
   -1.6052    5.8022  -22.1763 N   0  0  0  0  0  0  0  0  0  0  0  0
   -2.7751    6.1021  -22.7510 C   0  0  0  0  0  0  0  0  0  0  0  0
   -2.7452    6.6759  -24.0159 C   0  0  0  0  0  0  0  0  0  0  0  0
   -3.9100    7.0461  -24.6889 C   0  0  0  0  0  0  0  0  0  0  0  0
   -5.1379    6.8436  -24.0823 C   0  0  0  0  0  0  0  0  0  0  0  0
   -5.1835    6.2658  -22.8142 C   0  0  0  0  0  0  0  0  0  0  0  0
   -4.0146    5.8721  -22.1246 C   0  0  0  0  0  0  0  0  0  0  0  0
   -7.5781    4.7360  -17.8756 C   0  0  0  0  0  0  0  0  0  0  0  0
   -8.1493    4.7258  -19.0811 N   0  0  0  0  0  0  0  0  0  0  0  0
   -9.4711    4.5155  -19.1855 C   0  0  0  0  0  0  0  0  0  0  0  0
  -10.2831    4.2301  -18.1180 C   0  0  0  0  0  0  0  0  0  0  0  0
   -9.6852    4.1527  -16.8797 C   0  0  0  0  0  0  0  0  0  0  0  0
   -8.3442    4.4522  -16.7289 C   0  0  0  0  0  0  0  0  0  0  0  0
   -7.8095    4.5062  -15.4400 C   0  0  0  0  0  0  0  0  0  0  0  0
  1  2  1  0
  2  3  1  0
  3  4  2  0
  3  5  1  0
  5  6  2  0
  6  7  1  0
  7  8  1  0
  8  9  1  0
  9 10  2  0
  9 11  1  0
 11 12  2  0
 12 13  1  0
 12 14  1  0
 14 15  2  0
 15 16  1  0
 16 17  2  0
 17 18  1  0
 18 19  2  0
 19 20  1  0
 20 21  2  0
  7 22  2  0
 22 23  1  0
 23 24  2  0
 24 25  1  0
 25 26  2  0
 26 27  1  0
 27 28  2  0
 28  5  1  0
 21 11  1  0
 27 22  1  0
 21 16  1  0
M  END
>  <fragmenstein_outcome>  (277) 
nan

>  <exports>  (277) 
['/opt/xchem-fragalysis-2/maxwin/openbind-hippo/xx01zvns2b/cycle_01/syndirella/elabs/openbind_xx01zvns2b_c1_elab_chemspace_filtered.sdf']

>  <Energy>  (277) 
nan

>  <alias>  (277) 
None

>  <fragmenstein_runtime>  (277) 
nan

>  <scratch_subdir>  (277) 
nan

>  <HIPPO Compound ID>  (277) 
142119

>  <rmsd(smina/fragmenstein)>  (277) 
0.884

>  <distance_score>  (277) 
1.560306

>  <orig_smiles>  (277) 
nan

>  <fragmenstein_mode>  (277) 
nan

>  <inchikey>  (277) 
YBGICKOCCAKDBJ-UHFFFAOYSA-N

>  <ref_pdb>  (277) 
Z0852a

>  <GNINA pK>  (277) 
nan

>  <gnina_score_min>  (277) 
6.152

>  <tags>  (277) 
openbind_xx01zvns2b_c1_elab_nonasap_filtered_scored_top80percent,openbind_xx01zvns2b_c1_elab_chemspace_filtered_scored_top80percent,openbind_xx01zvns2b_c1_elab_chemspace_filtered_scored,openbind_xx01zvns2b_c1_elab_chemspace_filtered_scored_top40percent,openbind_xx01zvns2b_c1_elab_chemspace_filtered_scored_top20percent,openbind_xx01zvns2b_c1_elab_chemspace_filtered_scored_top60percent,openbind_xx01zvns2b_c1_elabs_filtered

>  <smiles>  (277) 
COC(=O)c1cc(NC(=O)c2c(Br)cnc3ccccc23)c2ncccc2c1

>  <subsites>  (277) 
1 - Z4590/B/203/1

>  <gnina_score>  (277) 
6.04

>  <HIPPO Pose ID>  (277) 
70219

>  <ref_mols>  (277) 
Z0917a,Z0852a

>  <energy_score>  (277) 
-4.937393

>  <inspiration_score>  (277) 
None

>  <smina_score_min>  (277) 
-6.908

>  <fragmenstein_error>  (277) 
nan

>  <name>  (277) 
P70219

$$$$
P70220
     RDKit          3D

 28 31  0  0  0  0  0  0  0  0999 V2000
   -5.9785    4.1376  -20.5457 O   0  0  0  0  0  0  0  0  0  0  0  0
   -5.3305    4.8681  -19.8960 C   0  0  0  0  0  0  0  0  0  0  0  0
   -5.5823    5.4452  -18.4641 N   0  0  0  0  0  0  0  0  0  0  0  0
   -6.6063    5.1711  -17.5337 C   0  0  0  0  0  0  0  0  0  0  0  0
   -6.3791    5.4971  -16.1791 C   0  0  0  0  0  0  0  0  0  0  0  0
   -7.3617    5.2622  -15.1958 C   0  0  0  0  0  0  0  0  0  0  0  0
   -7.2546    5.7632  -13.7802 C   0  0  0  0  0  0  0  0  0  0  0  0
   -8.3417    5.4585  -13.0117 F   0  0  0  0  0  0  0  0  0  0  0  0
   -6.1733    5.2818  -13.1197 F   0  0  0  0  0  0  0  0  0  0  0  0
   -7.1621    7.1232  -13.7336 F   0  0  0  0  0  0  0  0  0  0  0  0
   -8.5421    4.6439  -15.5682 C   0  0  0  0  0  0  0  0  0  0  0  0
   -8.8021    4.4498  -16.9087 C   0  0  0  0  0  0  0  0  0  0  0  0
  -10.0985    4.1669  -17.2510 C   0  0  0  0  0  0  0  0  0  0  0  0
  -10.5138    4.3483  -18.5328 C   0  0  0  0  0  0  0  0  0  0  0  0
   -9.5387    4.5156  -19.4740 C   0  0  0  0  0  0  0  0  0  0  0  0
   -8.2338    4.6145  -19.1892 N   0  0  0  0  0  0  0  0  0  0  0  0
   -7.8598    4.6961  -17.9159 C   0  0  0  0  0  0  0  0  0  0  0  0
   -4.0284    5.3101  -20.4735 C   0  0  0  0  0  0  0  0  0  0  0  0
   -2.8455    5.0599  -19.7839 C   0  0  0  0  0  0  0  0  0  0  0  0
   -2.7706    4.4360  -18.0098 Br  0  0  0  0  0  0  0  0  0  0  0  0
   -1.6555    5.3025  -20.4396 C   0  0  0  0  0  0  0  0  0  0  0  0
   -1.5734    5.8098  -21.6872 N   0  0  0  0  0  0  0  0  0  0  0  0
   -2.7064    6.0730  -22.3470 C   0  0  0  0  0  0  0  0  0  0  0  0
   -2.6015    6.6039  -23.6268 C   0  0  0  0  0  0  0  0  0  0  0  0
   -3.7245    6.9356  -24.3849 C   0  0  0  0  0  0  0  0  0  0  0  0
   -4.9861    6.7317  -23.8528 C   0  0  0  0  0  0  0  0  0  0  0  0
   -5.1059    6.1910  -22.5728 C   0  0  0  0  0  0  0  0  0  0  0  0
   -3.9794    5.8466  -21.7910 C   0  0  0  0  0  0  0  0  0  0  0  0
  1  2  2  0
  2  3  1  0
  3  4  1  0
  4  5  2  0
  5  6  1  0
  6  7  1  0
  7  8  1  0
  7  9  1  0
  7 10  1  0
  6 11  2  0
 11 12  1  0
 12 13  2  0
 13 14  1  0
 14 15  2  0
 15 16  1  0
 16 17  2  0
  2 18  1  0
 18 19  2  0
 19 20  1  0
 19 21  1  0
 21 22  2  0
 22 23  1  0
 23 24  2  0
 24 25  1  0
 25 26  2  0
 26 27  1  0
 27 28  2  0
 17  4  1  0
 28 18  1  0
 17 12  1  0
 28 23  1  0
M  END
>  <fragmenstein_outcome>  (278) 
nan

>  <exports>  (278) 
['/opt/xchem-fragalysis-2/maxwin/openbind-hippo/xx01zvns2b/cycle_01/syndirella/elabs/openbind_xx01zvns2b_c1_elab_chemspace_filtered.sdf']

>  <Energy>  (278) 
nan

>  <alias>  (278) 
None

>  <fragmenstein_runtime>  (278) 
nan

>  <scratch_subdir>  (278) 
nan

>  <HIPPO Compound ID>  (278) 
142120

>  <rmsd(smina/fragmenstein)>  (278) 
1.501

>  <distance_score>  (278) 
0.956449

>  <orig_smiles>  (278) 
nan

>  <fragmenstein_mode>  (278) 
nan

>  <inchikey>  (278) 
RBKQQVLCSOWABW-UHFFFAOYSA-N

>  <ref_pdb>  (278) 
Z0852a

>  <GNINA pK>  (278) 
nan

>  <gnina_score_min>  (278) 
6.138

>  <tags>  (278) 
openbind_xx01zvns2b_c1_elab_nonasap_filtered_scored_top80percent,openbind_xx01zvns2b_c1_elab_chemspace_filtered_scored_top80percent,openbind_xx01zvns2b_c1_elab_chemspace_filtered_scored,openbind_xx01zvns2b_c1_elab_chemspace_filtered_scored_top40percent,openbind_xx01zvns2b_c1_elab_chemspace_filtered_scored_top20percent,openbind_xx01zvns2b_c1_elab_chemspace_filtered_scored_top60percent,openbind_xx01zvns2b_c1_elabs_filtered

>  <smiles>  (278) 
O=C(Nc1cc(C(F)(F)F)cc2cccnc12)c1c(Br)cnc2ccccc12

>  <subsites>  (278) 
1 - Z4590/B/203/1

>  <gnina_score>  (278) 
5.742

>  <HIPPO Pose ID>  (278) 
70220

>  <ref_mols>  (278) 
Z0917a,Z0852a

>  <energy_score>  (278) 
-15.780713

>  <inspiration_score>  (278) 
None

>  <smina_score_min>  (278) 
-6.896

>  <fragmenstein_error>  (278) 
nan

>  <name>  (278) 
P70220

$$$$
P70221
     RDKit          3D

 28 31  0  0  0  0  0  0  0  0999 V2000
   -8.3508    6.8122  -13.6626 C   0  0  0  0  0  0  0  0  0  0  0  0
   -7.3433    5.6642  -13.7892 C   0  0  0  0  0  0  0  0  0  0  0  0
   -5.9847    6.2388  -13.3803 C   0  0  0  0  0  0  0  0  0  0  0  0
   -7.7423    4.5700  -12.7805 C   0  0  0  0  0  0  0  0  0  0  0  0
   -7.3901    5.1554  -15.2322 C   0  0  0  0  0  0  0  0  0  0  0  0
   -6.4021    5.3795  -16.2130 C   0  0  0  0  0  0  0  0  0  0  0  0
   -6.6230    5.0748  -17.5770 C   0  0  0  0  0  0  0  0  0  0  0  0
   -5.5923    5.3682  -18.4946 N   0  0  0  0  0  0  0  0  0  0  0  0
   -5.3308    4.8217  -19.9357 C   0  0  0  0  0  0  0  0  0  0  0  0
   -5.9743    4.1053  -20.6052 O   0  0  0  0  0  0  0  0  0  0  0  0
   -4.0294    5.2854  -20.4996 C   0  0  0  0  0  0  0  0  0  0  0  0
   -2.8462    5.0479  -19.8057 C   0  0  0  0  0  0  0  0  0  0  0  0
   -2.7659    4.4287  -18.0304 Br  0  0  0  0  0  0  0  0  0  0  0  0
   -1.6564    5.3016  -20.4579 C   0  0  0  0  0  0  0  0  0  0  0  0
   -1.5741    5.8077  -21.7060 N   0  0  0  0  0  0  0  0  0  0  0  0
   -2.7075    6.0693  -22.3656 C   0  0  0  0  0  0  0  0  0  0  0  0
   -2.6028    6.6090  -23.6417 C   0  0  0  0  0  0  0  0  0  0  0  0
   -3.7259    6.9410  -24.3995 C   0  0  0  0  0  0  0  0  0  0  0  0
   -4.9873    6.7285  -23.8706 C   0  0  0  0  0  0  0  0  0  0  0  0
   -5.1069    6.1784  -22.5946 C   0  0  0  0  0  0  0  0  0  0  0  0
   -3.9802    5.8323  -21.8133 C   0  0  0  0  0  0  0  0  0  0  0  0
   -7.8781    4.6259  -17.9784 C   0  0  0  0  0  0  0  0  0  0  0  0
   -8.2443    4.5619  -19.2550 N   0  0  0  0  0  0  0  0  0  0  0  0
   -9.5520    4.5251  -19.5418 C   0  0  0  0  0  0  0  0  0  0  0  0
  -10.5407    4.4031  -18.6090 C   0  0  0  0  0  0  0  0  0  0  0  0
  -10.1412    4.1748  -17.3328 C   0  0  0  0  0  0  0  0  0  0  0  0
   -8.8329    4.3932  -16.9851 C   0  0  0  0  0  0  0  0  0  0  0  0
   -8.5727    4.5551  -15.6430 C   0  0  0  0  0  0  0  0  0  0  0  0
  1  2  1  0
  2  3  1  0
  2  4  1  0
  2  5  1  0
  5  6  2  0
  6  7  1  0
  7  8  1  0
  8  9  1  0
  9 10  2  0
  9 11  1  0
 11 12  2  0
 12 13  1  0
 12 14  1  0
 14 15  2  0
 15 16  1  0
 16 17  2  0
 17 18  1  0
 18 19  2  0
 19 20  1  0
 20 21  2  0
  7 22  2  0
 22 23  1  0
 23 24  2  0
 24 25  1  0
 25 26  2  0
 26 27  1  0
 27 28  2  0
 28  5  1  0
 21 11  1  0
 27 22  1  0
 21 16  1  0
M  END
>  <fragmenstein_outcome>  (279) 
nan

>  <exports>  (279) 
['/opt/xchem-fragalysis-2/maxwin/openbind-hippo/xx01zvns2b/cycle_01/syndirella/elabs/openbind_xx01zvns2b_c1_elab_chemspace_filtered.sdf']

>  <Energy>  (279) 
nan

>  <alias>  (279) 
None

>  <fragmenstein_runtime>  (279) 
nan

>  <scratch_subdir>  (279) 
nan

>  <HIPPO Compound ID>  (279) 
142121

>  <rmsd(smina/fragmenstein)>  (279) 
1.345

>  <distance_score>  (279) 
1.331766

>  <orig_smiles>  (279) 
nan

>  <fragmenstein_mode>  (279) 
nan

>  <inchikey>  (279) 
MZKBEUQLKIEFQF-UHFFFAOYSA-N

>  <ref_pdb>  (279) 
Z0852a

>  <GNINA pK>  (279) 
nan

>  <gnina_score_min>  (279) 
6.461

>  <tags>  (279) 
openbind_xx01zvns2b_c1_elab_nonasap_filtered_scored_top80percent,openbind_xx01zvns2b_c1_elab_chemspace_filtered_scored_top80percent,openbind_xx01zvns2b_c1_elab_chemspace_filtered_scored,openbind_xx01zvns2b_c1_elab_chemspace_filtered_scored_top40percent,openbind_xx01zvns2b_c1_elab_chemspace_filtered_scored_top20percent,openbind_xx01zvns2b_c1_elab_chemspace_filtered_scored_top60percent,openbind_xx01zvns2b_c1_elabs_filtered

>  <smiles>  (279) 
CC(C)(C)c1cc(NC(=O)c2c(Br)cnc3ccccc23)c2ncccc2c1

>  <subsites>  (279) 
1 - Z4590/B/203/1

>  <gnina_score>  (279) 
5.991

>  <HIPPO Pose ID>  (279) 
70221

>  <ref_mols>  (279) 
Z0917a,Z0852a

>  <energy_score>  (279) 
-31.849167

>  <inspiration_score>  (279) 
None

>  <smina_score_min>  (279) 
-7.156

>  <fragmenstein_error>  (279) 
nan

>  <name>  (279) 
P70221

$$$$
P70222
     RDKit          3D

 28 31  0  0  0  0  0  0  0  0999 V2000
    0.9151    6.3170  -18.0963 C   0  0  0  0  0  0  0  0  0  0  0  0
   -0.4201    5.9946  -18.6951 C   0  0  0  0  0  0  0  0  0  0  0  0
   -1.4121    5.3812  -17.9396 C   0  0  0  0  0  0  0  0  0  0  0  0
   -2.6151    5.0034  -18.5340 C   0  0  0  0  0  0  0  0  0  0  0  0
   -2.9130    5.3600  -19.8743 C   0  0  0  0  0  0  0  0  0  0  0  0
   -4.1589    5.2011  -20.5315 C   0  0  0  0  0  0  0  0  0  0  0  0
   -5.3863    4.6472  -19.9039 C   0  0  0  0  0  0  0  0  0  0  0  0
   -5.9987    3.8742  -20.5364 O   0  0  0  0  0  0  0  0  0  0  0  0
   -5.6087    5.1653  -18.4535 N   0  0  0  0  0  0  0  0  0  0  0  0
   -6.6485    4.9185  -17.5497 C   0  0  0  0  0  0  0  0  0  0  0  0
   -6.3996    5.1692  -16.1901 C   0  0  0  0  0  0  0  0  0  0  0  0
   -7.3938    4.9896  -15.2063 C   0  0  0  0  0  0  0  0  0  0  0  0
   -7.1970    5.4579  -13.7660 C   0  0  0  0  0  0  0  0  0  0  0  0
   -8.4343    5.2897  -12.8550 C   0  0  0  0  0  0  0  0  0  0  0  0
   -6.0346    4.7043  -13.1138 C   0  0  0  0  0  0  0  0  0  0  0  0
   -6.8895    6.9577  -13.8158 C   0  0  0  0  0  0  0  0  0  0  0  0
   -8.6151    4.4840  -15.6177 C   0  0  0  0  0  0  0  0  0  0  0  0
   -8.8877    4.3561  -16.9672 C   0  0  0  0  0  0  0  0  0  0  0  0
  -10.1983    4.1794  -17.3330 C   0  0  0  0  0  0  0  0  0  0  0  0
  -10.5873    4.4368  -18.6081 C   0  0  0  0  0  0  0  0  0  0  0  0
   -9.5930    4.5608  -19.5333 C   0  0  0  0  0  0  0  0  0  0  0  0
   -8.2877    4.5557  -19.2396 N   0  0  0  0  0  0  0  0  0  0  0  0
   -7.9258    4.5605  -17.9587 C   0  0  0  0  0  0  0  0  0  0  0  0
   -4.3062    5.5459  -21.8760 C   0  0  0  0  0  0  0  0  0  0  0  0
   -3.2122    6.0421  -22.5368 C   0  0  0  0  0  0  0  0  0  0  0  0
   -2.0252    6.2554  -21.9422 N   0  0  0  0  0  0  0  0  0  0  0  0
   -1.8849    5.9364  -20.6465 C   0  0  0  0  0  0  0  0  0  0  0  0
   -0.6640    6.2239  -20.0524 C   0  0  0  0  0  0  0  0  0  0  0  0
  1  2  1  0
  2  3  2  0
  3  4  1  0
  4  5  2  0
  5  6  1  0
  6  7  1  0
  7  8  2  0
  7  9  1  0
  9 10  1  0
 10 11  2  0
 11 12  1  0
 12 13  1  0
 13 14  1  0
 13 15  1  0
 13 16  1  0
 12 17  2  0
 17 18  1  0
 18 19  2  0
 19 20  1  0
 20 21  2  0
 21 22  1  0
 22 23  2  0
  6 24  2  0
 24 25  1  0
 25 26  2  0
 26 27  1  0
 27 28  2  0
 28  2  1  0
 27  5  1  0
 23 10  1  0
 23 18  1  0
M  END
>  <fragmenstein_outcome>  (280) 
nan

>  <exports>  (280) 
['/opt/xchem-fragalysis-2/maxwin/openbind-hippo/xx01zvns2b/cycle_01/syndirella/elabs/openbind_xx01zvns2b_c1_elab_chemspace_filtered.sdf']

>  <Energy>  (280) 
nan

>  <alias>  (280) 
None

>  <fragmenstein_runtime>  (280) 
nan

>  <scratch_subdir>  (280) 
nan

>  <HIPPO Compound ID>  (280) 
142123

>  <rmsd(smina/fragmenstein)>  (280) 
1.632

>  <distance_score>  (280) 
1.141246

>  <orig_smiles>  (280) 
nan

>  <fragmenstein_mode>  (280) 
nan

>  <inchikey>  (280) 
YKMUWUWIFHTGOJ-UHFFFAOYSA-N

>  <ref_pdb>  (280) 
Z0852a

>  <GNINA pK>  (280) 
nan

>  <gnina_score_min>  (280) 
6.332

>  <tags>  (280) 
openbind_xx01zvns2b_c1_elab_nonasap_filtered_scored_top80percent,openbind_xx01zvns2b_c1_elab_chemspace_filtered_scored_top80percent,openbind_xx01zvns2b_c1_elab_chemspace_filtered_scored,openbind_xx01zvns2b_c1_elab_chemspace_filtered_scored_top40percent,openbind_xx01zvns2b_c1_elab_chemspace_filtered_scored_top20percent,openbind_xx01zvns2b_c1_elab_chemspace_filtered_scored_top60percent,openbind_xx01zvns2b_c1_elabs_filtered

>  <smiles>  (280) 
Cc1ccc2c(C(=O)Nc3cc(C(C)(C)C)cc4cccnc34)ccnc2c1

>  <subsites>  (280) 
1 - Z4590/B/203/1

>  <gnina_score>  (280) 
5.706

>  <HIPPO Pose ID>  (280) 
70222

>  <ref_mols>  (280) 
Z0917a,Z0852a

>  <energy_score>  (280) 
-11.101103

>  <inspiration_score>  (280) 
None

>  <smina_score_min>  (280) 
-6.516

>  <fragmenstein_error>  (280) 
nan

>  <name>  (280) 
P70222

$$$$
P70223
     RDKit          3D

 28 31  0  0  0  0  0  0  0  0999 V2000
   -6.4833    4.9613  -11.4638 C   0  0  0  0  0  0  0  0  0  0  0  0
   -6.9650    4.8515  -12.8032 O   0  0  0  0  0  0  0  0  0  0  0  0
   -6.0138    5.0344  -13.7516 C   0  0  0  0  0  0  0  0  0  0  0  0
   -4.8378    5.2925  -13.5467 O   0  0  0  0  0  0  0  0  0  0  0  0
   -6.5974    4.9103  -15.1124 C   0  0  0  0  0  0  0  0  0  0  0  0
   -5.7916    5.2094  -16.2117 C   0  0  0  0  0  0  0  0  0  0  0  0
   -6.2749    5.0642  -17.5208 C   0  0  0  0  0  0  0  0  0  0  0  0
   -5.3474    5.2907  -18.5391 N   0  0  0  0  0  0  0  0  0  0  0  0
   -5.2870    4.7393  -19.9879 C   0  0  0  0  0  0  0  0  0  0  0  0
   -5.9613    3.9507  -20.5278 O   0  0  0  0  0  0  0  0  0  0  0  0
   -4.1128    5.2556  -20.7324 C   0  0  0  0  0  0  0  0  0  0  0  0
   -4.3822    5.6158  -22.0496 C   0  0  0  0  0  0  0  0  0  0  0  0
   -3.3367    6.0938  -22.7914 C   0  0  0  0  0  0  0  0  0  0  0  0
   -3.5605    6.5847  -24.4196 Cl  0  0  0  0  0  0  0  0  0  0  0  0
   -2.0930    6.2757  -22.3210 N   0  0  0  0  0  0  0  0  0  0  0  0
   -1.8398    5.9379  -21.0518 C   0  0  0  0  0  0  0  0  0  0  0  0
   -0.5629    6.1963  -20.5792 C   0  0  0  0  0  0  0  0  0  0  0  0
   -0.2056    5.9471  -19.2583 C   0  0  0  0  0  0  0  0  0  0  0  0
   -1.1293    5.3685  -18.4055 C   0  0  0  0  0  0  0  0  0  0  0  0
   -2.3924    5.0179  -18.8795 C   0  0  0  0  0  0  0  0  0  0  0  0
   -2.8058    5.3801  -20.1892 C   0  0  0  0  0  0  0  0  0  0  0  0
   -7.6043    4.7166  -17.7590 C   0  0  0  0  0  0  0  0  0  0  0  0
   -8.1377    4.7355  -18.9856 N   0  0  0  0  0  0  0  0  0  0  0  0
   -9.4536    4.5205  -19.1390 C   0  0  0  0  0  0  0  0  0  0  0  0
  -10.2954    4.2225  -18.0998 C   0  0  0  0  0  0  0  0  0  0  0  0
   -9.7354    4.1399  -16.8432 C   0  0  0  0  0  0  0  0  0  0  0  0
   -8.4034    4.4414  -16.6399 C   0  0  0  0  0  0  0  0  0  0  0  0
   -7.9083    4.5023  -15.3331 C   0  0  0  0  0  0  0  0  0  0  0  0
  1  2  1  0
  2  3  1  0
  3  4  2  0
  3  5  1  0
  5  6  2  0
  6  7  1  0
  7  8  1  0
  8  9  1  0
  9 10  2  0
  9 11  1  0
 11 12  2  0
 12 13  1  0
 13 14  1  0
 13 15  2  0
 15 16  1  0
 16 17  2  0
 17 18  1  0
 18 19  2  0
 19 20  1  0
 20 21  2  0
  7 22  2  0
 22 23  1  0
 23 24  2  0
 24 25  1  0
 25 26  2  0
 26 27  1  0
 27 28  2  0
 28  5  1  0
 21 11  1  0
 27 22  1  0
 21 16  1  0
M  END
>  <fragmenstein_outcome>  (281) 
nan

>  <exports>  (281) 
['/opt/xchem-fragalysis-2/maxwin/openbind-hippo/xx01zvns2b/cycle_01/syndirella/elabs/openbind_xx01zvns2b_c1_elab_chemspace_filtered.sdf']

>  <Energy>  (281) 
nan

>  <alias>  (281) 
None

>  <fragmenstein_runtime>  (281) 
nan

>  <scratch_subdir>  (281) 
nan

>  <HIPPO Compound ID>  (281) 
142124

>  <rmsd(smina/fragmenstein)>  (281) 
1.262

>  <distance_score>  (281) 
1.629656

>  <orig_smiles>  (281) 
nan

>  <fragmenstein_mode>  (281) 
nan

>  <inchikey>  (281) 
ZDRSAFDUAVWMKG-UHFFFAOYSA-N

>  <ref_pdb>  (281) 
Z0852a

>  <GNINA pK>  (281) 
nan

>  <gnina_score_min>  (281) 
5.961

>  <tags>  (281) 
openbind_xx01zvns2b_c1_elab_nonasap_filtered_scored_top80percent,openbind_xx01zvns2b_c1_elab_chemspace_filtered_scored_top80percent,openbind_xx01zvns2b_c1_elab_chemspace_filtered_scored,openbind_xx01zvns2b_c1_elab_chemspace_filtered_scored_top40percent,openbind_xx01zvns2b_c1_elab_chemspace_filtered_scored_top20percent,openbind_xx01zvns2b_c1_elab_chemspace_filtered_scored_top60percent,openbind_xx01zvns2b_c1_elabs_filtered

>  <smiles>  (281) 
COC(=O)c1cc(NC(=O)c2cc(Cl)nc3ccccc23)c2ncccc2c1

>  <subsites>  (281) 
1 - Z4590/B/203/1

>  <gnina_score>  (281) 
5.78

>  <HIPPO Pose ID>  (281) 
70223

>  <ref_mols>  (281) 
Z0917a,Z0852a

>  <energy_score>  (281) 
-16.240935

>  <inspiration_score>  (281) 
None

>  <smina_score_min>  (281) 
-6.324

>  <fragmenstein_error>  (281) 
nan

>  <name>  (281) 
P70223

$$$$
P70224
     RDKit          3D

 28 31  0  0  0  0  0  0  0  0999 V2000
   -5.9296    3.9205  -20.3438 O   0  0  0  0  0  0  0  0  0  0  0  0
   -5.3262    4.7221  -19.7393 C   0  0  0  0  0  0  0  0  0  0  0  0
   -5.5683    5.3057  -18.3153 N   0  0  0  0  0  0  0  0  0  0  0  0
   -6.6215    5.0983  -17.4138 C   0  0  0  0  0  0  0  0  0  0  0  0
   -6.4188    5.4308  -16.0620 C   0  0  0  0  0  0  0  0  0  0  0  0
   -7.4344    5.2279  -15.1106 C   0  0  0  0  0  0  0  0  0  0  0  0
   -7.3409    5.7301  -13.6965 C   0  0  0  0  0  0  0  0  0  0  0  0
   -7.2481    7.0905  -13.6530 F   0  0  0  0  0  0  0  0  0  0  0  0
   -6.2618    5.2528  -13.0283 F   0  0  0  0  0  0  0  0  0  0  0  0
   -8.4325    5.4255  -12.9368 F   0  0  0  0  0  0  0  0  0  0  0  0
   -8.6215    4.6401  -15.5159 C   0  0  0  0  0  0  0  0  0  0  0  0
   -8.8520    4.4451  -16.8641 C   0  0  0  0  0  0  0  0  0  0  0  0
  -10.1392    4.1783  -17.2541 C   0  0  0  0  0  0  0  0  0  0  0  0
  -10.5121    4.3658  -18.5478 C   0  0  0  0  0  0  0  0  0  0  0  0
   -9.5079    4.5190  -19.4582 C   0  0  0  0  0  0  0  0  0  0  0  0
   -8.2128    4.6102  -19.1294 N   0  0  0  0  0  0  0  0  0  0  0  0
   -7.8776    4.6688  -17.8406 C   0  0  0  0  0  0  0  0  0  0  0  0
   -4.1090    5.2503  -20.3980 C   0  0  0  0  0  0  0  0  0  0  0  0
   -4.2709    5.5461  -21.7525 C   0  0  0  0  0  0  0  0  0  0  0  0
   -3.1776    6.0147  -22.4287 C   0  0  0  0  0  0  0  0  0  0  0  0
   -3.2733    6.4283  -24.0899 Cl  0  0  0  0  0  0  0  0  0  0  0  0
   -1.9824    6.2451  -21.8633 N   0  0  0  0  0  0  0  0  0  0  0  0
   -1.8300    5.9581  -20.5640 C   0  0  0  0  0  0  0  0  0  0  0  0
   -0.6002    6.2451  -19.9918 C   0  0  0  0  0  0  0  0  0  0  0  0
   -0.3500    6.0317  -18.6383 C   0  0  0  0  0  0  0  0  0  0  0  0
   -1.3339    5.4628  -17.8466 C   0  0  0  0  0  0  0  0  0  0  0  0
   -2.5530    5.0956  -18.4130 C   0  0  0  0  0  0  0  0  0  0  0  0
   -2.8563    5.4165  -19.7613 C   0  0  0  0  0  0  0  0  0  0  0  0
  1  2  2  0
  2  3  1  0
  3  4  1  0
  4  5  2  0
  5  6  1  0
  6  7  1  0
  7  8  1  0
  7  9  1  0
  7 10  1  0
  6 11  2  0
 11 12  1  0
 12 13  2  0
 13 14  1  0
 14 15  2  0
 15 16  1  0
 16 17  2  0
  2 18  1  0
 18 19  2  0
 19 20  1  0
 20 21  1  0
 20 22  2  0
 22 23  1  0
 23 24  2  0
 24 25  1  0
 25 26  2  0
 26 27  1  0
 27 28  2  0
 17  4  1  0
 28 18  1  0
 17 12  1  0
 28 23  1  0
M  END
>  <fragmenstein_outcome>  (282) 
nan

>  <exports>  (282) 
['/opt/xchem-fragalysis-2/maxwin/openbind-hippo/xx01zvns2b/cycle_01/syndirella/elabs/openbind_xx01zvns2b_c1_elab_chemspace_filtered.sdf']

>  <Energy>  (282) 
nan

>  <alias>  (282) 
None

>  <fragmenstein_runtime>  (282) 
nan

>  <scratch_subdir>  (282) 
nan

>  <HIPPO Compound ID>  (282) 
142125

>  <rmsd(smina/fragmenstein)>  (282) 
1.22

>  <distance_score>  (282) 
1.084028

>  <orig_smiles>  (282) 
nan

>  <fragmenstein_mode>  (282) 
nan

>  <inchikey>  (282) 
WSRRHQSOCXJONH-UHFFFAOYSA-N

>  <ref_pdb>  (282) 
Z0852a

>  <GNINA pK>  (282) 
nan

>  <gnina_score_min>  (282) 
6.015

>  <tags>  (282) 
openbind_xx01zvns2b_c1_elab_nonasap_filtered_scored_top80percent,openbind_xx01zvns2b_c1_elab_chemspace_filtered_scored_top80percent,openbind_xx01zvns2b_c1_elab_chemspace_filtered_scored,openbind_xx01zvns2b_c1_elab_chemspace_filtered_scored_top40percent,openbind_xx01zvns2b_c1_elab_chemspace_filtered_scored_top20percent,openbind_xx01zvns2b_c1_elab_chemspace_filtered_scored_top60percent,openbind_xx01zvns2b_c1_elabs_filtered

>  <smiles>  (282) 
O=C(Nc1cc(C(F)(F)F)cc2cccnc12)c1cc(Cl)nc2ccccc12

>  <subsites>  (282) 
1 - Z4590/B/203/1

>  <gnina_score>  (282) 
5.461

>  <HIPPO Pose ID>  (282) 
70224

>  <ref_mols>  (282) 
Z0917a,Z0852a

>  <energy_score>  (282) 
-0.532559

>  <inspiration_score>  (282) 
None

>  <smina_score_min>  (282) 
-6.627

>  <fragmenstein_error>  (282) 
nan

>  <name>  (282) 
P70224

$$$$
P70225
     RDKit          3D

 28 31  0  0  0  0  0  0  0  0999 V2000
   -8.4465    6.7945  -13.5989 C   0  0  0  0  0  0  0  0  0  0  0  0
   -7.4343    5.6488  -13.7114 C   0  0  0  0  0  0  0  0  0  0  0  0
   -7.8363    4.5521  -12.7092 C   0  0  0  0  0  0  0  0  0  0  0  0
   -6.0822    6.2317  -13.2892 C   0  0  0  0  0  0  0  0  0  0  0  0
   -7.4656    5.1368  -15.1517 C   0  0  0  0  0  0  0  0  0  0  0  0
   -6.4484    5.3303  -16.1029 C   0  0  0  0  0  0  0  0  0  0  0  0
   -6.6471    5.0168  -17.4631 C   0  0  0  0  0  0  0  0  0  0  0  0
   -5.5880    5.2435  -18.3526 N   0  0  0  0  0  0  0  0  0  0  0  0
   -5.3359    4.6906  -19.7865 C   0  0  0  0  0  0  0  0  0  0  0  0
   -5.9350    3.9019  -20.4123 O   0  0  0  0  0  0  0  0  0  0  0  0
   -4.1046    5.2269  -20.4191 C   0  0  0  0  0  0  0  0  0  0  0  0
   -4.2419    5.5238  -21.7776 C   0  0  0  0  0  0  0  0  0  0  0  0
   -3.1438    5.9933  -22.4510 C   0  0  0  0  0  0  0  0  0  0  0  0
   -1.9591    6.2235  -21.8581 N   0  0  0  0  0  0  0  0  0  0  0  0
   -1.8239    5.9421  -20.5546 C   0  0  0  0  0  0  0  0  0  0  0  0
   -0.6007    6.2399  -19.9690 C   0  0  0  0  0  0  0  0  0  0  0  0
   -0.3698    6.0444  -18.6099 C   0  0  0  0  0  0  0  0  0  0  0  0
   -1.3674    5.4785  -17.8412 C   0  0  0  0  0  0  0  0  0  0  0  0
   -1.1721    5.3037  -16.5279 F   0  0  0  0  0  0  0  0  0  0  0  0
   -2.5737    5.0899  -18.4097 C   0  0  0  0  0  0  0  0  0  0  0  0
   -2.8611    5.3990  -19.7637 C   0  0  0  0  0  0  0  0  0  0  0  0
   -7.9024    4.6077  -17.9050 C   0  0  0  0  0  0  0  0  0  0  0  0
   -8.2346    4.5670  -19.1952 N   0  0  0  0  0  0  0  0  0  0  0  0
   -9.5325    4.5312  -19.5216 C   0  0  0  0  0  0  0  0  0  0  0  0
  -10.5453    4.4148  -18.6161 C   0  0  0  0  0  0  0  0  0  0  0  0
  -10.1823    4.1818  -17.3297 C   0  0  0  0  0  0  0  0  0  0  0  0
   -8.8838    4.3912  -16.9393 C   0  0  0  0  0  0  0  0  0  0  0  0
   -8.6495    4.5552  -15.5906 C   0  0  0  0  0  0  0  0  0  0  0  0
  1  2  1  0
  2  3  1  0
  2  4  1  0
  2  5  1  0
  5  6  2  0
  6  7  1  0
  7  8  1  0
  8  9  1  0
  9 10  2  0
  9 11  1  0
 11 12  2  0
 12 13  1  0
 13 14  2  0
 14 15  1  0
 15 16  2  0
 16 17  1  0
 17 18  2  0
 18 19  1  0
 18 20  1  0
 20 21  2  0
  7 22  2  0
 22 23  1  0
 23 24  2  0
 24 25  1  0
 25 26  2  0
 26 27  1  0
 27 28  2  0
 28  5  1  0
 21 11  1  0
 27 22  1  0
 21 15  1  0
M  END
>  <fragmenstein_outcome>  (283) 
nan

>  <exports>  (283) 
['/opt/xchem-fragalysis-2/maxwin/openbind-hippo/xx01zvns2b/cycle_01/syndirella/elabs/openbind_xx01zvns2b_c1_elab_chemspace_filtered.sdf']

>  <Energy>  (283) 
nan

>  <alias>  (283) 
None

>  <fragmenstein_runtime>  (283) 
nan

>  <scratch_subdir>  (283) 
nan

>  <HIPPO Compound ID>  (283) 
142130

>  <rmsd(smina/fragmenstein)>  (283) 
1.549

>  <distance_score>  (283) 
1.355007

>  <orig_smiles>  (283) 
nan

>  <fragmenstein_mode>  (283) 
nan

>  <inchikey>  (283) 
WKCACEZSHOAPED-UHFFFAOYSA-N

>  <ref_pdb>  (283) 
Z0852a

>  <GNINA pK>  (283) 
nan

>  <gnina_score_min>  (283) 
6.336

>  <tags>  (283) 
openbind_xx01zvns2b_c1_elab_nonasap_filtered_scored_top80percent,openbind_xx01zvns2b_c1_elab_chemspace_filtered_scored_top80percent,openbind_xx01zvns2b_c1_elab_chemspace_filtered_scored,openbind_xx01zvns2b_c1_elab_chemspace_filtered_scored_top40percent,openbind_xx01zvns2b_c1_elab_chemspace_filtered_scored_top20percent,openbind_xx01zvns2b_c1_elab_chemspace_filtered_scored_top60percent,openbind_xx01zvns2b_c1_elabs_filtered

>  <smiles>  (283) 
CC(C)(C)c1cc(NC(=O)c2ccnc3ccc(F)cc23)c2ncccc2c1

>  <subsites>  (283) 
1 - Z4590/B/203/1

>  <gnina_score>  (283) 
5.71

>  <HIPPO Pose ID>  (283) 
70225

>  <ref_mols>  (283) 
Z0917a,Z0852a

>  <energy_score>  (283) 
-10.012035

>  <inspiration_score>  (283) 
None

>  <smina_score_min>  (283) 
-6.596

>  <fragmenstein_error>  (283) 
nan

>  <name>  (283) 
P70225

$$$$
P70226
     RDKit          3D

 28 31  0  0  0  0  0  0  0  0999 V2000
   -6.4118    4.8031  -11.4884 C   0  0  0  0  0  0  0  0  0  0  0  0
   -6.9149    4.7716  -12.8241 O   0  0  0  0  0  0  0  0  0  0  0  0
   -5.9815    4.9977  -13.7793 C   0  0  0  0  0  0  0  0  0  0  0  0
   -4.8041    5.2590  -13.5872 O   0  0  0  0  0  0  0  0  0  0  0  0
   -6.5870    4.9037  -15.1332 C   0  0  0  0  0  0  0  0  0  0  0  0
   -5.8020    5.2336  -16.2389 C   0  0  0  0  0  0  0  0  0  0  0  0
   -6.3007    5.0928  -17.5423 C   0  0  0  0  0  0  0  0  0  0  0  0
   -5.3970    5.3480  -18.5742 N   0  0  0  0  0  0  0  0  0  0  0  0
   -5.2992    4.7442  -20.0005 C   0  0  0  0  0  0  0  0  0  0  0  0
   -6.0060    3.9971  -20.5578 O   0  0  0  0  0  0  0  0  0  0  0  0
   -4.0868    5.2236  -20.7138 C   0  0  0  0  0  0  0  0  0  0  0  0
   -4.2981    5.5575  -22.0483 C   0  0  0  0  0  0  0  0  0  0  0  0
   -3.2242    6.0081  -22.7675 C   0  0  0  0  0  0  0  0  0  0  0  0
   -2.0025    6.1860  -22.2356 N   0  0  0  0  0  0  0  0  0  0  0  0
   -1.7881    5.8816  -20.9425 C   0  0  0  0  0  0  0  0  0  0  0  0
   -0.5219    6.1352  -20.4013 C   0  0  0  0  0  0  0  0  0  0  0  0
    0.5758    6.6812  -21.2773 C   0  0  0  0  0  0  0  0  0  0  0  0
   -0.2633    5.9147  -19.0439 C   0  0  0  0  0  0  0  0  0  0  0  0
   -1.2433    5.3660  -18.2354 C   0  0  0  0  0  0  0  0  0  0  0  0
   -2.4729    5.0137  -18.7807 C   0  0  0  0  0  0  0  0  0  0  0  0
   -2.8037    5.3515  -20.1181 C   0  0  0  0  0  0  0  0  0  0  0  0
   -7.6264    4.7258  -17.7667 C   0  0  0  0  0  0  0  0  0  0  0  0
   -8.1730    4.7511  -18.9865 N   0  0  0  0  0  0  0  0  0  0  0  0
   -9.4887    4.5334  -19.1281 C   0  0  0  0  0  0  0  0  0  0  0  0
  -10.3169    4.2207  -18.0825 C   0  0  0  0  0  0  0  0  0  0  0  0
   -9.7422    4.1286  -16.8326 C   0  0  0  0  0  0  0  0  0  0  0  0
   -8.4092    4.4340  -16.6415 C   0  0  0  0  0  0  0  0  0  0  0  0
   -7.8969    4.4843  -15.3411 C   0  0  0  0  0  0  0  0  0  0  0  0
  1  2  1  0
  2  3  1  0
  3  4  2  0
  3  5  1  0
  5  6  2  0
  6  7  1  0
  7  8  1  0
  8  9  1  0
  9 10  2  0
  9 11  1  0
 11 12  2  0
 12 13  1  0
 13 14  2  0
 14 15  1  0
 15 16  2  0
 16 17  1  0
 16 18  1  0
 18 19  2  0
 19 20  1  0
 20 21  2  0
  7 22  2  0
 22 23  1  0
 23 24  2  0
 24 25  1  0
 25 26  2  0
 26 27  1  0
 27 28  2  0
 28  5  1  0
 21 11  1  0
 27 22  1  0
 21 15  1  0
M  END
>  <fragmenstein_outcome>  (284) 
nan

>  <exports>  (284) 
['/opt/xchem-fragalysis-2/maxwin/openbind-hippo/xx01zvns2b/cycle_01/syndirella/elabs/openbind_xx01zvns2b_c1_elab_chemspace_filtered.sdf']

>  <Energy>  (284) 
nan

>  <alias>  (284) 
None

>  <fragmenstein_runtime>  (284) 
nan

>  <scratch_subdir>  (284) 
nan

>  <HIPPO Compound ID>  (284) 
142132

>  <rmsd(smina/fragmenstein)>  (284) 
1.368

>  <distance_score>  (284) 
1.607728

>  <orig_smiles>  (284) 
nan

>  <fragmenstein_mode>  (284) 
nan

>  <inchikey>  (284) 
ASRIXLBYSMYPAS-UHFFFAOYSA-N

>  <ref_pdb>  (284) 
Z0852a

>  <GNINA pK>  (284) 
nan

>  <gnina_score_min>  (284) 
5.927

>  <tags>  (284) 
openbind_xx01zvns2b_c1_elab_nonasap_filtered_scored_top80percent,openbind_xx01zvns2b_c1_elab_chemspace_filtered_scored_top80percent,openbind_xx01zvns2b_c1_elab_chemspace_filtered_scored,openbind_xx01zvns2b_c1_elab_chemspace_filtered_scored_top40percent,openbind_xx01zvns2b_c1_elab_chemspace_filtered_scored_top20percent,openbind_xx01zvns2b_c1_elab_chemspace_filtered_scored_top60percent,openbind_xx01zvns2b_c1_elabs_filtered

>  <smiles>  (284) 
COC(=O)c1cc(NC(=O)c2ccnc3c(C)cccc23)c2ncccc2c1

>  <subsites>  (284) 
1 - Z4590/B/203/1

>  <gnina_score>  (284) 
5.798

>  <HIPPO Pose ID>  (284) 
70226

>  <ref_mols>  (284) 
Z0917a,Z0852a

>  <energy_score>  (284) 
-6.293052

>  <inspiration_score>  (284) 
None

>  <smina_score_min>  (284) 
-6.216

>  <fragmenstein_error>  (284) 
nan

>  <name>  (284) 
P70226

$$$$
P70227
     RDKit          3D

 28 31  0  0  0  0  0  0  0  0999 V2000
   -6.0666    6.2164  -13.3031 C   0  0  0  0  0  0  0  0  0  0  0  0
   -7.4245    5.6479  -13.7256 C   0  0  0  0  0  0  0  0  0  0  0  0
   -8.4229    6.8059  -13.6213 C   0  0  0  0  0  0  0  0  0  0  0  0
   -7.8417    4.5616  -12.7177 C   0  0  0  0  0  0  0  0  0  0  0  0
   -7.4583    5.1274  -15.1630 C   0  0  0  0  0  0  0  0  0  0  0  0
   -6.4383    5.3059  -16.1153 C   0  0  0  0  0  0  0  0  0  0  0  0
   -6.6354    4.9809  -17.4739 C   0  0  0  0  0  0  0  0  0  0  0  0
   -5.5675    5.1893  -18.3607 N   0  0  0  0  0  0  0  0  0  0  0  0
   -5.3377    4.6626  -19.8089 C   0  0  0  0  0  0  0  0  0  0  0  0
   -5.9669    3.9129  -20.4531 O   0  0  0  0  0  0  0  0  0  0  0  0
   -4.1108    5.2089  -20.4436 C   0  0  0  0  0  0  0  0  0  0  0  0
   -4.2539    5.5228  -21.7975 C   0  0  0  0  0  0  0  0  0  0  0  0
   -3.1585    5.9999  -22.4698 C   0  0  0  0  0  0  0  0  0  0  0  0
   -1.9706    6.2192  -21.8796 N   0  0  0  0  0  0  0  0  0  0  0  0
   -1.8288    5.9224  -20.5799 C   0  0  0  0  0  0  0  0  0  0  0  0
   -0.6003    6.2024  -20.0042 C   0  0  0  0  0  0  0  0  0  0  0  0
   -0.3705    5.9801  -18.6532 C   0  0  0  0  0  0  0  0  0  0  0  0
    1.1490    6.3840  -17.9560 Cl  0  0  0  0  0  0  0  0  0  0  0  0
   -1.3624    5.4205  -17.8640 C   0  0  0  0  0  0  0  0  0  0  0  0
   -2.5775    5.0557  -18.4399 C   0  0  0  0  0  0  0  0  0  0  0  0
   -2.8657    5.3768  -19.7908 C   0  0  0  0  0  0  0  0  0  0  0  0
   -7.8949    4.5824  -17.9133 C   0  0  0  0  0  0  0  0  0  0  0  0
   -8.2272    4.5392  -19.2025 N   0  0  0  0  0  0  0  0  0  0  0  0
   -9.5250    4.5193  -19.5303 C   0  0  0  0  0  0  0  0  0  0  0  0
  -10.5401    4.4190  -18.6255 C   0  0  0  0  0  0  0  0  0  0  0  0
  -10.1810    4.1864  -17.3380 C   0  0  0  0  0  0  0  0  0  0  0  0
   -8.8806    4.3835  -16.9475 C   0  0  0  0  0  0  0  0  0  0  0  0
   -8.6471    4.5542  -15.5995 C   0  0  0  0  0  0  0  0  0  0  0  0
  1  2  1  0
  2  3  1  0
  2  4  1  0
  2  5  1  0
  5  6  2  0
  6  7  1  0
  7  8  1  0
  8  9  1  0
  9 10  2  0
  9 11  1  0
 11 12  2  0
 12 13  1  0
 13 14  2  0
 14 15  1  0
 15 16  2  0
 16 17  1  0
 17 18  1  0
 17 19  2  0
 19 20  1  0
 20 21  2  0
  7 22  2  0
 22 23  1  0
 23 24  2  0
 24 25  1  0
 25 26  2  0
 26 27  1  0
 27 28  2  0
 28  5  1  0
 21 11  1  0
 27 22  1  0
 21 15  1  0
M  END
>  <fragmenstein_outcome>  (285) 
nan

>  <exports>  (285) 
['/opt/xchem-fragalysis-2/maxwin/openbind-hippo/xx01zvns2b/cycle_01/syndirella/elabs/openbind_xx01zvns2b_c1_elab_chemspace_filtered.sdf']

>  <Energy>  (285) 
nan

>  <alias>  (285) 
None

>  <fragmenstein_runtime>  (285) 
nan

>  <scratch_subdir>  (285) 
nan

>  <HIPPO Compound ID>  (285) 
142135

>  <rmsd(smina/fragmenstein)>  (285) 
1.608

>  <distance_score>  (285) 
1.274878

>  <orig_smiles>  (285) 
nan

>  <fragmenstein_mode>  (285) 
nan

>  <inchikey>  (285) 
DCTYFMWZGWEJLK-UHFFFAOYSA-N

>  <ref_pdb>  (285) 
Z0852a

>  <GNINA pK>  (285) 
nan

>  <gnina_score_min>  (285) 
6.337

>  <tags>  (285) 
openbind_xx01zvns2b_c1_elab_nonasap_filtered_scored_top80percent,openbind_xx01zvns2b_c1_elab_chemspace_filtered_scored_top80percent,openbind_xx01zvns2b_c1_elab_chemspace_filtered_scored,openbind_xx01zvns2b_c1_elab_chemspace_filtered_scored_top40percent,openbind_xx01zvns2b_c1_elab_chemspace_filtered_scored_top20percent,openbind_xx01zvns2b_c1_elab_chemspace_filtered_scored_top60percent,openbind_xx01zvns2b_c1_elabs_filtered

>  <smiles>  (285) 
CC(C)(C)c1cc(NC(=O)c2ccnc3cc(Cl)ccc23)c2ncccc2c1

>  <subsites>  (285) 
1 - Z4590/B/203/1

>  <gnina_score>  (285) 
5.706

>  <HIPPO Pose ID>  (285) 
70227

>  <ref_mols>  (285) 
Z0917a,Z0852a

>  <energy_score>  (285) 
-12.50285

>  <inspiration_score>  (285) 
None

>  <smina_score_min>  (285) 
-6.58

>  <fragmenstein_error>  (285) 
nan

>  <name>  (285) 
P70227

$$$$
P70228
     RDKit          3D

 28 31  0  0  0  0  0  0  0  0999 V2000
   -6.5280    4.9356  -11.4546 C   0  0  0  0  0  0  0  0  0  0  0  0
   -6.9979    4.8511  -12.8001 O   0  0  0  0  0  0  0  0  0  0  0  0
   -6.0367    5.0247  -13.7391 C   0  0  0  0  0  0  0  0  0  0  0  0
   -4.8595    5.2696  -13.5254 O   0  0  0  0  0  0  0  0  0  0  0  0
   -6.6116    4.9057  -15.1041 C   0  0  0  0  0  0  0  0  0  0  0  0
   -5.7985    5.2029  -16.1983 C   0  0  0  0  0  0  0  0  0  0  0  0
   -6.2733    5.0575  -17.5110 C   0  0  0  0  0  0  0  0  0  0  0  0
   -5.3368    5.2834  -18.5212 N   0  0  0  0  0  0  0  0  0  0  0  0
   -5.2647    4.7324  -19.9701 C   0  0  0  0  0  0  0  0  0  0  0  0
   -5.9354    3.9446  -20.5161 O   0  0  0  0  0  0  0  0  0  0  0  0
   -4.0810    5.2502  -20.7031 C   0  0  0  0  0  0  0  0  0  0  0  0
   -4.3307    5.5973  -22.0303 C   0  0  0  0  0  0  0  0  0  0  0  0
   -3.2861    6.0831  -22.7753 C   0  0  0  0  0  0  0  0  0  0  0  0
   -2.0532    6.2876  -22.2772 N   0  0  0  0  0  0  0  0  0  0  0  0
   -1.8204    5.9660  -20.9895 C   0  0  0  0  0  0  0  0  0  0  0  0
   -0.5601    6.2654  -20.4801 C   0  0  0  0  0  0  0  0  0  0  0  0
    0.3733    6.8573  -21.2997 O   0  0  0  0  0  0  0  0  0  0  0  0
   -0.2048    6.0278  -19.1626 C   0  0  0  0  0  0  0  0  0  0  0  0
   -1.1248    5.4141  -18.3293 C   0  0  0  0  0  0  0  0  0  0  0  0
   -2.3761    5.0376  -18.8236 C   0  0  0  0  0  0  0  0  0  0  0  0
   -2.7844    5.3924  -20.1402 C   0  0  0  0  0  0  0  0  0  0  0  0
   -7.6016    4.7107  -17.7582 C   0  0  0  0  0  0  0  0  0  0  0  0
   -8.1281    4.7252  -18.9883 N   0  0  0  0  0  0  0  0  0  0  0  0
   -9.4443    4.5150  -19.1471 C   0  0  0  0  0  0  0  0  0  0  0  0
  -10.2929    4.2237  -18.1115 C   0  0  0  0  0  0  0  0  0  0  0  0
   -9.7395    4.1411  -16.8525 C   0  0  0  0  0  0  0  0  0  0  0  0
   -8.4080    4.4394  -16.6431 C   0  0  0  0  0  0  0  0  0  0  0  0
   -7.9218    4.5008  -15.3333 C   0  0  0  0  0  0  0  0  0  0  0  0
  1  2  1  0
  2  3  1  0
  3  4  2  0
  3  5  1  0
  5  6  2  0
  6  7  1  0
  7  8  1  0
  8  9  1  0
  9 10  2  0
  9 11  1  0
 11 12  2  0
 12 13  1  0
 13 14  2  0
 14 15  1  0
 15 16  2  0
 16 17  1  0
 16 18  1  0
 18 19  2  0
 19 20  1  0
 20 21  2  0
  7 22  2  0
 22 23  1  0
 23 24  2  0
 24 25  1  0
 25 26  2  0
 26 27  1  0
 27 28  2  0
 28  5  1  0
 21 11  1  0
 27 22  1  0
 21 15  1  0
M  END
>  <fragmenstein_outcome>  (286) 
nan

>  <exports>  (286) 
['/opt/xchem-fragalysis-2/maxwin/openbind-hippo/xx01zvns2b/cycle_01/syndirella/elabs/openbind_xx01zvns2b_c1_elab_chemspace_filtered.sdf']

>  <Energy>  (286) 
nan

>  <alias>  (286) 
None

>  <fragmenstein_runtime>  (286) 
nan

>  <scratch_subdir>  (286) 
nan

>  <HIPPO Compound ID>  (286) 
142136

>  <rmsd(smina/fragmenstein)>  (286) 
0.895

>  <distance_score>  (286) 
1.636525

>  <orig_smiles>  (286) 
nan

>  <fragmenstein_mode>  (286) 
nan

>  <inchikey>  (286) 
LSYFRVZPNQBRND-UHFFFAOYSA-N

>  <ref_pdb>  (286) 
Z0852a

>  <GNINA pK>  (286) 
nan

>  <gnina_score_min>  (286) 
5.773

>  <tags>  (286) 
openbind_xx01zvns2b_c1_elab_nonasap_filtered_scored_top80percent,openbind_xx01zvns2b_c1_elab_chemspace_filtered_scored_top80percent,openbind_xx01zvns2b_c1_elab_chemspace_filtered_scored,openbind_xx01zvns2b_c1_elab_chemspace_filtered_scored_top40percent,openbind_xx01zvns2b_c1_elab_chemspace_filtered_scored_top20percent,openbind_xx01zvns2b_c1_elab_chemspace_filtered_scored_top60percent,openbind_xx01zvns2b_c1_elabs_filtered

>  <smiles>  (286) 
COC(=O)c1cc(NC(=O)c2ccnc3c(O)cccc23)c2ncccc2c1

>  <subsites>  (286) 
1 - Z4590/B/203/1

>  <gnina_score>  (286) 
5.578

>  <HIPPO Pose ID>  (286) 
70228

>  <ref_mols>  (286) 
Z0917a,Z0852a

>  <energy_score>  (286) 
-32.519742

>  <inspiration_score>  (286) 
None

>  <smina_score_min>  (286) 
-6.431

>  <fragmenstein_error>  (286) 
nan

>  <name>  (286) 
P70228

$$$$
P70229
     RDKit          3D

 28 31  0  0  0  0  0  0  0  0999 V2000
   -5.9327    3.9553  -20.3491 O   0  0  0  0  0  0  0  0  0  0  0  0
   -5.3177    4.7401  -19.7341 C   0  0  0  0  0  0  0  0  0  0  0  0
   -5.6106    5.3918  -18.3490 N   0  0  0  0  0  0  0  0  0  0  0  0
   -6.6378    5.1466  -17.4269 C   0  0  0  0  0  0  0  0  0  0  0  0
   -6.4269    5.4772  -16.0761 C   0  0  0  0  0  0  0  0  0  0  0  0
   -7.4286    5.2488  -15.1152 C   0  0  0  0  0  0  0  0  0  0  0  0
   -7.3318    5.7476  -13.6999 C   0  0  0  0  0  0  0  0  0  0  0  0
   -8.4229    5.4425  -12.9394 F   0  0  0  0  0  0  0  0  0  0  0  0
   -6.2528    5.2658  -13.0349 F   0  0  0  0  0  0  0  0  0  0  0  0
   -7.2367    7.1074  -13.6525 F   0  0  0  0  0  0  0  0  0  0  0  0
   -8.6079    4.6390  -15.5105 C   0  0  0  0  0  0  0  0  0  0  0  0
   -8.8484    4.4462  -16.8572 C   0  0  0  0  0  0  0  0  0  0  0  0
  -10.1350    4.1633  -17.2362 C   0  0  0  0  0  0  0  0  0  0  0  0
  -10.5233    4.3514  -18.5261 C   0  0  0  0  0  0  0  0  0  0  0  0
   -9.5304    4.5274  -19.4452 C   0  0  0  0  0  0  0  0  0  0  0  0
   -8.2340    4.6326  -19.1276 N   0  0  0  0  0  0  0  0  0  0  0  0
   -7.8882    4.6910  -17.8419 C   0  0  0  0  0  0  0  0  0  0  0  0
   -4.0554    5.2168  -20.3508 C   0  0  0  0  0  0  0  0  0  0  0  0
   -4.1392    5.4746  -21.7224 C   0  0  0  0  0  0  0  0  0  0  0  0
   -3.0109    5.9115  -22.3699 C   0  0  0  0  0  0  0  0  0  0  0  0
   -1.8458    6.1487  -21.7403 N   0  0  0  0  0  0  0  0  0  0  0  0
   -1.7710    5.9015  -20.4158 C   0  0  0  0  0  0  0  0  0  0  0  0
   -0.5770    6.2091  -19.7688 C   0  0  0  0  0  0  0  0  0  0  0  0
    0.4670    6.7315  -20.4963 O   0  0  0  0  0  0  0  0  0  0  0  0
   -0.3890    6.0335  -18.4053 C   0  0  0  0  0  0  0  0  0  0  0  0
   -1.4118    5.4706  -17.6585 C   0  0  0  0  0  0  0  0  0  0  0  0
   -2.6008    5.0920  -18.2838 C   0  0  0  0  0  0  0  0  0  0  0  0
   -2.8365    5.3852  -19.6545 C   0  0  0  0  0  0  0  0  0  0  0  0
  1  2  2  0
  2  3  1  0
  3  4  1  0
  4  5  2  0
  5  6  1  0
  6  7  1  0
  7  8  1  0
  7  9  1  0
  7 10  1  0
  6 11  2  0
 11 12  1  0
 12 13  2  0
 13 14  1  0
 14 15  2  0
 15 16  1  0
 16 17  2  0
  2 18  1  0
 18 19  2  0
 19 20  1  0
 20 21  2  0
 21 22  1  0
 22 23  2  0
 23 24  1  0
 23 25  1  0
 25 26  2  0
 26 27  1  0
 27 28  2  0
 17  4  1  0
 28 18  1  0
 17 12  1  0
 28 22  1  0
M  END
>  <fragmenstein_outcome>  (287) 
nan

>  <exports>  (287) 
['/opt/xchem-fragalysis-2/maxwin/openbind-hippo/xx01zvns2b/cycle_01/syndirella/elabs/openbind_xx01zvns2b_c1_elab_chemspace_filtered.sdf']

>  <Energy>  (287) 
nan

>  <alias>  (287) 
None

>  <fragmenstein_runtime>  (287) 
nan

>  <scratch_subdir>  (287) 
nan

>  <HIPPO Compound ID>  (287) 
142137

>  <rmsd(smina/fragmenstein)>  (287) 
1.317

>  <distance_score>  (287) 
1.068314

>  <orig_smiles>  (287) 
nan

>  <fragmenstein_mode>  (287) 
nan

>  <inchikey>  (287) 
TVKABOPAPQWQRZ-UHFFFAOYSA-N

>  <ref_pdb>  (287) 
Z0852a

>  <GNINA pK>  (287) 
nan

>  <gnina_score_min>  (287) 
5.812

>  <tags>  (287) 
openbind_xx01zvns2b_c1_elab_nonasap_filtered_scored_top80percent,openbind_xx01zvns2b_c1_elab_chemspace_filtered_scored_top80percent,openbind_xx01zvns2b_c1_elab_chemspace_filtered_scored,openbind_xx01zvns2b_c1_elab_chemspace_filtered_scored_top40percent,openbind_xx01zvns2b_c1_elab_chemspace_filtered_scored_top20percent,openbind_xx01zvns2b_c1_elab_chemspace_filtered_scored_top60percent,openbind_xx01zvns2b_c1_elabs_filtered

>  <smiles>  (287) 
O=C(Nc1cc(C(F)(F)F)cc2cccnc12)c1ccnc2c(O)cccc12

>  <subsites>  (287) 
1 - Z4590/B/203/1

>  <gnina_score>  (287) 
5.335

>  <HIPPO Pose ID>  (287) 
70229

>  <ref_mols>  (287) 
Z0917a,Z0852a

>  <energy_score>  (287) 
-11.767016

>  <inspiration_score>  (287) 
None

>  <smina_score_min>  (287) 
-6.37

>  <fragmenstein_error>  (287) 
nan

>  <name>  (287) 
P70229

$$$$
P70230
     RDKit          3D

 28 31  0  0  0  0  0  0  0  0999 V2000
   -7.8481    4.5636  -12.7075 C   0  0  0  0  0  0  0  0  0  0  0  0
   -7.4392    5.6570  -13.7106 C   0  0  0  0  0  0  0  0  0  0  0  0
   -8.4471    6.8065  -13.6031 C   0  0  0  0  0  0  0  0  0  0  0  0
   -6.0861    6.2350  -13.2846 C   0  0  0  0  0  0  0  0  0  0  0  0
   -7.4672    5.1409  -15.1496 C   0  0  0  0  0  0  0  0  0  0  0  0
   -6.4467    5.3302  -16.0982 C   0  0  0  0  0  0  0  0  0  0  0  0
   -6.6401    5.0128  -17.4587 C   0  0  0  0  0  0  0  0  0  0  0  0
   -5.5753    5.2370  -18.3425 N   0  0  0  0  0  0  0  0  0  0  0  0
   -5.3183    4.6862  -19.7767 C   0  0  0  0  0  0  0  0  0  0  0  0
   -5.9175    3.9015  -20.4073 O   0  0  0  0  0  0  0  0  0  0  0  0
   -4.0793    5.2186  -20.3983 C   0  0  0  0  0  0  0  0  0  0  0  0
   -4.1981    5.5142  -21.7597 C   0  0  0  0  0  0  0  0  0  0  0  0
   -3.0944    5.9941  -22.4187 C   0  0  0  0  0  0  0  0  0  0  0  0
   -1.9213    6.2410  -21.8084 N   0  0  0  0  0  0  0  0  0  0  0  0
   -1.8127    5.9608  -20.4933 C   0  0  0  0  0  0  0  0  0  0  0  0
   -0.6114    6.2836  -19.8676 C   0  0  0  0  0  0  0  0  0  0  0  0
    0.3989    6.8551  -20.6063 O   0  0  0  0  0  0  0  0  0  0  0  0
   -0.3848    6.0785  -18.5148 C   0  0  0  0  0  0  0  0  0  0  0  0
   -1.3745    5.4704  -17.7599 C   0  0  0  0  0  0  0  0  0  0  0  0
   -2.5683    5.0750  -18.3666 C   0  0  0  0  0  0  0  0  0  0  0  0
   -2.8480    5.3979  -19.7230 C   0  0  0  0  0  0  0  0  0  0  0  0
   -7.8940    4.6027  -17.9040 C   0  0  0  0  0  0  0  0  0  0  0  0
   -8.2200    4.5519  -19.1952 N   0  0  0  0  0  0  0  0  0  0  0  0
   -9.5167    4.5196  -19.5270 C   0  0  0  0  0  0  0  0  0  0  0  0
  -10.5339    4.4159  -18.6249 C   0  0  0  0  0  0  0  0  0  0  0  0
  -10.1781    4.1877  -17.3357 C   0  0  0  0  0  0  0  0  0  0  0  0
   -8.8804    4.3938  -16.9410 C   0  0  0  0  0  0  0  0  0  0  0  0
   -8.6514    4.5624  -15.5916 C   0  0  0  0  0  0  0  0  0  0  0  0
  1  2  1  0
  2  3  1  0
  2  4  1  0
  2  5  1  0
  5  6  2  0
  6  7  1  0
  7  8  1  0
  8  9  1  0
  9 10  2  0
  9 11  1  0
 11 12  2  0
 12 13  1  0
 13 14  2  0
 14 15  1  0
 15 16  2  0
 16 17  1  0
 16 18  1  0
 18 19  2  0
 19 20  1  0
 20 21  2  0
  7 22  2  0
 22 23  1  0
 23 24  2  0
 24 25  1  0
 25 26  2  0
 26 27  1  0
 27 28  2  0
 28  5  1  0
 21 11  1  0
 27 22  1  0
 21 15  1  0
M  END
>  <fragmenstein_outcome>  (288) 
nan

>  <exports>  (288) 
['/opt/xchem-fragalysis-2/maxwin/openbind-hippo/xx01zvns2b/cycle_01/syndirella/elabs/openbind_xx01zvns2b_c1_elab_chemspace_filtered.sdf']

>  <Energy>  (288) 
nan

>  <alias>  (288) 
None

>  <fragmenstein_runtime>  (288) 
nan

>  <scratch_subdir>  (288) 
nan

>  <HIPPO Compound ID>  (288) 
142138

>  <rmsd(smina/fragmenstein)>  (288) 
1.193

>  <distance_score>  (288) 
1.282318

>  <orig_smiles>  (288) 
nan

>  <fragmenstein_mode>  (288) 
nan

>  <inchikey>  (288) 
RRLGUMQTSVQUJZ-UHFFFAOYSA-N

>  <ref_pdb>  (288) 
Z0852a

>  <GNINA pK>  (288) 
nan

>  <gnina_score_min>  (288) 
6.174

>  <tags>  (288) 
openbind_xx01zvns2b_c1_elab_nonasap_filtered_scored_top80percent,openbind_xx01zvns2b_c1_elab_chemspace_filtered_scored_top80percent,openbind_xx01zvns2b_c1_elab_chemspace_filtered_scored,openbind_xx01zvns2b_c1_elab_chemspace_filtered_scored_top40percent,openbind_xx01zvns2b_c1_elab_chemspace_filtered_scored_top20percent,openbind_xx01zvns2b_c1_elab_chemspace_filtered_scored_top60percent,openbind_xx01zvns2b_c1_elabs_filtered

>  <smiles>  (288) 
CC(C)(C)c1cc(NC(=O)c2ccnc3c(O)cccc23)c2ncccc2c1

>  <subsites>  (288) 
1 - Z4590/B/203/1

>  <gnina_score>  (288) 
5.48

>  <HIPPO Pose ID>  (288) 
70230

>  <ref_mols>  (288) 
Z0917a,Z0852a

>  <energy_score>  (288) 
-30.950159

>  <inspiration_score>  (288) 
None

>  <smina_score_min>  (288) 
-6.702

>  <fragmenstein_error>  (288) 
nan

>  <name>  (288) 
P70230

$$$$
P70231
     RDKit          3D

 28 31  0  0  0  0  0  0  0  0999 V2000
   -6.3707    4.8995  -11.5113 C   0  0  0  0  0  0  0  0  0  0  0  0
   -6.8806    4.8227  -12.8427 O   0  0  0  0  0  0  0  0  0  0  0  0
   -5.9525    5.0308  -13.8078 C   0  0  0  0  0  0  0  0  0  0  0  0
   -4.7744    5.2960  -13.6258 O   0  0  0  0  0  0  0  0  0  0  0  0
   -6.5657    4.9203  -15.1567 C   0  0  0  0  0  0  0  0  0  0  0  0
   -5.7902    5.2512  -16.2690 C   0  0  0  0  0  0  0  0  0  0  0  0
   -6.3000    5.1130  -17.5682 C   0  0  0  0  0  0  0  0  0  0  0  0
   -5.4160    5.3907  -18.6127 N   0  0  0  0  0  0  0  0  0  0  0  0
   -5.3037    4.7686  -20.0308 C   0  0  0  0  0  0  0  0  0  0  0  0
   -5.9822    3.9827  -20.5701 O   0  0  0  0  0  0  0  0  0  0  0  0
   -4.0982    5.2563  -20.7461 C   0  0  0  0  0  0  0  0  0  0  0  0
   -4.3139    5.6218  -22.0741 C   0  0  0  0  0  0  0  0  0  0  0  0
   -3.2477    6.1092  -22.7974 C   0  0  0  0  0  0  0  0  0  0  0  0
   -3.4152    6.5060  -24.2325 C   0  0  0  0  0  0  0  0  0  0  0  0
   -2.0224    6.2631  -22.2557 N   0  0  0  0  0  0  0  0  0  0  0  0
   -1.8165    5.9220  -20.9754 C   0  0  0  0  0  0  0  0  0  0  0  0
   -0.5587    6.1730  -20.4491 C   0  0  0  0  0  0  0  0  0  0  0  0
   -0.2586    5.9266  -19.1127 C   0  0  0  0  0  0  0  0  0  0  0  0
   -1.2208    5.3564  -18.2971 C   0  0  0  0  0  0  0  0  0  0  0  0
   -2.4620    5.0087  -18.8256 C   0  0  0  0  0  0  0  0  0  0  0  0
   -2.8158    5.3708  -20.1529 C   0  0  0  0  0  0  0  0  0  0  0  0
   -7.6252    4.7374  -17.7812 C   0  0  0  0  0  0  0  0  0  0  0  0
   -8.1799    4.7570  -18.9972 N   0  0  0  0  0  0  0  0  0  0  0  0
   -9.4958    4.5350  -19.1287 C   0  0  0  0  0  0  0  0  0  0  0  0
  -10.3156    4.2203  -18.0768 C   0  0  0  0  0  0  0  0  0  0  0  0
   -9.7321    4.1315  -16.8303 C   0  0  0  0  0  0  0  0  0  0  0  0
   -8.3983    4.4415  -16.6497 C   0  0  0  0  0  0  0  0  0  0  0  0
   -7.8757    4.4953  -15.3534 C   0  0  0  0  0  0  0  0  0  0  0  0
  1  2  1  0
  2  3  1  0
  3  4  2  0
  3  5  1  0
  5  6  2  0
  6  7  1  0
  7  8  1  0
  8  9  1  0
  9 10  2  0
  9 11  1  0
 11 12  2  0
 12 13  1  0
 13 14  1  0
 13 15  2  0
 15 16  1  0
 16 17  2  0
 17 18  1  0
 18 19  2  0
 19 20  1  0
 20 21  2  0
  7 22  2  0
 22 23  1  0
 23 24  2  0
 24 25  1  0
 25 26  2  0
 26 27  1  0
 27 28  2  0
 28  5  1  0
 21 11  1  0
 27 22  1  0
 21 16  1  0
M  END
>  <fragmenstein_outcome>  (289) 
nan

>  <exports>  (289) 
['/opt/xchem-fragalysis-2/maxwin/openbind-hippo/xx01zvns2b/cycle_01/syndirella/elabs/openbind_xx01zvns2b_c1_elab_chemspace_filtered.sdf']

>  <Energy>  (289) 
nan

>  <alias>  (289) 
None

>  <fragmenstein_runtime>  (289) 
nan

>  <scratch_subdir>  (289) 
nan

>  <HIPPO Compound ID>  (289) 
142139

>  <rmsd(smina/fragmenstein)>  (289) 
1.571

>  <distance_score>  (289) 
1.671191

>  <orig_smiles>  (289) 
nan

>  <fragmenstein_mode>  (289) 
nan

>  <inchikey>  (289) 
KSLVNGSWIMPHEI-UHFFFAOYSA-N

>  <ref_pdb>  (289) 
Z0852a

>  <GNINA pK>  (289) 
nan

>  <gnina_score_min>  (289) 
5.92

>  <tags>  (289) 
openbind_xx01zvns2b_c1_elab_nonasap_filtered_scored_top80percent,openbind_xx01zvns2b_c1_elab_chemspace_filtered_scored_top80percent,openbind_xx01zvns2b_c1_elab_chemspace_filtered_scored,openbind_xx01zvns2b_c1_elab_chemspace_filtered_scored_top40percent,openbind_xx01zvns2b_c1_elab_chemspace_filtered_scored_top20percent,openbind_xx01zvns2b_c1_elab_chemspace_filtered_scored_top60percent,openbind_xx01zvns2b_c1_elabs_filtered

>  <smiles>  (289) 
COC(=O)c1cc(NC(=O)c2cc(C)nc3ccccc23)c2ncccc2c1

>  <subsites>  (289) 
1 - Z4590/B/203/1

>  <gnina_score>  (289) 
5.756

>  <HIPPO Pose ID>  (289) 
70231

>  <ref_mols>  (289) 
Z0917a,Z0852a

>  <energy_score>  (289) 
-22.879814

>  <inspiration_score>  (289) 
None

>  <smina_score_min>  (289) 
-6.402

>  <fragmenstein_error>  (289) 
nan

>  <name>  (289) 
P70231

$$$$
P70234
     RDKit          3D

 28 31  0  0  0  0  0  0  0  0999 V2000
   -6.0628    4.7093  -13.0845 C   0  0  0  0  0  0  0  0  0  0  0  0
   -7.2197    5.4677  -13.7418 C   0  0  0  0  0  0  0  0  0  0  0  0
   -6.9069    6.9666  -13.7874 C   0  0  0  0  0  0  0  0  0  0  0  0
   -8.4620    5.3009  -12.8393 C   0  0  0  0  0  0  0  0  0  0  0  0
   -7.4108    5.0028  -15.1831 C   0  0  0  0  0  0  0  0  0  0  0  0
   -6.4069    5.1763  -16.1555 C   0  0  0  0  0  0  0  0  0  0  0  0
   -6.6376    4.9147  -17.5161 C   0  0  0  0  0  0  0  0  0  0  0  0
   -5.5703    5.1430  -18.3912 N   0  0  0  0  0  0  0  0  0  0  0  0
   -5.3285    4.6392  -19.8409 C   0  0  0  0  0  0  0  0  0  0  0  0
   -5.9472    3.8936  -20.4983 O   0  0  0  0  0  0  0  0  0  0  0  0
   -4.0652    5.1673  -20.4321 C   0  0  0  0  0  0  0  0  0  0  0  0
   -4.1457    5.4246  -21.8031 C   0  0  0  0  0  0  0  0  0  0  0  0
   -3.0282    5.8952  -22.4423 C   0  0  0  0  0  0  0  0  0  0  0  0
   -1.8780    6.1707  -21.8042 N   0  0  0  0  0  0  0  0  0  0  0  0
   -1.7980    5.9398  -20.4866 C   0  0  0  0  0  0  0  0  0  0  0  0
   -0.6176    6.3088  -19.8560 C   0  0  0  0  0  0  0  0  0  0  0  0
   -0.4520    6.2039  -18.4756 C   0  0  0  0  0  0  0  0  0  0  0  0
   -1.4644    5.6410  -17.7196 C   0  0  0  0  0  0  0  0  0  0  0  0
   -1.3402    5.6102  -16.0022 Cl  0  0  0  0  0  0  0  0  0  0  0  0
   -2.6125    5.1540  -18.3419 C   0  0  0  0  0  0  0  0  0  0  0  0
   -2.8532    5.3937  -19.7243 C   0  0  0  0  0  0  0  0  0  0  0  0
   -7.9081    4.5543  -17.9418 C   0  0  0  0  0  0  0  0  0  0  0  0
   -8.2515    4.5347  -19.2281 N   0  0  0  0  0  0  0  0  0  0  0  0
   -9.5533    4.5377  -19.5387 C   0  0  0  0  0  0  0  0  0  0  0  0
  -10.5604    4.4364  -18.6244 C   0  0  0  0  0  0  0  0  0  0  0  0
  -10.1909    4.1906  -17.3415 C   0  0  0  0  0  0  0  0  0  0  0  0
   -8.8843    4.3639  -16.9603 C   0  0  0  0  0  0  0  0  0  0  0  0
   -8.6290    4.5011  -15.6075 C   0  0  0  0  0  0  0  0  0  0  0  0
  1  2  1  0
  2  3  1  0
  2  4  1  0
  2  5  1  0
  5  6  2  0
  6  7  1  0
  7  8  1  0
  8  9  1  0
  9 10  2  0
  9 11  1  0
 11 12  2  0
 12 13  1  0
 13 14  2  0
 14 15  1  0
 15 16  2  0
 16 17  1  0
 17 18  2  0
 18 19  1  0
 18 20  1  0
 20 21  2  0
  7 22  2  0
 22 23  1  0
 23 24  2  0
 24 25  1  0
 25 26  2  0
 26 27  1  0
 27 28  2  0
 28  5  1  0
 21 11  1  0
 27 22  1  0
 21 15  1  0
M  END
>  <fragmenstein_outcome>  (290) 
nan

>  <exports>  (290) 
['/opt/xchem-fragalysis-2/maxwin/openbind-hippo/xx01zvns2b/cycle_01/syndirella/elabs/openbind_xx01zvns2b_c1_elab_chemspace_filtered.sdf']

>  <Energy>  (290) 
nan

>  <alias>  (290) 
None

>  <fragmenstein_runtime>  (290) 
nan

>  <scratch_subdir>  (290) 
nan

>  <HIPPO Compound ID>  (290) 
142143

>  <rmsd(smina/fragmenstein)>  (290) 
1.911

>  <distance_score>  (290) 
1.347128

>  <orig_smiles>  (290) 
nan

>  <fragmenstein_mode>  (290) 
nan

>  <inchikey>  (290) 
NGIQFRYAGQSZDN-UHFFFAOYSA-N

>  <ref_pdb>  (290) 
Z0852a

>  <GNINA pK>  (290) 
nan

>  <gnina_score_min>  (290) 
6.389

>  <tags>  (290) 
openbind_xx01zvns2b_c1_elab_nonasap_filtered_scored_top80percent,openbind_xx01zvns2b_c1_elab_chemspace_filtered_scored_top80percent,openbind_xx01zvns2b_c1_elab_chemspace_filtered_scored,openbind_xx01zvns2b_c1_elab_chemspace_filtered_scored_top40percent,openbind_xx01zvns2b_c1_elab_chemspace_filtered_scored_top20percent,openbind_xx01zvns2b_c1_elab_chemspace_filtered_scored_top60percent,openbind_xx01zvns2b_c1_elabs_filtered

>  <smiles>  (290) 
CC(C)(C)c1cc(NC(=O)c2ccnc3ccc(Cl)cc23)c2ncccc2c1

>  <subsites>  (290) 
1 - Z4590/B/203/1

>  <gnina_score>  (290) 
5.897

>  <HIPPO Pose ID>  (290) 
70234

>  <ref_mols>  (290) 
Z0917a,Z0852a

>  <energy_score>  (290) 
-14.691783

>  <inspiration_score>  (290) 
None

>  <smina_score_min>  (290) 
-6.678

>  <fragmenstein_error>  (290) 
nan

>  <name>  (290) 
P70234

$$$$
P70237
     RDKit          3D

 28 31  0  0  0  0  0  0  0  0999 V2000
   -3.1513    6.3702  -23.9542 C   0  0  0  0  0  0  0  0  0  0  0  0
   -3.1051    6.0191  -22.4989 C   0  0  0  0  0  0  0  0  0  0  0  0
   -4.2147    5.5064  -21.8642 C   0  0  0  0  0  0  0  0  0  0  0  0
   -4.1167    5.1675  -20.5119 C   0  0  0  0  0  0  0  0  0  0  0  0
   -5.3736    4.6416  -19.9138 C   0  0  0  0  0  0  0  0  0  0  0  0
   -6.0258    3.9297  -20.5776 O   0  0  0  0  0  0  0  0  0  0  0  0
   -5.6254    5.1975  -18.4812 N   0  0  0  0  0  0  0  0  0  0  0  0
   -6.6503    4.9243  -17.5670 C   0  0  0  0  0  0  0  0  0  0  0  0
   -6.3978    5.1818  -16.2089 C   0  0  0  0  0  0  0  0  0  0  0  0
   -7.3847    4.9920  -15.2188 C   0  0  0  0  0  0  0  0  0  0  0  0
   -7.1859    5.4610  -13.7788 C   0  0  0  0  0  0  0  0  0  0  0  0
   -6.8834    6.9618  -13.8279 C   0  0  0  0  0  0  0  0  0  0  0  0
   -8.4203    5.2886  -12.8639 C   0  0  0  0  0  0  0  0  0  0  0  0
   -6.0192    4.7106  -13.1307 C   0  0  0  0  0  0  0  0  0  0  0  0
   -8.6037    4.4751  -15.6229 C   0  0  0  0  0  0  0  0  0  0  0  0
   -8.8824    4.3458  -16.9707 C   0  0  0  0  0  0  0  0  0  0  0  0
  -10.1952    4.1695  -17.3287 C   0  0  0  0  0  0  0  0  0  0  0  0
  -10.5923    4.4311  -18.6007 C   0  0  0  0  0  0  0  0  0  0  0  0
   -9.6036    4.5606  -19.5312 C   0  0  0  0  0  0  0  0  0  0  0  0
   -8.2969    4.5529  -19.2450 N   0  0  0  0  0  0  0  0  0  0  0  0
   -7.9267    4.5540  -17.9673 C   0  0  0  0  0  0  0  0  0  0  0  0
   -2.8996    5.3380  -19.8103 C   0  0  0  0  0  0  0  0  0  0  0  0
   -2.6541    4.9953  -18.4543 C   0  0  0  0  0  0  0  0  0  0  0  0
   -1.4775    5.3832  -17.8177 C   0  0  0  0  0  0  0  0  0  0  0  0
   -0.4691    5.9900  -18.5475 C   0  0  0  0  0  0  0  0  0  0  0  0
   -0.6564    6.2216  -19.9082 C   0  0  0  0  0  0  0  0  0  0  0  0
   -1.8495    5.9191  -20.5473 C   0  0  0  0  0  0  0  0  0  0  0  0
   -1.9453    6.2356  -21.8475 N   0  0  0  0  0  0  0  0  0  0  0  0
  1  2  1  0
  2  3  2  0
  3  4  1  0
  4  5  1  0
  5  6  2  0
  5  7  1  0
  7  8  1  0
  8  9  2  0
  9 10  1  0
 10 11  1  0
 11 12  1  0
 11 13  1  0
 11 14  1  0
 10 15  2  0
 15 16  1  0
 16 17  2  0
 17 18  1  0
 18 19  2  0
 19 20  1  0
 20 21  2  0
  4 22  2  0
 22 23  1  0
 23 24  2  0
 24 25  1  0
 25 26  2  0
 26 27  1  0
 27 28  2  0
 28  2  1  0
 21  8  1  0
 27 22  1  0
 21 16  1  0
M  END
>  <fragmenstein_outcome>  (291) 
nan

>  <exports>  (291) 
['/opt/xchem-fragalysis-2/maxwin/openbind-hippo/xx01zvns2b/cycle_01/syndirella/elabs/openbind_xx01zvns2b_c1_elab_chemspace_filtered.sdf']

>  <Energy>  (291) 
nan

>  <alias>  (291) 
None

>  <fragmenstein_runtime>  (291) 
nan

>  <scratch_subdir>  (291) 
nan

>  <HIPPO Compound ID>  (291) 
142151

>  <rmsd(smina/fragmenstein)>  (291) 
1.623

>  <distance_score>  (291) 
1.269876

>  <orig_smiles>  (291) 
nan

>  <fragmenstein_mode>  (291) 
nan

>  <inchikey>  (291) 
COWOBABYUVYBBG-UHFFFAOYSA-N

>  <ref_pdb>  (291) 
Z0852a

>  <GNINA pK>  (291) 
nan

>  <gnina_score_min>  (291) 
6.373

>  <tags>  (291) 
openbind_xx01zvns2b_c1_elab_nonasap_filtered_scored_top80percent,openbind_xx01zvns2b_c1_elab_chemspace_filtered_scored_top80percent,openbind_xx01zvns2b_c1_elab_chemspace_filtered_scored,openbind_xx01zvns2b_c1_elab_chemspace_filtered_scored_top40percent,openbind_xx01zvns2b_c1_elab_chemspace_filtered_scored_top20percent,openbind_xx01zvns2b_c1_elab_chemspace_filtered_scored_top60percent,openbind_xx01zvns2b_c1_elabs_filtered

>  <smiles>  (291) 
Cc1cc(C(=O)Nc2cc(C(C)(C)C)cc3cccnc23)c2ccccc2n1

>  <subsites>  (291) 
1 - Z4590/B/203/1

>  <gnina_score>  (291) 
5.721

>  <HIPPO Pose ID>  (291) 
70237

>  <ref_mols>  (291) 
Z0917a,Z0852a

>  <energy_score>  (291) 
-8.136446

>  <inspiration_score>  (291) 
None

>  <smina_score_min>  (291) 
-6.611

>  <fragmenstein_error>  (291) 
nan

>  <name>  (291) 
P70237

$$$$
P70238
     RDKit          3D

 28 31  0  0  0  0  0  0  0  0999 V2000
   -5.9149    3.9711  -20.3234 O   0  0  0  0  0  0  0  0  0  0  0  0
   -5.2918    4.7349  -19.6909 C   0  0  0  0  0  0  0  0  0  0  0  0
   -5.5912    5.3790  -18.3053 N   0  0  0  0  0  0  0  0  0  0  0  0
   -6.6371    5.1495  -17.4031 C   0  0  0  0  0  0  0  0  0  0  0  0
   -6.4398    5.4924  -16.0535 C   0  0  0  0  0  0  0  0  0  0  0  0
   -7.4465    5.2634  -15.0994 C   0  0  0  0  0  0  0  0  0  0  0  0
   -7.3552    5.7602  -13.6836 C   0  0  0  0  0  0  0  0  0  0  0  0
   -8.4523    5.4589  -12.9301 F   0  0  0  0  0  0  0  0  0  0  0  0
   -7.2553    7.1197  -13.6346 F   0  0  0  0  0  0  0  0  0  0  0  0
   -6.2825    5.2735  -13.0125 F   0  0  0  0  0  0  0  0  0  0  0  0
   -8.6211    4.6492  -15.5018 C   0  0  0  0  0  0  0  0  0  0  0  0
   -8.8503    4.4493  -16.8498 C   0  0  0  0  0  0  0  0  0  0  0  0
  -10.1338    4.1658  -17.2386 C   0  0  0  0  0  0  0  0  0  0  0  0
  -10.5105    4.3489  -18.5324 C   0  0  0  0  0  0  0  0  0  0  0  0
   -9.5097    4.5154  -19.4446 C   0  0  0  0  0  0  0  0  0  0  0  0
   -8.2159    4.6221  -19.1165 N   0  0  0  0  0  0  0  0  0  0  0  0
   -7.8815    4.6877  -17.8278 C   0  0  0  0  0  0  0  0  0  0  0  0
   -4.0099    5.1954  -20.2885 C   0  0  0  0  0  0  0  0  0  0  0  0
   -4.0566    5.3830  -21.6734 C   0  0  0  0  0  0  0  0  0  0  0  0
   -2.9156    5.7977  -22.3099 C   0  0  0  0  0  0  0  0  0  0  0  0
   -1.7731    6.0770  -21.6591 N   0  0  0  0  0  0  0  0  0  0  0  0
   -1.7239    5.8989  -20.3305 C   0  0  0  0  0  0  0  0  0  0  0  0
   -0.5460    6.2515  -19.6857 C   0  0  0  0  0  0  0  0  0  0  0  0
   -0.4119    6.1870  -18.2984 C   0  0  0  0  0  0  0  0  0  0  0  0
   -1.4592    5.6860  -17.5448 C   0  0  0  0  0  0  0  0  0  0  0  0
   -1.3535    5.6929  -15.6557 Br  0  0  0  0  0  0  0  0  0  0  0  0
   -2.6141    5.2246  -18.1737 C   0  0  0  0  0  0  0  0  0  0  0  0
   -2.8096    5.4175  -19.5688 C   0  0  0  0  0  0  0  0  0  0  0  0
  1  2  2  0
  2  3  1  0
  3  4  1  0
  4  5  2  0
  5  6  1  0
  6  7  1  0
  7  8  1  0
  7  9  1  0
  7 10  1  0
  6 11  2  0
 11 12  1  0
 12 13  2  0
 13 14  1  0
 14 15  2  0
 15 16  1  0
 16 17  2  0
  2 18  1  0
 18 19  2  0
 19 20  1  0
 20 21  2  0
 21 22  1  0
 22 23  2  0
 23 24  1  0
 24 25  2  0
 25 26  1  0
 25 27  1  0
 27 28  2  0
 17  4  1  0
 28 18  1  0
 17 12  1  0
 28 22  1  0
M  END
>  <fragmenstein_outcome>  (292) 
nan

>  <exports>  (292) 
['/opt/xchem-fragalysis-2/maxwin/openbind-hippo/xx01zvns2b/cycle_01/syndirella/elabs/openbind_xx01zvns2b_c1_elab_chemspace_filtered.sdf']

>  <Energy>  (292) 
nan

>  <alias>  (292) 
None

>  <fragmenstein_runtime>  (292) 
nan

>  <scratch_subdir>  (292) 
nan

>  <HIPPO Compound ID>  (292) 
142152

>  <rmsd(smina/fragmenstein)>  (292) 
2.334

>  <distance_score>  (292) 
1.06622

>  <orig_smiles>  (292) 
nan

>  <fragmenstein_mode>  (292) 
nan

>  <inchikey>  (292) 
OQZQQBGCPYVSOE-UHFFFAOYSA-N

>  <ref_pdb>  (292) 
Z0852a

>  <GNINA pK>  (292) 
nan

>  <gnina_score_min>  (292) 
5.779

>  <tags>  (292) 
openbind_xx01zvns2b_c1_elab_nonasap_filtered_scored_top80percent,openbind_xx01zvns2b_c1_elab_chemspace_filtered_scored_top80percent,openbind_xx01zvns2b_c1_elab_chemspace_filtered_scored,openbind_xx01zvns2b_c1_elab_chemspace_filtered_scored_top40percent,openbind_xx01zvns2b_c1_elab_chemspace_filtered_scored_top20percent,openbind_xx01zvns2b_c1_elab_chemspace_filtered_scored_top60percent,openbind_xx01zvns2b_c1_elabs_filtered

>  <smiles>  (292) 
O=C(Nc1cc(C(F)(F)F)cc2cccnc12)c1ccnc2ccc(Br)cc12

>  <subsites>  (292) 
1 - Z4590/B/203/1

>  <gnina_score>  (292) 
5.751

>  <HIPPO Pose ID>  (292) 
70238

>  <ref_mols>  (292) 
Z0917a,Z0852a

>  <energy_score>  (292) 
-7.066314

>  <inspiration_score>  (292) 
None

>  <smina_score_min>  (292) 
-6.334

>  <fragmenstein_error>  (292) 
nan

>  <name>  (292) 
P70238

$$$$
P70239
     RDKit          3D

 28 31  0  0  0  0  0  0  0  0999 V2000
   -6.1147    4.8541  -13.2450 C   0  0  0  0  0  0  0  0  0  0  0  0
   -7.2685    5.7044  -13.7627 C   0  0  0  0  0  0  0  0  0  0  0  0
   -6.9254    7.2007  -13.6513 C   0  0  0  0  0  0  0  0  0  0  0  0
   -8.4854    5.4679  -12.8412 C   0  0  0  0  0  0  0  0  0  0  0  0
   -7.4837    5.3045  -15.2179 C   0  0  0  0  0  0  0  0  0  0  0  0
   -6.5035    5.5295  -16.2065 C   0  0  0  0  0  0  0  0  0  0  0  0
   -6.7099    5.1699  -17.5475 C   0  0  0  0  0  0  0  0  0  0  0  0
   -5.6602    5.3911  -18.4449 N   0  0  0  0  0  0  0  0  0  0  0  0
   -5.3526    4.7343  -19.8207 C   0  0  0  0  0  0  0  0  0  0  0  0
   -5.9711    3.9640  -20.4492 O   0  0  0  0  0  0  0  0  0  0  0  0
   -4.0514    5.1796  -20.3872 C   0  0  0  0  0  0  0  0  0  0  0  0
   -4.0639    5.3861  -21.7679 C   0  0  0  0  0  0  0  0  0  0  0  0
   -2.9018    5.7947  -22.3695 C   0  0  0  0  0  0  0  0  0  0  0  0
   -1.7716    6.0527  -21.6874 N   0  0  0  0  0  0  0  0  0  0  0  0
   -1.7579    5.8611  -20.3597 C   0  0  0  0  0  0  0  0  0  0  0  0
   -0.5966    6.2005  -19.6782 C   0  0  0  0  0  0  0  0  0  0  0  0
   -0.5042    6.1271  -18.2876 C   0  0  0  0  0  0  0  0  0  0  0  0
   -1.5760    5.6273  -17.5682 C   0  0  0  0  0  0  0  0  0  0  0  0
   -1.5337    5.6311  -15.6765 Br  0  0  0  0  0  0  0  0  0  0  0  0
   -2.7121    5.1742  -18.2345 C   0  0  0  0  0  0  0  0  0  0  0  0
   -2.8671    5.3811  -19.6332 C   0  0  0  0  0  0  0  0  0  0  0  0
   -7.9499    4.6941  -17.9442 C   0  0  0  0  0  0  0  0  0  0  0  0
   -8.2965    4.6064  -19.2245 N   0  0  0  0  0  0  0  0  0  0  0  0
   -9.5978    4.5427  -19.5237 C   0  0  0  0  0  0  0  0  0  0  0  0
  -10.5887    4.3971  -18.5964 C   0  0  0  0  0  0  0  0  0  0  0  0
  -10.1949    4.1890  -17.3146 C   0  0  0  0  0  0  0  0  0  0  0  0
   -8.9044    4.4700  -16.9509 C   0  0  0  0  0  0  0  0  0  0  0  0
   -8.6562    4.6812  -15.6090 C   0  0  0  0  0  0  0  0  0  0  0  0
  1  2  1  0
  2  3  1  0
  2  4  1  0
  2  5  1  0
  5  6  2  0
  6  7  1  0
  7  8  1  0
  8  9  1  0
  9 10  2  0
  9 11  1  0
 11 12  2  0
 12 13  1  0
 13 14  2  0
 14 15  1  0
 15 16  2  0
 16 17  1  0
 17 18  2  0
 18 19  1  0
 18 20  1  0
 20 21  2  0
  7 22  2  0
 22 23  1  0
 23 24  2  0
 24 25  1  0
 25 26  2  0
 26 27  1  0
 27 28  2  0
 28  5  1  0
 21 11  1  0
 27 22  1  0
 21 15  1  0
M  END
>  <fragmenstein_outcome>  (293) 
nan

>  <exports>  (293) 
['/opt/xchem-fragalysis-2/maxwin/openbind-hippo/xx01zvns2b/cycle_01/syndirella/elabs/openbind_xx01zvns2b_c1_elab_chemspace_filtered.sdf']

>  <Energy>  (293) 
nan

>  <alias>  (293) 
None

>  <fragmenstein_runtime>  (293) 
nan

>  <scratch_subdir>  (293) 
nan

>  <HIPPO Compound ID>  (293) 
142153

>  <rmsd(smina/fragmenstein)>  (293) 
2.083

>  <distance_score>  (293) 
1.322019

>  <orig_smiles>  (293) 
nan

>  <fragmenstein_mode>  (293) 
nan

>  <inchikey>  (293) 
JMKDIZLHFVPONB-UHFFFAOYSA-N

>  <ref_pdb>  (293) 
Z0852a

>  <GNINA pK>  (293) 
nan

>  <gnina_score_min>  (293) 
6.388

>  <tags>  (293) 
openbind_xx01zvns2b_c1_elab_nonasap_filtered_scored_top80percent,openbind_xx01zvns2b_c1_elab_chemspace_filtered_scored_top80percent,openbind_xx01zvns2b_c1_elab_chemspace_filtered_scored,openbind_xx01zvns2b_c1_elab_chemspace_filtered_scored_top40percent,openbind_xx01zvns2b_c1_elab_chemspace_filtered_scored_top20percent,openbind_xx01zvns2b_c1_elab_chemspace_filtered_scored_top60percent,openbind_xx01zvns2b_c1_elabs_filtered

>  <smiles>  (293) 
CC(C)(C)c1cc(NC(=O)c2ccnc3ccc(Br)cc23)c2ncccc2c1

>  <subsites>  (293) 
1 - Z4590/B/203/1

>  <gnina_score>  (293) 
5.887

>  <HIPPO Pose ID>  (293) 
70239

>  <ref_mols>  (293) 
Z0917a,Z0852a

>  <energy_score>  (293) 
-10.952662

>  <inspiration_score>  (293) 
None

>  <smina_score_min>  (293) 
-6.482

>  <fragmenstein_error>  (293) 
nan

>  <name>  (293) 
P70239

$$$$
P70241
     RDKit          3D

 28 31  0  0  0  0  0  0  0  0999 V2000
   -6.0661    6.2116  -13.3057 C   0  0  0  0  0  0  0  0  0  0  0  0
   -7.4235    5.6411  -13.7272 C   0  0  0  0  0  0  0  0  0  0  0  0
   -8.4236    6.7978  -13.6206 C   0  0  0  0  0  0  0  0  0  0  0  0
   -7.8382    4.5532  -12.7202 C   0  0  0  0  0  0  0  0  0  0  0  0
   -7.4584    5.1233  -15.1656 C   0  0  0  0  0  0  0  0  0  0  0  0
   -6.4393    5.3023  -16.1184 C   0  0  0  0  0  0  0  0  0  0  0  0
   -6.6377    4.9785  -17.4771 C   0  0  0  0  0  0  0  0  0  0  0  0
   -5.5696    5.1865  -18.3634 N   0  0  0  0  0  0  0  0  0  0  0  0
   -5.3409    4.6622  -19.8126 C   0  0  0  0  0  0  0  0  0  0  0  0
   -5.9717    3.9149  -20.4583 O   0  0  0  0  0  0  0  0  0  0  0  0
   -4.1135    5.2087  -20.4461 C   0  0  0  0  0  0  0  0  0  0  0  0
   -4.2559    5.5237  -21.7998 C   0  0  0  0  0  0  0  0  0  0  0  0
   -3.1601    6.0009  -22.4714 C   0  0  0  0  0  0  0  0  0  0  0  0
   -1.9723    6.2192  -21.8809 N   0  0  0  0  0  0  0  0  0  0  0  0
   -1.8316    5.9216  -20.5808 C   0  0  0  0  0  0  0  0  0  0  0  0
   -0.6030    6.1997  -20.0038 C   0  0  0  0  0  0  0  0  0  0  0  0
   -0.3738    5.9758  -18.6521 C   0  0  0  0  0  0  0  0  0  0  0  0
    1.3006    6.4072  -17.8907 Br  0  0  0  0  0  0  0  0  0  0  0  0
   -1.3664    5.4178  -17.8630 C   0  0  0  0  0  0  0  0  0  0  0  0
   -2.5809    5.0547  -18.4412 C   0  0  0  0  0  0  0  0  0  0  0  0
   -2.8688    5.3763  -19.7924 C   0  0  0  0  0  0  0  0  0  0  0  0
   -7.8978    4.5815  -17.9159 C   0  0  0  0  0  0  0  0  0  0  0  0
   -8.2321    4.5413  -19.2050 N   0  0  0  0  0  0  0  0  0  0  0  0
   -9.5304    4.5228  -19.5304 C   0  0  0  0  0  0  0  0  0  0  0  0
  -10.5443    4.4200  -18.6246 C   0  0  0  0  0  0  0  0  0  0  0  0
  -10.1832    4.1847  -17.3382 C   0  0  0  0  0  0  0  0  0  0  0  0
   -8.8822    4.3812  -16.9493 C   0  0  0  0  0  0  0  0  0  0  0  0
   -8.6471    4.5497  -15.6015 C   0  0  0  0  0  0  0  0  0  0  0  0
  1  2  1  0
  2  3  1  0
  2  4  1  0
  2  5  1  0
  5  6  2  0
  6  7  1  0
  7  8  1  0
  8  9  1  0
  9 10  2  0
  9 11  1  0
 11 12  2  0
 12 13  1  0
 13 14  2  0
 14 15  1  0
 15 16  2  0
 16 17  1  0
 17 18  1  0
 17 19  2  0
 19 20  1  0
 20 21  2  0
  7 22  2  0
 22 23  1  0
 23 24  2  0
 24 25  1  0
 25 26  2  0
 26 27  1  0
 27 28  2  0
 28  5  1  0
 21 11  1  0
 27 22  1  0
 21 15  1  0
M  END
>  <fragmenstein_outcome>  (294) 
nan

>  <exports>  (294) 
['/opt/xchem-fragalysis-2/maxwin/openbind-hippo/xx01zvns2b/cycle_01/syndirella/elabs/openbind_xx01zvns2b_c1_elab_chemspace_filtered.sdf']

>  <Energy>  (294) 
nan

>  <alias>  (294) 
None

>  <fragmenstein_runtime>  (294) 
nan

>  <scratch_subdir>  (294) 
nan

>  <HIPPO Compound ID>  (294) 
142158

>  <rmsd(smina/fragmenstein)>  (294) 
1.327

>  <distance_score>  (294) 
1.322215

>  <orig_smiles>  (294) 
nan

>  <fragmenstein_mode>  (294) 
nan

>  <inchikey>  (294) 
QPIJCZGTOZPNGG-UHFFFAOYSA-N

>  <ref_pdb>  (294) 
Z0852a

>  <GNINA pK>  (294) 
nan

>  <gnina_score_min>  (294) 
6.363

>  <tags>  (294) 
openbind_xx01zvns2b_c1_elab_nonasap_filtered_scored_top80percent,openbind_xx01zvns2b_c1_elab_chemspace_filtered_scored_top80percent,openbind_xx01zvns2b_c1_elab_chemspace_filtered_scored,openbind_xx01zvns2b_c1_elab_chemspace_filtered_scored_top40percent,openbind_xx01zvns2b_c1_elab_chemspace_filtered_scored_top20percent,openbind_xx01zvns2b_c1_elab_chemspace_filtered_scored_top60percent,openbind_xx01zvns2b_c1_elabs_filtered

>  <smiles>  (294) 
CC(C)(C)c1cc(NC(=O)c2ccnc3cc(Br)ccc23)c2ncccc2c1

>  <subsites>  (294) 
1 - Z4590/B/203/1

>  <gnina_score>  (294) 
5.724

>  <HIPPO Pose ID>  (294) 
70241

>  <ref_mols>  (294) 
Z0917a,Z0852a

>  <energy_score>  (294) 
-9.907147

>  <inspiration_score>  (294) 
None

>  <smina_score_min>  (294) 
-6.558

>  <fragmenstein_error>  (294) 
nan

>  <name>  (294) 
P70241

$$$$
P70242
     RDKit          3D

 28 31  0  0  0  0  0  0  0  0999 V2000
   -6.3843    4.4054  -11.5279 C   0  0  0  0  0  0  0  0  0  0  0  0
   -6.8701    4.4865  -12.8681 O   0  0  0  0  0  0  0  0  0  0  0  0
   -5.9016    4.5948  -13.8090 C   0  0  0  0  0  0  0  0  0  0  0  0
   -4.7014    4.6793  -13.5998 O   0  0  0  0  0  0  0  0  0  0  0  0
   -6.4965    4.6082  -15.1707 C   0  0  0  0  0  0  0  0  0  0  0  0
   -5.6614    4.8421  -16.2631 C   0  0  0  0  0  0  0  0  0  0  0  0
   -6.1449    4.7934  -17.5839 C   0  0  0  0  0  0  0  0  0  0  0  0
   -5.1570    4.9770  -18.5637 N   0  0  0  0  0  0  0  0  0  0  0  0
   -5.1745    4.6637  -20.0856 C   0  0  0  0  0  0  0  0  0  0  0  0
   -5.9859    4.1339  -20.7417 O   0  0  0  0  0  0  0  0  0  0  0  0
   -3.8983    5.1070  -20.7276 C   0  0  0  0  0  0  0  0  0  0  0  0
   -2.6809    4.7995  -20.1179 C   0  0  0  0  0  0  0  0  0  0  0  0
   -2.6210    4.2173  -18.8819 O   0  0  0  0  0  0  0  0  0  0  0  0
   -1.5234    5.1086  -20.8008 C   0  0  0  0  0  0  0  0  0  0  0  0
   -1.5041    5.7106  -22.0061 N   0  0  0  0  0  0  0  0  0  0  0  0
   -2.6697    6.0304  -22.5826 C   0  0  0  0  0  0  0  0  0  0  0  0
   -2.6250    6.6656  -23.8178 C   0  0  0  0  0  0  0  0  0  0  0  0
   -3.7813    7.0683  -24.4871 C   0  0  0  0  0  0  0  0  0  0  0  0
   -5.0166    6.8388  -23.9062 C   0  0  0  0  0  0  0  0  0  0  0  0
   -5.0786    6.1987  -22.6691 C   0  0  0  0  0  0  0  0  0  0  0  0
   -3.9163    5.7658  -21.9863 C   0  0  0  0  0  0  0  0  0  0  0  0
   -7.5077    4.5831  -17.8291 C   0  0  0  0  0  0  0  0  0  0  0  0
   -8.0498    4.6269  -19.0517 N   0  0  0  0  0  0  0  0  0  0  0  0
   -9.3816    4.5091  -19.1984 C   0  0  0  0  0  0  0  0  0  0  0  0
  -10.2459    4.2946  -18.1577 C   0  0  0  0  0  0  0  0  0  0  0  0
   -9.6915    4.1861  -16.9032 C   0  0  0  0  0  0  0  0  0  0  0  0
   -8.3357    4.3750  -16.7092 C   0  0  0  0  0  0  0  0  0  0  0  0
   -7.8441    4.3658  -15.4012 C   0  0  0  0  0  0  0  0  0  0  0  0
  1  2  1  0
  2  3  1  0
  3  4  2  0
  3  5  1  0
  5  6  2  0
  6  7  1  0
  7  8  1  0
  8  9  1  0
  9 10  2  0
  9 11  1  0
 11 12  2  0
 12 13  1  0
 12 14  1  0
 14 15  2  0
 15 16  1  0
 16 17  2  0
 17 18  1  0
 18 19  2  0
 19 20  1  0
 20 21  2  0
  7 22  2  0
 22 23  1  0
 23 24  2  0
 24 25  1  0
 25 26  2  0
 26 27  1  0
 27 28  2  0
 28  5  1  0
 21 11  1  0
 27 22  1  0
 21 16  1  0
M  END
>  <fragmenstein_outcome>  (295) 
nan

>  <exports>  (295) 
['/opt/xchem-fragalysis-2/maxwin/openbind-hippo/xx01zvns2b/cycle_01/syndirella/elabs/openbind_xx01zvns2b_c1_elab_chemspace_filtered.sdf']

>  <Energy>  (295) 
nan

>  <alias>  (295) 
None

>  <fragmenstein_runtime>  (295) 
nan

>  <scratch_subdir>  (295) 
nan

>  <HIPPO Compound ID>  (295) 
142159

>  <rmsd(smina/fragmenstein)>  (295) 
1.146

>  <distance_score>  (295) 
1.795271

>  <orig_smiles>  (295) 
nan

>  <fragmenstein_mode>  (295) 
nan

>  <inchikey>  (295) 
LIWRZWYMHFBPQZ-UHFFFAOYSA-N

>  <ref_pdb>  (295) 
Z0852a

>  <GNINA pK>  (295) 
nan

>  <gnina_score_min>  (295) 
5.752

>  <tags>  (295) 
openbind_xx01zvns2b_c1_elab_nonasap_filtered_scored_top80percent,openbind_xx01zvns2b_c1_elab_chemspace_filtered_scored_top80percent,openbind_xx01zvns2b_c1_elab_chemspace_filtered_scored,openbind_xx01zvns2b_c1_elab_chemspace_filtered_scored_top40percent,openbind_xx01zvns2b_c1_elab_chemspace_filtered_scored_top20percent,openbind_xx01zvns2b_c1_elab_chemspace_filtered_scored_top60percent,openbind_xx01zvns2b_c1_elabs_filtered

>  <smiles>  (295) 
COC(=O)c1cc(NC(=O)c2c(O)cnc3ccccc23)c2ncccc2c1

>  <subsites>  (295) 
1 - Z4590/B/203/1

>  <gnina_score>  (295) 
5.492

>  <HIPPO Pose ID>  (295) 
70242

>  <ref_mols>  (295) 
Z0917a,Z0852a

>  <energy_score>  (295) 
-2.892949

>  <inspiration_score>  (295) 
None

>  <smina_score_min>  (295) 
-7.095

>  <fragmenstein_error>  (295) 
nan

>  <name>  (295) 
P70242

$$$$
P70243
     RDKit          3D

 28 31  0  0  0  0  0  0  0  0999 V2000
   -6.0176    4.1308  -20.5294 O   0  0  0  0  0  0  0  0  0  0  0  0
   -5.3171    4.7740  -19.8451 C   0  0  0  0  0  0  0  0  0  0  0  0
   -5.5267    5.2953  -18.3860 N   0  0  0  0  0  0  0  0  0  0  0  0
   -6.5713    5.0551  -17.4696 C   0  0  0  0  0  0  0  0  0  0  0  0
   -6.3513    5.3688  -16.1126 C   0  0  0  0  0  0  0  0  0  0  0  0
   -7.3649    5.1874  -15.1506 C   0  0  0  0  0  0  0  0  0  0  0  0
   -7.2670    5.7028  -13.7395 C   0  0  0  0  0  0  0  0  0  0  0  0
   -8.3532    5.3966  -12.9715 F   0  0  0  0  0  0  0  0  0  0  0  0
   -7.1852    7.0640  -13.7065 F   0  0  0  0  0  0  0  0  0  0  0  0
   -6.1828    5.2372  -13.0723 F   0  0  0  0  0  0  0  0  0  0  0  0
   -8.5657    4.6219  -15.5442 C   0  0  0  0  0  0  0  0  0  0  0  0
   -8.8108    4.4326  -16.8887 C   0  0  0  0  0  0  0  0  0  0  0  0
  -10.1078    4.1821  -17.2573 C   0  0  0  0  0  0  0  0  0  0  0  0
  -10.4963    4.3656  -18.5469 C   0  0  0  0  0  0  0  0  0  0  0  0
   -9.5008    4.5036  -19.4691 C   0  0  0  0  0  0  0  0  0  0  0  0
   -8.1999    4.5769  -19.1569 N   0  0  0  0  0  0  0  0  0  0  0  0
   -7.8428    4.6448  -17.8770 C   0  0  0  0  0  0  0  0  0  0  0  0
   -3.9876    5.1470  -20.3693 C   0  0  0  0  0  0  0  0  0  0  0  0
   -2.8657    4.7960  -19.6254 C   0  0  0  0  0  0  0  0  0  0  0  0
   -2.9283    4.1945  -18.4006 O   0  0  0  0  0  0  0  0  0  0  0  0
   -1.6341    5.0675  -20.1753 C   0  0  0  0  0  0  0  0  0  0  0  0
   -1.4665    5.6601  -21.3792 N   0  0  0  0  0  0  0  0  0  0  0  0
   -2.5500    5.9862  -22.0984 C   0  0  0  0  0  0  0  0  0  0  0  0
   -2.3583    6.5855  -23.3372 C   0  0  0  0  0  0  0  0  0  0  0  0
   -3.4276    6.9826  -24.1425 C   0  0  0  0  0  0  0  0  0  0  0  0
   -4.7252    6.7813  -23.7008 C   0  0  0  0  0  0  0  0  0  0  0  0
   -4.9373    6.1775  -22.4626 C   0  0  0  0  0  0  0  0  0  0  0  0
   -3.8599    5.7611  -21.6419 C   0  0  0  0  0  0  0  0  0  0  0  0
  1  2  2  0
  2  3  1  0
  3  4  1  0
  4  5  2  0
  5  6  1  0
  6  7  1  0
  7  8  1  0
  7  9  1  0
  7 10  1  0
  6 11  2  0
 11 12  1  0
 12 13  2  0
 13 14  1  0
 14 15  2  0
 15 16  1  0
 16 17  2  0
  2 18  1  0
 18 19  2  0
 19 20  1  0
 19 21  1  0
 21 22  2  0
 22 23  1  0
 23 24  2  0
 24 25  1  0
 25 26  2  0
 26 27  1  0
 27 28  2  0
 17  4  1  0
 28 18  1  0
 17 12  1  0
 28 23  1  0
M  END
>  <fragmenstein_outcome>  (296) 
nan

>  <exports>  (296) 
['/opt/xchem-fragalysis-2/maxwin/openbind-hippo/xx01zvns2b/cycle_01/syndirella/elabs/openbind_xx01zvns2b_c1_elab_chemspace_filtered.sdf']

>  <Energy>  (296) 
nan

>  <alias>  (296) 
None

>  <fragmenstein_runtime>  (296) 
nan

>  <scratch_subdir>  (296) 
nan

>  <HIPPO Compound ID>  (296) 
142160

>  <rmsd(smina/fragmenstein)>  (296) 
1.284

>  <distance_score>  (296) 
1.070571

>  <orig_smiles>  (296) 
nan

>  <fragmenstein_mode>  (296) 
nan

>  <inchikey>  (296) 
BQMRPXPAOZNHSM-UHFFFAOYSA-N

>  <ref_pdb>  (296) 
Z0852a

>  <GNINA pK>  (296) 
nan

>  <gnina_score_min>  (296) 
5.755

>  <tags>  (296) 
openbind_xx01zvns2b_c1_elab_nonasap_filtered_scored_top80percent,openbind_xx01zvns2b_c1_elab_chemspace_filtered_scored_top80percent,openbind_xx01zvns2b_c1_elab_chemspace_filtered_scored,openbind_xx01zvns2b_c1_elab_chemspace_filtered_scored_top40percent,openbind_xx01zvns2b_c1_elab_chemspace_filtered_scored_top20percent,openbind_xx01zvns2b_c1_elab_chemspace_filtered_scored_top60percent,openbind_xx01zvns2b_c1_elabs_filtered

>  <smiles>  (296) 
O=C(Nc1cc(C(F)(F)F)cc2cccnc12)c1c(O)cnc2ccccc12

>  <subsites>  (296) 
1 - Z4590/B/203/1

>  <gnina_score>  (296) 
5.076

>  <HIPPO Pose ID>  (296) 
70243

>  <ref_mols>  (296) 
Z0917a,Z0852a

>  <energy_score>  (296) 
-25.854236

>  <inspiration_score>  (296) 
None

>  <smina_score_min>  (296) 
-7.06

>  <fragmenstein_error>  (296) 
nan

>  <name>  (296) 
P70243

$$$$
P70244
     RDKit          3D

 28 31  0  0  0  0  0  0  0  0999 V2000
   -8.0925    6.6747  -13.3915 C   0  0  0  0  0  0  0  0  0  0  0  0
   -6.9869    5.6869  -13.8247 C   0  0  0  0  0  0  0  0  0  0  0  0
   -5.6644    6.4329  -13.6752 C   0  0  0  0  0  0  0  0  0  0  0  0
   -6.9731    4.4895  -12.8644 C   0  0  0  0  0  0  0  0  0  0  0  0
   -7.1985    5.2076  -15.2597 C   0  0  0  0  0  0  0  0  0  0  0  0
   -6.2541    5.3701  -16.2935 C   0  0  0  0  0  0  0  0  0  0  0  0
   -6.5457    5.0559  -17.6326 C   0  0  0  0  0  0  0  0  0  0  0  0
   -5.5346    5.3040  -18.5786 N   0  0  0  0  0  0  0  0  0  0  0  0
   -5.3523    4.7649  -20.0302 C   0  0  0  0  0  0  0  0  0  0  0  0
   -6.0546    4.0950  -20.6844 O   0  0  0  0  0  0  0  0  0  0  0  0
   -4.0202    5.1317  -20.5530 C   0  0  0  0  0  0  0  0  0  0  0  0
   -2.9007    4.7770  -19.8020 C   0  0  0  0  0  0  0  0  0  0  0  0
   -2.9669    4.1745  -18.5758 O   0  0  0  0  0  0  0  0  0  0  0  0
   -1.6664    5.0506  -20.3440 C   0  0  0  0  0  0  0  0  0  0  0  0
   -1.4948    5.6525  -21.5425 N   0  0  0  0  0  0  0  0  0  0  0  0
   -2.5760    5.9900  -22.2616 C   0  0  0  0  0  0  0  0  0  0  0  0
   -2.3812    6.6052  -23.4920 C   0  0  0  0  0  0  0  0  0  0  0  0
   -3.4487    7.0155  -24.2934 C   0  0  0  0  0  0  0  0  0  0  0  0
   -4.7482    6.8128  -23.8564 C   0  0  0  0  0  0  0  0  0  0  0  0
   -4.9645    6.1936  -22.6268 C   0  0  0  0  0  0  0  0  0  0  0  0
   -3.8882    5.7621  -21.8134 C   0  0  0  0  0  0  0  0  0  0  0  0
   -7.8282    4.6410  -17.9660 C   0  0  0  0  0  0  0  0  0  0  0  0
   -8.2454    4.5673  -19.2255 N   0  0  0  0  0  0  0  0  0  0  0  0
   -9.5613    4.4987  -19.4630 C   0  0  0  0  0  0  0  0  0  0  0  0
  -10.5060    4.3337  -18.4888 C   0  0  0  0  0  0  0  0  0  0  0  0
  -10.0487    4.1667  -17.2168 C   0  0  0  0  0  0  0  0  0  0  0  0
   -8.7365    4.4334  -16.9217 C   0  0  0  0  0  0  0  0  0  0  0  0
   -8.4158    4.6331  -15.5914 C   0  0  0  0  0  0  0  0  0  0  0  0
  1  2  1  0
  2  3  1  0
  2  4  1  0
  2  5  1  0
  5  6  2  0
  6  7  1  0
  7  8  1  0
  8  9  1  0
  9 10  2  0
  9 11  1  0
 11 12  2  0
 12 13  1  0
 12 14  1  0
 14 15  2  0
 15 16  1  0
 16 17  2  0
 17 18  1  0
 18 19  2  0
 19 20  1  0
 20 21  2  0
  7 22  2  0
 22 23  1  0
 23 24  2  0
 24 25  1  0
 25 26  2  0
 26 27  1  0
 27 28  2  0
 28  5  1  0
 21 11  1  0
 27 22  1  0
 21 16  1  0
M  END
>  <fragmenstein_outcome>  (297) 
nan

>  <exports>  (297) 
['/opt/xchem-fragalysis-2/maxwin/openbind-hippo/xx01zvns2b/cycle_01/syndirella/elabs/openbind_xx01zvns2b_c1_elab_chemspace_filtered.sdf']

>  <Energy>  (297) 
nan

>  <alias>  (297) 
None

>  <fragmenstein_runtime>  (297) 
nan

>  <scratch_subdir>  (297) 
nan

>  <HIPPO Compound ID>  (297) 
142161

>  <rmsd(smina/fragmenstein)>  (297) 
1.24

>  <distance_score>  (297) 
1.337173

>  <orig_smiles>  (297) 
nan

>  <fragmenstein_mode>  (297) 
nan

>  <inchikey>  (297) 
YFVTYKHBJFFMNP-UHFFFAOYSA-N

>  <ref_pdb>  (297) 
Z0852a

>  <GNINA pK>  (297) 
nan

>  <gnina_score_min>  (297) 
6.122

>  <tags>  (297) 
openbind_xx01zvns2b_c1_elab_nonasap_filtered_scored_top80percent,openbind_xx01zvns2b_c1_elab_chemspace_filtered_scored_top80percent,openbind_xx01zvns2b_c1_elab_chemspace_filtered_scored,openbind_xx01zvns2b_c1_elab_chemspace_filtered_scored_top40percent,openbind_xx01zvns2b_c1_elab_chemspace_filtered_scored_top20percent,openbind_xx01zvns2b_c1_elab_chemspace_filtered_scored_top60percent,openbind_xx01zvns2b_c1_elabs_filtered

>  <smiles>  (297) 
CC(C)(C)c1cc(NC(=O)c2c(O)cnc3ccccc23)c2ncccc2c1

>  <subsites>  (297) 
1 - Z4590/B/203/1

>  <gnina_score>  (297) 
5.329

>  <HIPPO Pose ID>  (297) 
70244

>  <ref_mols>  (297) 
Z0917a,Z0852a

>  <energy_score>  (297) 
-28.215315

>  <inspiration_score>  (297) 
None

>  <smina_score_min>  (297) 
-7.092

>  <fragmenstein_error>  (297) 
nan

>  <name>  (297) 
P70244

$$$$
P70245
     RDKit          3D

 28 31  0  0  0  0  0  0  0  0999 V2000
   -6.3702    4.7782  -11.5016 C   0  0  0  0  0  0  0  0  0  0  0  0
   -6.8806    4.7480  -12.8347 O   0  0  0  0  0  0  0  0  0  0  0  0
   -5.9556    4.9914  -13.7937 C   0  0  0  0  0  0  0  0  0  0  0  0
   -4.7806    5.2671  -13.6070 O   0  0  0  0  0  0  0  0  0  0  0  0
   -6.5663    4.8959  -15.1451 C   0  0  0  0  0  0  0  0  0  0  0  0
   -5.7838    5.2222  -16.2539 C   0  0  0  0  0  0  0  0  0  0  0  0
   -6.2866    5.0813  -17.5556 C   0  0  0  0  0  0  0  0  0  0  0  0
   -5.3866    5.3389  -18.5910 N   0  0  0  0  0  0  0  0  0  0  0  0
   -5.2935    4.7369  -20.0184 C   0  0  0  0  0  0  0  0  0  0  0  0
   -6.0017    3.9898  -20.5741 O   0  0  0  0  0  0  0  0  0  0  0  0
   -4.0897    5.2258  -20.7417 C   0  0  0  0  0  0  0  0  0  0  0  0
   -4.3223    5.5711  -22.0697 C   0  0  0  0  0  0  0  0  0  0  0  0
   -3.2618    6.0304  -22.8013 C   0  0  0  0  0  0  0  0  0  0  0  0
   -2.0340    6.2063  -22.2853 N   0  0  0  0  0  0  0  0  0  0  0  0
   -1.7929    5.8954  -20.9933 C   0  0  0  0  0  0  0  0  0  0  0  0
   -0.5310    6.1471  -20.4375 C   0  0  0  0  0  0  0  0  0  0  0  0
    0.8736    6.8974  -21.4891 Br  0  0  0  0  0  0  0  0  0  0  0  0
   -0.2497    5.9099  -19.0923 C   0  0  0  0  0  0  0  0  0  0  0  0
   -1.2240    5.3506  -18.2856 C   0  0  0  0  0  0  0  0  0  0  0  0
   -2.4575    5.0049  -18.8288 C   0  0  0  0  0  0  0  0  0  0  0  0
   -2.7985    5.3536  -20.1624 C   0  0  0  0  0  0  0  0  0  0  0  0
   -7.6143    4.7171  -17.7749 C   0  0  0  0  0  0  0  0  0  0  0  0
   -8.1646    4.7408  -18.9931 N   0  0  0  0  0  0  0  0  0  0  0  0
   -9.4819    4.5287  -19.1298 C   0  0  0  0  0  0  0  0  0  0  0  0
  -10.3087    4.2222  -18.0809 C   0  0  0  0  0  0  0  0  0  0  0  0
   -9.7308    4.1310  -16.8322 C   0  0  0  0  0  0  0  0  0  0  0  0
   -8.3954    4.4306  -16.6465 C   0  0  0  0  0  0  0  0  0  0  0  0
   -7.8786    4.4811  -15.3480 C   0  0  0  0  0  0  0  0  0  0  0  0
  1  2  1  0
  2  3  1  0
  3  4  2  0
  3  5  1  0
  5  6  2  0
  6  7  1  0
  7  8  1  0
  8  9  1  0
  9 10  2  0
  9 11  1  0
 11 12  2  0
 12 13  1  0
 13 14  2  0
 14 15  1  0
 15 16  2  0
 16 17  1  0
 16 18  1  0
 18 19  2  0
 19 20  1  0
 20 21  2  0
  7 22  2  0
 22 23  1  0
 23 24  2  0
 24 25  1  0
 25 26  2  0
 26 27  1  0
 27 28  2  0
 28  5  1  0
 21 11  1  0
 27 22  1  0
 21 15  1  0
M  END
>  <fragmenstein_outcome>  (298) 
nan

>  <exports>  (298) 
['/opt/xchem-fragalysis-2/maxwin/openbind-hippo/xx01zvns2b/cycle_01/syndirella/elabs/openbind_xx01zvns2b_c1_elab_chemspace_filtered.sdf']

>  <Energy>  (298) 
nan

>  <alias>  (298) 
None

>  <fragmenstein_runtime>  (298) 
nan

>  <scratch_subdir>  (298) 
nan

>  <HIPPO Compound ID>  (298) 
142162

>  <rmsd(smina/fragmenstein)>  (298) 
1.318

>  <distance_score>  (298) 
1.660308

>  <orig_smiles>  (298) 
nan

>  <fragmenstein_mode>  (298) 
nan

>  <inchikey>  (298) 
LROFOZCBYUXJIV-UHFFFAOYSA-N

>  <ref_pdb>  (298) 
Z0852a

>  <GNINA pK>  (298) 
nan

>  <gnina_score_min>  (298) 
5.958

>  <tags>  (298) 
openbind_xx01zvns2b_c1_elab_nonasap_filtered_scored_top80percent,openbind_xx01zvns2b_c1_elab_chemspace_filtered_scored_top80percent,openbind_xx01zvns2b_c1_elab_chemspace_filtered_scored,openbind_xx01zvns2b_c1_elab_chemspace_filtered_scored_top40percent,openbind_xx01zvns2b_c1_elab_chemspace_filtered_scored_top20percent,openbind_xx01zvns2b_c1_elab_chemspace_filtered_scored_top60percent,openbind_xx01zvns2b_c1_elabs_filtered

>  <smiles>  (298) 
COC(=O)c1cc(NC(=O)c2ccnc3c(Br)cccc23)c2ncccc2c1

>  <subsites>  (298) 
1 - Z4590/B/203/1

>  <gnina_score>  (298) 
5.835

>  <HIPPO Pose ID>  (298) 
70245

>  <ref_mols>  (298) 
Z0917a,Z0852a

>  <energy_score>  (298) 
-9.92542

>  <inspiration_score>  (298) 
None

>  <smina_score_min>  (298) 
-6.201

>  <fragmenstein_error>  (298) 
nan

>  <name>  (298) 
P70245

$$$$
P70246
     RDKit          3D

 28 31  0  0  0  0  0  0  0  0999 V2000
   -6.8857    6.9683  -13.8204 C   0  0  0  0  0  0  0  0  0  0  0  0
   -7.1811    5.4659  -13.7774 C   0  0  0  0  0  0  0  0  0  0  0  0
   -8.4122    5.2844  -12.8594 C   0  0  0  0  0  0  0  0  0  0  0  0
   -6.0093    4.7176  -13.1365 C   0  0  0  0  0  0  0  0  0  0  0  0
   -7.3822    5.0021  -15.2192 C   0  0  0  0  0  0  0  0  0  0  0  0
   -6.4012    5.2058  -16.2130 C   0  0  0  0  0  0  0  0  0  0  0  0
   -6.6625    4.9586  -17.5705 C   0  0  0  0  0  0  0  0  0  0  0  0
   -5.6566    5.2484  -18.5011 N   0  0  0  0  0  0  0  0  0  0  0  0
   -5.3886    4.6581  -19.9166 C   0  0  0  0  0  0  0  0  0  0  0  0
   -6.0116    3.8961  -20.5520 O   0  0  0  0  0  0  0  0  0  0  0  0
   -4.1410    5.1843  -20.5311 C   0  0  0  0  0  0  0  0  0  0  0  0
   -4.2690    5.5224  -21.8779 C   0  0  0  0  0  0  0  0  0  0  0  0
   -3.1666    6.0138  -22.5219 C   0  0  0  0  0  0  0  0  0  0  0  0
   -1.9939    6.2315  -21.9039 N   0  0  0  0  0  0  0  0  0  0  0  0
   -1.8535    5.9218  -20.5957 C   0  0  0  0  0  0  0  0  0  0  0  0
   -0.6535    6.2075  -19.9297 C   0  0  0  0  0  0  0  0  0  0  0  0
    0.8112    7.0136  -20.8492 Br  0  0  0  0  0  0  0  0  0  0  0  0
   -0.4790    5.9588  -18.5673 C   0  0  0  0  0  0  0  0  0  0  0  0
   -1.4954    5.3500  -17.8523 C   0  0  0  0  0  0  0  0  0  0  0  0
   -2.6663    4.9765  -18.5029 C   0  0  0  0  0  0  0  0  0  0  0  0
   -2.9065    5.3415  -19.8530 C   0  0  0  0  0  0  0  0  0  0  0  0
   -7.9376    4.5778  -17.9657 C   0  0  0  0  0  0  0  0  0  0  0  0
   -8.3124    4.5777  -19.2424 N   0  0  0  0  0  0  0  0  0  0  0  0
   -9.6201    4.5741  -19.5232 C   0  0  0  0  0  0  0  0  0  0  0  0
  -10.6032    4.4274  -18.5892 C   0  0  0  0  0  0  0  0  0  0  0  0
  -10.1976    4.1649  -17.3197 C   0  0  0  0  0  0  0  0  0  0  0  0
   -8.8852    4.3535  -16.9661 C   0  0  0  0  0  0  0  0  0  0  0  0
   -8.5996    4.4777  -15.6194 C   0  0  0  0  0  0  0  0  0  0  0  0
  1  2  1  0
  2  3  1  0
  2  4  1  0
  2  5  1  0
  5  6  2  0
  6  7  1  0
  7  8  1  0
  8  9  1  0
  9 10  2  0
  9 11  1  0
 11 12  2  0
 12 13  1  0
 13 14  2  0
 14 15  1  0
 15 16  2  0
 16 17  1  0
 16 18  1  0
 18 19  2  0
 19 20  1  0
 20 21  2  0
  7 22  2  0
 22 23  1  0
 23 24  2  0
 24 25  1  0
 25 26  2  0
 26 27  1  0
 27 28  2  0
 28  5  1  0
 21 11  1  0
 27 22  1  0
 21 15  1  0
M  END
>  <fragmenstein_outcome>  (299) 
nan

>  <exports>  (299) 
['/opt/xchem-fragalysis-2/maxwin/openbind-hippo/xx01zvns2b/cycle_01/syndirella/elabs/openbind_xx01zvns2b_c1_elab_chemspace_filtered.sdf']

>  <Energy>  (299) 
nan

>  <alias>  (299) 
None

>  <fragmenstein_runtime>  (299) 
nan

>  <scratch_subdir>  (299) 
nan

>  <HIPPO Compound ID>  (299) 
142164

>  <rmsd(smina/fragmenstein)>  (299) 
1.255

>  <distance_score>  (299) 
1.136525

>  <orig_smiles>  (299) 
nan

>  <fragmenstein_mode>  (299) 
nan

>  <inchikey>  (299) 
RJJLAMRVRFOLTH-UHFFFAOYSA-N

>  <ref_pdb>  (299) 
Z0852a

>  <GNINA pK>  (299) 
nan

>  <gnina_score_min>  (299) 
6.396

>  <tags>  (299) 
openbind_xx01zvns2b_c1_elab_nonasap_filtered_scored_top80percent,openbind_xx01zvns2b_c1_elab_chemspace_filtered_scored_top80percent,openbind_xx01zvns2b_c1_elab_chemspace_filtered_scored,openbind_xx01zvns2b_c1_elab_chemspace_filtered_scored_top40percent,openbind_xx01zvns2b_c1_elab_chemspace_filtered_scored_top20percent,openbind_xx01zvns2b_c1_elab_chemspace_filtered_scored_top60percent,openbind_xx01zvns2b_c1_elabs_filtered

>  <smiles>  (299) 
CC(C)(C)c1cc(NC(=O)c2ccnc3c(Br)cccc23)c2ncccc2c1

>  <subsites>  (299) 
1 - Z4590/B/203/1

>  <gnina_score>  (299) 
5.752

>  <HIPPO Pose ID>  (299) 
70246

>  <ref_mols>  (299) 
Z0917a,Z0852a

>  <energy_score>  (299) 
-6.194643

>  <inspiration_score>  (299) 
None

>  <smina_score_min>  (299) 
-6.528

>  <fragmenstein_error>  (299) 
nan

>  <name>  (299) 
P70246

$$$$
P70248
     RDKit          3D

 28 31  0  0  0  0  0  0  0  0999 V2000
   -4.0662    5.3550  -12.5033 C   0  0  0  0  0  0  0  0  0  0  0  0
   -4.6238    5.2159  -13.8107 O   0  0  0  0  0  0  0  0  0  0  0  0
   -5.9801    5.2589  -13.8310 C   0  0  0  0  0  0  0  0  0  0  0  0
   -6.7086    5.4334  -12.8681 O   0  0  0  0  0  0  0  0  0  0  0  0
   -6.4794    5.0614  -15.2133 C   0  0  0  0  0  0  0  0  0  0  0  0
   -5.6914    5.3289  -16.3338 C   0  0  0  0  0  0  0  0  0  0  0  0
   -6.1853    5.1265  -17.6335 C   0  0  0  0  0  0  0  0  0  0  0  0
   -5.2602    5.3664  -18.6615 N   0  0  0  0  0  0  0  0  0  0  0  0
   -5.1965    4.8111  -20.1120 C   0  0  0  0  0  0  0  0  0  0  0  0
   -5.9464    4.1301  -20.6967 O   0  0  0  0  0  0  0  0  0  0  0  0
   -3.9154    5.2111  -20.7586 C   0  0  0  0  0  0  0  0  0  0  0  0
   -2.7012    4.8682  -20.1459 C   0  0  0  0  0  0  0  0  0  0  0  0
   -2.5564    4.1823  -18.8245 C   0  0  0  0  0  0  0  0  0  0  0  0
   -1.5506    5.2027  -20.8367 C   0  0  0  0  0  0  0  0  0  0  0  0
   -1.5330    5.8283  -22.0303 N   0  0  0  0  0  0  0  0  0  0  0  0
   -2.6973    6.1381  -22.6112 C   0  0  0  0  0  0  0  0  0  0  0  0
   -2.6581    6.7722  -23.8473 C   0  0  0  0  0  0  0  0  0  0  0  0
   -3.8186    7.1540  -24.5223 C   0  0  0  0  0  0  0  0  0  0  0  0
   -5.0527    6.9029  -23.9468 C   0  0  0  0  0  0  0  0  0  0  0  0
   -5.1082    6.2680  -22.7071 C   0  0  0  0  0  0  0  0  0  0  0  0
   -3.9401    5.8626  -22.0188 C   0  0  0  0  0  0  0  0  0  0  0  0
   -7.5126    4.7326  -17.8311 C   0  0  0  0  0  0  0  0  0  0  0  0
   -8.0672    4.6755  -19.0447 N   0  0  0  0  0  0  0  0  0  0  0  0
   -9.3851    4.4468  -19.1621 C   0  0  0  0  0  0  0  0  0  0  0  0
  -10.2109    4.1926  -18.0967 C   0  0  0  0  0  0  0  0  0  0  0  0
   -9.6333    4.1735  -16.8457 C   0  0  0  0  0  0  0  0  0  0  0  0
   -8.2981    4.4971  -16.6862 C   0  0  0  0  0  0  0  0  0  0  0  0
   -7.7875    4.6290  -15.3933 C   0  0  0  0  0  0  0  0  0  0  0  0
  1  2  1  0
  2  3  1  0
  3  4  2  0
  3  5  1  0
  5  6  2  0
  6  7  1  0
  7  8  1  0
  8  9  1  0
  9 10  2  0
  9 11  1  0
 11 12  2  0
 12 13  1  0
 12 14  1  0
 14 15  2  0
 15 16  1  0
 16 17  2  0
 17 18  1  0
 18 19  2  0
 19 20  1  0
 20 21  2  0
  7 22  2  0
 22 23  1  0
 23 24  2  0
 24 25  1  0
 25 26  2  0
 26 27  1  0
 27 28  2  0
 28  5  1  0
 21 11  1  0
 27 22  1  0
 21 16  1  0
M  END
>  <fragmenstein_outcome>  (300) 
nan

>  <exports>  (300) 
['/opt/xchem-fragalysis-2/maxwin/openbind-hippo/xx01zvns2b/cycle_01/syndirella/elabs/openbind_xx01zvns2b_c1_elab_chemspace_filtered.sdf']

>  <Energy>  (300) 
nan

>  <alias>  (300) 
None

>  <fragmenstein_runtime>  (300) 
nan

>  <scratch_subdir>  (300) 
nan

>  <HIPPO Compound ID>  (300) 
142166

>  <rmsd(smina/fragmenstein)>  (300) 
1.007

>  <distance_score>  (300) 
1.920297

>  <orig_smiles>  (300) 
nan

>  <fragmenstein_mode>  (300) 
nan

>  <inchikey>  (300) 
MJQDKYORQMLDGJ-UHFFFAOYSA-N

>  <ref_pdb>  (300) 
Z0852a

>  <GNINA pK>  (300) 
nan

>  <gnina_score_min>  (300) 
5.962

>  <tags>  (300) 
openbind_xx01zvns2b_c1_elab_nonasap_filtered_scored_top80percent,openbind_xx01zvns2b_c1_elab_chemspace_filtered_scored_top80percent,openbind_xx01zvns2b_c1_elab_chemspace_filtered_scored,openbind_xx01zvns2b_c1_elab_chemspace_filtered_scored_top40percent,openbind_xx01zvns2b_c1_elab_chemspace_filtered_scored_top20percent,openbind_xx01zvns2b_c1_elab_chemspace_filtered_scored_top60percent,openbind_xx01zvns2b_c1_elabs_filtered

>  <smiles>  (300) 
COC(=O)c1cc(NC(=O)c2c(C)cnc3ccccc23)c2ncccc2c1

>  <subsites>  (300) 
1 - Z4590/B/203/1

>  <gnina_score>  (300) 
5.857

>  <HIPPO Pose ID>  (300) 
70248

>  <ref_mols>  (300) 
Z0917a,Z0852a

>  <energy_score>  (300) 
-20.812545

>  <inspiration_score>  (300) 
None

>  <smina_score_min>  (300) 
-6.926

>  <fragmenstein_error>  (300) 
nan

>  <name>  (300) 
P70248

$$$$
P70249
     RDKit          3D

 28 31  0  0  0  0  0  0  0  0999 V2000
   -2.6924    4.1481  -18.5955 C   0  0  0  0  0  0  0  0  0  0  0  0
   -2.8019    4.8954  -19.8821 C   0  0  0  0  0  0  0  0  0  0  0  0
   -1.6277    5.2763  -20.5107 C   0  0  0  0  0  0  0  0  0  0  0  0
   -1.5672    5.9355  -21.6837 N   0  0  0  0  0  0  0  0  0  0  0  0
   -2.7090    6.2122  -22.3201 C   0  0  0  0  0  0  0  0  0  0  0  0
   -2.6238    6.8674  -23.5430 C   0  0  0  0  0  0  0  0  0  0  0  0
   -3.7570    7.2113  -24.2806 C   0  0  0  0  0  0  0  0  0  0  0  0
   -5.0096    6.8962  -23.7835 C   0  0  0  0  0  0  0  0  0  0  0  0
   -5.1090    6.2400  -22.5573 C   0  0  0  0  0  0  0  0  0  0  0  0
   -3.9705    5.8782  -21.7994 C   0  0  0  0  0  0  0  0  0  0  0  0
   -3.9946    5.2105  -20.5425 C   0  0  0  0  0  0  0  0  0  0  0  0
   -5.2973    4.7342  -19.9905 C   0  0  0  0  0  0  0  0  0  0  0  0
   -5.9612    4.0455  -20.6678 O   0  0  0  0  0  0  0  0  0  0  0  0
   -5.5330    5.2544  -18.5368 N   0  0  0  0  0  0  0  0  0  0  0  0
   -6.5604    4.9618  -17.6145 C   0  0  0  0  0  0  0  0  0  0  0  0
   -6.3092    5.2108  -16.2506 C   0  0  0  0  0  0  0  0  0  0  0  0
   -7.2954    5.0143  -15.2547 C   0  0  0  0  0  0  0  0  0  0  0  0
   -7.1103    5.4867  -13.8128 C   0  0  0  0  0  0  0  0  0  0  0  0
   -6.8311    6.9912  -13.8623 C   0  0  0  0  0  0  0  0  0  0  0  0
   -5.9362    4.7528  -13.1604 C   0  0  0  0  0  0  0  0  0  0  0  0
   -8.3459    5.2969  -12.8980 C   0  0  0  0  0  0  0  0  0  0  0  0
   -8.5124    4.4928  -15.6530 C   0  0  0  0  0  0  0  0  0  0  0  0
   -8.7933    4.3649  -16.9970 C   0  0  0  0  0  0  0  0  0  0  0  0
  -10.1120    4.1847  -17.3320 C   0  0  0  0  0  0  0  0  0  0  0  0
  -10.5205    4.4146  -18.6059 C   0  0  0  0  0  0  0  0  0  0  0  0
   -9.5380    4.5222  -19.5473 C   0  0  0  0  0  0  0  0  0  0  0  0
   -8.2262    4.5359  -19.2746 N   0  0  0  0  0  0  0  0  0  0  0  0
   -7.8408    4.5742  -18.0026 C   0  0  0  0  0  0  0  0  0  0  0  0
  1  2  1  0
  2  3  2  0
  3  4  1  0
  4  5  2  0
  5  6  1  0
  6  7  2  0
  7  8  1  0
  8  9  2  0
  9 10  1  0
 10 11  2  0
 11 12  1  0
 12 13  2  0
 12 14  1  0
 14 15  1  0
 15 16  2  0
 16 17  1  0
 17 18  1  0
 18 19  1  0
 18 20  1  0
 18 21  1  0
 17 22  2  0
 22 23  1  0
 23 24  2  0
 24 25  1  0
 25 26  2  0
 26 27  1  0
 27 28  2  0
 11  2  1  0
 28 15  1  0
 10  5  1  0
 28 23  1  0
M  END
>  <fragmenstein_outcome>  (301) 
nan

>  <exports>  (301) 
['/opt/xchem-fragalysis-2/maxwin/openbind-hippo/xx01zvns2b/cycle_01/syndirella/elabs/openbind_xx01zvns2b_c1_elab_chemspace_filtered.sdf']

>  <Energy>  (301) 
nan

>  <alias>  (301) 
None

>  <fragmenstein_runtime>  (301) 
nan

>  <scratch_subdir>  (301) 
nan

>  <HIPPO Compound ID>  (301) 
142168

>  <rmsd(smina/fragmenstein)>  (301) 
1.23

>  <distance_score>  (301) 
1.164654

>  <orig_smiles>  (301) 
nan

>  <fragmenstein_mode>  (301) 
nan

>  <inchikey>  (301) 
ZMDCCXPHPDBCKF-UHFFFAOYSA-N

>  <ref_pdb>  (301) 
Z0852a

>  <GNINA pK>  (301) 
nan

>  <gnina_score_min>  (301) 
6.341

>  <tags>  (301) 
openbind_xx01zvns2b_c1_elab_nonasap_filtered_scored_top80percent,openbind_xx01zvns2b_c1_elab_chemspace_filtered_scored_top80percent,openbind_xx01zvns2b_c1_elab_chemspace_filtered_scored,openbind_xx01zvns2b_c1_elab_chemspace_filtered_scored_top40percent,openbind_xx01zvns2b_c1_elab_chemspace_filtered_scored_top20percent,openbind_xx01zvns2b_c1_elab_chemspace_filtered_scored_top60percent,openbind_xx01zvns2b_c1_elabs_filtered

>  <smiles>  (301) 
Cc1cnc2ccccc2c1C(=O)Nc1cc(C(C)(C)C)cc2cccnc12

>  <subsites>  (301) 
1 - Z4590/B/203/1

>  <gnina_score>  (301) 
5.806

>  <HIPPO Pose ID>  (301) 
70249

>  <ref_mols>  (301) 
Z0917a,Z0852a

>  <energy_score>  (301) 
-22.410067

>  <inspiration_score>  (301) 
None

>  <smina_score_min>  (301) 
-7.267

>  <fragmenstein_error>  (301) 
nan

>  <name>  (301) 
P70249

$$$$
P70250
     RDKit          3D

 28 31  0  0  0  0  0  0  0  0999 V2000
   -5.9345    3.9567  -20.3358 O   0  0  0  0  0  0  0  0  0  0  0  0
   -5.3221    4.7453  -19.7230 C   0  0  0  0  0  0  0  0  0  0  0  0
   -5.6172    5.4001  -18.3407 N   0  0  0  0  0  0  0  0  0  0  0  0
   -6.6432    5.1550  -17.4188 C   0  0  0  0  0  0  0  0  0  0  0  0
   -6.4300    5.4817  -16.0677 C   0  0  0  0  0  0  0  0  0  0  0  0
   -7.4308    5.2511  -15.1072 C   0  0  0  0  0  0  0  0  0  0  0  0
   -7.3337    5.7475  -13.6916 C   0  0  0  0  0  0  0  0  0  0  0  0
   -8.4285    5.4461  -12.9340 F   0  0  0  0  0  0  0  0  0  0  0  0
   -7.2349    7.1073  -13.6417 F   0  0  0  0  0  0  0  0  0  0  0  0
   -6.2593    5.2612  -13.0228 F   0  0  0  0  0  0  0  0  0  0  0  0
   -8.6098    4.6405  -15.5034 C   0  0  0  0  0  0  0  0  0  0  0  0
   -8.8512    4.4492  -16.8504 C   0  0  0  0  0  0  0  0  0  0  0  0
  -10.1367    4.1615  -17.2298 C   0  0  0  0  0  0  0  0  0  0  0  0
  -10.5270    4.3491  -18.5193 C   0  0  0  0  0  0  0  0  0  0  0  0
   -9.5358    4.5329  -19.4385 C   0  0  0  0  0  0  0  0  0  0  0  0
   -8.2400    4.6439  -19.1210 N   0  0  0  0  0  0  0  0  0  0  0  0
   -7.8929    4.6989  -17.8350 C   0  0  0  0  0  0  0  0  0  0  0  0
   -4.0609    5.2218  -20.3438 C   0  0  0  0  0  0  0  0  0  0  0  0
   -4.1489    5.4586  -21.7185 C   0  0  0  0  0  0  0  0  0  0  0  0
   -3.0232    5.8871  -22.3735 C   0  0  0  0  0  0  0  0  0  0  0  0
   -1.8576    6.1321  -21.7496 N   0  0  0  0  0  0  0  0  0  0  0  0
   -1.7708    5.9043  -20.4300 C   0  0  0  0  0  0  0  0  0  0  0  0
   -0.5684    6.2137  -19.8086 C   0  0  0  0  0  0  0  0  0  0  0  0
   -0.3893    6.0786  -18.4323 C   0  0  0  0  0  0  0  0  0  0  0  0
   -1.4223    5.5579  -17.6760 C   0  0  0  0  0  0  0  0  0  0  0  0
   -1.3218    5.4280  -16.3233 O   0  0  0  0  0  0  0  0  0  0  0  0
   -2.6063    5.1533  -18.2790 C   0  0  0  0  0  0  0  0  0  0  0  0
   -2.8393    5.4067  -19.6551 C   0  0  0  0  0  0  0  0  0  0  0  0
  1  2  2  0
  2  3  1  0
  3  4  1  0
  4  5  2  0
  5  6  1  0
  6  7  1  0
  7  8  1  0
  7  9  1  0
  7 10  1  0
  6 11  2  0
 11 12  1  0
 12 13  2  0
 13 14  1  0
 14 15  2  0
 15 16  1  0
 16 17  2  0
  2 18  1  0
 18 19  2  0
 19 20  1  0
 20 21  2  0
 21 22  1  0
 22 23  2  0
 23 24  1  0
 24 25  2  0
 25 26  1  0
 25 27  1  0
 27 28  2  0
 17  4  1  0
 28 18  1  0
 17 12  1  0
 28 22  1  0
M  END
>  <fragmenstein_outcome>  (302) 
nan

>  <exports>  (302) 
['/opt/xchem-fragalysis-2/maxwin/openbind-hippo/xx01zvns2b/cycle_01/syndirella/elabs/openbind_xx01zvns2b_c1_elab_chemspace_filtered.sdf']

>  <Energy>  (302) 
nan

>  <alias>  (302) 
None

>  <fragmenstein_runtime>  (302) 
nan

>  <scratch_subdir>  (302) 
nan

>  <HIPPO Compound ID>  (302) 
142169

>  <rmsd(smina/fragmenstein)>  (302) 
2.06

>  <distance_score>  (302) 
1.067634

>  <orig_smiles>  (302) 
nan

>  <fragmenstein_mode>  (302) 
nan

>  <inchikey>  (302) 
WPHNUGFCNBULMU-UHFFFAOYSA-N

>  <ref_pdb>  (302) 
Z0852a

>  <GNINA pK>  (302) 
nan

>  <gnina_score_min>  (302) 
5.676

>  <tags>  (302) 
openbind_xx01zvns2b_c1_elab_nonasap_filtered_scored_top80percent,openbind_xx01zvns2b_c1_elab_chemspace_filtered_scored_top80percent,openbind_xx01zvns2b_c1_elab_chemspace_filtered_scored,openbind_xx01zvns2b_c1_elab_chemspace_filtered_scored_top40percent,openbind_xx01zvns2b_c1_elab_chemspace_filtered_scored_top20percent,openbind_xx01zvns2b_c1_elab_chemspace_filtered_scored_top60percent,openbind_xx01zvns2b_c1_elabs_filtered

>  <smiles>  (302) 
O=C(Nc1cc(C(F)(F)F)cc2cccnc12)c1ccnc2ccc(O)cc12

>  <subsites>  (302) 
1 - Z4590/B/203/1

>  <gnina_score>  (302) 
5.396

>  <HIPPO Pose ID>  (302) 
70250

>  <ref_mols>  (302) 
Z0917a,Z0852a

>  <energy_score>  (302) 
-5.543646

>  <inspiration_score>  (302) 
None

>  <smina_score_min>  (302) 
-6.206

>  <fragmenstein_error>  (302) 
nan

>  <name>  (302) 
P70250

$$$$
P70251
     RDKit          3D

 28 31  0  0  0  0  0  0  0  0999 V2000
   -8.4534    6.8045  -13.5912 C   0  0  0  0  0  0  0  0  0  0  0  0
   -7.4324    5.6677  -13.7103 C   0  0  0  0  0  0  0  0  0  0  0  0
   -6.0827    6.2594  -13.2925 C   0  0  0  0  0  0  0  0  0  0  0  0
   -7.8217    4.5665  -12.7079 C   0  0  0  0  0  0  0  0  0  0  0  0
   -7.4653    5.1571  -15.1512 C   0  0  0  0  0  0  0  0  0  0  0  0
   -6.4589    5.3735  -16.1095 C   0  0  0  0  0  0  0  0  0  0  0  0
   -6.6642    5.0625  -17.4688 C   0  0  0  0  0  0  0  0  0  0  0  0
   -5.6312    5.3289  -18.3775 N   0  0  0  0  0  0  0  0  0  0  0  0
   -5.3246    4.7049  -19.7708 C   0  0  0  0  0  0  0  0  0  0  0  0
   -5.9312    3.9291  -20.4054 O   0  0  0  0  0  0  0  0  0  0  0  0
   -4.0592    5.1997  -20.3707 C   0  0  0  0  0  0  0  0  0  0  0  0
   -4.1363    5.4542  -21.7428 C   0  0  0  0  0  0  0  0  0  0  0  0
   -3.0092    5.9018  -22.3822 C   0  0  0  0  0  0  0  0  0  0  0  0
   -1.8522    6.1514  -21.7444 N   0  0  0  0  0  0  0  0  0  0  0  0
   -1.7767    5.9116  -20.4265 C   0  0  0  0  0  0  0  0  0  0  0  0
   -0.5851    6.2333  -19.7910 C   0  0  0  0  0  0  0  0  0  0  0  0
   -0.4170    6.0888  -18.4144 C   0  0  0  0  0  0  0  0  0  0  0  0
   -1.4486    5.5444  -17.6733 C   0  0  0  0  0  0  0  0  0  0  0  0
   -1.3587    5.4049  -16.3206 O   0  0  0  0  0  0  0  0  0  0  0  0
   -2.6201    5.1261  -18.2916 C   0  0  0  0  0  0  0  0  0  0  0  0
   -2.8459    5.3913  -19.6673 C   0  0  0  0  0  0  0  0  0  0  0  0
   -7.9134    4.6277  -17.9025 C   0  0  0  0  0  0  0  0  0  0  0  0
   -8.2513    4.5834  -19.1909 N   0  0  0  0  0  0  0  0  0  0  0  0
   -9.5500    4.5382  -19.5111 C   0  0  0  0  0  0  0  0  0  0  0  0
  -10.5558    4.4045  -18.6000 C   0  0  0  0  0  0  0  0  0  0  0  0
  -10.1825    4.1704  -17.3161 C   0  0  0  0  0  0  0  0  0  0  0  0
   -8.8847    4.3942  -16.9316 C   0  0  0  0  0  0  0  0  0  0  0  0
   -8.6439    4.5590  -15.5836 C   0  0  0  0  0  0  0  0  0  0  0  0
  1  2  1  0
  2  3  1  0
  2  4  1  0
  2  5  1  0
  5  6  2  0
  6  7  1  0
  7  8  1  0
  8  9  1  0
  9 10  2  0
  9 11  1  0
 11 12  2  0
 12 13  1  0
 13 14  2  0
 14 15  1  0
 15 16  2  0
 16 17  1  0
 17 18  2  0
 18 19  1  0
 18 20  1  0
 20 21  2  0
  7 22  2  0
 22 23  1  0
 23 24  2  0
 24 25  1  0
 25 26  2  0
 26 27  1  0
 27 28  2  0
 28  5  1  0
 21 11  1  0
 27 22  1  0
 21 15  1  0
M  END
>  <fragmenstein_outcome>  (303) 
nan

>  <exports>  (303) 
['/opt/xchem-fragalysis-2/maxwin/openbind-hippo/xx01zvns2b/cycle_01/syndirella/elabs/openbind_xx01zvns2b_c1_elab_chemspace_filtered.sdf']

>  <Energy>  (303) 
nan

>  <alias>  (303) 
None

>  <fragmenstein_runtime>  (303) 
nan

>  <scratch_subdir>  (303) 
nan

>  <HIPPO Compound ID>  (303) 
142170

>  <rmsd(smina/fragmenstein)>  (303) 
1.777

>  <distance_score>  (303) 
1.341605

>  <orig_smiles>  (303) 
nan

>  <fragmenstein_mode>  (303) 
nan

>  <inchikey>  (303) 
IQHTVLIXFWVODK-UHFFFAOYSA-N

>  <ref_pdb>  (303) 
Z0852a

>  <GNINA pK>  (303) 
nan

>  <gnina_score_min>  (303) 
6.158

>  <tags>  (303) 
openbind_xx01zvns2b_c1_elab_nonasap_filtered_scored_top80percent,openbind_xx01zvns2b_c1_elab_chemspace_filtered_scored_top80percent,openbind_xx01zvns2b_c1_elab_chemspace_filtered_scored,openbind_xx01zvns2b_c1_elab_chemspace_filtered_scored_top40percent,openbind_xx01zvns2b_c1_elab_chemspace_filtered_scored_top20percent,openbind_xx01zvns2b_c1_elab_chemspace_filtered_scored_top60percent,openbind_xx01zvns2b_c1_elabs_filtered

>  <smiles>  (303) 
CC(C)(C)c1cc(NC(=O)c2ccnc3ccc(O)cc23)c2ncccc2c1

>  <subsites>  (303) 
1 - Z4590/B/203/1

>  <gnina_score>  (303) 
5.541

>  <HIPPO Pose ID>  (303) 
70251

>  <ref_mols>  (303) 
Z0917a,Z0852a

>  <energy_score>  (303) 
-11.43193

>  <inspiration_score>  (303) 
None

>  <smina_score_min>  (303) 
-6.444

>  <fragmenstein_error>  (303) 
nan

>  <name>  (303) 
P70251

$$$$
P70252
     RDKit          3D

 28 31  0  0  0  0  0  0  0  0999 V2000
   -5.9713    3.9485  -20.3615 O   0  0  0  0  0  0  0  0  0  0  0  0
   -5.3546    4.7435  -19.7616 C   0  0  0  0  0  0  0  0  0  0  0  0
   -5.6337    5.4040  -18.3779 N   0  0  0  0  0  0  0  0  0  0  0  0
   -6.6459    5.1577  -17.4395 C   0  0  0  0  0  0  0  0  0  0  0  0
   -6.4243    5.4884  -16.0909 C   0  0  0  0  0  0  0  0  0  0  0  0
   -7.4178    5.2540  -15.1220 C   0  0  0  0  0  0  0  0  0  0  0  0
   -7.3154    5.7533  -13.7074 C   0  0  0  0  0  0  0  0  0  0  0  0
   -8.4040    5.4512  -12.9420 F   0  0  0  0  0  0  0  0  0  0  0  0
   -7.2177    7.1132  -13.6611 F   0  0  0  0  0  0  0  0  0  0  0  0
   -6.2346    5.2706  -13.0457 F   0  0  0  0  0  0  0  0  0  0  0  0
   -8.5967    4.6364  -15.5074 C   0  0  0  0  0  0  0  0  0  0  0  0
   -8.8483    4.4459  -16.8521 C   0  0  0  0  0  0  0  0  0  0  0  0
  -10.1357    4.1553  -17.2220 C   0  0  0  0  0  0  0  0  0  0  0  0
  -10.5370    4.3449  -18.5082 C   0  0  0  0  0  0  0  0  0  0  0  0
   -9.5540    4.5395  -19.4341 C   0  0  0  0  0  0  0  0  0  0  0  0
   -8.2562    4.6521  -19.1259 N   0  0  0  0  0  0  0  0  0  0  0  0
   -7.8989    4.7001  -17.8434 C   0  0  0  0  0  0  0  0  0  0  0  0
   -4.1119    5.2285  -20.4043 C   0  0  0  0  0  0  0  0  0  0  0  0
   -4.2329    5.4996  -21.7669 C   0  0  0  0  0  0  0  0  0  0  0  0
   -3.1088    5.9157  -22.4168 C   0  0  0  0  0  0  0  0  0  0  0  0
   -3.1330    6.1855  -23.7445 O   0  0  0  0  0  0  0  0  0  0  0  0
   -1.9198    6.1234  -21.8436 N   0  0  0  0  0  0  0  0  0  0  0  0
   -1.8094    5.8709  -20.5300 C   0  0  0  0  0  0  0  0  0  0  0  0
   -0.5888    6.1400  -19.9288 C   0  0  0  0  0  0  0  0  0  0  0  0
   -0.3834    5.9563  -18.5628 C   0  0  0  0  0  0  0  0  0  0  0  0
   -1.4037    5.4334  -17.7849 C   0  0  0  0  0  0  0  0  0  0  0  0
   -2.6151    5.0836  -18.3768 C   0  0  0  0  0  0  0  0  0  0  0  0
   -2.8712    5.3781  -19.7404 C   0  0  0  0  0  0  0  0  0  0  0  0
  1  2  2  0
  2  3  1  0
  3  4  1  0
  4  5  2  0
  5  6  1  0
  6  7  1  0
  7  8  1  0
  7  9  1  0
  7 10  1  0
  6 11  2  0
 11 12  1  0
 12 13  2  0
 13 14  1  0
 14 15  2  0
 15 16  1  0
 16 17  2  0
  2 18  1  0
 18 19  2  0
 19 20  1  0
 20 21  1  0
 20 22  2  0
 22 23  1  0
 23 24  2  0
 24 25  1  0
 25 26  2  0
 26 27  1  0
 27 28  2  0
 17  4  1  0
 28 18  1  0
 17 12  1  0
 28 23  1  0
M  END
>  <fragmenstein_outcome>  (304) 
nan

>  <exports>  (304) 
['/opt/xchem-fragalysis-2/maxwin/openbind-hippo/xx01zvns2b/cycle_01/syndirella/elabs/openbind_xx01zvns2b_c1_elab_chemspace_filtered.sdf']

>  <Energy>  (304) 
nan

>  <alias>  (304) 
None

>  <fragmenstein_runtime>  (304) 
nan

>  <scratch_subdir>  (304) 
nan

>  <HIPPO Compound ID>  (304) 
142172

>  <rmsd(smina/fragmenstein)>  (304) 
1.269

>  <distance_score>  (304) 
1.055799

>  <orig_smiles>  (304) 
nan

>  <fragmenstein_mode>  (304) 
nan

>  <inchikey>  (304) 
MLSYTNPYQPQAAB-UHFFFAOYSA-N

>  <ref_pdb>  (304) 
Z0852a

>  <GNINA pK>  (304) 
nan

>  <gnina_score_min>  (304) 
5.747

>  <tags>  (304) 
openbind_xx01zvns2b_c1_elab_nonasap_filtered_scored_top80percent,openbind_xx01zvns2b_c1_elab_chemspace_filtered_scored_top80percent,openbind_xx01zvns2b_c1_elab_chemspace_filtered_scored,openbind_xx01zvns2b_c1_elab_chemspace_filtered_scored_top40percent,openbind_xx01zvns2b_c1_elab_chemspace_filtered_scored_top20percent,openbind_xx01zvns2b_c1_elab_chemspace_filtered_scored_top60percent,openbind_xx01zvns2b_c1_elabs_filtered

>  <smiles>  (304) 
O=C(Nc1cc(C(F)(F)F)cc2cccnc12)c1cc(O)nc2ccccc12

>  <subsites>  (304) 
1 - Z4590/B/203/1

>  <gnina_score>  (304) 
5.212

>  <HIPPO Pose ID>  (304) 
70252

>  <ref_mols>  (304) 
Z0917a,Z0852a

>  <energy_score>  (304) 
-11.364121

>  <inspiration_score>  (304) 
None

>  <smina_score_min>  (304) 
-6.36

>  <fragmenstein_error>  (304) 
nan

>  <name>  (304) 
P70252

$$$$
P70253
     RDKit          3D

 28 31  0  0  0  0  0  0  0  0999 V2000
   -8.4253    6.7908  -13.6152 C   0  0  0  0  0  0  0  0  0  0  0  0
   -7.4119    5.6465  -13.7302 C   0  0  0  0  0  0  0  0  0  0  0  0
   -6.0584    6.2312  -13.3157 C   0  0  0  0  0  0  0  0  0  0  0  0
   -7.8087    4.5525  -12.7224 C   0  0  0  0  0  0  0  0  0  0  0  0
   -7.4495    5.1326  -15.1704 C   0  0  0  0  0  0  0  0  0  0  0  0
   -6.4471    5.3455  -16.1347 C   0  0  0  0  0  0  0  0  0  0  0  0
   -6.6611    5.0366  -17.4936 C   0  0  0  0  0  0  0  0  0  0  0  0
   -5.6378    5.3093  -18.4132 N   0  0  0  0  0  0  0  0  0  0  0  0
   -5.3513    4.6991  -19.8182 C   0  0  0  0  0  0  0  0  0  0  0  0
   -5.9691    3.9324  -20.4536 O   0  0  0  0  0  0  0  0  0  0  0  0
   -4.1143    5.2275  -20.4396 C   0  0  0  0  0  0  0  0  0  0  0  0
   -4.2472    5.5615  -21.7896 C   0  0  0  0  0  0  0  0  0  0  0  0
   -3.1472    6.0686  -22.4276 C   0  0  0  0  0  0  0  0  0  0  0  0
   -3.1986    6.4414  -23.7383 O   0  0  0  0  0  0  0  0  0  0  0  0
   -1.9748    6.2912  -21.8241 N   0  0  0  0  0  0  0  0  0  0  0  0
   -1.8474    5.9699  -20.5285 C   0  0  0  0  0  0  0  0  0  0  0  0
   -0.6384    6.2619  -19.9151 C   0  0  0  0  0  0  0  0  0  0  0  0
   -0.4233    6.0239  -18.5593 C   0  0  0  0  0  0  0  0  0  0  0  0
   -1.4206    5.4243  -17.8071 C   0  0  0  0  0  0  0  0  0  0  0  0
   -2.6156    5.0485  -18.4161 C   0  0  0  0  0  0  0  0  0  0  0  0
   -2.8834    5.3936  -19.7660 C   0  0  0  0  0  0  0  0  0  0  0  0
   -7.9168    4.6120  -17.9188 C   0  0  0  0  0  0  0  0  0  0  0  0
   -8.2660    4.5811  -19.2045 N   0  0  0  0  0  0  0  0  0  0  0  0
   -9.5676    4.5462  -19.5139 C   0  0  0  0  0  0  0  0  0  0  0  0
  -10.5673    4.4078  -18.5968 C   0  0  0  0  0  0  0  0  0  0  0  0
  -10.1846    4.1645  -17.3174 C   0  0  0  0  0  0  0  0  0  0  0  0
   -8.8825    4.3791  -16.9422 C   0  0  0  0  0  0  0  0  0  0  0  0
   -8.6320    4.5377  -15.5959 C   0  0  0  0  0  0  0  0  0  0  0  0
  1  2  1  0
  2  3  1  0
  2  4  1  0
  2  5  1  0
  5  6  2  0
  6  7  1  0
  7  8  1  0
  8  9  1  0
  9 10  2  0
  9 11  1  0
 11 12  2  0
 12 13  1  0
 13 14  1  0
 13 15  2  0
 15 16  1  0
 16 17  2  0
 17 18  1  0
 18 19  2  0
 19 20  1  0
 20 21  2  0
  7 22  2  0
 22 23  1  0
 23 24  2  0
 24 25  1  0
 25 26  2  0
 26 27  1  0
 27 28  2  0
 28  5  1  0
 21 11  1  0
 27 22  1  0
 21 16  1  0
M  END
>  <fragmenstein_outcome>  (305) 
nan

>  <exports>  (305) 
['/opt/xchem-fragalysis-2/maxwin/openbind-hippo/xx01zvns2b/cycle_01/syndirella/elabs/openbind_xx01zvns2b_c1_elab_chemspace_filtered.sdf']

>  <Energy>  (305) 
nan

>  <alias>  (305) 
None

>  <fragmenstein_runtime>  (305) 
nan

>  <scratch_subdir>  (305) 
nan

>  <HIPPO Compound ID>  (305) 
142173

>  <rmsd(smina/fragmenstein)>  (305) 
1.513

>  <distance_score>  (305) 
1.383672

>  <orig_smiles>  (305) 
nan

>  <fragmenstein_mode>  (305) 
nan

>  <inchikey>  (305) 
WSIKLELFQCACMM-UHFFFAOYSA-N

>  <ref_pdb>  (305) 
Z0852a

>  <GNINA pK>  (305) 
nan

>  <gnina_score_min>  (305) 
6.09

>  <tags>  (305) 
openbind_xx01zvns2b_c1_elab_nonasap_filtered_scored_top80percent,openbind_xx01zvns2b_c1_elab_chemspace_filtered_scored_top80percent,openbind_xx01zvns2b_c1_elab_chemspace_filtered_scored,openbind_xx01zvns2b_c1_elab_chemspace_filtered_scored_top40percent,openbind_xx01zvns2b_c1_elab_chemspace_filtered_scored_top20percent,openbind_xx01zvns2b_c1_elab_chemspace_filtered_scored_top60percent,openbind_xx01zvns2b_c1_elabs_filtered

>  <smiles>  (305) 
CC(C)(C)c1cc(NC(=O)c2cc(O)nc3ccccc23)c2ncccc2c1

>  <subsites>  (305) 
1 - Z4590/B/203/1

>  <gnina_score>  (305) 
5.35

>  <HIPPO Pose ID>  (305) 
70253

>  <ref_mols>  (305) 
Z0917a,Z0852a

>  <energy_score>  (305) 
-13.635278

>  <inspiration_score>  (305) 
None

>  <smina_score_min>  (305) 
-6.511

>  <fragmenstein_error>  (305) 
nan

>  <name>  (305) 
P70253

$$$$
P70254
     RDKit          3D

 28 31  0  0  0  0  0  0  0  0999 V2000
   -6.1660    4.5656  -13.2781 C   0  0  0  0  0  0  0  0  0  0  0  0
   -7.3108    5.4064  -13.8512 C   0  0  0  0  0  0  0  0  0  0  0  0
   -8.5146    5.2830  -12.8943 C   0  0  0  0  0  0  0  0  0  0  0  0
   -6.9115    6.8864  -13.8611 C   0  0  0  0  0  0  0  0  0  0  0  0
   -7.6038    4.9896  -15.2907 C   0  0  0  0  0  0  0  0  0  0  0  0
   -6.6778    5.2180  -16.3218 C   0  0  0  0  0  0  0  0  0  0  0  0
   -7.0089    4.9907  -17.6649 C   0  0  0  0  0  0  0  0  0  0  0  0
   -6.0310    5.2191  -18.6165 N   0  0  0  0  0  0  0  0  0  0  0  0
   -5.8300    4.5944  -20.0338 C   0  0  0  0  0  0  0  0  0  0  0  0
   -6.5043    3.8513  -20.6389 O   0  0  0  0  0  0  0  0  0  0  0  0
   -4.5185    4.9940  -20.5608 C   0  0  0  0  0  0  0  0  0  0  0  0
   -4.4482    5.4409  -21.8722 C   0  0  0  0  0  0  0  0  0  0  0  0
   -3.2338    5.9151  -22.2937 C   0  0  0  0  0  0  0  0  0  0  0  0
   -2.1670    6.0289  -21.4781 N   0  0  0  0  0  0  0  0  0  0  0  0
   -2.2642    5.5975  -20.1953 C   0  0  0  0  0  0  0  0  0  0  0  0
   -1.2527    5.8114  -19.2720 C   0  0  0  0  0  0  0  0  0  0  0  0
   -0.1594    6.4495  -19.6645 F   0  0  0  0  0  0  0  0  0  0  0  0
   -1.3111    5.4710  -17.9225 C   0  0  0  0  0  0  0  0  0  0  0  0
   -2.4002    4.7748  -17.4594 C   0  0  0  0  0  0  0  0  0  0  0  0
   -3.4030    4.4725  -18.3610 C   0  0  0  0  0  0  0  0  0  0  0  0
   -3.4038    4.9876  -19.6949 C   0  0  0  0  0  0  0  0  0  0  0  0
   -8.2786    4.6240  -18.0138 C   0  0  0  0  0  0  0  0  0  0  0  0
   -8.6643    4.7117  -19.2755 N   0  0  0  0  0  0  0  0  0  0  0  0
   -9.9633    4.7387  -19.5342 C   0  0  0  0  0  0  0  0  0  0  0  0
  -10.9158    4.4813  -18.5974 C   0  0  0  0  0  0  0  0  0  0  0  0
  -10.4824    4.1353  -17.3564 C   0  0  0  0  0  0  0  0  0  0  0  0
   -9.1778    4.3532  -16.9961 C   0  0  0  0  0  0  0  0  0  0  0  0
   -8.8322    4.4560  -15.6534 C   0  0  0  0  0  0  0  0  0  0  0  0
  1  2  1  0
  2  3  1  0
  2  4  1  0
  2  5  1  0
  5  6  2  0
  6  7  1  0
  7  8  1  0
  8  9  1  0
  9 10  2  0
  9 11  1  0
 11 12  2  0
 12 13  1  0
 13 14  2  0
 14 15  1  0
 15 16  2  0
 16 17  1  0
 16 18  1  0
 18 19  2  0
 19 20  1  0
 20 21  2  0
  7 22  2  0
 22 23  1  0
 23 24  2  0
 24 25  1  0
 25 26  2  0
 26 27  1  0
 27 28  2  0
 28  5  1  0
 21 11  1  0
 27 22  1  0
 21 15  1  0
M  END
>  <fragmenstein_outcome>  (306) 
nan

>  <exports>  (306) 
['/opt/xchem-fragalysis-2/maxwin/openbind-hippo/xx01zvns2b/cycle_01/syndirella/elabs/openbind_xx01zvns2b_c1_elab_chemspace_filtered.sdf']

>  <Energy>  (306) 
nan

>  <alias>  (306) 
None

>  <fragmenstein_runtime>  (306) 
nan

>  <scratch_subdir>  (306) 
nan

>  <HIPPO Compound ID>  (306) 
142174

>  <rmsd(smina/fragmenstein)>  (306) 
1.707

>  <distance_score>  (306) 
1.440337

>  <orig_smiles>  (306) 
nan

>  <fragmenstein_mode>  (306) 
nan

>  <inchikey>  (306) 
PYBFSTHJXOUCOL-UHFFFAOYSA-N

>  <ref_pdb>  (306) 
Z0852a

>  <GNINA pK>  (306) 
nan

>  <gnina_score_min>  (306) 
6.349

>  <tags>  (306) 
openbind_xx01zvns2b_c1_elab_nonasap_filtered_scored_top80percent,openbind_xx01zvns2b_c1_elab_chemspace_filtered_scored_top80percent,openbind_xx01zvns2b_c1_elab_chemspace_filtered_scored,openbind_xx01zvns2b_c1_elab_chemspace_filtered_scored_top40percent,openbind_xx01zvns2b_c1_elab_chemspace_filtered_scored_top20percent,openbind_xx01zvns2b_c1_elab_chemspace_filtered_scored_top60percent,openbind_xx01zvns2b_c1_elabs_filtered

>  <smiles>  (306) 
CC(C)(C)c1cc(NC(=O)c2ccnc3c(F)cccc23)c2ncccc2c1

>  <subsites>  (306) 
1 - Z4590/B/203/1

>  <gnina_score>  (306) 
5.93

>  <HIPPO Pose ID>  (306) 
70254

>  <ref_mols>  (306) 
Z0917a,Z0852a

>  <energy_score>  (306) 
-8.250541

>  <inspiration_score>  (306) 
None

>  <smina_score_min>  (306) 
-6.42

>  <fragmenstein_error>  (306) 
nan

>  <name>  (306) 
P70254

$$$$
P70255
     RDKit          3D

 28 31  0  0  0  0  0  0  0  0999 V2000
   -7.6101    6.4771  -12.9288 C   0  0  0  0  0  0  0  0  0  0  0  0
   -6.7652    5.3277  -12.7790 O   0  0  0  0  0  0  0  0  0  0  0  0
   -5.9404    4.9875  -13.7999 C   0  0  0  0  0  0  0  0  0  0  0  0
   -4.7562    4.7280  -13.6344 O   0  0  0  0  0  0  0  0  0  0  0  0
   -6.5577    4.9099  -15.1467 C   0  0  0  0  0  0  0  0  0  0  0  0
   -5.7806    5.2414  -16.2554 C   0  0  0  0  0  0  0  0  0  0  0  0
   -6.2926    5.1003  -17.5520 C   0  0  0  0  0  0  0  0  0  0  0  0
   -5.3981    5.3503  -18.5927 N   0  0  0  0  0  0  0  0  0  0  0  0
   -5.3155    4.7431  -20.0177 C   0  0  0  0  0  0  0  0  0  0  0  0
   -6.0296    3.9970  -20.5665 O   0  0  0  0  0  0  0  0  0  0  0  0
   -4.1059    5.2110  -20.7397 C   0  0  0  0  0  0  0  0  0  0  0  0
   -4.3184    5.5413  -22.0733 C   0  0  0  0  0  0  0  0  0  0  0  0
   -3.2323    5.9634  -22.7818 C   0  0  0  0  0  0  0  0  0  0  0  0
   -3.3448    6.2885  -24.0927 O   0  0  0  0  0  0  0  0  0  0  0  0
   -2.0020    6.1294  -22.2881 N   0  0  0  0  0  0  0  0  0  0  0  0
   -1.8049    5.8350  -20.9953 C   0  0  0  0  0  0  0  0  0  0  0  0
   -0.5431    6.0835  -20.4771 C   0  0  0  0  0  0  0  0  0  0  0  0
   -0.2468    5.8772  -19.1329 C   0  0  0  0  0  0  0  0  0  0  0  0
   -1.2176    5.3506  -18.2986 C   0  0  0  0  0  0  0  0  0  0  0  0
   -2.4658    5.0079  -18.8140 C   0  0  0  0  0  0  0  0  0  0  0  0
   -2.8168    5.3288  -20.1520 C   0  0  0  0  0  0  0  0  0  0  0  0
   -7.6210    4.7333  -17.7616 C   0  0  0  0  0  0  0  0  0  0  0  0
   -8.1811    4.7711  -18.9742 N   0  0  0  0  0  0  0  0  0  0  0  0
   -9.4962    4.5438  -19.1058 C   0  0  0  0  0  0  0  0  0  0  0  0
  -10.3115    4.2160  -18.0544 C   0  0  0  0  0  0  0  0  0  0  0  0
   -9.7247    4.1185  -16.8093 C   0  0  0  0  0  0  0  0  0  0  0  0
   -8.3900    4.4261  -16.6297 C   0  0  0  0  0  0  0  0  0  0  0  0
   -7.8596    4.4623  -15.3364 C   0  0  0  0  0  0  0  0  0  0  0  0
  1  2  1  0
  2  3  1  0
  3  4  2  0
  3  5  1  0
  5  6  2  0
  6  7  1  0
  7  8  1  0
  8  9  1  0
  9 10  2  0
  9 11  1  0
 11 12  2  0
 12 13  1  0
 13 14  1  0
 13 15  2  0
 15 16  1  0
 16 17  2  0
 17 18  1  0
 18 19  2  0
 19 20  1  0
 20 21  2  0
  7 22  2  0
 22 23  1  0
 23 24  2  0
 24 25  1  0
 25 26  2  0
 26 27  1  0
 27 28  2  0
 28  5  1  0
 21 11  1  0
 27 22  1  0
 21 16  1  0
M  END
>  <fragmenstein_outcome>  (307) 
nan

>  <exports>  (307) 
['/opt/xchem-fragalysis-2/maxwin/openbind-hippo/xx01zvns2b/cycle_01/syndirella/elabs/openbind_xx01zvns2b_c1_elab_chemspace_filtered.sdf']

>  <Energy>  (307) 
nan

>  <alias>  (307) 
None

>  <fragmenstein_runtime>  (307) 
nan

>  <scratch_subdir>  (307) 
nan

>  <HIPPO Compound ID>  (307) 
142175

>  <rmsd(smina/fragmenstein)>  (307) 
1.254

>  <distance_score>  (307) 
1.458958

>  <orig_smiles>  (307) 
nan

>  <fragmenstein_mode>  (307) 
nan

>  <inchikey>  (307) 
YCSODAOTGGZGJW-UHFFFAOYSA-N

>  <ref_pdb>  (307) 
Z0852a

>  <GNINA pK>  (307) 
nan

>  <gnina_score_min>  (307) 
5.652

>  <tags>  (307) 
openbind_xx01zvns2b_c1_elab_nonasap_filtered_scored_top80percent,openbind_xx01zvns2b_c1_elab_chemspace_filtered_scored_top80percent,openbind_xx01zvns2b_c1_elab_chemspace_filtered_scored,openbind_xx01zvns2b_c1_elab_chemspace_filtered_scored_top40percent,openbind_xx01zvns2b_c1_elab_chemspace_filtered_scored_top20percent,openbind_xx01zvns2b_c1_elab_chemspace_filtered_scored_top60percent,openbind_xx01zvns2b_c1_elabs_filtered

>  <smiles>  (307) 
COC(=O)c1cc(NC(=O)c2cc(O)nc3ccccc23)c2ncccc2c1

>  <subsites>  (307) 
1 - Z4590/B/203/1

>  <gnina_score>  (307) 
5.497

>  <HIPPO Pose ID>  (307) 
70255

>  <ref_mols>  (307) 
Z0917a,Z0852a

>  <energy_score>  (307) 
-10.727639

>  <inspiration_score>  (307) 
None

>  <smina_score_min>  (307) 
-6.127

>  <fragmenstein_error>  (307) 
nan

>  <name>  (307) 
P70255

$$$$
P70256
     RDKit          3D

 29 32  0  0  0  0  0  0  0  0999 V2000
   -6.8651    6.9315  -13.8512 C   0  0  0  0  0  0  0  0  0  0  0  0
   -7.1641    5.4309  -13.7780 C   0  0  0  0  0  0  0  0  0  0  0  0
   -6.0040    4.6948  -13.1023 C   0  0  0  0  0  0  0  0  0  0  0  0
   -8.4081    5.2688  -12.8732 C   0  0  0  0  0  0  0  0  0  0  0  0
   -7.3457    4.9442  -15.2155 C   0  0  0  0  0  0  0  0  0  0  0  0
   -6.3281    5.0750  -16.1861 C   0  0  0  0  0  0  0  0  0  0  0  0
   -6.5612    4.8369  -17.5544 C   0  0  0  0  0  0  0  0  0  0  0  0
   -5.4785    5.0523  -18.4286 N   0  0  0  0  0  0  0  0  0  0  0  0
   -5.3045    4.6850  -19.9366 C   0  0  0  0  0  0  0  0  0  0  0  0
   -6.0037    4.0804  -20.6562 O   0  0  0  0  0  0  0  0  0  0  0  0
   -3.9834    5.1199  -20.4444 C   0  0  0  0  0  0  0  0  0  0  0  0
   -2.8493    4.7647  -19.7167 C   0  0  0  0  0  0  0  0  0  0  0  0
   -2.8893    4.1271  -18.5087 O   0  0  0  0  0  0  0  0  0  0  0  0
   -1.6236    5.0733  -20.2598 C   0  0  0  0  0  0  0  0  0  0  0  0
   -1.4698    5.7102  -21.4417 N   0  0  0  0  0  0  0  0  0  0  0  0
   -2.5603    6.0543  -22.1374 C   0  0  0  0  0  0  0  0  0  0  0  0
   -2.3746    6.7165  -23.3438 C   0  0  0  0  0  0  0  0  0  0  0  0
   -3.4493    7.1554  -24.1187 C   0  0  0  0  0  0  0  0  0  0  0  0
   -4.7415    6.9250  -23.6756 C   0  0  0  0  0  0  0  0  0  0  0  0
   -6.0753    7.4915  -24.5992 Cl  0  0  0  0  0  0  0  0  0  0  0  0
   -4.9532    6.2464  -22.4784 C   0  0  0  0  0  0  0  0  0  0  0  0
   -3.8680    5.7941  -21.6869 C   0  0  0  0  0  0  0  0  0  0  0  0
   -7.8496    4.5204  -17.9748 C   0  0  0  0  0  0  0  0  0  0  0  0
   -8.2004    4.4796  -19.2566 N   0  0  0  0  0  0  0  0  0  0  0  0
   -9.5037    4.5049  -19.5660 C   0  0  0  0  0  0  0  0  0  0  0  0
  -10.5133    4.4490  -18.6510 C   0  0  0  0  0  0  0  0  0  0  0  0
  -10.1479    4.2186  -17.3651 C   0  0  0  0  0  0  0  0  0  0  0  0
   -8.8344    4.3597  -16.9923 C   0  0  0  0  0  0  0  0  0  0  0  0
   -8.5796    4.4875  -15.6414 C   0  0  0  0  0  0  0  0  0  0  0  0
  1  2  1  0
  2  3  1  0
  2  4  1  0
  2  5  1  0
  5  6  2  0
  6  7  1  0
  7  8  1  0
  8  9  1  0
  9 10  2  0
  9 11  1  0
 11 12  2  0
 12 13  1  0
 12 14  1  0
 14 15  2  0
 15 16  1  0
 16 17  2  0
 17 18  1  0
 18 19  2  0
 19 20  1  0
 19 21  1  0
 21 22  2  0
  7 23  2  0
 23 24  1  0
 24 25  2  0
 25 26  1  0
 26 27  2  0
 27 28  1  0
 28 29  2  0
 29  5  1  0
 22 11  1  0
 28 23  1  0
 22 16  1  0
M  END
>  <fragmenstein_outcome>  (308) 
nan

>  <exports>  (308) 
['/opt/xchem-fragalysis-2/maxwin/openbind-hippo/xx01zvns2b/cycle_01/syndirella/elabs/openbind_xx01zvns2b_c1_elab_chemspace_filtered.sdf']

>  <Energy>  (308) 
nan

>  <alias>  (308) 
None

>  <fragmenstein_runtime>  (308) 
nan

>  <scratch_subdir>  (308) 
nan

>  <HIPPO Compound ID>  (308) 
142177

>  <rmsd(smina/fragmenstein)>  (308) 
1.151

>  <distance_score>  (308) 
1.250099

>  <orig_smiles>  (308) 
nan

>  <fragmenstein_mode>  (308) 
nan

>  <inchikey>  (308) 
GCXBIPOSQKBNKO-UHFFFAOYSA-N

>  <ref_pdb>  (308) 
Z0852a

>  <GNINA pK>  (308) 
nan

>  <gnina_score_min>  (308) 
6.261

>  <tags>  (308) 
openbind_xx01zvns2b_c1_elab_nonasap_filtered_scored_top80percent,openbind_xx01zvns2b_c1_elab_chemspace_filtered_scored_top80percent,openbind_xx01zvns2b_c1_elab_chemspace_filtered_scored,openbind_xx01zvns2b_c1_elab_chemspace_filtered_scored_top40percent,openbind_xx01zvns2b_c1_elab_chemspace_filtered_scored_top20percent,openbind_xx01zvns2b_c1_elab_chemspace_filtered_scored_top60percent,openbind_xx01zvns2b_c1_elabs_filtered

>  <smiles>  (308) 
CC(C)(C)c1cc(NC(=O)c2c(O)cnc3ccc(Cl)cc23)c2ncccc2c1

>  <subsites>  (308) 
1 - Z4590/B/203/1

>  <gnina_score>  (308) 
5.759

>  <HIPPO Pose ID>  (308) 
70256

>  <ref_mols>  (308) 
Z0917a,Z0852a

>  <energy_score>  (308) 
-17.236463

>  <inspiration_score>  (308) 
None

>  <smina_score_min>  (308) 
-7.461

>  <fragmenstein_error>  (308) 
nan

>  <name>  (308) 
P70256

$$$$
P70257
     RDKit          3D

 29 32  0  0  0  0  0  0  0  0999 V2000
   -6.6765    5.1917  -11.5459 C   0  0  0  0  0  0  0  0  0  0  0  0
   -7.2005    5.0745  -12.8688 O   0  0  0  0  0  0  0  0  0  0  0  0
   -6.2941    5.3000  -13.8500 C   0  0  0  0  0  0  0  0  0  0  0  0
   -5.1246    5.6144  -13.6931 O   0  0  0  0  0  0  0  0  0  0  0  0
   -6.9238    5.1460  -15.1853 C   0  0  0  0  0  0  0  0  0  0  0  0
   -6.2025    5.5323  -16.3145 C   0  0  0  0  0  0  0  0  0  0  0  0
   -6.7387    5.3476  -17.5993 C   0  0  0  0  0  0  0  0  0  0  0  0
   -5.8612    5.4908  -18.6573 N   0  0  0  0  0  0  0  0  0  0  0  0
   -5.7922    4.7400  -20.0266 C   0  0  0  0  0  0  0  0  0  0  0  0
   -6.5137    3.9446  -20.4931 O   0  0  0  0  0  0  0  0  0  0  0  0
   -4.5428    5.0990  -20.7018 C   0  0  0  0  0  0  0  0  0  0  0  0
   -4.5617    5.5657  -22.0027 C   0  0  0  0  0  0  0  0  0  0  0  0
   -3.3592    5.9949  -22.5037 C   0  0  0  0  0  0  0  0  0  0  0  0
   -2.2257    6.0460  -21.7707 N   0  0  0  0  0  0  0  0  0  0  0  0
   -2.2373    5.5914  -20.4931 C   0  0  0  0  0  0  0  0  0  0  0  0
   -1.1592    5.7577  -19.6389 C   0  0  0  0  0  0  0  0  0  0  0  0
   -0.0824    6.3860  -20.0870 F   0  0  0  0  0  0  0  0  0  0  0  0
   -1.1631    5.3974  -18.2987 C   0  0  0  0  0  0  0  0  0  0  0  0
   -0.1116    5.6788  -17.5171 F   0  0  0  0  0  0  0  0  0  0  0  0
   -2.2452    4.7436  -17.7675 C   0  0  0  0  0  0  0  0  0  0  0  0
   -3.3043    4.4730  -18.6074 C   0  0  0  0  0  0  0  0  0  0  0  0
   -3.3635    5.0149  -19.9284 C   0  0  0  0  0  0  0  0  0  0  0  0
   -8.0242    4.9078  -17.7829 C   0  0  0  0  0  0  0  0  0  0  0  0
   -8.5841    4.9597  -18.9877 N   0  0  0  0  0  0  0  0  0  0  0  0
   -9.8747    4.6649  -19.1167 C   0  0  0  0  0  0  0  0  0  0  0  0
  -10.6328    4.2061  -18.0763 C   0  0  0  0  0  0  0  0  0  0  0  0
  -10.0152    4.0881  -16.8475 C   0  0  0  0  0  0  0  0  0  0  0  0
   -8.7283    4.5197  -16.6505 C   0  0  0  0  0  0  0  0  0  0  0  0
   -8.1890    4.5991  -15.3601 C   0  0  0  0  0  0  0  0  0  0  0  0
  1  2  1  0
  2  3  1  0
  3  4  2  0
  3  5  1  0
  5  6  2  0
  6  7  1  0
  7  8  1  0
  8  9  1  0
  9 10  2  0
  9 11  1  0
 11 12  2  0
 12 13  1  0
 13 14  2  0
 14 15  1  0
 15 16  2  0
 16 17  1  0
 16 18  1  0
 18 19  1  0
 18 20  2  0
 20 21  1  0
 21 22  2  0
  7 23  2  0
 23 24  1  0
 24 25  2  0
 25 26  1  0
 26 27  2  0
 27 28  1  0
 28 29  2  0
 29  5  1  0
 22 11  1  0
 28 23  1  0
 22 15  1  0
M  END
>  <fragmenstein_outcome>  (309) 
nan

>  <exports>  (309) 
['/opt/xchem-fragalysis-2/maxwin/openbind-hippo/xx01zvns2b/cycle_01/syndirella/elabs/openbind_xx01zvns2b_c1_elab_chemspace_filtered.sdf']

>  <Energy>  (309) 
nan

>  <alias>  (309) 
None

>  <fragmenstein_runtime>  (309) 
nan

>  <scratch_subdir>  (309) 
nan

>  <HIPPO Compound ID>  (309) 
142178

>  <rmsd(smina/fragmenstein)>  (309) 
1.517

>  <distance_score>  (309) 
1.702597

>  <orig_smiles>  (309) 
nan

>  <fragmenstein_mode>  (309) 
nan

>  <inchikey>  (309) 
UADSBMQMNOSICJ-UHFFFAOYSA-N

>  <ref_pdb>  (309) 
Z0852a

>  <GNINA pK>  (309) 
nan

>  <gnina_score_min>  (309) 
6.021

>  <tags>  (309) 
openbind_xx01zvns2b_c1_elab_nonasap_filtered_scored_top80percent,openbind_xx01zvns2b_c1_elab_chemspace_filtered_scored_top80percent,openbind_xx01zvns2b_c1_elab_chemspace_filtered_scored,openbind_xx01zvns2b_c1_elab_chemspace_filtered_scored_top40percent,openbind_xx01zvns2b_c1_elab_chemspace_filtered_scored_top20percent,openbind_xx01zvns2b_c1_elab_chemspace_filtered_scored_top60percent,openbind_xx01zvns2b_c1_elabs_filtered

>  <smiles>  (309) 
COC(=O)c1cc(NC(=O)c2ccnc3c(F)c(F)ccc23)c2ncccc2c1

>  <subsites>  (309) 
1 - Z4590/B/203/1

>  <gnina_score>  (309) 
5.723

>  <HIPPO Pose ID>  (309) 
70257

>  <ref_mols>  (309) 
Z0917a,Z0852a

>  <energy_score>  (309) 
-5.218409

>  <inspiration_score>  (309) 
None

>  <smina_score_min>  (309) 
-6.188

>  <fragmenstein_error>  (309) 
nan

>  <name>  (309) 
P70257

$$$$
P70258
     RDKit          3D

 29 32  0  0  0  0  0  0  0  0999 V2000
   -3.0925    3.9253  -17.7440 C   0  0  0  0  0  0  0  0  0  0  0  0
   -2.6005    5.2718  -18.1922 C   0  0  0  0  0  0  0  0  0  0  0  0
   -2.7655    5.5519  -19.6593 C   0  0  0  0  0  0  0  0  0  0  0  0
   -1.6109    5.7844  -20.3952 C   0  0  0  0  0  0  0  0  0  0  0  0
   -1.5764    6.1309  -21.6964 N   0  0  0  0  0  0  0  0  0  0  0  0
   -2.7306    6.2560  -22.3528 C   0  0  0  0  0  0  0  0  0  0  0  0
   -2.6746    6.6587  -23.6822 C   0  0  0  0  0  0  0  0  0  0  0  0
   -3.8249    6.8520  -24.4463 C   0  0  0  0  0  0  0  0  0  0  0  0
   -5.0629    6.6280  -23.8708 C   0  0  0  0  0  0  0  0  0  0  0  0
   -5.1292    6.2042  -22.5431 C   0  0  0  0  0  0  0  0  0  0  0  0
   -3.9748    6.0153  -21.7481 C   0  0  0  0  0  0  0  0  0  0  0  0
   -3.9725    5.6271  -20.3732 C   0  0  0  0  0  0  0  0  0  0  0  0
   -5.2466    5.1082  -19.7842 C   0  0  0  0  0  0  0  0  0  0  0  0
   -5.7668    4.2347  -20.3668 O   0  0  0  0  0  0  0  0  0  0  0  0
   -5.6088    5.7686  -18.4183 N   0  0  0  0  0  0  0  0  0  0  0  0
   -6.6005    5.4332  -17.4742 C   0  0  0  0  0  0  0  0  0  0  0  0
   -6.3943    5.7841  -16.1251 C   0  0  0  0  0  0  0  0  0  0  0  0
   -7.3400    5.4496  -15.1345 C   0  0  0  0  0  0  0  0  0  0  0  0
   -7.2506    5.9242  -13.7105 C   0  0  0  0  0  0  0  0  0  0  0  0
   -8.3516    5.6132  -12.9647 F   0  0  0  0  0  0  0  0  0  0  0  0
   -7.1487    7.2816  -13.6392 F   0  0  0  0  0  0  0  0  0  0  0  0
   -6.1826    5.4216  -13.0451 F   0  0  0  0  0  0  0  0  0  0  0  0
   -8.4648    4.7307  -15.4969 C   0  0  0  0  0  0  0  0  0  0  0  0
   -8.7169    4.5153  -16.8340 C   0  0  0  0  0  0  0  0  0  0  0  0
   -9.9907    4.1319  -17.1586 C   0  0  0  0  0  0  0  0  0  0  0  0
  -10.4204    4.2411  -18.4458 C   0  0  0  0  0  0  0  0  0  0  0  0
   -9.4676    4.4748  -19.3994 C   0  0  0  0  0  0  0  0  0  0  0  0
   -8.1751    4.7018  -19.1229 N   0  0  0  0  0  0  0  0  0  0  0  0
   -7.8044    4.8321  -17.8497 C   0  0  0  0  0  0  0  0  0  0  0  0
  1  2  1  0
  2  3  1  0
  3  4  2  0
  4  5  1  0
  5  6  2  0
  6  7  1  0
  7  8  2  0
  8  9  1  0
  9 10  2  0
 10 11  1  0
 11 12  2  0
 12 13  1  0
 13 14  2  0
 13 15  1  0
 15 16  1  0
 16 17  2  0
 17 18  1  0
 18 19  1  0
 19 20  1  0
 19 21  1  0
 19 22  1  0
 18 23  2  0
 23 24  1  0
 24 25  2  0
 25 26  1  0
 26 27  2  0
 27 28  1  0
 28 29  2  0
 12  3  1  0
 29 16  1  0
 11  6  1  0
 29 24  1  0
M  END
>  <fragmenstein_outcome>  (310) 
nan

>  <exports>  (310) 
['/opt/xchem-fragalysis-2/maxwin/openbind-hippo/xx01zvns2b/cycle_01/syndirella/elabs/openbind_xx01zvns2b_c1_elab_chemspace_filtered.sdf']

>  <Energy>  (310) 
nan

>  <alias>  (310) 
None

>  <fragmenstein_runtime>  (310) 
nan

>  <scratch_subdir>  (310) 
nan

>  <HIPPO Compound ID>  (310) 
142180

>  <rmsd(smina/fragmenstein)>  (310) 
1.291

>  <distance_score>  (310) 
1.185925

>  <orig_smiles>  (310) 
nan

>  <fragmenstein_mode>  (310) 
nan

>  <inchikey>  (310) 
KKXZWLCIKCXJRZ-UHFFFAOYSA-N

>  <ref_pdb>  (310) 
Z0852a

>  <GNINA pK>  (310) 
nan

>  <gnina_score_min>  (310) 
6.046

>  <tags>  (310) 
openbind_xx01zvns2b_c1_elab_nonasap_filtered_scored_top80percent,openbind_xx01zvns2b_c1_elab_chemspace_filtered_scored_top80percent,openbind_xx01zvns2b_c1_elab_chemspace_filtered_scored,openbind_xx01zvns2b_c1_elab_chemspace_filtered_scored_top40percent,openbind_xx01zvns2b_c1_elab_chemspace_filtered_scored_top20percent,openbind_xx01zvns2b_c1_elab_chemspace_filtered_scored_top60percent,openbind_xx01zvns2b_c1_elabs_filtered

>  <smiles>  (310) 
CCc1cnc2ccccc2c1C(=O)Nc1cc(C(F)(F)F)cc2cccnc12

>  <subsites>  (310) 
1 - Z4590/B/203/1

>  <gnina_score>  (310) 
5.552

>  <HIPPO Pose ID>  (310) 
70258

>  <ref_mols>  (310) 
Z0917a,Z0852a

>  <energy_score>  (310) 
-6.288121

>  <inspiration_score>  (310) 
None

>  <smina_score_min>  (310) 
-6.521

>  <fragmenstein_error>  (310) 
nan

>  <name>  (310) 
P70258

$$$$
P70259
     RDKit          3D

 29 32  0  0  0  0  0  0  0  0999 V2000
   -3.1097    3.9230  -17.8044 C   0  0  0  0  0  0  0  0  0  0  0  0
   -2.6584    5.2824  -18.2536 C   0  0  0  0  0  0  0  0  0  0  0  0
   -2.8032    5.5414  -19.7270 C   0  0  0  0  0  0  0  0  0  0  0  0
   -1.6387    5.7704  -20.4477 C   0  0  0  0  0  0  0  0  0  0  0  0
   -1.5867    6.1131  -21.7492 N   0  0  0  0  0  0  0  0  0  0  0  0
   -2.7326    6.2410  -22.4197 C   0  0  0  0  0  0  0  0  0  0  0  0
   -2.6590    6.6481  -23.7470 C   0  0  0  0  0  0  0  0  0  0  0  0
   -3.7990    6.8507  -24.5242 C   0  0  0  0  0  0  0  0  0  0  0  0
   -5.0454    6.6338  -23.9639 C   0  0  0  0  0  0  0  0  0  0  0  0
   -5.1301    6.2051  -22.6389 C   0  0  0  0  0  0  0  0  0  0  0  0
   -3.9854    6.0016  -21.8320 C   0  0  0  0  0  0  0  0  0  0  0  0
   -4.0003    5.6049  -20.4599 C   0  0  0  0  0  0  0  0  0  0  0  0
   -5.2845    5.0852  -19.8900 C   0  0  0  0  0  0  0  0  0  0  0  0
   -5.8267    4.2425  -20.4965 O   0  0  0  0  0  0  0  0  0  0  0  0
   -5.6402    5.7289  -18.5166 N   0  0  0  0  0  0  0  0  0  0  0  0
   -6.6534    5.4089  -17.5917 C   0  0  0  0  0  0  0  0  0  0  0  0
   -6.4586    5.7800  -16.2485 C   0  0  0  0  0  0  0  0  0  0  0  0
   -7.4018    5.4711  -15.2404 C   0  0  0  0  0  0  0  0  0  0  0  0
   -7.1996    5.8522  -13.7776 C   0  0  0  0  0  0  0  0  0  0  0  0
   -6.0445    4.9937  -13.2766 C   0  0  0  0  0  0  0  0  0  0  0  0
   -8.4209    5.5926  -12.8621 C   0  0  0  0  0  0  0  0  0  0  0  0
   -6.8644    7.3460  -13.6331 C   0  0  0  0  0  0  0  0  0  0  0  0
   -8.5304    4.7640  -15.6107 C   0  0  0  0  0  0  0  0  0  0  0  0
   -8.7790    4.5309  -16.9439 C   0  0  0  0  0  0  0  0  0  0  0  0
  -10.0608    4.1726  -17.2640 C   0  0  0  0  0  0  0  0  0  0  0  0
  -10.4862    4.3118  -18.5454 C   0  0  0  0  0  0  0  0  0  0  0  0
   -9.5206    4.4878  -19.4975 C   0  0  0  0  0  0  0  0  0  0  0  0
   -8.2192    4.6523  -19.2265 N   0  0  0  0  0  0  0  0  0  0  0  0
   -7.8551    4.8099  -17.9582 C   0  0  0  0  0  0  0  0  0  0  0  0
  1  2  1  0
  2  3  1  0
  3  4  2  0
  4  5  1  0
  5  6  2  0
  6  7  1  0
  7  8  2  0
  8  9  1  0
  9 10  2  0
 10 11  1  0
 11 12  2  0
 12 13  1  0
 13 14  2  0
 13 15  1  0
 15 16  1  0
 16 17  2  0
 17 18  1  0
 18 19  1  0
 19 20  1  0
 19 21  1  0
 19 22  1  0
 18 23  2  0
 23 24  1  0
 24 25  2  0
 25 26  1  0
 26 27  2  0
 27 28  1  0
 28 29  2  0
 12  3  1  0
 29 16  1  0
 11  6  1  0
 29 24  1  0
M  END
>  <fragmenstein_outcome>  (311) 
nan

>  <exports>  (311) 
['/opt/xchem-fragalysis-2/maxwin/openbind-hippo/xx01zvns2b/cycle_01/syndirella/elabs/openbind_xx01zvns2b_c1_elab_chemspace_filtered.sdf']

>  <Energy>  (311) 
nan

>  <alias>  (311) 
None

>  <fragmenstein_runtime>  (311) 
nan

>  <scratch_subdir>  (311) 
nan

>  <HIPPO Compound ID>  (311) 
142181

>  <rmsd(smina/fragmenstein)>  (311) 
1.28

>  <distance_score>  (311) 
1.618291

>  <orig_smiles>  (311) 
nan

>  <fragmenstein_mode>  (311) 
nan

>  <inchikey>  (311) 
CMOSHKIDHFECAB-UHFFFAOYSA-N

>  <ref_pdb>  (311) 
Z0852a

>  <GNINA pK>  (311) 
nan

>  <gnina_score_min>  (311) 
6.299

>  <tags>  (311) 
openbind_xx01zvns2b_c1_elab_nonasap_filtered_scored_top80percent,openbind_xx01zvns2b_c1_elab_chemspace_filtered_scored_top80percent,openbind_xx01zvns2b_c1_elab_chemspace_filtered_scored,openbind_xx01zvns2b_c1_elab_chemspace_filtered_scored_top40percent,openbind_xx01zvns2b_c1_elab_chemspace_filtered_scored_top20percent,openbind_xx01zvns2b_c1_elab_chemspace_filtered_scored_top60percent,openbind_xx01zvns2b_c1_elabs_filtered

>  <smiles>  (311) 
CCc1cnc2ccccc2c1C(=O)Nc1cc(C(C)(C)C)cc2cccnc12

>  <subsites>  (311) 
1 - Z4590/B/203/1

>  <gnina_score>  (311) 
5.655

>  <HIPPO Pose ID>  (311) 
70259

>  <ref_mols>  (311) 
Z0917a,Z0852a

>  <energy_score>  (311) 
-20.072716

>  <inspiration_score>  (311) 
None

>  <smina_score_min>  (311) 
-6.576

>  <fragmenstein_error>  (311) 
nan

>  <name>  (311) 
P70259

$$$$
P70260
     RDKit          3D

 29 32  0  0  0  0  0  0  0  0999 V2000
   -5.7367    6.4446  -13.6075 C   0  0  0  0  0  0  0  0  0  0  0  0
   -7.0718    5.7248  -13.7789 C   0  0  0  0  0  0  0  0  0  0  0  0
   -7.0793    4.5136  -12.8348 C   0  0  0  0  0  0  0  0  0  0  0  0
   -8.1663    6.7210  -13.3429 C   0  0  0  0  0  0  0  0  0  0  0  0
   -7.2838    5.2713  -15.2204 C   0  0  0  0  0  0  0  0  0  0  0  0
   -6.3471    5.4756  -16.2493 C   0  0  0  0  0  0  0  0  0  0  0  0
   -6.6178    5.1340  -17.5840 C   0  0  0  0  0  0  0  0  0  0  0  0
   -5.5990    5.3729  -18.5104 N   0  0  0  0  0  0  0  0  0  0  0  0
   -5.3277    4.7319  -19.8990 C   0  0  0  0  0  0  0  0  0  0  0  0
   -5.9573    3.9615  -20.5149 O   0  0  0  0  0  0  0  0  0  0  0  0
   -4.0409    5.1934  -20.4849 C   0  0  0  0  0  0  0  0  0  0  0  0
   -4.0900    5.4453  -21.8562 C   0  0  0  0  0  0  0  0  0  0  0  0
   -2.9461    5.8986  -22.4568 C   0  0  0  0  0  0  0  0  0  0  0  0
   -2.9124    6.1943  -23.7869 O   0  0  0  0  0  0  0  0  0  0  0  0
   -1.8084    6.1464  -21.7982 N   0  0  0  0  0  0  0  0  0  0  0  0
   -1.7602    5.9117  -20.4806 C   0  0  0  0  0  0  0  0  0  0  0  0
   -0.5916    6.2568  -19.8145 C   0  0  0  0  0  0  0  0  0  0  0  0
   -0.4746    6.1648  -18.4270 C   0  0  0  0  0  0  0  0  0  0  0  0
   -1.5265    5.6381  -17.6980 C   0  0  0  0  0  0  0  0  0  0  0  0
   -1.4712    5.6534  -15.8061 Br  0  0  0  0  0  0  0  0  0  0  0  0
   -2.6613    5.1657  -18.3534 C   0  0  0  0  0  0  0  0  0  0  0  0
   -2.8453    5.3943  -19.7459 C   0  0  0  0  0  0  0  0  0  0  0  0
   -7.8755    4.6739  -17.9334 C   0  0  0  0  0  0  0  0  0  0  0  0
   -8.2710    4.6008  -19.2017 N   0  0  0  0  0  0  0  0  0  0  0  0
   -9.5816    4.5110  -19.4537 C   0  0  0  0  0  0  0  0  0  0  0  0
  -10.5328    4.3271  -18.4889 C   0  0  0  0  0  0  0  0  0  0  0  0
  -10.0878    4.1573  -17.2128 C   0  0  0  0  0  0  0  0  0  0  0  0
   -8.7871    4.4504  -16.8978 C   0  0  0  0  0  0  0  0  0  0  0  0
   -8.4831    4.6640  -15.5632 C   0  0  0  0  0  0  0  0  0  0  0  0
  1  2  1  0
  2  3  1  0
  2  4  1  0
  2  5  1  0
  5  6  2  0
  6  7  1  0
  7  8  1  0
  8  9  1  0
  9 10  2  0
  9 11  1  0
 11 12  2  0
 12 13  1  0
 13 14  1  0
 13 15  2  0
 15 16  1  0
 16 17  2  0
 17 18  1  0
 18 19  2  0
 19 20  1  0
 19 21  1  0
 21 22  2  0
  7 23  2  0
 23 24  1  0
 24 25  2  0
 25 26  1  0
 26 27  2  0
 27 28  1  0
 28 29  2  0
 29  5  1  0
 22 11  1  0
 28 23  1  0
 22 16  1  0
M  END
>  <fragmenstein_outcome>  (312) 
nan

>  <exports>  (312) 
['/opt/xchem-fragalysis-2/maxwin/openbind-hippo/xx01zvns2b/cycle_01/syndirella/elabs/openbind_xx01zvns2b_c1_elab_chemspace_filtered.sdf']

>  <Energy>  (312) 
nan

>  <alias>  (312) 
None

>  <fragmenstein_runtime>  (312) 
nan

>  <scratch_subdir>  (312) 
nan

>  <HIPPO Compound ID>  (312) 
142182

>  <rmsd(smina/fragmenstein)>  (312) 
2.331

>  <distance_score>  (312) 
1.416391

>  <orig_smiles>  (312) 
nan

>  <fragmenstein_mode>  (312) 
nan

>  <inchikey>  (312) 
YUWKXODWFWSLQK-UHFFFAOYSA-N

>  <ref_pdb>  (312) 
Z0852a

>  <GNINA pK>  (312) 
nan

>  <gnina_score_min>  (312) 
6.139

>  <tags>  (312) 
openbind_xx01zvns2b_c1_elab_nonasap_filtered_scored_top80percent,openbind_xx01zvns2b_c1_elab_chemspace_filtered_scored_top80percent,openbind_xx01zvns2b_c1_elab_chemspace_filtered_scored,openbind_xx01zvns2b_c1_elab_chemspace_filtered_scored_top40percent,openbind_xx01zvns2b_c1_elab_chemspace_filtered_scored_top20percent,openbind_xx01zvns2b_c1_elab_chemspace_filtered_scored_top60percent,openbind_xx01zvns2b_c1_elabs_filtered

>  <smiles>  (312) 
CC(C)(C)c1cc(NC(=O)c2cc(O)nc3ccc(Br)cc23)c2ncccc2c1

>  <subsites>  (312) 
1 - Z4590/B/203/1

>  <gnina_score>  (312) 
5.867

>  <HIPPO Pose ID>  (312) 
70260

>  <ref_mols>  (312) 
Z0917a,Z0852a

>  <energy_score>  (312) 
-11.576611

>  <inspiration_score>  (312) 
None

>  <smina_score_min>  (312) 
-6.635

>  <fragmenstein_error>  (312) 
nan

>  <name>  (312) 
P70260

$$$$
P70261
     RDKit          3D

 29 32  0  0  0  0  0  0  0  0999 V2000
   -0.2766    5.8802  -15.5481 C   0  0  0  0  0  0  0  0  0  0  0  0
   -1.4282    5.4180  -16.2456 O   0  0  0  0  0  0  0  0  0  0  0  0
   -1.4296    5.5752  -17.6038 C   0  0  0  0  0  0  0  0  0  0  0  0
   -0.3974    6.0932  -18.3696 C   0  0  0  0  0  0  0  0  0  0  0  0
   -0.5605    6.2157  -19.7521 C   0  0  0  0  0  0  0  0  0  0  0  0
   -1.7500    5.8950  -20.3885 C   0  0  0  0  0  0  0  0  0  0  0  0
   -1.8203    6.1115  -21.7111 N   0  0  0  0  0  0  0  0  0  0  0  0
   -2.9756    5.8556  -22.3488 C   0  0  0  0  0  0  0  0  0  0  0  0
   -4.1064    5.4248  -21.7046 C   0  0  0  0  0  0  0  0  0  0  0  0
   -4.0347    5.1977  -20.3269 C   0  0  0  0  0  0  0  0  0  0  0  0
   -5.3037    4.7229  -19.7166 C   0  0  0  0  0  0  0  0  0  0  0  0
   -5.9396    3.9737  -20.3544 O   0  0  0  0  0  0  0  0  0  0  0  0
   -5.5874    5.3541  -18.3208 N   0  0  0  0  0  0  0  0  0  0  0  0
   -6.6308    5.1257  -17.4145 C   0  0  0  0  0  0  0  0  0  0  0  0
   -6.4283    5.4660  -16.0647 C   0  0  0  0  0  0  0  0  0  0  0  0
   -7.4361    5.2472  -15.1088 C   0  0  0  0  0  0  0  0  0  0  0  0
   -7.3412    5.7461  -13.6940 C   0  0  0  0  0  0  0  0  0  0  0  0
   -6.2710    5.2528  -13.0226 F   0  0  0  0  0  0  0  0  0  0  0  0
   -7.2338    7.1048  -13.6449 F   0  0  0  0  0  0  0  0  0  0  0  0
   -8.4388    5.4504  -12.9387 F   0  0  0  0  0  0  0  0  0  0  0  0
   -8.6162    4.6419  -15.5089 C   0  0  0  0  0  0  0  0  0  0  0  0
   -8.8492    4.4431  -16.8562 C   0  0  0  0  0  0  0  0  0  0  0  0
  -10.1354    4.1671  -17.2420 C   0  0  0  0  0  0  0  0  0  0  0  0
  -10.5147    4.3534  -18.5346 C   0  0  0  0  0  0  0  0  0  0  0  0
   -9.5151    4.5162  -19.4485 C   0  0  0  0  0  0  0  0  0  0  0  0
   -8.2200    4.6138  -19.1234 N   0  0  0  0  0  0  0  0  0  0  0  0
   -7.8807    4.6753  -17.8361 C   0  0  0  0  0  0  0  0  0  0  0  0
   -2.8226    5.3978  -19.6237 C   0  0  0  0  0  0  0  0  0  0  0  0
   -2.6013    5.1608  -18.2404 C   0  0  0  0  0  0  0  0  0  0  0  0
  1  2  1  0
  2  3  1  0
  3  4  2  0
  4  5  1  0
  5  6  2  0
  6  7  1  0
  7  8  2  0
  8  9  1  0
  9 10  2  0
 10 11  1  0
 11 12  2  0
 11 13  1  0
 13 14  1  0
 14 15  2  0
 15 16  1  0
 16 17  1  0
 17 18  1  0
 17 19  1  0
 17 20  1  0
 16 21  2  0
 21 22  1  0
 22 23  2  0
 23 24  1  0
 24 25  2  0
 25 26  1  0
 26 27  2  0
 10 28  1  0
 28 29  2  0
 29  3  1  0
 28  6  1  0
 27 14  1  0
 27 22  1  0
M  END
>  <fragmenstein_outcome>  (313) 
nan

>  <exports>  (313) 
['/opt/xchem-fragalysis-2/maxwin/openbind-hippo/xx01zvns2b/cycle_01/syndirella/elabs/openbind_xx01zvns2b_c1_elab_chemspace_filtered.sdf']

>  <Energy>  (313) 
nan

>  <alias>  (313) 
None

>  <fragmenstein_runtime>  (313) 
nan

>  <scratch_subdir>  (313) 
nan

>  <HIPPO Compound ID>  (313) 
142183

>  <rmsd(smina/fragmenstein)>  (313) 
2.131

>  <distance_score>  (313) 
1.06397

>  <orig_smiles>  (313) 
nan

>  <fragmenstein_mode>  (313) 
nan

>  <inchikey>  (313) 
XMFYKWJZHPYMSA-UHFFFAOYSA-N

>  <ref_pdb>  (313) 
Z0852a

>  <GNINA pK>  (313) 
nan

>  <gnina_score_min>  (313) 
5.812

>  <tags>  (313) 
openbind_xx01zvns2b_c1_elab_nonasap_filtered_scored_top80percent,openbind_xx01zvns2b_c1_elab_chemspace_filtered_scored_top80percent,openbind_xx01zvns2b_c1_elab_chemspace_filtered_scored,openbind_xx01zvns2b_c1_elab_chemspace_filtered_scored_top40percent,openbind_xx01zvns2b_c1_elab_chemspace_filtered_scored_top20percent,openbind_xx01zvns2b_c1_elab_chemspace_filtered_scored_top60percent,openbind_xx01zvns2b_c1_elabs_filtered

>  <smiles>  (313) 
COc1ccc2nccc(C(=O)Nc3cc(C(F)(F)F)cc4cccnc34)c2c1

>  <subsites>  (313) 
1 - Z4590/B/203/1

>  <gnina_score>  (313) 
5.701

>  <HIPPO Pose ID>  (313) 
70261

>  <ref_mols>  (313) 
Z0917a,Z0852a

>  <energy_score>  (313) 
-14.350075

>  <inspiration_score>  (313) 
None

>  <smina_score_min>  (313) 
-6.144

>  <fragmenstein_error>  (313) 
nan

>  <name>  (313) 
P70261

$$$$
P70262
     RDKit          3D

 29 32  0  0  0  0  0  0  0  0999 V2000
   -6.6640    5.1933  -11.5514 C   0  0  0  0  0  0  0  0  0  0  0  0
   -7.1876    5.0505  -12.8718 O   0  0  0  0  0  0  0  0  0  0  0  0
   -6.2898    5.3003  -13.8559 C   0  0  0  0  0  0  0  0  0  0  0  0
   -5.1287    5.6445  -13.6989 O   0  0  0  0  0  0  0  0  0  0  0  0
   -6.9182    5.1339  -15.1908 C   0  0  0  0  0  0  0  0  0  0  0  0
   -6.1952    5.5099  -16.3222 C   0  0  0  0  0  0  0  0  0  0  0  0
   -6.7295    5.3159  -17.6064 C   0  0  0  0  0  0  0  0  0  0  0  0
   -5.8446    5.4507  -18.6583 N   0  0  0  0  0  0  0  0  0  0  0  0
   -5.7944    4.7242  -20.0402 C   0  0  0  0  0  0  0  0  0  0  0  0
   -6.5386    3.9611  -20.5236 O   0  0  0  0  0  0  0  0  0  0  0  0
   -4.5302    5.0600  -20.7005 C   0  0  0  0  0  0  0  0  0  0  0  0
   -4.5376    5.5145  -22.0047 C   0  0  0  0  0  0  0  0  0  0  0  0
   -3.3287    5.9397  -22.4863 C   0  0  0  0  0  0  0  0  0  0  0  0
   -3.1813    6.5398  -24.0851 Cl  0  0  0  0  0  0  0  0  0  0  0  0
   -2.2024    6.0118  -21.7509 N   0  0  0  0  0  0  0  0  0  0  0  0
   -2.2323    5.5701  -20.4709 C   0  0  0  0  0  0  0  0  0  0  0  0
   -1.1703    5.7508  -19.5976 C   0  0  0  0  0  0  0  0  0  0  0  0
   -0.0879    6.3762  -20.0348 F   0  0  0  0  0  0  0  0  0  0  0  0
   -1.1735    5.4089  -18.2481 C   0  0  0  0  0  0  0  0  0  0  0  0
   -2.2615    4.7490  -17.7330 C   0  0  0  0  0  0  0  0  0  0  0  0
   -3.3089    4.4666  -18.5858 C   0  0  0  0  0  0  0  0  0  0  0  0
   -3.3598    4.9927  -19.9129 C   0  0  0  0  0  0  0  0  0  0  0  0
   -8.0173    4.8843  -17.7882 C   0  0  0  0  0  0  0  0  0  0  0  0
   -8.5785    4.9429  -18.9917 N   0  0  0  0  0  0  0  0  0  0  0  0
   -9.8719    4.6602  -19.1191 C   0  0  0  0  0  0  0  0  0  0  0  0
  -10.6327    4.2081  -18.0777 C   0  0  0  0  0  0  0  0  0  0  0  0
  -10.0151    4.0864  -16.8494 C   0  0  0  0  0  0  0  0  0  0  0  0
   -8.7244    4.5076  -16.6539 C   0  0  0  0  0  0  0  0  0  0  0  0
   -8.1853    4.5907  -15.3635 C   0  0  0  0  0  0  0  0  0  0  0  0
  1  2  1  0
  2  3  1  0
  3  4  2  0
  3  5  1  0
  5  6  2  0
  6  7  1  0
  7  8  1  0
  8  9  1  0
  9 10  2  0
  9 11  1  0
 11 12  2  0
 12 13  1  0
 13 14  1  0
 13 15  2  0
 15 16  1  0
 16 17  2  0
 17 18  1  0
 17 19  1  0
 19 20  2  0
 20 21  1  0
 21 22  2  0
  7 23  2  0
 23 24  1  0
 24 25  2  0
 25 26  1  0
 26 27  2  0
 27 28  1  0
 28 29  2  0
 29  5  1  0
 22 11  1  0
 28 23  1  0
 22 16  1  0
M  END
>  <fragmenstein_outcome>  (314) 
nan

>  <exports>  (314) 
['/opt/xchem-fragalysis-2/maxwin/openbind-hippo/xx01zvns2b/cycle_01/syndirella/elabs/openbind_xx01zvns2b_c1_elab_chemspace_filtered.sdf']

>  <Energy>  (314) 
nan

>  <alias>  (314) 
None

>  <fragmenstein_runtime>  (314) 
nan

>  <scratch_subdir>  (314) 
nan

>  <HIPPO Compound ID>  (314) 
142184

>  <rmsd(smina/fragmenstein)>  (314) 
1.523

>  <distance_score>  (314) 
1.60141

>  <orig_smiles>  (314) 
nan

>  <fragmenstein_mode>  (314) 
nan

>  <inchikey>  (314) 
ZMBXYVITZXUFKN-UHFFFAOYSA-N

>  <ref_pdb>  (314) 
Z0852a

>  <GNINA pK>  (314) 
nan

>  <gnina_score_min>  (314) 
6.054

>  <tags>  (314) 
openbind_xx01zvns2b_c1_elab_nonasap_filtered_scored_top80percent,openbind_xx01zvns2b_c1_elab_chemspace_filtered_scored_top80percent,openbind_xx01zvns2b_c1_elab_chemspace_filtered_scored,openbind_xx01zvns2b_c1_elab_chemspace_filtered_scored_top40percent,openbind_xx01zvns2b_c1_elab_chemspace_filtered_scored_top20percent,openbind_xx01zvns2b_c1_elab_chemspace_filtered_scored_top60percent,openbind_xx01zvns2b_c1_elabs_filtered

>  <smiles>  (314) 
COC(=O)c1cc(NC(=O)c2cc(Cl)nc3c(F)cccc23)c2ncccc2c1

>  <subsites>  (314) 
1 - Z4590/B/203/1

>  <gnina_score>  (314) 
5.67

>  <HIPPO Pose ID>  (314) 
70262

>  <ref_mols>  (314) 
Z0917a,Z0852a

>  <energy_score>  (314) 
-5.302622

>  <inspiration_score>  (314) 
None

>  <smina_score_min>  (314) 
-6.226

>  <fragmenstein_error>  (314) 
nan

>  <name>  (314) 
P70262

$$$$
P70263
     RDKit          3D

 29 32  0  0  0  0  0  0  0  0999 V2000
   -6.3732    5.0270  -11.5189 C   0  0  0  0  0  0  0  0  0  0  0  0
   -6.8843    4.9212  -12.8479 O   0  0  0  0  0  0  0  0  0  0  0  0
   -5.9594    5.1169  -13.8182 C   0  0  0  0  0  0  0  0  0  0  0  0
   -4.7827    5.3943  -13.6448 O   0  0  0  0  0  0  0  0  0  0  0  0
   -6.5734    4.9750  -15.1638 C   0  0  0  0  0  0  0  0  0  0  0  0
   -5.7988    5.2854  -16.2833 C   0  0  0  0  0  0  0  0  0  0  0  0
   -6.3067    5.1132  -17.5788 C   0  0  0  0  0  0  0  0  0  0  0  0
   -5.4117    5.3375  -18.6259 N   0  0  0  0  0  0  0  0  0  0  0  0
   -5.3428    4.7097  -20.0476 C   0  0  0  0  0  0  0  0  0  0  0  0
   -6.0701    3.9668  -20.5848 O   0  0  0  0  0  0  0  0  0  0  0  0
   -4.0808    5.1674  -20.7091 C   0  0  0  0  0  0  0  0  0  0  0  0
   -4.2596    5.4570  -22.0069 C   0  0  0  0  0  0  0  0  0  0  0  0
   -3.1407    5.8818  -22.8595 C   0  0  0  0  0  0  0  0  0  0  0  0
   -3.3068    6.0971  -24.0547 O   0  0  0  0  0  0  0  0  0  0  0  0
   -1.9385    6.0506  -22.2448 N   0  0  0  0  0  0  0  0  0  0  0  0
   -1.7029    5.8096  -20.8833 C   0  0  0  0  0  0  0  0  0  0  0  0
   -0.4413    6.0852  -20.3345 C   0  0  0  0  0  0  0  0  0  0  0  0
    0.9763    6.7839  -21.3876 Br  0  0  0  0  0  0  0  0  0  0  0  0
   -0.2174    5.8895  -18.9768 C   0  0  0  0  0  0  0  0  0  0  0  0
   -1.2331    5.3605  -18.1874 C   0  0  0  0  0  0  0  0  0  0  0  0
   -2.4616    5.0030  -18.7500 C   0  0  0  0  0  0  0  0  0  0  0  0
   -2.7474    5.3054  -20.0877 C   0  0  0  0  0  0  0  0  0  0  0  0
   -7.6317    4.7370  -17.7816 C   0  0  0  0  0  0  0  0  0  0  0  0
   -8.1853    4.7443  -18.9968 N   0  0  0  0  0  0  0  0  0  0  0  0
   -9.5012    4.5226  -19.1257 C   0  0  0  0  0  0  0  0  0  0  0  0
  -10.3189    4.2125  -18.0707 C   0  0  0  0  0  0  0  0  0  0  0  0
   -9.7344    4.1359  -16.8236 C   0  0  0  0  0  0  0  0  0  0  0  0
   -8.4031    4.4564  -16.6458 C   0  0  0  0  0  0  0  0  0  0  0  0
   -7.8802    4.5356  -15.3510 C   0  0  0  0  0  0  0  0  0  0  0  0
  1  2  1  0
  2  3  1  0
  3  4  2  0
  3  5  1  0
  5  6  2  0
  6  7  1  0
  7  8  1  0
  8  9  1  0
  9 10  2  0
  9 11  1  0
 11 12  2  0
 12 13  1  0
 13 14  2  0
 13 15  1  0
 15 16  1  0
 16 17  2  0
 17 18  1  0
 17 19  1  0
 19 20  2  0
 20 21  1  0
 21 22  2  0
  7 23  2  0
 23 24  1  0
 24 25  2  0
 25 26  1  0
 26 27  2  0
 27 28  1  0
 28 29  2  0
 29  5  1  0
 22 11  1  0
 28 23  1  0
 22 16  1  0
M  END
>  <fragmenstein_outcome>  (315) 
nan

>  <exports>  (315) 
['/opt/xchem-fragalysis-2/maxwin/openbind-hippo/xx01zvns2b/cycle_01/syndirella/elabs/openbind_xx01zvns2b_c1_elab_chemspace_filtered.sdf']

>  <Energy>  (315) 
nan

>  <alias>  (315) 
None

>  <fragmenstein_runtime>  (315) 
nan

>  <scratch_subdir>  (315) 
nan

>  <HIPPO Compound ID>  (315) 
142186

>  <rmsd(smina/fragmenstein)>  (315) 
0.868

>  <distance_score>  (315) 
1.589782

>  <orig_smiles>  (315) 
nan

>  <fragmenstein_mode>  (315) 
nan

>  <inchikey>  (315) 
BRTQUPNNKCVCPS-UHFFFAOYSA-N

>  <ref_pdb>  (315) 
Z0852a

>  <GNINA pK>  (315) 
nan

>  <gnina_score_min>  (315) 
5.985

>  <tags>  (315) 
openbind_xx01zvns2b_c1_elab_nonasap_filtered_scored_top80percent,openbind_xx01zvns2b_c1_elab_chemspace_filtered_scored_top80percent,openbind_xx01zvns2b_c1_elab_chemspace_filtered_scored,openbind_xx01zvns2b_c1_elab_chemspace_filtered_scored_top40percent,openbind_xx01zvns2b_c1_elab_chemspace_filtered_scored_top20percent,openbind_xx01zvns2b_c1_elab_chemspace_filtered_scored_top60percent,openbind_xx01zvns2b_c1_elabs_filtered

>  <smiles>  (315) 
COC(=O)c1cc(NC(=O)c2cc(=O)[nH]c3c(Br)cccc23)c2ncccc2c1

>  <subsites>  (315) 
1 - Z4590/B/203/1

>  <gnina_score>  (315) 
5.828

>  <HIPPO Pose ID>  (315) 
70263

>  <ref_mols>  (315) 
Z0917a,Z0852a

>  <energy_score>  (315) 
-23.858289

>  <inspiration_score>  (315) 
None

>  <smina_score_min>  (315) 
-6.427

>  <fragmenstein_error>  (315) 
nan

>  <name>  (315) 
P70263

$$$$
P70264
     RDKit          3D

 29 32  0  0  0  0  0  0  0  0999 V2000
   -6.0568    3.9345  -20.4238 O   0  0  0  0  0  0  0  0  0  0  0  0
   -5.3906    4.6762  -19.8072 C   0  0  0  0  0  0  0  0  0  0  0  0
   -5.6257    5.3203  -18.4034 N   0  0  0  0  0  0  0  0  0  0  0  0
   -6.6487    5.1132  -17.4668 C   0  0  0  0  0  0  0  0  0  0  0  0
   -6.4234    5.4566  -16.1214 C   0  0  0  0  0  0  0  0  0  0  0  0
   -7.4182    5.2414  -15.1481 C   0  0  0  0  0  0  0  0  0  0  0  0
   -7.3082    5.7476  -13.7356 C   0  0  0  0  0  0  0  0  0  0  0  0
   -8.3925    5.4471  -12.9634 F   0  0  0  0  0  0  0  0  0  0  0  0
   -6.2237    5.2681  -13.0779 F   0  0  0  0  0  0  0  0  0  0  0  0
   -7.2117    7.1075  -13.6958 F   0  0  0  0  0  0  0  0  0  0  0  0
   -8.6049    4.6338  -15.5265 C   0  0  0  0  0  0  0  0  0  0  0  0
   -8.8610    4.4372  -16.8693 C   0  0  0  0  0  0  0  0  0  0  0  0
  -10.1522    4.1607  -17.2378 C   0  0  0  0  0  0  0  0  0  0  0  0
  -10.5530    4.3596  -18.5225 C   0  0  0  0  0  0  0  0  0  0  0  0
   -9.5685    4.5407  -19.4491 C   0  0  0  0  0  0  0  0  0  0  0  0
   -8.2688    4.6274  -19.1427 N   0  0  0  0  0  0  0  0  0  0  0  0
   -7.9090    4.6728  -17.8625 C   0  0  0  0  0  0  0  0  0  0  0  0
   -4.0968    5.1595  -20.3837 C   0  0  0  0  0  0  0  0  0  0  0  0
   -4.1837    5.3925  -21.7048 C   0  0  0  0  0  0  0  0  0  0  0  0
   -3.0189    5.8150  -22.4954 C   0  0  0  0  0  0  0  0  0  0  0  0
   -3.1087    5.9961  -23.7043 O   0  0  0  0  0  0  0  0  0  0  0  0
   -1.8641    6.0214  -21.8048 N   0  0  0  0  0  0  0  0  0  0  0  0
   -1.7210    5.8246  -20.4221 C   0  0  0  0  0  0  0  0  0  0  0  0
   -0.5019    6.1208  -19.7948 C   0  0  0  0  0  0  0  0  0  0  0  0
    0.9828    6.7987  -20.7650 Br  0  0  0  0  0  0  0  0  0  0  0  0
   -0.3674    5.9516  -18.4203 C   0  0  0  0  0  0  0  0  0  0  0  0
   -1.4290    5.4296  -17.6867 C   0  0  0  0  0  0  0  0  0  0  0  0
   -2.6195    5.0655  -18.3214 C   0  0  0  0  0  0  0  0  0  0  0  0
   -2.8141    5.3365  -19.6818 C   0  0  0  0  0  0  0  0  0  0  0  0
  1  2  2  0
  2  3  1  0
  3  4  1  0
  4  5  2  0
  5  6  1  0
  6  7  1  0
  7  8  1  0
  7  9  1  0
  7 10  1  0
  6 11  2  0
 11 12  1  0
 12 13  2  0
 13 14  1  0
 14 15  2  0
 15 16  1  0
 16 17  2  0
  2 18  1  0
 18 19  2  0
 19 20  1  0
 20 21  2  0
 20 22  1  0
 22 23  1  0
 23 24  2  0
 24 25  1  0
 24 26  1  0
 26 27  2  0
 27 28  1  0
 28 29  2  0
 17  4  1  0
 29 18  1  0
 17 12  1  0
 29 23  1  0
M  END
>  <fragmenstein_outcome>  (316) 
nan

>  <exports>  (316) 
['/opt/xchem-fragalysis-2/maxwin/openbind-hippo/xx01zvns2b/cycle_01/syndirella/elabs/openbind_xx01zvns2b_c1_elab_chemspace_filtered.sdf']

>  <Energy>  (316) 
nan

>  <alias>  (316) 
None

>  <fragmenstein_runtime>  (316) 
nan

>  <scratch_subdir>  (316) 
nan

>  <HIPPO Compound ID>  (316) 
142187

>  <rmsd(smina/fragmenstein)>  (316) 
1.672

>  <distance_score>  (316) 
1.034466

>  <orig_smiles>  (316) 
nan

>  <fragmenstein_mode>  (316) 
nan

>  <inchikey>  (316) 
VYLLRCYBVLUQEL-UHFFFAOYSA-N

>  <ref_pdb>  (316) 
Z0852a

>  <GNINA pK>  (316) 
nan

>  <gnina_score_min>  (316) 
5.975

>  <tags>  (316) 
openbind_xx01zvns2b_c1_elab_nonasap_filtered_scored_top80percent,openbind_xx01zvns2b_c1_elab_chemspace_filtered_scored_top80percent,openbind_xx01zvns2b_c1_elab_chemspace_filtered_scored,openbind_xx01zvns2b_c1_elab_chemspace_filtered_scored_top40percent,openbind_xx01zvns2b_c1_elab_chemspace_filtered_scored_top20percent,openbind_xx01zvns2b_c1_elab_chemspace_filtered_scored_top60percent,openbind_xx01zvns2b_c1_elabs_filtered

>  <smiles>  (316) 
O=C(Nc1cc(C(F)(F)F)cc2cccnc12)c1cc(=O)[nH]c2c(Br)cccc12

>  <subsites>  (316) 
1 - Z4590/B/203/1

>  <gnina_score>  (316) 
5.596

>  <HIPPO Pose ID>  (316) 
70264

>  <ref_mols>  (316) 
Z0917a,Z0852a

>  <energy_score>  (316) 
-18.79763

>  <inspiration_score>  (316) 
None

>  <smina_score_min>  (316) 
-6.384

>  <fragmenstein_error>  (316) 
nan

>  <name>  (316) 
P70264

$$$$
P70265
     RDKit          3D

 29 32  0  0  0  0  0  0  0  0999 V2000
   -6.8672    6.9546  -13.8387 C   0  0  0  0  0  0  0  0  0  0  0  0
   -7.1853    5.4571  -13.7871 C   0  0  0  0  0  0  0  0  0  0  0  0
   -6.0251    4.6953  -13.1407 C   0  0  0  0  0  0  0  0  0  0  0  0
   -8.4194    5.2984  -12.8689 C   0  0  0  0  0  0  0  0  0  0  0  0
   -7.3926    4.9892  -15.2265 C   0  0  0  0  0  0  0  0  0  0  0  0
   -6.4056    5.1669  -16.2196 C   0  0  0  0  0  0  0  0  0  0  0  0
   -6.6690    4.9157  -17.5761 C   0  0  0  0  0  0  0  0  0  0  0  0
   -5.6402    5.1383  -18.4987 N   0  0  0  0  0  0  0  0  0  0  0  0
   -5.4503    4.6047  -19.9519 C   0  0  0  0  0  0  0  0  0  0  0  0
   -6.0865    3.8373  -20.5684 O   0  0  0  0  0  0  0  0  0  0  0  0
   -4.1799    5.1488  -20.5305 C   0  0  0  0  0  0  0  0  0  0  0  0
   -4.3135    5.4581  -21.8311 C   0  0  0  0  0  0  0  0  0  0  0  0
   -3.1819    5.9479  -22.6302 C   0  0  0  0  0  0  0  0  0  0  0  0
   -3.3136    6.1975  -23.8231 O   0  0  0  0  0  0  0  0  0  0  0  0
   -2.0103    6.1404  -21.9654 N   0  0  0  0  0  0  0  0  0  0  0  0
   -1.8201    5.8737  -20.6010 C   0  0  0  0  0  0  0  0  0  0  0  0
   -0.5899    6.1738  -19.9971 C   0  0  0  0  0  0  0  0  0  0  0  0
    0.8444    6.9419  -20.9765 Br  0  0  0  0  0  0  0  0  0  0  0  0
   -0.4099    5.9473  -18.6373 C   0  0  0  0  0  0  0  0  0  0  0  0
   -1.4339    5.3592  -17.9018 C   0  0  0  0  0  0  0  0  0  0  0  0
   -2.6274    4.9783  -18.5209 C   0  0  0  0  0  0  0  0  0  0  0  0
   -2.8771    5.3159  -19.8571 C   0  0  0  0  0  0  0  0  0  0  0  0
   -7.9518    4.5658  -17.9702 C   0  0  0  0  0  0  0  0  0  0  0  0
   -8.3232    4.5729  -19.2467 N   0  0  0  0  0  0  0  0  0  0  0  0
   -9.6299    4.5821  -19.5313 C   0  0  0  0  0  0  0  0  0  0  0  0
  -10.6164    4.4424  -18.6004 C   0  0  0  0  0  0  0  0  0  0  0  0
  -10.2163    4.1762  -17.3303 C   0  0  0  0  0  0  0  0  0  0  0  0
   -8.9040    4.3567  -16.9723 C   0  0  0  0  0  0  0  0  0  0  0  0
   -8.6179    4.4821  -15.6257 C   0  0  0  0  0  0  0  0  0  0  0  0
  1  2  1  0
  2  3  1  0
  2  4  1  0
  2  5  1  0
  5  6  2  0
  6  7  1  0
  7  8  1  0
  8  9  1  0
  9 10  2  0
  9 11  1  0
 11 12  2  0
 12 13  1  0
 13 14  2  0
 13 15  1  0
 15 16  1  0
 16 17  2  0
 17 18  1  0
 17 19  1  0
 19 20  2  0
 20 21  1  0
 21 22  2  0
  7 23  2  0
 23 24  1  0
 24 25  2  0
 25 26  1  0
 26 27  2  0
 27 28  1  0
 28 29  2  0
 29  5  1  0
 22 11  1  0
 28 23  1  0
 22 16  1  0
M  END
>  <fragmenstein_outcome>  (317) 
nan

>  <exports>  (317) 
['/opt/xchem-fragalysis-2/maxwin/openbind-hippo/xx01zvns2b/cycle_01/syndirella/elabs/openbind_xx01zvns2b_c1_elab_chemspace_filtered.sdf']

>  <Energy>  (317) 
nan

>  <alias>  (317) 
None

>  <fragmenstein_runtime>  (317) 
nan

>  <scratch_subdir>  (317) 
nan

>  <HIPPO Compound ID>  (317) 
142188

>  <rmsd(smina/fragmenstein)>  (317) 
1.189

>  <distance_score>  (317) 
1.12158

>  <orig_smiles>  (317) 
nan

>  <fragmenstein_mode>  (317) 
nan

>  <inchikey>  (317) 
IHRJLVIWWIVAAC-UHFFFAOYSA-N

>  <ref_pdb>  (317) 
Z0852a

>  <GNINA pK>  (317) 
nan

>  <gnina_score_min>  (317) 
6.384

>  <tags>  (317) 
openbind_xx01zvns2b_c1_elab_nonasap_filtered_scored_top80percent,openbind_xx01zvns2b_c1_elab_chemspace_filtered_scored_top80percent,openbind_xx01zvns2b_c1_elab_chemspace_filtered_scored,openbind_xx01zvns2b_c1_elab_chemspace_filtered_scored_top40percent,openbind_xx01zvns2b_c1_elab_chemspace_filtered_scored_top20percent,openbind_xx01zvns2b_c1_elab_chemspace_filtered_scored_top60percent,openbind_xx01zvns2b_c1_elabs_filtered

>  <smiles>  (317) 
CC(C)(C)c1cc(NC(=O)c2cc(=O)[nH]c3c(Br)cccc23)c2ncccc2c1

>  <subsites>  (317) 
1 - Z4590/B/203/1

>  <gnina_score>  (317) 
5.864

>  <HIPPO Pose ID>  (317) 
70265

>  <ref_mols>  (317) 
Z0917a,Z0852a

>  <energy_score>  (317) 
-22.919022

>  <inspiration_score>  (317) 
None

>  <smina_score_min>  (317) 
-6.782

>  <fragmenstein_error>  (317) 
nan

>  <name>  (317) 
P70265

$$$$
P70266
     RDKit          3D

 29 32  0  0  0  0  0  0  0  0999 V2000
   -3.3116    6.4457  -24.0944 C   0  0  0  0  0  0  0  0  0  0  0  0
   -3.2043    6.0644  -22.6495 C   0  0  0  0  0  0  0  0  0  0  0  0
   -4.2944    5.5655  -21.9711 C   0  0  0  0  0  0  0  0  0  0  0  0
   -4.1369    5.2053  -20.6319 C   0  0  0  0  0  0  0  0  0  0  0  0
   -5.3632    4.6695  -19.9854 C   0  0  0  0  0  0  0  0  0  0  0  0
   -6.0106    3.9106  -20.5984 O   0  0  0  0  0  0  0  0  0  0  0  0
   -5.5453    5.2118  -18.5396 N   0  0  0  0  0  0  0  0  0  0  0  0
   -6.5793    5.0112  -17.6164 C   0  0  0  0  0  0  0  0  0  0  0  0
   -6.3077    5.3614  -16.2840 C   0  0  0  0  0  0  0  0  0  0  0  0
   -7.2708    5.2379  -15.2641 C   0  0  0  0  0  0  0  0  0  0  0  0
   -7.0683    5.8006  -13.8587 C   0  0  0  0  0  0  0  0  0  0  0  0
   -6.5644    4.6867  -12.9360 C   0  0  0  0  0  0  0  0  0  0  0  0
   -6.0531    6.9443  -13.8829 C   0  0  0  0  0  0  0  0  0  0  0  0
   -8.3575    6.4060  -13.2603 C   0  0  0  0  0  0  0  0  0  0  0  0
   -8.4706    4.6298  -15.5943 C   0  0  0  0  0  0  0  0  0  0  0  0
   -8.7755    4.4115  -16.9272 C   0  0  0  0  0  0  0  0  0  0  0  0
  -10.0860    4.1590  -17.2387 C   0  0  0  0  0  0  0  0  0  0  0  0
  -10.5281    4.3453  -18.5129 C   0  0  0  0  0  0  0  0  0  0  0  0
   -9.5728    4.4998  -19.4784 C   0  0  0  0  0  0  0  0  0  0  0  0
   -8.2590    4.5450  -19.2304 N   0  0  0  0  0  0  0  0  0  0  0  0
   -7.8562    4.6032  -17.9640 C   0  0  0  0  0  0  0  0  0  0  0  0
   -2.8849    5.3455  -19.9834 C   0  0  0  0  0  0  0  0  0  0  0  0
   -2.5886    4.9984  -18.6395 C   0  0  0  0  0  0  0  0  0  0  0  0
   -1.3699    5.3491  -18.0639 C   0  0  0  0  0  0  0  0  0  0  0  0
   -0.3777    5.9093  -18.8512 C   0  0  0  0  0  0  0  0  0  0  0  0
    1.3031    6.3218  -18.0939 Br  0  0  0  0  0  0  0  0  0  0  0  0
   -0.6155    6.1555  -20.1969 C   0  0  0  0  0  0  0  0  0  0  0  0
   -1.8523    5.8997  -20.7664 C   0  0  0  0  0  0  0  0  0  0  0  0
   -2.0061    6.2341  -22.0549 N   0  0  0  0  0  0  0  0  0  0  0  0
  1  2  1  0
  2  3  2  0
  3  4  1  0
  4  5  1  0
  5  6  2  0
  5  7  1  0
  7  8  1  0
  8  9  2  0
  9 10  1  0
 10 11  1  0
 11 12  1  0
 11 13  1  0
 11 14  1  0
 10 15  2  0
 15 16  1  0
 16 17  2  0
 17 18  1  0
 18 19  2  0
 19 20  1  0
 20 21  2  0
  4 22  2  0
 22 23  1  0
 23 24  2  0
 24 25  1  0
 25 26  1  0
 25 27  2  0
 27 28  1  0
 28 29  2  0
 29  2  1  0
 21  8  1  0
 28 22  1  0
 21 16  1  0
M  END
>  <fragmenstein_outcome>  (318) 
nan

>  <exports>  (318) 
['/opt/xchem-fragalysis-2/maxwin/openbind-hippo/xx01zvns2b/cycle_01/syndirella/elabs/openbind_xx01zvns2b_c1_elab_chemspace_filtered.sdf']

>  <Energy>  (318) 
nan

>  <alias>  (318) 
None

>  <fragmenstein_runtime>  (318) 
nan

>  <scratch_subdir>  (318) 
nan

>  <HIPPO Compound ID>  (318) 
142190

>  <rmsd(smina/fragmenstein)>  (318) 
1.406

>  <distance_score>  (318) 
1.25895

>  <orig_smiles>  (318) 
nan

>  <fragmenstein_mode>  (318) 
nan

>  <inchikey>  (318) 
YTLCJNCYLHCDAU-UHFFFAOYSA-N

>  <ref_pdb>  (318) 
Z0852a

>  <GNINA pK>  (318) 
nan

>  <gnina_score_min>  (318) 
6.502

>  <tags>  (318) 
openbind_xx01zvns2b_c1_elab_nonasap_filtered_scored_top80percent,openbind_xx01zvns2b_c1_elab_chemspace_filtered_scored_top80percent,openbind_xx01zvns2b_c1_elab_chemspace_filtered_scored,openbind_xx01zvns2b_c1_elab_chemspace_filtered_scored_top40percent,openbind_xx01zvns2b_c1_elab_chemspace_filtered_scored_top20percent,openbind_xx01zvns2b_c1_elab_chemspace_filtered_scored_top60percent,openbind_xx01zvns2b_c1_elabs_filtered

>  <smiles>  (318) 
Cc1cc(C(=O)Nc2cc(C(C)(C)C)cc3cccnc23)c2ccc(Br)cc2n1

>  <subsites>  (318) 
1 - Z4590/B/203/1

>  <gnina_score>  (318) 
5.878

>  <HIPPO Pose ID>  (318) 
70266

>  <ref_mols>  (318) 
Z0917a,Z0852a

>  <energy_score>  (318) 
-15.232837

>  <inspiration_score>  (318) 
None

>  <smina_score_min>  (318) 
-6.696

>  <fragmenstein_error>  (318) 
nan

>  <name>  (318) 
P70266

$$$$
P70267
     RDKit          3D

 29 32  0  0  0  0  0  0  0  0999 V2000
   -6.4668    4.2447  -11.5209 C   0  0  0  0  0  0  0  0  0  0  0  0
   -6.9426    4.3772  -12.8599 O   0  0  0  0  0  0  0  0  0  0  0  0
   -5.9684    4.5314  -13.7889 C   0  0  0  0  0  0  0  0  0  0  0  0
   -4.7732    4.6451  -13.5636 O   0  0  0  0  0  0  0  0  0  0  0  0
   -6.5525    4.5637  -15.1553 C   0  0  0  0  0  0  0  0  0  0  0  0
   -5.7121    4.8144  -16.2388 C   0  0  0  0  0  0  0  0  0  0  0  0
   -6.1885    4.7831  -17.5635 C   0  0  0  0  0  0  0  0  0  0  0  0
   -5.1958    4.9872  -18.5308 N   0  0  0  0  0  0  0  0  0  0  0  0
   -5.1911    4.6761  -20.0541 C   0  0  0  0  0  0  0  0  0  0  0  0
   -5.9851    4.1318  -20.7196 O   0  0  0  0  0  0  0  0  0  0  0  0
   -3.9179    5.1657  -20.6771 C   0  0  0  0  0  0  0  0  0  0  0  0
   -2.7038    4.9628  -20.0107 C   0  0  0  0  0  0  0  0  0  0  0  0
   -2.6785    4.3757  -18.7733 O   0  0  0  0  0  0  0  0  0  0  0  0
   -1.5354    5.4061  -20.6108 C   0  0  0  0  0  0  0  0  0  0  0  0
   -0.2156    5.3788  -19.8985 C   0  0  0  0  0  0  0  0  0  0  0  0
   -1.5305    5.9840  -21.8322 N   0  0  0  0  0  0  0  0  0  0  0  0
   -2.6872    6.1721  -22.4800 C   0  0  0  0  0  0  0  0  0  0  0  0
   -2.6324    6.7923  -23.7225 C   0  0  0  0  0  0  0  0  0  0  0  0
   -3.7819    7.0926  -24.4538 C   0  0  0  0  0  0  0  0  0  0  0  0
   -5.0215    6.7738  -23.9279 C   0  0  0  0  0  0  0  0  0  0  0  0
   -5.0916    6.1422  -22.6865 C   0  0  0  0  0  0  0  0  0  0  0  0
   -3.9333    5.8084  -21.9427 C   0  0  0  0  0  0  0  0  0  0  0  0
   -7.5472    4.5770  -17.8229 C   0  0  0  0  0  0  0  0  0  0  0  0
   -8.0806    4.6438  -19.0488 N   0  0  0  0  0  0  0  0  0  0  0  0
   -9.4113    4.5311  -19.2048 C   0  0  0  0  0  0  0  0  0  0  0  0
  -10.2818    4.3033  -18.1725 C   0  0  0  0  0  0  0  0  0  0  0  0
   -9.7341    4.1720  -16.9178 C   0  0  0  0  0  0  0  0  0  0  0  0
   -8.3804    4.3545  -16.7114 C   0  0  0  0  0  0  0  0  0  0  0  0
   -7.8979    4.3262  -15.3999 C   0  0  0  0  0  0  0  0  0  0  0  0
  1  2  1  0
  2  3  1  0
  3  4  2  0
  3  5  1  0
  5  6  2  0
  6  7  1  0
  7  8  1  0
  8  9  1  0
  9 10  2  0
  9 11  1  0
 11 12  2  0
 12 13  1  0
 12 14  1  0
 14 15  1  0
 14 16  2  0
 16 17  1  0
 17 18  2  0
 18 19  1  0
 19 20  2  0
 20 21  1  0
 21 22  2  0
  7 23  2  0
 23 24  1  0
 24 25  2  0
 25 26  1  0
 26 27  2  0
 27 28  1  0
 28 29  2  0
 29  5  1  0
 22 11  1  0
 28 23  1  0
 22 17  1  0
M  END
>  <fragmenstein_outcome>  (319) 
nan

>  <exports>  (319) 
['/opt/xchem-fragalysis-2/maxwin/openbind-hippo/xx01zvns2b/cycle_01/syndirella/elabs/openbind_xx01zvns2b_c1_elab_chemspace_filtered.sdf']

>  <Energy>  (319) 
nan

>  <alias>  (319) 
None

>  <fragmenstein_runtime>  (319) 
nan

>  <scratch_subdir>  (319) 
nan

>  <HIPPO Compound ID>  (319) 
142191

>  <rmsd(smina/fragmenstein)>  (319) 
0.788

>  <distance_score>  (319) 
1.76517

>  <orig_smiles>  (319) 
nan

>  <fragmenstein_mode>  (319) 
nan

>  <inchikey>  (319) 
YMUUGYDLTVRBTM-UHFFFAOYSA-N

>  <ref_pdb>  (319) 
Z0852a

>  <GNINA pK>  (319) 
nan

>  <gnina_score_min>  (319) 
5.806

>  <tags>  (319) 
openbind_xx01zvns2b_c1_elab_nonasap_filtered_scored_top80percent,openbind_xx01zvns2b_c1_elab_chemspace_filtered_scored_top80percent,openbind_xx01zvns2b_c1_elab_chemspace_filtered_scored,openbind_xx01zvns2b_c1_elab_chemspace_filtered_scored_top40percent,openbind_xx01zvns2b_c1_elab_chemspace_filtered_scored_top20percent,openbind_xx01zvns2b_c1_elab_chemspace_filtered_scored_top60percent,openbind_xx01zvns2b_c1_elabs_filtered

>  <smiles>  (319) 
COC(=O)c1cc(NC(=O)c2c(O)c(C)nc3ccccc23)c2ncccc2c1

>  <subsites>  (319) 
1 - Z4590/B/203/1

>  <gnina_score>  (319) 
5.701

>  <HIPPO Pose ID>  (319) 
70267

>  <ref_mols>  (319) 
Z0917a,Z0852a

>  <energy_score>  (319) 
-27.364903

>  <inspiration_score>  (319) 
None

>  <smina_score_min>  (319) 
-6.54

>  <fragmenstein_error>  (319) 
nan

>  <name>  (319) 
P70267

$$$$
P70268
     RDKit          3D

 29 32  0  0  0  0  0  0  0  0999 V2000
   -7.8672    4.4635  -12.7986 C   0  0  0  0  0  0  0  0  0  0  0  0
   -7.5598    5.5966  -13.7918 C   0  0  0  0  0  0  0  0  0  0  0  0
   -8.5833    6.7149  -13.5723 C   0  0  0  0  0  0  0  0  0  0  0  0
   -6.1916    6.1965  -13.4456 C   0  0  0  0  0  0  0  0  0  0  0  0
   -7.6832    5.1240  -15.2398 C   0  0  0  0  0  0  0  0  0  0  0  0
   -6.7403    5.3770  -16.2451 C   0  0  0  0  0  0  0  0  0  0  0  0
   -7.0280    5.0882  -17.5914 C   0  0  0  0  0  0  0  0  0  0  0  0
   -6.0375    5.2907  -18.5386 N   0  0  0  0  0  0  0  0  0  0  0  0
   -5.8269    4.6355  -19.9427 C   0  0  0  0  0  0  0  0  0  0  0  0
   -6.5008    3.8851  -20.5395 O   0  0  0  0  0  0  0  0  0  0  0  0
   -4.5140    5.0027  -20.4775 C   0  0  0  0  0  0  0  0  0  0  0  0
   -4.4411    5.4073  -21.8016 C   0  0  0  0  0  0  0  0  0  0  0  0
   -3.2181    5.8455  -22.2275 C   0  0  0  0  0  0  0  0  0  0  0  0
   -2.9845    6.3894  -23.8353 Cl  0  0  0  0  0  0  0  0  0  0  0  0
   -2.1456    5.9698  -21.4261 N   0  0  0  0  0  0  0  0  0  0  0  0
   -2.2497    5.5710  -20.1358 C   0  0  0  0  0  0  0  0  0  0  0  0
   -1.2312    5.7849  -19.2220 C   0  0  0  0  0  0  0  0  0  0  0  0
   -0.1249    6.3854  -19.6357 F   0  0  0  0  0  0  0  0  0  0  0  0
   -1.2932    5.4780  -17.8644 C   0  0  0  0  0  0  0  0  0  0  0  0
   -2.3937    4.8120  -17.3816 C   0  0  0  0  0  0  0  0  0  0  0  0
   -3.4073    4.5103  -18.2715 C   0  0  0  0  0  0  0  0  0  0  0  0
   -3.3997    4.9966  -19.6152 C   0  0  0  0  0  0  0  0  0  0  0  0
   -8.2796    4.6749  -17.9666 C   0  0  0  0  0  0  0  0  0  0  0  0
   -8.6485    4.7503  -19.2350 N   0  0  0  0  0  0  0  0  0  0  0  0
   -9.9435    4.7372  -19.5189 C   0  0  0  0  0  0  0  0  0  0  0  0
  -10.9053    4.4666  -18.5959 C   0  0  0  0  0  0  0  0  0  0  0  0
  -10.4835    4.1301  -17.3490 C   0  0  0  0  0  0  0  0  0  0  0  0
   -9.1896    4.3794  -16.9703 C   0  0  0  0  0  0  0  0  0  0  0  0
   -8.8719    4.5084  -15.6272 C   0  0  0  0  0  0  0  0  0  0  0  0
  1  2  1  0
  2  3  1  0
  2  4  1  0
  2  5  1  0
  5  6  2  0
  6  7  1  0
  7  8  1  0
  8  9  1  0
  9 10  2  0
  9 11  1  0
 11 12  2  0
 12 13  1  0
 13 14  1  0
 13 15  2  0
 15 16  1  0
 16 17  2  0
 17 18  1  0
 17 19  1  0
 19 20  2  0
 20 21  1  0
 21 22  2  0
  7 23  2  0
 23 24  1  0
 24 25  2  0
 25 26  1  0
 26 27  2  0
 27 28  1  0
 28 29  2  0
 29  5  1  0
 22 11  1  0
 28 23  1  0
 22 16  1  0
M  END
>  <fragmenstein_outcome>  (320) 
nan

>  <exports>  (320) 
['/opt/xchem-fragalysis-2/maxwin/openbind-hippo/xx01zvns2b/cycle_01/syndirella/elabs/openbind_xx01zvns2b_c1_elab_chemspace_filtered.sdf']

>  <Energy>  (320) 
nan

>  <alias>  (320) 
None

>  <fragmenstein_runtime>  (320) 
nan

>  <scratch_subdir>  (320) 
nan

>  <HIPPO Compound ID>  (320) 
142192

>  <rmsd(smina/fragmenstein)>  (320) 
1.549

>  <distance_score>  (320) 
1.529324

>  <orig_smiles>  (320) 
nan

>  <fragmenstein_mode>  (320) 
nan

>  <inchikey>  (320) 
WPUWVUXYXSIIPE-UHFFFAOYSA-N

>  <ref_pdb>  (320) 
Z0852a

>  <GNINA pK>  (320) 
nan

>  <gnina_score_min>  (320) 
6.431

>  <tags>  (320) 
openbind_xx01zvns2b_c1_elab_nonasap_filtered_scored_top80percent,openbind_xx01zvns2b_c1_elab_chemspace_filtered_scored_top80percent,openbind_xx01zvns2b_c1_elab_chemspace_filtered_scored,openbind_xx01zvns2b_c1_elab_chemspace_filtered_scored_top40percent,openbind_xx01zvns2b_c1_elab_chemspace_filtered_scored_top20percent,openbind_xx01zvns2b_c1_elab_chemspace_filtered_scored_top60percent,openbind_xx01zvns2b_c1_elabs_filtered

>  <smiles>  (320) 
CC(C)(C)c1cc(NC(=O)c2cc(Cl)nc3c(F)cccc23)c2ncccc2c1

>  <subsites>  (320) 
1 - Z4590/B/203/1

>  <gnina_score>  (320) 
5.909

>  <HIPPO Pose ID>  (320) 
70268

>  <ref_mols>  (320) 
Z0917a,Z0852a

>  <energy_score>  (320) 
-14.538331

>  <inspiration_score>  (320) 
None

>  <smina_score_min>  (320) 
-6.678

>  <fragmenstein_error>  (320) 
nan

>  <name>  (320) 
P70268

$$$$
P70269
     RDKit          3D

 29 32  0  0  0  0  0  0  0  0999 V2000
   -5.9809    4.0929  -20.5130 O   0  0  0  0  0  0  0  0  0  0  0  0
   -5.2871    4.7358  -19.8212 C   0  0  0  0  0  0  0  0  0  0  0  0
   -5.4683    5.1751  -18.3312 N   0  0  0  0  0  0  0  0  0  0  0  0
   -6.5540    4.9956  -17.4500 C   0  0  0  0  0  0  0  0  0  0  0  0
   -6.3509    5.3128  -16.0904 C   0  0  0  0  0  0  0  0  0  0  0  0
   -7.3847    5.1670  -15.1453 C   0  0  0  0  0  0  0  0  0  0  0  0
   -7.2920    5.6828  -13.7341 C   0  0  0  0  0  0  0  0  0  0  0  0
   -7.2128    7.0443  -13.7020 F   0  0  0  0  0  0  0  0  0  0  0  0
   -8.3798    5.3746  -12.9696 F   0  0  0  0  0  0  0  0  0  0  0  0
   -6.2085    5.2204  -13.0635 F   0  0  0  0  0  0  0  0  0  0  0  0
   -8.5941    4.6354  -15.5576 C   0  0  0  0  0  0  0  0  0  0  0  0
   -8.8201    4.4403  -16.9050 C   0  0  0  0  0  0  0  0  0  0  0  0
  -10.1159    4.2141  -17.2941 C   0  0  0  0  0  0  0  0  0  0  0  0
  -10.4756    4.3915  -18.5916 C   0  0  0  0  0  0  0  0  0  0  0  0
   -9.4605    4.4838  -19.4973 C   0  0  0  0  0  0  0  0  0  0  0  0
   -8.1635    4.5351  -19.1640 N   0  0  0  0  0  0  0  0  0  0  0  0
   -7.8286    4.6174  -17.8785 C   0  0  0  0  0  0  0  0  0  0  0  0
   -3.9712    5.1465  -20.3559 C   0  0  0  0  0  0  0  0  0  0  0  0
   -2.8335    4.8058  -19.6301 C   0  0  0  0  0  0  0  0  0  0  0  0
   -2.8702    4.1904  -18.4113 O   0  0  0  0  0  0  0  0  0  0  0  0
   -1.6123    5.0998  -20.1917 C   0  0  0  0  0  0  0  0  0  0  0  0
   -1.4676    5.7043  -21.3926 N   0  0  0  0  0  0  0  0  0  0  0  0
   -2.5626    6.0184  -22.0973 C   0  0  0  0  0  0  0  0  0  0  0  0
   -2.3870    6.6265  -23.3304 C   0  0  0  0  0  0  0  0  0  0  0  0
   -3.4750    7.0028  -24.1064 C   0  0  0  0  0  0  0  0  0  0  0  0
   -3.2709    7.5901  -25.2926 F   0  0  0  0  0  0  0  0  0  0  0  0
   -4.7673    6.7832  -23.6679 C   0  0  0  0  0  0  0  0  0  0  0  0
   -4.9600    6.1695  -22.4331 C   0  0  0  0  0  0  0  0  0  0  0  0
   -3.8661    5.7690  -21.6265 C   0  0  0  0  0  0  0  0  0  0  0  0
  1  2  2  0
  2  3  1  0
  3  4  1  0
  4  5  2  0
  5  6  1  0
  6  7  1  0
  7  8  1  0
  7  9  1  0
  7 10  1  0
  6 11  2  0
 11 12  1  0
 12 13  2  0
 13 14  1  0
 14 15  2  0
 15 16  1  0
 16 17  2  0
  2 18  1  0
 18 19  2  0
 19 20  1  0
 19 21  1  0
 21 22  2  0
 22 23  1  0
 23 24  2  0
 24 25  1  0
 25 26  1  0
 25 27  2  0
 27 28  1  0
 28 29  2  0
 17  4  1  0
 29 18  1  0
 17 12  1  0
 29 23  1  0
M  END
>  <fragmenstein_outcome>  (321) 
nan

>  <exports>  (321) 
['/opt/xchem-fragalysis-2/maxwin/openbind-hippo/xx01zvns2b/cycle_01/syndirella/elabs/openbind_xx01zvns2b_c1_elab_chemspace_filtered.sdf']

>  <Energy>  (321) 
nan

>  <alias>  (321) 
None

>  <fragmenstein_runtime>  (321) 
nan

>  <scratch_subdir>  (321) 
nan

>  <HIPPO Compound ID>  (321) 
142193

>  <rmsd(smina/fragmenstein)>  (321) 
1.258

>  <distance_score>  (321) 
0.95175

>  <orig_smiles>  (321) 
nan

>  <fragmenstein_mode>  (321) 
nan

>  <inchikey>  (321) 
PCNSXJJPMZCRED-UHFFFAOYSA-N

>  <ref_pdb>  (321) 
Z0852a

>  <GNINA pK>  (321) 
nan

>  <gnina_score_min>  (321) 
5.813

>  <tags>  (321) 
openbind_xx01zvns2b_c1_elab_nonasap_filtered_scored_top80percent,openbind_xx01zvns2b_c1_elab_chemspace_filtered_scored_top80percent,openbind_xx01zvns2b_c1_elab_chemspace_filtered_scored,openbind_xx01zvns2b_c1_elab_chemspace_filtered_scored_top40percent,openbind_xx01zvns2b_c1_elab_chemspace_filtered_scored_top20percent,openbind_xx01zvns2b_c1_elab_chemspace_filtered_scored_top60percent,openbind_xx01zvns2b_c1_elabs_filtered

>  <smiles>  (321) 
O=C(Nc1cc(C(F)(F)F)cc2cccnc12)c1c(O)cnc2cc(F)ccc12

>  <subsites>  (321) 
1 - Z4590/B/203/1

>  <gnina_score>  (321) 
5.247

>  <HIPPO Pose ID>  (321) 
70269

>  <ref_mols>  (321) 
Z0917a,Z0852a

>  <energy_score>  (321) 
-11.504342

>  <inspiration_score>  (321) 
None

>  <smina_score_min>  (321) 
-7.194

>  <fragmenstein_error>  (321) 
nan

>  <name>  (321) 
P70269

$$$$
P70270
     RDKit          3D

 29 32  0  0  0  0  0  0  0  0999 V2000
   -6.0897    6.9858  -13.9374 C   0  0  0  0  0  0  0  0  0  0  0  0
   -7.0452    5.7922  -13.8715 C   0  0  0  0  0  0  0  0  0  0  0  0
   -8.3481    6.3465  -13.2517 C   0  0  0  0  0  0  0  0  0  0  0  0
   -6.4718    4.7174  -12.9446 C   0  0  0  0  0  0  0  0  0  0  0  0
   -7.2389    5.2025  -15.2682 C   0  0  0  0  0  0  0  0  0  0  0  0
   -6.2514    5.2779  -16.2712 C   0  0  0  0  0  0  0  0  0  0  0  0
   -6.5147    4.9505  -17.6131 C   0  0  0  0  0  0  0  0  0  0  0  0
   -5.4513    5.1312  -18.5149 N   0  0  0  0  0  0  0  0  0  0  0  0
   -5.3002    4.6909  -20.0034 C   0  0  0  0  0  0  0  0  0  0  0  0
   -6.0053    4.0451  -20.6789 O   0  0  0  0  0  0  0  0  0  0  0  0
   -3.9899    5.1194  -20.5409 C   0  0  0  0  0  0  0  0  0  0  0  0
   -2.8468    4.7817  -19.8166 C   0  0  0  0  0  0  0  0  0  0  0  0
   -2.8735    4.1559  -18.6004 O   0  0  0  0  0  0  0  0  0  0  0  0
   -1.6287    5.0948  -20.3735 C   0  0  0  0  0  0  0  0  0  0  0  0
   -1.4922    5.7182  -21.5654 N   0  0  0  0  0  0  0  0  0  0  0  0
   -2.5918    6.0385  -22.2614 C   0  0  0  0  0  0  0  0  0  0  0  0
   -2.4251    6.6744  -23.4817 C   0  0  0  0  0  0  0  0  0  0  0  0
   -3.5187    7.0597  -24.2458 C   0  0  0  0  0  0  0  0  0  0  0  0
   -3.3225    7.6740  -25.4195 F   0  0  0  0  0  0  0  0  0  0  0  0
   -4.8084    6.8222  -23.8080 C   0  0  0  0  0  0  0  0  0  0  0  0
   -4.9931    6.1811  -22.5861 C   0  0  0  0  0  0  0  0  0  0  0  0
   -3.8930    5.7695  -21.7948 C   0  0  0  0  0  0  0  0  0  0  0  0
   -7.8034    4.5817  -17.9752 C   0  0  0  0  0  0  0  0  0  0  0  0
   -8.1938    4.4957  -19.2434 N   0  0  0  0  0  0  0  0  0  0  0  0
   -9.5071    4.4672  -19.5060 C   0  0  0  0  0  0  0  0  0  0  0  0
  -10.4785    4.3615  -18.5504 C   0  0  0  0  0  0  0  0  0  0  0  0
  -10.0566    4.1912  -17.2686 C   0  0  0  0  0  0  0  0  0  0  0  0
   -8.7431    4.4189  -16.9481 C   0  0  0  0  0  0  0  0  0  0  0  0
   -8.4526    4.6349  -15.6131 C   0  0  0  0  0  0  0  0  0  0  0  0
  1  2  1  0
  2  3  1  0
  2  4  1  0
  2  5  1  0
  5  6  2  0
  6  7  1  0
  7  8  1  0
  8  9  1  0
  9 10  2  0
  9 11  1  0
 11 12  2  0
 12 13  1  0
 12 14  1  0
 14 15  2  0
 15 16  1  0
 16 17  2  0
 17 18  1  0
 18 19  1  0
 18 20  2  0
 20 21  1  0
 21 22  2  0
  7 23  2  0
 23 24  1  0
 24 25  2  0
 25 26  1  0
 26 27  2  0
 27 28  1  0
 28 29  2  0
 29  5  1  0
 22 11  1  0
 28 23  1  0
 22 16  1  0
M  END
>  <fragmenstein_outcome>  (322) 
nan

>  <exports>  (322) 
['/opt/xchem-fragalysis-2/maxwin/openbind-hippo/xx01zvns2b/cycle_01/syndirella/elabs/openbind_xx01zvns2b_c1_elab_chemspace_filtered.sdf']

>  <Energy>  (322) 
nan

>  <alias>  (322) 
None

>  <fragmenstein_runtime>  (322) 
nan

>  <scratch_subdir>  (322) 
nan

>  <HIPPO Compound ID>  (322) 
142194

>  <rmsd(smina/fragmenstein)>  (322) 
1.208

>  <distance_score>  (322) 
1.327877

>  <orig_smiles>  (322) 
nan

>  <fragmenstein_mode>  (322) 
nan

>  <inchikey>  (322) 
KWPFIEWNLWJYGJ-UHFFFAOYSA-N

>  <ref_pdb>  (322) 
Z0852a

>  <GNINA pK>  (322) 
nan

>  <gnina_score_min>  (322) 
6.155

>  <tags>  (322) 
openbind_xx01zvns2b_c1_elab_nonasap_filtered_scored_top80percent,openbind_xx01zvns2b_c1_elab_chemspace_filtered_scored_top80percent,openbind_xx01zvns2b_c1_elab_chemspace_filtered_scored,openbind_xx01zvns2b_c1_elab_chemspace_filtered_scored_top40percent,openbind_xx01zvns2b_c1_elab_chemspace_filtered_scored_top20percent,openbind_xx01zvns2b_c1_elab_chemspace_filtered_scored_top60percent,openbind_xx01zvns2b_c1_elabs_filtered

>  <smiles>  (322) 
CC(C)(C)c1cc(NC(=O)c2c(O)cnc3cc(F)ccc23)c2ncccc2c1

>  <subsites>  (322) 
1 - Z4590/B/203/1

>  <gnina_score>  (322) 
5.483

>  <HIPPO Pose ID>  (322) 
70270

>  <ref_mols>  (322) 
Z0917a,Z0852a

>  <energy_score>  (322) 
-35.397497

>  <inspiration_score>  (322) 
None

>  <smina_score_min>  (322) 
-7.227

>  <fragmenstein_error>  (322) 
nan

>  <name>  (322) 
P70270

$$$$
P70271
     RDKit          3D

 29 32  0  0  0  0  0  0  0  0999 V2000
    1.1266    6.2035  -16.6260 C   0  0  0  0  0  0  0  0  0  0  0  0
    0.8417    6.4446  -17.9976 O   0  0  0  0  0  0  0  0  0  0  0  0
   -0.3795    6.0440  -18.4617 C   0  0  0  0  0  0  0  0  0  0  0  0
   -1.3949    5.4732  -17.7087 C   0  0  0  0  0  0  0  0  0  0  0  0
   -2.5902    5.0951  -18.3242 C   0  0  0  0  0  0  0  0  0  0  0  0
   -2.8378    5.3932  -19.6877 C   0  0  0  0  0  0  0  0  0  0  0  0
   -4.0624    5.2121  -20.3721 C   0  0  0  0  0  0  0  0  0  0  0  0
   -5.3138    4.7154  -19.7467 C   0  0  0  0  0  0  0  0  0  0  0  0
   -5.9546    3.9674  -20.3814 O   0  0  0  0  0  0  0  0  0  0  0  0
   -5.5864    5.3429  -18.3458 N   0  0  0  0  0  0  0  0  0  0  0  0
   -6.6231    5.1109  -17.4307 C   0  0  0  0  0  0  0  0  0  0  0  0
   -6.4174    5.4549  -16.0820 C   0  0  0  0  0  0  0  0  0  0  0  0
   -7.4234    5.2398  -15.1222 C   0  0  0  0  0  0  0  0  0  0  0  0
   -7.3277    5.7460  -13.7093 C   0  0  0  0  0  0  0  0  0  0  0  0
   -7.2345    7.1063  -13.6687 F   0  0  0  0  0  0  0  0  0  0  0  0
   -6.2478    5.2695  -13.0419 F   0  0  0  0  0  0  0  0  0  0  0  0
   -8.4181    5.4431  -12.9471 F   0  0  0  0  0  0  0  0  0  0  0  0
   -8.6056    4.6353  -15.5169 C   0  0  0  0  0  0  0  0  0  0  0  0
   -8.8429    4.4355  -16.8629 C   0  0  0  0  0  0  0  0  0  0  0  0
  -10.1319    4.1651  -17.2435 C   0  0  0  0  0  0  0  0  0  0  0  0
  -10.5153    4.3537  -18.5345 C   0  0  0  0  0  0  0  0  0  0  0  0
   -9.5183    4.5137  -19.4518 C   0  0  0  0  0  0  0  0  0  0  0  0
   -8.2213    4.6035  -19.1317 N   0  0  0  0  0  0  0  0  0  0  0  0
   -7.8765    4.6635  -17.8461 C   0  0  0  0  0  0  0  0  0  0  0  0
   -4.1658    5.4857  -21.7384 C   0  0  0  0  0  0  0  0  0  0  0  0
   -3.0513    5.9478  -22.3889 C   0  0  0  0  0  0  0  0  0  0  0  0
   -1.8854    6.1913  -21.7654 N   0  0  0  0  0  0  0  0  0  0  0  0
   -1.7829    5.9287  -20.4522 C   0  0  0  0  0  0  0  0  0  0  0  0
   -0.5829    6.2367  -19.8281 C   0  0  0  0  0  0  0  0  0  0  0  0
  1  2  1  0
  2  3  1  0
  3  4  2  0
  4  5  1  0
  5  6  2  0
  6  7  1  0
  7  8  1  0
  8  9  2  0
  8 10  1  0
 10 11  1  0
 11 12  2  0
 12 13  1  0
 13 14  1  0
 14 15  1  0
 14 16  1  0
 14 17  1  0
 13 18  2  0
 18 19  1  0
 19 20  2  0
 20 21  1  0
 21 22  2  0
 22 23  1  0
 23 24  2  0
  7 25  2  0
 25 26  1  0
 26 27  2  0
 27 28  1  0
 28 29  2  0
 29  3  1  0
 28  6  1  0
 24 11  1  0
 24 19  1  0
M  END
>  <fragmenstein_outcome>  (323) 
nan

>  <exports>  (323) 
['/opt/xchem-fragalysis-2/maxwin/openbind-hippo/xx01zvns2b/cycle_01/syndirella/elabs/openbind_xx01zvns2b_c1_elab_chemspace_filtered.sdf']

>  <Energy>  (323) 
nan

>  <alias>  (323) 
None

>  <fragmenstein_runtime>  (323) 
nan

>  <scratch_subdir>  (323) 
nan

>  <HIPPO Compound ID>  (323) 
142195

>  <rmsd(smina/fragmenstein)>  (323) 
1.682

>  <distance_score>  (323) 
1.066133

>  <orig_smiles>  (323) 
nan

>  <fragmenstein_mode>  (323) 
nan

>  <inchikey>  (323) 
XFGQVRKPKGTMEB-UHFFFAOYSA-N

>  <ref_pdb>  (323) 
Z0852a

>  <GNINA pK>  (323) 
nan

>  <gnina_score_min>  (323) 
5.991

>  <tags>  (323) 
openbind_xx01zvns2b_c1_elab_nonasap_filtered_scored_top80percent,openbind_xx01zvns2b_c1_elab_chemspace_filtered_scored_top80percent,openbind_xx01zvns2b_c1_elab_chemspace_filtered_scored,openbind_xx01zvns2b_c1_elab_chemspace_filtered_scored_top40percent,openbind_xx01zvns2b_c1_elab_chemspace_filtered_scored_top20percent,openbind_xx01zvns2b_c1_elab_chemspace_filtered_scored_top60percent,openbind_xx01zvns2b_c1_elabs_filtered

>  <smiles>  (323) 
COc1ccc2c(C(=O)Nc3cc(C(F)(F)F)cc4cccnc34)ccnc2c1

>  <subsites>  (323) 
1 - Z4590/B/203/1

>  <gnina_score>  (323) 
5.649

>  <HIPPO Pose ID>  (323) 
70271

>  <ref_mols>  (323) 
Z0917a,Z0852a

>  <energy_score>  (323) 
-13.135282

>  <inspiration_score>  (323) 
None

>  <smina_score_min>  (323) 
-6.161

>  <fragmenstein_error>  (323) 
nan

>  <name>  (323) 
P70271

$$$$
P70273
     RDKit          3D

 29 32  0  0  0  0  0  0  0  0999 V2000
   -5.9999    3.9249  -20.3443 O   0  0  0  0  0  0  0  0  0  0  0  0
   -5.3784    4.7245  -19.7553 C   0  0  0  0  0  0  0  0  0  0  0  0
   -5.6554    5.4085  -18.3810 N   0  0  0  0  0  0  0  0  0  0  0  0
   -6.6702    5.1839  -17.4417 C   0  0  0  0  0  0  0  0  0  0  0  0
   -6.4452    5.5154  -16.0942 C   0  0  0  0  0  0  0  0  0  0  0  0
   -7.4345    5.2734  -15.1230 C   0  0  0  0  0  0  0  0  0  0  0  0
   -7.3275    5.7660  -13.7060 C   0  0  0  0  0  0  0  0  0  0  0  0
   -7.2229    7.1248  -13.6541 F   0  0  0  0  0  0  0  0  0  0  0  0
   -8.4180    5.4658  -12.9425 F   0  0  0  0  0  0  0  0  0  0  0  0
   -6.2499    5.2733  -13.0473 F   0  0  0  0  0  0  0  0  0  0  0  0
   -8.6114    4.6493  -15.5060 C   0  0  0  0  0  0  0  0  0  0  0  0
   -8.8655    4.4581  -16.8504 C   0  0  0  0  0  0  0  0  0  0  0  0
  -10.1500    4.1567  -17.2217 C   0  0  0  0  0  0  0  0  0  0  0  0
  -10.5527    4.3476  -18.5074 C   0  0  0  0  0  0  0  0  0  0  0  0
   -9.5714    4.5512  -19.4333 C   0  0  0  0  0  0  0  0  0  0  0  0
   -8.2744    4.6694  -19.1248 N   0  0  0  0  0  0  0  0  0  0  0  0
   -7.9200    4.7197  -17.8423 C   0  0  0  0  0  0  0  0  0  0  0  0
   -4.0635    5.1773  -20.3080 C   0  0  0  0  0  0  0  0  0  0  0  0
   -4.1095    5.3495  -21.6411 C   0  0  0  0  0  0  0  0  0  0  0  0
   -2.9149    5.7100  -22.4201 C   0  0  0  0  0  0  0  0  0  0  0  0
   -2.9702    5.8465  -23.6370 O   0  0  0  0  0  0  0  0  0  0  0  0
   -1.7678    5.9110  -21.7109 N   0  0  0  0  0  0  0  0  0  0  0  0
   -1.6763    5.7813  -20.3212 C   0  0  0  0  0  0  0  0  0  0  0  0
   -0.4640    6.0963  -19.7010 C   0  0  0  0  0  0  0  0  0  0  0  0
   -0.3671    6.0438  -18.3135 C   0  0  0  0  0  0  0  0  0  0  0  0
   -1.4559    5.5997  -17.5705 C   0  0  0  0  0  0  0  0  0  0  0  0
   -1.3749    5.6067  -15.8486 Cl  0  0  0  0  0  0  0  0  0  0  0  0
   -2.6309    5.1801  -18.2008 C   0  0  0  0  0  0  0  0  0  0  0  0
   -2.7950    5.3616  -19.5801 C   0  0  0  0  0  0  0  0  0  0  0  0
  1  2  2  0
  2  3  1  0
  3  4  1  0
  4  5  2  0
  5  6  1  0
  6  7  1  0
  7  8  1  0
  7  9  1  0
  7 10  1  0
  6 11  2  0
 11 12  1  0
 12 13  2  0
 13 14  1  0
 14 15  2  0
 15 16  1  0
 16 17  2  0
  2 18  1  0
 18 19  2  0
 19 20  1  0
 20 21  2  0
 20 22  1  0
 22 23  1  0
 23 24  2  0
 24 25  1  0
 25 26  2  0
 26 27  1  0
 26 28  1  0
 28 29  2  0
 17  4  1  0
 29 18  1  0
 17 12  1  0
 29 23  1  0
M  END
>  <fragmenstein_outcome>  (324) 
nan

>  <exports>  (324) 
['/opt/xchem-fragalysis-2/maxwin/openbind-hippo/xx01zvns2b/cycle_01/syndirella/elabs/openbind_xx01zvns2b_c1_elab_chemspace_filtered.sdf']

>  <Energy>  (324) 
nan

>  <alias>  (324) 
None

>  <fragmenstein_runtime>  (324) 
nan

>  <scratch_subdir>  (324) 
nan

>  <HIPPO Compound ID>  (324) 
142198

>  <rmsd(smina/fragmenstein)>  (324) 
2.526

>  <distance_score>  (324) 
1.040915

>  <orig_smiles>  (324) 
nan

>  <fragmenstein_mode>  (324) 
nan

>  <inchikey>  (324) 
MEXQCMBROPIKNY-UHFFFAOYSA-N

>  <ref_pdb>  (324) 
Z0852a

>  <GNINA pK>  (324) 
nan

>  <gnina_score_min>  (324) 
5.863

>  <tags>  (324) 
openbind_xx01zvns2b_c1_elab_nonasap_filtered_scored_top80percent,openbind_xx01zvns2b_c1_elab_chemspace_filtered_scored_top80percent,openbind_xx01zvns2b_c1_elab_chemspace_filtered_scored,openbind_xx01zvns2b_c1_elab_chemspace_filtered_scored_top40percent,openbind_xx01zvns2b_c1_elab_chemspace_filtered_scored_top20percent,openbind_xx01zvns2b_c1_elab_chemspace_filtered_scored_top60percent,openbind_xx01zvns2b_c1_elabs_filtered

>  <smiles>  (324) 
O=C(Nc1cc(C(F)(F)F)cc2cccnc12)c1cc(=O)[nH]c2ccc(Cl)cc12

>  <subsites>  (324) 
1 - Z4590/B/203/1

>  <gnina_score>  (324) 
5.754

>  <HIPPO Pose ID>  (324) 
70273

>  <ref_mols>  (324) 
Z0917a,Z0852a

>  <energy_score>  (324) 
-15.385027

>  <inspiration_score>  (324) 
None

>  <smina_score_min>  (324) 
-6.325

>  <fragmenstein_error>  (324) 
nan

>  <name>  (324) 
P70273

$$$$
P70274
     RDKit          3D

 29 32  0  0  0  0  0  0  0  0999 V2000
   -8.1366    6.7240  -13.3405 C   0  0  0  0  0  0  0  0  0  0  0  0
   -7.0433    5.7359  -13.7982 C   0  0  0  0  0  0  0  0  0  0  0  0
   -7.0299    4.5208  -12.8589 C   0  0  0  0  0  0  0  0  0  0  0  0
   -5.7093    6.4615  -13.6455 C   0  0  0  0  0  0  0  0  0  0  0  0
   -7.2762    5.2892  -15.2388 C   0  0  0  0  0  0  0  0  0  0  0  0
   -6.3604    5.5099  -16.2850 C   0  0  0  0  0  0  0  0  0  0  0  0
   -6.6618    5.1805  -17.6148 C   0  0  0  0  0  0  0  0  0  0  0  0
   -5.6749    5.4021  -18.5792 N   0  0  0  0  0  0  0  0  0  0  0  0
   -5.4306    4.7108  -19.9526 C   0  0  0  0  0  0  0  0  0  0  0  0
   -6.0628    3.9049  -20.5196 O   0  0  0  0  0  0  0  0  0  0  0  0
   -4.1082    5.1510  -20.4978 C   0  0  0  0  0  0  0  0  0  0  0  0
   -4.1467    5.3628  -21.8232 C   0  0  0  0  0  0  0  0  0  0  0  0
   -2.9416    5.7318  -22.5821 C   0  0  0  0  0  0  0  0  0  0  0  0
   -2.9884    5.9086  -23.7944 O   0  0  0  0  0  0  0  0  0  0  0  0
   -1.7967    5.9021  -21.8605 N   0  0  0  0  0  0  0  0  0  0  0  0
   -1.7166    5.7422  -20.4736 C   0  0  0  0  0  0  0  0  0  0  0  0
   -0.5118    6.0472  -19.8338 C   0  0  0  0  0  0  0  0  0  0  0  0
   -0.4356    5.9855  -18.4450 C   0  0  0  0  0  0  0  0  0  0  0  0
   -1.5352    5.5361  -17.7216 C   0  0  0  0  0  0  0  0  0  0  0  0
   -1.4967    5.5627  -15.9976 Cl  0  0  0  0  0  0  0  0  0  0  0  0
   -2.6954    5.1114  -18.3737 C   0  0  0  0  0  0  0  0  0  0  0  0
   -2.8430    5.3114  -19.7531 C   0  0  0  0  0  0  0  0  0  0  0  0
   -7.9239    4.7178  -17.9380 C   0  0  0  0  0  0  0  0  0  0  0  0
   -8.3410    4.6617  -19.1982 N   0  0  0  0  0  0  0  0  0  0  0  0
   -9.6524    4.5525  -19.4311 C   0  0  0  0  0  0  0  0  0  0  0  0
  -10.5802    4.3234  -18.4536 C   0  0  0  0  0  0  0  0  0  0  0  0
  -10.1075    4.1487  -17.1868 C   0  0  0  0  0  0  0  0  0  0  0  0
   -8.8086    4.4668  -16.8893 C   0  0  0  0  0  0  0  0  0  0  0  0
   -8.4772    4.6714  -15.5601 C   0  0  0  0  0  0  0  0  0  0  0  0
  1  2  1  0
  2  3  1  0
  2  4  1  0
  2  5  1  0
  5  6  2  0
  6  7  1  0
  7  8  1  0
  8  9  1  0
  9 10  2  0
  9 11  1  0
 11 12  2  0
 12 13  1  0
 13 14  2  0
 13 15  1  0
 15 16  1  0
 16 17  2  0
 17 18  1  0
 18 19  2  0
 19 20  1  0
 19 21  1  0
 21 22  2  0
  7 23  2  0
 23 24  1  0
 24 25  2  0
 25 26  1  0
 26 27  2  0
 27 28  1  0
 28 29  2  0
 29  5  1  0
 22 11  1  0
 28 23  1  0
 22 16  1  0
M  END
>  <fragmenstein_outcome>  (325) 
nan

>  <exports>  (325) 
['/opt/xchem-fragalysis-2/maxwin/openbind-hippo/xx01zvns2b/cycle_01/syndirella/elabs/openbind_xx01zvns2b_c1_elab_chemspace_filtered.sdf']

>  <Energy>  (325) 
nan

>  <alias>  (325) 
None

>  <fragmenstein_runtime>  (325) 
nan

>  <scratch_subdir>  (325) 
nan

>  <HIPPO Compound ID>  (325) 
142199

>  <rmsd(smina/fragmenstein)>  (325) 
2.376

>  <distance_score>  (325) 
1.312429

>  <orig_smiles>  (325) 
nan

>  <fragmenstein_mode>  (325) 
nan

>  <inchikey>  (325) 
VQJOESMYSRIVJW-UHFFFAOYSA-N

>  <ref_pdb>  (325) 
Z0852a

>  <GNINA pK>  (325) 
nan

>  <gnina_score_min>  (325) 
6.243

>  <tags>  (325) 
openbind_xx01zvns2b_c1_elab_nonasap_filtered_scored_top80percent,openbind_xx01zvns2b_c1_elab_chemspace_filtered_scored_top80percent,openbind_xx01zvns2b_c1_elab_chemspace_filtered_scored,openbind_xx01zvns2b_c1_elab_chemspace_filtered_scored_top40percent,openbind_xx01zvns2b_c1_elab_chemspace_filtered_scored_top20percent,openbind_xx01zvns2b_c1_elab_chemspace_filtered_scored_top60percent,openbind_xx01zvns2b_c1_elabs_filtered

>  <smiles>  (325) 
CC(C)(C)c1cc(NC(=O)c2cc(=O)[nH]c3ccc(Cl)cc23)c2ncccc2c1

>  <subsites>  (325) 
1 - Z4590/B/203/1

>  <gnina_score>  (325) 
5.863

>  <HIPPO Pose ID>  (325) 
70274

>  <ref_mols>  (325) 
Z0917a,Z0852a

>  <energy_score>  (325) 
-25.365496

>  <inspiration_score>  (325) 
None

>  <smina_score_min>  (325) 
-6.488

>  <fragmenstein_error>  (325) 
nan

>  <name>  (325) 
P70274

$$$$
P70275
     RDKit          3D

 29 32  0  0  0  0  0  0  0  0999 V2000
   -6.3676    5.0256  -11.5190 C   0  0  0  0  0  0  0  0  0  0  0  0
   -6.8852    4.9274  -12.8461 O   0  0  0  0  0  0  0  0  0  0  0  0
   -5.9646    5.1273  -13.8198 C   0  0  0  0  0  0  0  0  0  0  0  0
   -4.7865    5.4011  -13.6499 O   0  0  0  0  0  0  0  0  0  0  0  0
   -6.5860    4.9956  -15.1629 C   0  0  0  0  0  0  0  0  0  0  0  0
   -5.8222    5.3264  -16.2838 C   0  0  0  0  0  0  0  0  0  0  0  0
   -6.3400    5.1657  -17.5766 C   0  0  0  0  0  0  0  0  0  0  0  0
   -5.4623    5.4003  -18.6354 N   0  0  0  0  0  0  0  0  0  0  0  0
   -5.3737    4.7365  -20.0402 C   0  0  0  0  0  0  0  0  0  0  0  0
   -6.0704    3.9471  -20.5516 O   0  0  0  0  0  0  0  0  0  0  0  0
   -4.1123    5.1881  -20.7029 C   0  0  0  0  0  0  0  0  0  0  0  0
   -4.2904    5.4880  -21.9936 C   0  0  0  0  0  0  0  0  0  0  0  0
   -3.1773    5.9054  -22.8578 C   0  0  0  0  0  0  0  0  0  0  0  0
   -3.4158    6.1205  -24.0450 O   0  0  0  0  0  0  0  0  0  0  0  0
   -1.9372    6.0602  -22.2612 N   0  0  0  0  0  0  0  0  0  0  0  0
   -0.8214    6.4566  -23.1058 C   0  0  0  0  0  0  0  0  0  0  0  0
   -1.7266    5.8153  -20.8704 C   0  0  0  0  0  0  0  0  0  0  0  0
   -0.4855    6.0837  -20.2681 C   0  0  0  0  0  0  0  0  0  0  0  0
   -0.2939    5.8782  -18.9051 C   0  0  0  0  0  0  0  0  0  0  0  0
   -1.3172    5.3325  -18.1467 C   0  0  0  0  0  0  0  0  0  0  0  0
   -2.5220    4.9745  -18.7486 C   0  0  0  0  0  0  0  0  0  0  0  0
   -2.7807    5.3066  -20.0883 C   0  0  0  0  0  0  0  0  0  0  0  0
   -7.6609    4.7755  -17.7746 C   0  0  0  0  0  0  0  0  0  0  0  0
   -8.2189    4.7859  -18.9876 N   0  0  0  0  0  0  0  0  0  0  0  0
   -9.5309    4.5445  -19.1142 C   0  0  0  0  0  0  0  0  0  0  0  0
  -10.3385    4.2118  -18.0585 C   0  0  0  0  0  0  0  0  0  0  0  0
   -9.7474    4.1332  -16.8140 C   0  0  0  0  0  0  0  0  0  0  0  0
   -8.4205    4.4719  -16.6381 C   0  0  0  0  0  0  0  0  0  0  0  0
   -7.8897    4.5440  -15.3460 C   0  0  0  0  0  0  0  0  0  0  0  0
  1  2  1  0
  2  3  1  0
  3  4  2  0
  3  5  1  0
  5  6  2  0
  6  7  1  0
  7  8  1  0
  8  9  1  0
  9 10  2  0
  9 11  1  0
 11 12  2  0
 12 13  1  0
 13 14  2  0
 13 15  1  0
 15 16  1  0
 15 17  1  0
 17 18  2  0
 18 19  1  0
 19 20  2  0
 20 21  1  0
 21 22  2  0
  7 23  2  0
 23 24  1  0
 24 25  2  0
 25 26  1  0
 26 27  2  0
 27 28  1  0
 28 29  2  0
 29  5  1  0
 22 11  1  0
 28 23  1  0
 22 17  1  0
M  END
>  <fragmenstein_outcome>  (326) 
nan

>  <exports>  (326) 
['/opt/xchem-fragalysis-2/maxwin/openbind-hippo/xx01zvns2b/cycle_01/syndirella/elabs/openbind_xx01zvns2b_c1_elab_chemspace_filtered.sdf']

>  <Energy>  (326) 
nan

>  <alias>  (326) 
None

>  <fragmenstein_runtime>  (326) 
nan

>  <scratch_subdir>  (326) 
nan

>  <HIPPO Compound ID>  (326) 
142200

>  <rmsd(smina/fragmenstein)>  (326) 
1.472

>  <distance_score>  (326) 
1.409514

>  <orig_smiles>  (326) 
nan

>  <fragmenstein_mode>  (326) 
nan

>  <inchikey>  (326) 
ZZWDKCAIASHRQM-UHFFFAOYSA-N

>  <ref_pdb>  (326) 
Z0852a

>  <GNINA pK>  (326) 
nan

>  <gnina_score_min>  (326) 
5.974

>  <tags>  (326) 
openbind_xx01zvns2b_c1_elab_nonasap_filtered_scored_top80percent,openbind_xx01zvns2b_c1_elab_chemspace_filtered_scored_top80percent,openbind_xx01zvns2b_c1_elab_chemspace_filtered_scored,openbind_xx01zvns2b_c1_elab_chemspace_filtered_scored_top40percent,openbind_xx01zvns2b_c1_elab_chemspace_filtered_scored_top20percent,openbind_xx01zvns2b_c1_elab_chemspace_filtered_scored_top60percent,openbind_xx01zvns2b_c1_elabs_filtered

>  <smiles>  (326) 
COC(=O)c1cc(NC(=O)c2cc(=O)n(C)c3ccccc23)c2ncccc2c1

>  <subsites>  (326) 
1 - Z4590/B/203/1

>  <gnina_score>  (326) 
5.767

>  <HIPPO Pose ID>  (326) 
70275

>  <ref_mols>  (326) 
Z0917a,Z0852a

>  <energy_score>  (326) 
-39.247017

>  <inspiration_score>  (326) 
None

>  <smina_score_min>  (326) 
-6.215

>  <fragmenstein_error>  (326) 
nan

>  <name>  (326) 
P70275

$$$$
P70277
     RDKit          3D

 29 32  0  0  0  0  0  0  0  0999 V2000
   -5.9084    3.9497  -20.2914 O   0  0  0  0  0  0  0  0  0  0  0  0
   -5.3161    4.7652  -19.6957 C   0  0  0  0  0  0  0  0  0  0  0  0
   -5.6302    5.4447  -18.3310 N   0  0  0  0  0  0  0  0  0  0  0  0
   -6.6534    5.1986  -17.4072 C   0  0  0  0  0  0  0  0  0  0  0  0
   -6.4446    5.5316  -16.0577 C   0  0  0  0  0  0  0  0  0  0  0  0
   -7.4406    5.2830  -15.0967 C   0  0  0  0  0  0  0  0  0  0  0  0
   -7.3450    5.7731  -13.6788 C   0  0  0  0  0  0  0  0  0  0  0  0
   -7.2425    7.1320  -13.6239 F   0  0  0  0  0  0  0  0  0  0  0  0
   -8.4404    5.4697  -12.9238 F   0  0  0  0  0  0  0  0  0  0  0  0
   -6.2711    5.2811  -13.0135 F   0  0  0  0  0  0  0  0  0  0  0  0
   -8.6109    4.6550  -15.4918 C   0  0  0  0  0  0  0  0  0  0  0  0
   -8.8501    4.4607  -16.8387 C   0  0  0  0  0  0  0  0  0  0  0  0
  -10.1314    4.1575  -17.2194 C   0  0  0  0  0  0  0  0  0  0  0  0
  -10.5214    4.3380  -18.5104 C   0  0  0  0  0  0  0  0  0  0  0  0
   -9.5313    4.5313  -19.4294 C   0  0  0  0  0  0  0  0  0  0  0  0
   -8.2375    4.6594  -19.1097 N   0  0  0  0  0  0  0  0  0  0  0  0
   -7.8951    4.7217  -17.8229 C   0  0  0  0  0  0  0  0  0  0  0  0
   -4.0435    5.2193  -20.3080 C   0  0  0  0  0  0  0  0  0  0  0  0
   -4.1090    5.4094  -21.6891 C   0  0  0  0  0  0  0  0  0  0  0  0
   -2.9607    5.7879  -22.3190 C   0  0  0  0  0  0  0  0  0  0  0  0
   -2.9328    5.9786  -23.6600 O   0  0  0  0  0  0  0  0  0  0  0  0
   -1.7957    6.0315  -21.7116 N   0  0  0  0  0  0  0  0  0  0  0  0
   -1.7371    5.8625  -20.3822 C   0  0  0  0  0  0  0  0  0  0  0  0
   -0.5446    6.1900  -19.7508 C   0  0  0  0  0  0  0  0  0  0  0  0
   -0.4015    6.1362  -18.3638 C   0  0  0  0  0  0  0  0  0  0  0  0
   -1.4537    5.6668  -17.5964 C   0  0  0  0  0  0  0  0  0  0  0  0
   -1.3365    5.6991  -15.7081 Br  0  0  0  0  0  0  0  0  0  0  0  0
   -2.6226    5.2229  -18.2109 C   0  0  0  0  0  0  0  0  0  0  0  0
   -2.8277    5.4140  -19.6043 C   0  0  0  0  0  0  0  0  0  0  0  0
  1  2  2  0
  2  3  1  0
  3  4  1  0
  4  5  2  0
  5  6  1  0
  6  7  1  0
  7  8  1  0
  7  9  1  0
  7 10  1  0
  6 11  2  0
 11 12  1  0
 12 13  2  0
 13 14  1  0
 14 15  2  0
 15 16  1  0
 16 17  2  0
  2 18  1  0
 18 19  2  0
 19 20  1  0
 20 21  1  0
 20 22  2  0
 22 23  1  0
 23 24  2  0
 24 25  1  0
 25 26  2  0
 26 27  1  0
 26 28  1  0
 28 29  2  0
 17  4  1  0
 29 18  1  0
 17 12  1  0
 29 23  1  0
M  END
>  <fragmenstein_outcome>  (327) 
nan

>  <exports>  (327) 
['/opt/xchem-fragalysis-2/maxwin/openbind-hippo/xx01zvns2b/cycle_01/syndirella/elabs/openbind_xx01zvns2b_c1_elab_chemspace_filtered.sdf']

>  <Energy>  (327) 
nan

>  <alias>  (327) 
None

>  <fragmenstein_runtime>  (327) 
nan

>  <scratch_subdir>  (327) 
nan

>  <HIPPO Compound ID>  (327) 
142202

>  <rmsd(smina/fragmenstein)>  (327) 
2.499

>  <distance_score>  (327) 
0.977535

>  <orig_smiles>  (327) 
nan

>  <fragmenstein_mode>  (327) 
nan

>  <inchikey>  (327) 
GMKKFLYRGBHUSF-UHFFFAOYSA-N

>  <ref_pdb>  (327) 
Z0852a

>  <GNINA pK>  (327) 
nan

>  <gnina_score_min>  (327) 
5.722

>  <tags>  (327) 
openbind_xx01zvns2b_c1_elab_nonasap_filtered_scored_top80percent,openbind_xx01zvns2b_c1_elab_chemspace_filtered_scored_top80percent,openbind_xx01zvns2b_c1_elab_chemspace_filtered_scored,openbind_xx01zvns2b_c1_elab_chemspace_filtered_scored_top40percent,openbind_xx01zvns2b_c1_elab_chemspace_filtered_scored_top20percent,openbind_xx01zvns2b_c1_elab_chemspace_filtered_scored_top60percent,openbind_xx01zvns2b_c1_elabs_filtered

>  <smiles>  (327) 
O=C(Nc1cc(C(F)(F)F)cc2cccnc12)c1cc(O)nc2ccc(Br)cc12

>  <subsites>  (327) 
1 - Z4590/B/203/1

>  <gnina_score>  (327) 
5.715

>  <HIPPO Pose ID>  (327) 
70277

>  <ref_mols>  (327) 
Z0917a,Z0852a

>  <energy_score>  (327) 
-5.109998

>  <inspiration_score>  (327) 
None

>  <smina_score_min>  (327) 
-6.418

>  <fragmenstein_error>  (327) 
nan

>  <name>  (327) 
P70277

$$$$
P70278
     RDKit          3D

 29 32  0  0  0  0  0  0  0  0999 V2000
   -2.9722    6.1114  -23.8066 C   0  0  0  0  0  0  0  0  0  0  0  0
   -2.9572    5.9007  -22.3241 C   0  0  0  0  0  0  0  0  0  0  0  0
   -4.0755    5.4425  -21.6643 C   0  0  0  0  0  0  0  0  0  0  0  0
   -4.0022    5.2292  -20.2823 C   0  0  0  0  0  0  0  0  0  0  0  0
   -5.2633    4.7241  -19.6738 C   0  0  0  0  0  0  0  0  0  0  0  0
   -5.8660    3.9434  -20.3052 O   0  0  0  0  0  0  0  0  0  0  0  0
   -5.5335    5.2955  -18.2515 N   0  0  0  0  0  0  0  0  0  0  0  0
   -6.6161    5.1006  -17.3832 C   0  0  0  0  0  0  0  0  0  0  0  0
   -6.4355    5.4448  -16.0306 C   0  0  0  0  0  0  0  0  0  0  0  0
   -7.4612    5.2427  -15.0921 C   0  0  0  0  0  0  0  0  0  0  0  0
   -7.3779    5.7410  -13.6766 C   0  0  0  0  0  0  0  0  0  0  0  0
   -8.4775    5.4383  -12.9280 F   0  0  0  0  0  0  0  0  0  0  0  0
   -6.3066    5.2583  -13.0000 F   0  0  0  0  0  0  0  0  0  0  0  0
   -7.2808    7.1009  -13.6294 F   0  0  0  0  0  0  0  0  0  0  0  0
   -8.6423    4.6547  -15.5125 C   0  0  0  0  0  0  0  0  0  0  0  0
   -8.8528    4.4513  -16.8634 C   0  0  0  0  0  0  0  0  0  0  0  0
  -10.1357    4.1893  -17.2699 C   0  0  0  0  0  0  0  0  0  0  0  0
  -10.4860    4.3684  -18.5706 C   0  0  0  0  0  0  0  0  0  0  0  0
   -9.4667    4.4956  -19.4681 C   0  0  0  0  0  0  0  0  0  0  0  0
   -8.1758    4.5851  -19.1217 N   0  0  0  0  0  0  0  0  0  0  0  0
   -7.8622    4.6623  -17.8279 C   0  0  0  0  0  0  0  0  0  0  0  0
   -2.7943    5.4602  -19.5779 C   0  0  0  0  0  0  0  0  0  0  0  0
   -2.5651    5.2498  -18.1894 C   0  0  0  0  0  0  0  0  0  0  0  0
   -1.4061    5.7232  -17.5764 C   0  0  0  0  0  0  0  0  0  0  0  0
   -1.2648    5.7153  -15.6895 Br  0  0  0  0  0  0  0  0  0  0  0  0
   -0.3829    6.2522  -18.3429 C   0  0  0  0  0  0  0  0  0  0  0  0
   -0.5473    6.3342  -19.7255 C   0  0  0  0  0  0  0  0  0  0  0  0
   -1.7326    5.9719  -20.3507 C   0  0  0  0  0  0  0  0  0  0  0  0
   -1.8089    6.1728  -21.6740 N   0  0  0  0  0  0  0  0  0  0  0  0
  1  2  1  0
  2  3  2  0
  3  4  1  0
  4  5  1  0
  5  6  2  0
  5  7  1  0
  7  8  1  0
  8  9  2  0
  9 10  1  0
 10 11  1  0
 11 12  1  0
 11 13  1  0
 11 14  1  0
 10 15  2  0
 15 16  1  0
 16 17  2  0
 17 18  1  0
 18 19  2  0
 19 20  1  0
 20 21  2  0
  4 22  2  0
 22 23  1  0
 23 24  2  0
 24 25  1  0
 24 26  1  0
 26 27  2  0
 27 28  1  0
 28 29  2  0
 29  2  1  0
 21  8  1  0
 28 22  1  0
 21 16  1  0
M  END
>  <fragmenstein_outcome>  (328) 
nan

>  <exports>  (328) 
['/opt/xchem-fragalysis-2/maxwin/openbind-hippo/xx01zvns2b/cycle_01/syndirella/elabs/openbind_xx01zvns2b_c1_elab_chemspace_filtered.sdf']

>  <Energy>  (328) 
nan

>  <alias>  (328) 
None

>  <fragmenstein_runtime>  (328) 
nan

>  <scratch_subdir>  (328) 
nan

>  <HIPPO Compound ID>  (328) 
142203

>  <rmsd(smina/fragmenstein)>  (328) 
2.474

>  <distance_score>  (328) 
1.087947

>  <orig_smiles>  (328) 
nan

>  <fragmenstein_mode>  (328) 
nan

>  <inchikey>  (328) 
LSGXIPROIZTQIJ-UHFFFAOYSA-N

>  <ref_pdb>  (328) 
Z0852a

>  <GNINA pK>  (328) 
nan

>  <gnina_score_min>  (328) 
5.934

>  <tags>  (328) 
openbind_xx01zvns2b_c1_elab_nonasap_filtered_scored_top80percent,openbind_xx01zvns2b_c1_elab_chemspace_filtered_scored_top80percent,openbind_xx01zvns2b_c1_elab_chemspace_filtered_scored,openbind_xx01zvns2b_c1_elab_chemspace_filtered_scored_top40percent,openbind_xx01zvns2b_c1_elab_chemspace_filtered_scored_top20percent,openbind_xx01zvns2b_c1_elab_chemspace_filtered_scored_top60percent,openbind_xx01zvns2b_c1_elabs_filtered

>  <smiles>  (328) 
Cc1cc(C(=O)Nc2cc(C(F)(F)F)cc3cccnc23)c2cc(Br)ccc2n1

>  <subsites>  (328) 
1 - Z4590/B/203/1

>  <gnina_score>  (328) 
5.905

>  <HIPPO Pose ID>  (328) 
70278

>  <ref_mols>  (328) 
Z0917a,Z0852a

>  <energy_score>  (328) 
-2.549476

>  <inspiration_score>  (328) 
None

>  <smina_score_min>  (328) 
-6.568

>  <fragmenstein_error>  (328) 
nan

>  <name>  (328) 
P70278

$$$$
P70279
     RDKit          3D

 29 32  0  0  0  0  0  0  0  0999 V2000
   -2.8903    6.1036  -23.9487 C   0  0  0  0  0  0  0  0  0  0  0  0
   -2.9247    5.8699  -22.4696 C   0  0  0  0  0  0  0  0  0  0  0  0
   -4.0792    5.4435  -21.8515 C   0  0  0  0  0  0  0  0  0  0  0  0
   -4.0487    5.2096  -20.4760 C   0  0  0  0  0  0  0  0  0  0  0  0
   -5.3424    4.7635  -19.8949 C   0  0  0  0  0  0  0  0  0  0  0  0
   -5.9375    3.9414  -20.4771 O   0  0  0  0  0  0  0  0  0  0  0  0
   -5.6362    5.4417  -18.5285 N   0  0  0  0  0  0  0  0  0  0  0  0
   -6.6367    5.1882  -17.5860 C   0  0  0  0  0  0  0  0  0  0  0  0
   -6.3568    5.5200  -16.2514 C   0  0  0  0  0  0  0  0  0  0  0  0
   -7.2824    5.2937  -15.2168 C   0  0  0  0  0  0  0  0  0  0  0  0
   -7.0656    5.7384  -13.7735 C   0  0  0  0  0  0  0  0  0  0  0  0
   -7.0720    4.5229  -12.8346 C   0  0  0  0  0  0  0  0  0  0  0  0
   -5.7289    6.4546  -13.6016 C   0  0  0  0  0  0  0  0  0  0  0  0
   -8.1587    6.7334  -13.3315 C   0  0  0  0  0  0  0  0  0  0  0  0
   -8.4774    4.6745  -15.5545 C   0  0  0  0  0  0  0  0  0  0  0  0
   -8.7893    4.4655  -16.8880 C   0  0  0  0  0  0  0  0  0  0  0  0
  -10.0867    4.1521  -17.1965 C   0  0  0  0  0  0  0  0  0  0  0  0
  -10.5424    4.3172  -18.4700 C   0  0  0  0  0  0  0  0  0  0  0  0
   -9.6009    4.5245  -19.4398 C   0  0  0  0  0  0  0  0  0  0  0  0
   -8.2912    4.6372  -19.1942 N   0  0  0  0  0  0  0  0  0  0  0  0
   -7.8898    4.7107  -17.9281 C   0  0  0  0  0  0  0  0  0  0  0  0
   -2.8560    5.3912  -19.7303 C   0  0  0  0  0  0  0  0  0  0  0  0
   -2.6859    5.1600  -18.3365 C   0  0  0  0  0  0  0  0  0  0  0  0
   -1.5509    5.6183  -17.6724 C   0  0  0  0  0  0  0  0  0  0  0  0
   -1.5108    5.6329  -15.7802 Br  0  0  0  0  0  0  0  0  0  0  0  0
   -0.4861    6.1287  -18.3941 C   0  0  0  0  0  0  0  0  0  0  0  0
   -0.5892    6.2146  -19.7832 C   0  0  0  0  0  0  0  0  0  0  0  0
   -1.7569    5.8835  -20.4583 C   0  0  0  0  0  0  0  0  0  0  0  0
   -1.7874    6.1003  -21.7815 N   0  0  0  0  0  0  0  0  0  0  0  0
  1  2  1  0
  2  3  2  0
  3  4  1  0
  4  5  1  0
  5  6  2  0
  5  7  1  0
  7  8  1  0
  8  9  2  0
  9 10  1  0
 10 11  1  0
 11 12  1  0
 11 13  1  0
 11 14  1  0
 10 15  2  0
 15 16  1  0
 16 17  2  0
 17 18  1  0
 18 19  2  0
 19 20  1  0
 20 21  2  0
  4 22  2  0
 22 23  1  0
 23 24  2  0
 24 25  1  0
 24 26  1  0
 26 27  2  0
 27 28  1  0
 28 29  2  0
 29  2  1  0
 21  8  1  0
 28 22  1  0
 21 16  1  0
M  END
>  <fragmenstein_outcome>  (329) 
nan

>  <exports>  (329) 
['/opt/xchem-fragalysis-2/maxwin/openbind-hippo/xx01zvns2b/cycle_01/syndirella/elabs/openbind_xx01zvns2b_c1_elab_chemspace_filtered.sdf']

>  <Energy>  (329) 
nan

>  <alias>  (329) 
None

>  <fragmenstein_runtime>  (329) 
nan

>  <scratch_subdir>  (329) 
nan

>  <HIPPO Compound ID>  (329) 
142204

>  <rmsd(smina/fragmenstein)>  (329) 
2.386

>  <distance_score>  (329) 
1.337632

>  <orig_smiles>  (329) 
nan

>  <fragmenstein_mode>  (329) 
nan

>  <inchikey>  (329) 
TVGLYNUTNUJSMA-UHFFFAOYSA-N

>  <ref_pdb>  (329) 
Z0852a

>  <GNINA pK>  (329) 
nan

>  <gnina_score_min>  (329) 
6.346

>  <tags>  (329) 
openbind_xx01zvns2b_c1_elab_nonasap_filtered_scored_top80percent,openbind_xx01zvns2b_c1_elab_chemspace_filtered_scored_top80percent,openbind_xx01zvns2b_c1_elab_chemspace_filtered_scored,openbind_xx01zvns2b_c1_elab_chemspace_filtered_scored_top40percent,openbind_xx01zvns2b_c1_elab_chemspace_filtered_scored_top20percent,openbind_xx01zvns2b_c1_elab_chemspace_filtered_scored_top60percent,openbind_xx01zvns2b_c1_elabs_filtered

>  <smiles>  (329) 
Cc1cc(C(=O)Nc2cc(C(C)(C)C)cc3cccnc23)c2cc(Br)ccc2n1

>  <subsites>  (329) 
1 - Z4590/B/203/1

>  <gnina_score>  (329) 
6.054

>  <HIPPO Pose ID>  (329) 
70279

>  <ref_mols>  (329) 
Z0917a,Z0852a

>  <energy_score>  (329) 
-14.369238

>  <inspiration_score>  (329) 
None

>  <smina_score_min>  (329) 
-6.658

>  <fragmenstein_error>  (329) 
nan

>  <name>  (329) 
P70279

$$$$
P70280
     RDKit          3D

 29 32  0  0  0  0  0  0  0  0999 V2000
   -6.4256    5.0606  -11.5128 C   0  0  0  0  0  0  0  0  0  0  0  0
   -6.9187    4.9328  -12.8466 O   0  0  0  0  0  0  0  0  0  0  0  0
   -5.9668    5.0434  -13.8050 C   0  0  0  0  0  0  0  0  0  0  0  0
   -4.7765    5.2388  -13.6148 O   0  0  0  0  0  0  0  0  0  0  0  0
   -6.5690    4.9231  -15.1574 C   0  0  0  0  0  0  0  0  0  0  0  0
   -5.7821    5.2357  -16.2671 C   0  0  0  0  0  0  0  0  0  0  0  0
   -6.2804    5.0829  -17.5695 C   0  0  0  0  0  0  0  0  0  0  0  0
   -5.3791    5.3447  -18.6037 N   0  0  0  0  0  0  0  0  0  0  0  0
   -5.2805    4.7430  -20.0317 C   0  0  0  0  0  0  0  0  0  0  0  0
   -5.9844    3.9928  -20.5887 O   0  0  0  0  0  0  0  0  0  0  0  0
   -4.0773    5.2398  -20.7514 C   0  0  0  0  0  0  0  0  0  0  0  0
   -4.3086    5.6051  -22.0761 C   0  0  0  0  0  0  0  0  0  0  0  0
   -3.2546    6.0967  -22.8078 C   0  0  0  0  0  0  0  0  0  0  0  0
   -3.4315    6.4938  -24.2414 C   0  0  0  0  0  0  0  0  0  0  0  0
   -2.0284    6.2533  -22.2735 N   0  0  0  0  0  0  0  0  0  0  0  0
   -1.7866    5.9214  -20.9868 C   0  0  0  0  0  0  0  0  0  0  0  0
   -0.5254    6.1708  -20.4268 C   0  0  0  0  0  0  0  0  0  0  0  0
    0.7472    6.8819  -21.3711 Cl  0  0  0  0  0  0  0  0  0  0  0  0
   -0.2468    5.9179  -19.0842 C   0  0  0  0  0  0  0  0  0  0  0  0
   -1.2208    5.3471  -18.2853 C   0  0  0  0  0  0  0  0  0  0  0  0
   -2.4516    5.0025  -18.8354 C   0  0  0  0  0  0  0  0  0  0  0  0
   -2.7900    5.3648  -20.1663 C   0  0  0  0  0  0  0  0  0  0  0  0
   -7.6070    4.7136  -17.7878 C   0  0  0  0  0  0  0  0  0  0  0  0
   -8.1541    4.7261  -19.0067 N   0  0  0  0  0  0  0  0  0  0  0  0
   -9.4718    4.5138  -19.1431 C   0  0  0  0  0  0  0  0  0  0  0  0
  -10.3009    4.2164  -18.0932 C   0  0  0  0  0  0  0  0  0  0  0  0
   -9.7259    4.1343  -16.8430 C   0  0  0  0  0  0  0  0  0  0  0  0
   -8.3911    4.4366  -16.6580 C   0  0  0  0  0  0  0  0  0  0  0  0
   -7.8793    4.5027  -15.3586 C   0  0  0  0  0  0  0  0  0  0  0  0
  1  2  1  0
  2  3  1  0
  3  4  2  0
  3  5  1  0
  5  6  2  0
  6  7  1  0
  7  8  1  0
  8  9  1  0
  9 10  2  0
  9 11  1  0
 11 12  2  0
 12 13  1  0
 13 14  1  0
 13 15  2  0
 15 16  1  0
 16 17  2  0
 17 18  1  0
 17 19  1  0
 19 20  2  0
 20 21  1  0
 21 22  2  0
  7 23  2  0
 23 24  1  0
 24 25  2  0
 25 26  1  0
 26 27  2  0
 27 28  1  0
 28 29  2  0
 29  5  1  0
 22 11  1  0
 28 23  1  0
 22 16  1  0
M  END
>  <fragmenstein_outcome>  (330) 
nan

>  <exports>  (330) 
['/opt/xchem-fragalysis-2/maxwin/openbind-hippo/xx01zvns2b/cycle_01/syndirella/elabs/openbind_xx01zvns2b_c1_elab_chemspace_filtered.sdf']

>  <Energy>  (330) 
nan

>  <alias>  (330) 
None

>  <fragmenstein_runtime>  (330) 
nan

>  <scratch_subdir>  (330) 
nan

>  <HIPPO Compound ID>  (330) 
142205

>  <rmsd(smina/fragmenstein)>  (330) 
1.159

>  <distance_score>  (330) 
1.500476

>  <orig_smiles>  (330) 
nan

>  <fragmenstein_mode>  (330) 
nan

>  <inchikey>  (330) 
BTJMNASHNLBZRT-UHFFFAOYSA-N

>  <ref_pdb>  (330) 
Z0852a

>  <GNINA pK>  (330) 
nan

>  <gnina_score_min>  (330) 
6.137

>  <tags>  (330) 
openbind_xx01zvns2b_c1_elab_nonasap_filtered_scored_top80percent,openbind_xx01zvns2b_c1_elab_chemspace_filtered_scored_top80percent,openbind_xx01zvns2b_c1_elab_chemspace_filtered_scored,openbind_xx01zvns2b_c1_elab_chemspace_filtered_scored_top40percent,openbind_xx01zvns2b_c1_elab_chemspace_filtered_scored_top20percent,openbind_xx01zvns2b_c1_elab_chemspace_filtered_scored_top60percent,openbind_xx01zvns2b_c1_elabs_filtered

>  <smiles>  (330) 
COC(=O)c1cc(NC(=O)c2cc(C)nc3c(Cl)cccc23)c2ncccc2c1

>  <subsites>  (330) 
1 - Z4590/B/203/1

>  <gnina_score>  (330) 
5.954

>  <HIPPO Pose ID>  (330) 
70280

>  <ref_mols>  (330) 
Z0917a,Z0852a

>  <energy_score>  (330) 
-8.432448

>  <inspiration_score>  (330) 
None

>  <smina_score_min>  (330) 
-6.397

>  <fragmenstein_error>  (330) 
nan

>  <name>  (330) 
P70280

$$$$
P70281
     RDKit          3D

 29 32  0  0  0  0  0  0  0  0999 V2000
   -3.2917    6.4206  -23.9022 C   0  0  0  0  0  0  0  0  0  0  0  0
   -3.1860    6.0900  -22.4455 C   0  0  0  0  0  0  0  0  0  0  0  0
   -4.2627    5.5904  -21.7532 C   0  0  0  0  0  0  0  0  0  0  0  0
   -4.0960    5.2760  -20.4020 C   0  0  0  0  0  0  0  0  0  0  0  0
   -5.3133    4.7353  -19.7467 C   0  0  0  0  0  0  0  0  0  0  0  0
   -5.9063    3.9233  -20.3480 O   0  0  0  0  0  0  0  0  0  0  0  0
   -5.5638    5.3227  -18.3246 N   0  0  0  0  0  0  0  0  0  0  0  0
   -6.6153    5.1060  -17.4225 C   0  0  0  0  0  0  0  0  0  0  0  0
   -6.4145    5.4420  -16.0708 C   0  0  0  0  0  0  0  0  0  0  0  0
   -7.4283    5.2351  -15.1180 C   0  0  0  0  0  0  0  0  0  0  0  0
   -7.3357    5.7374  -13.7036 C   0  0  0  0  0  0  0  0  0  0  0  0
   -6.2567    5.2601  -13.0353 F   0  0  0  0  0  0  0  0  0  0  0  0
   -8.4275    5.4318  -12.9445 F   0  0  0  0  0  0  0  0  0  0  0  0
   -7.2436    7.0976  -13.6598 F   0  0  0  0  0  0  0  0  0  0  0  0
   -8.6134    4.6428  -15.5218 C   0  0  0  0  0  0  0  0  0  0  0  0
   -8.8433    4.4451  -16.8695 C   0  0  0  0  0  0  0  0  0  0  0  0
  -10.1311    4.1786  -17.2571 C   0  0  0  0  0  0  0  0  0  0  0  0
  -10.5040    4.3633  -18.5513 C   0  0  0  0  0  0  0  0  0  0  0  0
   -9.4997    4.5106  -19.4629 C   0  0  0  0  0  0  0  0  0  0  0  0
   -8.2041    4.6011  -19.1358 N   0  0  0  0  0  0  0  0  0  0  0  0
   -7.8690    4.6676  -17.8473 C   0  0  0  0  0  0  0  0  0  0  0  0
   -2.8448    5.4385  -19.7622 C   0  0  0  0  0  0  0  0  0  0  0  0
   -2.5647    5.0860  -18.4162 C   0  0  0  0  0  0  0  0  0  0  0  0
   -1.3648    5.4460  -17.8107 C   0  0  0  0  0  0  0  0  0  0  0  0
   -0.3693    6.0409  -18.5659 C   0  0  0  0  0  0  0  0  0  0  0  0
   -0.5900    6.2869  -19.9220 C   0  0  0  0  0  0  0  0  0  0  0  0
    0.7135    7.0171  -20.8074 Cl  0  0  0  0  0  0  0  0  0  0  0  0
   -1.8149    6.0045  -20.5440 C   0  0  0  0  0  0  0  0  0  0  0  0
   -1.9970    6.3026  -21.8502 N   0  0  0  0  0  0  0  0  0  0  0  0
  1  2  1  0
  2  3  2  0
  3  4  1  0
  4  5  1  0
  5  6  2  0
  5  7  1  0
  7  8  1  0
  8  9  2  0
  9 10  1  0
 10 11  1  0
 11 12  1  0
 11 13  1  0
 11 14  1  0
 10 15  2  0
 15 16  1  0
 16 17  2  0
 17 18  1  0
 18 19  2  0
 19 20  1  0
 20 21  2  0
  4 22  2  0
 22 23  1  0
 23 24  2  0
 24 25  1  0
 25 26  2  0
 26 27  1  0
 26 28  1  0
 28 29  2  0
 29  2  1  0
 21  8  1  0
 28 22  1  0
 21 16  1  0
M  END
>  <fragmenstein_outcome>  (331) 
nan

>  <exports>  (331) 
['/opt/xchem-fragalysis-2/maxwin/openbind-hippo/xx01zvns2b/cycle_01/syndirella/elabs/openbind_xx01zvns2b_c1_elab_chemspace_filtered.sdf']

>  <Energy>  (331) 
nan

>  <alias>  (331) 
None

>  <fragmenstein_runtime>  (331) 
nan

>  <scratch_subdir>  (331) 
nan

>  <HIPPO Compound ID>  (331) 
142206

>  <rmsd(smina/fragmenstein)>  (331) 
1.29

>  <distance_score>  (331) 
0.991034

>  <orig_smiles>  (331) 
nan

>  <fragmenstein_mode>  (331) 
nan

>  <inchikey>  (331) 
CQWRLOSIICBFMN-UHFFFAOYSA-N

>  <ref_pdb>  (331) 
Z0852a

>  <GNINA pK>  (331) 
nan

>  <gnina_score_min>  (331) 
6.115

>  <tags>  (331) 
openbind_xx01zvns2b_c1_elab_nonasap_filtered_scored_top80percent,openbind_xx01zvns2b_c1_elab_chemspace_filtered_scored_top80percent,openbind_xx01zvns2b_c1_elab_chemspace_filtered_scored,openbind_xx01zvns2b_c1_elab_chemspace_filtered_scored_top40percent,openbind_xx01zvns2b_c1_elab_chemspace_filtered_scored_top20percent,openbind_xx01zvns2b_c1_elab_chemspace_filtered_scored_top60percent,openbind_xx01zvns2b_c1_elabs_filtered

>  <smiles>  (331) 
Cc1cc(C(=O)Nc2cc(C(F)(F)F)cc3cccnc23)c2cccc(Cl)c2n1

>  <subsites>  (331) 
1 - Z4590/B/203/1

>  <gnina_score>  (331) 
5.654

>  <HIPPO Pose ID>  (331) 
70281

>  <ref_mols>  (331) 
Z0917a,Z0852a

>  <energy_score>  (331) 
-14.538261

>  <inspiration_score>  (331) 
None

>  <smina_score_min>  (331) 
-6.667

>  <fragmenstein_error>  (331) 
nan

>  <name>  (331) 
P70281

$$$$
P70282
     RDKit          3D

 29 32  0  0  0  0  0  0  0  0999 V2000
   -3.2570    6.4269  -24.0379 C   0  0  0  0  0  0  0  0  0  0  0  0
   -3.1540    6.0752  -22.5858 C   0  0  0  0  0  0  0  0  0  0  0  0
   -4.2342    5.5705  -21.9034 C   0  0  0  0  0  0  0  0  0  0  0  0
   -4.0717    5.2366  -20.5580 C   0  0  0  0  0  0  0  0  0  0  0  0
   -5.2959    4.6978  -19.9101 C   0  0  0  0  0  0  0  0  0  0  0  0
   -5.9282    3.9269  -20.5245 O   0  0  0  0  0  0  0  0  0  0  0  0
   -5.5060    5.2573  -18.4729 N   0  0  0  0  0  0  0  0  0  0  0  0
   -6.5548    5.0609  -17.5644 C   0  0  0  0  0  0  0  0  0  0  0  0
   -6.3171    5.4158  -16.2226 C   0  0  0  0  0  0  0  0  0  0  0  0
   -7.2968    5.2455  -15.2267 C   0  0  0  0  0  0  0  0  0  0  0  0
   -7.1068    5.7443  -13.7953 C   0  0  0  0  0  0  0  0  0  0  0  0
   -8.3930    5.6601  -12.9618 C   0  0  0  0  0  0  0  0  0  0  0  0
   -6.6926    7.2275  -13.7843 C   0  0  0  0  0  0  0  0  0  0  0  0
   -6.0346    4.9004  -13.0985 C   0  0  0  0  0  0  0  0  0  0  0  0
   -8.4883    4.6427  -15.6039 C   0  0  0  0  0  0  0  0  0  0  0  0
   -8.7642    4.4346  -16.9404 C   0  0  0  0  0  0  0  0  0  0  0  0
  -10.0706    4.1828  -17.2741 C   0  0  0  0  0  0  0  0  0  0  0  0
  -10.4834    4.3559  -18.5573 C   0  0  0  0  0  0  0  0  0  0  0  0
   -9.5049    4.4809  -19.5022 C   0  0  0  0  0  0  0  0  0  0  0  0
   -8.1960    4.5451  -19.2240 N   0  0  0  0  0  0  0  0  0  0  0  0
   -7.8199    4.6305  -17.9492 C   0  0  0  0  0  0  0  0  0  0  0  0
   -2.8235    5.3993  -19.9077 C   0  0  0  0  0  0  0  0  0  0  0  0
   -2.5493    5.0483  -18.5592 C   0  0  0  0  0  0  0  0  0  0  0  0
   -1.3542    5.4115  -17.9464 C   0  0  0  0  0  0  0  0  0  0  0  0
   -0.3543    6.0058  -18.6954 C   0  0  0  0  0  0  0  0  0  0  0  0
   -0.5682    6.2527  -20.0521 C   0  0  0  0  0  0  0  0  0  0  0  0
    0.7386    6.9873  -20.9292 Cl  0  0  0  0  0  0  0  0  0  0  0  0
   -1.7903    5.9712  -20.6802 C   0  0  0  0  0  0  0  0  0  0  0  0
   -1.9666    6.2795  -21.9845 N   0  0  0  0  0  0  0  0  0  0  0  0
  1  2  1  0
  2  3  2  0
  3  4  1  0
  4  5  1  0
  5  6  2  0
  5  7  1  0
  7  8  1  0
  8  9  2  0
  9 10  1  0
 10 11  1  0
 11 12  1  0
 11 13  1  0
 11 14  1  0
 10 15  2  0
 15 16  1  0
 16 17  2  0
 17 18  1  0
 18 19  2  0
 19 20  1  0
 20 21  2  0
  4 22  2  0
 22 23  1  0
 23 24  2  0
 24 25  1  0
 25 26  2  0
 26 27  1  0
 26 28  1  0
 28 29  2  0
 29  2  1  0
 21  8  1  0
 28 22  1  0
 21 16  1  0
M  END
>  <fragmenstein_outcome>  (332) 
nan

>  <exports>  (332) 
['/opt/xchem-fragalysis-2/maxwin/openbind-hippo/xx01zvns2b/cycle_01/syndirella/elabs/openbind_xx01zvns2b_c1_elab_chemspace_filtered.sdf']

>  <Energy>  (332) 
nan

>  <alias>  (332) 
None

>  <fragmenstein_runtime>  (332) 
nan

>  <scratch_subdir>  (332) 
nan

>  <HIPPO Compound ID>  (332) 
142207

>  <rmsd(smina/fragmenstein)>  (332) 
1.462

>  <distance_score>  (332) 
1.434082

>  <orig_smiles>  (332) 
nan

>  <fragmenstein_mode>  (332) 
nan

>  <inchikey>  (332) 
JOMVNJOEUOBXPG-UHFFFAOYSA-N

>  <ref_pdb>  (332) 
Z0852a

>  <GNINA pK>  (332) 
nan

>  <gnina_score_min>  (332) 
6.51

>  <tags>  (332) 
openbind_xx01zvns2b_c1_elab_nonasap_filtered_scored_top80percent,openbind_xx01zvns2b_c1_elab_chemspace_filtered_scored_top80percent,openbind_xx01zvns2b_c1_elab_chemspace_filtered_scored,openbind_xx01zvns2b_c1_elab_chemspace_filtered_scored_top40percent,openbind_xx01zvns2b_c1_elab_chemspace_filtered_scored_top20percent,openbind_xx01zvns2b_c1_elab_chemspace_filtered_scored_top60percent,openbind_xx01zvns2b_c1_elabs_filtered

>  <smiles>  (332) 
Cc1cc(C(=O)Nc2cc(C(C)(C)C)cc3cccnc23)c2cccc(Cl)c2n1

>  <subsites>  (332) 
1 - Z4590/B/203/1

>  <gnina_score>  (332) 
5.917

>  <HIPPO Pose ID>  (332) 
70282

>  <ref_mols>  (332) 
Z0917a,Z0852a

>  <energy_score>  (332) 
-24.292495

>  <inspiration_score>  (332) 
None

>  <smina_score_min>  (332) 
-6.697

>  <fragmenstein_error>  (332) 
nan

>  <name>  (332) 
P70282

$$$$
P70283
     RDKit          3D

 29 32  0  0  0  0  0  0  0  0999 V2000
   -5.6924    6.4699  -13.6869 C   0  0  0  0  0  0  0  0  0  0  0  0
   -7.0156    5.7226  -13.8250 C   0  0  0  0  0  0  0  0  0  0  0  0
   -6.9794    4.5129  -12.8797 C   0  0  0  0  0  0  0  0  0  0  0  0
   -8.1189    6.6981  -13.3622 C   0  0  0  0  0  0  0  0  0  0  0  0
   -7.2508    5.2637  -15.2622 C   0  0  0  0  0  0  0  0  0  0  0  0
   -6.3352    5.4689  -16.3133 C   0  0  0  0  0  0  0  0  0  0  0  0
   -6.6456    5.1394  -17.6413 C   0  0  0  0  0  0  0  0  0  0  0  0
   -5.6711    5.3658  -18.6198 N   0  0  0  0  0  0  0  0  0  0  0  0
   -5.4575    4.6932  -20.0095 C   0  0  0  0  0  0  0  0  0  0  0  0
   -6.1085    3.9033  -20.5787 O   0  0  0  0  0  0  0  0  0  0  0  0
   -4.1582    5.1559  -20.5849 C   0  0  0  0  0  0  0  0  0  0  0  0
   -4.2451    5.4311  -21.8960 C   0  0  0  0  0  0  0  0  0  0  0  0
   -3.0669    5.8368  -22.6779 C   0  0  0  0  0  0  0  0  0  0  0  0
   -3.1516    6.0502  -23.8822 O   0  0  0  0  0  0  0  0  0  0  0  0
   -1.9003    5.9904  -21.9885 N   0  0  0  0  0  0  0  0  0  0  0  0
   -1.7685    5.7557  -20.6157 C   0  0  0  0  0  0  0  0  0  0  0  0
   -0.5382    6.0117  -20.0103 C   0  0  0  0  0  0  0  0  0  0  0  0
   -0.4145    5.8230  -18.6446 C   0  0  0  0  0  0  0  0  0  0  0  0
    0.7438    6.1081  -18.0363 F   0  0  0  0  0  0  0  0  0  0  0  0
   -1.4743    5.3268  -17.8974 C   0  0  0  0  0  0  0  0  0  0  0  0
   -2.6752    4.9873  -18.5237 C   0  0  0  0  0  0  0  0  0  0  0  0
   -2.8702    5.2820  -19.8795 C   0  0  0  0  0  0  0  0  0  0  0  0
   -7.9170    4.6927  -17.9549 C   0  0  0  0  0  0  0  0  0  0  0  0
   -8.3460    4.6455  -19.2114 N   0  0  0  0  0  0  0  0  0  0  0  0
   -9.6602    4.5532  -19.4347 C   0  0  0  0  0  0  0  0  0  0  0  0
  -10.5833    4.3281  -18.4521 C   0  0  0  0  0  0  0  0  0  0  0  0
  -10.1028    4.1462  -17.1891 C   0  0  0  0  0  0  0  0  0  0  0  0
   -8.7981    4.4501  -16.9011 C   0  0  0  0  0  0  0  0  0  0  0  0
   -8.4572    4.6524  -15.5747 C   0  0  0  0  0  0  0  0  0  0  0  0
  1  2  1  0
  2  3  1  0
  2  4  1  0
  2  5  1  0
  5  6  2  0
  6  7  1  0
  7  8  1  0
  8  9  1  0
  9 10  2  0
  9 11  1  0
 11 12  2  0
 12 13  1  0
 13 14  2  0
 13 15  1  0
 15 16  1  0
 16 17  2  0
 17 18  1  0
 18 19  1  0
 18 20  2  0
 20 21  1  0
 21 22  2  0
  7 23  2  0
 23 24  1  0
 24 25  2  0
 25 26  1  0
 26 27  2  0
 27 28  1  0
 28 29  2  0
 29  5  1  0
 22 11  1  0
 28 23  1  0
 22 16  1  0
M  END
>  <fragmenstein_outcome>  (333) 
nan

>  <exports>  (333) 
['/opt/xchem-fragalysis-2/maxwin/openbind-hippo/xx01zvns2b/cycle_01/syndirella/elabs/openbind_xx01zvns2b_c1_elab_chemspace_filtered.sdf']

>  <Energy>  (333) 
nan

>  <alias>  (333) 
None

>  <fragmenstein_runtime>  (333) 
nan

>  <scratch_subdir>  (333) 
nan

>  <HIPPO Compound ID>  (333) 
142208

>  <rmsd(smina/fragmenstein)>  (333) 
1.653

>  <distance_score>  (333) 
1.316208

>  <orig_smiles>  (333) 
nan

>  <fragmenstein_mode>  (333) 
nan

>  <inchikey>  (333) 
CXUPFUIAUKVYNE-UHFFFAOYSA-N

>  <ref_pdb>  (333) 
Z0852a

>  <GNINA pK>  (333) 
nan

>  <gnina_score_min>  (333) 
6.322

>  <tags>  (333) 
openbind_xx01zvns2b_c1_elab_nonasap_filtered_scored_top80percent,openbind_xx01zvns2b_c1_elab_chemspace_filtered_scored_top80percent,openbind_xx01zvns2b_c1_elab_chemspace_filtered_scored,openbind_xx01zvns2b_c1_elab_chemspace_filtered_scored_top40percent,openbind_xx01zvns2b_c1_elab_chemspace_filtered_scored_top20percent,openbind_xx01zvns2b_c1_elab_chemspace_filtered_scored_top60percent,openbind_xx01zvns2b_c1_elabs_filtered

>  <smiles>  (333) 
CC(C)(C)c1cc(NC(=O)c2cc(=O)[nH]c3cc(F)ccc23)c2ncccc2c1

>  <subsites>  (333) 
1 - Z4590/B/203/1

>  <gnina_score>  (333) 
5.67

>  <HIPPO Pose ID>  (333) 
70283

>  <ref_mols>  (333) 
Z0917a,Z0852a

>  <energy_score>  (333) 
-25.023655

>  <inspiration_score>  (333) 
None

>  <smina_score_min>  (333) 
-6.386

>  <fragmenstein_error>  (333) 
nan

>  <name>  (333) 
P70283

$$$$
P70284
     RDKit          3D

 29 32  0  0  0  0  0  0  0  0999 V2000
    0.9459    6.2960  -17.8254 C   0  0  0  0  0  0  0  0  0  0  0  0
   -0.3809    5.9941  -18.4540 C   0  0  0  0  0  0  0  0  0  0  0  0
   -1.4140    5.4377  -17.7077 C   0  0  0  0  0  0  0  0  0  0  0  0
   -2.6104    5.0789  -18.3262 C   0  0  0  0  0  0  0  0  0  0  0  0
   -2.8472    5.3841  -19.6899 C   0  0  0  0  0  0  0  0  0  0  0  0
   -4.0703    5.2216  -20.3790 C   0  0  0  0  0  0  0  0  0  0  0  0
   -5.3230    4.7277  -19.7567 C   0  0  0  0  0  0  0  0  0  0  0  0
   -5.9635    3.9812  -20.3933 O   0  0  0  0  0  0  0  0  0  0  0  0
   -5.5948    5.3499  -18.3532 N   0  0  0  0  0  0  0  0  0  0  0  0
   -6.6303    5.1135  -17.4377 C   0  0  0  0  0  0  0  0  0  0  0  0
   -6.4231    5.4558  -16.0887 C   0  0  0  0  0  0  0  0  0  0  0  0
   -7.4273    5.2386  -15.1275 C   0  0  0  0  0  0  0  0  0  0  0  0
   -7.3301    5.7440  -13.7142 C   0  0  0  0  0  0  0  0  0  0  0  0
   -7.2358    7.1042  -13.6732 F   0  0  0  0  0  0  0  0  0  0  0  0
   -6.2504    5.2661  -13.0476 F   0  0  0  0  0  0  0  0  0  0  0  0
   -8.4206    5.4418  -12.9518 F   0  0  0  0  0  0  0  0  0  0  0  0
   -8.6093    4.6332  -15.5213 C   0  0  0  0  0  0  0  0  0  0  0  0
   -8.8481    4.4346  -16.8673 C   0  0  0  0  0  0  0  0  0  0  0  0
  -10.1375    4.1651  -17.2472 C   0  0  0  0  0  0  0  0  0  0  0  0
  -10.5218    4.3571  -18.5374 C   0  0  0  0  0  0  0  0  0  0  0  0
   -9.5255    4.5176  -19.4554 C   0  0  0  0  0  0  0  0  0  0  0  0
   -8.2283    4.6048  -19.1365 N   0  0  0  0  0  0  0  0  0  0  0  0
   -7.8830    4.6641  -17.8513 C   0  0  0  0  0  0  0  0  0  0  0  0
   -4.1704    5.5098  -21.7427 C   0  0  0  0  0  0  0  0  0  0  0  0
   -3.0478    5.9673  -22.3848 C   0  0  0  0  0  0  0  0  0  0  0  0
   -3.1439    6.3979  -24.2283 Br  0  0  0  0  0  0  0  0  0  0  0  0
   -1.8778    6.1820  -21.7581 N   0  0  0  0  0  0  0  0  0  0  0  0
   -1.7830    5.9052  -20.4505 C   0  0  0  0  0  0  0  0  0  0  0  0
   -0.5750    6.1827  -19.8264 C   0  0  0  0  0  0  0  0  0  0  0  0
  1  2  1  0
  2  3  2  0
  3  4  1  0
  4  5  2  0
  5  6  1  0
  6  7  1  0
  7  8  2  0
  7  9  1  0
  9 10  1  0
 10 11  2  0
 11 12  1  0
 12 13  1  0
 13 14  1  0
 13 15  1  0
 13 16  1  0
 12 17  2  0
 17 18  1  0
 18 19  2  0
 19 20  1  0
 20 21  2  0
 21 22  1  0
 22 23  2  0
  6 24  2  0
 24 25  1  0
 25 26  1  0
 25 27  2  0
 27 28  1  0
 28 29  2  0
 29  2  1  0
 28  5  1  0
 23 10  1  0
 23 18  1  0
M  END
>  <fragmenstein_outcome>  (334) 
nan

>  <exports>  (334) 
['/opt/xchem-fragalysis-2/maxwin/openbind-hippo/xx01zvns2b/cycle_01/syndirella/elabs/openbind_xx01zvns2b_c1_elab_chemspace_filtered.sdf']

>  <Energy>  (334) 
nan

>  <alias>  (334) 
None

>  <fragmenstein_runtime>  (334) 
nan

>  <scratch_subdir>  (334) 
nan

>  <HIPPO Compound ID>  (334) 
142209

>  <rmsd(smina/fragmenstein)>  (334) 
1.826

>  <distance_score>  (334) 
0.969344

>  <orig_smiles>  (334) 
nan

>  <fragmenstein_mode>  (334) 
nan

>  <inchikey>  (334) 
IIWADHSLAPBKDH-UHFFFAOYSA-N

>  <ref_pdb>  (334) 
Z0852a

>  <GNINA pK>  (334) 
nan

>  <gnina_score_min>  (334) 
6.148

>  <tags>  (334) 
openbind_xx01zvns2b_c1_elab_nonasap_filtered_scored_top80percent,openbind_xx01zvns2b_c1_elab_chemspace_filtered_scored_top80percent,openbind_xx01zvns2b_c1_elab_chemspace_filtered_scored,openbind_xx01zvns2b_c1_elab_chemspace_filtered_scored_top40percent,openbind_xx01zvns2b_c1_elab_chemspace_filtered_scored_top20percent,openbind_xx01zvns2b_c1_elab_chemspace_filtered_scored_top60percent,openbind_xx01zvns2b_c1_elabs_filtered

>  <smiles>  (334) 
Cc1ccc2c(C(=O)Nc3cc(C(F)(F)F)cc4cccnc34)cc(Br)nc2c1

>  <subsites>  (334) 
1 - Z4590/B/203/1

>  <gnina_score>  (334) 
5.729

>  <HIPPO Pose ID>  (334) 
70284

>  <ref_mols>  (334) 
Z0917a,Z0852a

>  <energy_score>  (334) 
-6.176971

>  <inspiration_score>  (334) 
None

>  <smina_score_min>  (334) 
-6.502

>  <fragmenstein_error>  (334) 
nan

>  <name>  (334) 
P70284

$$$$
P70285
     RDKit          3D

 29 32  0  0  0  0  0  0  0  0999 V2000
    0.8673    6.2904  -17.8975 C   0  0  0  0  0  0  0  0  0  0  0  0
   -0.4465    5.9674  -18.5423 C   0  0  0  0  0  0  0  0  0  0  0  0
   -1.4711    5.3720  -17.8157 C   0  0  0  0  0  0  0  0  0  0  0  0
   -2.6532    4.9945  -18.4502 C   0  0  0  0  0  0  0  0  0  0  0  0
   -2.8938    5.3293  -19.8069 C   0  0  0  0  0  0  0  0  0  0  0  0
   -4.1138    5.1670  -20.5068 C   0  0  0  0  0  0  0  0  0  0  0  0
   -5.3693    4.6454  -19.9065 C   0  0  0  0  0  0  0  0  0  0  0  0
   -6.0170    3.9274  -20.5675 O   0  0  0  0  0  0  0  0  0  0  0  0
   -5.6250    5.2060  -18.4770 N   0  0  0  0  0  0  0  0  0  0  0  0
   -6.6492    4.9312  -17.5624 C   0  0  0  0  0  0  0  0  0  0  0  0
   -6.3987    5.1915  -16.2046 C   0  0  0  0  0  0  0  0  0  0  0  0
   -7.3866    5.0015  -15.2153 C   0  0  0  0  0  0  0  0  0  0  0  0
   -7.1893    5.4735  -13.7761 C   0  0  0  0  0  0  0  0  0  0  0  0
   -6.8860    6.9739  -13.8262 C   0  0  0  0  0  0  0  0  0  0  0  0
   -8.4249    5.3024  -12.8626 C   0  0  0  0  0  0  0  0  0  0  0  0
   -6.0237    4.7235  -13.1255 C   0  0  0  0  0  0  0  0  0  0  0  0
   -8.6047    4.4829  -15.6203 C   0  0  0  0  0  0  0  0  0  0  0  0
   -8.8810    4.3498  -16.9684 C   0  0  0  0  0  0  0  0  0  0  0  0
  -10.1928    4.1714  -17.3288 C   0  0  0  0  0  0  0  0  0  0  0  0
  -10.5869    4.4297  -18.6024 C   0  0  0  0  0  0  0  0  0  0  0  0
   -9.5963    4.5559  -19.5314 C   0  0  0  0  0  0  0  0  0  0  0  0
   -8.2899    4.5497  -19.2427 N   0  0  0  0  0  0  0  0  0  0  0  0
   -7.9238    4.5566  -17.9639 C   0  0  0  0  0  0  0  0  0  0  0  0
   -4.2132    5.5005  -21.8589 C   0  0  0  0  0  0  0  0  0  0  0  0
   -3.0934    5.9880  -22.4834 C   0  0  0  0  0  0  0  0  0  0  0  0
   -3.1894    6.4672  -24.3151 Br  0  0  0  0  0  0  0  0  0  0  0  0
   -1.9274    6.1977  -21.8477 N   0  0  0  0  0  0  0  0  0  0  0  0
   -1.8354    5.8899  -20.5474 C   0  0  0  0  0  0  0  0  0  0  0  0
   -0.6363    6.1787  -19.9114 C   0  0  0  0  0  0  0  0  0  0  0  0
  1  2  1  0
  2  3  2  0
  3  4  1  0
  4  5  2  0
  5  6  1  0
  6  7  1  0
  7  8  2  0
  7  9  1  0
  9 10  1  0
 10 11  2  0
 11 12  1  0
 12 13  1  0
 13 14  1  0
 13 15  1  0
 13 16  1  0
 12 17  2  0
 17 18  1  0
 18 19  2  0
 19 20  1  0
 20 21  2  0
 21 22  1  0
 22 23  2  0
  6 24  2  0
 24 25  1  0
 25 26  1  0
 25 27  2  0
 27 28  1  0
 28 29  2  0
 29  2  1  0
 28  5  1  0
 23 10  1  0
 23 18  1  0
M  END
>  <fragmenstein_outcome>  (335) 
nan

>  <exports>  (335) 
['/opt/xchem-fragalysis-2/maxwin/openbind-hippo/xx01zvns2b/cycle_01/syndirella/elabs/openbind_xx01zvns2b_c1_elab_chemspace_filtered.sdf']

>  <Energy>  (335) 
nan

>  <alias>  (335) 
None

>  <fragmenstein_runtime>  (335) 
nan

>  <scratch_subdir>  (335) 
nan

>  <HIPPO Compound ID>  (335) 
142210

>  <rmsd(smina/fragmenstein)>  (335) 
1.714

>  <distance_score>  (335) 
1.20713

>  <orig_smiles>  (335) 
nan

>  <fragmenstein_mode>  (335) 
nan

>  <inchikey>  (335) 
HNRBLRIAVKPRCB-UHFFFAOYSA-N

>  <ref_pdb>  (335) 
Z0852a

>  <GNINA pK>  (335) 
nan

>  <gnina_score_min>  (335) 
6.489

>  <tags>  (335) 
openbind_xx01zvns2b_c1_elab_nonasap_filtered_scored_top80percent,openbind_xx01zvns2b_c1_elab_chemspace_filtered_scored_top80percent,openbind_xx01zvns2b_c1_elab_chemspace_filtered_scored,openbind_xx01zvns2b_c1_elab_chemspace_filtered_scored_top40percent,openbind_xx01zvns2b_c1_elab_chemspace_filtered_scored_top20percent,openbind_xx01zvns2b_c1_elab_chemspace_filtered_scored_top60percent,openbind_xx01zvns2b_c1_elabs_filtered

>  <smiles>  (335) 
Cc1ccc2c(C(=O)Nc3cc(C(C)(C)C)cc4cccnc34)cc(Br)nc2c1

>  <subsites>  (335) 
1 - Z4590/B/203/1

>  <gnina_score>  (335) 
5.985

>  <HIPPO Pose ID>  (335) 
70285

>  <ref_mols>  (335) 
Z0917a,Z0852a

>  <energy_score>  (335) 
-13.017999

>  <inspiration_score>  (335) 
None

>  <smina_score_min>  (335) 
-6.702

>  <fragmenstein_error>  (335) 
nan

>  <name>  (335) 
P70285

$$$$
P70286
     RDKit          3D

 29 32  0  0  0  0  0  0  0  0999 V2000
   -6.3897    4.9706  -11.4905 C   0  0  0  0  0  0  0  0  0  0  0  0
   -6.8953    4.8620  -12.8211 O   0  0  0  0  0  0  0  0  0  0  0  0
   -5.9733    5.0960  -13.7866 C   0  0  0  0  0  0  0  0  0  0  0  0
   -4.8040    5.3975  -13.6031 O   0  0  0  0  0  0  0  0  0  0  0  0
   -6.5803    4.9652  -15.1366 C   0  0  0  0  0  0  0  0  0  0  0  0
   -5.8044    5.2969  -16.2487 C   0  0  0  0  0  0  0  0  0  0  0  0
   -6.3099    5.1445  -17.5473 C   0  0  0  0  0  0  0  0  0  0  0  0
   -5.4267    5.4094  -18.5953 N   0  0  0  0  0  0  0  0  0  0  0  0
   -5.3129    4.7678  -20.0036 C   0  0  0  0  0  0  0  0  0  0  0  0
   -5.9892    3.9730  -20.5316 O   0  0  0  0  0  0  0  0  0  0  0  0
   -4.1059    5.2353  -20.7254 C   0  0  0  0  0  0  0  0  0  0  0  0
   -4.3192    5.5614  -22.0607 C   0  0  0  0  0  0  0  0  0  0  0  0
   -3.2386    5.9781  -22.7929 C   0  0  0  0  0  0  0  0  0  0  0  0
   -3.4747    6.2801  -24.1191 O   0  0  0  0  0  0  0  0  0  0  0  0
   -2.2782    6.5297  -24.8495 C   0  0  0  0  0  0  0  0  0  0  0  0
   -2.0092    6.1457  -22.2746 N   0  0  0  0  0  0  0  0  0  0  0  0
   -1.8101    5.8507  -20.9832 C   0  0  0  0  0  0  0  0  0  0  0  0
   -0.5472    6.0963  -20.4664 C   0  0  0  0  0  0  0  0  0  0  0  0
   -0.2486    5.8853  -19.1234 C   0  0  0  0  0  0  0  0  0  0  0  0
   -1.2183    5.3564  -18.2889 C   0  0  0  0  0  0  0  0  0  0  0  0
   -2.4676    5.0173  -18.8035 C   0  0  0  0  0  0  0  0  0  0  0  0
   -2.8188    5.3456  -20.1399 C   0  0  0  0  0  0  0  0  0  0  0  0
   -7.6314    4.7574  -17.7617 C   0  0  0  0  0  0  0  0  0  0  0  0
   -8.1823    4.7700  -18.9796 N   0  0  0  0  0  0  0  0  0  0  0  0
   -9.4948    4.5327  -19.1158 C   0  0  0  0  0  0  0  0  0  0  0  0
  -10.3134    4.2095  -18.0657 C   0  0  0  0  0  0  0  0  0  0  0  0
   -9.7327    4.1300  -16.8169 C   0  0  0  0  0  0  0  0  0  0  0  0
   -8.4037    4.4568  -16.6317 C   0  0  0  0  0  0  0  0  0  0  0  0
   -7.8847    4.5226  -15.3343 C   0  0  0  0  0  0  0  0  0  0  0  0
  1  2  1  0
  2  3  1  0
  3  4  2  0
  3  5  1  0
  5  6  2  0
  6  7  1  0
  7  8  1  0
  8  9  1  0
  9 10  2  0
  9 11  1  0
 11 12  2  0
 12 13  1  0
 13 14  1  0
 14 15  1  0
 13 16  2  0
 16 17  1  0
 17 18  2  0
 18 19  1  0
 19 20  2  0
 20 21  1  0
 21 22  2  0
  7 23  2  0
 23 24  1  0
 24 25  2  0
 25 26  1  0
 26 27  2  0
 27 28  1  0
 28 29  2  0
 29  5  1  0
 22 11  1  0
 28 23  1  0
 22 17  1  0
M  END
>  <fragmenstein_outcome>  (336) 
nan

>  <exports>  (336) 
['/opt/xchem-fragalysis-2/maxwin/openbind-hippo/xx01zvns2b/cycle_01/syndirella/elabs/openbind_xx01zvns2b_c1_elab_chemspace_filtered.sdf']

>  <Energy>  (336) 
nan

>  <alias>  (336) 
None

>  <fragmenstein_runtime>  (336) 
nan

>  <scratch_subdir>  (336) 
nan

>  <HIPPO Compound ID>  (336) 
142211

>  <rmsd(smina/fragmenstein)>  (336) 
1.619

>  <distance_score>  (336) 
1.493212

>  <orig_smiles>  (336) 
nan

>  <fragmenstein_mode>  (336) 
nan

>  <inchikey>  (336) 
KRYKQQMAFGDTPA-UHFFFAOYSA-N

>  <ref_pdb>  (336) 
Z0852a

>  <GNINA pK>  (336) 
nan

>  <gnina_score_min>  (336) 
5.973

>  <tags>  (336) 
openbind_xx01zvns2b_c1_elab_nonasap_filtered_scored_top80percent,openbind_xx01zvns2b_c1_elab_chemspace_filtered_scored_top80percent,openbind_xx01zvns2b_c1_elab_chemspace_filtered_scored,openbind_xx01zvns2b_c1_elab_chemspace_filtered_scored_top40percent,openbind_xx01zvns2b_c1_elab_chemspace_filtered_scored_top20percent,openbind_xx01zvns2b_c1_elab_chemspace_filtered_scored_top60percent,openbind_xx01zvns2b_c1_elabs_filtered

>  <smiles>  (336) 
COC(=O)c1cc(NC(=O)c2cc(OC)nc3ccccc23)c2ncccc2c1

>  <subsites>  (336) 
1 - Z4590/B/203/1

>  <gnina_score>  (336) 
5.786

>  <HIPPO Pose ID>  (336) 
70286

>  <ref_mols>  (336) 
Z0917a,Z0852a

>  <energy_score>  (336) 
-15.944408

>  <inspiration_score>  (336) 
None

>  <smina_score_min>  (336) 
-5.892

>  <fragmenstein_error>  (336) 
nan

>  <name>  (336) 
P70286

$$$$
P70287
     RDKit          3D

 29 32  0  0  0  0  0  0  0  0999 V2000
   -2.1388    6.4327  -24.4921 C   0  0  0  0  0  0  0  0  0  0  0  0
   -3.3652    6.2105  -23.8036 O   0  0  0  0  0  0  0  0  0  0  0  0
   -3.1826    5.9554  -22.4597 C   0  0  0  0  0  0  0  0  0  0  0  0
   -4.2811    5.5267  -21.7623 C   0  0  0  0  0  0  0  0  0  0  0  0
   -4.1239    5.2461  -20.4042 C   0  0  0  0  0  0  0  0  0  0  0  0
   -5.3426    4.7262  -19.7424 C   0  0  0  0  0  0  0  0  0  0  0  0
   -5.9430    3.9146  -20.3365 O   0  0  0  0  0  0  0  0  0  0  0  0
   -5.5824    5.3218  -18.3232 N   0  0  0  0  0  0  0  0  0  0  0  0
   -6.6297    5.1158  -17.4153 C   0  0  0  0  0  0  0  0  0  0  0  0
   -6.4229    5.4492  -16.0647 C   0  0  0  0  0  0  0  0  0  0  0  0
   -7.4335    5.2385  -15.1095 C   0  0  0  0  0  0  0  0  0  0  0  0
   -7.3374    5.7387  -13.6951 C   0  0  0  0  0  0  0  0  0  0  0  0
   -6.2583    5.2586  -13.0286 F   0  0  0  0  0  0  0  0  0  0  0  0
   -7.2417    7.0989  -13.6498 F   0  0  0  0  0  0  0  0  0  0  0  0
   -8.4285    5.4357  -12.9340 F   0  0  0  0  0  0  0  0  0  0  0  0
   -8.6180    4.6423  -15.5100 C   0  0  0  0  0  0  0  0  0  0  0  0
   -8.8534    4.4485  -16.8575 C   0  0  0  0  0  0  0  0  0  0  0  0
  -10.1398    4.1727  -17.2431 C   0  0  0  0  0  0  0  0  0  0  0  0
  -10.5200    4.3599  -18.5352 C   0  0  0  0  0  0  0  0  0  0  0  0
   -9.5211    4.5266  -19.4491 C   0  0  0  0  0  0  0  0  0  0  0  0
   -8.2257    4.6263  -19.1248 N   0  0  0  0  0  0  0  0  0  0  0  0
   -7.8853    4.6809  -17.8373 C   0  0  0  0  0  0  0  0  0  0  0  0
   -2.8692    5.4029  -19.7709 C   0  0  0  0  0  0  0  0  0  0  0  0
   -2.5682    5.0979  -18.4179 C   0  0  0  0  0  0  0  0  0  0  0  0
   -1.3431    5.4552  -17.8585 C   0  0  0  0  0  0  0  0  0  0  0  0
   -0.3528    5.9981  -18.6603 C   0  0  0  0  0  0  0  0  0  0  0  0
   -0.6024    6.1935  -20.0168 C   0  0  0  0  0  0  0  0  0  0  0  0
   -1.8371    5.9150  -20.5836 C   0  0  0  0  0  0  0  0  0  0  0  0
   -1.9851    6.1764  -21.8901 N   0  0  0  0  0  0  0  0  0  0  0  0
  1  2  1  0
  2  3  1  0
  3  4  2  0
  4  5  1  0
  5  6  1  0
  6  7  2  0
  6  8  1  0
  8  9  1  0
  9 10  2  0
 10 11  1  0
 11 12  1  0
 12 13  1  0
 12 14  1  0
 12 15  1  0
 11 16  2  0
 16 17  1  0
 17 18  2  0
 18 19  1  0
 19 20  2  0
 20 21  1  0
 21 22  2  0
  5 23  2  0
 23 24  1  0
 24 25  2  0
 25 26  1  0
 26 27  2  0
 27 28  1  0
 28 29  2  0
 29  3  1  0
 22  9  1  0
 28 23  1  0
 22 17  1  0
M  END
>  <fragmenstein_outcome>  (337) 
nan

>  <exports>  (337) 
['/opt/xchem-fragalysis-2/maxwin/openbind-hippo/xx01zvns2b/cycle_01/syndirella/elabs/openbind_xx01zvns2b_c1_elab_chemspace_filtered.sdf']

>  <Energy>  (337) 
nan

>  <alias>  (337) 
None

>  <fragmenstein_runtime>  (337) 
nan

>  <scratch_subdir>  (337) 
nan

>  <HIPPO Compound ID>  (337) 
142212

>  <rmsd(smina/fragmenstein)>  (337) 
1.36

>  <distance_score>  (337) 
1.072908

>  <orig_smiles>  (337) 
nan

>  <fragmenstein_mode>  (337) 
nan

>  <inchikey>  (337) 
OCJCZMYWXXRYCT-UHFFFAOYSA-N

>  <ref_pdb>  (337) 
Z0852a

>  <GNINA pK>  (337) 
nan

>  <gnina_score_min>  (337) 
5.953

>  <tags>  (337) 
openbind_xx01zvns2b_c1_elab_nonasap_filtered_scored_top80percent,openbind_xx01zvns2b_c1_elab_chemspace_filtered_scored_top80percent,openbind_xx01zvns2b_c1_elab_chemspace_filtered_scored,openbind_xx01zvns2b_c1_elab_chemspace_filtered_scored_top40percent,openbind_xx01zvns2b_c1_elab_chemspace_filtered_scored_top20percent,openbind_xx01zvns2b_c1_elab_chemspace_filtered_scored_top60percent,openbind_xx01zvns2b_c1_elabs_filtered

>  <smiles>  (337) 
COc1cc(C(=O)Nc2cc(C(F)(F)F)cc3cccnc23)c2ccccc2n1

>  <subsites>  (337) 
1 - Z4590/B/203/1

>  <gnina_score>  (337) 
5.415

>  <HIPPO Pose ID>  (337) 
70287

>  <ref_mols>  (337) 
Z0917a,Z0852a

>  <energy_score>  (337) 
-3.828368

>  <inspiration_score>  (337) 
None

>  <smina_score_min>  (337) 
-6.287

>  <fragmenstein_error>  (337) 
nan

>  <name>  (337) 
P70287

$$$$
P70288
     RDKit          3D

 29 32  0  0  0  0  0  0  0  0999 V2000
   -2.0890    6.4757  -24.6045 C   0  0  0  0  0  0  0  0  0  0  0  0
   -3.3181    6.2314  -23.9286 O   0  0  0  0  0  0  0  0  0  0  0  0
   -3.1429    5.9539  -22.5879 C   0  0  0  0  0  0  0  0  0  0  0  0
   -4.2453    5.5121  -21.9053 C   0  0  0  0  0  0  0  0  0  0  0  0
   -4.0956    5.2082  -20.5531 C   0  0  0  0  0  0  0  0  0  0  0  0
   -5.3222    4.6878  -19.9023 C   0  0  0  0  0  0  0  0  0  0  0  0
   -5.9608    3.9185  -20.5118 O   0  0  0  0  0  0  0  0  0  0  0  0
   -5.5240    5.2529  -18.4675 N   0  0  0  0  0  0  0  0  0  0  0  0
   -6.5699    5.0659  -17.5554 C   0  0  0  0  0  0  0  0  0  0  0  0
   -6.3278    5.4184  -16.2147 C   0  0  0  0  0  0  0  0  0  0  0  0
   -7.3056    5.2465  -15.2177 C   0  0  0  0  0  0  0  0  0  0  0  0
   -7.1121    5.7442  -13.7867 C   0  0  0  0  0  0  0  0  0  0  0  0
   -6.0366    4.9014  -13.0934 C   0  0  0  0  0  0  0  0  0  0  0  0
   -6.6999    7.2280  -13.7762 C   0  0  0  0  0  0  0  0  0  0  0  0
   -8.3958    5.6577  -12.9501 C   0  0  0  0  0  0  0  0  0  0  0  0
   -8.4975    4.6424  -15.5932 C   0  0  0  0  0  0  0  0  0  0  0  0
   -8.7770    4.4366  -16.9297 C   0  0  0  0  0  0  0  0  0  0  0  0
  -10.0822    4.1784  -17.2638 C   0  0  0  0  0  0  0  0  0  0  0  0
  -10.4992    4.3555  -18.5455 C   0  0  0  0  0  0  0  0  0  0  0  0
   -9.5236    4.4943  -19.4912 C   0  0  0  0  0  0  0  0  0  0  0  0
   -8.2154    4.5621  -19.2132 N   0  0  0  0  0  0  0  0  0  0  0  0
   -7.8363    4.6390  -17.9389 C   0  0  0  0  0  0  0  0  0  0  0  0
   -2.8462    5.3672  -19.9050 C   0  0  0  0  0  0  0  0  0  0  0  0
   -2.5539    5.0598  -18.5498 C   0  0  0  0  0  0  0  0  0  0  0  0
   -1.3363    5.4228  -17.9780 C   0  0  0  0  0  0  0  0  0  0  0  0
   -0.3414    5.9726  -18.7686 C   0  0  0  0  0  0  0  0  0  0  0  0
   -0.5811    6.1732  -20.1258 C   0  0  0  0  0  0  0  0  0  0  0  0
   -1.8102    5.8922  -20.7036 C   0  0  0  0  0  0  0  0  0  0  0  0
   -1.9495    6.1685  -22.0076 N   0  0  0  0  0  0  0  0  0  0  0  0
  1  2  1  0
  2  3  1  0
  3  4  2  0
  4  5  1  0
  5  6  1  0
  6  7  2  0
  6  8  1  0
  8  9  1  0
  9 10  2  0
 10 11  1  0
 11 12  1  0
 12 13  1  0
 12 14  1  0
 12 15  1  0
 11 16  2  0
 16 17  1  0
 17 18  2  0
 18 19  1  0
 19 20  2  0
 20 21  1  0
 21 22  2  0
  5 23  2  0
 23 24  1  0
 24 25  2  0
 25 26  1  0
 26 27  2  0
 27 28  1  0
 28 29  2  0
 29  3  1  0
 22  9  1  0
 28 23  1  0
 22 17  1  0
M  END
>  <fragmenstein_outcome>  (338) 
nan

>  <exports>  (338) 
['/opt/xchem-fragalysis-2/maxwin/openbind-hippo/xx01zvns2b/cycle_01/syndirella/elabs/openbind_xx01zvns2b_c1_elab_chemspace_filtered.sdf']

>  <Energy>  (338) 
nan

>  <alias>  (338) 
None

>  <fragmenstein_runtime>  (338) 
nan

>  <scratch_subdir>  (338) 
nan

>  <HIPPO Compound ID>  (338) 
142213

>  <rmsd(smina/fragmenstein)>  (338) 
1.186

>  <distance_score>  (338) 
1.38475

>  <orig_smiles>  (338) 
nan

>  <fragmenstein_mode>  (338) 
nan

>  <inchikey>  (338) 
HRWZSAAHLCICIJ-UHFFFAOYSA-N

>  <ref_pdb>  (338) 
Z0852a

>  <GNINA pK>  (338) 
nan

>  <gnina_score_min>  (338) 
6.34

>  <tags>  (338) 
openbind_xx01zvns2b_c1_elab_nonasap_filtered_scored_top80percent,openbind_xx01zvns2b_c1_elab_chemspace_filtered_scored_top80percent,openbind_xx01zvns2b_c1_elab_chemspace_filtered_scored,openbind_xx01zvns2b_c1_elab_chemspace_filtered_scored_top40percent,openbind_xx01zvns2b_c1_elab_chemspace_filtered_scored_top20percent,openbind_xx01zvns2b_c1_elab_chemspace_filtered_scored_top60percent,openbind_xx01zvns2b_c1_elabs_filtered

>  <smiles>  (338) 
COc1cc(C(=O)Nc2cc(C(C)(C)C)cc3cccnc23)c2ccccc2n1

>  <subsites>  (338) 
1 - Z4590/B/203/1

>  <gnina_score>  (338) 
5.755

>  <HIPPO Pose ID>  (338) 
70288

>  <ref_mols>  (338) 
Z0917a,Z0852a

>  <energy_score>  (338) 
-14.636534

>  <inspiration_score>  (338) 
None

>  <smina_score_min>  (338) 
-6.468

>  <fragmenstein_error>  (338) 
nan

>  <name>  (338) 
P70288

$$$$
P70289
     RDKit          3D

 29 32  0  0  0  0  0  0  0  0999 V2000
   -5.9310    3.9185  -20.3268 O   0  0  0  0  0  0  0  0  0  0  0  0
   -5.3352    4.7340  -19.7338 C   0  0  0  0  0  0  0  0  0  0  0  0
   -5.5799    5.3319  -18.3167 N   0  0  0  0  0  0  0  0  0  0  0  0
   -6.6278    5.1236  -17.4100 C   0  0  0  0  0  0  0  0  0  0  0  0
   -6.4225    5.4562  -16.0590 C   0  0  0  0  0  0  0  0  0  0  0  0
   -7.4335    5.2429  -15.1049 C   0  0  0  0  0  0  0  0  0  0  0  0
   -7.3395    5.7419  -13.6899 C   0  0  0  0  0  0  0  0  0  0  0  0
   -8.4336    5.4412  -12.9321 F   0  0  0  0  0  0  0  0  0  0  0  0
   -7.2414    7.1020  -13.6442 F   0  0  0  0  0  0  0  0  0  0  0  0
   -6.2636    5.2594  -13.0206 F   0  0  0  0  0  0  0  0  0  0  0  0
   -8.6166    4.6448  -15.5068 C   0  0  0  0  0  0  0  0  0  0  0  0
   -8.8503    4.4508  -16.8546 C   0  0  0  0  0  0  0  0  0  0  0  0
  -10.1358    4.1726  -17.2412 C   0  0  0  0  0  0  0  0  0  0  0  0
  -10.5148    4.3572  -18.5340 C   0  0  0  0  0  0  0  0  0  0  0  0
   -9.5152    4.5249  -19.4471 C   0  0  0  0  0  0  0  0  0  0  0  0
   -8.2202    4.6296  -19.1217 N   0  0  0  0  0  0  0  0  0  0  0  0
   -7.8817    4.6853  -17.8335 C   0  0  0  0  0  0  0  0  0  0  0  0
   -4.1125    5.2465  -20.3954 C   0  0  0  0  0  0  0  0  0  0  0  0
   -4.2652    5.5145  -21.7559 C   0  0  0  0  0  0  0  0  0  0  0  0
   -3.1567    5.9261  -22.4355 C   0  0  0  0  0  0  0  0  0  0  0  0
   -3.2143    6.1899  -23.7632 O   0  0  0  0  0  0  0  0  0  0  0  0
   -1.9525    6.1307  -21.8934 N   0  0  0  0  0  0  0  0  0  0  0  0
   -1.8090    5.8848  -20.5839 C   0  0  0  0  0  0  0  0  0  0  0  0
   -0.5683    6.1553  -20.0217 C   0  0  0  0  0  0  0  0  0  0  0  0
   -0.3271    5.9897  -18.6602 C   0  0  0  0  0  0  0  0  0  0  0  0
   -1.3337    5.4821  -17.8628 C   0  0  0  0  0  0  0  0  0  0  0  0
   -1.1267    5.3344  -16.5482 F   0  0  0  0  0  0  0  0  0  0  0  0
   -2.5608    5.1215  -18.4044 C   0  0  0  0  0  0  0  0  0  0  0  0
   -2.8541    5.4000  -19.7628 C   0  0  0  0  0  0  0  0  0  0  0  0
  1  2  2  0
  2  3  1  0
  3  4  1  0
  4  5  2  0
  5  6  1  0
  6  7  1  0
  7  8  1  0
  7  9  1  0
  7 10  1  0
  6 11  2  0
 11 12  1  0
 12 13  2  0
 13 14  1  0
 14 15  2  0
 15 16  1  0
 16 17  2  0
  2 18  1  0
 18 19  2  0
 19 20  1  0
 20 21  1  0
 20 22  2  0
 22 23  1  0
 23 24  2  0
 24 25  1  0
 25 26  2  0
 26 27  1  0
 26 28  1  0
 28 29  2  0
 17  4  1  0
 29 18  1  0
 17 12  1  0
 29 23  1  0
M  END
>  <fragmenstein_outcome>  (339) 
nan

>  <exports>  (339) 
['/opt/xchem-fragalysis-2/maxwin/openbind-hippo/xx01zvns2b/cycle_01/syndirella/elabs/openbind_xx01zvns2b_c1_elab_chemspace_filtered.sdf']

>  <Energy>  (339) 
nan

>  <alias>  (339) 
None

>  <fragmenstein_runtime>  (339) 
nan

>  <scratch_subdir>  (339) 
nan

>  <HIPPO Compound ID>  (339) 
142214

>  <rmsd(smina/fragmenstein)>  (339) 
1.96

>  <distance_score>  (339) 
1.073536

>  <orig_smiles>  (339) 
nan

>  <fragmenstein_mode>  (339) 
nan

>  <inchikey>  (339) 
JYLUVDORMYQBFZ-UHFFFAOYSA-N

>  <ref_pdb>  (339) 
Z0852a

>  <GNINA pK>  (339) 
nan

>  <gnina_score_min>  (339) 
5.747

>  <tags>  (339) 
openbind_xx01zvns2b_c1_elab_nonasap_filtered_scored_top80percent,openbind_xx01zvns2b_c1_elab_chemspace_filtered_scored_top80percent,openbind_xx01zvns2b_c1_elab_chemspace_filtered_scored,openbind_xx01zvns2b_c1_elab_chemspace_filtered_scored_top40percent,openbind_xx01zvns2b_c1_elab_chemspace_filtered_scored_top20percent,openbind_xx01zvns2b_c1_elab_chemspace_filtered_scored_top60percent,openbind_xx01zvns2b_c1_elabs_filtered

>  <smiles>  (339) 
O=C(Nc1cc(C(F)(F)F)cc2cccnc12)c1cc(O)nc2ccc(F)cc12

>  <subsites>  (339) 
1 - Z4590/B/203/1

>  <gnina_score>  (339) 
5.512

>  <HIPPO Pose ID>  (339) 
70289

>  <ref_mols>  (339) 
Z0917a,Z0852a

>  <energy_score>  (339) 
-10.384393

>  <inspiration_score>  (339) 
None

>  <smina_score_min>  (339) 
-6.455

>  <fragmenstein_error>  (339) 
nan

>  <name>  (339) 
P70289

$$$$
P70290
     RDKit          3D

 29 32  0  0  0  0  0  0  0  0999 V2000
   -5.7307    6.4437  -13.6227 C   0  0  0  0  0  0  0  0  0  0  0  0
   -7.0606    5.7127  -13.7858 C   0  0  0  0  0  0  0  0  0  0  0  0
   -8.1592    6.7044  -13.3477 C   0  0  0  0  0  0  0  0  0  0  0  0
   -7.0581    4.5049  -12.8383 C   0  0  0  0  0  0  0  0  0  0  0  0
   -7.2742    5.2527  -15.2253 C   0  0  0  0  0  0  0  0  0  0  0  0
   -6.3305    5.4342  -16.2531 C   0  0  0  0  0  0  0  0  0  0  0  0
   -6.6098    5.1017  -17.5878 C   0  0  0  0  0  0  0  0  0  0  0  0
   -5.5891    5.3102  -18.5205 N   0  0  0  0  0  0  0  0  0  0  0  0
   -5.3812    4.7120  -19.9391 C   0  0  0  0  0  0  0  0  0  0  0  0
   -5.9901    3.8948  -20.5147 O   0  0  0  0  0  0  0  0  0  0  0  0
   -4.1492    5.2148  -20.5938 C   0  0  0  0  0  0  0  0  0  0  0  0
   -4.2966    5.5181  -21.9441 C   0  0  0  0  0  0  0  0  0  0  0  0
   -3.1802    5.9342  -22.6082 C   0  0  0  0  0  0  0  0  0  0  0  0
   -3.2308    6.2309  -23.9294 O   0  0  0  0  0  0  0  0  0  0  0  0
   -1.9755    6.1159  -22.0577 N   0  0  0  0  0  0  0  0  0  0  0  0
   -1.8396    5.8454  -20.7527 C   0  0  0  0  0  0  0  0  0  0  0  0
   -0.6027    6.1079  -20.1785 C   0  0  0  0  0  0  0  0  0  0  0  0
   -0.3735    5.9304  -18.8166 C   0  0  0  0  0  0  0  0  0  0  0  0
   -1.3868    5.4147  -18.0336 C   0  0  0  0  0  0  0  0  0  0  0  0
   -1.1998    5.2756  -16.7151 F   0  0  0  0  0  0  0  0  0  0  0  0
   -2.6056    5.0518  -18.5910 C   0  0  0  0  0  0  0  0  0  0  0  0
   -2.8911    5.3492  -19.9484 C   0  0  0  0  0  0  0  0  0  0  0  0
   -7.8790    4.6697  -17.9357 C   0  0  0  0  0  0  0  0  0  0  0  0
   -8.2796    4.6066  -19.2030 N   0  0  0  0  0  0  0  0  0  0  0  0
   -9.5907    4.5226  -19.4540 C   0  0  0  0  0  0  0  0  0  0  0  0
  -10.5408    4.3373  -18.4889 C   0  0  0  0  0  0  0  0  0  0  0  0
  -10.0934    4.1643  -17.2141 C   0  0  0  0  0  0  0  0  0  0  0  0
   -8.7908    4.4517  -16.9001 C   0  0  0  0  0  0  0  0  0  0  0  0
   -8.4818    4.6607  -15.5662 C   0  0  0  0  0  0  0  0  0  0  0  0
  1  2  1  0
  2  3  1  0
  2  4  1  0
  2  5  1  0
  5  6  2  0
  6  7  1  0
  7  8  1  0
  8  9  1  0
  9 10  2  0
  9 11  1  0
 11 12  2  0
 12 13  1  0
 13 14  1  0
 13 15  2  0
 15 16  1  0
 16 17  2  0
 17 18  1  0
 18 19  2  0
 19 20  1  0
 19 21  1  0
 21 22  2  0
  7 23  2  0
 23 24  1  0
 24 25  2  0
 25 26  1  0
 26 27  2  0
 27 28  1  0
 28 29  2  0
 29  5  1  0
 22 11  1  0
 28 23  1  0
 22 16  1  0
M  END
>  <fragmenstein_outcome>  (340) 
nan

>  <exports>  (340) 
['/opt/xchem-fragalysis-2/maxwin/openbind-hippo/xx01zvns2b/cycle_01/syndirella/elabs/openbind_xx01zvns2b_c1_elab_chemspace_filtered.sdf']

>  <Energy>  (340) 
nan

>  <alias>  (340) 
None

>  <fragmenstein_runtime>  (340) 
nan

>  <scratch_subdir>  (340) 
nan

>  <HIPPO Compound ID>  (340) 
142215

>  <rmsd(smina/fragmenstein)>  (340) 
1.462

>  <distance_score>  (340) 
1.335895

>  <orig_smiles>  (340) 
nan

>  <fragmenstein_mode>  (340) 
nan

>  <inchikey>  (340) 
ACMFLTPUJGJYEC-UHFFFAOYSA-N

>  <ref_pdb>  (340) 
Z0852a

>  <GNINA pK>  (340) 
nan

>  <gnina_score_min>  (340) 
6.263

>  <tags>  (340) 
openbind_xx01zvns2b_c1_elab_nonasap_filtered_scored_top80percent,openbind_xx01zvns2b_c1_elab_chemspace_filtered_scored_top80percent,openbind_xx01zvns2b_c1_elab_chemspace_filtered_scored,openbind_xx01zvns2b_c1_elab_chemspace_filtered_scored_top40percent,openbind_xx01zvns2b_c1_elab_chemspace_filtered_scored_top20percent,openbind_xx01zvns2b_c1_elab_chemspace_filtered_scored_top60percent,openbind_xx01zvns2b_c1_elabs_filtered

>  <smiles>  (340) 
CC(C)(C)c1cc(NC(=O)c2cc(O)nc3ccc(F)cc23)c2ncccc2c1

>  <subsites>  (340) 
1 - Z4590/B/203/1

>  <gnina_score>  (340) 
5.631

>  <HIPPO Pose ID>  (340) 
70290

>  <ref_mols>  (340) 
Z0917a,Z0852a

>  <energy_score>  (340) 
-26.799727

>  <inspiration_score>  (340) 
None

>  <smina_score_min>  (340) 
-6.649

>  <fragmenstein_error>  (340) 
nan

>  <name>  (340) 
P70290

$$$$
P70291
     RDKit          3D

 29 32  0  0  0  0  0  0  0  0999 V2000
   -2.9172    6.1371  -23.8829 C   0  0  0  0  0  0  0  0  0  0  0  0
   -2.9384    5.8806  -22.4075 C   0  0  0  0  0  0  0  0  0  0  0  0
   -4.0767    5.4114  -21.7910 C   0  0  0  0  0  0  0  0  0  0  0  0
   -4.0406    5.1544  -20.4170 C   0  0  0  0  0  0  0  0  0  0  0  0
   -5.3293    4.6608  -19.8525 C   0  0  0  0  0  0  0  0  0  0  0  0
   -5.9558    3.9275  -20.5165 O   0  0  0  0  0  0  0  0  0  0  0  0
   -5.6176    5.2341  -18.4364 N   0  0  0  0  0  0  0  0  0  0  0  0
   -6.6536    4.9580  -17.5385 C   0  0  0  0  0  0  0  0  0  0  0  0
   -6.4124    5.2171  -16.1794 C   0  0  0  0  0  0  0  0  0  0  0  0
   -7.4022    5.0160  -15.1966 C   0  0  0  0  0  0  0  0  0  0  0  0
   -7.2062    5.4742  -13.7534 C   0  0  0  0  0  0  0  0  0  0  0  0
   -6.0380    4.7221  -13.1096 C   0  0  0  0  0  0  0  0  0  0  0  0
   -8.4414    5.2904  -12.8434 C   0  0  0  0  0  0  0  0  0  0  0  0
   -6.9081    6.9763  -13.7898 C   0  0  0  0  0  0  0  0  0  0  0  0
   -8.6153    4.4931  -15.6104 C   0  0  0  0  0  0  0  0  0  0  0  0
   -8.8826    4.3594  -16.9607 C   0  0  0  0  0  0  0  0  0  0  0  0
  -10.1910    4.1741  -17.3294 C   0  0  0  0  0  0  0  0  0  0  0  0
  -10.5769    4.4266  -18.6066 C   0  0  0  0  0  0  0  0  0  0  0  0
   -9.5807    4.5502  -19.5304 C   0  0  0  0  0  0  0  0  0  0  0  0
   -8.2761    4.5547  -19.2334 N   0  0  0  0  0  0  0  0  0  0  0  0
   -7.9203    4.5706  -17.9508 C   0  0  0  0  0  0  0  0  0  0  0  0
   -2.8514    5.3656  -19.6731 C   0  0  0  0  0  0  0  0  0  0  0  0
   -2.6623    5.1218  -18.2841 C   0  0  0  0  0  0  0  0  0  0  0  0
   -1.5312    5.5956  -17.6231 C   0  0  0  0  0  0  0  0  0  0  0  0
   -1.4620    5.5526  -15.9032 Cl  0  0  0  0  0  0  0  0  0  0  0  0
   -0.4885    6.1491  -18.3447 C   0  0  0  0  0  0  0  0  0  0  0  0
   -0.6069    6.2571  -19.7302 C   0  0  0  0  0  0  0  0  0  0  0  0
   -1.7694    5.9007  -20.4003 C   0  0  0  0  0  0  0  0  0  0  0  0
   -1.8076    6.1340  -21.7195 N   0  0  0  0  0  0  0  0  0  0  0  0
  1  2  1  0
  2  3  2  0
  3  4  1  0
  4  5  1  0
  5  6  2  0
  5  7  1  0
  7  8  1  0
  8  9  2  0
  9 10  1  0
 10 11  1  0
 11 12  1  0
 11 13  1  0
 11 14  1  0
 10 15  2  0
 15 16  1  0
 16 17  2  0
 17 18  1  0
 18 19  2  0
 19 20  1  0
 20 21  2  0
  4 22  2  0
 22 23  1  0
 23 24  2  0
 24 25  1  0
 24 26  1  0
 26 27  2  0
 27 28  1  0
 28 29  2  0
 29  2  1  0
 21  8  1  0
 28 22  1  0
 21 16  1  0
M  END
>  <fragmenstein_outcome>  (341) 
nan

>  <exports>  (341) 
['/opt/xchem-fragalysis-2/maxwin/openbind-hippo/xx01zvns2b/cycle_01/syndirella/elabs/openbind_xx01zvns2b_c1_elab_chemspace_filtered.sdf']

>  <Energy>  (341) 
nan

>  <alias>  (341) 
None

>  <fragmenstein_runtime>  (341) 
nan

>  <scratch_subdir>  (341) 
nan

>  <HIPPO Compound ID>  (341) 
142217

>  <rmsd(smina/fragmenstein)>  (341) 
1.987

>  <distance_score>  (341) 
1.216107

>  <orig_smiles>  (341) 
nan

>  <fragmenstein_mode>  (341) 
nan

>  <inchikey>  (341) 
QMSNMWUJVWINIR-UHFFFAOYSA-N

>  <ref_pdb>  (341) 
Z0852a

>  <GNINA pK>  (341) 
nan

>  <gnina_score_min>  (341) 
6.543

>  <tags>  (341) 
openbind_xx01zvns2b_c1_elab_nonasap_filtered_scored_top80percent,openbind_xx01zvns2b_c1_elab_chemspace_filtered_scored_top80percent,openbind_xx01zvns2b_c1_elab_chemspace_filtered_scored,openbind_xx01zvns2b_c1_elab_chemspace_filtered_scored_top40percent,openbind_xx01zvns2b_c1_elab_chemspace_filtered_scored_top20percent,openbind_xx01zvns2b_c1_elab_chemspace_filtered_scored_top60percent,openbind_xx01zvns2b_c1_elabs_filtered

>  <smiles>  (341) 
Cc1cc(C(=O)Nc2cc(C(C)(C)C)cc3cccnc23)c2cc(Cl)ccc2n1

>  <subsites>  (341) 
1 - Z4590/B/203/1

>  <gnina_score>  (341) 
6.061

>  <HIPPO Pose ID>  (341) 
70291

>  <ref_mols>  (341) 
Z0917a,Z0852a

>  <energy_score>  (341) 
-17.772417

>  <inspiration_score>  (341) 
None

>  <smina_score_min>  (341) 
-6.825

>  <fragmenstein_error>  (341) 
nan

>  <name>  (341) 
P70291

$$$$
P70292
     RDKit          3D

 29 32  0  0  0  0  0  0  0  0999 V2000
   -6.6546    2.8717  -13.0732 C   0  0  0  0  0  0  0  0  0  0  0  0
   -6.5355    4.2752  -12.7988 O   0  0  0  0  0  0  0  0  0  0  0  0
   -6.0749    5.1084  -13.7647 C   0  0  0  0  0  0  0  0  0  0  0  0
   -5.2742    6.0040  -13.5294 O   0  0  0  0  0  0  0  0  0  0  0  0
   -6.6255    4.9355  -15.1314 C   0  0  0  0  0  0  0  0  0  0  0  0
   -5.8130    5.2357  -16.2251 C   0  0  0  0  0  0  0  0  0  0  0  0
   -6.2855    5.0696  -17.5351 C   0  0  0  0  0  0  0  0  0  0  0  0
   -5.3665    5.3229  -18.5554 N   0  0  0  0  0  0  0  0  0  0  0  0
   -5.2601    4.7305  -19.9864 C   0  0  0  0  0  0  0  0  0  0  0  0
   -5.9699    3.9972  -20.5583 O   0  0  0  0  0  0  0  0  0  0  0  0
   -4.0563    5.2264  -20.6996 C   0  0  0  0  0  0  0  0  0  0  0  0
   -4.2782    5.5759  -22.0320 C   0  0  0  0  0  0  0  0  0  0  0  0
   -3.2151    6.0661  -22.7428 C   0  0  0  0  0  0  0  0  0  0  0  0
   -3.3472    6.4476  -24.0444 O   0  0  0  0  0  0  0  0  0  0  0  0
   -1.9985    6.2647  -22.2240 N   0  0  0  0  0  0  0  0  0  0  0  0
   -1.7942    5.9430  -20.9344 C   0  0  0  0  0  0  0  0  0  0  0  0
   -0.5467    6.2441  -20.3980 C   0  0  0  0  0  0  0  0  0  0  0  0
    0.4054    6.8298  -21.1997 O   0  0  0  0  0  0  0  0  0  0  0  0
   -0.2256    6.0173  -19.0693 C   0  0  0  0  0  0  0  0  0  0  0  0
   -1.1693    5.4176  -18.2513 C   0  0  0  0  0  0  0  0  0  0  0  0
   -2.4088    5.0393  -18.7725 C   0  0  0  0  0  0  0  0  0  0  0  0
   -2.7774    5.3753  -20.1046 C   0  0  0  0  0  0  0  0  0  0  0  0
   -7.6102    4.7033  -17.7757 C   0  0  0  0  0  0  0  0  0  0  0  0
   -8.1349    4.6973  -19.0049 N   0  0  0  0  0  0  0  0  0  0  0  0
   -9.4517    4.4940  -19.1626 C   0  0  0  0  0  0  0  0  0  0  0  0
  -10.3021    4.2182  -18.1244 C   0  0  0  0  0  0  0  0  0  0  0  0
   -9.7502    4.1494  -16.8644 C   0  0  0  0  0  0  0  0  0  0  0  0
   -8.4199    4.4524  -16.6578 C   0  0  0  0  0  0  0  0  0  0  0  0
   -7.9412    4.5491  -15.3492 C   0  0  0  0  0  0  0  0  0  0  0  0
  1  2  1  0
  2  3  1  0
  3  4  2  0
  3  5  1  0
  5  6  2  0
  6  7  1  0
  7  8  1  0
  8  9  1  0
  9 10  2  0
  9 11  1  0
 11 12  2  0
 12 13  1  0
 13 14  1  0
 13 15  2  0
 15 16  1  0
 16 17  2  0
 17 18  1  0
 17 19  1  0
 19 20  2  0
 20 21  1  0
 21 22  2  0
  7 23  2  0
 23 24  1  0
 24 25  2  0
 25 26  1  0
 26 27  2  0
 27 28  1  0
 28 29  2  0
 29  5  1  0
 22 11  1  0
 28 23  1  0
 22 16  1  0
M  END
>  <fragmenstein_outcome>  (342) 
nan

>  <exports>  (342) 
['/opt/xchem-fragalysis-2/maxwin/openbind-hippo/xx01zvns2b/cycle_01/syndirella/elabs/openbind_xx01zvns2b_c1_elab_chemspace_filtered.sdf']

>  <Energy>  (342) 
nan

>  <alias>  (342) 
None

>  <fragmenstein_runtime>  (342) 
nan

>  <scratch_subdir>  (342) 
nan

>  <HIPPO Compound ID>  (342) 
142218

>  <rmsd(smina/fragmenstein)>  (342) 
0.977

>  <distance_score>  (342) 
1.579846

>  <orig_smiles>  (342) 
nan

>  <fragmenstein_mode>  (342) 
nan

>  <inchikey>  (342) 
SEINKEDNRAGAHT-UHFFFAOYSA-N

>  <ref_pdb>  (342) 
Z0852a

>  <GNINA pK>  (342) 
nan

>  <gnina_score_min>  (342) 
5.755

>  <tags>  (342) 
openbind_xx01zvns2b_c1_elab_nonasap_filtered_scored_top80percent,openbind_xx01zvns2b_c1_elab_chemspace_filtered_scored_top80percent,openbind_xx01zvns2b_c1_elab_chemspace_filtered_scored,openbind_xx01zvns2b_c1_elab_chemspace_filtered_scored_top40percent,openbind_xx01zvns2b_c1_elab_chemspace_filtered_scored_top20percent,openbind_xx01zvns2b_c1_elab_chemspace_filtered_scored_top60percent,openbind_xx01zvns2b_c1_elabs_filtered

>  <smiles>  (342) 
COC(=O)c1cc(NC(=O)c2cc(O)nc3c(O)cccc23)c2ncccc2c1

>  <subsites>  (342) 
1 - Z4590/B/203/1

>  <gnina_score>  (342) 
5.535

>  <HIPPO Pose ID>  (342) 
70292

>  <ref_mols>  (342) 
Z0917a,Z0852a

>  <energy_score>  (342) 
-8.445219

>  <inspiration_score>  (342) 
None

>  <smina_score_min>  (342) 
-6.655

>  <fragmenstein_error>  (342) 
nan

>  <name>  (342) 
P70292

$$$$
P70293
     RDKit          3D

 29 32  0  0  0  0  0  0  0  0999 V2000
   -5.9443    3.9495  -20.3475 O   0  0  0  0  0  0  0  0  0  0  0  0
   -5.3313    4.7423  -19.7411 C   0  0  0  0  0  0  0  0  0  0  0  0
   -5.6215    5.4019  -18.3595 N   0  0  0  0  0  0  0  0  0  0  0  0
   -6.6429    5.1571  -17.4308 C   0  0  0  0  0  0  0  0  0  0  0  0
   -6.4287    5.4891  -16.0811 C   0  0  0  0  0  0  0  0  0  0  0  0
   -7.4268    5.2562  -15.1172 C   0  0  0  0  0  0  0  0  0  0  0  0
   -7.3278    5.7541  -13.7017 C   0  0  0  0  0  0  0  0  0  0  0  0
   -7.2312    7.1138  -13.6537 F   0  0  0  0  0  0  0  0  0  0  0  0
   -6.2482    5.2708  -13.0388 F   0  0  0  0  0  0  0  0  0  0  0  0
   -8.4179    5.4495  -12.9397 F   0  0  0  0  0  0  0  0  0  0  0  0
   -8.6050    4.6412  -15.5085 C   0  0  0  0  0  0  0  0  0  0  0  0
   -8.8491    4.4481  -16.8544 C   0  0  0  0  0  0  0  0  0  0  0  0
  -10.1354    4.1603  -17.2307 C   0  0  0  0  0  0  0  0  0  0  0  0
  -10.5278    4.3481  -18.5196 C   0  0  0  0  0  0  0  0  0  0  0  0
   -9.5382    4.5311  -19.4410 C   0  0  0  0  0  0  0  0  0  0  0  0
   -8.2416    4.6402  -19.1260 N   0  0  0  0  0  0  0  0  0  0  0  0
   -7.8930    4.6973  -17.8413 C   0  0  0  0  0  0  0  0  0  0  0  0
   -4.0721    5.2121  -20.3657 C   0  0  0  0  0  0  0  0  0  0  0  0
   -4.1630    5.4648  -21.7348 C   0  0  0  0  0  0  0  0  0  0  0  0
   -3.0255    5.8701  -22.3711 C   0  0  0  0  0  0  0  0  0  0  0  0
   -3.0343    6.1189  -23.7038 O   0  0  0  0  0  0  0  0  0  0  0  0
   -1.8461    6.0872  -21.7787 N   0  0  0  0  0  0  0  0  0  0  0  0
   -1.7708    5.8565  -20.4508 C   0  0  0  0  0  0  0  0  0  0  0  0
   -0.5703    6.1498  -19.8070 C   0  0  0  0  0  0  0  0  0  0  0  0
    0.4873    6.6427  -20.5347 O   0  0  0  0  0  0  0  0  0  0  0  0
   -0.3857    5.9892  -18.4409 C   0  0  0  0  0  0  0  0  0  0  0  0
   -1.4169    5.4540  -17.6861 C   0  0  0  0  0  0  0  0  0  0  0  0
   -2.6119    5.0868  -18.3054 C   0  0  0  0  0  0  0  0  0  0  0  0
   -2.8450    5.3683  -19.6783 C   0  0  0  0  0  0  0  0  0  0  0  0
  1  2  2  0
  2  3  1  0
  3  4  1  0
  4  5  2  0
  5  6  1  0
  6  7  1  0
  7  8  1  0
  7  9  1  0
  7 10  1  0
  6 11  2  0
 11 12  1  0
 12 13  2  0
 13 14  1  0
 14 15  2  0
 15 16  1  0
 16 17  2  0
  2 18  1  0
 18 19  2  0
 19 20  1  0
 20 21  1  0
 20 22  2  0
 22 23  1  0
 23 24  2  0
 24 25  1  0
 24 26  1  0
 26 27  2  0
 27 28  1  0
 28 29  2  0
 17  4  1  0
 29 18  1  0
 17 12  1  0
 29 23  1  0
M  END
>  <fragmenstein_outcome>  (343) 
nan

>  <exports>  (343) 
['/opt/xchem-fragalysis-2/maxwin/openbind-hippo/xx01zvns2b/cycle_01/syndirella/elabs/openbind_xx01zvns2b_c1_elab_chemspace_filtered.sdf']

>  <Energy>  (343) 
nan

>  <alias>  (343) 
None

>  <fragmenstein_runtime>  (343) 
nan

>  <scratch_subdir>  (343) 
nan

>  <HIPPO Compound ID>  (343) 
142219

>  <rmsd(smina/fragmenstein)>  (343) 
1.338

>  <distance_score>  (343) 
1.058412

>  <orig_smiles>  (343) 
nan

>  <fragmenstein_mode>  (343) 
nan

>  <inchikey>  (343) 
YTIBOELGKOCQSP-UHFFFAOYSA-N

>  <ref_pdb>  (343) 
Z0852a

>  <GNINA pK>  (343) 
nan

>  <gnina_score_min>  (343) 
5.757

>  <tags>  (343) 
openbind_xx01zvns2b_c1_elab_nonasap_filtered_scored_top80percent,openbind_xx01zvns2b_c1_elab_chemspace_filtered_scored_top80percent,openbind_xx01zvns2b_c1_elab_chemspace_filtered_scored,openbind_xx01zvns2b_c1_elab_chemspace_filtered_scored_top40percent,openbind_xx01zvns2b_c1_elab_chemspace_filtered_scored_top20percent,openbind_xx01zvns2b_c1_elab_chemspace_filtered_scored_top60percent,openbind_xx01zvns2b_c1_elabs_filtered

>  <smiles>  (343) 
O=C(Nc1cc(C(F)(F)F)cc2cccnc12)c1cc(O)nc2c(O)cccc12

>  <subsites>  (343) 
1 - Z4590/B/203/1

>  <gnina_score>  (343) 
5.3

>  <HIPPO Pose ID>  (343) 
70293

>  <ref_mols>  (343) 
Z0917a,Z0852a

>  <energy_score>  (343) 
-25.241515

>  <inspiration_score>  (343) 
None

>  <smina_score_min>  (343) 
-6.471

>  <fragmenstein_error>  (343) 
nan

>  <name>  (343) 
P70293

$$$$
P70294
     RDKit          3D

 29 32  0  0  0  0  0  0  0  0999 V2000
   -8.1528    6.7001  -13.3539 C   0  0  0  0  0  0  0  0  0  0  0  0
   -7.0465    5.7205  -13.7995 C   0  0  0  0  0  0  0  0  0  0  0  0
   -7.0255    4.5126  -12.8516 C   0  0  0  0  0  0  0  0  0  0  0  0
   -5.7234    6.4652  -13.6451 C   0  0  0  0  0  0  0  0  0  0  0  0
   -7.2632    5.2568  -15.2375 C   0  0  0  0  0  0  0  0  0  0  0  0
   -6.3295    5.4503  -16.2732 C   0  0  0  0  0  0  0  0  0  0  0  0
   -6.6123    5.1089  -17.6053 C   0  0  0  0  0  0  0  0  0  0  0  0
   -5.6054    5.3385  -18.5491 N   0  0  0  0  0  0  0  0  0  0  0  0
   -5.3706    4.7047  -19.9492 C   0  0  0  0  0  0  0  0  0  0  0  0
   -6.0250    3.9507  -20.5601 O   0  0  0  0  0  0  0  0  0  0  0  0
   -4.1017    5.1678  -20.5656 C   0  0  0  0  0  0  0  0  0  0  0  0
   -4.1864    5.4591  -21.9244 C   0  0  0  0  0  0  0  0  0  0  0  0
   -3.0429    5.8747  -22.5433 C   0  0  0  0  0  0  0  0  0  0  0  0
   -3.0448    6.1597  -23.8690 O   0  0  0  0  0  0  0  0  0  0  0  0
   -1.8650    6.0733  -21.9406 N   0  0  0  0  0  0  0  0  0  0  0  0
   -1.7980    5.8161  -20.6178 C   0  0  0  0  0  0  0  0  0  0  0  0
   -0.6036    6.1044  -19.9604 C   0  0  0  0  0  0  0  0  0  0  0  0
    0.4568    6.6150  -20.6718 O   0  0  0  0  0  0  0  0  0  0  0  0
   -0.4303    5.9277  -18.5952 C   0  0  0  0  0  0  0  0  0  0  0  0
   -1.4673    5.3822  -17.8566 C   0  0  0  0  0  0  0  0  0  0  0  0
   -2.6540    5.0163  -18.4915 C   0  0  0  0  0  0  0  0  0  0  0  0
   -2.8774    5.3125  -19.8639 C   0  0  0  0  0  0  0  0  0  0  0  0
   -7.8793    4.6633  -17.9423 C   0  0  0  0  0  0  0  0  0  0  0  0
   -8.2885    4.6021  -19.2058 N   0  0  0  0  0  0  0  0  0  0  0  0
   -9.6008    4.5194  -19.4489 C   0  0  0  0  0  0  0  0  0  0  0  0
  -10.5441    4.3283  -18.4780 C   0  0  0  0  0  0  0  0  0  0  0  0
  -10.0879    4.1534  -17.2061 C   0  0  0  0  0  0  0  0  0  0  0  0
   -8.7834    4.4414  -16.9008 C   0  0  0  0  0  0  0  0  0  0  0  0
   -8.4670    4.6520  -15.5692 C   0  0  0  0  0  0  0  0  0  0  0  0
  1  2  1  0
  2  3  1  0
  2  4  1  0
  2  5  1  0
  5  6  2  0
  6  7  1  0
  7  8  1  0
  8  9  1  0
  9 10  2  0
  9 11  1  0
 11 12  2  0
 12 13  1  0
 13 14  1  0
 13 15  2  0
 15 16  1  0
 16 17  2  0
 17 18  1  0
 17 19  1  0
 19 20  2  0
 20 21  1  0
 21 22  2  0
  7 23  2  0
 23 24  1  0
 24 25  2  0
 25 26  1  0
 26 27  2  0
 27 28  1  0
 28 29  2  0
 29  5  1  0
 22 11  1  0
 28 23  1  0
 22 16  1  0
M  END
>  <fragmenstein_outcome>  (344) 
nan

>  <exports>  (344) 
['/opt/xchem-fragalysis-2/maxwin/openbind-hippo/xx01zvns2b/cycle_01/syndirella/elabs/openbind_xx01zvns2b_c1_elab_chemspace_filtered.sdf']

>  <Energy>  (344) 
nan

>  <alias>  (344) 
None

>  <fragmenstein_runtime>  (344) 
nan

>  <scratch_subdir>  (344) 
nan

>  <HIPPO Compound ID>  (344) 
142220

>  <rmsd(smina/fragmenstein)>  (344) 
1.121

>  <distance_score>  (344) 
1.32859

>  <orig_smiles>  (344) 
nan

>  <fragmenstein_mode>  (344) 
nan

>  <inchikey>  (344) 
WUSZEEMJYFKZMJ-UHFFFAOYSA-N

>  <ref_pdb>  (344) 
Z0852a

>  <GNINA pK>  (344) 
nan

>  <gnina_score_min>  (344) 
6.131

>  <tags>  (344) 
openbind_xx01zvns2b_c1_elab_nonasap_filtered_scored_top80percent,openbind_xx01zvns2b_c1_elab_chemspace_filtered_scored_top80percent,openbind_xx01zvns2b_c1_elab_chemspace_filtered_scored,openbind_xx01zvns2b_c1_elab_chemspace_filtered_scored_top40percent,openbind_xx01zvns2b_c1_elab_chemspace_filtered_scored_top20percent,openbind_xx01zvns2b_c1_elab_chemspace_filtered_scored_top60percent,openbind_xx01zvns2b_c1_elabs_filtered

>  <smiles>  (344) 
CC(C)(C)c1cc(NC(=O)c2cc(O)nc3c(O)cccc23)c2ncccc2c1

>  <subsites>  (344) 
1 - Z4590/B/203/1

>  <gnina_score>  (344) 
5.444

>  <HIPPO Pose ID>  (344) 
70294

>  <ref_mols>  (344) 
Z0917a,Z0852a

>  <energy_score>  (344) 
-57.260489

>  <inspiration_score>  (344) 
None

>  <smina_score_min>  (344) 
-6.708

>  <fragmenstein_error>  (344) 
nan

>  <name>  (344) 
P70294

$$$$
P70295
     RDKit          3D

 29 32  0  0  0  0  0  0  0  0999 V2000
   -1.4821    5.4907  -16.0889 C   0  0  0  0  0  0  0  0  0  0  0  0
   -1.5480    5.5636  -17.5866 C   0  0  0  0  0  0  0  0  0  0  0  0
   -0.5209    6.1560  -18.3115 C   0  0  0  0  0  0  0  0  0  0  0  0
   -0.6342    6.2853  -19.6964 C   0  0  0  0  0  0  0  0  0  0  0  0
   -1.7837    5.9193  -20.3806 C   0  0  0  0  0  0  0  0  0  0  0  0
   -1.8175    6.1637  -21.7003 N   0  0  0  0  0  0  0  0  0  0  0  0
   -2.9413    5.9012  -22.3960 C   0  0  0  0  0  0  0  0  0  0  0  0
   -2.9168    6.1700  -23.8690 C   0  0  0  0  0  0  0  0  0  0  0  0
   -4.0780    5.4170  -21.7885 C   0  0  0  0  0  0  0  0  0  0  0  0
   -4.0442    5.1502  -20.4166 C   0  0  0  0  0  0  0  0  0  0  0  0
   -5.3327    4.6529  -19.8559 C   0  0  0  0  0  0  0  0  0  0  0  0
   -5.9618    3.9237  -20.5222 O   0  0  0  0  0  0  0  0  0  0  0  0
   -5.6197    5.2240  -18.4384 N   0  0  0  0  0  0  0  0  0  0  0  0
   -6.6574    4.9500  -17.5420 C   0  0  0  0  0  0  0  0  0  0  0  0
   -6.4161    5.2089  -16.1828 C   0  0  0  0  0  0  0  0  0  0  0  0
   -7.4060    5.0101  -15.1999 C   0  0  0  0  0  0  0  0  0  0  0  0
   -7.2092    5.4678  -13.7566 C   0  0  0  0  0  0  0  0  0  0  0  0
   -8.4444    5.2862  -12.8463 C   0  0  0  0  0  0  0  0  0  0  0  0
   -6.9083    6.9693  -13.7930 C   0  0  0  0  0  0  0  0  0  0  0  0
   -6.0420    4.7136  -13.1131 C   0  0  0  0  0  0  0  0  0  0  0  0
   -8.6201    4.4899  -15.6138 C   0  0  0  0  0  0  0  0  0  0  0  0
   -8.8875    4.3565  -16.9642 C   0  0  0  0  0  0  0  0  0  0  0  0
  -10.1962    4.1744  -17.3331 C   0  0  0  0  0  0  0  0  0  0  0  0
  -10.5815    4.4299  -18.6098 C   0  0  0  0  0  0  0  0  0  0  0  0
   -9.5850    4.5509  -19.5335 C   0  0  0  0  0  0  0  0  0  0  0  0
   -8.2804    4.5490  -19.2370 N   0  0  0  0  0  0  0  0  0  0  0  0
   -7.9247    4.5652  -17.9544 C   0  0  0  0  0  0  0  0  0  0  0  0
   -2.8600    5.3633  -19.6656 C   0  0  0  0  0  0  0  0  0  0  0  0
   -2.6728    5.1001  -18.2781 C   0  0  0  0  0  0  0  0  0  0  0  0
  1  2  1  0
  2  3  2  0
  3  4  1  0
  4  5  2  0
  5  6  1  0
  6  7  2  0
  7  8  1  0
  7  9  1  0
  9 10  2  0
 10 11  1  0
 11 12  2  0
 11 13  1  0
 13 14  1  0
 14 15  2  0
 15 16  1  0
 16 17  1  0
 17 18  1  0
 17 19  1  0
 17 20  1  0
 16 21  2  0
 21 22  1  0
 22 23  2  0
 23 24  1  0
 24 25  2  0
 25 26  1  0
 26 27  2  0
 10 28  1  0
 28 29  2  0
 29  2  1  0
 28  5  1  0
 27 14  1  0
 27 22  1  0
M  END
>  <fragmenstein_outcome>  (345) 
nan

>  <exports>  (345) 
['/opt/xchem-fragalysis-2/maxwin/openbind-hippo/xx01zvns2b/cycle_01/syndirella/elabs/openbind_xx01zvns2b_c1_elab_chemspace_filtered.sdf']

>  <Energy>  (345) 
nan

>  <alias>  (345) 
None

>  <fragmenstein_runtime>  (345) 
nan

>  <scratch_subdir>  (345) 
nan

>  <HIPPO Compound ID>  (345) 
142224

>  <rmsd(smina/fragmenstein)>  (345) 
1.929

>  <distance_score>  (345) 
1.210042

>  <orig_smiles>  (345) 
nan

>  <fragmenstein_mode>  (345) 
nan

>  <inchikey>  (345) 
OTEIWBUVVYOVOJ-UHFFFAOYSA-N

>  <ref_pdb>  (345) 
Z0852a

>  <GNINA pK>  (345) 
nan

>  <gnina_score_min>  (345) 
6.458

>  <tags>  (345) 
openbind_xx01zvns2b_c1_elab_nonasap_filtered_scored_top80percent,openbind_xx01zvns2b_c1_elab_chemspace_filtered_scored_top80percent,openbind_xx01zvns2b_c1_elab_chemspace_filtered_scored,openbind_xx01zvns2b_c1_elab_chemspace_filtered_scored_top40percent,openbind_xx01zvns2b_c1_elab_chemspace_filtered_scored_top20percent,openbind_xx01zvns2b_c1_elab_chemspace_filtered_scored_top60percent,openbind_xx01zvns2b_c1_elabs_filtered

>  <smiles>  (345) 
Cc1ccc2nc(C)cc(C(=O)Nc3cc(C(C)(C)C)cc4cccnc34)c2c1

>  <subsites>  (345) 
1 - Z4590/B/203/1

>  <gnina_score>  (345) 
5.983

>  <HIPPO Pose ID>  (345) 
70295

>  <ref_mols>  (345) 
Z0917a,Z0852a

>  <energy_score>  (345) 
-5.403717

>  <inspiration_score>  (345) 
None

>  <smina_score_min>  (345) 
-6.895

>  <fragmenstein_error>  (345) 
nan

>  <name>  (345) 
P70295

$$$$
P70296
     RDKit          3D

 29 32  0  0  0  0  0  0  0  0999 V2000
    0.9618    6.2855  -17.8944 C   0  0  0  0  0  0  0  0  0  0  0  0
   -0.3559    5.9957  -18.5592 C   0  0  0  0  0  0  0  0  0  0  0  0
   -1.3841    5.4363  -17.8046 C   0  0  0  0  0  0  0  0  0  0  0  0
   -2.5915    5.0916  -18.4012 C   0  0  0  0  0  0  0  0  0  0  0  0
   -2.8617    5.4256  -19.7475 C   0  0  0  0  0  0  0  0  0  0  0  0
   -4.1124    5.2631  -20.3909 C   0  0  0  0  0  0  0  0  0  0  0  0
   -5.3353    4.7370  -19.7367 C   0  0  0  0  0  0  0  0  0  0  0  0
   -5.9295    3.9219  -20.3325 O   0  0  0  0  0  0  0  0  0  0  0  0
   -5.5835    5.3326  -18.3186 N   0  0  0  0  0  0  0  0  0  0  0  0
   -6.6330    5.1221  -17.4147 C   0  0  0  0  0  0  0  0  0  0  0  0
   -6.4290    5.4563  -16.0637 C   0  0  0  0  0  0  0  0  0  0  0  0
   -7.4396    5.2428  -15.1096 C   0  0  0  0  0  0  0  0  0  0  0  0
   -7.3444    5.7416  -13.6945 C   0  0  0  0  0  0  0  0  0  0  0  0
   -8.4360    5.4367  -12.9351 F   0  0  0  0  0  0  0  0  0  0  0  0
   -6.2658    5.2603  -13.0283 F   0  0  0  0  0  0  0  0  0  0  0  0
   -7.2491    7.1015  -13.6474 F   0  0  0  0  0  0  0  0  0  0  0  0
   -8.6226    4.6448  -15.5119 C   0  0  0  0  0  0  0  0  0  0  0  0
   -8.8555    4.4495  -16.8598 C   0  0  0  0  0  0  0  0  0  0  0  0
  -10.1413    4.1736  -17.2473 C   0  0  0  0  0  0  0  0  0  0  0  0
  -10.5190    4.3609  -18.5399 C   0  0  0  0  0  0  0  0  0  0  0  0
   -9.5184    4.5237  -19.4527 C   0  0  0  0  0  0  0  0  0  0  0  0
   -8.2234    4.6217  -19.1267 N   0  0  0  0  0  0  0  0  0  0  0  0
   -7.8858    4.6816  -17.8385 C   0  0  0  0  0  0  0  0  0  0  0  0
   -4.2658    5.5479  -21.7475 C   0  0  0  0  0  0  0  0  0  0  0  0
   -3.1704    6.0013  -22.4296 C   0  0  0  0  0  0  0  0  0  0  0  0
   -1.9822    6.2261  -21.8423 N   0  0  0  0  0  0  0  0  0  0  0  0
   -1.8173    5.9629  -20.5307 C   0  0  0  0  0  0  0  0  0  0  0  0
   -0.5781    6.2528  -19.9296 C   0  0  0  0  0  0  0  0  0  0  0  0
    0.5428    6.7883  -20.7939 C   0  0  0  0  0  0  0  0  0  0  0  0
  1  2  1  0
  2  3  2  0
  3  4  1  0
  4  5  2  0
  5  6  1  0
  6  7  1  0
  7  8  2  0
  7  9  1  0
  9 10  1  0
 10 11  2  0
 11 12  1  0
 12 13  1  0
 13 14  1  0
 13 15  1  0
 13 16  1  0
 12 17  2  0
 17 18  1  0
 18 19  2  0
 19 20  1  0
 20 21  2  0
 21 22  1  0
 22 23  2  0
  6 24  2  0
 24 25  1  0
 25 26  2  0
 26 27  1  0
 27 28  2  0
 28 29  1  0
 28  2  1  0
 27  5  1  0
 23 10  1  0
 23 18  1  0
M  END
>  <fragmenstein_outcome>  (346) 
nan

>  <exports>  (346) 
['/opt/xchem-fragalysis-2/maxwin/openbind-hippo/xx01zvns2b/cycle_01/syndirella/elabs/openbind_xx01zvns2b_c1_elab_chemspace_filtered.sdf']

>  <Energy>  (346) 
nan

>  <alias>  (346) 
None

>  <fragmenstein_runtime>  (346) 
nan

>  <scratch_subdir>  (346) 
nan

>  <HIPPO Compound ID>  (346) 
142225

>  <rmsd(smina/fragmenstein)>  (346) 
1.151

>  <distance_score>  (346) 
1.07308

>  <orig_smiles>  (346) 
nan

>  <fragmenstein_mode>  (346) 
nan

>  <inchikey>  (346) 
UGKGWUPXWOOFMX-UHFFFAOYSA-N

>  <ref_pdb>  (346) 
Z0852a

>  <GNINA pK>  (346) 
nan

>  <gnina_score_min>  (346) 
6.072

>  <tags>  (346) 
openbind_xx01zvns2b_c1_elab_nonasap_filtered_scored_top80percent,openbind_xx01zvns2b_c1_elab_chemspace_filtered_scored_top80percent,openbind_xx01zvns2b_c1_elab_chemspace_filtered_scored,openbind_xx01zvns2b_c1_elab_chemspace_filtered_scored_top40percent,openbind_xx01zvns2b_c1_elab_chemspace_filtered_scored_top20percent,openbind_xx01zvns2b_c1_elab_chemspace_filtered_scored_top60percent,openbind_xx01zvns2b_c1_elabs_filtered

>  <smiles>  (346) 
Cc1ccc2c(C(=O)Nc3cc(C(F)(F)F)cc4cccnc34)ccnc2c1C

>  <subsites>  (346) 
1 - Z4590/B/203/1

>  <gnina_score>  (346) 
5.633

>  <HIPPO Pose ID>  (346) 
70296

>  <ref_mols>  (346) 
Z0917a,Z0852a

>  <energy_score>  (346) 
-10.300723

>  <inspiration_score>  (346) 
None

>  <smina_score_min>  (346) 
-6.751

>  <fragmenstein_error>  (346) 
nan

>  <name>  (346) 
P70296

$$$$
P70297
     RDKit          3D

 29 32  0  0  0  0  0  0  0  0999 V2000
    0.8575    6.2927  -17.9511 C   0  0  0  0  0  0  0  0  0  0  0  0
   -0.4327    5.9558  -18.6461 C   0  0  0  0  0  0  0  0  0  0  0  0
   -1.4535    5.3523  -17.9172 C   0  0  0  0  0  0  0  0  0  0  0  0
   -2.6385    4.9753  -18.5379 C   0  0  0  0  0  0  0  0  0  0  0  0
   -2.9084    5.3433  -19.8756 C   0  0  0  0  0  0  0  0  0  0  0  0
   -4.1590    5.1987  -20.5295 C   0  0  0  0  0  0  0  0  0  0  0  0
   -5.3891    4.6504  -19.9009 C   0  0  0  0  0  0  0  0  0  0  0  0
   -5.9982    3.8712  -20.5289 O   0  0  0  0  0  0  0  0  0  0  0  0
   -5.6136    5.1758  -18.4533 N   0  0  0  0  0  0  0  0  0  0  0  0
   -6.6522    4.9296  -17.5481 C   0  0  0  0  0  0  0  0  0  0  0  0
   -6.4031    5.1810  -16.1888 C   0  0  0  0  0  0  0  0  0  0  0  0
   -7.3962    4.9983  -15.2042 C   0  0  0  0  0  0  0  0  0  0  0  0
   -7.1991    5.4679  -13.7646 C   0  0  0  0  0  0  0  0  0  0  0  0
   -6.0364    4.7143  -13.1126 C   0  0  0  0  0  0  0  0  0  0  0  0
   -6.8918    6.9676  -13.8141 C   0  0  0  0  0  0  0  0  0  0  0  0
   -8.4362    5.2991  -12.8535 C   0  0  0  0  0  0  0  0  0  0  0  0
   -8.6167    4.4897  -15.6149 C   0  0  0  0  0  0  0  0  0  0  0  0
   -8.8892    4.3602  -16.9645 C   0  0  0  0  0  0  0  0  0  0  0  0
  -10.1991    4.1792  -17.3309 C   0  0  0  0  0  0  0  0  0  0  0  0
  -10.5883    4.4350  -18.6064 C   0  0  0  0  0  0  0  0  0  0  0  0
   -9.5943    4.5612  -19.5315 C   0  0  0  0  0  0  0  0  0  0  0  0
   -8.2891    4.5601  -19.2369 N   0  0  0  0  0  0  0  0  0  0  0  0
   -7.9282    4.5671  -17.9563 C   0  0  0  0  0  0  0  0  0  0  0  0
   -4.3115    5.5483  -21.8698 C   0  0  0  0  0  0  0  0  0  0  0  0
   -3.2165    6.0359  -22.5291 C   0  0  0  0  0  0  0  0  0  0  0  0
   -2.0270    6.2325  -21.9342 N   0  0  0  0  0  0  0  0  0  0  0  0
   -1.8627    5.9098  -20.6364 C   0  0  0  0  0  0  0  0  0  0  0  0
   -0.6220    6.1714  -20.0273 C   0  0  0  0  0  0  0  0  0  0  0  0
    0.4919    6.7598  -20.8643 C   0  0  0  0  0  0  0  0  0  0  0  0
  1  2  1  0
  2  3  2  0
  3  4  1  0
  4  5  2  0
  5  6  1  0
  6  7  1  0
  7  8  2  0
  7  9  1  0
  9 10  1  0
 10 11  2  0
 11 12  1  0
 12 13  1  0
 13 14  1  0
 13 15  1  0
 13 16  1  0
 12 17  2  0
 17 18  1  0
 18 19  2  0
 19 20  1  0
 20 21  2  0
 21 22  1  0
 22 23  2  0
  6 24  2  0
 24 25  1  0
 25 26  2  0
 26 27  1  0
 27 28  2  0
 28 29  1  0
 28  2  1  0
 27  5  1  0
 23 10  1  0
 23 18  1  0
M  END
>  <fragmenstein_outcome>  (347) 
nan

>  <exports>  (347) 
['/opt/xchem-fragalysis-2/maxwin/openbind-hippo/xx01zvns2b/cycle_01/syndirella/elabs/openbind_xx01zvns2b_c1_elab_chemspace_filtered.sdf']

>  <Energy>  (347) 
nan

>  <alias>  (347) 
None

>  <fragmenstein_runtime>  (347) 
nan

>  <scratch_subdir>  (347) 
nan

>  <HIPPO Compound ID>  (347) 
142226

>  <rmsd(smina/fragmenstein)>  (347) 
1.089

>  <distance_score>  (347) 
1.24125

>  <orig_smiles>  (347) 
nan

>  <fragmenstein_mode>  (347) 
nan

>  <inchikey>  (347) 
LARJHLHFROXMMG-UHFFFAOYSA-N

>  <ref_pdb>  (347) 
Z0852a

>  <GNINA pK>  (347) 
nan

>  <gnina_score_min>  (347) 
6.404

>  <tags>  (347) 
openbind_xx01zvns2b_c1_elab_nonasap_filtered_scored_top80percent,openbind_xx01zvns2b_c1_elab_chemspace_filtered_scored_top80percent,openbind_xx01zvns2b_c1_elab_chemspace_filtered_scored,openbind_xx01zvns2b_c1_elab_chemspace_filtered_scored_top40percent,openbind_xx01zvns2b_c1_elab_chemspace_filtered_scored_top20percent,openbind_xx01zvns2b_c1_elab_chemspace_filtered_scored_top60percent,openbind_xx01zvns2b_c1_elabs_filtered

>  <smiles>  (347) 
Cc1ccc2c(C(=O)Nc3cc(C(C)(C)C)cc4cccnc34)ccnc2c1C

>  <subsites>  (347) 
1 - Z4590/B/203/1

>  <gnina_score>  (347) 
5.887

>  <HIPPO Pose ID>  (347) 
70297

>  <ref_mols>  (347) 
Z0917a,Z0852a

>  <energy_score>  (347) 
-18.037286

>  <inspiration_score>  (347) 
None

>  <smina_score_min>  (347) 
-6.891

>  <fragmenstein_error>  (347) 
nan

>  <name>  (347) 
P70297

$$$$
P70298
     RDKit          3D

 29 32  0  0  0  0  0  0  0  0999 V2000
   -5.2427    6.0318  -22.5503 C   0  0  0  0  0  0  0  0  0  0  0  0
   -4.0402    5.8072  -21.6815 C   0  0  0  0  0  0  0  0  0  0  0  0
   -4.0443    5.2986  -20.4257 C   0  0  0  0  0  0  0  0  0  0  0  0
   -5.3501    4.7410  -19.9162 C   0  0  0  0  0  0  0  0  0  0  0  0
   -5.9582    3.9679  -20.5518 O   0  0  0  0  0  0  0  0  0  0  0  0
   -5.6379    5.3374  -18.5034 N   0  0  0  0  0  0  0  0  0  0  0  0
   -6.6489    5.0403  -17.5792 C   0  0  0  0  0  0  0  0  0  0  0  0
   -6.3987    5.3082  -16.2226 C   0  0  0  0  0  0  0  0  0  0  0  0
   -7.3688    5.0703  -15.2244 C   0  0  0  0  0  0  0  0  0  0  0  0
   -7.1721    5.5191  -13.7778 C   0  0  0  0  0  0  0  0  0  0  0  0
   -8.4048    5.3236  -12.8640 C   0  0  0  0  0  0  0  0  0  0  0  0
   -6.0003    4.7625  -13.1464 C   0  0  0  0  0  0  0  0  0  0  0  0
   -6.8783    7.0215  -13.7983 C   0  0  0  0  0  0  0  0  0  0  0  0
   -8.5706    4.5100  -15.6210 C   0  0  0  0  0  0  0  0  0  0  0  0
   -8.8526    4.3745  -16.9664 C   0  0  0  0  0  0  0  0  0  0  0  0
  -10.1626    4.1639  -17.3134 C   0  0  0  0  0  0  0  0  0  0  0  0
  -10.5715    4.4070  -18.5857 C   0  0  0  0  0  0  0  0  0  0  0  0
   -9.5906    4.5527  -19.5238 C   0  0  0  0  0  0  0  0  0  0  0  0
   -8.2816    4.5834  -19.2456 N   0  0  0  0  0  0  0  0  0  0  0  0
   -7.9093    4.6107  -17.9695 C   0  0  0  0  0  0  0  0  0  0  0  0
   -2.8107    5.3393  -19.6032 C   0  0  0  0  0  0  0  0  0  0  0  0
   -2.7427    4.9417  -18.2619 C   0  0  0  0  0  0  0  0  0  0  0  0
   -1.6356    5.2731  -17.4766 C   0  0  0  0  0  0  0  0  0  0  0  0
   -0.5104    5.8549  -18.0515 C   0  0  0  0  0  0  0  0  0  0  0  0
   -0.5031    6.1263  -19.4131 C   0  0  0  0  0  0  0  0  0  0  0  0
   -1.6560    5.8935  -20.1672 C   0  0  0  0  0  0  0  0  0  0  0  0
   -1.6543    6.2652  -21.5073 N   0  0  0  0  0  0  0  0  0  0  0  0
   -2.7572    6.2498  -22.3016 C   0  0  0  0  0  0  0  0  0  0  0  0
   -2.6844    6.6336  -23.4659 O   0  0  0  0  0  0  0  0  0  0  0  0
  1  2  1  0
  2  3  2  0
  3  4  1  0
  4  5  2  0
  4  6  1  0
  6  7  1  0
  7  8  2  0
  8  9  1  0
  9 10  1  0
 10 11  1  0
 10 12  1  0
 10 13  1  0
  9 14  2  0
 14 15  1  0
 15 16  2  0
 16 17  1  0
 17 18  2  0
 18 19  1  0
 19 20  2  0
  3 21  1  0
 21 22  2  0
 22 23  1  0
 23 24  2  0
 24 25  1  0
 25 26  2  0
 26 27  1  0
 27 28  1  0
 28 29  2  0
 28  2  1  0
 20  7  1  0
 26 21  1  0
 20 15  1  0
M  END
>  <fragmenstein_outcome>  (348) 
nan

>  <exports>  (348) 
['/opt/xchem-fragalysis-2/maxwin/openbind-hippo/xx01zvns2b/cycle_01/syndirella/elabs/openbind_xx01zvns2b_c1_elab_chemspace_filtered.sdf']

>  <Energy>  (348) 
nan

>  <alias>  (348) 
None

>  <fragmenstein_runtime>  (348) 
nan

>  <scratch_subdir>  (348) 
nan

>  <HIPPO Compound ID>  (348) 
142227

>  <rmsd(smina/fragmenstein)>  (348) 
1.183

>  <distance_score>  (348) 
1.233715

>  <orig_smiles>  (348) 
nan

>  <fragmenstein_mode>  (348) 
nan

>  <inchikey>  (348) 
PJBIWVGGGWUFSH-UHFFFAOYSA-N

>  <ref_pdb>  (348) 
Z0852a

>  <GNINA pK>  (348) 
nan

>  <gnina_score_min>  (348) 
6.189

>  <tags>  (348) 
openbind_xx01zvns2b_c1_elab_nonasap_filtered_scored_top80percent,openbind_xx01zvns2b_c1_elab_chemspace_filtered_scored_top80percent,openbind_xx01zvns2b_c1_elab_chemspace_filtered_scored,openbind_xx01zvns2b_c1_elab_chemspace_filtered_scored_top40percent,openbind_xx01zvns2b_c1_elab_chemspace_filtered_scored_top20percent,openbind_xx01zvns2b_c1_elab_chemspace_filtered_scored_top60percent,openbind_xx01zvns2b_c1_elabs_filtered

>  <smiles>  (348) 
Cc1c(C(=O)Nc2cc(C(C)(C)C)cc3cccnc23)c2ccccc2[nH]c1=O

>  <subsites>  (348) 
1 - Z4590/B/203/1

>  <gnina_score>  (348) 
5.711

>  <HIPPO Pose ID>  (348) 
70298

>  <ref_mols>  (348) 
Z0917a,Z0852a

>  <energy_score>  (348) 
-25.938752

>  <inspiration_score>  (348) 
None

>  <smina_score_min>  (348) 
-6.583

>  <fragmenstein_error>  (348) 
nan

>  <name>  (348) 
P70298

$$$$
P70299
     RDKit          3D

 29 32  0  0  0  0  0  0  0  0999 V2000
   -4.3398    5.9617  -12.7260 C   0  0  0  0  0  0  0  0  0  0  0  0
   -4.9551    5.7620  -13.9995 O   0  0  0  0  0  0  0  0  0  0  0  0
   -6.2885    5.5181  -13.9299 C   0  0  0  0  0  0  0  0  0  0  0  0
   -6.9564    5.4762  -12.9098 O   0  0  0  0  0  0  0  0  0  0  0  0
   -6.8464    5.3012  -15.2876 C   0  0  0  0  0  0  0  0  0  0  0  0
   -6.1621    5.6667  -16.4468 C   0  0  0  0  0  0  0  0  0  0  0  0
   -6.7118    5.4096  -17.7155 C   0  0  0  0  0  0  0  0  0  0  0  0
   -5.8313    5.5369  -18.7773 N   0  0  0  0  0  0  0  0  0  0  0  0
   -5.7691    4.7719  -20.1448 C   0  0  0  0  0  0  0  0  0  0  0  0
   -6.4985    3.9786  -20.6048 O   0  0  0  0  0  0  0  0  0  0  0  0
   -4.5007    5.1400  -20.8011 C   0  0  0  0  0  0  0  0  0  0  0  0
   -4.4245    5.6821  -22.0713 C   0  0  0  0  0  0  0  0  0  0  0  0
   -5.5212    5.8562  -22.8514 O   0  0  0  0  0  0  0  0  0  0  0  0
   -3.1779    6.0981  -22.4819 C   0  0  0  0  0  0  0  0  0  0  0  0
   -2.0885    6.0998  -21.6844 N   0  0  0  0  0  0  0  0  0  0  0  0
   -2.1947    5.6009  -20.4304 C   0  0  0  0  0  0  0  0  0  0  0  0
   -1.1826    5.7421  -19.4919 C   0  0  0  0  0  0  0  0  0  0  0  0
   -0.0779    6.3874  -19.8367 F   0  0  0  0  0  0  0  0  0  0  0  0
   -1.2617    5.3453  -18.1609 C   0  0  0  0  0  0  0  0  0  0  0  0
   -2.3720    4.6592  -17.7388 C   0  0  0  0  0  0  0  0  0  0  0  0
   -3.3725    4.4251  -18.6600 C   0  0  0  0  0  0  0  0  0  0  0  0
   -3.3580    5.0112  -19.9656 C   0  0  0  0  0  0  0  0  0  0  0  0
   -7.9845    4.9186  -17.8473 C   0  0  0  0  0  0  0  0  0  0  0  0
   -8.5725    4.9175  -19.0352 N   0  0  0  0  0  0  0  0  0  0  0  0
   -9.8661    4.6227  -19.1164 C   0  0  0  0  0  0  0  0  0  0  0  0
  -10.5940    4.1827  -18.0448 C   0  0  0  0  0  0  0  0  0  0  0  0
   -9.9462    4.1016  -16.8277 C   0  0  0  0  0  0  0  0  0  0  0  0
   -8.6602    4.5603  -16.6829 C   0  0  0  0  0  0  0  0  0  0  0  0
   -8.0976    4.7098  -15.4103 C   0  0  0  0  0  0  0  0  0  0  0  0
  1  2  1  0
  2  3  1  0
  3  4  2  0
  3  5  1  0
  5  6  2  0
  6  7  1  0
  7  8  1  0
  8  9  1  0
  9 10  2  0
  9 11  1  0
 11 12  2  0
 12 13  1  0
 12 14  1  0
 14 15  2  0
 15 16  1  0
 16 17  2  0
 17 18  1  0
 17 19  1  0
 19 20  2  0
 20 21  1  0
 21 22  2  0
  7 23  2  0
 23 24  1  0
 24 25  2  0
 25 26  1  0
 26 27  2  0
 27 28  1  0
 28 29  2  0
 29  5  1  0
 22 11  1  0
 28 23  1  0
 22 16  1  0
M  END
>  <fragmenstein_outcome>  (349) 
nan

>  <exports>  (349) 
['/opt/xchem-fragalysis-2/maxwin/openbind-hippo/xx01zvns2b/cycle_01/syndirella/elabs/openbind_xx01zvns2b_c1_elab_chemspace_filtered.sdf']

>  <Energy>  (349) 
nan

>  <alias>  (349) 
None

>  <fragmenstein_runtime>  (349) 
nan

>  <scratch_subdir>  (349) 
nan

>  <HIPPO Compound ID>  (349) 
142228

>  <rmsd(smina/fragmenstein)>  (349) 
1.073

>  <distance_score>  (349) 
1.844561

>  <orig_smiles>  (349) 
nan

>  <fragmenstein_mode>  (349) 
nan

>  <inchikey>  (349) 
PXEKSXGNDQJBCV-UHFFFAOYSA-N

>  <ref_pdb>  (349) 
Z0852a

>  <GNINA pK>  (349) 
nan

>  <gnina_score_min>  (349) 
5.731

>  <tags>  (349) 
openbind_xx01zvns2b_c1_elab_nonasap_filtered_scored_top80percent,openbind_xx01zvns2b_c1_elab_chemspace_filtered_scored_top80percent,openbind_xx01zvns2b_c1_elab_chemspace_filtered_scored,openbind_xx01zvns2b_c1_elab_chemspace_filtered_scored_top40percent,openbind_xx01zvns2b_c1_elab_chemspace_filtered_scored_top20percent,openbind_xx01zvns2b_c1_elab_chemspace_filtered_scored_top60percent,openbind_xx01zvns2b_c1_elabs_filtered

>  <smiles>  (349) 
COC(=O)c1cc(NC(=O)c2c(O)cnc3c(F)cccc23)c2ncccc2c1

>  <subsites>  (349) 
1 - Z4590/B/203/1

>  <gnina_score>  (349) 
5.555

>  <HIPPO Pose ID>  (349) 
70299

>  <ref_mols>  (349) 
Z0917a,Z0852a

>  <energy_score>  (349) 
-2.155797

>  <inspiration_score>  (349) 
None

>  <smina_score_min>  (349) 
-6.52

>  <fragmenstein_error>  (349) 
nan

>  <name>  (349) 
P70299

$$$$
P70300
     RDKit          3D

 29 32  0  0  0  0  0  0  0  0999 V2000
   -6.5153    5.0682  -11.4842 C   0  0  0  0  0  0  0  0  0  0  0  0
   -6.9896    4.9423  -12.8249 O   0  0  0  0  0  0  0  0  0  0  0  0
   -6.0209    5.0305  -13.7688 C   0  0  0  0  0  0  0  0  0  0  0  0
   -4.8305    5.2058  -13.5609 O   0  0  0  0  0  0  0  0  0  0  0  0
   -6.6050    4.9143  -15.1292 C   0  0  0  0  0  0  0  0  0  0  0  0
   -5.8038    5.2254  -16.2287 C   0  0  0  0  0  0  0  0  0  0  0  0
   -6.2866    5.0764  -17.5380 C   0  0  0  0  0  0  0  0  0  0  0  0
   -5.3680    5.3349  -18.5572 N   0  0  0  0  0  0  0  0  0  0  0  0
   -5.2568    4.7430  -19.9883 C   0  0  0  0  0  0  0  0  0  0  0  0
   -5.9619    4.0058  -20.5609 O   0  0  0  0  0  0  0  0  0  0  0  0
   -4.0335    5.2249  -20.6838 C   0  0  0  0  0  0  0  0  0  0  0  0
   -4.2174    5.5624  -22.0258 C   0  0  0  0  0  0  0  0  0  0  0  0
   -3.1413    6.0510  -22.7355 C   0  0  0  0  0  0  0  0  0  0  0  0
   -3.2807    6.4068  -24.1845 C   0  0  0  0  0  0  0  0  0  0  0  0
   -1.9331    6.2418  -22.1669 N   0  0  0  0  0  0  0  0  0  0  0  0
   -1.7630    5.9303  -20.8671 C   0  0  0  0  0  0  0  0  0  0  0  0
   -0.5289    6.2319  -20.2978 C   0  0  0  0  0  0  0  0  0  0  0  0
    0.4474    6.8090  -21.0767 O   0  0  0  0  0  0  0  0  0  0  0  0
   -0.2425    6.0129  -18.9598 C   0  0  0  0  0  0  0  0  0  0  0  0
   -1.2069    5.4164  -18.1650 C   0  0  0  0  0  0  0  0  0  0  0  0
   -2.4307    5.0354  -18.7192 C   0  0  0  0  0  0  0  0  0  0  0  0
   -2.7678    5.3703  -20.0607 C   0  0  0  0  0  0  0  0  0  0  0  0
   -7.6112    4.7115  -17.7741 C   0  0  0  0  0  0  0  0  0  0  0  0
   -8.1454    4.7259  -18.9993 N   0  0  0  0  0  0  0  0  0  0  0  0
   -9.4617    4.5136  -19.1500 C   0  0  0  0  0  0  0  0  0  0  0  0
  -10.3026    4.2179  -18.1092 C   0  0  0  0  0  0  0  0  0  0  0  0
   -9.7407    4.1333  -16.8539 C   0  0  0  0  0  0  0  0  0  0  0  0
   -8.4083    4.4342  -16.6537 C   0  0  0  0  0  0  0  0  0  0  0  0
   -7.9131    4.4974  -15.3478 C   0  0  0  0  0  0  0  0  0  0  0  0
  1  2  1  0
  2  3  1  0
  3  4  2  0
  3  5  1  0
  5  6  2  0
  6  7  1  0
  7  8  1  0
  8  9  1  0
  9 10  2  0
  9 11  1  0
 11 12  2  0
 12 13  1  0
 13 14  1  0
 13 15  2  0
 15 16  1  0
 16 17  2  0
 17 18  1  0
 17 19  1  0
 19 20  2  0
 20 21  1  0
 21 22  2  0
  7 23  2  0
 23 24  1  0
 24 25  2  0
 25 26  1  0
 26 27  2  0
 27 28  1  0
 28 29  2  0
 29  5  1  0
 22 11  1  0
 28 23  1  0
 22 16  1  0
M  END
>  <fragmenstein_outcome>  (350) 
nan

>  <exports>  (350) 
['/opt/xchem-fragalysis-2/maxwin/openbind-hippo/xx01zvns2b/cycle_01/syndirella/elabs/openbind_xx01zvns2b_c1_elab_chemspace_filtered.sdf']

>  <Energy>  (350) 
nan

>  <alias>  (350) 
None

>  <fragmenstein_runtime>  (350) 
nan

>  <scratch_subdir>  (350) 
nan

>  <HIPPO Compound ID>  (350) 
142229

>  <rmsd(smina/fragmenstein)>  (350) 
0.913

>  <distance_score>  (350) 
1.499652

>  <orig_smiles>  (350) 
nan

>  <fragmenstein_mode>  (350) 
nan

>  <inchikey>  (350) 
FYKHUKBFVVDBJB-UHFFFAOYSA-N

>  <ref_pdb>  (350) 
Z0852a

>  <GNINA pK>  (350) 
nan

>  <gnina_score_min>  (350) 
5.93

>  <tags>  (350) 
openbind_xx01zvns2b_c1_elab_nonasap_filtered_scored_top80percent,openbind_xx01zvns2b_c1_elab_chemspace_filtered_scored_top80percent,openbind_xx01zvns2b_c1_elab_chemspace_filtered_scored,openbind_xx01zvns2b_c1_elab_chemspace_filtered_scored_top40percent,openbind_xx01zvns2b_c1_elab_chemspace_filtered_scored_top20percent,openbind_xx01zvns2b_c1_elab_chemspace_filtered_scored_top60percent,openbind_xx01zvns2b_c1_elabs_filtered

>  <smiles>  (350) 
COC(=O)c1cc(NC(=O)c2cc(C)nc3c(O)cccc23)c2ncccc2c1

>  <subsites>  (350) 
1 - Z4590/B/203/1

>  <gnina_score>  (350) 
5.735

>  <HIPPO Pose ID>  (350) 
70300

>  <ref_mols>  (350) 
Z0917a,Z0852a

>  <energy_score>  (350) 
-21.495514

>  <inspiration_score>  (350) 
None

>  <smina_score_min>  (350) 
-6.569

>  <fragmenstein_error>  (350) 
nan

>  <name>  (350) 
P70300

$$$$
P70301
     RDKit          3D

 29 32  0  0  0  0  0  0  0  0999 V2000
   -4.1070    5.8897  -22.8954 C   0  0  0  0  0  0  0  0  0  0  0  0
   -3.3581    5.5759  -21.6401 C   0  0  0  0  0  0  0  0  0  0  0  0
   -4.0022    5.0688  -20.5227 C   0  0  0  0  0  0  0  0  0  0  0  0
   -3.3320    5.0624  -19.2833 C   0  0  0  0  0  0  0  0  0  0  0  0
   -4.0485    4.6876  -17.9793 C   0  0  0  0  0  0  0  0  0  0  0  0
   -3.4119    4.3488  -17.0659 O   0  0  0  0  0  0  0  0  0  0  0  0
   -5.5583    4.9361  -18.1023 N   0  0  0  0  0  0  0  0  0  0  0  0
   -6.5809    4.7375  -17.1893 C   0  0  0  0  0  0  0  0  0  0  0  0
   -6.4101    4.9466  -15.8205 C   0  0  0  0  0  0  0  0  0  0  0  0
   -7.5429    5.0581  -15.0034 C   0  0  0  0  0  0  0  0  0  0  0  0
   -7.4716    5.5439  -13.5826 C   0  0  0  0  0  0  0  0  0  0  0  0
   -6.4034    5.0765  -12.8922 F   0  0  0  0  0  0  0  0  0  0  0  0
   -8.5784    5.2229  -12.8535 F   0  0  0  0  0  0  0  0  0  0  0  0
   -7.3972    6.9066  -13.5284 F   0  0  0  0  0  0  0  0  0  0  0  0
   -8.8062    4.8931  -15.5682 C   0  0  0  0  0  0  0  0  0  0  0  0
   -8.9446    4.6637  -16.9300 C   0  0  0  0  0  0  0  0  0  0  0  0
  -10.1857    4.7202  -17.5261 C   0  0  0  0  0  0  0  0  0  0  0  0
  -10.2964    4.6285  -18.8800 C   0  0  0  0  0  0  0  0  0  0  0  0
   -9.1700    4.3490  -19.6005 C   0  0  0  0  0  0  0  0  0  0  0  0
   -7.9372    4.3201  -19.0822 N   0  0  0  0  0  0  0  0  0  0  0  0
   -7.8310    4.5385  -17.7597 C   0  0  0  0  0  0  0  0  0  0  0  0
   -1.9774    5.4992  -19.2417 C   0  0  0  0  0  0  0  0  0  0  0  0
   -1.1637    5.6281  -18.0831 C   0  0  0  0  0  0  0  0  0  0  0  0
    0.1685    6.0567  -18.1434 C   0  0  0  0  0  0  0  0  0  0  0  0
    0.7284    6.3867  -19.3634 C   0  0  0  0  0  0  0  0  0  0  0  0
   -0.0654    6.3003  -20.4956 C   0  0  0  0  0  0  0  0  0  0  0  0
    0.4928    6.6762  -21.6973 O   0  0  0  0  0  0  0  0  0  0  0  0
   -1.3949    5.8808  -20.4659 C   0  0  0  0  0  0  0  0  0  0  0  0
   -2.0649    5.9353  -21.6276 N   0  0  0  0  0  0  0  0  0  0  0  0
  1  2  1  0
  2  3  2  0
  3  4  1  0
  4  5  1  0
  5  6  2  0
  5  7  1  0
  7  8  1  0
  8  9  2  0
  9 10  1  0
 10 11  1  0
 11 12  1  0
 11 13  1  0
 11 14  1  0
 10 15  2  0
 15 16  1  0
 16 17  2  0
 17 18  1  0
 18 19  2  0
 19 20  1  0
 20 21  2  0
  4 22  2  0
 22 23  1  0
 23 24  2  0
 24 25  1  0
 25 26  2  0
 26 27  1  0
 26 28  1  0
 28 29  2  0
 29  2  1  0
 21  8  1  0
 28 22  1  0
 21 16  1  0
M  END
>  <fragmenstein_outcome>  (351) 
nan

>  <exports>  (351) 
['/opt/xchem-fragalysis-2/maxwin/openbind-hippo/xx01zvns2b/cycle_01/syndirella/elabs/openbind_xx01zvns2b_c1_elab_chemspace_filtered.sdf']

>  <Energy>  (351) 
nan

>  <alias>  (351) 
None

>  <fragmenstein_runtime>  (351) 
nan

>  <scratch_subdir>  (351) 
nan

>  <HIPPO Compound ID>  (351) 
142230

>  <rmsd(smina/fragmenstein)>  (351) 
1.795

>  <distance_score>  (351) 
1.830897

>  <orig_smiles>  (351) 
nan

>  <fragmenstein_mode>  (351) 
nan

>  <inchikey>  (351) 
QKYBSYYQIRKTKN-UHFFFAOYSA-N

>  <ref_pdb>  (351) 
Z0852a

>  <GNINA pK>  (351) 
nan

>  <gnina_score_min>  (351) 
5.72

>  <tags>  (351) 
openbind_xx01zvns2b_c1_elab_nonasap_filtered_scored_top80percent,openbind_xx01zvns2b_c1_elab_chemspace_filtered_scored_top80percent,openbind_xx01zvns2b_c1_elab_chemspace_filtered_scored,openbind_xx01zvns2b_c1_elab_chemspace_filtered_scored_top40percent,openbind_xx01zvns2b_c1_elab_chemspace_filtered_scored_top20percent,openbind_xx01zvns2b_c1_elab_chemspace_filtered_scored_top60percent,openbind_xx01zvns2b_c1_elabs_filtered

>  <smiles>  (351) 
Cc1cc(C(=O)Nc2cc(C(F)(F)F)cc3cccnc23)c2cccc(O)c2n1

>  <subsites>  (351) 
1 - Z4590/B/203/1

>  <gnina_score>  (351) 
5.864

>  <HIPPO Pose ID>  (351) 
70301

>  <ref_mols>  (351) 
Z0917a,Z0852a

>  <energy_score>  (351) 
-24.437192

>  <inspiration_score>  (351) 
None

>  <smina_score_min>  (351) 
-6.963

>  <fragmenstein_error>  (351) 
nan

>  <name>  (351) 
P70301

$$$$
P70302
     RDKit          3D

 29 32  0  0  0  0  0  0  0  0999 V2000
   -3.2257    6.4254  -23.9576 C   0  0  0  0  0  0  0  0  0  0  0  0
   -3.1455    6.0704  -22.5042 C   0  0  0  0  0  0  0  0  0  0  0  0
   -4.2383    5.5436  -21.8496 C   0  0  0  0  0  0  0  0  0  0  0  0
   -4.1133    5.1991  -20.4999 C   0  0  0  0  0  0  0  0  0  0  0  0
   -5.3522    4.6480  -19.8880 C   0  0  0  0  0  0  0  0  0  0  0  0
   -5.9630    3.8827  -20.5310 O   0  0  0  0  0  0  0  0  0  0  0  0
   -5.5850    5.1581  -18.4360 N   0  0  0  0  0  0  0  0  0  0  0  0
   -6.6347    4.9111  -17.5429 C   0  0  0  0  0  0  0  0  0  0  0  0
   -6.3936    5.1632  -16.1815 C   0  0  0  0  0  0  0  0  0  0  0  0
   -7.3930    4.9890  -15.2023 C   0  0  0  0  0  0  0  0  0  0  0  0
   -7.2011    5.4603  -13.7628 C   0  0  0  0  0  0  0  0  0  0  0  0
   -8.4413    5.2930  -12.8558 C   0  0  0  0  0  0  0  0  0  0  0  0
   -6.0408    4.7081  -13.1048 C   0  0  0  0  0  0  0  0  0  0  0  0
   -6.8937    6.9600  -13.8144 C   0  0  0  0  0  0  0  0  0  0  0  0
   -8.6140    4.4882  -15.6196 C   0  0  0  0  0  0  0  0  0  0  0  0
   -8.8789    4.3577  -16.9704 C   0  0  0  0  0  0  0  0  0  0  0  0
  -10.1889    4.1864  -17.3410 C   0  0  0  0  0  0  0  0  0  0  0  0
  -10.5693    4.4376  -18.6196 C   0  0  0  0  0  0  0  0  0  0  0  0
   -9.5694    4.5470  -19.5409 C   0  0  0  0  0  0  0  0  0  0  0  0
   -8.2649    4.5421  -19.2412 N   0  0  0  0  0  0  0  0  0  0  0  0
   -7.9103    4.5544  -17.9584 C   0  0  0  0  0  0  0  0  0  0  0  0
   -2.8833    5.3723  -19.8192 C   0  0  0  0  0  0  0  0  0  0  0  0
   -2.5937    5.0138  -18.4732 C   0  0  0  0  0  0  0  0  0  0  0  0
   -1.4097    5.4200  -17.8550 C   0  0  0  0  0  0  0  0  0  0  0  0
   -0.4322    6.0674  -18.5922 C   0  0  0  0  0  0  0  0  0  0  0  0
   -0.6642    6.3045  -19.9382 C   0  0  0  0  0  0  0  0  0  0  0  0
    0.3310    6.9207  -20.6613 O   0  0  0  0  0  0  0  0  0  0  0  0
   -1.8602    5.9765  -20.5707 C   0  0  0  0  0  0  0  0  0  0  0  0
   -1.9751    6.2986  -21.8746 N   0  0  0  0  0  0  0  0  0  0  0  0
  1  2  1  0
  2  3  2  0
  3  4  1  0
  4  5  1  0
  5  6  2  0
  5  7  1  0
  7  8  1  0
  8  9  2  0
  9 10  1  0
 10 11  1  0
 11 12  1  0
 11 13  1  0
 11 14  1  0
 10 15  2  0
 15 16  1  0
 16 17  2  0
 17 18  1  0
 18 19  2  0
 19 20  1  0
 20 21  2  0
  4 22  2  0
 22 23  1  0
 23 24  2  0
 24 25  1  0
 25 26  2  0
 26 27  1  0
 26 28  1  0
 28 29  2  0
 29  2  1  0
 21  8  1  0
 28 22  1  0
 21 16  1  0
M  END
>  <fragmenstein_outcome>  (352) 
nan

>  <exports>  (352) 
['/opt/xchem-fragalysis-2/maxwin/openbind-hippo/xx01zvns2b/cycle_01/syndirella/elabs/openbind_xx01zvns2b_c1_elab_chemspace_filtered.sdf']

>  <Energy>  (352) 
nan

>  <alias>  (352) 
None

>  <fragmenstein_runtime>  (352) 
nan

>  <scratch_subdir>  (352) 
nan

>  <HIPPO Compound ID>  (352) 
142231

>  <rmsd(smina/fragmenstein)>  (352) 
1.429

>  <distance_score>  (352) 
1.36191

>  <orig_smiles>  (352) 
nan

>  <fragmenstein_mode>  (352) 
nan

>  <inchikey>  (352) 
SSBOKOOMABKXOS-UHFFFAOYSA-N

>  <ref_pdb>  (352) 
Z0852a

>  <GNINA pK>  (352) 
nan

>  <gnina_score_min>  (352) 
6.393

>  <tags>  (352) 
openbind_xx01zvns2b_c1_elab_nonasap_filtered_scored_top80percent,openbind_xx01zvns2b_c1_elab_chemspace_filtered_scored_top80percent,openbind_xx01zvns2b_c1_elab_chemspace_filtered_scored,openbind_xx01zvns2b_c1_elab_chemspace_filtered_scored_top40percent,openbind_xx01zvns2b_c1_elab_chemspace_filtered_scored_top20percent,openbind_xx01zvns2b_c1_elab_chemspace_filtered_scored_top60percent,openbind_xx01zvns2b_c1_elabs_filtered

>  <smiles>  (352) 
Cc1cc(C(=O)Nc2cc(C(C)(C)C)cc3cccnc23)c2cccc(O)c2n1

>  <subsites>  (352) 
1 - Z4590/B/203/1

>  <gnina_score>  (352) 
5.772

>  <HIPPO Pose ID>  (352) 
70302

>  <ref_mols>  (352) 
Z0917a,Z0852a

>  <energy_score>  (352) 
-15.7897

>  <inspiration_score>  (352) 
None

>  <smina_score_min>  (352) 
-6.827

>  <fragmenstein_error>  (352) 
nan

>  <name>  (352) 
P70302

$$$$
P70303
     RDKit          3D

 29 32  0  0  0  0  0  0  0  0999 V2000
   -6.0709    3.9381  -20.4263 O   0  0  0  0  0  0  0  0  0  0  0  0
   -5.4033    4.6805  -19.8122 C   0  0  0  0  0  0  0  0  0  0  0  0
   -5.6343    5.3250  -18.4080 N   0  0  0  0  0  0  0  0  0  0  0  0
   -6.6541    5.1176  -17.4682 C   0  0  0  0  0  0  0  0  0  0  0  0
   -6.4260    5.4598  -16.1231 C   0  0  0  0  0  0  0  0  0  0  0  0
   -7.4187    5.2423  -15.1481 C   0  0  0  0  0  0  0  0  0  0  0  0
   -7.3073    5.7481  -13.7356 C   0  0  0  0  0  0  0  0  0  0  0  0
   -6.2229    5.2677  -13.0785 F   0  0  0  0  0  0  0  0  0  0  0  0
   -7.2097    7.1080  -13.6956 F   0  0  0  0  0  0  0  0  0  0  0  0
   -8.3914    5.4487  -12.9626 F   0  0  0  0  0  0  0  0  0  0  0  0
   -8.6050    4.6325  -15.5245 C   0  0  0  0  0  0  0  0  0  0  0  0
   -8.8638    4.4375  -16.8670 C   0  0  0  0  0  0  0  0  0  0  0  0
  -10.1549    4.1581  -17.2336 C   0  0  0  0  0  0  0  0  0  0  0  0
  -10.5594    4.3581  -18.5171 C   0  0  0  0  0  0  0  0  0  0  0  0
   -9.5777    4.5465  -19.4451 C   0  0  0  0  0  0  0  0  0  0  0  0
   -8.2778    4.6363  -19.1410 N   0  0  0  0  0  0  0  0  0  0  0  0
   -7.9149    4.6772  -17.8616 C   0  0  0  0  0  0  0  0  0  0  0  0
   -4.1113    5.1627  -20.3914 C   0  0  0  0  0  0  0  0  0  0  0  0
   -4.2014    5.4007  -21.7117 C   0  0  0  0  0  0  0  0  0  0  0  0
   -3.0351    5.8099  -22.5091 C   0  0  0  0  0  0  0  0  0  0  0  0
   -3.1330    6.0103  -23.7145 O   0  0  0  0  0  0  0  0  0  0  0  0
   -1.8662    5.9831  -21.8294 N   0  0  0  0  0  0  0  0  0  0  0  0
   -1.7271    5.7811  -20.4518 C   0  0  0  0  0  0  0  0  0  0  0  0
   -0.4929    6.0531  -19.8611 C   0  0  0  0  0  0  0  0  0  0  0  0
   -0.3577    5.8947  -18.4925 C   0  0  0  0  0  0  0  0  0  0  0  0
    0.8074    6.1883  -17.9014 F   0  0  0  0  0  0  0  0  0  0  0  0
   -1.4115    5.4169  -17.7251 C   0  0  0  0  0  0  0  0  0  0  0  0
   -2.6203    5.0689  -18.3337 C   0  0  0  0  0  0  0  0  0  0  0  0
   -2.8240    5.3245  -19.6957 C   0  0  0  0  0  0  0  0  0  0  0  0
  1  2  2  0
  2  3  1  0
  3  4  1  0
  4  5  2  0
  5  6  1  0
  6  7  1  0
  7  8  1  0
  7  9  1  0
  7 10  1  0
  6 11  2  0
 11 12  1  0
 12 13  2  0
 13 14  1  0
 14 15  2  0
 15 16  1  0
 16 17  2  0
  2 18  1  0
 18 19  2  0
 19 20  1  0
 20 21  2  0
 20 22  1  0
 22 23  1  0
 23 24  2  0
 24 25  1  0
 25 26  1  0
 25 27  2  0
 27 28  1  0
 28 29  2  0
 17  4  1  0
 29 18  1  0
 17 12  1  0
 29 23  1  0
M  END
>  <fragmenstein_outcome>  (353) 
nan

>  <exports>  (353) 
['/opt/xchem-fragalysis-2/maxwin/openbind-hippo/xx01zvns2b/cycle_01/syndirella/elabs/openbind_xx01zvns2b_c1_elab_chemspace_filtered.sdf']

>  <Energy>  (353) 
nan

>  <alias>  (353) 
None

>  <fragmenstein_runtime>  (353) 
nan

>  <scratch_subdir>  (353) 
nan

>  <HIPPO Compound ID>  (353) 
142232

>  <rmsd(smina/fragmenstein)>  (353) 
1.484

>  <distance_score>  (353) 
1.028242

>  <orig_smiles>  (353) 
nan

>  <fragmenstein_mode>  (353) 
nan

>  <inchikey>  (353) 
NUBXVFNBJBOLML-UHFFFAOYSA-N

>  <ref_pdb>  (353) 
Z0852a

>  <GNINA pK>  (353) 
nan

>  <gnina_score_min>  (353) 
5.896

>  <tags>  (353) 
openbind_xx01zvns2b_c1_elab_nonasap_filtered_scored_top80percent,openbind_xx01zvns2b_c1_elab_chemspace_filtered_scored_top80percent,openbind_xx01zvns2b_c1_elab_chemspace_filtered_scored,openbind_xx01zvns2b_c1_elab_chemspace_filtered_scored_top40percent,openbind_xx01zvns2b_c1_elab_chemspace_filtered_scored_top20percent,openbind_xx01zvns2b_c1_elab_chemspace_filtered_scored_top60percent,openbind_xx01zvns2b_c1_elabs_filtered

>  <smiles>  (353) 
O=C(Nc1cc(C(F)(F)F)cc2cccnc12)c1cc(=O)[nH]c2cc(F)ccc12

>  <subsites>  (353) 
1 - Z4590/B/203/1

>  <gnina_score>  (353) 
5.511

>  <HIPPO Pose ID>  (353) 
70303

>  <ref_mols>  (353) 
Z0917a,Z0852a

>  <energy_score>  (353) 
-4.095283

>  <inspiration_score>  (353) 
None

>  <smina_score_min>  (353) 
-6.481

>  <fragmenstein_error>  (353) 
nan

>  <name>  (353) 
P70303

$$$$
P70304
     RDKit          3D

 29 32  0  0  0  0  0  0  0  0999 V2000
   -7.5272    5.2920  -11.6824 C   0  0  0  0  0  0  0  0  0  0  0  0
   -7.8889    5.1700  -13.0585 O   0  0  0  0  0  0  0  0  0  0  0  0
   -6.8417    5.2292  -13.9169 C   0  0  0  0  0  0  0  0  0  0  0  0
   -5.6764    5.4413  -13.6195 O   0  0  0  0  0  0  0  0  0  0  0  0
   -7.2979    5.0102  -15.3129 C   0  0  0  0  0  0  0  0  0  0  0  0
   -6.3600    5.0625  -16.3441 C   0  0  0  0  0  0  0  0  0  0  0  0
   -6.7363    4.8096  -17.6754 C   0  0  0  0  0  0  0  0  0  0  0  0
   -5.7673    5.0346  -18.6446 N   0  0  0  0  0  0  0  0  0  0  0  0
   -5.6302    4.4626  -20.1005 C   0  0  0  0  0  0  0  0  0  0  0  0
   -6.3553    3.7799  -20.7205 O   0  0  0  0  0  0  0  0  0  0  0  0
   -4.2905    4.8630  -20.5877 C   0  0  0  0  0  0  0  0  0  0  0  0
   -4.2284    5.2831  -21.8581 C   0  0  0  0  0  0  0  0  0  0  0  0
   -2.9679    5.8189  -22.4073 C   0  0  0  0  0  0  0  0  0  0  0  0
   -2.8802    6.1326  -23.5886 O   0  0  0  0  0  0  0  0  0  0  0  0
   -1.9550    6.0115  -21.5095 N   0  0  0  0  0  0  0  0  0  0  0  0
   -2.0292    5.6183  -20.1665 C   0  0  0  0  0  0  0  0  0  0  0  0
   -1.0439    5.9599  -19.2625 C   0  0  0  0  0  0  0  0  0  0  0  0
   -0.0280    6.6962  -19.6796 F   0  0  0  0  0  0  0  0  0  0  0  0
   -1.1103    5.6457  -17.9133 C   0  0  0  0  0  0  0  0  0  0  0  0
   -2.1582    4.8657  -17.4685 C   0  0  0  0  0  0  0  0  0  0  0  0
   -3.1052    4.4261  -18.3848 C   0  0  0  0  0  0  0  0  0  0  0  0
   -3.1195    4.9160  -19.7054 C   0  0  0  0  0  0  0  0  0  0  0  0
   -8.0342    4.5089  -17.9984 C   0  0  0  0  0  0  0  0  0  0  0  0
   -8.3706    4.3197  -19.2640 N   0  0  0  0  0  0  0  0  0  0  0  0
   -9.6391    4.4580  -19.6163 C   0  0  0  0  0  0  0  0  0  0  0  0
  -10.6350    4.7119  -18.7291 C   0  0  0  0  0  0  0  0  0  0  0  0
  -10.2835    4.7889  -17.4147 C   0  0  0  0  0  0  0  0  0  0  0  0
   -8.9816    4.6453  -16.9904 C   0  0  0  0  0  0  0  0  0  0  0  0
   -8.6324    4.8264  -15.6468 C   0  0  0  0  0  0  0  0  0  0  0  0
  1  2  1  0
  2  3  1  0
  3  4  2  0
  3  5  1  0
  5  6  2  0
  6  7  1  0
  7  8  1  0
  8  9  1  0
  9 10  2  0
  9 11  1  0
 11 12  2  0
 12 13  1  0
 13 14  2  0
 13 15  1  0
 15 16  1  0
 16 17  2  0
 17 18  1  0
 17 19  1  0
 19 20  2  0
 20 21  1  0
 21 22  2  0
  7 23  2  0
 23 24  1  0
 24 25  2  0
 25 26  1  0
 26 27  2  0
 27 28  1  0
 28 29  2  0
 29  5  1  0
 22 11  1  0
 28 23  1  0
 22 16  1  0
M  END
>  <fragmenstein_outcome>  (354) 
nan

>  <exports>  (354) 
['/opt/xchem-fragalysis-2/maxwin/openbind-hippo/xx01zvns2b/cycle_01/syndirella/elabs/openbind_xx01zvns2b_c1_elab_chemspace_filtered.sdf']

>  <Energy>  (354) 
nan

>  <alias>  (354) 
None

>  <fragmenstein_runtime>  (354) 
nan

>  <scratch_subdir>  (354) 
nan

>  <HIPPO Compound ID>  (354) 
142233

>  <rmsd(smina/fragmenstein)>  (354) 
1.817

>  <distance_score>  (354) 
1.540199

>  <orig_smiles>  (354) 
nan

>  <fragmenstein_mode>  (354) 
nan

>  <inchikey>  (354) 
XZFPVOHSXXFFNT-UHFFFAOYSA-N

>  <ref_pdb>  (354) 
Z0852a

>  <GNINA pK>  (354) 
nan

>  <gnina_score_min>  (354) 
6.017

>  <tags>  (354) 
openbind_xx01zvns2b_c1_elab_nonasap_filtered_scored_top80percent,openbind_xx01zvns2b_c1_elab_chemspace_filtered_scored_top80percent,openbind_xx01zvns2b_c1_elab_chemspace_filtered_scored,openbind_xx01zvns2b_c1_elab_chemspace_filtered_scored_top40percent,openbind_xx01zvns2b_c1_elab_chemspace_filtered_scored_top20percent,openbind_xx01zvns2b_c1_elab_chemspace_filtered_scored_top60percent,openbind_xx01zvns2b_c1_elabs_filtered

>  <smiles>  (354) 
COC(=O)c1cc(NC(=O)c2cc(=O)[nH]c3c(F)cccc23)c2ncccc2c1

>  <subsites>  (354) 
1 - Z4590/B/203/1

>  <gnina_score>  (354) 
5.671

>  <HIPPO Pose ID>  (354) 
70304

>  <ref_mols>  (354) 
Z0917a,Z0852a

>  <energy_score>  (354) 
-2.567536

>  <inspiration_score>  (354) 
None

>  <smina_score_min>  (354) 
-6.893

>  <fragmenstein_error>  (354) 
nan

>  <name>  (354) 
P70304

$$$$
P70305
     RDKit          3D

 29 32  0  0  0  0  0  0  0  0999 V2000
   -8.5109    5.2932  -12.8921 C   0  0  0  0  0  0  0  0  0  0  0  0
   -7.3087    5.4116  -13.8518 C   0  0  0  0  0  0  0  0  0  0  0  0
   -6.9014    6.8892  -13.8608 C   0  0  0  0  0  0  0  0  0  0  0  0
   -6.1672    4.5636  -13.2830 C   0  0  0  0  0  0  0  0  0  0  0  0
   -7.6074    4.9980  -15.2914 C   0  0  0  0  0  0  0  0  0  0  0  0
   -6.6842    5.2265  -16.3260 C   0  0  0  0  0  0  0  0  0  0  0  0
   -7.0270    5.0110  -17.6676 C   0  0  0  0  0  0  0  0  0  0  0  0
   -6.0550    5.2053  -18.6330 N   0  0  0  0  0  0  0  0  0  0  0  0
   -5.8758    4.5444  -20.0438 C   0  0  0  0  0  0  0  0  0  0  0  0
   -6.5668    3.7971  -20.6262 O   0  0  0  0  0  0  0  0  0  0  0  0
   -4.5464    4.9534  -20.5444 C   0  0  0  0  0  0  0  0  0  0  0  0
   -4.4714    5.3580  -21.8186 C   0  0  0  0  0  0  0  0  0  0  0  0
   -3.1872    5.8280  -22.3771 C   0  0  0  0  0  0  0  0  0  0  0  0
   -3.0945    6.1413  -23.5584 O   0  0  0  0  0  0  0  0  0  0  0  0
   -2.1495    5.9471  -21.4941 N   0  0  0  0  0  0  0  0  0  0  0  0
   -2.2309    5.5585  -20.1501 C   0  0  0  0  0  0  0  0  0  0  0  0
   -1.1986    5.8036  -19.2672 C   0  0  0  0  0  0  0  0  0  0  0  0
   -0.1209    6.4340  -19.7041 F   0  0  0  0  0  0  0  0  0  0  0  0
   -1.2649    5.4832  -17.9192 C   0  0  0  0  0  0  0  0  0  0  0  0
   -2.3630    4.7859  -17.4552 C   0  0  0  0  0  0  0  0  0  0  0  0
   -3.3727    4.4544  -18.3487 C   0  0  0  0  0  0  0  0  0  0  0  0
   -3.3686    4.9483  -19.6693 C   0  0  0  0  0  0  0  0  0  0  0  0
   -8.3004    4.6537  -18.0090 C   0  0  0  0  0  0  0  0  0  0  0  0
   -8.6863    4.7428  -19.2694 N   0  0  0  0  0  0  0  0  0  0  0  0
   -9.9847    4.7525  -19.5296 C   0  0  0  0  0  0  0  0  0  0  0  0
  -10.9330    4.4805  -18.5930 C   0  0  0  0  0  0  0  0  0  0  0  0
  -10.4952    4.1398  -17.3518 C   0  0  0  0  0  0  0  0  0  0  0  0
   -9.1932    4.3715  -16.9905 C   0  0  0  0  0  0  0  0  0  0  0  0
   -8.8392    4.4675  -15.6492 C   0  0  0  0  0  0  0  0  0  0  0  0
  1  2  1  0
  2  3  1  0
  2  4  1  0
  2  5  1  0
  5  6  2  0
  6  7  1  0
  7  8  1  0
  8  9  1  0
  9 10  2  0
  9 11  1  0
 11 12  2  0
 12 13  1  0
 13 14  2  0
 13 15  1  0
 15 16  1  0
 16 17  2  0
 17 18  1  0
 17 19  1  0
 19 20  2  0
 20 21  1  0
 21 22  2  0
  7 23  2  0
 23 24  1  0
 24 25  2  0
 25 26  1  0
 26 27  2  0
 27 28  1  0
 28 29  2  0
 29  5  1  0
 22 11  1  0
 28 23  1  0
 22 16  1  0
M  END
>  <fragmenstein_outcome>  (355) 
nan

>  <exports>  (355) 
['/opt/xchem-fragalysis-2/maxwin/openbind-hippo/xx01zvns2b/cycle_01/syndirella/elabs/openbind_xx01zvns2b_c1_elab_chemspace_filtered.sdf']

>  <Energy>  (355) 
nan

>  <alias>  (355) 
None

>  <fragmenstein_runtime>  (355) 
nan

>  <scratch_subdir>  (355) 
nan

>  <HIPPO Compound ID>  (355) 
142235

>  <rmsd(smina/fragmenstein)>  (355) 
1.655

>  <distance_score>  (355) 
1.453106

>  <orig_smiles>  (355) 
nan

>  <fragmenstein_mode>  (355) 
nan

>  <inchikey>  (355) 
APZAAYDPLFYNOM-UHFFFAOYSA-N

>  <ref_pdb>  (355) 
Z0852a

>  <GNINA pK>  (355) 
nan

>  <gnina_score_min>  (355) 
6.33

>  <tags>  (355) 
openbind_xx01zvns2b_c1_elab_nonasap_filtered_scored_top80percent,openbind_xx01zvns2b_c1_elab_chemspace_filtered_scored_top80percent,openbind_xx01zvns2b_c1_elab_chemspace_filtered_scored,openbind_xx01zvns2b_c1_elab_chemspace_filtered_scored_top40percent,openbind_xx01zvns2b_c1_elab_chemspace_filtered_scored_top20percent,openbind_xx01zvns2b_c1_elab_chemspace_filtered_scored_top60percent,openbind_xx01zvns2b_c1_elabs_filtered

>  <smiles>  (355) 
CC(C)(C)c1cc(NC(=O)c2cc(=O)[nH]c3c(F)cccc23)c2ncccc2c1

>  <subsites>  (355) 
1 - Z4590/B/203/1

>  <gnina_score>  (355) 
5.914

>  <HIPPO Pose ID>  (355) 
70305

>  <ref_mols>  (355) 
Z0917a,Z0852a

>  <energy_score>  (355) 
-15.843143

>  <inspiration_score>  (355) 
None

>  <smina_score_min>  (355) 
-6.551

>  <fragmenstein_error>  (355) 
nan

>  <name>  (355) 
P70305

$$$$
P70306
     RDKit          3D

 29 32  0  0  0  0  0  0  0  0999 V2000
    0.9084    6.2959  -17.7517 C   0  0  0  0  0  0  0  0  0  0  0  0
   -0.3830    5.9784  -18.4527 C   0  0  0  0  0  0  0  0  0  0  0  0
   -1.4332    5.4205  -17.7286 C   0  0  0  0  0  0  0  0  0  0  0  0
   -2.6199    5.0698  -18.3649 C   0  0  0  0  0  0  0  0  0  0  0  0
   -2.8456    5.3872  -19.7252 C   0  0  0  0  0  0  0  0  0  0  0  0
   -4.0811    5.2230  -20.3961 C   0  0  0  0  0  0  0  0  0  0  0  0
   -5.3282    4.7252  -19.7609 C   0  0  0  0  0  0  0  0  0  0  0  0
   -5.9658    3.9675  -20.3874 O   0  0  0  0  0  0  0  0  0  0  0  0
   -5.5990    5.3596  -18.3625 N   0  0  0  0  0  0  0  0  0  0  0  0
   -6.6291    5.1246  -17.4404 C   0  0  0  0  0  0  0  0  0  0  0  0
   -6.4192    5.4694  -16.0926 C   0  0  0  0  0  0  0  0  0  0  0  0
   -7.4201    5.2480  -15.1284 C   0  0  0  0  0  0  0  0  0  0  0  0
   -7.3217    5.7532  -13.7151 C   0  0  0  0  0  0  0  0  0  0  0  0
   -6.2415    5.2745  -13.0499 F   0  0  0  0  0  0  0  0  0  0  0  0
   -7.2266    7.1132  -13.6740 F   0  0  0  0  0  0  0  0  0  0  0  0
   -8.4114    5.4512  -12.9515 F   0  0  0  0  0  0  0  0  0  0  0  0
   -8.6006    4.6367  -15.5179 C   0  0  0  0  0  0  0  0  0  0  0  0
   -8.8427    4.4370  -16.8630 C   0  0  0  0  0  0  0  0  0  0  0  0
  -10.1319    4.1613  -17.2386 C   0  0  0  0  0  0  0  0  0  0  0  0
  -10.5214    4.3503  -18.5280 C   0  0  0  0  0  0  0  0  0  0  0  0
   -9.5290    4.5185  -19.4490 C   0  0  0  0  0  0  0  0  0  0  0  0
   -8.2312    4.6123  -19.1340 N   0  0  0  0  0  0  0  0  0  0  0  0
   -7.8818    4.6709  -17.8498 C   0  0  0  0  0  0  0  0  0  0  0  0
   -4.2036    5.5038  -21.7574 C   0  0  0  0  0  0  0  0  0  0  0  0
   -3.0947    5.9529  -22.4194 C   0  0  0  0  0  0  0  0  0  0  0  0
   -1.9199    6.1753  -21.8071 N   0  0  0  0  0  0  0  0  0  0  0  0
   -1.7791    5.9139  -20.4864 C   0  0  0  0  0  0  0  0  0  0  0  0
   -0.5634    6.1921  -19.8321 C   0  0  0  0  0  0  0  0  0  0  0  0
    0.7560    6.8677  -20.7544 Cl  0  0  0  0  0  0  0  0  0  0  0  0
  1  2  1  0
  2  3  2  0
  3  4  1  0
  4  5  2  0
  5  6  1  0
  6  7  1  0
  7  8  2  0
  7  9  1  0
  9 10  1  0
 10 11  2  0
 11 12  1  0
 12 13  1  0
 13 14  1  0
 13 15  1  0
 13 16  1  0
 12 17  2  0
 17 18  1  0
 18 19  2  0
 19 20  1  0
 20 21  2  0
 21 22  1  0
 22 23  2  0
  6 24  2  0
 24 25  1  0
 25 26  2  0
 26 27  1  0
 27 28  2  0
 28 29  1  0
 28  2  1  0
 27  5  1  0
 23 10  1  0
 23 18  1  0
M  END
>  <fragmenstein_outcome>  (356) 
nan

>  <exports>  (356) 
['/opt/xchem-fragalysis-2/maxwin/openbind-hippo/xx01zvns2b/cycle_01/syndirella/elabs/openbind_xx01zvns2b_c1_elab_chemspace_filtered.sdf']

>  <Energy>  (356) 
nan

>  <alias>  (356) 
None

>  <fragmenstein_runtime>  (356) 
nan

>  <scratch_subdir>  (356) 
nan

>  <HIPPO Compound ID>  (356) 
142236

>  <rmsd(smina/fragmenstein)>  (356) 
1.169

>  <distance_score>  (356) 
1.055946

>  <orig_smiles>  (356) 
nan

>  <fragmenstein_mode>  (356) 
nan

>  <inchikey>  (356) 
MEVRLTMZVHMJDE-UHFFFAOYSA-N

>  <ref_pdb>  (356) 
Z0852a

>  <GNINA pK>  (356) 
nan

>  <gnina_score_min>  (356) 
6.098

>  <tags>  (356) 
openbind_xx01zvns2b_c1_elab_nonasap_filtered_scored_top80percent,openbind_xx01zvns2b_c1_elab_chemspace_filtered_scored_top80percent,openbind_xx01zvns2b_c1_elab_chemspace_filtered_scored,openbind_xx01zvns2b_c1_elab_chemspace_filtered_scored_top40percent,openbind_xx01zvns2b_c1_elab_chemspace_filtered_scored_top20percent,openbind_xx01zvns2b_c1_elab_chemspace_filtered_scored_top60percent,openbind_xx01zvns2b_c1_elabs_filtered

>  <smiles>  (356) 
Cc1ccc2c(C(=O)Nc3cc(C(F)(F)F)cc4cccnc34)ccnc2c1Cl

>  <subsites>  (356) 
1 - Z4590/B/203/1

>  <gnina_score>  (356) 
5.713

>  <HIPPO Pose ID>  (356) 
70306

>  <ref_mols>  (356) 
Z0917a,Z0852a

>  <energy_score>  (356) 
-2.570296

>  <inspiration_score>  (356) 
None

>  <smina_score_min>  (356) 
-6.708

>  <fragmenstein_error>  (356) 
nan

>  <name>  (356) 
P70306

$$$$
P70307
     RDKit          3D

 29 32  0  0  0  0  0  0  0  0999 V2000
   -6.6794    5.2574  -11.4055 C   0  0  0  0  0  0  0  0  0  0  0  0
   -7.1170    5.0952  -12.7549 O   0  0  0  0  0  0  0  0  0  0  0  0
   -6.1626    5.3446  -13.6840 C   0  0  0  0  0  0  0  0  0  0  0  0
   -5.0202    5.7120  -13.4589 O   0  0  0  0  0  0  0  0  0  0  0  0
   -6.6994    5.1377  -15.0543 C   0  0  0  0  0  0  0  0  0  0  0  0
   -5.8893    5.4601  -16.1443 C   0  0  0  0  0  0  0  0  0  0  0  0
   -6.3300    5.2387  -17.4575 C   0  0  0  0  0  0  0  0  0  0  0  0
   -5.3935    5.4690  -18.4652 N   0  0  0  0  0  0  0  0  0  0  0  0
   -5.2248    4.8021  -19.8545 C   0  0  0  0  0  0  0  0  0  0  0  0
   -5.8901    4.0113  -20.4015 O   0  0  0  0  0  0  0  0  0  0  0  0
   -3.9711    5.2309  -20.5323 C   0  0  0  0  0  0  0  0  0  0  0  0
   -4.1059    5.4252  -21.9055 C   0  0  0  0  0  0  0  0  0  0  0  0
   -2.9945    5.8030  -22.6085 C   0  0  0  0  0  0  0  0  0  0  0  0
   -1.8052    6.0404  -22.0293 N   0  0  0  0  0  0  0  0  0  0  0  0
   -1.6619    5.8731  -20.7024 C   0  0  0  0  0  0  0  0  0  0  0  0
   -0.4289    6.2003  -20.1213 C   0  0  0  0  0  0  0  0  0  0  0  0
    0.7126    6.6646  -20.9898 C   0  0  0  0  0  0  0  0  0  0  0  0
   -0.2538    6.1672  -18.7309 C   0  0  0  0  0  0  0  0  0  0  0  0
   -1.2794    5.7080  -17.9246 C   0  0  0  0  0  0  0  0  0  0  0  0
   -1.1161    5.8099  -16.0415 Br  0  0  0  0  0  0  0  0  0  0  0  0
   -2.4603    5.2439  -18.4958 C   0  0  0  0  0  0  0  0  0  0  0  0
   -2.7204    5.4253  -19.8818 C   0  0  0  0  0  0  0  0  0  0  0  0
   -7.6274    4.7997  -17.7142 C   0  0  0  0  0  0  0  0  0  0  0  0
   -8.1318    4.7610  -18.9525 N   0  0  0  0  0  0  0  0  0  0  0  0
   -9.4324    4.4852  -19.1278 C   0  0  0  0  0  0  0  0  0  0  0  0
  -10.2799    4.1694  -18.0981 C   0  0  0  0  0  0  0  0  0  0  0  0
   -9.7416    4.1304  -16.8301 C   0  0  0  0  0  0  0  0  0  0  0  0
   -8.4328    4.5056  -16.6059 C   0  0  0  0  0  0  0  0  0  0  0  0
   -7.9728    4.6309  -15.2915 C   0  0  0  0  0  0  0  0  0  0  0  0
  1  2  1  0
  2  3  1  0
  3  4  2  0
  3  5  1  0
  5  6  2  0
  6  7  1  0
  7  8  1  0
  8  9  1  0
  9 10  2  0
  9 11  1  0
 11 12  2  0
 12 13  1  0
 13 14  2  0
 14 15  1  0
 15 16  2  0
 16 17  1  0
 16 18  1  0
 18 19  2  0
 19 20  1  0
 19 21  1  0
 21 22  2  0
  7 23  2  0
 23 24  1  0
 24 25  2  0
 25 26  1  0
 26 27  2  0
 27 28  1  0
 28 29  2  0
 29  5  1  0
 22 11  1  0
 28 23  1  0
 22 15  1  0
M  END
>  <fragmenstein_outcome>  (357) 
nan

>  <exports>  (357) 
['/opt/xchem-fragalysis-2/maxwin/openbind-hippo/xx01zvns2b/cycle_01/syndirella/elabs/openbind_xx01zvns2b_c1_elab_chemspace_filtered.sdf']

>  <Energy>  (357) 
nan

>  <alias>  (357) 
None

>  <fragmenstein_runtime>  (357) 
nan

>  <scratch_subdir>  (357) 
nan

>  <HIPPO Compound ID>  (357) 
142238

>  <rmsd(smina/fragmenstein)>  (357) 
2.04

>  <distance_score>  (357) 
1.61553

>  <orig_smiles>  (357) 
nan

>  <fragmenstein_mode>  (357) 
nan

>  <inchikey>  (357) 
QOUGQQTVIGFKJO-UHFFFAOYSA-N

>  <ref_pdb>  (357) 
Z0852a

>  <GNINA pK>  (357) 
nan

>  <gnina_score_min>  (357) 
5.847

>  <tags>  (357) 
openbind_xx01zvns2b_c1_elab_nonasap_filtered_scored_top80percent,openbind_xx01zvns2b_c1_elab_chemspace_filtered_scored_top80percent,openbind_xx01zvns2b_c1_elab_chemspace_filtered_scored,openbind_xx01zvns2b_c1_elab_chemspace_filtered_scored_top40percent,openbind_xx01zvns2b_c1_elab_chemspace_filtered_scored_top20percent,openbind_xx01zvns2b_c1_elab_chemspace_filtered_scored_top60percent,openbind_xx01zvns2b_c1_elabs_filtered

>  <smiles>  (357) 
COC(=O)c1cc(NC(=O)c2ccnc3c(C)cc(Br)cc23)c2ncccc2c1

>  <subsites>  (357) 
1 - Z4590/B/203/1

>  <gnina_score>  (357) 
6.084

>  <HIPPO Pose ID>  (357) 
70307

>  <ref_mols>  (357) 
Z0917a,Z0852a

>  <energy_score>  (357) 
-10.909453

>  <inspiration_score>  (357) 
None

>  <smina_score_min>  (357) 
-6.214

>  <fragmenstein_error>  (357) 
nan

>  <name>  (357) 
P70307

$$$$
P70308
     RDKit          3D

 29 32  0  0  0  0  0  0  0  0999 V2000
   -6.5219    4.8781  -11.4313 C   0  0  0  0  0  0  0  0  0  0  0  0
   -7.0070    4.8336  -12.7734 O   0  0  0  0  0  0  0  0  0  0  0  0
   -6.0889    5.1660  -13.7117 C   0  0  0  0  0  0  0  0  0  0  0  0
   -4.9460    5.5419  -13.5012 O   0  0  0  0  0  0  0  0  0  0  0  0
   -6.6623    5.0269  -15.0758 C   0  0  0  0  0  0  0  0  0  0  0  0
   -5.8668    5.3698  -16.1695 C   0  0  0  0  0  0  0  0  0  0  0  0
   -6.3306    5.1889  -17.4810 C   0  0  0  0  0  0  0  0  0  0  0  0
   -5.4017    5.4308  -18.4919 N   0  0  0  0  0  0  0  0  0  0  0  0
   -5.2466    4.7843  -19.8925 C   0  0  0  0  0  0  0  0  0  0  0  0
   -5.9192    4.0041  -20.4460 O   0  0  0  0  0  0  0  0  0  0  0  0
   -3.9933    5.2223  -20.5652 C   0  0  0  0  0  0  0  0  0  0  0  0
   -4.1279    5.4495  -21.9326 C   0  0  0  0  0  0  0  0  0  0  0  0
   -3.0169    5.8522  -22.6224 C   0  0  0  0  0  0  0  0  0  0  0  0
   -1.8310    6.0859  -22.0341 N   0  0  0  0  0  0  0  0  0  0  0  0
   -1.6908    5.8872  -20.7094 C   0  0  0  0  0  0  0  0  0  0  0  0
   -0.4680    6.2147  -20.1104 C   0  0  0  0  0  0  0  0  0  0  0  0
    0.6709    6.7219  -20.9575 C   0  0  0  0  0  0  0  0  0  0  0  0
   -0.2989    6.1368  -18.7201 C   0  0  0  0  0  0  0  0  0  0  0  0
   -1.3105    5.6272  -17.9157 C   0  0  0  0  0  0  0  0  0  0  0  0
   -1.1743    5.6407  -16.4204 C   0  0  0  0  0  0  0  0  0  0  0  0
   -2.4857    5.1817  -18.5254 C   0  0  0  0  0  0  0  0  0  0  0  0
   -2.7449    5.4061  -19.9068 C   0  0  0  0  0  0  0  0  0  0  0  0
   -7.6365    4.7744  -17.7300 C   0  0  0  0  0  0  0  0  0  0  0  0
   -8.1552    4.7647  -18.9628 N   0  0  0  0  0  0  0  0  0  0  0  0
   -9.4619    4.5114  -19.1272 C   0  0  0  0  0  0  0  0  0  0  0  0
  -10.3024    4.1916  -18.0932 C   0  0  0  0  0  0  0  0  0  0  0  0
   -9.7502    4.1249  -16.8320 C   0  0  0  0  0  0  0  0  0  0  0  0
   -8.4321    4.4720  -16.6169 C   0  0  0  0  0  0  0  0  0  0  0  0
   -7.9503    4.5555  -15.3063 C   0  0  0  0  0  0  0  0  0  0  0  0
  1  2  1  0
  2  3  1  0
  3  4  2  0
  3  5  1  0
  5  6  2  0
  6  7  1  0
  7  8  1  0
  8  9  1  0
  9 10  2  0
  9 11  1  0
 11 12  2  0
 12 13  1  0
 13 14  2  0
 14 15  1  0
 15 16  2  0
 16 17  1  0
 16 18  1  0
 18 19  2  0
 19 20  1  0
 19 21  1  0
 21 22  2  0
  7 23  2  0
 23 24  1  0
 24 25  2  0
 25 26  1  0
 26 27  2  0
 27 28  1  0
 28 29  2  0
 29  5  1  0
 22 11  1  0
 28 23  1  0
 22 15  1  0
M  END
>  <fragmenstein_outcome>  (358) 
nan

>  <exports>  (358) 
['/opt/xchem-fragalysis-2/maxwin/openbind-hippo/xx01zvns2b/cycle_01/syndirella/elabs/openbind_xx01zvns2b_c1_elab_chemspace_filtered.sdf']

>  <Energy>  (358) 
nan

>  <alias>  (358) 
None

>  <fragmenstein_runtime>  (358) 
nan

>  <scratch_subdir>  (358) 
nan

>  <HIPPO Compound ID>  (358) 
142239

>  <rmsd(smina/fragmenstein)>  (358) 
1.861

>  <distance_score>  (358) 
1.560297

>  <orig_smiles>  (358) 
nan

>  <fragmenstein_mode>  (358) 
nan

>  <inchikey>  (358) 
SNYGZQSYLDCDQV-UHFFFAOYSA-N

>  <ref_pdb>  (358) 
Z0852a

>  <GNINA pK>  (358) 
nan

>  <gnina_score_min>  (358) 
5.774

>  <tags>  (358) 
openbind_xx01zvns2b_c1_elab_nonasap_filtered_scored_top80percent,openbind_xx01zvns2b_c1_elab_chemspace_filtered_scored_top80percent,openbind_xx01zvns2b_c1_elab_chemspace_filtered_scored,openbind_xx01zvns2b_c1_elab_chemspace_filtered_scored_top40percent,openbind_xx01zvns2b_c1_elab_chemspace_filtered_scored_top20percent,openbind_xx01zvns2b_c1_elab_chemspace_filtered_scored_top60percent,openbind_xx01zvns2b_c1_elabs_filtered

>  <smiles>  (358) 
COC(=O)c1cc(NC(=O)c2ccnc3c(C)cc(C)cc23)c2ncccc2c1

>  <subsites>  (358) 
1 - Z4590/B/203/1

>  <gnina_score>  (358) 
5.971

>  <HIPPO Pose ID>  (358) 
70308

>  <ref_mols>  (358) 
Z0917a,Z0852a

>  <energy_score>  (358) 
-8.905344

>  <inspiration_score>  (358) 
None

>  <smina_score_min>  (358) 
-6.265

>  <fragmenstein_error>  (358) 
nan

>  <name>  (358) 
P70308

$$$$
P70309
     RDKit          3D

 29 32  0  0  0  0  0  0  0  0999 V2000
   -1.4481    5.5257  -16.1273 C   0  0  0  0  0  0  0  0  0  0  0  0
   -1.5022    5.5755  -17.6263 C   0  0  0  0  0  0  0  0  0  0  0  0
   -0.4501    6.1164  -18.3560 C   0  0  0  0  0  0  0  0  0  0  0  0
   -0.5334    6.2235  -19.7529 C   0  0  0  0  0  0  0  0  0  0  0  0
    0.6500    6.7593  -20.5175 C   0  0  0  0  0  0  0  0  0  0  0  0
   -1.7093    5.8887  -20.4359 C   0  0  0  0  0  0  0  0  0  0  0  0
   -1.7668    6.0996  -21.7658 N   0  0  0  0  0  0  0  0  0  0  0  0
   -2.9061    5.8444  -22.4318 C   0  0  0  0  0  0  0  0  0  0  0  0
   -4.0508    5.4169  -21.8161 C   0  0  0  0  0  0  0  0  0  0  0  0
   -4.0031    5.1867  -20.4418 C   0  0  0  0  0  0  0  0  0  0  0  0
   -5.2902    4.7291  -19.8541 C   0  0  0  0  0  0  0  0  0  0  0  0
   -5.9203    3.9610  -20.4734 O   0  0  0  0  0  0  0  0  0  0  0  0
   -5.5690    5.3763  -18.4685 N   0  0  0  0  0  0  0  0  0  0  0  0
   -6.5972    5.1471  -17.5503 C   0  0  0  0  0  0  0  0  0  0  0  0
   -6.3552    5.4979  -16.2098 C   0  0  0  0  0  0  0  0  0  0  0  0
   -7.3176    5.2856  -15.2070 C   0  0  0  0  0  0  0  0  0  0  0  0
   -7.1206    5.7671  -13.7714 C   0  0  0  0  0  0  0  0  0  0  0  0
   -8.3970    5.6496  -12.9281 C   0  0  0  0  0  0  0  0  0  0  0  0
   -6.7291    7.2564  -13.7415 C   0  0  0  0  0  0  0  0  0  0  0  0
   -6.0278    4.9295  -13.0989 C   0  0  0  0  0  0  0  0  0  0  0  0
   -8.4957    4.6531  -15.5795 C   0  0  0  0  0  0  0  0  0  0  0  0
   -8.7780    4.4480  -16.9159 C   0  0  0  0  0  0  0  0  0  0  0  0
  -10.0785    4.1641  -17.2454 C   0  0  0  0  0  0  0  0  0  0  0  0
  -10.5040    4.3370  -18.5255 C   0  0  0  0  0  0  0  0  0  0  0  0
   -9.5359    4.4994  -19.4758 C   0  0  0  0  0  0  0  0  0  0  0  0
   -8.2284    4.5919  -19.2031 N   0  0  0  0  0  0  0  0  0  0  0  0
   -7.8486    4.6777  -17.9294 C   0  0  0  0  0  0  0  0  0  0  0  0
   -2.8050    5.3833  -19.7065 C   0  0  0  0  0  0  0  0  0  0  0  0
   -2.6359    5.1404  -18.3155 C   0  0  0  0  0  0  0  0  0  0  0  0
  1  2  1  0
  2  3  2  0
  3  4  1  0
  4  5  1  0
  4  6  2  0
  6  7  1  0
  7  8  2  0
  8  9  1  0
  9 10  2  0
 10 11  1  0
 11 12  2  0
 11 13  1  0
 13 14  1  0
 14 15  2  0
 15 16  1  0
 16 17  1  0
 17 18  1  0
 17 19  1  0
 17 20  1  0
 16 21  2  0
 21 22  1  0
 22 23  2  0
 23 24  1  0
 24 25  2  0
 25 26  1  0
 26 27  2  0
 10 28  1  0
 28 29  2  0
 29  2  1  0
 28  6  1  0
 27 14  1  0
 27 22  1  0
M  END
>  <fragmenstein_outcome>  (359) 
nan

>  <exports>  (359) 
['/opt/xchem-fragalysis-2/maxwin/openbind-hippo/xx01zvns2b/cycle_01/syndirella/elabs/openbind_xx01zvns2b_c1_elab_chemspace_filtered.sdf']

>  <Energy>  (359) 
nan

>  <alias>  (359) 
None

>  <fragmenstein_runtime>  (359) 
nan

>  <scratch_subdir>  (359) 
nan

>  <HIPPO Compound ID>  (359) 
142241

>  <rmsd(smina/fragmenstein)>  (359) 
1.988

>  <distance_score>  (359) 
1.376681

>  <orig_smiles>  (359) 
nan

>  <fragmenstein_mode>  (359) 
nan

>  <inchikey>  (359) 
BGNMNUYEJZYIEQ-UHFFFAOYSA-N

>  <ref_pdb>  (359) 
Z0852a

>  <GNINA pK>  (359) 
nan

>  <gnina_score_min>  (359) 
6.361

>  <tags>  (359) 
openbind_xx01zvns2b_c1_elab_nonasap_filtered_scored_top80percent,openbind_xx01zvns2b_c1_elab_chemspace_filtered_scored_top80percent,openbind_xx01zvns2b_c1_elab_chemspace_filtered_scored,openbind_xx01zvns2b_c1_elab_chemspace_filtered_scored_top40percent,openbind_xx01zvns2b_c1_elab_chemspace_filtered_scored_top20percent,openbind_xx01zvns2b_c1_elab_chemspace_filtered_scored_top60percent,openbind_xx01zvns2b_c1_elabs_filtered

>  <smiles>  (359) 
Cc1cc(C)c2nccc(C(=O)Nc3cc(C(C)(C)C)cc4cccnc34)c2c1

>  <subsites>  (359) 
1 - Z4590/B/203/1

>  <gnina_score>  (359) 
6.019

>  <HIPPO Pose ID>  (359) 
70309

>  <ref_mols>  (359) 
Z0917a,Z0852a

>  <energy_score>  (359) 
-11.158791

>  <inspiration_score>  (359) 
None

>  <smina_score_min>  (359) 
-6.662

>  <fragmenstein_error>  (359) 
nan

>  <name>  (359) 
P70309

$$$$
P70310
     RDKit          3D

 29 32  0  0  0  0  0  0  0  0999 V2000
    0.6551    6.7260  -20.4598 C   0  0  0  0  0  0  0  0  0  0  0  0
   -0.5272    6.2292  -19.6672 C   0  0  0  0  0  0  0  0  0  0  0  0
   -0.4290    6.1583  -18.2696 C   0  0  0  0  0  0  0  0  0  0  0  0
   -1.4903    5.6613  -17.5333 C   0  0  0  0  0  0  0  0  0  0  0  0
   -1.4142    5.6599  -15.6426 Br  0  0  0  0  0  0  0  0  0  0  0  0
   -2.6353    5.2097  -18.1802 C   0  0  0  0  0  0  0  0  0  0  0  0
   -2.8152    5.4236  -19.5718 C   0  0  0  0  0  0  0  0  0  0  0  0
   -4.0222    5.2231  -20.2872 C   0  0  0  0  0  0  0  0  0  0  0  0
   -5.3015    4.7668  -19.6856 C   0  0  0  0  0  0  0  0  0  0  0  0
   -5.8902    3.9512  -20.2851 O   0  0  0  0  0  0  0  0  0  0  0  0
   -5.6238    5.4458  -18.3222 N   0  0  0  0  0  0  0  0  0  0  0  0
   -6.6519    5.1988  -17.4044 C   0  0  0  0  0  0  0  0  0  0  0  0
   -6.4469    5.5325  -16.0542 C   0  0  0  0  0  0  0  0  0  0  0  0
   -7.4446    5.2839  -15.0954 C   0  0  0  0  0  0  0  0  0  0  0  0
   -7.3508    5.7730  -13.6771 C   0  0  0  0  0  0  0  0  0  0  0  0
   -8.4472    5.4690  -12.9240 F   0  0  0  0  0  0  0  0  0  0  0  0
   -6.2779    5.2801  -13.0107 F   0  0  0  0  0  0  0  0  0  0  0  0
   -7.2482    7.1318  -13.6208 F   0  0  0  0  0  0  0  0  0  0  0  0
   -8.6141    4.6566  -15.4935 C   0  0  0  0  0  0  0  0  0  0  0  0
   -8.8497    4.4613  -16.8411 C   0  0  0  0  0  0  0  0  0  0  0  0
  -10.1306    4.1597  -17.2241 C   0  0  0  0  0  0  0  0  0  0  0  0
  -10.5168    4.3394  -18.5160 C   0  0  0  0  0  0  0  0  0  0  0  0
   -9.5239    4.5269  -19.4333 C   0  0  0  0  0  0  0  0  0  0  0  0
   -8.2303    4.6531  -19.1114 N   0  0  0  0  0  0  0  0  0  0  0  0
   -7.8917    4.7201  -17.8236 C   0  0  0  0  0  0  0  0  0  0  0  0
   -4.0781    5.4138  -21.6695 C   0  0  0  0  0  0  0  0  0  0  0  0
   -2.9357    5.8136  -22.3083 C   0  0  0  0  0  0  0  0  0  0  0  0
   -1.7879    6.0745  -21.6593 N   0  0  0  0  0  0  0  0  0  0  0  0
   -1.7189    5.8969  -20.3268 C   0  0  0  0  0  0  0  0  0  0  0  0
  1  2  1  0
  2  3  2  0
  3  4  1  0
  4  5  1  0
  4  6  2  0
  6  7  1  0
  7  8  2  0
  8  9  1  0
  9 10  2  0
  9 11  1  0
 11 12  1  0
 12 13  2  0
 13 14  1  0
 14 15  1  0
 15 16  1  0
 15 17  1  0
 15 18  1  0
 14 19  2  0
 19 20  1  0
 20 21  2  0
 21 22  1  0
 22 23  2  0
 23 24  1  0
 24 25  2  0
  8 26  1  0
 26 27  2  0
 27 28  1  0
 28 29  2  0
 29  2  1  0
 29  7  1  0
 25 12  1  0
 25 20  1  0
M  END
>  <fragmenstein_outcome>  (360) 
nan

>  <exports>  (360) 
['/opt/xchem-fragalysis-2/maxwin/openbind-hippo/xx01zvns2b/cycle_01/syndirella/elabs/openbind_xx01zvns2b_c1_elab_chemspace_filtered.sdf']

>  <Energy>  (360) 
nan

>  <alias>  (360) 
None

>  <fragmenstein_runtime>  (360) 
nan

>  <scratch_subdir>  (360) 
nan

>  <HIPPO Compound ID>  (360) 
142242

>  <rmsd(smina/fragmenstein)>  (360) 
2.453

>  <distance_score>  (360) 
1.067969

>  <orig_smiles>  (360) 
nan

>  <fragmenstein_mode>  (360) 
nan

>  <inchikey>  (360) 
WAVOAHLGDOWPGE-UHFFFAOYSA-N

>  <ref_pdb>  (360) 
Z0852a

>  <GNINA pK>  (360) 
nan

>  <gnina_score_min>  (360) 
5.892

>  <tags>  (360) 
openbind_xx01zvns2b_c1_elab_nonasap_filtered_scored_top80percent,openbind_xx01zvns2b_c1_elab_chemspace_filtered_scored_top80percent,openbind_xx01zvns2b_c1_elab_chemspace_filtered_scored,openbind_xx01zvns2b_c1_elab_chemspace_filtered_scored_top40percent,openbind_xx01zvns2b_c1_elab_chemspace_filtered_scored_top20percent,openbind_xx01zvns2b_c1_elab_chemspace_filtered_scored_top60percent,openbind_xx01zvns2b_c1_elabs_filtered

>  <smiles>  (360) 
Cc1cc(Br)cc2c(C(=O)Nc3cc(C(F)(F)F)cc4cccnc34)ccnc12

>  <subsites>  (360) 
1 - Z4590/B/203/1

>  <gnina_score>  (360) 
5.912

>  <HIPPO Pose ID>  (360) 
70310

>  <ref_mols>  (360) 
Z0917a,Z0852a

>  <energy_score>  (360) 
-1.076285

>  <inspiration_score>  (360) 
None

>  <smina_score_min>  (360) 
-6.357

>  <fragmenstein_error>  (360) 
nan

>  <name>  (360) 
P70310

$$$$
P70311
     RDKit          3D

 29 32  0  0  0  0  0  0  0  0999 V2000
    0.6027    6.7712  -20.4482 C   0  0  0  0  0  0  0  0  0  0  0  0
   -0.5816    6.2291  -19.6889 C   0  0  0  0  0  0  0  0  0  0  0  0
   -0.5124    6.1452  -18.2906 C   0  0  0  0  0  0  0  0  0  0  0  0
   -1.5742    5.6075  -17.5855 C   0  0  0  0  0  0  0  0  0  0  0  0
   -1.5527    5.6029  -15.6929 Br  0  0  0  0  0  0  0  0  0  0  0  0
   -2.6865    5.1240  -18.2654 C   0  0  0  0  0  0  0  0  0  0  0  0
   -2.8491    5.3567  -19.6574 C   0  0  0  0  0  0  0  0  0  0  0  0
   -4.0399    5.1438  -20.4034 C   0  0  0  0  0  0  0  0  0  0  0  0
   -5.3338    4.6623  -19.8398 C   0  0  0  0  0  0  0  0  0  0  0  0
   -5.9553    3.9181  -20.4960 O   0  0  0  0  0  0  0  0  0  0  0  0
   -5.6265    5.2490  -18.4308 N   0  0  0  0  0  0  0  0  0  0  0  0
   -6.6608    4.9765  -17.5310 C   0  0  0  0  0  0  0  0  0  0  0  0
   -6.4195    5.2374  -16.1727 C   0  0  0  0  0  0  0  0  0  0  0  0
   -7.4071    5.0295  -15.1892 C   0  0  0  0  0  0  0  0  0  0  0  0
   -7.2110    5.4878  -13.7462 C   0  0  0  0  0  0  0  0  0  0  0  0
   -6.0417    4.7352  -13.1044 C   0  0  0  0  0  0  0  0  0  0  0  0
   -8.4455    5.3017  -12.8361 C   0  0  0  0  0  0  0  0  0  0  0  0
   -6.9133    6.9898  -13.7804 C   0  0  0  0  0  0  0  0  0  0  0  0
   -8.6183    4.5008  -15.6024 C   0  0  0  0  0  0  0  0  0  0  0  0
   -8.8858    4.3655  -16.9530 C   0  0  0  0  0  0  0  0  0  0  0  0
  -10.1926    4.1728  -17.3236 C   0  0  0  0  0  0  0  0  0  0  0  0
  -10.5788    4.4231  -18.6015 C   0  0  0  0  0  0  0  0  0  0  0  0
   -9.5829    4.5517  -19.5248 C   0  0  0  0  0  0  0  0  0  0  0  0
   -8.2790    4.5623  -19.2255 N   0  0  0  0  0  0  0  0  0  0  0  0
   -7.9250    4.5816  -17.9428 C   0  0  0  0  0  0  0  0  0  0  0  0
   -4.0721    5.3772  -21.7788 C   0  0  0  0  0  0  0  0  0  0  0  0
   -2.9255    5.8148  -22.3844 C   0  0  0  0  0  0  0  0  0  0  0  0
   -1.7954    6.0802  -21.7073 N   0  0  0  0  0  0  0  0  0  0  0  0
   -1.7499    5.8745  -20.3786 C   0  0  0  0  0  0  0  0  0  0  0  0
  1  2  1  0
  2  3  2  0
  3  4  1  0
  4  5  1  0
  4  6  2  0
  6  7  1  0
  7  8  2  0
  8  9  1  0
  9 10  2  0
  9 11  1  0
 11 12  1  0
 12 13  2  0
 13 14  1  0
 14 15  1  0
 15 16  1  0
 15 17  1  0
 15 18  1  0
 14 19  2  0
 19 20  1  0
 20 21  2  0
 21 22  1  0
 22 23  2  0
 23 24  1  0
 24 25  2  0
  8 26  1  0
 26 27  2  0
 27 28  1  0
 28 29  2  0
 29  2  1  0
 29  7  1  0
 25 12  1  0
 25 20  1  0
M  END
>  <fragmenstein_outcome>  (361) 
nan

>  <exports>  (361) 
['/opt/xchem-fragalysis-2/maxwin/openbind-hippo/xx01zvns2b/cycle_01/syndirella/elabs/openbind_xx01zvns2b_c1_elab_chemspace_filtered.sdf']

>  <Energy>  (361) 
nan

>  <alias>  (361) 
None

>  <fragmenstein_runtime>  (361) 
nan

>  <scratch_subdir>  (361) 
nan

>  <HIPPO Compound ID>  (361) 
142243

>  <rmsd(smina/fragmenstein)>  (361) 
2.261

>  <distance_score>  (361) 
1.207521

>  <orig_smiles>  (361) 
nan

>  <fragmenstein_mode>  (361) 
nan

>  <inchikey>  (361) 
FCLWPRHBVRKMSW-UHFFFAOYSA-N

>  <ref_pdb>  (361) 
Z0852a

>  <GNINA pK>  (361) 
nan

>  <gnina_score_min>  (361) 
6.402

>  <tags>  (361) 
openbind_xx01zvns2b_c1_elab_nonasap_filtered_scored_top80percent,openbind_xx01zvns2b_c1_elab_chemspace_filtered_scored_top80percent,openbind_xx01zvns2b_c1_elab_chemspace_filtered_scored,openbind_xx01zvns2b_c1_elab_chemspace_filtered_scored_top40percent,openbind_xx01zvns2b_c1_elab_chemspace_filtered_scored_top20percent,openbind_xx01zvns2b_c1_elab_chemspace_filtered_scored_top60percent,openbind_xx01zvns2b_c1_elabs_filtered

>  <smiles>  (361) 
Cc1cc(Br)cc2c(C(=O)Nc3cc(C(C)(C)C)cc4cccnc34)ccnc12

>  <subsites>  (361) 
1 - Z4590/B/203/1

>  <gnina_score>  (361) 
6.13

>  <HIPPO Pose ID>  (361) 
70311

>  <ref_mols>  (361) 
Z0917a,Z0852a

>  <energy_score>  (361) 
-15.860813

>  <inspiration_score>  (361) 
None

>  <smina_score_min>  (361) 
-6.634

>  <fragmenstein_error>  (361) 
nan

>  <name>  (361) 
P70311

$$$$
P70312
     RDKit          3D

 29 32  0  0  0  0  0  0  0  0999 V2000
   -6.5166    4.9143  -11.4781 C   0  0  0  0  0  0  0  0  0  0  0  0
   -6.9844    4.8267  -12.8243 O   0  0  0  0  0  0  0  0  0  0  0  0
   -6.0059    4.9173  -13.7578 C   0  0  0  0  0  0  0  0  0  0  0  0
   -4.8161    5.0798  -13.5375 O   0  0  0  0  0  0  0  0  0  0  0  0
   -6.5750    4.8212  -15.1267 C   0  0  0  0  0  0  0  0  0  0  0  0
   -5.7393    5.0696  -16.2167 C   0  0  0  0  0  0  0  0  0  0  0  0
   -6.2052    4.9529  -17.5385 C   0  0  0  0  0  0  0  0  0  0  0  0
   -5.2205    5.1307  -18.5208 N   0  0  0  0  0  0  0  0  0  0  0  0
   -5.2067    4.7240  -20.0240 C   0  0  0  0  0  0  0  0  0  0  0  0
   -5.9815    4.1114  -20.6507 O   0  0  0  0  0  0  0  0  0  0  0  0
   -3.9276    5.1437  -20.6497 C   0  0  0  0  0  0  0  0  0  0  0  0
   -2.7494    4.7957  -19.9873 C   0  0  0  0  0  0  0  0  0  0  0  0
   -2.7129    4.1717  -18.7698 O   0  0  0  0  0  0  0  0  0  0  0  0
   -1.5633    5.1051  -20.6028 C   0  0  0  0  0  0  0  0  0  0  0  0
   -1.4926    5.7266  -21.7989 N   0  0  0  0  0  0  0  0  0  0  0  0
   -2.6244    6.0572  -22.4584 C   0  0  0  0  0  0  0  0  0  0  0  0
   -2.5707    6.6917  -23.7101 C   0  0  0  0  0  0  0  0  0  0  0  0
   -0.8947    7.0753  -24.5365 Br  0  0  0  0  0  0  0  0  0  0  0  0
   -3.7199    7.0769  -24.4093 C   0  0  0  0  0  0  0  0  0  0  0  0
   -4.9657    6.8359  -23.8574 C   0  0  0  0  0  0  0  0  0  0  0  0
   -5.0462    6.2035  -22.6203 C   0  0  0  0  0  0  0  0  0  0  0  0
   -3.8940    5.7924  -21.9082 C   0  0  0  0  0  0  0  0  0  0  0  0
   -7.5493    4.6655  -17.7910 C   0  0  0  0  0  0  0  0  0  0  0  0
   -8.0714    4.6693  -19.0214 N   0  0  0  0  0  0  0  0  0  0  0  0
   -9.3945    4.4965  -19.1834 C   0  0  0  0  0  0  0  0  0  0  0  0
  -10.2595    4.2510  -18.1497 C   0  0  0  0  0  0  0  0  0  0  0  0
   -9.7158    4.1717  -16.8879 C   0  0  0  0  0  0  0  0  0  0  0  0
   -8.3757    4.4320  -16.6776 C   0  0  0  0  0  0  0  0  0  0  0  0
   -7.9001    4.4806  -15.3646 C   0  0  0  0  0  0  0  0  0  0  0  0
  1  2  1  0
  2  3  1  0
  3  4  2  0
  3  5  1  0
  5  6  2  0
  6  7  1  0
  7  8  1  0
  8  9  1  0
  9 10  2  0
  9 11  1  0
 11 12  2  0
 12 13  1  0
 12 14  1  0
 14 15  2  0
 15 16  1  0
 16 17  2  0
 17 18  1  0
 17 19  1  0
 19 20  2  0
 20 21  1  0
 21 22  2  0
  7 23  2  0
 23 24  1  0
 24 25  2  0
 25 26  1  0
 26 27  2  0
 27 28  1  0
 28 29  2  0
 29  5  1  0
 22 11  1  0
 28 23  1  0
 22 16  1  0
M  END
>  <fragmenstein_outcome>  (362) 
nan

>  <exports>  (362) 
['/opt/xchem-fragalysis-2/maxwin/openbind-hippo/xx01zvns2b/cycle_01/syndirella/elabs/openbind_xx01zvns2b_c1_elab_chemspace_filtered.sdf']

>  <Energy>  (362) 
nan

>  <alias>  (362) 
None

>  <fragmenstein_runtime>  (362) 
nan

>  <scratch_subdir>  (362) 
nan

>  <HIPPO Compound ID>  (362) 
142246

>  <rmsd(smina/fragmenstein)>  (362) 
1.011

>  <distance_score>  (362) 
1.615066

>  <orig_smiles>  (362) 
nan

>  <fragmenstein_mode>  (362) 
nan

>  <inchikey>  (362) 
LDJXSMJBJDVJJN-UHFFFAOYSA-N

>  <ref_pdb>  (362) 
Z0852a

>  <GNINA pK>  (362) 
nan

>  <gnina_score_min>  (362) 
5.893

>  <tags>  (362) 
openbind_xx01zvns2b_c1_elab_nonasap_filtered_scored_top80percent,openbind_xx01zvns2b_c1_elab_chemspace_filtered_scored_top80percent,openbind_xx01zvns2b_c1_elab_chemspace_filtered_scored,openbind_xx01zvns2b_c1_elab_chemspace_filtered_scored_top40percent,openbind_xx01zvns2b_c1_elab_chemspace_filtered_scored_top20percent,openbind_xx01zvns2b_c1_elab_chemspace_filtered_scored_top60percent,openbind_xx01zvns2b_c1_elabs_filtered

>  <smiles>  (362) 
COC(=O)c1cc(NC(=O)c2c(O)cnc3c(Br)cccc23)c2ncccc2c1

>  <subsites>  (362) 
1 - Z4590/B/203/1

>  <gnina_score>  (362) 
5.679

>  <HIPPO Pose ID>  (362) 
70312

>  <ref_mols>  (362) 
Z0917a,Z0852a

>  <energy_score>  (362) 
-25.861193

>  <inspiration_score>  (362) 
None

>  <smina_score_min>  (362) 
-7.016

>  <fragmenstein_error>  (362) 
nan

>  <name>  (362) 
P70312

$$$$
P70313
     RDKit          3D

 29 32  0  0  0  0  0  0  0  0999 V2000
   -5.9398    4.0739  -20.5521 O   0  0  0  0  0  0  0  0  0  0  0  0
   -5.2251    4.6696  -19.8379 C   0  0  0  0  0  0  0  0  0  0  0  0
   -5.4001    5.0766  -18.3390 N   0  0  0  0  0  0  0  0  0  0  0  0
   -6.5014    4.9192  -17.4687 C   0  0  0  0  0  0  0  0  0  0  0  0
   -6.3038    5.2379  -16.1067 C   0  0  0  0  0  0  0  0  0  0  0  0
   -7.3499    5.1317  -15.1684 C   0  0  0  0  0  0  0  0  0  0  0  0
   -7.2595    5.6563  -13.7604 C   0  0  0  0  0  0  0  0  0  0  0  0
   -6.1717    5.2077  -13.0866 F   0  0  0  0  0  0  0  0  0  0  0  0
   -7.1916    7.0191  -13.7353 F   0  0  0  0  0  0  0  0  0  0  0  0
   -8.3439    5.3447  -12.9916 F   0  0  0  0  0  0  0  0  0  0  0  0
   -8.5715    4.6365  -15.5881 C   0  0  0  0  0  0  0  0  0  0  0  0
   -8.7903    4.4356  -16.9350 C   0  0  0  0  0  0  0  0  0  0  0  0
  -10.0915    4.2435  -17.3256 C   0  0  0  0  0  0  0  0  0  0  0  0
  -10.4388    4.4078  -18.6274 C   0  0  0  0  0  0  0  0  0  0  0  0
   -9.4159    4.4520  -19.5278 C   0  0  0  0  0  0  0  0  0  0  0  0
   -8.1189    4.4768  -19.1905 N   0  0  0  0  0  0  0  0  0  0  0  0
   -7.7851    4.5728  -17.9045 C   0  0  0  0  0  0  0  0  0  0  0  0
   -3.9314    5.1417  -20.4097 C   0  0  0  0  0  0  0  0  0  0  0  0
   -2.7533    4.8507  -19.7343 C   0  0  0  0  0  0  0  0  0  0  0  0
   -2.7658    4.2928  -18.4896 O   0  0  0  0  0  0  0  0  0  0  0  0
   -1.5675    5.1378  -20.3726 C   0  0  0  0  0  0  0  0  0  0  0  0
   -1.4947    5.7122  -21.5887 N   0  0  0  0  0  0  0  0  0  0  0  0
   -2.6261    6.0167  -22.2557 C   0  0  0  0  0  0  0  0  0  0  0  0
   -2.5688    6.6162  -23.5249 C   0  0  0  0  0  0  0  0  0  0  0  0
   -0.8900    6.9832  -24.3542 Br  0  0  0  0  0  0  0  0  0  0  0  0
   -3.7148    6.9788  -24.2388 C   0  0  0  0  0  0  0  0  0  0  0  0
   -4.9595    6.7468  -23.6839 C   0  0  0  0  0  0  0  0  0  0  0  0
   -5.0395    6.1444  -22.4309 C   0  0  0  0  0  0  0  0  0  0  0  0
   -3.8927    5.7572  -21.6955 C   0  0  0  0  0  0  0  0  0  0  0  0
  1  2  2  0
  2  3  1  0
  3  4  1  0
  4  5  2  0
  5  6  1  0
  6  7  1  0
  7  8  1  0
  7  9  1  0
  7 10  1  0
  6 11  2  0
 11 12  1  0
 12 13  2  0
 13 14  1  0
 14 15  2  0
 15 16  1  0
 16 17  2  0
  2 18  1  0
 18 19  2  0
 19 20  1  0
 19 21  1  0
 21 22  2  0
 22 23  1  0
 23 24  2  0
 24 25  1  0
 24 26  1  0
 26 27  2  0
 27 28  1  0
 28 29  2  0
 17  4  1  0
 29 18  1  0
 17 12  1  0
 29 23  1  0
M  END
>  <fragmenstein_outcome>  (363) 
nan

>  <exports>  (363) 
['/opt/xchem-fragalysis-2/maxwin/openbind-hippo/xx01zvns2b/cycle_01/syndirella/elabs/openbind_xx01zvns2b_c1_elab_chemspace_filtered.sdf']

>  <Energy>  (363) 
nan

>  <alias>  (363) 
None

>  <fragmenstein_runtime>  (363) 
nan

>  <scratch_subdir>  (363) 
nan

>  <HIPPO Compound ID>  (363) 
142247

>  <rmsd(smina/fragmenstein)>  (363) 
1.314

>  <distance_score>  (363) 
0.971658

>  <orig_smiles>  (363) 
nan

>  <fragmenstein_mode>  (363) 
nan

>  <inchikey>  (363) 
OXLDHLWYEPXOCP-UHFFFAOYSA-N

>  <ref_pdb>  (363) 
Z0852a

>  <GNINA pK>  (363) 
nan

>  <gnina_score_min>  (363) 
5.908

>  <tags>  (363) 
openbind_xx01zvns2b_c1_elab_nonasap_filtered_scored_top80percent,openbind_xx01zvns2b_c1_elab_chemspace_filtered_scored_top80percent,openbind_xx01zvns2b_c1_elab_chemspace_filtered_scored,openbind_xx01zvns2b_c1_elab_chemspace_filtered_scored_top40percent,openbind_xx01zvns2b_c1_elab_chemspace_filtered_scored_top20percent,openbind_xx01zvns2b_c1_elab_chemspace_filtered_scored_top60percent,openbind_xx01zvns2b_c1_elabs_filtered

>  <smiles>  (363) 
O=C(Nc1cc(C(F)(F)F)cc2cccnc12)c1c(O)cnc2c(Br)cccc12

>  <subsites>  (363) 
1 - Z4590/B/203/1

>  <gnina_score>  (363) 
5.383

>  <HIPPO Pose ID>  (363) 
70313

>  <ref_mols>  (363) 
Z0917a,Z0852a

>  <energy_score>  (363) 
-9.263359

>  <inspiration_score>  (363) 
None

>  <smina_score_min>  (363) 
-7.211

>  <fragmenstein_error>  (363) 
nan

>  <name>  (363) 
P70313

$$$$
P70314
     RDKit          3D

 29 32  0  0  0  0  0  0  0  0999 V2000
   -8.4019    5.2822  -12.8817 C   0  0  0  0  0  0  0  0  0  0  0  0
   -7.1578    5.4405  -13.7878 C   0  0  0  0  0  0  0  0  0  0  0  0
   -5.9998    4.6995  -13.1139 C   0  0  0  0  0  0  0  0  0  0  0  0
   -6.8536    6.9399  -13.8595 C   0  0  0  0  0  0  0  0  0  0  0  0
   -7.3414    4.9544  -15.2252 C   0  0  0  0  0  0  0  0  0  0  0  0
   -6.3285    5.0895  -16.2005 C   0  0  0  0  0  0  0  0  0  0  0  0
   -6.5633    4.8347  -17.5655 C   0  0  0  0  0  0  0  0  0  0  0  0
   -5.4828    5.0427  -18.4457 N   0  0  0  0  0  0  0  0  0  0  0  0
   -5.3185    4.6731  -19.9549 C   0  0  0  0  0  0  0  0  0  0  0  0
   -6.0251    4.0724  -20.6706 O   0  0  0  0  0  0  0  0  0  0  0  0
   -3.9939    5.1047  -20.4641 C   0  0  0  0  0  0  0  0  0  0  0  0
   -2.8661    4.7654  -19.7204 C   0  0  0  0  0  0  0  0  0  0  0  0
   -2.9086    4.1383  -18.5066 O   0  0  0  0  0  0  0  0  0  0  0  0
   -1.6420    5.0740  -20.2598 C   0  0  0  0  0  0  0  0  0  0  0  0
   -1.4894    5.6962  -21.4485 N   0  0  0  0  0  0  0  0  0  0  0  0
   -2.5728    6.0241  -22.1845 C   0  0  0  0  0  0  0  0  0  0  0  0
   -2.4327    6.6596  -23.4290 C   0  0  0  0  0  0  0  0  0  0  0  0
   -0.7035    7.0478  -24.1355 Br  0  0  0  0  0  0  0  0  0  0  0  0
   -3.5304    7.0443  -24.2064 C   0  0  0  0  0  0  0  0  0  0  0  0
   -4.8108    6.8010  -23.7429 C   0  0  0  0  0  0  0  0  0  0  0  0
   -4.9762    6.1663  -22.5151 C   0  0  0  0  0  0  0  0  0  0  0  0
   -3.8757    5.7557  -21.7216 C   0  0  0  0  0  0  0  0  0  0  0  0
   -7.8516    4.5110  -17.9798 C   0  0  0  0  0  0  0  0  0  0  0  0
   -8.2075    4.4741  -19.2604 N   0  0  0  0  0  0  0  0  0  0  0  0
   -9.5122    4.5031  -19.5634 C   0  0  0  0  0  0  0  0  0  0  0  0
  -10.5181    4.4434  -18.6442 C   0  0  0  0  0  0  0  0  0  0  0  0
  -10.1470    4.2099  -17.3604 C   0  0  0  0  0  0  0  0  0  0  0  0
   -8.8322    4.3520  -16.9935 C   0  0  0  0  0  0  0  0  0  0  0  0
   -8.5729    4.4852  -15.6443 C   0  0  0  0  0  0  0  0  0  0  0  0
  1  2  1  0
  2  3  1  0
  2  4  1  0
  2  5  1  0
  5  6  2  0
  6  7  1  0
  7  8  1  0
  8  9  1  0
  9 10  2  0
  9 11  1  0
 11 12  2  0
 12 13  1  0
 12 14  1  0
 14 15  2  0
 15 16  1  0
 16 17  2  0
 17 18  1  0
 17 19  1  0
 19 20  2  0
 20 21  1  0
 21 22  2  0
  7 23  2  0
 23 24  1  0
 24 25  2  0
 25 26  1  0
 26 27  2  0
 27 28  1  0
 28 29  2  0
 29  5  1  0
 22 11  1  0
 28 23  1  0
 22 16  1  0
M  END
>  <fragmenstein_outcome>  (364) 
nan

>  <exports>  (364) 
['/opt/xchem-fragalysis-2/maxwin/openbind-hippo/xx01zvns2b/cycle_01/syndirella/elabs/openbind_xx01zvns2b_c1_elab_chemspace_filtered.sdf']

>  <Energy>  (364) 
nan

>  <alias>  (364) 
None

>  <fragmenstein_runtime>  (364) 
nan

>  <scratch_subdir>  (364) 
nan

>  <HIPPO Compound ID>  (364) 
142248

>  <rmsd(smina/fragmenstein)>  (364) 
1.34

>  <distance_score>  (364) 
1.346404

>  <orig_smiles>  (364) 
nan

>  <fragmenstein_mode>  (364) 
nan

>  <inchikey>  (364) 
FOMQEROPIXNEQN-UHFFFAOYSA-N

>  <ref_pdb>  (364) 
Z0852a

>  <GNINA pK>  (364) 
nan

>  <gnina_score_min>  (364) 
6.26

>  <tags>  (364) 
openbind_xx01zvns2b_c1_elab_nonasap_filtered_scored_top80percent,openbind_xx01zvns2b_c1_elab_chemspace_filtered_scored_top80percent,openbind_xx01zvns2b_c1_elab_chemspace_filtered_scored,openbind_xx01zvns2b_c1_elab_chemspace_filtered_scored_top40percent,openbind_xx01zvns2b_c1_elab_chemspace_filtered_scored_top20percent,openbind_xx01zvns2b_c1_elab_chemspace_filtered_scored_top60percent,openbind_xx01zvns2b_c1_elabs_filtered

>  <smiles>  (364) 
CC(C)(C)c1cc(NC(=O)c2c(O)cnc3c(Br)cccc23)c2ncccc2c1

>  <subsites>  (364) 
1 - Z4590/B/203/1

>  <gnina_score>  (364) 
5.718

>  <HIPPO Pose ID>  (364) 
70314

>  <ref_mols>  (364) 
Z0917a,Z0852a

>  <energy_score>  (364) 
-34.414478

>  <inspiration_score>  (364) 
None

>  <smina_score_min>  (364) 
-7.206

>  <fragmenstein_error>  (364) 
nan

>  <name>  (364) 
P70314

$$$$
P70315
     RDKit          3D

 29 32  0  0  0  0  0  0  0  0999 V2000
   -6.0210    4.2111  -20.5595 O   0  0  0  0  0  0  0  0  0  0  0  0
   -5.2958    4.7867  -19.8419 C   0  0  0  0  0  0  0  0  0  0  0  0
   -5.4942    5.2552  -18.3629 N   0  0  0  0  0  0  0  0  0  0  0  0
   -6.5602    5.0306  -17.4666 C   0  0  0  0  0  0  0  0  0  0  0  0
   -6.3527    5.3552  -16.1092 C   0  0  0  0  0  0  0  0  0  0  0  0
   -7.3739    5.1855  -15.1534 C   0  0  0  0  0  0  0  0  0  0  0  0
   -7.2797    5.7030  -13.7428 C   0  0  0  0  0  0  0  0  0  0  0  0
   -8.3675    5.3971  -12.9769 F   0  0  0  0  0  0  0  0  0  0  0  0
   -7.1988    7.0643  -13.7119 F   0  0  0  0  0  0  0  0  0  0  0  0
   -6.1966    5.2396  -13.0723 F   0  0  0  0  0  0  0  0  0  0  0  0
   -8.5758    4.6282  -15.5538 C   0  0  0  0  0  0  0  0  0  0  0  0
   -8.8099    4.4302  -16.8990 C   0  0  0  0  0  0  0  0  0  0  0  0
  -10.1071    4.1933  -17.2766 C   0  0  0  0  0  0  0  0  0  0  0  0
  -10.4807    4.3734  -18.5705 C   0  0  0  0  0  0  0  0  0  0  0  0
   -9.4747    4.4813  -19.4852 C   0  0  0  0  0  0  0  0  0  0  0  0
   -8.1757    4.5374  -19.1621 N   0  0  0  0  0  0  0  0  0  0  0  0
   -7.8297    4.6217  -17.8808 C   0  0  0  0  0  0  0  0  0  0  0  0
   -3.9557    5.1456  -20.3484 C   0  0  0  0  0  0  0  0  0  0  0  0
   -2.8478    4.7567  -19.6012 C   0  0  0  0  0  0  0  0  0  0  0  0
   -2.9278    4.1443  -18.3833 O   0  0  0  0  0  0  0  0  0  0  0  0
   -1.6063    5.0016  -20.1400 C   0  0  0  0  0  0  0  0  0  0  0  0
   -1.4156    5.6065  -21.3333 N   0  0  0  0  0  0  0  0  0  0  0  0
   -2.4829    5.9782  -22.0498 C   0  0  0  0  0  0  0  0  0  0  0  0
   -2.2544    6.6007  -23.2694 C   0  0  0  0  0  0  0  0  0  0  0  0
   -3.2989    7.0658  -24.0685 C   0  0  0  0  0  0  0  0  0  0  0  0
   -4.6047    6.9031  -23.6349 C   0  0  0  0  0  0  0  0  0  0  0  0
   -6.0260    7.5636  -24.6872 Br  0  0  0  0  0  0  0  0  0  0  0  0
   -4.8620    6.2655  -22.4230 C   0  0  0  0  0  0  0  0  0  0  0  0
   -3.8044    5.7853  -21.6075 C   0  0  0  0  0  0  0  0  0  0  0  0
  1  2  2  0
  2  3  1  0
  3  4  1  0
  4  5  2  0
  5  6  1  0
  6  7  1  0
  7  8  1  0
  7  9  1  0
  7 10  1  0
  6 11  2  0
 11 12  1  0
 12 13  2  0
 13 14  1  0
 14 15  2  0
 15 16  1  0
 16 17  2  0
  2 18  1  0
 18 19  2  0
 19 20  1  0
 19 21  1  0
 21 22  2  0
 22 23  1  0
 23 24  2  0
 24 25  1  0
 25 26  2  0
 26 27  1  0
 26 28  1  0
 28 29  2  0
 17  4  1  0
 29 18  1  0
 17 12  1  0
 29 23  1  0
M  END
>  <fragmenstein_outcome>  (365) 
nan

>  <exports>  (365) 
['/opt/xchem-fragalysis-2/maxwin/openbind-hippo/xx01zvns2b/cycle_01/syndirella/elabs/openbind_xx01zvns2b_c1_elab_chemspace_filtered.sdf']

>  <Energy>  (365) 
nan

>  <alias>  (365) 
None

>  <fragmenstein_runtime>  (365) 
nan

>  <scratch_subdir>  (365) 
nan

>  <HIPPO Compound ID>  (365) 
142249

>  <rmsd(smina/fragmenstein)>  (365) 
1.113

>  <distance_score>  (365) 
0.957724

>  <orig_smiles>  (365) 
nan

>  <fragmenstein_mode>  (365) 
nan

>  <inchikey>  (365) 
DPGSAKZAHZSPPN-UHFFFAOYSA-N

>  <ref_pdb>  (365) 
Z0852a

>  <GNINA pK>  (365) 
nan

>  <gnina_score_min>  (365) 
5.935

>  <tags>  (365) 
openbind_xx01zvns2b_c1_elab_nonasap_filtered_scored_top80percent,openbind_xx01zvns2b_c1_elab_chemspace_filtered_scored_top80percent,openbind_xx01zvns2b_c1_elab_chemspace_filtered_scored,openbind_xx01zvns2b_c1_elab_chemspace_filtered_scored_top40percent,openbind_xx01zvns2b_c1_elab_chemspace_filtered_scored_top20percent,openbind_xx01zvns2b_c1_elab_chemspace_filtered_scored_top60percent,openbind_xx01zvns2b_c1_elabs_filtered

>  <smiles>  (365) 
O=C(Nc1cc(C(F)(F)F)cc2cccnc12)c1c(O)cnc2ccc(Br)cc12

>  <subsites>  (365) 
1 - Z4590/B/203/1

>  <gnina_score>  (365) 
5.38

>  <HIPPO Pose ID>  (365) 
70315

>  <ref_mols>  (365) 
Z0917a,Z0852a

>  <energy_score>  (365) 
-12.820735

>  <inspiration_score>  (365) 
None

>  <smina_score_min>  (365) 
-7.217

>  <fragmenstein_error>  (365) 
nan

>  <name>  (365) 
P70315

$$$$
P70316
     RDKit          3D

 29 32  0  0  0  0  0  0  0  0999 V2000
   -5.9947    6.9211  -13.8849 C   0  0  0  0  0  0  0  0  0  0  0  0
   -7.0183    5.7854  -13.8662 C   0  0  0  0  0  0  0  0  0  0  0  0
   -8.3076    6.4034  -13.2778 C   0  0  0  0  0  0  0  0  0  0  0  0
   -6.5310    4.6697  -12.9375 C   0  0  0  0  0  0  0  0  0  0  0  0
   -7.2154    5.2219  -15.2734 C   0  0  0  0  0  0  0  0  0  0  0  0
   -6.2545    5.3509  -16.2971 C   0  0  0  0  0  0  0  0  0  0  0  0
   -6.5360    5.0291  -17.6361 C   0  0  0  0  0  0  0  0  0  0  0  0
   -5.5174    5.2836  -18.5724 N   0  0  0  0  0  0  0  0  0  0  0  0
   -5.3330    4.7687  -20.0322 C   0  0  0  0  0  0  0  0  0  0  0  0
   -6.0386    4.1180  -20.7019 O   0  0  0  0  0  0  0  0  0  0  0  0
   -3.9940    5.1305  -20.5397 C   0  0  0  0  0  0  0  0  0  0  0  0
   -2.8849    4.7499  -19.7851 C   0  0  0  0  0  0  0  0  0  0  0  0
   -2.9673    4.1344  -18.5666 O   0  0  0  0  0  0  0  0  0  0  0  0
   -1.6428    5.0154  -20.3119 C   0  0  0  0  0  0  0  0  0  0  0  0
   -1.4543    5.6378  -21.4966 N   0  0  0  0  0  0  0  0  0  0  0  0
   -2.5232    6.0045  -22.2153 C   0  0  0  0  0  0  0  0  0  0  0  0
   -2.3001    6.6488  -23.4245 C   0  0  0  0  0  0  0  0  0  0  0  0
   -3.3493    7.1121  -24.2196 C   0  0  0  0  0  0  0  0  0  0  0  0
   -4.6546    6.9252  -23.7932 C   0  0  0  0  0  0  0  0  0  0  0  0
   -6.0822    7.5830  -24.8385 Br  0  0  0  0  0  0  0  0  0  0  0  0
   -4.9074    6.2648  -22.5931 C   0  0  0  0  0  0  0  0  0  0  0  0
   -3.8447    5.7876  -21.7848 C   0  0  0  0  0  0  0  0  0  0  0  0
   -7.8179    4.6172  -17.9744 C   0  0  0  0  0  0  0  0  0  0  0  0
   -8.2308    4.5404  -19.2353 N   0  0  0  0  0  0  0  0  0  0  0  0
   -9.5470    4.4865  -19.4751 C   0  0  0  0  0  0  0  0  0  0  0  0
  -10.4964    4.3348  -18.5030 C   0  0  0  0  0  0  0  0  0  0  0  0
  -10.0451    4.1603  -17.2302 C   0  0  0  0  0  0  0  0  0  0  0  0
   -8.7311    4.4145  -16.9321 C   0  0  0  0  0  0  0  0  0  0  0  0
   -8.4182    4.6200  -15.6009 C   0  0  0  0  0  0  0  0  0  0  0  0
  1  2  1  0
  2  3  1  0
  2  4  1  0
  2  5  1  0
  5  6  2  0
  6  7  1  0
  7  8  1  0
  8  9  1  0
  9 10  2  0
  9 11  1  0
 11 12  2  0
 12 13  1  0
 12 14  1  0
 14 15  2  0
 15 16  1  0
 16 17  2  0
 17 18  1  0
 18 19  2  0
 19 20  1  0
 19 21  1  0
 21 22  2  0
  7 23  2  0
 23 24  1  0
 24 25  2  0
 25 26  1  0
 26 27  2  0
 27 28  1  0
 28 29  2  0
 29  5  1  0
 22 11  1  0
 28 23  1  0
 22 16  1  0
M  END
>  <fragmenstein_outcome>  (366) 
nan

>  <exports>  (366) 
['/opt/xchem-fragalysis-2/maxwin/openbind-hippo/xx01zvns2b/cycle_01/syndirella/elabs/openbind_xx01zvns2b_c1_elab_chemspace_filtered.sdf']

>  <Energy>  (366) 
nan

>  <alias>  (366) 
None

>  <fragmenstein_runtime>  (366) 
nan

>  <scratch_subdir>  (366) 
nan

>  <HIPPO Compound ID>  (366) 
142250

>  <rmsd(smina/fragmenstein)>  (366) 
1.001

>  <distance_score>  (366) 
1.319888

>  <orig_smiles>  (366) 
nan

>  <fragmenstein_mode>  (366) 
nan

>  <inchikey>  (366) 
GWTGRPXSRNCMFX-UHFFFAOYSA-N

>  <ref_pdb>  (366) 
Z0852a

>  <GNINA pK>  (366) 
nan

>  <gnina_score_min>  (366) 
6.309

>  <tags>  (366) 
openbind_xx01zvns2b_c1_elab_nonasap_filtered_scored_top80percent,openbind_xx01zvns2b_c1_elab_chemspace_filtered_scored_top80percent,openbind_xx01zvns2b_c1_elab_chemspace_filtered_scored,openbind_xx01zvns2b_c1_elab_chemspace_filtered_scored_top40percent,openbind_xx01zvns2b_c1_elab_chemspace_filtered_scored_top20percent,openbind_xx01zvns2b_c1_elab_chemspace_filtered_scored_top60percent,openbind_xx01zvns2b_c1_elabs_filtered

>  <smiles>  (366) 
CC(C)(C)c1cc(NC(=O)c2c(O)cnc3ccc(Br)cc23)c2ncccc2c1

>  <subsites>  (366) 
1 - Z4590/B/203/1

>  <gnina_score>  (366) 
5.536

>  <HIPPO Pose ID>  (366) 
70316

>  <ref_mols>  (366) 
Z0917a,Z0852a

>  <energy_score>  (366) 
-25.202668

>  <inspiration_score>  (366) 
None

>  <smina_score_min>  (366) 
-7.243

>  <fragmenstein_error>  (366) 
nan

>  <name>  (366) 
P70316

$$$$
P70317
     RDKit          3D

 29 32  0  0  0  0  0  0  0  0999 V2000
   -6.8546    6.0276  -11.4621 C   0  0  0  0  0  0  0  0  0  0  0  0
   -7.2483    5.7053  -12.7959 O   0  0  0  0  0  0  0  0  0  0  0  0
   -6.3364    6.0362  -13.7424 C   0  0  0  0  0  0  0  0  0  0  0  0
   -5.2740    6.6059  -13.5469 O   0  0  0  0  0  0  0  0  0  0  0  0
   -6.8162    5.6393  -15.0922 C   0  0  0  0  0  0  0  0  0  0  0  0
   -6.0331    5.9681  -16.2018 C   0  0  0  0  0  0  0  0  0  0  0  0
   -6.4133    5.5754  -17.4932 C   0  0  0  0  0  0  0  0  0  0  0  0
   -5.4733    5.7522  -18.5176 N   0  0  0  0  0  0  0  0  0  0  0  0
   -5.2403    4.9449  -19.8197 C   0  0  0  0  0  0  0  0  0  0  0  0
   -5.8442    4.0551  -20.2781 O   0  0  0  0  0  0  0  0  0  0  0  0
   -4.0620    5.4170  -20.5769 C   0  0  0  0  0  0  0  0  0  0  0  0
   -4.3845    5.7213  -21.9064 C   0  0  0  0  0  0  0  0  0  0  0  0
   -3.3901    6.1752  -22.7349 C   0  0  0  0  0  0  0  0  0  0  0  0
   -3.6638    6.5124  -24.1678 C   0  0  0  0  0  0  0  0  0  0  0  0
   -2.1280    6.3247  -22.3010 N   0  0  0  0  0  0  0  0  0  0  0  0
   -1.8138    6.0296  -21.0343 C   0  0  0  0  0  0  0  0  0  0  0  0
   -0.4889    6.2733  -20.7130 C   0  0  0  0  0  0  0  0  0  0  0  0
    0.0130    6.0667  -19.4393 C   0  0  0  0  0  0  0  0  0  0  0  0
   -0.8301    5.5604  -18.4717 C   0  0  0  0  0  0  0  0  0  0  0  0
   -2.1662    5.2542  -18.7791 C   0  0  0  0  0  0  0  0  0  0  0  0
   -3.0764    4.4066  -17.3515 Br  0  0  0  0  0  0  0  0  0  0  0  0
   -2.7262    5.5398  -20.0718 C   0  0  0  0  0  0  0  0  0  0  0  0
   -7.6536    4.9829  -17.7145 C   0  0  0  0  0  0  0  0  0  0  0  0
   -8.1357    4.8137  -18.9484 N   0  0  0  0  0  0  0  0  0  0  0  0
   -9.3983    4.3998  -19.1103 C   0  0  0  0  0  0  0  0  0  0  0  0
  -10.2174    4.0577  -18.0651 C   0  0  0  0  0  0  0  0  0  0  0  0
   -9.6921    4.1435  -16.7934 C   0  0  0  0  0  0  0  0  0  0  0  0
   -8.4351    4.6756  -16.5912 C   0  0  0  0  0  0  0  0  0  0  0  0
   -8.0094    4.9513  -15.2898 C   0  0  0  0  0  0  0  0  0  0  0  0
  1  2  1  0
  2  3  1  0
  3  4  2  0
  3  5  1  0
  5  6  2  0
  6  7  1  0
  7  8  1  0
  8  9  1  0
  9 10  2  0
  9 11  1  0
 11 12  2  0
 12 13  1  0
 13 14  1  0
 13 15  2  0
 15 16  1  0
 16 17  2  0
 17 18  1  0
 18 19  2  0
 19 20  1  0
 20 21  1  0
 20 22  2  0
  7 23  2  0
 23 24  1  0
 24 25  2  0
 25 26  1  0
 26 27  2  0
 27 28  1  0
 28 29  2  0
 29  5  1  0
 22 11  1  0
 28 23  1  0
 22 16  1  0
M  END
>  <fragmenstein_outcome>  (367) 
nan

>  <exports>  (367) 
['/opt/xchem-fragalysis-2/maxwin/openbind-hippo/xx01zvns2b/cycle_01/syndirella/elabs/openbind_xx01zvns2b_c1_elab_chemspace_filtered.sdf']

>  <Energy>  (367) 
nan

>  <alias>  (367) 
None

>  <fragmenstein_runtime>  (367) 
nan

>  <scratch_subdir>  (367) 
nan

>  <HIPPO Compound ID>  (367) 
142251

>  <rmsd(smina/fragmenstein)>  (367) 
1.901

>  <distance_score>  (367) 
1.591431

>  <orig_smiles>  (367) 
nan

>  <fragmenstein_mode>  (367) 
nan

>  <inchikey>  (367) 
MIPHUDHINQIETP-UHFFFAOYSA-N

>  <ref_pdb>  (367) 
Z0852a

>  <GNINA pK>  (367) 
nan

>  <gnina_score_min>  (367) 
6.047

>  <tags>  (367) 
openbind_xx01zvns2b_c1_elab_nonasap_filtered_scored_top80percent,openbind_xx01zvns2b_c1_elab_chemspace_filtered_scored_top80percent,openbind_xx01zvns2b_c1_elab_chemspace_filtered_scored,openbind_xx01zvns2b_c1_elab_chemspace_filtered_scored_top40percent,openbind_xx01zvns2b_c1_elab_chemspace_filtered_scored_top20percent,openbind_xx01zvns2b_c1_elab_chemspace_filtered_scored_top60percent,openbind_xx01zvns2b_c1_elabs_filtered

>  <smiles>  (367) 
COC(=O)c1cc(NC(=O)c2cc(C)nc3cccc(Br)c23)c2ncccc2c1

>  <subsites>  (367) 
1 - Z4590/B/203/1

>  <gnina_score>  (367) 
5.978

>  <HIPPO Pose ID>  (367) 
70317

>  <ref_mols>  (367) 
Z0917a,Z0852a

>  <energy_score>  (367) 
-27.635598

>  <inspiration_score>  (367) 
None

>  <smina_score_min>  (367) 
-5.8

>  <fragmenstein_error>  (367) 
nan

>  <name>  (367) 
P70317

$$$$
P70318
     RDKit          3D

 29 32  0  0  0  0  0  0  0  0999 V2000
   -3.4730    6.3936  -23.8711 C   0  0  0  0  0  0  0  0  0  0  0  0
   -3.2797    6.1083  -22.4148 C   0  0  0  0  0  0  0  0  0  0  0  0
   -4.3035    5.6314  -21.6369 C   0  0  0  0  0  0  0  0  0  0  0  0
   -4.0604    5.3559  -20.2785 C   0  0  0  0  0  0  0  0  0  0  0  0
   -5.2737    4.8220  -19.6142 C   0  0  0  0  0  0  0  0  0  0  0  0
   -5.8411    3.9791  -20.1936 O   0  0  0  0  0  0  0  0  0  0  0  0
   -5.6271    5.5427  -18.2874 N   0  0  0  0  0  0  0  0  0  0  0  0
   -6.6703    5.3161  -17.3778 C   0  0  0  0  0  0  0  0  0  0  0  0
   -6.4912    5.6760  -16.0312 C   0  0  0  0  0  0  0  0  0  0  0  0
   -7.4738    5.3803  -15.0714 C   0  0  0  0  0  0  0  0  0  0  0  0
   -7.3841    5.8506  -13.6482 C   0  0  0  0  0  0  0  0  0  0  0  0
   -6.3201    5.3382  -12.9815 F   0  0  0  0  0  0  0  0  0  0  0  0
   -7.2688    7.2071  -13.5732 F   0  0  0  0  0  0  0  0  0  0  0  0
   -8.4881    5.5462  -12.9063 F   0  0  0  0  0  0  0  0  0  0  0  0
   -8.6142    4.7032  -15.4683 C   0  0  0  0  0  0  0  0  0  0  0  0
   -8.8398    4.4994  -16.8157 C   0  0  0  0  0  0  0  0  0  0  0  0
  -10.1088    4.1531  -17.1973 C   0  0  0  0  0  0  0  0  0  0  0  0
  -10.4974    4.3091  -18.4919 C   0  0  0  0  0  0  0  0  0  0  0  0
   -9.5102    4.5238  -19.4103 C   0  0  0  0  0  0  0  0  0  0  0  0
   -8.2227    4.7013  -19.0871 N   0  0  0  0  0  0  0  0  0  0  0  0
   -7.8896    4.7884  -17.7982 C   0  0  0  0  0  0  0  0  0  0  0  0
   -2.7649    5.5458  -19.6961 C   0  0  0  0  0  0  0  0  0  0  0  0
   -2.2659    5.3054  -18.3679 C   0  0  0  0  0  0  0  0  0  0  0  0
   -3.2071    4.4391  -16.9673 Br  0  0  0  0  0  0  0  0  0  0  0  0
   -0.9637    5.6761  -17.9901 C   0  0  0  0  0  0  0  0  0  0  0  0
   -0.0887    6.2045  -18.9164 C   0  0  0  0  0  0  0  0  0  0  0  0
   -0.5244    6.3673  -20.2204 C   0  0  0  0  0  0  0  0  0  0  0  0
   -1.8160    6.0601  -20.6144 C   0  0  0  0  0  0  0  0  0  0  0  0
   -2.0578    6.3196  -21.9044 N   0  0  0  0  0  0  0  0  0  0  0  0
  1  2  1  0
  2  3  2  0
  3  4  1  0
  4  5  1  0
  5  6  2  0
  5  7  1  0
  7  8  1  0
  8  9  2  0
  9 10  1  0
 10 11  1  0
 11 12  1  0
 11 13  1  0
 11 14  1  0
 10 15  2  0
 15 16  1  0
 16 17  2  0
 17 18  1  0
 18 19  2  0
 19 20  1  0
 20 21  2  0
  4 22  2  0
 22 23  1  0
 23 24  1  0
 23 25  2  0
 25 26  1  0
 26 27  2  0
 27 28  1  0
 28 29  2  0
 29  2  1  0
 21  8  1  0
 28 22  1  0
 21 16  1  0
M  END
>  <fragmenstein_outcome>  (368) 
nan

>  <exports>  (368) 
['/opt/xchem-fragalysis-2/maxwin/openbind-hippo/xx01zvns2b/cycle_01/syndirella/elabs/openbind_xx01zvns2b_c1_elab_chemspace_filtered.sdf']

>  <Energy>  (368) 
nan

>  <alias>  (368) 
None

>  <fragmenstein_runtime>  (368) 
nan

>  <scratch_subdir>  (368) 
nan

>  <HIPPO Compound ID>  (368) 
142252

>  <rmsd(smina/fragmenstein)>  (368) 
2.626

>  <distance_score>  (368) 
1.055432

>  <orig_smiles>  (368) 
nan

>  <fragmenstein_mode>  (368) 
nan

>  <inchikey>  (368) 
SXDMSMBSCJRZMQ-UHFFFAOYSA-N

>  <ref_pdb>  (368) 
Z0852a

>  <GNINA pK>  (368) 
nan

>  <gnina_score_min>  (368) 
6.062

>  <tags>  (368) 
openbind_xx01zvns2b_c1_elab_nonasap_filtered_scored_top80percent,openbind_xx01zvns2b_c1_elab_chemspace_filtered_scored_top80percent,openbind_xx01zvns2b_c1_elab_chemspace_filtered_scored,openbind_xx01zvns2b_c1_elab_chemspace_filtered_scored_top40percent,openbind_xx01zvns2b_c1_elab_chemspace_filtered_scored_top20percent,openbind_xx01zvns2b_c1_elab_chemspace_filtered_scored_top60percent,openbind_xx01zvns2b_c1_elabs_filtered

>  <smiles>  (368) 
Cc1cc(C(=O)Nc2cc(C(F)(F)F)cc3cccnc23)c2c(Br)cccc2n1

>  <subsites>  (368) 
1 - Z4590/B/203/1

>  <gnina_score>  (368) 
5.826

>  <HIPPO Pose ID>  (368) 
70318

>  <ref_mols>  (368) 
Z0917a,Z0852a

>  <energy_score>  (368) 
-19.541052

>  <inspiration_score>  (368) 
None

>  <smina_score_min>  (368) 
-6.132

>  <fragmenstein_error>  (368) 
nan

>  <name>  (368) 
P70318

$$$$
P70319
     RDKit          3D

 29 32  0  0  0  0  0  0  0  0999 V2000
   -4.4335    6.4541  -23.3771 C   0  0  0  0  0  0  0  0  0  0  0  0
   -3.7917    6.1539  -22.0576 C   0  0  0  0  0  0  0  0  0  0  0  0
   -4.5215    6.2269  -20.8952 C   0  0  0  0  0  0  0  0  0  0  0  0
   -3.8381    6.0769  -19.6836 C   0  0  0  0  0  0  0  0  0  0  0  0
   -4.6444    6.2877  -18.4687 C   0  0  0  0  0  0  0  0  0  0  0  0
   -4.4375    7.1943  -17.7695 O   0  0  0  0  0  0  0  0  0  0  0  0
   -5.6390    5.1314  -18.3283 N   0  0  0  0  0  0  0  0  0  0  0  0
   -6.6192    4.9007  -17.3839 C   0  0  0  0  0  0  0  0  0  0  0  0
   -6.4362    5.2360  -16.0459 C   0  0  0  0  0  0  0  0  0  0  0  0
   -7.4729    5.0654  -15.1124 C   0  0  0  0  0  0  0  0  0  0  0  0
   -7.3035    5.5302  -13.6698 C   0  0  0  0  0  0  0  0  0  0  0  0
   -6.9960    7.0298  -13.7021 C   0  0  0  0  0  0  0  0  0  0  0  0
   -6.1511    4.7731  -12.9991 C   0  0  0  0  0  0  0  0  0  0  0  0
   -8.5549    5.3480  -12.7903 C   0  0  0  0  0  0  0  0  0  0  0  0
   -8.6871    4.5740  -15.5781 C   0  0  0  0  0  0  0  0  0  0  0  0
   -8.8794    4.3721  -16.9381 C   0  0  0  0  0  0  0  0  0  0  0  0
  -10.1578    4.2567  -17.4205 C   0  0  0  0  0  0  0  0  0  0  0  0
  -10.3857    4.4339  -18.7487 C   0  0  0  0  0  0  0  0  0  0  0  0
   -9.3077    4.3567  -19.5886 C   0  0  0  0  0  0  0  0  0  0  0  0
   -8.0341    4.3035  -19.1795 N   0  0  0  0  0  0  0  0  0  0  0  0
   -7.8377    4.4604  -17.8606 C   0  0  0  0  0  0  0  0  0  0  0  0
   -2.4442    5.8216  -19.6145 C   0  0  0  0  0  0  0  0  0  0  0  0
   -1.6141    5.6232  -18.4616 C   0  0  0  0  0  0  0  0  0  0  0  0
   -2.2332    5.4515  -16.6641 Br  0  0  0  0  0  0  0  0  0  0  0  0
   -0.2227    5.5226  -18.5864 C   0  0  0  0  0  0  0  0  0  0  0  0
    0.3648    5.5519  -19.8366 C   0  0  0  0  0  0  0  0  0  0  0  0
   -0.4419    5.6666  -20.9626 C   0  0  0  0  0  0  0  0  0  0  0  0
   -1.8165    5.7972  -20.8770 C   0  0  0  0  0  0  0  0  0  0  0  0
   -2.4622    5.9420  -22.0471 N   0  0  0  0  0  0  0  0  0  0  0  0
  1  2  1  0
  2  3  2  0
  3  4  1  0
  4  5  1  0
  5  6  2  0
  5  7  1  0
  7  8  1  0
  8  9  2  0
  9 10  1  0
 10 11  1  0
 11 12  1  0
 11 13  1  0
 11 14  1  0
 10 15  2  0
 15 16  1  0
 16 17  2  0
 17 18  1  0
 18 19  2  0
 19 20  1  0
 20 21  2  0
  4 22  2  0
 22 23  1  0
 23 24  1  0
 23 25  2  0
 25 26  1  0
 26 27  2  0
 27 28  1  0
 28 29  2  0
 29  2  1  0
 21  8  1  0
 28 22  1  0
 21 16  1  0
M  END
>  <fragmenstein_outcome>  (369) 
nan

>  <exports>  (369) 
['/opt/xchem-fragalysis-2/maxwin/openbind-hippo/xx01zvns2b/cycle_01/syndirella/elabs/openbind_xx01zvns2b_c1_elab_chemspace_filtered.sdf']

>  <Energy>  (369) 
nan

>  <alias>  (369) 
None

>  <fragmenstein_runtime>  (369) 
nan

>  <scratch_subdir>  (369) 
nan

>  <HIPPO Compound ID>  (369) 
142253

>  <rmsd(smina/fragmenstein)>  (369) 
1.3

>  <distance_score>  (369) 
1.730357

>  <orig_smiles>  (369) 
nan

>  <fragmenstein_mode>  (369) 
nan

>  <inchikey>  (369) 
RAKFTZZXWCHVMV-UHFFFAOYSA-N

>  <ref_pdb>  (369) 
Z0852a

>  <GNINA pK>  (369) 
nan

>  <gnina_score_min>  (369) 
6.274

>  <tags>  (369) 
openbind_xx01zvns2b_c1_elab_nonasap_filtered_scored_top80percent,openbind_xx01zvns2b_c1_elab_chemspace_filtered_scored_top80percent,openbind_xx01zvns2b_c1_elab_chemspace_filtered_scored,openbind_xx01zvns2b_c1_elab_chemspace_filtered_scored_top40percent,openbind_xx01zvns2b_c1_elab_chemspace_filtered_scored_top20percent,openbind_xx01zvns2b_c1_elab_chemspace_filtered_scored_top60percent,openbind_xx01zvns2b_c1_elabs_filtered

>  <smiles>  (369) 
Cc1cc(C(=O)Nc2cc(C(C)(C)C)cc3cccnc23)c2c(Br)cccc2n1

>  <subsites>  (369) 
1 - Z4590/B/203/1

>  <gnina_score>  (369) 
6.312

>  <HIPPO Pose ID>  (369) 
70319

>  <ref_mols>  (369) 
Z0917a,Z0852a

>  <energy_score>  (369) 
-49.226377

>  <inspiration_score>  (369) 
None

>  <smina_score_min>  (369) 
-6.579

>  <fragmenstein_error>  (369) 
nan

>  <name>  (369) 
P70319

$$$$
P70320
     RDKit          3D

 29 32  0  0  0  0  0  0  0  0999 V2000
   -8.5223    5.2777  -12.8504 C   0  0  0  0  0  0  0  0  0  0  0  0
   -7.3189    5.4196  -13.8036 C   0  0  0  0  0  0  0  0  0  0  0  0
   -6.1657    4.5880  -13.2341 C   0  0  0  0  0  0  0  0  0  0  0  0
   -6.9368    6.9044  -13.8056 C   0  0  0  0  0  0  0  0  0  0  0  0
   -7.6058    5.0087  -15.2453 C   0  0  0  0  0  0  0  0  0  0  0  0
   -6.6772    5.2523  -16.2689 C   0  0  0  0  0  0  0  0  0  0  0  0
   -7.0055    5.0357  -17.6116 C   0  0  0  0  0  0  0  0  0  0  0  0
   -6.0341    5.2800  -18.5636 N   0  0  0  0  0  0  0  0  0  0  0  0
   -5.8402    4.6794  -19.9878 C   0  0  0  0  0  0  0  0  0  0  0  0
   -6.5160    3.9453  -20.6006 O   0  0  0  0  0  0  0  0  0  0  0  0
   -4.5420    5.0757  -20.5299 C   0  0  0  0  0  0  0  0  0  0  0  0
   -4.4852    5.5920  -21.8170 C   0  0  0  0  0  0  0  0  0  0  0  0
   -5.5729    5.7548  -22.6215 O   0  0  0  0  0  0  0  0  0  0  0  0
   -3.2581    6.0242  -22.2520 C   0  0  0  0  0  0  0  0  0  0  0  0
   -2.1662    6.0615  -21.4578 N   0  0  0  0  0  0  0  0  0  0  0  0
   -2.2624    5.6035  -20.1850 C   0  0  0  0  0  0  0  0  0  0  0  0
   -1.2399    5.7794  -19.2670 C   0  0  0  0  0  0  0  0  0  0  0  0
   -0.1346    6.3980  -19.6566 F   0  0  0  0  0  0  0  0  0  0  0  0
   -1.3027    5.4277  -17.9213 C   0  0  0  0  0  0  0  0  0  0  0  0
   -2.4034    4.7463  -17.4622 C   0  0  0  0  0  0  0  0  0  0  0  0
   -3.4147    4.4718  -18.3623 C   0  0  0  0  0  0  0  0  0  0  0  0
   -3.4137    5.0126  -19.6847 C   0  0  0  0  0  0  0  0  0  0  0  0
   -8.2720    4.6611  -17.9717 C   0  0  0  0  0  0  0  0  0  0  0  0
   -8.6546    4.7543  -19.2364 N   0  0  0  0  0  0  0  0  0  0  0  0
   -9.9525    4.7446  -19.5070 C   0  0  0  0  0  0  0  0  0  0  0  0
  -10.9045    4.4668  -18.5763 C   0  0  0  0  0  0  0  0  0  0  0  0
  -10.4702    4.1330  -17.3315 C   0  0  0  0  0  0  0  0  0  0  0  0
   -9.1709    4.3700  -16.9614 C   0  0  0  0  0  0  0  0  0  0  0  0
   -8.8294    4.4682  -15.6166 C   0  0  0  0  0  0  0  0  0  0  0  0
  1  2  1  0
  2  3  1  0
  2  4  1  0
  2  5  1  0
  5  6  2  0
  6  7  1  0
  7  8  1  0
  8  9  1  0
  9 10  2  0
  9 11  1  0
 11 12  2  0
 12 13  1  0
 12 14  1  0
 14 15  2  0
 15 16  1  0
 16 17  2  0
 17 18  1  0
 17 19  1  0
 19 20  2  0
 20 21  1  0
 21 22  2  0
  7 23  2  0
 23 24  1  0
 24 25  2  0
 25 26  1  0
 26 27  2  0
 27 28  1  0
 28 29  2  0
 29  5  1  0
 22 11  1  0
 28 23  1  0
 22 16  1  0
M  END
>  <fragmenstein_outcome>  (370) 
nan

>  <exports>  (370) 
['/opt/xchem-fragalysis-2/maxwin/openbind-hippo/xx01zvns2b/cycle_01/syndirella/elabs/openbind_xx01zvns2b_c1_elab_chemspace_filtered.sdf']

>  <Energy>  (370) 
nan

>  <alias>  (370) 
None

>  <fragmenstein_runtime>  (370) 
nan

>  <scratch_subdir>  (370) 
nan

>  <HIPPO Compound ID>  (370) 
142257

>  <rmsd(smina/fragmenstein)>  (370) 
1.608

>  <distance_score>  (370) 
1.452357

>  <orig_smiles>  (370) 
nan

>  <fragmenstein_mode>  (370) 
nan

>  <inchikey>  (370) 
FLWMVXIPWSSRKO-UHFFFAOYSA-N

>  <ref_pdb>  (370) 
Z0852a

>  <GNINA pK>  (370) 
nan

>  <gnina_score_min>  (370) 
6.024

>  <tags>  (370) 
openbind_xx01zvns2b_c1_elab_nonasap_filtered_scored_top80percent,openbind_xx01zvns2b_c1_elab_chemspace_filtered_scored_top80percent,openbind_xx01zvns2b_c1_elab_chemspace_filtered_scored,openbind_xx01zvns2b_c1_elab_chemspace_filtered_scored_top40percent,openbind_xx01zvns2b_c1_elab_chemspace_filtered_scored_top20percent,openbind_xx01zvns2b_c1_elab_chemspace_filtered_scored_top60percent,openbind_xx01zvns2b_c1_elabs_filtered

>  <smiles>  (370) 
CC(C)(C)c1cc(NC(=O)c2c(O)cnc3c(F)cccc23)c2ncccc2c1

>  <subsites>  (370) 
1 - Z4590/B/203/1

>  <gnina_score>  (370) 
5.864

>  <HIPPO Pose ID>  (370) 
70320

>  <ref_mols>  (370) 
Z0917a,Z0852a

>  <energy_score>  (370) 
-3.505112

>  <inspiration_score>  (370) 
None

>  <smina_score_min>  (370) 
-6.817

>  <fragmenstein_error>  (370) 
nan

>  <name>  (370) 
P70320

$$$$
P70321
     RDKit          3D

 29 32  0  0  0  0  0  0  0  0999 V2000
   -3.2139    6.3535  -23.8923 C   0  0  0  0  0  0  0  0  0  0  0  0
   -3.1270    6.0377  -22.4307 C   0  0  0  0  0  0  0  0  0  0  0  0
   -4.2186    5.5473  -21.7487 C   0  0  0  0  0  0  0  0  0  0  0  0
   -4.0792    5.2420  -20.3906 C   0  0  0  0  0  0  0  0  0  0  0  0
   -5.3066    4.7063  -19.7487 C   0  0  0  0  0  0  0  0  0  0  0  0
   -5.9320    3.9413  -20.3784 O   0  0  0  0  0  0  0  0  0  0  0  0
   -5.5406    5.2612  -18.3109 N   0  0  0  0  0  0  0  0  0  0  0  0
   -6.6088    5.0662  -17.4216 C   0  0  0  0  0  0  0  0  0  0  0  0
   -6.4133    5.4100  -16.0704 C   0  0  0  0  0  0  0  0  0  0  0  0
   -7.4339    5.2199  -15.1215 C   0  0  0  0  0  0  0  0  0  0  0  0
   -7.3420    5.7273  -13.7088 C   0  0  0  0  0  0  0  0  0  0  0  0
   -8.4340    5.4245  -12.9490 F   0  0  0  0  0  0  0  0  0  0  0  0
   -7.2502    7.0878  -13.6701 F   0  0  0  0  0  0  0  0  0  0  0  0
   -6.2631    5.2532  -13.0380 F   0  0  0  0  0  0  0  0  0  0  0  0
   -8.6232    4.6391  -15.5288 C   0  0  0  0  0  0  0  0  0  0  0  0
   -8.8483    4.4374  -16.8768 C   0  0  0  0  0  0  0  0  0  0  0  0
  -10.1374    4.1848  -17.2696 C   0  0  0  0  0  0  0  0  0  0  0  0
  -10.5022    4.3720  -18.5653 C   0  0  0  0  0  0  0  0  0  0  0  0
   -9.4919    4.5025  -19.4725 C   0  0  0  0  0  0  0  0  0  0  0  0
   -8.1967    4.5771  -19.1399 N   0  0  0  0  0  0  0  0  0  0  0  0
   -7.8659    4.6429  -17.8508 C   0  0  0  0  0  0  0  0  0  0  0  0
   -2.8382    5.4116  -19.7347 C   0  0  0  0  0  0  0  0  0  0  0  0
   -2.5540    5.0925  -18.3807 C   0  0  0  0  0  0  0  0  0  0  0  0
   -1.3412    5.4595  -17.8039 C   0  0  0  0  0  0  0  0  0  0  0  0
   -0.3581    6.0234  -18.5952 C   0  0  0  0  0  0  0  0  0  0  0  0
    0.8214    6.3480  -18.0504 F   0  0  0  0  0  0  0  0  0  0  0  0
   -0.5782    6.2443  -19.9445 C   0  0  0  0  0  0  0  0  0  0  0  0
   -1.8023    5.9572  -20.5231 C   0  0  0  0  0  0  0  0  0  0  0  0
   -1.9420    6.2491  -21.8239 N   0  0  0  0  0  0  0  0  0  0  0  0
  1  2  1  0
  2  3  2  0
  3  4  1  0
  4  5  1  0
  5  6  2  0
  5  7  1  0
  7  8  1  0
  8  9  2  0
  9 10  1  0
 10 11  1  0
 11 12  1  0
 11 13  1  0
 11 14  1  0
 10 15  2  0
 15 16  1  0
 16 17  2  0
 17 18  1  0
 18 19  2  0
 19 20  1  0
 20 21  2  0
  4 22  2  0
 22 23  1  0
 23 24  2  0
 24 25  1  0
 25 26  1  0
 25 27  2  0
 27 28  1  0
 28 29  2  0
 29  2  1  0
 21  8  1  0
 28 22  1  0
 21 16  1  0
M  END
>  <fragmenstein_outcome>  (371) 
nan

>  <exports>  (371) 
['/opt/xchem-fragalysis-2/maxwin/openbind-hippo/xx01zvns2b/cycle_01/syndirella/elabs/openbind_xx01zvns2b_c1_elab_chemspace_filtered.sdf']

>  <Energy>  (371) 
nan

>  <alias>  (371) 
None

>  <fragmenstein_runtime>  (371) 
nan

>  <scratch_subdir>  (371) 
nan

>  <HIPPO Compound ID>  (371) 
142258

>  <rmsd(smina/fragmenstein)>  (371) 
1.414

>  <distance_score>  (371) 
1.078596

>  <orig_smiles>  (371) 
nan

>  <fragmenstein_mode>  (371) 
nan

>  <inchikey>  (371) 
FHSMBLMYNSDIJI-UHFFFAOYSA-N

>  <ref_pdb>  (371) 
Z0852a

>  <GNINA pK>  (371) 
nan

>  <gnina_score_min>  (371) 
6.175

>  <tags>  (371) 
openbind_xx01zvns2b_c1_elab_nonasap_filtered_scored_top80percent,openbind_xx01zvns2b_c1_elab_chemspace_filtered_scored_top80percent,openbind_xx01zvns2b_c1_elab_chemspace_filtered_scored,openbind_xx01zvns2b_c1_elab_chemspace_filtered_scored_top40percent,openbind_xx01zvns2b_c1_elab_chemspace_filtered_scored_top20percent,openbind_xx01zvns2b_c1_elab_chemspace_filtered_scored_top60percent,openbind_xx01zvns2b_c1_elabs_filtered

>  <smiles>  (371) 
Cc1cc(C(=O)Nc2cc(C(F)(F)F)cc3cccnc23)c2ccc(F)cc2n1

>  <subsites>  (371) 
1 - Z4590/B/203/1

>  <gnina_score>  (371) 
5.659

>  <HIPPO Pose ID>  (371) 
70321

>  <ref_mols>  (371) 
Z0917a,Z0852a

>  <energy_score>  (371) 
-0.648383

>  <inspiration_score>  (371) 
None

>  <smina_score_min>  (371) 
-6.683

>  <fragmenstein_error>  (371) 
nan

>  <name>  (371) 
P70321

$$$$
P70322
     RDKit          3D

 29 32  0  0  0  0  0  0  0  0999 V2000
   -3.2231    6.4017  -24.0331 C   0  0  0  0  0  0  0  0  0  0  0  0
   -3.1274    6.0566  -22.5785 C   0  0  0  0  0  0  0  0  0  0  0  0
   -4.2187    5.5611  -21.9001 C   0  0  0  0  0  0  0  0  0  0  0  0
   -4.0716    5.2302  -20.5509 C   0  0  0  0  0  0  0  0  0  0  0  0
   -5.3002    4.6992  -19.9074 C   0  0  0  0  0  0  0  0  0  0  0  0
   -5.9377    3.9356  -20.5252 O   0  0  0  0  0  0  0  0  0  0  0  0
   -5.5062    5.2533  -18.4678 N   0  0  0  0  0  0  0  0  0  0  0  0
   -6.5561    5.0598  -17.5599 C   0  0  0  0  0  0  0  0  0  0  0  0
   -6.3175    5.4124  -16.2176 C   0  0  0  0  0  0  0  0  0  0  0  0
   -7.2975    5.2424  -15.2220 C   0  0  0  0  0  0  0  0  0  0  0  0
   -7.1083    5.7429  -13.7913 C   0  0  0  0  0  0  0  0  0  0  0  0
   -8.3949    5.6598  -12.9585 C   0  0  0  0  0  0  0  0  0  0  0  0
   -6.6937    7.2260  -13.7818 C   0  0  0  0  0  0  0  0  0  0  0  0
   -6.0365    4.8994  -13.0931 C   0  0  0  0  0  0  0  0  0  0  0  0
   -8.4892    4.6401  -15.5996 C   0  0  0  0  0  0  0  0  0  0  0  0
   -8.7658    4.4342  -16.9364 C   0  0  0  0  0  0  0  0  0  0  0  0
  -10.0719    4.1814  -17.2704 C   0  0  0  0  0  0  0  0  0  0  0  0
  -10.4855    4.3549  -18.5534 C   0  0  0  0  0  0  0  0  0  0  0  0
   -9.5076    4.4842  -19.4983 C   0  0  0  0  0  0  0  0  0  0  0  0
   -8.1990    4.5517  -19.2197 N   0  0  0  0  0  0  0  0  0  0  0  0
   -7.8221    4.6325  -17.9451 C   0  0  0  0  0  0  0  0  0  0  0  0
   -2.8268    5.3869  -19.8955 C   0  0  0  0  0  0  0  0  0  0  0  0
   -2.5385    5.0527  -18.5455 C   0  0  0  0  0  0  0  0  0  0  0  0
   -1.3263    5.4183  -17.9672 C   0  0  0  0  0  0  0  0  0  0  0  0
   -0.3445    5.9892  -18.7546 C   0  0  0  0  0  0  0  0  0  0  0  0
    0.8335    6.3151  -18.2069 F   0  0  0  0  0  0  0  0  0  0  0  0
   -0.5671    6.2220  -20.1012 C   0  0  0  0  0  0  0  0  0  0  0  0
   -1.7931    5.9420  -20.6791 C   0  0  0  0  0  0  0  0  0  0  0  0
   -1.9383    6.2545  -21.9743 N   0  0  0  0  0  0  0  0  0  0  0  0
  1  2  1  0
  2  3  2  0
  3  4  1  0
  4  5  1  0
  5  6  2  0
  5  7  1  0
  7  8  1  0
  8  9  2  0
  9 10  1  0
 10 11  1  0
 11 12  1  0
 11 13  1  0
 11 14  1  0
 10 15  2  0
 15 16  1  0
 16 17  2  0
 17 18  1  0
 18 19  2  0
 19 20  1  0
 20 21  2  0
  4 22  2  0
 22 23  1  0
 23 24  2  0
 24 25  1  0
 25 26  1  0
 25 27  2  0
 27 28  1  0
 28 29  2  0
 29  2  1  0
 21  8  1  0
 28 22  1  0
 21 16  1  0
M  END
>  <fragmenstein_outcome>  (372) 
nan

>  <exports>  (372) 
['/opt/xchem-fragalysis-2/maxwin/openbind-hippo/xx01zvns2b/cycle_01/syndirella/elabs/openbind_xx01zvns2b_c1_elab_chemspace_filtered.sdf']

>  <Energy>  (372) 
nan

>  <alias>  (372) 
None

>  <fragmenstein_runtime>  (372) 
nan

>  <scratch_subdir>  (372) 
nan

>  <HIPPO Compound ID>  (372) 
142259

>  <rmsd(smina/fragmenstein)>  (372) 
1.489

>  <distance_score>  (372) 
1.403249

>  <orig_smiles>  (372) 
nan

>  <fragmenstein_mode>  (372) 
nan

>  <inchikey>  (372) 
QYGLQLYHVYKLMV-UHFFFAOYSA-N

>  <ref_pdb>  (372) 
Z0852a

>  <GNINA pK>  (372) 
nan

>  <gnina_score_min>  (372) 
6.486

>  <tags>  (372) 
openbind_xx01zvns2b_c1_elab_nonasap_filtered_scored_top80percent,openbind_xx01zvns2b_c1_elab_chemspace_filtered_scored_top80percent,openbind_xx01zvns2b_c1_elab_chemspace_filtered_scored,openbind_xx01zvns2b_c1_elab_chemspace_filtered_scored_top40percent,openbind_xx01zvns2b_c1_elab_chemspace_filtered_scored_top20percent,openbind_xx01zvns2b_c1_elab_chemspace_filtered_scored_top60percent,openbind_xx01zvns2b_c1_elabs_filtered

>  <smiles>  (372) 
Cc1cc(C(=O)Nc2cc(C(C)(C)C)cc3cccnc23)c2ccc(F)cc2n1

>  <subsites>  (372) 
1 - Z4590/B/203/1

>  <gnina_score>  (372) 
5.882

>  <HIPPO Pose ID>  (372) 
70322

>  <ref_mols>  (372) 
Z0917a,Z0852a

>  <energy_score>  (372) 
-27.771371

>  <inspiration_score>  (372) 
None

>  <smina_score_min>  (372) 
-6.701

>  <fragmenstein_error>  (372) 
nan

>  <name>  (372) 
P70322

$$$$
P70323
     RDKit          3D

 29 32  0  0  0  0  0  0  0  0999 V2000
   -5.2288    5.9806  -22.4214 C   0  0  0  0  0  0  0  0  0  0  0  0
   -4.0063    5.7907  -21.5727 C   0  0  0  0  0  0  0  0  0  0  0  0
   -3.9988    5.3548  -20.2898 C   0  0  0  0  0  0  0  0  0  0  0  0
   -5.3003    4.8268  -19.7493 C   0  0  0  0  0  0  0  0  0  0  0  0
   -5.9048    4.0265  -20.3538 O   0  0  0  0  0  0  0  0  0  0  0  0
   -5.6004    5.4906  -18.3684 N   0  0  0  0  0  0  0  0  0  0  0  0
   -6.6228    5.2403  -17.4408 C   0  0  0  0  0  0  0  0  0  0  0  0
   -6.4169    5.5940  -16.0948 C   0  0  0  0  0  0  0  0  0  0  0  0
   -7.4002    5.3304  -15.1220 C   0  0  0  0  0  0  0  0  0  0  0  0
   -7.3046    5.8216  -13.7043 C   0  0  0  0  0  0  0  0  0  0  0  0
   -7.2026    7.1802  -13.6491 F   0  0  0  0  0  0  0  0  0  0  0  0
   -6.2301    5.3295  -13.0395 F   0  0  0  0  0  0  0  0  0  0  0  0
   -8.3990    5.5177  -12.9475 F   0  0  0  0  0  0  0  0  0  0  0  0
   -8.5605    4.6769  -15.5022 C   0  0  0  0  0  0  0  0  0  0  0  0
   -8.8042    4.4697  -16.8447 C   0  0  0  0  0  0  0  0  0  0  0  0
  -10.0867    4.1518  -17.2065 C   0  0  0  0  0  0  0  0  0  0  0  0
  -10.4885    4.3118  -18.4966 C   0  0  0  0  0  0  0  0  0  0  0  0
   -9.5077    4.5061  -19.4270 C   0  0  0  0  0  0  0  0  0  0  0  0
   -8.2114    4.6521  -19.1216 N   0  0  0  0  0  0  0  0  0  0  0  0
   -7.8585    4.7335  -17.8398 C   0  0  0  0  0  0  0  0  0  0  0  0
   -2.7532    5.3968  -19.4930 C   0  0  0  0  0  0  0  0  0  0  0  0
   -2.6734    5.0583  -18.1362 C   0  0  0  0  0  0  0  0  0  0  0  0
   -1.5303    5.3646  -17.3926 C   0  0  0  0  0  0  0  0  0  0  0  0
   -0.3962    5.8727  -18.0188 C   0  0  0  0  0  0  0  0  0  0  0  0
   -0.4124    6.0917  -19.3904 C   0  0  0  0  0  0  0  0  0  0  0  0
   -1.5915    5.8774  -20.1082 C   0  0  0  0  0  0  0  0  0  0  0  0
   -1.6075    6.1896  -21.4644 N   0  0  0  0  0  0  0  0  0  0  0  0
   -2.7269    6.1732  -22.2367 C   0  0  0  0  0  0  0  0  0  0  0  0
   -2.6690    6.5063  -23.4172 O   0  0  0  0  0  0  0  0  0  0  0  0
  1  2  1  0
  2  3  2  0
  3  4  1  0
  4  5  2  0
  4  6  1  0
  6  7  1  0
  7  8  2  0
  8  9  1  0
  9 10  1  0
 10 11  1  0
 10 12  1  0
 10 13  1  0
  9 14  2  0
 14 15  1  0
 15 16  2  0
 16 17  1  0
 17 18  2  0
 18 19  1  0
 19 20  2  0
  3 21  1  0
 21 22  2  0
 22 23  1  0
 23 24  2  0
 24 25  1  0
 25 26  2  0
 26 27  1  0
 27 28  1  0
 28 29  2  0
 28  2  1  0
 20  7  1  0
 26 21  1  0
 20 15  1  0
M  END
>  <fragmenstein_outcome>  (373) 
nan

>  <exports>  (373) 
['/opt/xchem-fragalysis-2/maxwin/openbind-hippo/xx01zvns2b/cycle_01/syndirella/elabs/openbind_xx01zvns2b_c1_elab_chemspace_filtered.sdf']

>  <Energy>  (373) 
nan

>  <alias>  (373) 
None

>  <fragmenstein_runtime>  (373) 
nan

>  <scratch_subdir>  (373) 
nan

>  <HIPPO Compound ID>  (373) 
142266

>  <rmsd(smina/fragmenstein)>  (373) 
1.143

>  <distance_score>  (373) 
1.089586

>  <orig_smiles>  (373) 
nan

>  <fragmenstein_mode>  (373) 
nan

>  <inchikey>  (373) 
FHEDDJDXIIWXEP-UHFFFAOYSA-N

>  <ref_pdb>  (373) 
Z0852a

>  <GNINA pK>  (373) 
nan

>  <gnina_score_min>  (373) 
5.859

>  <tags>  (373) 
openbind_xx01zvns2b_c1_elab_nonasap_filtered_scored_top80percent,openbind_xx01zvns2b_c1_elab_chemspace_filtered_scored_top80percent,openbind_xx01zvns2b_c1_elab_chemspace_filtered_scored,openbind_xx01zvns2b_c1_elab_chemspace_filtered_scored_top40percent,openbind_xx01zvns2b_c1_elab_chemspace_filtered_scored_top20percent,openbind_xx01zvns2b_c1_elab_chemspace_filtered_scored_top60percent,openbind_xx01zvns2b_c1_elabs_filtered

>  <smiles>  (373) 
Cc1c(C(=O)Nc2cc(C(F)(F)F)cc3cccnc23)c2ccccc2[nH]c1=O

>  <subsites>  (373) 
1 - Z4590/B/203/1

>  <gnina_score>  (373) 
5.453

>  <HIPPO Pose ID>  (373) 
70323

>  <ref_mols>  (373) 
Z0917a,Z0852a

>  <energy_score>  (373) 
-9.747516

>  <inspiration_score>  (373) 
None

>  <smina_score_min>  (373) 
-6.258

>  <fragmenstein_error>  (373) 
nan

>  <name>  (373) 
P70323

$$$$
P70324
     RDKit          3D

 29 32  0  0  0  0  0  0  0  0999 V2000
   -3.0803    6.3081  -23.8704 C   0  0  0  0  0  0  0  0  0  0  0  0
   -3.0545    6.0030  -22.4047 C   0  0  0  0  0  0  0  0  0  0  0  0
   -4.1719    5.5197  -21.7656 C   0  0  0  0  0  0  0  0  0  0  0  0
   -4.0808    5.2191  -20.4046 C   0  0  0  0  0  0  0  0  0  0  0  0
   -5.3385    4.7104  -19.8019 C   0  0  0  0  0  0  0  0  0  0  0  0
   -5.9442    3.9293  -20.4313 O   0  0  0  0  0  0  0  0  0  0  0  0
   -5.6400    5.3347  -18.4059 N   0  0  0  0  0  0  0  0  0  0  0  0
   -6.6655    5.0620  -17.4890 C   0  0  0  0  0  0  0  0  0  0  0  0
   -6.4561    5.3755  -16.1303 C   0  0  0  0  0  0  0  0  0  0  0  0
   -7.4571    5.1545  -15.1662 C   0  0  0  0  0  0  0  0  0  0  0  0
   -7.4211    5.6655  -13.7253 C   0  0  0  0  0  0  0  0  0  0  0  0
   -6.0702    6.2560  -13.3104 C   0  0  0  0  0  0  0  0  0  0  0  0
   -7.8096    4.5650  -12.7210 C   0  0  0  0  0  0  0  0  0  0  0  0
   -8.4414    6.8026  -13.6039 C   0  0  0  0  0  0  0  0  0  0  0  0
   -8.6358    4.5528  -15.5929 C   0  0  0  0  0  0  0  0  0  0  0  0
   -8.8825    4.3890  -16.9396 C   0  0  0  0  0  0  0  0  0  0  0  0
  -10.1824    4.1672  -17.3178 C   0  0  0  0  0  0  0  0  0  0  0  0
  -10.5615    4.4047  -18.5994 C   0  0  0  0  0  0  0  0  0  0  0  0
   -9.5596    4.5399  -19.5149 C   0  0  0  0  0  0  0  0  0  0  0  0
   -8.2594    4.5810  -19.2011 N   0  0  0  0  0  0  0  0  0  0  0  0
   -7.9157    4.6236  -17.9150 C   0  0  0  0  0  0  0  0  0  0  0  0
   -2.8647    5.3821  -19.7023 C   0  0  0  0  0  0  0  0  0  0  0  0
   -2.6490    5.0424  -18.3430 C   0  0  0  0  0  0  0  0  0  0  0  0
   -1.4802    5.4139  -17.6886 C   0  0  0  0  0  0  0  0  0  0  0  0
   -0.4495    5.9990  -18.4053 C   0  0  0  0  0  0  0  0  0  0  0  0
   -0.5929    6.2246  -19.7803 C   0  0  0  0  0  0  0  0  0  0  0  0
    0.5631    6.8034  -20.5545 C   0  0  0  0  0  0  0  0  0  0  0  0
   -1.7961    5.9362  -20.4366 C   0  0  0  0  0  0  0  0  0  0  0  0
   -1.8990    6.2246  -21.7479 N   0  0  0  0  0  0  0  0  0  0  0  0
  1  2  1  0
  2  3  2  0
  3  4  1  0
  4  5  1  0
  5  6  2  0
  5  7  1  0
  7  8  1  0
  8  9  2  0
  9 10  1  0
 10 11  1  0
 11 12  1  0
 11 13  1  0
 11 14  1  0
 10 15  2  0
 15 16  1  0
 16 17  2  0
 17 18  1  0
 18 19  2  0
 19 20  1  0
 20 21  2  0
  4 22  2  0
 22 23  1  0
 23 24  2  0
 24 25  1  0
 25 26  2  0
 26 27  1  0
 26 28  1  0
 28 29  2  0
 29  2  1  0
 21  8  1  0
 28 22  1  0
 21 16  1  0
M  END
>  <fragmenstein_outcome>  (374) 
nan

>  <exports>  (374) 
['/opt/xchem-fragalysis-2/maxwin/openbind-hippo/xx01zvns2b/cycle_01/syndirella/elabs/openbind_xx01zvns2b_c1_elab_chemspace_filtered.sdf']

>  <Energy>  (374) 
nan

>  <alias>  (374) 
None

>  <fragmenstein_runtime>  (374) 
nan

>  <scratch_subdir>  (374) 
nan

>  <HIPPO Compound ID>  (374) 
142269

>  <rmsd(smina/fragmenstein)>  (374) 
1.776

>  <distance_score>  (374) 
1.3358

>  <orig_smiles>  (374) 
nan

>  <fragmenstein_mode>  (374) 
nan

>  <inchikey>  (374) 
AKSVFYSRYFROOQ-UHFFFAOYSA-N

>  <ref_pdb>  (374) 
Z0852a

>  <GNINA pK>  (374) 
nan

>  <gnina_score_min>  (374) 
6.408

>  <tags>  (374) 
openbind_xx01zvns2b_c1_elab_nonasap_filtered_scored_top80percent,openbind_xx01zvns2b_c1_elab_chemspace_filtered_scored_top80percent,openbind_xx01zvns2b_c1_elab_chemspace_filtered_scored,openbind_xx01zvns2b_c1_elab_chemspace_filtered_scored_top40percent,openbind_xx01zvns2b_c1_elab_chemspace_filtered_scored_top20percent,openbind_xx01zvns2b_c1_elab_chemspace_filtered_scored_top60percent,openbind_xx01zvns2b_c1_elabs_filtered

>  <smiles>  (374) 
Cc1cc(C(=O)Nc2cc(C(C)(C)C)cc3cccnc23)c2cccc(C)c2n1

>  <subsites>  (374) 
1 - Z4590/B/203/1

>  <gnina_score>  (374) 
5.844

>  <HIPPO Pose ID>  (374) 
70324

>  <ref_mols>  (374) 
Z0917a,Z0852a

>  <energy_score>  (374) 
-11.011822

>  <inspiration_score>  (374) 
None

>  <smina_score_min>  (374) 
-6.569

>  <fragmenstein_error>  (374) 
nan

>  <name>  (374) 
P70324

$$$$
P70325
     RDKit          3D

 29 32  0  0  0  0  0  0  0  0999 V2000
   -2.7349    4.2614  -18.4319 C   0  0  0  0  0  0  0  0  0  0  0  0
   -2.7977    5.0438  -19.7034 C   0  0  0  0  0  0  0  0  0  0  0  0
   -1.6387    5.5297  -20.2866 C   0  0  0  0  0  0  0  0  0  0  0  0
   -0.1117    5.4793  -19.4884 Cl  0  0  0  0  0  0  0  0  0  0  0  0
   -1.5754    6.1594  -21.4744 N   0  0  0  0  0  0  0  0  0  0  0  0
   -2.7024    6.3228  -22.1696 C   0  0  0  0  0  0  0  0  0  0  0  0
   -2.6132    6.9454  -23.4090 C   0  0  0  0  0  0  0  0  0  0  0  0
   -3.7387    7.1945  -24.1949 C   0  0  0  0  0  0  0  0  0  0  0  0
   -4.9866    6.8158  -23.7310 C   0  0  0  0  0  0  0  0  0  0  0  0
   -5.0894    6.1878  -22.4904 C   0  0  0  0  0  0  0  0  0  0  0  0
   -3.9573    5.9224  -21.6845 C   0  0  0  0  0  0  0  0  0  0  0  0
   -3.9802    5.2909  -20.4096 C   0  0  0  0  0  0  0  0  0  0  0  0
   -5.2755    4.8184  -19.8496 C   0  0  0  0  0  0  0  0  0  0  0  0
   -5.9120    4.0735  -20.4927 O   0  0  0  0  0  0  0  0  0  0  0  0
   -5.5428    5.4143  -18.4279 N   0  0  0  0  0  0  0  0  0  0  0  0
   -6.5713    5.1450  -17.5015 C   0  0  0  0  0  0  0  0  0  0  0  0
   -6.3552    5.4772  -16.1474 C   0  0  0  0  0  0  0  0  0  0  0  0
   -7.3504    5.2545  -15.1740 C   0  0  0  0  0  0  0  0  0  0  0  0
   -7.2538    5.7605  -13.7597 C   0  0  0  0  0  0  0  0  0  0  0  0
   -8.3427    5.4533  -12.9952 F   0  0  0  0  0  0  0  0  0  0  0  0
   -7.1673    7.1211  -13.7174 F   0  0  0  0  0  0  0  0  0  0  0  0
   -6.1728    5.2868  -13.0929 F   0  0  0  0  0  0  0  0  0  0  0  0
   -8.5329    4.6456  -15.5558 C   0  0  0  0  0  0  0  0  0  0  0  0
   -8.7813    4.4466  -16.8977 C   0  0  0  0  0  0  0  0  0  0  0  0
  -10.0770    4.1718  -17.2500 C   0  0  0  0  0  0  0  0  0  0  0  0
  -10.4778    4.3418  -18.5379 C   0  0  0  0  0  0  0  0  0  0  0  0
   -9.4924    4.4925  -19.4713 C   0  0  0  0  0  0  0  0  0  0  0  0
   -8.1893    4.5938  -19.1746 N   0  0  0  0  0  0  0  0  0  0  0  0
   -7.8265    4.6792  -17.8967 C   0  0  0  0  0  0  0  0  0  0  0  0
  1  2  1  0
  2  3  2  0
  3  4  1  0
  3  5  1  0
  5  6  2  0
  6  7  1  0
  7  8  2  0
  8  9  1  0
  9 10  2  0
 10 11  1  0
 11 12  2  0
 12 13  1  0
 13 14  2  0
 13 15  1  0
 15 16  1  0
 16 17  2  0
 17 18  1  0
 18 19  1  0
 19 20  1  0
 19 21  1  0
 19 22  1  0
 18 23  2  0
 23 24  1  0
 24 25  2  0
 25 26  1  0
 26 27  2  0
 27 28  1  0
 28 29  2  0
 12  2  1  0
 29 16  1  0
 11  6  1  0
 29 24  1  0
M  END
>  <fragmenstein_outcome>  (375) 
nan

>  <exports>  (375) 
['/opt/xchem-fragalysis-2/maxwin/openbind-hippo/xx01zvns2b/cycle_01/syndirella/elabs/openbind_xx01zvns2b_c1_elab_chemspace_filtered.sdf']

>  <Energy>  (375) 
nan

>  <alias>  (375) 
None

>  <fragmenstein_runtime>  (375) 
nan

>  <scratch_subdir>  (375) 
nan

>  <HIPPO Compound ID>  (375) 
142271

>  <rmsd(smina/fragmenstein)>  (375) 
0.922

>  <distance_score>  (375) 
1.100414

>  <orig_smiles>  (375) 
nan

>  <fragmenstein_mode>  (375) 
nan

>  <inchikey>  (375) 
RKMNRXALGHZXLY-UHFFFAOYSA-N

>  <ref_pdb>  (375) 
Z0852a

>  <GNINA pK>  (375) 
nan

>  <gnina_score_min>  (375) 
6.07

>  <tags>  (375) 
openbind_xx01zvns2b_c1_elab_nonasap_filtered_scored_top80percent,openbind_xx01zvns2b_c1_elab_chemspace_filtered_scored_top80percent,openbind_xx01zvns2b_c1_elab_chemspace_filtered_scored,openbind_xx01zvns2b_c1_elab_chemspace_filtered_scored_top40percent,openbind_xx01zvns2b_c1_elab_chemspace_filtered_scored_top20percent,openbind_xx01zvns2b_c1_elab_chemspace_filtered_scored_top60percent,openbind_xx01zvns2b_c1_elabs_filtered

>  <smiles>  (375) 
Cc1c(Cl)nc2ccccc2c1C(=O)Nc1cc(C(F)(F)F)cc2cccnc12

>  <subsites>  (375) 
1 - Z4590/B/203/1

>  <gnina_score>  (375) 
5.657

>  <HIPPO Pose ID>  (375) 
70325

>  <ref_mols>  (375) 
Z0917a,Z0852a

>  <energy_score>  (375) 
-17.416762

>  <inspiration_score>  (375) 
None

>  <smina_score_min>  (375) 
-6.607

>  <fragmenstein_error>  (375) 
nan

>  <name>  (375) 
P70325

$$$$
P70326
     RDKit          3D

 29 32  0  0  0  0  0  0  0  0999 V2000
   -2.7867    4.2747  -18.4650 C   0  0  0  0  0  0  0  0  0  0  0  0
   -2.8302    5.0316  -19.7537 C   0  0  0  0  0  0  0  0  0  0  0  0
   -1.6633    5.5175  -20.3207 C   0  0  0  0  0  0  0  0  0  0  0  0
   -0.1490    5.4788  -19.4973 Cl  0  0  0  0  0  0  0  0  0  0  0  0
   -1.5827    6.1425  -21.5101 N   0  0  0  0  0  0  0  0  0  0  0  0
   -2.7002    6.3083  -22.2201 C   0  0  0  0  0  0  0  0  0  0  0  0
   -2.5931    6.9350  -23.4560 C   0  0  0  0  0  0  0  0  0  0  0  0
   -3.7076    7.1939  -24.2542 C   0  0  0  0  0  0  0  0  0  0  0  0
   -4.9634    6.8226  -23.8059 C   0  0  0  0  0  0  0  0  0  0  0  0
   -5.0846    6.1896  -22.5695 C   0  0  0  0  0  0  0  0  0  0  0  0
   -3.9626    5.9098  -21.7532 C   0  0  0  0  0  0  0  0  0  0  0  0
   -4.0023    5.2709  -20.4824 C   0  0  0  0  0  0  0  0  0  0  0  0
   -5.3073    4.7982  -19.9424 C   0  0  0  0  0  0  0  0  0  0  0  0
   -5.9582    4.0830  -20.6040 O   0  0  0  0  0  0  0  0  0  0  0  0
   -5.5763    5.3859  -18.5195 N   0  0  0  0  0  0  0  0  0  0  0  0
   -6.6263    5.1417  -17.6131 C   0  0  0  0  0  0  0  0  0  0  0  0
   -6.4216    5.5027  -16.2671 C   0  0  0  0  0  0  0  0  0  0  0  0
   -7.4073    5.2969  -15.2732 C   0  0  0  0  0  0  0  0  0  0  0  0
   -7.2066    5.7130  -13.8188 C   0  0  0  0  0  0  0  0  0  0  0  0
   -6.0620    4.8636  -13.2809 C   0  0  0  0  0  0  0  0  0  0  0  0
   -6.8592    7.2082  -13.7192 C   0  0  0  0  0  0  0  0  0  0  0  0
   -8.4331    5.4901  -12.9015 C   0  0  0  0  0  0  0  0  0  0  0  0
   -8.5858    4.6853  -15.6578 C   0  0  0  0  0  0  0  0  0  0  0  0
   -8.8335    4.4663  -16.9952 C   0  0  0  0  0  0  0  0  0  0  0  0
  -10.1335    4.2062  -17.3390 C   0  0  0  0  0  0  0  0  0  0  0  0
  -10.5298    4.3946  -18.6219 C   0  0  0  0  0  0  0  0  0  0  0  0
   -9.5396    4.4973  -19.5567 C   0  0  0  0  0  0  0  0  0  0  0  0
   -8.2333    4.5496  -19.2694 N   0  0  0  0  0  0  0  0  0  0  0  0
   -7.8751    4.6669  -17.9962 C   0  0  0  0  0  0  0  0  0  0  0  0
  1  2  1  0
  2  3  2  0
  3  4  1  0
  3  5  1  0
  5  6  2  0
  6  7  1  0
  7  8  2  0
  8  9  1  0
  9 10  2  0
 10 11  1  0
 11 12  2  0
 12 13  1  0
 13 14  2  0
 13 15  1  0
 15 16  1  0
 16 17  2  0
 17 18  1  0
 18 19  1  0
 19 20  1  0
 19 21  1  0
 19 22  1  0
 18 23  2  0
 23 24  1  0
 24 25  2  0
 25 26  1  0
 26 27  2  0
 27 28  1  0
 28 29  2  0
 12  2  1  0
 29 16  1  0
 11  6  1  0
 29 24  1  0
M  END
>  <fragmenstein_outcome>  (376) 
nan

>  <exports>  (376) 
['/opt/xchem-fragalysis-2/maxwin/openbind-hippo/xx01zvns2b/cycle_01/syndirella/elabs/openbind_xx01zvns2b_c1_elab_chemspace_filtered.sdf']

>  <Energy>  (376) 
nan

>  <alias>  (376) 
None

>  <fragmenstein_runtime>  (376) 
nan

>  <scratch_subdir>  (376) 
nan

>  <HIPPO Compound ID>  (376) 
142272

>  <rmsd(smina/fragmenstein)>  (376) 
0.965

>  <distance_score>  (376) 
1.355334

>  <orig_smiles>  (376) 
nan

>  <fragmenstein_mode>  (376) 
nan

>  <inchikey>  (376) 
KPHHWNDKICJKCD-UHFFFAOYSA-N

>  <ref_pdb>  (376) 
Z0852a

>  <GNINA pK>  (376) 
nan

>  <gnina_score_min>  (376) 
6.393

>  <tags>  (376) 
openbind_xx01zvns2b_c1_elab_nonasap_filtered_scored_top80percent,openbind_xx01zvns2b_c1_elab_chemspace_filtered_scored_top80percent,openbind_xx01zvns2b_c1_elab_chemspace_filtered_scored,openbind_xx01zvns2b_c1_elab_chemspace_filtered_scored_top40percent,openbind_xx01zvns2b_c1_elab_chemspace_filtered_scored_top20percent,openbind_xx01zvns2b_c1_elab_chemspace_filtered_scored_top60percent,openbind_xx01zvns2b_c1_elabs_filtered

>  <smiles>  (376) 
Cc1c(Cl)nc2ccccc2c1C(=O)Nc1cc(C(C)(C)C)cc2cccnc12

>  <subsites>  (376) 
1 - Z4590/B/203/1

>  <gnina_score>  (376) 
5.851

>  <HIPPO Pose ID>  (376) 
70326

>  <ref_mols>  (376) 
Z0917a,Z0852a

>  <energy_score>  (376) 
-17.533628

>  <inspiration_score>  (376) 
None

>  <smina_score_min>  (376) 
-6.738

>  <fragmenstein_error>  (376) 
nan

>  <name>  (376) 
P70326

$$$$
P70327
     RDKit          3D

 29 32  0  0  0  0  0  0  0  0999 V2000
   -6.4151    4.8561  -11.5101 C   0  0  0  0  0  0  0  0  0  0  0  0
   -6.9134    4.8197  -12.8475 O   0  0  0  0  0  0  0  0  0  0  0  0
   -5.9791    5.0593  -13.7984 C   0  0  0  0  0  0  0  0  0  0  0  0
   -4.8097    5.3508  -13.6013 O   0  0  0  0  0  0  0  0  0  0  0  0
   -6.5723    4.9434  -15.1561 C   0  0  0  0  0  0  0  0  0  0  0  0
   -5.7804    5.2639  -16.2603 C   0  0  0  0  0  0  0  0  0  0  0  0
   -6.2643    5.1120  -17.5702 C   0  0  0  0  0  0  0  0  0  0  0  0
   -5.3330    5.3638  -18.5834 N   0  0  0  0  0  0  0  0  0  0  0  0
   -5.2400    4.8016  -20.0367 C   0  0  0  0  0  0  0  0  0  0  0  0
   -5.9708    4.1044  -20.6287 O   0  0  0  0  0  0  0  0  0  0  0  0
   -3.9380    5.2702  -20.6184 C   0  0  0  0  0  0  0  0  0  0  0  0
   -2.7962    4.9983  -19.9486 C   0  0  0  0  0  0  0  0  0  0  0  0
   -2.6409    4.2383  -18.6640 C   0  0  0  0  0  0  0  0  0  0  0  0
   -1.4879    5.4282  -20.5201 C   0  0  0  0  0  0  0  0  0  0  0  0
   -0.4670    5.4365  -19.8393 O   0  0  0  0  0  0  0  0  0  0  0  0
   -1.4779    5.8290  -21.8211 N   0  0  0  0  0  0  0  0  0  0  0  0
   -2.6345    6.0919  -22.5546 C   0  0  0  0  0  0  0  0  0  0  0  0
   -2.5186    6.6231  -23.8419 C   0  0  0  0  0  0  0  0  0  0  0  0
   -3.6664    6.9697  -24.5519 C   0  0  0  0  0  0  0  0  0  0  0  0
   -4.9185    6.7920  -23.9700 C   0  0  0  0  0  0  0  0  0  0  0  0
   -5.0219    6.2511  -22.6847 C   0  0  0  0  0  0  0  0  0  0  0  0
   -3.8834    5.8777  -21.9633 C   0  0  0  0  0  0  0  0  0  0  0  0
   -7.5864    4.7312  -17.7980 C   0  0  0  0  0  0  0  0  0  0  0  0
   -8.1250    4.7240  -19.0207 N   0  0  0  0  0  0  0  0  0  0  0  0
   -9.4420    4.5049  -19.1618 C   0  0  0  0  0  0  0  0  0  0  0  0
  -10.2787    4.2165  -18.1150 C   0  0  0  0  0  0  0  0  0  0  0  0
   -9.7118    4.1433  -16.8616 C   0  0  0  0  0  0  0  0  0  0  0  0
   -8.3789    4.4517  -16.6722 C   0  0  0  0  0  0  0  0  0  0  0  0
   -7.8780    4.5173  -15.3693 C   0  0  0  0  0  0  0  0  0  0  0  0
  1  2  1  0
  2  3  1  0
  3  4  2  0
  3  5  1  0
  5  6  2  0
  6  7  1  0
  7  8  1  0
  8  9  1  0
  9 10  2  0
  9 11  1  0
 11 12  2  0
 12 13  1  0
 12 14  1  0
 14 15  2  0
 14 16  1  0
 16 17  1  0
 17 18  2  0
 18 19  1  0
 19 20  2  0
 20 21  1  0
 21 22  2  0
  7 23  2  0
 23 24  1  0
 24 25  2  0
 25 26  1  0
 26 27  2  0
 27 28  1  0
 28 29  2  0
 29  5  1  0
 22 11  1  0
 28 23  1  0
 22 17  1  0
M  END
>  <fragmenstein_outcome>  (377) 
nan

>  <exports>  (377) 
['/opt/xchem-fragalysis-2/maxwin/openbind-hippo/xx01zvns2b/cycle_01/syndirella/elabs/openbind_xx01zvns2b_c1_elab_chemspace_filtered.sdf']

>  <Energy>  (377) 
nan

>  <alias>  (377) 
None

>  <fragmenstein_runtime>  (377) 
nan

>  <scratch_subdir>  (377) 
nan

>  <HIPPO Compound ID>  (377) 
142273

>  <rmsd(smina/fragmenstein)>  (377) 
1.117

>  <distance_score>  (377) 
1.675823

>  <orig_smiles>  (377) 
nan

>  <fragmenstein_mode>  (377) 
nan

>  <inchikey>  (377) 
XMENUCSPAUEBCK-UHFFFAOYSA-N

>  <ref_pdb>  (377) 
Z0852a

>  <GNINA pK>  (377) 
nan

>  <gnina_score_min>  (377) 
6.008

>  <tags>  (377) 
openbind_xx01zvns2b_c1_elab_nonasap_filtered_scored_top80percent,openbind_xx01zvns2b_c1_elab_chemspace_filtered_scored_top80percent,openbind_xx01zvns2b_c1_elab_chemspace_filtered_scored,openbind_xx01zvns2b_c1_elab_chemspace_filtered_scored_top40percent,openbind_xx01zvns2b_c1_elab_chemspace_filtered_scored_top20percent,openbind_xx01zvns2b_c1_elab_chemspace_filtered_scored_top60percent,openbind_xx01zvns2b_c1_elabs_filtered

>  <smiles>  (377) 
COC(=O)c1cc(NC(=O)c2c(C)c(=O)[nH]c3ccccc23)c2ncccc2c1

>  <subsites>  (377) 
1 - Z4590/B/203/1

>  <gnina_score>  (377) 
5.84

>  <HIPPO Pose ID>  (377) 
70327

>  <ref_mols>  (377) 
Z0917a,Z0852a

>  <energy_score>  (377) 
-30.719981

>  <inspiration_score>  (377) 
None

>  <smina_score_min>  (377) 
-6.664

>  <fragmenstein_error>  (377) 
nan

>  <name>  (377) 
P70327

$$$$
P70328
     RDKit          3D

 29 32  0  0  0  0  0  0  0  0999 V2000
   -5.9646    4.1129  -20.5069 O   0  0  0  0  0  0  0  0  0  0  0  0
   -5.2744    4.7550  -19.8111 C   0  0  0  0  0  0  0  0  0  0  0  0
   -5.4623    5.1918  -18.3213 N   0  0  0  0  0  0  0  0  0  0  0  0
   -6.5521    5.0104  -17.4449 C   0  0  0  0  0  0  0  0  0  0  0  0
   -6.3540    5.3295  -16.0849 C   0  0  0  0  0  0  0  0  0  0  0  0
   -7.3890    5.1790  -15.1418 C   0  0  0  0  0  0  0  0  0  0  0  0
   -7.2993    5.6926  -13.7295 C   0  0  0  0  0  0  0  0  0  0  0  0
   -6.2165    5.2285  -13.0589 F   0  0  0  0  0  0  0  0  0  0  0  0
   -7.2190    7.0539  -13.6958 F   0  0  0  0  0  0  0  0  0  0  0  0
   -8.3881    5.3835  -12.9675 F   0  0  0  0  0  0  0  0  0  0  0  0
   -8.5959    4.6438  -15.5568 C   0  0  0  0  0  0  0  0  0  0  0  0
   -8.8173    4.4463  -16.9046 C   0  0  0  0  0  0  0  0  0  0  0  0
  -10.1115    4.2171  -17.2968 C   0  0  0  0  0  0  0  0  0  0  0  0
  -10.4661    4.3897  -18.5964 C   0  0  0  0  0  0  0  0  0  0  0  0
   -9.4478    4.4765  -19.4993 C   0  0  0  0  0  0  0  0  0  0  0  0
   -8.1517    4.5302  -19.1619 N   0  0  0  0  0  0  0  0  0  0  0  0
   -7.8232    4.6234  -17.8757 C   0  0  0  0  0  0  0  0  0  0  0  0
   -3.9583    5.1666  -20.3382 C   0  0  0  0  0  0  0  0  0  0  0  0
   -2.8270    4.7811  -19.6239 C   0  0  0  0  0  0  0  0  0  0  0  0
   -2.8740    4.1382  -18.4193 O   0  0  0  0  0  0  0  0  0  0  0  0
   -1.6017    5.0539  -20.1863 C   0  0  0  0  0  0  0  0  0  0  0  0
   -1.4491    5.6776  -21.3760 N   0  0  0  0  0  0  0  0  0  0  0  0
   -2.5389    6.0393  -22.0640 C   0  0  0  0  0  0  0  0  0  0  0  0
   -2.3546    6.6772  -23.2837 C   0  0  0  0  0  0  0  0  0  0  0  0
   -3.4302    7.1233  -24.0535 C   0  0  0  0  0  0  0  0  0  0  0  0
   -4.7214    6.9252  -23.5918 C   0  0  0  0  0  0  0  0  0  0  0  0
   -6.0549    7.4977  -24.5119 Cl  0  0  0  0  0  0  0  0  0  0  0  0
   -4.9320    6.2735  -22.3795 C   0  0  0  0  0  0  0  0  0  0  0  0
   -3.8456    5.8166  -21.5931 C   0  0  0  0  0  0  0  0  0  0  0  0
  1  2  2  0
  2  3  1  0
  3  4  1  0
  4  5  2  0
  5  6  1  0
  6  7  1  0
  7  8  1  0
  7  9  1  0
  7 10  1  0
  6 11  2  0
 11 12  1  0
 12 13  2  0
 13 14  1  0
 14 15  2  0
 15 16  1  0
 16 17  2  0
  2 18  1  0
 18 19  2  0
 19 20  1  0
 19 21  1  0
 21 22  2  0
 22 23  1  0
 23 24  2  0
 24 25  1  0
 25 26  2  0
 26 27  1  0
 26 28  1  0
 28 29  2  0
 17  4  1  0
 29 18  1  0
 17 12  1  0
 29 23  1  0
M  END
>  <fragmenstein_outcome>  (378) 
nan

>  <exports>  (378) 
['/opt/xchem-fragalysis-2/maxwin/openbind-hippo/xx01zvns2b/cycle_01/syndirella/elabs/openbind_xx01zvns2b_c1_elab_chemspace_filtered.sdf']

>  <Energy>  (378) 
nan

>  <alias>  (378) 
None

>  <fragmenstein_runtime>  (378) 
nan

>  <scratch_subdir>  (378) 
nan

>  <HIPPO Compound ID>  (378) 
142275

>  <rmsd(smina/fragmenstein)>  (378) 
1.202

>  <distance_score>  (378) 
0.958911

>  <orig_smiles>  (378) 
nan

>  <fragmenstein_mode>  (378) 
nan

>  <inchikey>  (378) 
UAMCUPLDALRNEY-UHFFFAOYSA-N

>  <ref_pdb>  (378) 
Z0852a

>  <GNINA pK>  (378) 
nan

>  <gnina_score_min>  (378) 
5.933

>  <tags>  (378) 
openbind_xx01zvns2b_c1_elab_nonasap_filtered_scored_top80percent,openbind_xx01zvns2b_c1_elab_chemspace_filtered_scored_top80percent,openbind_xx01zvns2b_c1_elab_chemspace_filtered_scored,openbind_xx01zvns2b_c1_elab_chemspace_filtered_scored_top40percent,openbind_xx01zvns2b_c1_elab_chemspace_filtered_scored_top20percent,openbind_xx01zvns2b_c1_elab_chemspace_filtered_scored_top60percent,openbind_xx01zvns2b_c1_elabs_filtered

>  <smiles>  (378) 
O=C(Nc1cc(C(F)(F)F)cc2cccnc12)c1c(O)cnc2ccc(Cl)cc12

>  <subsites>  (378) 
1 - Z4590/B/203/1

>  <gnina_score>  (378) 
5.415

>  <HIPPO Pose ID>  (378) 
70328

>  <ref_mols>  (378) 
Z0917a,Z0852a

>  <energy_score>  (378) 
-17.72765

>  <inspiration_score>  (378) 
None

>  <smina_score_min>  (378) 
-7.385

>  <fragmenstein_error>  (378) 
nan

>  <name>  (378) 
P70328

$$$$
P70329
     RDKit          3D

 29 32  0  0  0  0  0  0  0  0999 V2000
   -4.1318    5.4920  -12.4757 C   0  0  0  0  0  0  0  0  0  0  0  0
   -4.6831    5.3371  -13.7843 O   0  0  0  0  0  0  0  0  0  0  0  0
   -6.0370    5.2428  -13.7995 C   0  0  0  0  0  0  0  0  0  0  0  0
   -6.7692    5.2972  -12.8252 O   0  0  0  0  0  0  0  0  0  0  0  0
   -6.5271    5.0591  -15.1888 C   0  0  0  0  0  0  0  0  0  0  0  0
   -5.7367    5.3420  -16.3035 C   0  0  0  0  0  0  0  0  0  0  0  0
   -6.2202    5.1397  -17.6075 C   0  0  0  0  0  0  0  0  0  0  0  0
   -5.2922    5.3945  -18.6261 N   0  0  0  0  0  0  0  0  0  0  0  0
   -5.1910    4.8183  -20.0675 C   0  0  0  0  0  0  0  0  0  0  0  0
   -5.9095    4.1030  -20.6500 O   0  0  0  0  0  0  0  0  0  0  0  0
   -3.9119    5.2566  -20.6933 C   0  0  0  0  0  0  0  0  0  0  0  0
   -2.7035    5.0161  -20.0183 C   0  0  0  0  0  0  0  0  0  0  0  0
   -2.5944    4.2601  -18.7293 C   0  0  0  0  0  0  0  0  0  0  0  0
   -1.5717    5.5364  -20.6207 C   0  0  0  0  0  0  0  0  0  0  0  0
   -0.0388    5.5748  -19.8329 Cl  0  0  0  0  0  0  0  0  0  0  0  0
   -1.5524    6.1667  -21.8100 N   0  0  0  0  0  0  0  0  0  0  0  0
   -2.7022    6.3241  -22.4704 C   0  0  0  0  0  0  0  0  0  0  0  0
   -2.6590    6.9638  -23.7034 C   0  0  0  0  0  0  0  0  0  0  0  0
   -3.8132    7.2252  -24.4430 C   0  0  0  0  0  0  0  0  0  0  0  0
   -5.0449    6.8468  -23.9362 C   0  0  0  0  0  0  0  0  0  0  0  0
   -5.1035    6.2012  -22.7021 C   0  0  0  0  0  0  0  0  0  0  0  0
   -3.9391    5.9122  -21.9514 C   0  0  0  0  0  0  0  0  0  0  0  0
   -7.5395    4.7354  -17.8190 C   0  0  0  0  0  0  0  0  0  0  0  0
   -8.0806    4.6840  -19.0388 N   0  0  0  0  0  0  0  0  0  0  0  0
   -9.3966    4.4506  -19.1674 C   0  0  0  0  0  0  0  0  0  0  0  0
  -10.2290    4.1875  -18.1093 C   0  0  0  0  0  0  0  0  0  0  0  0
   -9.6610    4.1606  -16.8544 C   0  0  0  0  0  0  0  0  0  0  0  0
   -8.3299    4.4887  -16.6811 C   0  0  0  0  0  0  0  0  0  0  0  0
   -7.8296    4.6154  -15.3829 C   0  0  0  0  0  0  0  0  0  0  0  0
  1  2  1  0
  2  3  1  0
  3  4  2  0
  3  5  1  0
  5  6  2  0
  6  7  1  0
  7  8  1  0
  8  9  1  0
  9 10  2  0
  9 11  1  0
 11 12  2  0
 12 13  1  0
 12 14  1  0
 14 15  1  0
 14 16  2  0
 16 17  1  0
 17 18  2  0
 18 19  1  0
 19 20  2  0
 20 21  1  0
 21 22  2  0
  7 23  2  0
 23 24  1  0
 24 25  2  0
 25 26  1  0
 26 27  2  0
 27 28  1  0
 28 29  2  0
 29  5  1  0
 22 11  1  0
 28 23  1  0
 22 17  1  0
M  END
>  <fragmenstein_outcome>  (379) 
nan

>  <exports>  (379) 
['/opt/xchem-fragalysis-2/maxwin/openbind-hippo/xx01zvns2b/cycle_01/syndirella/elabs/openbind_xx01zvns2b_c1_elab_chemspace_filtered.sdf']

>  <Energy>  (379) 
nan

>  <alias>  (379) 
None

>  <fragmenstein_runtime>  (379) 
nan

>  <scratch_subdir>  (379) 
nan

>  <HIPPO Compound ID>  (379) 
142276

>  <rmsd(smina/fragmenstein)>  (379) 
0.955

>  <distance_score>  (379) 
1.843523

>  <orig_smiles>  (379) 
nan

>  <fragmenstein_mode>  (379) 
nan

>  <inchikey>  (379) 
NTBQOMUDTIWBQR-UHFFFAOYSA-N

>  <ref_pdb>  (379) 
Z0852a

>  <GNINA pK>  (379) 
nan

>  <gnina_score_min>  (379) 
6.055

>  <tags>  (379) 
openbind_xx01zvns2b_c1_elab_nonasap_filtered_scored_top80percent,openbind_xx01zvns2b_c1_elab_chemspace_filtered_scored_top80percent,openbind_xx01zvns2b_c1_elab_chemspace_filtered_scored,openbind_xx01zvns2b_c1_elab_chemspace_filtered_scored_top40percent,openbind_xx01zvns2b_c1_elab_chemspace_filtered_scored_top20percent,openbind_xx01zvns2b_c1_elab_chemspace_filtered_scored_top60percent,openbind_xx01zvns2b_c1_elabs_filtered

>  <smiles>  (379) 
COC(=O)c1cc(NC(=O)c2c(C)c(Cl)nc3ccccc23)c2ncccc2c1

>  <subsites>  (379) 
1 - Z4590/B/203/1

>  <gnina_score>  (379) 
6.108

>  <HIPPO Pose ID>  (379) 
70329

>  <ref_mols>  (379) 
Z0917a,Z0852a

>  <energy_score>  (379) 
-27.298397

>  <inspiration_score>  (379) 
None

>  <smina_score_min>  (379) 
-6.408

>  <fragmenstein_error>  (379) 
nan

>  <name>  (379) 
P70329

$$$$
P70330
     RDKit          3D

 29 32  0  0  0  0  0  0  0  0999 V2000
   -6.2086    4.7071  -11.5698 C   0  0  0  0  0  0  0  0  0  0  0  0
   -6.7491    4.6913  -12.8912 O   0  0  0  0  0  0  0  0  0  0  0  0
   -5.8647    5.0318  -13.8590 C   0  0  0  0  0  0  0  0  0  0  0  0
   -4.7074    5.3806  -13.6841 O   0  0  0  0  0  0  0  0  0  0  0  0
   -6.4959    4.9434  -15.2019 C   0  0  0  0  0  0  0  0  0  0  0  0
   -5.7412    5.3129  -16.3166 C   0  0  0  0  0  0  0  0  0  0  0  0
   -6.2557    5.1991  -17.6192 C   0  0  0  0  0  0  0  0  0  0  0  0
   -5.3613    5.5460  -18.6430 N   0  0  0  0  0  0  0  0  0  0  0  0
   -5.2709    5.0530  -20.1150 C   0  0  0  0  0  0  0  0  0  0  0  0
   -5.9750    4.3407  -20.7210 O   0  0  0  0  0  0  0  0  0  0  0  0
   -4.0083    5.5282  -20.7673 C   0  0  0  0  0  0  0  0  0  0  0  0
   -2.8053    5.4571  -20.0631 C   0  0  0  0  0  0  0  0  0  0  0  0
   -2.7462    5.3421  -18.7030 O   0  0  0  0  0  0  0  0  0  0  0  0
   -2.6693    3.9795  -18.3238 C   0  0  0  0  0  0  0  0  0  0  0  0
   -1.6308    5.6696  -20.7532 C   0  0  0  0  0  0  0  0  0  0  0  0
   -1.5815    5.9734  -22.0645 N   0  0  0  0  0  0  0  0  0  0  0  0
   -2.7361    6.1284  -22.7255 C   0  0  0  0  0  0  0  0  0  0  0  0
   -2.6698    6.5319  -24.0535 C   0  0  0  0  0  0  0  0  0  0  0  0
   -3.8150    6.7862  -24.8097 C   0  0  0  0  0  0  0  0  0  0  0  0
   -5.0619    6.6331  -24.2272 C   0  0  0  0  0  0  0  0  0  0  0  0
   -5.1467    6.2056  -22.9021 C   0  0  0  0  0  0  0  0  0  0  0  0
   -3.9961    5.9331  -22.1262 C   0  0  0  0  0  0  0  0  0  0  0  0
   -7.5739    4.7847  -17.8226 C   0  0  0  0  0  0  0  0  0  0  0  0
   -8.1432    4.7781  -19.0303 N   0  0  0  0  0  0  0  0  0  0  0  0
   -9.4579    4.5306  -19.1450 C   0  0  0  0  0  0  0  0  0  0  0  0
  -10.2657    4.2149  -18.0837 C   0  0  0  0  0  0  0  0  0  0  0  0
   -9.6703    4.1415  -16.8429 C   0  0  0  0  0  0  0  0  0  0  0  0
   -8.3353    4.4655  -16.6830 C   0  0  0  0  0  0  0  0  0  0  0  0
   -7.8021    4.5076  -15.3920 C   0  0  0  0  0  0  0  0  0  0  0  0
  1  2  1  0
  2  3  1  0
  3  4  2  0
  3  5  1  0
  5  6  2  0
  6  7  1  0
  7  8  1  0
  8  9  1  0
  9 10  2  0
  9 11  1  0
 11 12  2  0
 12 13  1  0
 13 14  1  0
 12 15  1  0
 15 16  2  0
 16 17  1  0
 17 18  2  0
 18 19  1  0
 19 20  2  0
 20 21  1  0
 21 22  2  0
  7 23  2  0
 23 24  1  0
 24 25  2  0
 25 26  1  0
 26 27  2  0
 27 28  1  0
 28 29  2  0
 29  5  1  0
 22 11  1  0
 28 23  1  0
 22 17  1  0
M  END
>  <fragmenstein_outcome>  (380) 
nan

>  <exports>  (380) 
['/opt/xchem-fragalysis-2/maxwin/openbind-hippo/xx01zvns2b/cycle_01/syndirella/elabs/openbind_xx01zvns2b_c1_elab_chemspace_filtered.sdf']

>  <Energy>  (380) 
nan

>  <alias>  (380) 
None

>  <fragmenstein_runtime>  (380) 
nan

>  <scratch_subdir>  (380) 
nan

>  <HIPPO Compound ID>  (380) 
142277

>  <rmsd(smina/fragmenstein)>  (380) 
0.952

>  <distance_score>  (380) 
1.676236

>  <orig_smiles>  (380) 
nan

>  <fragmenstein_mode>  (380) 
nan

>  <inchikey>  (380) 
OEJXZHJLJDJALK-UHFFFAOYSA-N

>  <ref_pdb>  (380) 
Z0852a

>  <GNINA pK>  (380) 
nan

>  <gnina_score_min>  (380) 
6.038

>  <tags>  (380) 
openbind_xx01zvns2b_c1_elab_nonasap_filtered_scored_top80percent,openbind_xx01zvns2b_c1_elab_chemspace_filtered_scored_top80percent,openbind_xx01zvns2b_c1_elab_chemspace_filtered_scored,openbind_xx01zvns2b_c1_elab_chemspace_filtered_scored_top40percent,openbind_xx01zvns2b_c1_elab_chemspace_filtered_scored_top20percent,openbind_xx01zvns2b_c1_elab_chemspace_filtered_scored_top60percent,openbind_xx01zvns2b_c1_elabs_filtered

>  <smiles>  (380) 
COC(=O)c1cc(NC(=O)c2c(OC)cnc3ccccc23)c2ncccc2c1

>  <subsites>  (380) 
1 - Z4590/B/203/1

>  <gnina_score>  (380) 
5.801

>  <HIPPO Pose ID>  (380) 
70330

>  <ref_mols>  (380) 
Z0917a,Z0852a

>  <energy_score>  (380) 
-20.686144

>  <inspiration_score>  (380) 
None

>  <smina_score_min>  (380) 
-6.605

>  <fragmenstein_error>  (380) 
nan

>  <name>  (380) 
P70330

$$$$
P70331
     RDKit          3D

 29 32  0  0  0  0  0  0  0  0999 V2000
   -0.3844    5.2200  -19.4454 C   0  0  0  0  0  0  0  0  0  0  0  0
   -1.6638    5.3923  -20.2035 C   0  0  0  0  0  0  0  0  0  0  0  0
   -1.5669    5.9955  -21.4131 N   0  0  0  0  0  0  0  0  0  0  0  0
   -2.6706    6.1914  -22.1448 C   0  0  0  0  0  0  0  0  0  0  0  0
   -2.5299    6.8133  -23.3796 C   0  0  0  0  0  0  0  0  0  0  0  0
   -3.6258    7.0991  -24.1950 C   0  0  0  0  0  0  0  0  0  0  0  0
   -4.8977    6.7592  -23.7663 C   0  0  0  0  0  0  0  0  0  0  0  0
   -5.0536    6.1277  -22.5331 C   0  0  0  0  0  0  0  0  0  0  0  0
   -3.9494    5.8217  -21.7012 C   0  0  0  0  0  0  0  0  0  0  0  0
   -4.0221    5.1908  -20.4323 C   0  0  0  0  0  0  0  0  0  0  0  0
   -5.3198    4.7132  -19.8998 C   0  0  0  0  0  0  0  0  0  0  0  0
   -5.9888    4.0416  -20.5893 O   0  0  0  0  0  0  0  0  0  0  0  0
   -5.5127    5.1429  -18.4078 N   0  0  0  0  0  0  0  0  0  0  0  0
   -6.5849    4.9161  -17.5221 C   0  0  0  0  0  0  0  0  0  0  0  0
   -6.3778    5.2176  -16.1563 C   0  0  0  0  0  0  0  0  0  0  0  0
   -7.4029    5.0682  -15.2018 C   0  0  0  0  0  0  0  0  0  0  0  0
   -7.3658    5.6037  -13.7683 C   0  0  0  0  0  0  0  0  0  0  0  0
   -7.8279    4.5466  -12.7483 C   0  0  0  0  0  0  0  0  0  0  0  0
   -5.9962    6.1365  -13.3398 C   0  0  0  0  0  0  0  0  0  0  0  0
   -8.3283    6.7946  -13.6912 C   0  0  0  0  0  0  0  0  0  0  0  0
   -8.6062    4.5279  -15.6361 C   0  0  0  0  0  0  0  0  0  0  0  0
   -8.8456    4.3681  -16.9827 C   0  0  0  0  0  0  0  0  0  0  0  0
  -10.1539    4.2009  -17.3611 C   0  0  0  0  0  0  0  0  0  0  0  0
  -10.5146    4.4308  -18.6479 C   0  0  0  0  0  0  0  0  0  0  0  0
   -9.5009    4.4982  -19.5575 C   0  0  0  0  0  0  0  0  0  0  0  0
   -8.1998    4.4921  -19.2392 N   0  0  0  0  0  0  0  0  0  0  0  0
   -7.8577    4.5468  -17.9541 C   0  0  0  0  0  0  0  0  0  0  0  0
   -2.8708    4.9598  -19.6811 C   0  0  0  0  0  0  0  0  0  0  0  0
   -2.8928    4.3396  -18.4595 O   0  0  0  0  0  0  0  0  0  0  0  0
  1  2  1  0
  2  3  2  0
  3  4  1  0
  4  5  2  0
  5  6  1  0
  6  7  2  0
  7  8  1  0
  8  9  2  0
  9 10  1  0
 10 11  1  0
 11 12  2  0
 11 13  1  0
 13 14  1  0
 14 15  2  0
 15 16  1  0
 16 17  1  0
 17 18  1  0
 17 19  1  0
 17 20  1  0
 16 21  2  0
 21 22  1  0
 22 23  2  0
 23 24  1  0
 24 25  2  0
 25 26  1  0
 26 27  2  0
 10 28  2  0
 28 29  1  0
 28  2  1  0
  9  4  1  0
 27 14  1  0
 27 22  1  0
M  END
>  <fragmenstein_outcome>  (381) 
nan

>  <exports>  (381) 
['/opt/xchem-fragalysis-2/maxwin/openbind-hippo/xx01zvns2b/cycle_01/syndirella/elabs/openbind_xx01zvns2b_c1_elab_chemspace_filtered.sdf']

>  <Energy>  (381) 
nan

>  <alias>  (381) 
None

>  <fragmenstein_runtime>  (381) 
nan

>  <scratch_subdir>  (381) 
nan

>  <HIPPO Compound ID>  (381) 
142278

>  <rmsd(smina/fragmenstein)>  (381) 
1.092

>  <distance_score>  (381) 
1.296875

>  <orig_smiles>  (381) 
nan

>  <fragmenstein_mode>  (381) 
nan

>  <inchikey>  (381) 
VEBDGXPDVOABHE-UHFFFAOYSA-N

>  <ref_pdb>  (381) 
Z0852a

>  <GNINA pK>  (381) 
nan

>  <gnina_score_min>  (381) 
6.068

>  <tags>  (381) 
openbind_xx01zvns2b_c1_elab_nonasap_filtered_scored_top80percent,openbind_xx01zvns2b_c1_elab_chemspace_filtered_scored_top80percent,openbind_xx01zvns2b_c1_elab_chemspace_filtered_scored,openbind_xx01zvns2b_c1_elab_chemspace_filtered_scored_top40percent,openbind_xx01zvns2b_c1_elab_chemspace_filtered_scored_top20percent,openbind_xx01zvns2b_c1_elab_chemspace_filtered_scored_top60percent,openbind_xx01zvns2b_c1_elabs_filtered

>  <smiles>  (381) 
Cc1nc2ccccc2c(C(=O)Nc2cc(C(C)(C)C)cc3cccnc23)c1O

>  <subsites>  (381) 
1 - Z4590/B/203/1

>  <gnina_score>  (381) 
5.529

>  <HIPPO Pose ID>  (381) 
70331

>  <ref_mols>  (381) 
Z0917a,Z0852a

>  <energy_score>  (381) 
-29.655101

>  <inspiration_score>  (381) 
None

>  <smina_score_min>  (381) 
-6.527

>  <fragmenstein_error>  (381) 
nan

>  <name>  (381) 
P70331

$$$$
P70332
     RDKit          3D

 29 32  0  0  0  0  0  0  0  0999 V2000
   -5.9306    4.1109  -20.5897 O   0  0  0  0  0  0  0  0  0  0  0  0
   -5.1901    4.6133  -19.8307 C   0  0  0  0  0  0  0  0  0  0  0  0
   -5.3621    4.9367  -18.3092 N   0  0  0  0  0  0  0  0  0  0  0  0
   -6.4883    4.7968  -17.4609 C   0  0  0  0  0  0  0  0  0  0  0  0
   -6.3106    5.1241  -16.0964 C   0  0  0  0  0  0  0  0  0  0  0  0
   -7.3993    5.1728  -15.2031 C   0  0  0  0  0  0  0  0  0  0  0  0
   -7.2970    5.6579  -13.7822 C   0  0  0  0  0  0  0  0  0  0  0  0
   -7.2393    7.0201  -13.7206 F   0  0  0  0  0  0  0  0  0  0  0  0
   -8.3737    5.3160  -13.0156 F   0  0  0  0  0  0  0  0  0  0  0  0
   -6.2011    5.2003  -13.1276 F   0  0  0  0  0  0  0  0  0  0  0  0
   -8.6673    4.9011  -15.6869 C   0  0  0  0  0  0  0  0  0  0  0  0
   -8.8462    4.6403  -17.0303 C   0  0  0  0  0  0  0  0  0  0  0  0
  -10.1340    4.6782  -17.5147 C   0  0  0  0  0  0  0  0  0  0  0  0
  -10.3645    4.6084  -18.8494 C   0  0  0  0  0  0  0  0  0  0  0  0
   -9.2968    4.3328  -19.6468 C   0  0  0  0  0  0  0  0  0  0  0  0
   -8.0379    4.2564  -19.2088 N   0  0  0  0  0  0  0  0  0  0  0  0
   -7.7759    4.5151  -17.9310 C   0  0  0  0  0  0  0  0  0  0  0  0
   -3.8968    5.1005  -20.3816 C   0  0  0  0  0  0  0  0  0  0  0  0
   -2.7161    4.7802  -19.7274 C   0  0  0  0  0  0  0  0  0  0  0  0
   -2.7286    4.1801  -18.5043 O   0  0  0  0  0  0  0  0  0  0  0  0
   -1.5291    5.0796  -20.3635 C   0  0  0  0  0  0  0  0  0  0  0  0
   -1.4534    5.6921  -21.5634 N   0  0  0  0  0  0  0  0  0  0  0  0
   -2.5884    6.0278  -22.1857 C   0  0  0  0  0  0  0  0  0  0  0  0
   -2.4855    6.6749  -23.4128 C   0  0  0  0  0  0  0  0  0  0  0  0
   -3.6105    7.0990  -24.1198 C   0  0  0  0  0  0  0  0  0  0  0  0
   -4.8614    6.8696  -23.5817 C   0  0  0  0  0  0  0  0  0  0  0  0
   -5.9537    7.2866  -24.2341 F   0  0  0  0  0  0  0  0  0  0  0  0
   -4.9915    6.2134  -22.3655 C   0  0  0  0  0  0  0  0  0  0  0  0
   -3.8603    5.7681  -21.6397 C   0  0  0  0  0  0  0  0  0  0  0  0
  1  2  2  0
  2  3  1  0
  3  4  1  0
  4  5  2  0
  5  6  1  0
  6  7  1  0
  7  8  1  0
  7  9  1  0
  7 10  1  0
  6 11  2  0
 11 12  1  0
 12 13  2  0
 13 14  1  0
 14 15  2  0
 15 16  1  0
 16 17  2  0
  2 18  1  0
 18 19  2  0
 19 20  1  0
 19 21  1  0
 21 22  2  0
 22 23  1  0
 23 24  2  0
 24 25  1  0
 25 26  2  0
 26 27  1  0
 26 28  1  0
 28 29  2  0
 17  4  1  0
 29 18  1  0
 17 12  1  0
 29 23  1  0
M  END
>  <fragmenstein_outcome>  (382) 
nan

>  <exports>  (382) 
['/opt/xchem-fragalysis-2/maxwin/openbind-hippo/xx01zvns2b/cycle_01/syndirella/elabs/openbind_xx01zvns2b_c1_elab_chemspace_filtered.sdf']

>  <Energy>  (382) 
nan

>  <alias>  (382) 
None

>  <fragmenstein_runtime>  (382) 
nan

>  <scratch_subdir>  (382) 
nan

>  <HIPPO Compound ID>  (382) 
142279

>  <rmsd(smina/fragmenstein)>  (382) 
1.736

>  <distance_score>  (382) 
0.977319

>  <orig_smiles>  (382) 
nan

>  <fragmenstein_mode>  (382) 
nan

>  <inchikey>  (382) 
UUUOZSHLMDIXOY-UHFFFAOYSA-N

>  <ref_pdb>  (382) 
Z0852a

>  <GNINA pK>  (382) 
nan

>  <gnina_score_min>  (382) 
5.857

>  <tags>  (382) 
openbind_xx01zvns2b_c1_elab_nonasap_filtered_scored_top80percent,openbind_xx01zvns2b_c1_elab_chemspace_filtered_scored_top80percent,openbind_xx01zvns2b_c1_elab_chemspace_filtered_scored,openbind_xx01zvns2b_c1_elab_chemspace_filtered_scored_top40percent,openbind_xx01zvns2b_c1_elab_chemspace_filtered_scored_top20percent,openbind_xx01zvns2b_c1_elab_chemspace_filtered_scored_top60percent,openbind_xx01zvns2b_c1_elabs_filtered

>  <smiles>  (382) 
O=C(Nc1cc(C(F)(F)F)cc2cccnc12)c1c(O)cnc2ccc(F)cc12

>  <subsites>  (382) 
1 - Z4590/B/203/1

>  <gnina_score>  (382) 
5.492

>  <HIPPO Pose ID>  (382) 
70332

>  <ref_mols>  (382) 
Z0917a,Z0852a

>  <energy_score>  (382) 
-9.741761

>  <inspiration_score>  (382) 
None

>  <smina_score_min>  (382) 
-7.116

>  <fragmenstein_error>  (382) 
nan

>  <name>  (382) 
P70332

$$$$
P70333
     RDKit          3D

 29 32  0  0  0  0  0  0  0  0999 V2000
   -5.9999    6.1603  -13.3262 C   0  0  0  0  0  0  0  0  0  0  0  0
   -7.3657    5.6177  -13.7544 C   0  0  0  0  0  0  0  0  0  0  0  0
   -7.8194    4.5563  -12.7350 C   0  0  0  0  0  0  0  0  0  0  0  0
   -8.3375    6.8010  -13.6763 C   0  0  0  0  0  0  0  0  0  0  0  0
   -7.3992    5.0830  -15.1882 C   0  0  0  0  0  0  0  0  0  0  0  0
   -6.3761    5.2434  -16.1434 C   0  0  0  0  0  0  0  0  0  0  0  0
   -6.5808    4.9368  -17.5077 C   0  0  0  0  0  0  0  0  0  0  0  0
   -5.5143    5.1767  -18.3981 N   0  0  0  0  0  0  0  0  0  0  0  0
   -5.3070    4.7212  -19.8784 C   0  0  0  0  0  0  0  0  0  0  0  0
   -6.0247    4.1449  -20.6029 O   0  0  0  0  0  0  0  0  0  0  0  0
   -3.9768    5.1170  -20.3840 C   0  0  0  0  0  0  0  0  0  0  0  0
   -2.8546    4.7624  -19.6426 C   0  0  0  0  0  0  0  0  0  0  0  0
   -2.9091    4.1505  -18.4232 O   0  0  0  0  0  0  0  0  0  0  0  0
   -1.6239    5.0449  -20.1899 C   0  0  0  0  0  0  0  0  0  0  0  0
   -1.4563    5.6578  -21.3844 N   0  0  0  0  0  0  0  0  0  0  0  0
   -2.5386    6.0006  -22.0940 C   0  0  0  0  0  0  0  0  0  0  0  0
   -2.3434    6.6340  -23.3166 C   0  0  0  0  0  0  0  0  0  0  0  0
   -3.4125    7.0629  -24.1043 C   0  0  0  0  0  0  0  0  0  0  0  0
   -4.7018    6.8525  -23.6540 C   0  0  0  0  0  0  0  0  0  0  0  0
   -5.7400    7.2723  -24.3877 F   0  0  0  0  0  0  0  0  0  0  0  0
   -4.9271    6.2113  -22.4440 C   0  0  0  0  0  0  0  0  0  0  0  0
   -3.8497    5.7647  -21.6406 C   0  0  0  0  0  0  0  0  0  0  0  0
   -7.8515    4.5539  -17.9375 C   0  0  0  0  0  0  0  0  0  0  0  0
   -8.1958    4.4968  -19.2214 N   0  0  0  0  0  0  0  0  0  0  0  0
   -9.4963    4.4944  -19.5422 C   0  0  0  0  0  0  0  0  0  0  0  0
  -10.5088    4.4188  -18.6323 C   0  0  0  0  0  0  0  0  0  0  0  0
  -10.1451    4.1924  -17.3453 C   0  0  0  0  0  0  0  0  0  0  0  0
   -8.8376    4.3685  -16.9668 C   0  0  0  0  0  0  0  0  0  0  0  0
   -8.5982    4.5313  -15.6207 C   0  0  0  0  0  0  0  0  0  0  0  0
  1  2  1  0
  2  3  1  0
  2  4  1  0
  2  5  1  0
  5  6  2  0
  6  7  1  0
  7  8  1  0
  8  9  1  0
  9 10  2  0
  9 11  1  0
 11 12  2  0
 12 13  1  0
 12 14  1  0
 14 15  2  0
 15 16  1  0
 16 17  2  0
 17 18  1  0
 18 19  2  0
 19 20  1  0
 19 21  1  0
 21 22  2  0
  7 23  2  0
 23 24  1  0
 24 25  2  0
 25 26  1  0
 26 27  2  0
 27 28  1  0
 28 29  2  0
 29  5  1  0
 22 11  1  0
 28 23  1  0
 22 16  1  0
M  END
>  <fragmenstein_outcome>  (383) 
nan

>  <exports>  (383) 
['/opt/xchem-fragalysis-2/maxwin/openbind-hippo/xx01zvns2b/cycle_01/syndirella/elabs/openbind_xx01zvns2b_c1_elab_chemspace_filtered.sdf']

>  <Energy>  (383) 
nan

>  <alias>  (383) 
None

>  <fragmenstein_runtime>  (383) 
nan

>  <scratch_subdir>  (383) 
nan

>  <HIPPO Compound ID>  (383) 
142280

>  <rmsd(smina/fragmenstein)>  (383) 
1.299

>  <distance_score>  (383) 
1.248374

>  <orig_smiles>  (383) 
nan

>  <fragmenstein_mode>  (383) 
nan

>  <inchikey>  (383) 
YTKWYFHIWFVQDK-UHFFFAOYSA-N

>  <ref_pdb>  (383) 
Z0852a

>  <GNINA pK>  (383) 
nan

>  <gnina_score_min>  (383) 
6.196

>  <tags>  (383) 
openbind_xx01zvns2b_c1_elab_nonasap_filtered_scored_top80percent,openbind_xx01zvns2b_c1_elab_chemspace_filtered_scored_top80percent,openbind_xx01zvns2b_c1_elab_chemspace_filtered_scored,openbind_xx01zvns2b_c1_elab_chemspace_filtered_scored_top40percent,openbind_xx01zvns2b_c1_elab_chemspace_filtered_scored_top20percent,openbind_xx01zvns2b_c1_elab_chemspace_filtered_scored_top60percent,openbind_xx01zvns2b_c1_elabs_filtered

>  <smiles>  (383) 
CC(C)(C)c1cc(NC(=O)c2c(O)cnc3ccc(F)cc23)c2ncccc2c1

>  <subsites>  (383) 
1 - Z4590/B/203/1

>  <gnina_score>  (383) 
5.507

>  <HIPPO Pose ID>  (383) 
70333

>  <ref_mols>  (383) 
Z0917a,Z0852a

>  <energy_score>  (383) 
-31.553688

>  <inspiration_score>  (383) 
None

>  <smina_score_min>  (383) 
-7.431

>  <fragmenstein_error>  (383) 
nan

>  <name>  (383) 
P70333

$$$$
P70334
     RDKit          3D

 29 32  0  0  0  0  0  0  0  0999 V2000
   -5.9678    3.9609  -20.3810 O   0  0  0  0  0  0  0  0  0  0  0  0
   -5.3471    4.7462  -19.7722 C   0  0  0  0  0  0  0  0  0  0  0  0
   -5.6222    5.3918  -18.3803 N   0  0  0  0  0  0  0  0  0  0  0  0
   -6.6352    5.1387  -17.4435 C   0  0  0  0  0  0  0  0  0  0  0  0
   -6.4148    5.4683  -16.0940 C   0  0  0  0  0  0  0  0  0  0  0  0
   -7.4117    5.2410  -15.1268 C   0  0  0  0  0  0  0  0  0  0  0  0
   -7.3111    5.7441  -13.7127 C   0  0  0  0  0  0  0  0  0  0  0  0
   -8.4000    5.4403  -12.9483 F   0  0  0  0  0  0  0  0  0  0  0  0
   -6.2301    5.2652  -13.0493 F   0  0  0  0  0  0  0  0  0  0  0  0
   -7.2177    7.1042  -13.6697 F   0  0  0  0  0  0  0  0  0  0  0  0
   -8.5936    4.6305  -15.5141 C   0  0  0  0  0  0  0  0  0  0  0  0
   -8.8434    4.4394  -16.8590 C   0  0  0  0  0  0  0  0  0  0  0  0
  -10.1329    4.1576  -17.2294 C   0  0  0  0  0  0  0  0  0  0  0  0
  -10.5315    4.3492  -18.5159 C   0  0  0  0  0  0  0  0  0  0  0  0
   -9.5459    4.5340  -19.4410 C   0  0  0  0  0  0  0  0  0  0  0  0
   -8.2472    4.6367  -19.1324 N   0  0  0  0  0  0  0  0  0  0  0  0
   -7.8903    4.6866  -17.8494 C   0  0  0  0  0  0  0  0  0  0  0  0
   -4.1195    5.2568  -20.4231 C   0  0  0  0  0  0  0  0  0  0  0  0
   -4.2739    5.5765  -21.7742 C   0  0  0  0  0  0  0  0  0  0  0  0
   -3.1753    6.0461  -22.4424 C   0  0  0  0  0  0  0  0  0  0  0  0
   -3.2448    6.4071  -23.7551 O   0  0  0  0  0  0  0  0  0  0  0  0
   -1.9824    6.2378  -21.8683 N   0  0  0  0  0  0  0  0  0  0  0  0
   -1.8316    5.9279  -20.5736 C   0  0  0  0  0  0  0  0  0  0  0  0
   -0.5947    6.1798  -20.0024 C   0  0  0  0  0  0  0  0  0  0  0  0
   -0.3651    5.9497  -18.6513 C   0  0  0  0  0  0  0  0  0  0  0  0
    1.3204    6.3477  -17.8960 Br  0  0  0  0  0  0  0  0  0  0  0  0
   -1.3664    5.4125  -17.8568 C   0  0  0  0  0  0  0  0  0  0  0  0
   -2.5899    5.0725  -18.4288 C   0  0  0  0  0  0  0  0  0  0  0  0
   -2.8710    5.3996  -19.7786 C   0  0  0  0  0  0  0  0  0  0  0  0
  1  2  2  0
  2  3  1  0
  3  4  1  0
  4  5  2  0
  5  6  1  0
  6  7  1  0
  7  8  1  0
  7  9  1  0
  7 10  1  0
  6 11  2  0
 11 12  1  0
 12 13  2  0
 13 14  1  0
 14 15  2  0
 15 16  1  0
 16 17  2  0
  2 18  1  0
 18 19  2  0
 19 20  1  0
 20 21  1  0
 20 22  2  0
 22 23  1  0
 23 24  2  0
 24 25  1  0
 25 26  1  0
 25 27  2  0
 27 28  1  0
 28 29  2  0
 17  4  1  0
 29 18  1  0
 17 12  1  0
 29 23  1  0
M  END
>  <fragmenstein_outcome>  (384) 
nan

>  <exports>  (384) 
['/opt/xchem-fragalysis-2/maxwin/openbind-hippo/xx01zvns2b/cycle_01/syndirella/elabs/openbind_xx01zvns2b_c1_elab_chemspace_filtered.sdf']

>  <Energy>  (384) 
nan

>  <alias>  (384) 
None

>  <fragmenstein_runtime>  (384) 
nan

>  <scratch_subdir>  (384) 
nan

>  <HIPPO Compound ID>  (384) 
142281

>  <rmsd(smina/fragmenstein)>  (384) 
1.575

>  <distance_score>  (384) 
0.976908

>  <orig_smiles>  (384) 
nan

>  <fragmenstein_mode>  (384) 
nan

>  <inchikey>  (384) 
MPZOUJWBBZOCKF-UHFFFAOYSA-N

>  <ref_pdb>  (384) 
Z0852a

>  <GNINA pK>  (384) 
nan

>  <gnina_score_min>  (384) 
5.861

>  <tags>  (384) 
openbind_xx01zvns2b_c1_elab_nonasap_filtered_scored_top80percent,openbind_xx01zvns2b_c1_elab_chemspace_filtered_scored_top80percent,openbind_xx01zvns2b_c1_elab_chemspace_filtered_scored,openbind_xx01zvns2b_c1_elab_chemspace_filtered_scored_top40percent,openbind_xx01zvns2b_c1_elab_chemspace_filtered_scored_top20percent,openbind_xx01zvns2b_c1_elab_chemspace_filtered_scored_top60percent,openbind_xx01zvns2b_c1_elabs_filtered

>  <smiles>  (384) 
O=C(Nc1cc(C(F)(F)F)cc2cccnc12)c1cc(O)nc2cc(Br)ccc12

>  <subsites>  (384) 
1 - Z4590/B/203/1

>  <gnina_score>  (384) 
5.459

>  <HIPPO Pose ID>  (384) 
70334

>  <ref_mols>  (384) 
Z0917a,Z0852a

>  <energy_score>  (384) 
-20.059082

>  <inspiration_score>  (384) 
None

>  <smina_score_min>  (384) 
-6.459

>  <fragmenstein_error>  (384) 
nan

>  <name>  (384) 
P70334

$$$$
P70335
     RDKit          3D

 29 32  0  0  0  0  0  0  0  0999 V2000
   -6.0045    4.7270  -13.1325 C   0  0  0  0  0  0  0  0  0  0  0  0
   -7.1770    5.4708  -13.7776 C   0  0  0  0  0  0  0  0  0  0  0  0
   -6.8840    6.9732  -13.8271 C   0  0  0  0  0  0  0  0  0  0  0  0
   -8.4084    5.2910  -12.8593 C   0  0  0  0  0  0  0  0  0  0  0  0
   -7.3763    4.9990  -15.2170 C   0  0  0  0  0  0  0  0  0  0  0  0
   -6.3946    5.2001  -16.2114 C   0  0  0  0  0  0  0  0  0  0  0  0
   -6.6574    4.9537  -17.5688 C   0  0  0  0  0  0  0  0  0  0  0  0
   -5.6557    5.2466  -18.5036 N   0  0  0  0  0  0  0  0  0  0  0  0
   -5.3965    4.6633  -19.9233 C   0  0  0  0  0  0  0  0  0  0  0  0
   -6.0243    3.9058  -20.5591 O   0  0  0  0  0  0  0  0  0  0  0  0
   -4.1640    5.1998  -20.5501 C   0  0  0  0  0  0  0  0  0  0  0  0
   -4.3140    5.5629  -21.8896 C   0  0  0  0  0  0  0  0  0  0  0  0
   -3.2161    6.0621  -22.5371 C   0  0  0  0  0  0  0  0  0  0  0  0
   -3.2816    6.4586  -23.8397 O   0  0  0  0  0  0  0  0  0  0  0  0
   -2.0284    6.2496  -21.9509 N   0  0  0  0  0  0  0  0  0  0  0  0
   -1.8835    5.9099  -20.6641 C   0  0  0  0  0  0  0  0  0  0  0  0
   -0.6558    6.1732  -20.0786 C   0  0  0  0  0  0  0  0  0  0  0  0
   -0.4327    5.9208  -18.7312 C   0  0  0  0  0  0  0  0  0  0  0  0
    1.2357    6.3415  -17.9513 Br  0  0  0  0  0  0  0  0  0  0  0  0
   -1.4288    5.3453  -17.9582 C   0  0  0  0  0  0  0  0  0  0  0  0
   -2.6375    4.9863  -18.5490 C   0  0  0  0  0  0  0  0  0  0  0  0
   -2.9196    5.3426  -19.8920 C   0  0  0  0  0  0  0  0  0  0  0  0
   -7.9341    4.5758  -17.9628 C   0  0  0  0  0  0  0  0  0  0  0  0
   -8.3099    4.5783  -19.2390 N   0  0  0  0  0  0  0  0  0  0  0  0
   -9.6178    4.5733  -19.5202 C   0  0  0  0  0  0  0  0  0  0  0  0
  -10.6003    4.4257  -18.5859 C   0  0  0  0  0  0  0  0  0  0  0  0
  -10.1941    4.1641  -17.3162 C   0  0  0  0  0  0  0  0  0  0  0  0
   -8.8814    4.3517  -16.9629 C   0  0  0  0  0  0  0  0  0  0  0  0
   -8.5949    4.4760  -15.6163 C   0  0  0  0  0  0  0  0  0  0  0  0
  1  2  1  0
  2  3  1  0
  2  4  1  0
  2  5  1  0
  5  6  2  0
  6  7  1  0
  7  8  1  0
  8  9  1  0
  9 10  2  0
  9 11  1  0
 11 12  2  0
 12 13  1  0
 13 14  1  0
 13 15  2  0
 15 16  1  0
 16 17  2  0
 17 18  1  0
 18 19  1  0
 18 20  2  0
 20 21  1  0
 21 22  2  0
  7 23  2  0
 23 24  1  0
 24 25  2  0
 25 26  1  0
 26 27  2  0
 27 28  1  0
 28 29  2  0
 29  5  1  0
 22 11  1  0
 28 23  1  0
 22 16  1  0
M  END
>  <fragmenstein_outcome>  (385) 
nan

>  <exports>  (385) 
['/opt/xchem-fragalysis-2/maxwin/openbind-hippo/xx01zvns2b/cycle_01/syndirella/elabs/openbind_xx01zvns2b_c1_elab_chemspace_filtered.sdf']

>  <Energy>  (385) 
nan

>  <alias>  (385) 
None

>  <fragmenstein_runtime>  (385) 
nan

>  <scratch_subdir>  (385) 
nan

>  <HIPPO Compound ID>  (385) 
142282

>  <rmsd(smina/fragmenstein)>  (385) 
1.534

>  <distance_score>  (385) 
1.141306

>  <orig_smiles>  (385) 
nan

>  <fragmenstein_mode>  (385) 
nan

>  <inchikey>  (385) 
JYICGOVNVCLVDY-UHFFFAOYSA-N

>  <ref_pdb>  (385) 
Z0852a

>  <GNINA pK>  (385) 
nan

>  <gnina_score_min>  (385) 
6.27

>  <tags>  (385) 
openbind_xx01zvns2b_c1_elab_nonasap_filtered_scored_top80percent,openbind_xx01zvns2b_c1_elab_chemspace_filtered_scored_top80percent,openbind_xx01zvns2b_c1_elab_chemspace_filtered_scored,openbind_xx01zvns2b_c1_elab_chemspace_filtered_scored_top40percent,openbind_xx01zvns2b_c1_elab_chemspace_filtered_scored_top20percent,openbind_xx01zvns2b_c1_elab_chemspace_filtered_scored_top60percent,openbind_xx01zvns2b_c1_elabs_filtered

>  <smiles>  (385) 
CC(C)(C)c1cc(NC(=O)c2cc(O)nc3cc(Br)ccc23)c2ncccc2c1

>  <subsites>  (385) 
1 - Z4590/B/203/1

>  <gnina_score>  (385) 
5.721

>  <HIPPO Pose ID>  (385) 
70335

>  <ref_mols>  (385) 
Z0917a,Z0852a

>  <energy_score>  (385) 
-21.454463

>  <inspiration_score>  (385) 
None

>  <smina_score_min>  (385) 
-6.635

>  <fragmenstein_error>  (385) 
nan

>  <name>  (385) 
P70335

$$$$
P70336
     RDKit          3D

 29 32  0  0  0  0  0  0  0  0999 V2000
   -6.3853    4.6502  -11.5000 C   0  0  0  0  0  0  0  0  0  0  0  0
   -6.8972    4.6723  -12.8322 O   0  0  0  0  0  0  0  0  0  0  0  0
   -5.9641    4.8994  -13.7872 C   0  0  0  0  0  0  0  0  0  0  0  0
   -4.7829    5.1450  -13.5957 O   0  0  0  0  0  0  0  0  0  0  0  0
   -6.5747    4.8336  -15.1403 C   0  0  0  0  0  0  0  0  0  0  0  0
   -5.7879    5.1665  -16.2436 C   0  0  0  0  0  0  0  0  0  0  0  0
   -6.2899    5.0460  -17.5479 C   0  0  0  0  0  0  0  0  0  0  0  0
   -5.3857    5.3132  -18.5760 N   0  0  0  0  0  0  0  0  0  0  0  0
   -5.2853    4.7240  -20.0086 C   0  0  0  0  0  0  0  0  0  0  0  0
   -5.9903    3.9814  -20.5743 O   0  0  0  0  0  0  0  0  0  0  0  0
   -4.0805    5.2288  -20.7191 C   0  0  0  0  0  0  0  0  0  0  0  0
   -4.3041    5.5867  -22.0456 C   0  0  0  0  0  0  0  0  0  0  0  0
   -3.2507    6.1032  -22.7499 C   0  0  0  0  0  0  0  0  0  0  0  0
   -2.0423    6.3276  -22.2069 N   0  0  0  0  0  0  0  0  0  0  0  0
   -1.8161    6.0007  -20.9161 C   0  0  0  0  0  0  0  0  0  0  0  0
   -0.5832    6.3158  -20.3256 C   0  0  0  0  0  0  0  0  0  0  0  0
    0.3891    7.0076  -21.0186 O   0  0  0  0  0  0  0  0  0  0  0  0
    1.1030    6.1240  -21.8841 C   0  0  0  0  0  0  0  0  0  0  0  0
   -0.3145    6.0712  -18.9805 C   0  0  0  0  0  0  0  0  0  0  0  0
   -1.2575    5.4125  -18.2127 C   0  0  0  0  0  0  0  0  0  0  0  0
   -2.4612    5.0131  -18.7889 C   0  0  0  0  0  0  0  0  0  0  0  0
   -2.8032    5.3871  -20.1175 C   0  0  0  0  0  0  0  0  0  0  0  0
   -7.6202    4.6975  -17.7753 C   0  0  0  0  0  0  0  0  0  0  0  0
   -8.1674    4.7382  -18.9951 N   0  0  0  0  0  0  0  0  0  0  0  0
   -9.4865    4.5380  -19.1354 C   0  0  0  0  0  0  0  0  0  0  0  0
  -10.3185    4.2321  -18.0907 C   0  0  0  0  0  0  0  0  0  0  0  0
   -9.7439    4.1257  -16.8420 C   0  0  0  0  0  0  0  0  0  0  0  0
   -8.4060    4.4086  -16.6511 C   0  0  0  0  0  0  0  0  0  0  0  0
   -7.8912    4.4376  -15.3509 C   0  0  0  0  0  0  0  0  0  0  0  0
  1  2  1  0
  2  3  1  0
  3  4  2  0
  3  5  1  0
  5  6  2  0
  6  7  1  0
  7  8  1  0
  8  9  1  0
  9 10  2  0
  9 11  1  0
 11 12  2  0
 12 13  1  0
 13 14  2  0
 14 15  1  0
 15 16  2  0
 16 17  1  0
 17 18  1  0
 16 19  1  0
 19 20  2  0
 20 21  1  0
 21 22  2  0
  7 23  2  0
 23 24  1  0
 24 25  2  0
 25 26  1  0
 26 27  2  0
 27 28  1  0
 28 29  2  0
 29  5  1  0
 22 11  1  0
 28 23  1  0
 22 15  1  0
M  END
>  <fragmenstein_outcome>  (386) 
nan

>  <exports>  (386) 
['/opt/xchem-fragalysis-2/maxwin/openbind-hippo/xx01zvns2b/cycle_01/syndirella/elabs/openbind_xx01zvns2b_c1_elab_chemspace_filtered.sdf']

>  <Energy>  (386) 
nan

>  <alias>  (386) 
None

>  <fragmenstein_runtime>  (386) 
nan

>  <scratch_subdir>  (386) 
nan

>  <HIPPO Compound ID>  (386) 
142283

>  <rmsd(smina/fragmenstein)>  (386) 
1.009

>  <distance_score>  (386) 
1.566426

>  <orig_smiles>  (386) 
nan

>  <fragmenstein_mode>  (386) 
nan

>  <inchikey>  (386) 
YDLMCKJKRGDMQK-UHFFFAOYSA-N

>  <ref_pdb>  (386) 
Z0852a

>  <GNINA pK>  (386) 
nan

>  <gnina_score_min>  (386) 
5.993

>  <tags>  (386) 
openbind_xx01zvns2b_c1_elab_nonasap_filtered_scored_top80percent,openbind_xx01zvns2b_c1_elab_chemspace_filtered_scored_top80percent,openbind_xx01zvns2b_c1_elab_chemspace_filtered_scored,openbind_xx01zvns2b_c1_elab_chemspace_filtered_scored_top40percent,openbind_xx01zvns2b_c1_elab_chemspace_filtered_scored_top20percent,openbind_xx01zvns2b_c1_elab_chemspace_filtered_scored_top60percent,openbind_xx01zvns2b_c1_elabs_filtered

>  <smiles>  (386) 
COC(=O)c1cc(NC(=O)c2ccnc3c(OC)cccc23)c2ncccc2c1

>  <subsites>  (386) 
1 - Z4590/B/203/1

>  <gnina_score>  (386) 
5.803

>  <HIPPO Pose ID>  (386) 
70336

>  <ref_mols>  (386) 
Z0917a,Z0852a

>  <energy_score>  (386) 
-18.103466

>  <inspiration_score>  (386) 
None

>  <smina_score_min>  (386) 
-6.258

>  <fragmenstein_error>  (386) 
nan

>  <name>  (386) 
P70336

$$$$
P70337
     RDKit          3D

 29 32  0  0  0  0  0  0  0  0999 V2000
    0.8013    6.5321  -21.6798 C   0  0  0  0  0  0  0  0  0  0  0  0
    0.5170    6.8749  -20.3268 O   0  0  0  0  0  0  0  0  0  0  0  0
   -0.6008    6.2810  -19.7786 C   0  0  0  0  0  0  0  0  0  0  0  0
   -0.4617    6.0579  -18.4044 C   0  0  0  0  0  0  0  0  0  0  0  0
   -1.4755    5.4423  -17.6928 C   0  0  0  0  0  0  0  0  0  0  0  0
   -2.6353    5.0591  -18.3530 C   0  0  0  0  0  0  0  0  0  0  0  0
   -2.8570    5.4098  -19.7087 C   0  0  0  0  0  0  0  0  0  0  0  0
   -4.0894    5.2421  -20.3826 C   0  0  0  0  0  0  0  0  0  0  0  0
   -5.3332    4.7387  -19.7495 C   0  0  0  0  0  0  0  0  0  0  0  0
   -5.9447    3.9453  -20.3570 O   0  0  0  0  0  0  0  0  0  0  0  0
   -5.6235    5.3944  -18.3650 N   0  0  0  0  0  0  0  0  0  0  0  0
   -6.6424    5.1440  -17.4355 C   0  0  0  0  0  0  0  0  0  0  0  0
   -6.4269    5.4752  -16.0857 C   0  0  0  0  0  0  0  0  0  0  0  0
   -7.4254    5.2459  -15.1214 C   0  0  0  0  0  0  0  0  0  0  0  0
   -7.3261    5.7461  -13.7067 C   0  0  0  0  0  0  0  0  0  0  0  0
   -7.2309    7.1060  -13.6604 F   0  0  0  0  0  0  0  0  0  0  0  0
   -6.2463    5.2646  -13.0428 F   0  0  0  0  0  0  0  0  0  0  0  0
   -8.4160    5.4419  -12.9440 F   0  0  0  0  0  0  0  0  0  0  0  0
   -8.6055    4.6343  -15.5128 C   0  0  0  0  0  0  0  0  0  0  0  0
   -8.8505    4.4420  -16.8587 C   0  0  0  0  0  0  0  0  0  0  0  0
  -10.1383    4.1598  -17.2344 C   0  0  0  0  0  0  0  0  0  0  0  0
  -10.5310    4.3512  -18.5226 C   0  0  0  0  0  0  0  0  0  0  0  0
   -9.5413    4.5311  -19.4444 C   0  0  0  0  0  0  0  0  0  0  0  0
   -8.2439    4.6334  -19.1307 N   0  0  0  0  0  0  0  0  0  0  0  0
   -7.8939    4.6880  -17.8460 C   0  0  0  0  0  0  0  0  0  0  0  0
   -4.2202    5.5427  -21.7377 C   0  0  0  0  0  0  0  0  0  0  0  0
   -3.1220    6.0315  -22.3874 C   0  0  0  0  0  0  0  0  0  0  0  0
   -1.9533    6.2733  -21.7688 N   0  0  0  0  0  0  0  0  0  0  0  0
   -1.8000    5.9817  -20.4551 C   0  0  0  0  0  0  0  0  0  0  0  0
  1  2  1  0
  2  3  1  0
  3  4  2  0
  4  5  1  0
  5  6  2  0
  6  7  1  0
  7  8  2  0
  8  9  1  0
  9 10  2  0
  9 11  1  0
 11 12  1  0
 12 13  2  0
 13 14  1  0
 14 15  1  0
 15 16  1  0
 15 17  1  0
 15 18  1  0
 14 19  2  0
 19 20  1  0
 20 21  2  0
 21 22  1  0
 22 23  2  0
 23 24  1  0
 24 25  2  0
  8 26  1  0
 26 27  2  0
 27 28  1  0
 28 29  2  0
 29  3  1  0
 29  7  1  0
 25 12  1  0
 25 20  1  0
M  END
>  <fragmenstein_outcome>  (387) 
nan

>  <exports>  (387) 
['/opt/xchem-fragalysis-2/maxwin/openbind-hippo/xx01zvns2b/cycle_01/syndirella/elabs/openbind_xx01zvns2b_c1_elab_chemspace_filtered.sdf']

>  <Energy>  (387) 
nan

>  <alias>  (387) 
None

>  <fragmenstein_runtime>  (387) 
nan

>  <scratch_subdir>  (387) 
nan

>  <HIPPO Compound ID>  (387) 
142284

>  <rmsd(smina/fragmenstein)>  (387) 
1.472

>  <distance_score>  (387) 
1.06776

>  <orig_smiles>  (387) 
nan

>  <fragmenstein_mode>  (387) 
nan

>  <inchikey>  (387) 
HBWKBLXQBYLBBC-UHFFFAOYSA-N

>  <ref_pdb>  (387) 
Z0852a

>  <GNINA pK>  (387) 
nan

>  <gnina_score_min>  (387) 
5.985

>  <tags>  (387) 
openbind_xx01zvns2b_c1_elab_nonasap_filtered_scored_top80percent,openbind_xx01zvns2b_c1_elab_chemspace_filtered_scored_top80percent,openbind_xx01zvns2b_c1_elab_chemspace_filtered_scored,openbind_xx01zvns2b_c1_elab_chemspace_filtered_scored_top40percent,openbind_xx01zvns2b_c1_elab_chemspace_filtered_scored_top20percent,openbind_xx01zvns2b_c1_elab_chemspace_filtered_scored_top60percent,openbind_xx01zvns2b_c1_elabs_filtered

>  <smiles>  (387) 
COc1cccc2c(C(=O)Nc3cc(C(F)(F)F)cc4cccnc34)ccnc12

>  <subsites>  (387) 
1 - Z4590/B/203/1

>  <gnina_score>  (387) 
5.555

>  <HIPPO Pose ID>  (387) 
70337

>  <ref_mols>  (387) 
Z0917a,Z0852a

>  <energy_score>  (387) 
-18.193459

>  <inspiration_score>  (387) 
None

>  <smina_score_min>  (387) 
-6.226

>  <fragmenstein_error>  (387) 
nan

>  <name>  (387) 
P70337

$$$$
P70338
     RDKit          3D

 29 32  0  0  0  0  0  0  0  0999 V2000
    1.1049    6.1684  -21.2550 C   0  0  0  0  0  0  0  0  0  0  0  0
    0.3341    7.0344  -20.4206 O   0  0  0  0  0  0  0  0  0  0  0  0
   -0.6911    6.3327  -19.8198 C   0  0  0  0  0  0  0  0  0  0  0  0
   -0.5337    6.0832  -18.4565 C   0  0  0  0  0  0  0  0  0  0  0  0
   -1.5236    5.3990  -17.7740 C   0  0  0  0  0  0  0  0  0  0  0  0
   -2.6661    4.9852  -18.4530 C   0  0  0  0  0  0  0  0  0  0  0  0
   -2.9024    5.3686  -19.8006 C   0  0  0  0  0  0  0  0  0  0  0  0
   -4.1218    5.1898  -20.4999 C   0  0  0  0  0  0  0  0  0  0  0  0
   -5.3708    4.6548  -19.8973 C   0  0  0  0  0  0  0  0  0  0  0  0
   -5.9876    3.8913  -20.5364 O   0  0  0  0  0  0  0  0  0  0  0  0
   -5.6488    5.2437  -18.4830 N   0  0  0  0  0  0  0  0  0  0  0  0
   -6.6589    4.9505  -17.5588 C   0  0  0  0  0  0  0  0  0  0  0  0
   -6.4030    5.1988  -16.2004 C   0  0  0  0  0  0  0  0  0  0  0  0
   -7.3881    4.9994  -15.2103 C   0  0  0  0  0  0  0  0  0  0  0  0
   -7.1906    5.4694  -13.7705 C   0  0  0  0  0  0  0  0  0  0  0  0
   -6.8962    6.9718  -13.8179 C   0  0  0  0  0  0  0  0  0  0  0  0
   -6.0195    4.7245  -13.1239 C   0  0  0  0  0  0  0  0  0  0  0  0
   -8.4234    5.2893  -12.8551 C   0  0  0  0  0  0  0  0  0  0  0  0
   -8.6059    4.4792  -15.6154 C   0  0  0  0  0  0  0  0  0  0  0  0
   -8.8855    4.3522  -16.9637 C   0  0  0  0  0  0  0  0  0  0  0  0
  -10.1967    4.1680  -17.3238 C   0  0  0  0  0  0  0  0  0  0  0  0
  -10.5940    4.4282  -18.5964 C   0  0  0  0  0  0  0  0  0  0  0  0
   -9.6056    4.5647  -19.5264 C   0  0  0  0  0  0  0  0  0  0  0  0
   -8.2992    4.5656  -19.2385 N   0  0  0  0  0  0  0  0  0  0  0  0
   -7.9322    4.5706  -17.9598 C   0  0  0  0  0  0  0  0  0  0  0  0
   -4.2384    5.5367  -21.8455 C   0  0  0  0  0  0  0  0  0  0  0  0
   -3.1418    6.0727  -22.4642 C   0  0  0  0  0  0  0  0  0  0  0  0
   -1.9889    6.3263  -21.8220 N   0  0  0  0  0  0  0  0  0  0  0  0
   -1.8640    6.0020  -20.5158 C   0  0  0  0  0  0  0  0  0  0  0  0
  1  2  1  0
  2  3  1  0
  3  4  2  0
  4  5  1  0
  5  6  2  0
  6  7  1  0
  7  8  2  0
  8  9  1  0
  9 10  2  0
  9 11  1  0
 11 12  1  0
 12 13  2  0
 13 14  1  0
 14 15  1  0
 15 16  1  0
 15 17  1  0
 15 18  1  0
 14 19  2  0
 19 20  1  0
 20 21  2  0
 21 22  1  0
 22 23  2  0
 23 24  1  0
 24 25  2  0
  8 26  1  0
 26 27  2  0
 27 28  1  0
 28 29  2  0
 29  3  1  0
 29  7  1  0
 25 12  1  0
 25 20  1  0
M  END
>  <fragmenstein_outcome>  (388) 
nan

>  <exports>  (388) 
['/opt/xchem-fragalysis-2/maxwin/openbind-hippo/xx01zvns2b/cycle_01/syndirella/elabs/openbind_xx01zvns2b_c1_elab_chemspace_filtered.sdf']

>  <Energy>  (388) 
nan

>  <alias>  (388) 
None

>  <fragmenstein_runtime>  (388) 
nan

>  <scratch_subdir>  (388) 
nan

>  <HIPPO Compound ID>  (388) 
142285

>  <rmsd(smina/fragmenstein)>  (388) 
1.326

>  <distance_score>  (388) 
1.143387

>  <orig_smiles>  (388) 
nan

>  <fragmenstein_mode>  (388) 
nan

>  <inchikey>  (388) 
DMYLQKZCDJVJSU-UHFFFAOYSA-N

>  <ref_pdb>  (388) 
Z0852a

>  <GNINA pK>  (388) 
nan

>  <gnina_score_min>  (388) 
6.373

>  <tags>  (388) 
openbind_xx01zvns2b_c1_elab_nonasap_filtered_scored_top80percent,openbind_xx01zvns2b_c1_elab_chemspace_filtered_scored_top80percent,openbind_xx01zvns2b_c1_elab_chemspace_filtered_scored,openbind_xx01zvns2b_c1_elab_chemspace_filtered_scored_top40percent,openbind_xx01zvns2b_c1_elab_chemspace_filtered_scored_top20percent,openbind_xx01zvns2b_c1_elab_chemspace_filtered_scored_top60percent,openbind_xx01zvns2b_c1_elabs_filtered

>  <smiles>  (388) 
COc1cccc2c(C(=O)Nc3cc(C(C)(C)C)cc4cccnc34)ccnc12

>  <subsites>  (388) 
1 - Z4590/B/203/1

>  <gnina_score>  (388) 
5.825

>  <HIPPO Pose ID>  (388) 
70338

>  <ref_mols>  (388) 
Z0917a,Z0852a

>  <energy_score>  (388) 
-12.643228

>  <inspiration_score>  (388) 
None

>  <smina_score_min>  (388) 
-6.418

>  <fragmenstein_error>  (388) 
nan

>  <name>  (388) 
P70338

$$$$
P70339
     RDKit          3D

 29 32  0  0  0  0  0  0  0  0999 V2000
   -2.0296    5.2506  -17.7280 C   0  0  0  0  0  0  0  0  0  0  0  0
   -2.5688    4.2760  -18.7717 C   0  0  0  0  0  0  0  0  0  0  0  0
   -2.7246    4.9296  -20.1181 C   0  0  0  0  0  0  0  0  0  0  0  0
   -1.5788    5.2221  -20.8397 C   0  0  0  0  0  0  0  0  0  0  0  0
   -1.5672    5.8139  -22.0502 N   0  0  0  0  0  0  0  0  0  0  0  0
   -2.7342    6.1217  -22.6247 C   0  0  0  0  0  0  0  0  0  0  0  0
   -2.7023    6.7247  -23.8765 C   0  0  0  0  0  0  0  0  0  0  0  0
   -3.8666    7.0959  -24.5505 C   0  0  0  0  0  0  0  0  0  0  0  0
   -5.0966    6.8635  -23.9589 C   0  0  0  0  0  0  0  0  0  0  0  0
   -5.1437    6.2590  -22.7037 C   0  0  0  0  0  0  0  0  0  0  0  0
   -3.9731    5.8693  -22.0136 C   0  0  0  0  0  0  0  0  0  0  0  0
   -3.9448    5.2533  -20.7360 C   0  0  0  0  0  0  0  0  0  0  0  0
   -5.2241    4.8375  -20.0910 C   0  0  0  0  0  0  0  0  0  0  0  0
   -5.9263    4.0911  -20.6547 O   0  0  0  0  0  0  0  0  0  0  0  0
   -5.3345    5.4418  -18.6639 N   0  0  0  0  0  0  0  0  0  0  0  0
   -6.2527    5.1853  -17.6345 C   0  0  0  0  0  0  0  0  0  0  0  0
   -5.7590    5.3623  -16.3312 C   0  0  0  0  0  0  0  0  0  0  0  0
   -6.5326    5.0469  -15.2120 C   0  0  0  0  0  0  0  0  0  0  0  0
   -5.9270    5.2105  -13.8650 C   0  0  0  0  0  0  0  0  0  0  0  0
   -4.7583    5.5178  -13.6879 O   0  0  0  0  0  0  0  0  0  0  0  0
   -6.8496    4.9994  -12.8947 O   0  0  0  0  0  0  0  0  0  0  0  0
   -6.3441    5.1408  -11.5671 C   0  0  0  0  0  0  0  0  0  0  0  0
   -7.8318    4.5912  -15.4009 C   0  0  0  0  0  0  0  0  0  0  0  0
   -8.3459    4.4945  -16.6962 C   0  0  0  0  0  0  0  0  0  0  0  0
   -9.6759    4.1572  -16.8623 C   0  0  0  0  0  0  0  0  0  0  0  0
  -10.2567    4.1997  -18.1108 C   0  0  0  0  0  0  0  0  0  0  0  0
   -9.4372    4.4888  -19.1717 C   0  0  0  0  0  0  0  0  0  0  0  0
   -8.1234    4.7359  -19.0507 N   0  0  0  0  0  0  0  0  0  0  0  0
   -7.5706    4.7742  -17.8369 C   0  0  0  0  0  0  0  0  0  0  0  0
  1  2  1  0
  2  3  1  0
  3  4  2  0
  4  5  1  0
  5  6  2  0
  6  7  1  0
  7  8  2  0
  8  9  1  0
  9 10  2  0
 10 11  1  0
 11 12  2  0
 12 13  1  0
 13 14  2  0
 13 15  1  0
 15 16  1  0
 16 17  2  0
 17 18  1  0
 18 19  1  0
 19 20  2  0
 19 21  1  0
 21 22  1  0
 18 23  2  0
 23 24  1  0
 24 25  2  0
 25 26  1  0
 26 27  2  0
 27 28  1  0
 28 29  2  0
 12  3  1  0
 29 16  1  0
 11  6  1  0
 29 24  1  0
M  END
>  <fragmenstein_outcome>  (389) 
nan

>  <exports>  (389) 
['/opt/xchem-fragalysis-2/maxwin/openbind-hippo/xx01zvns2b/cycle_01/syndirella/elabs/openbind_xx01zvns2b_c1_elab_chemspace_filtered.sdf']

>  <Energy>  (389) 
nan

>  <alias>  (389) 
None

>  <fragmenstein_runtime>  (389) 
nan

>  <scratch_subdir>  (389) 
nan

>  <HIPPO Compound ID>  (389) 
142286

>  <rmsd(smina/fragmenstein)>  (389) 
0.985

>  <distance_score>  (389) 
1.596859

>  <orig_smiles>  (389) 
nan

>  <fragmenstein_mode>  (389) 
nan

>  <inchikey>  (389) 
TXCHHDLSOGPBRL-UHFFFAOYSA-N

>  <ref_pdb>  (389) 
Z0852a

>  <GNINA pK>  (389) 
nan

>  <gnina_score_min>  (389) 
6.156

>  <tags>  (389) 
openbind_xx01zvns2b_c1_elab_nonasap_filtered_scored_top80percent,openbind_xx01zvns2b_c1_elab_chemspace_filtered_scored_top80percent,openbind_xx01zvns2b_c1_elab_chemspace_filtered_scored,openbind_xx01zvns2b_c1_elab_chemspace_filtered_scored_top40percent,openbind_xx01zvns2b_c1_elab_chemspace_filtered_scored_top20percent,openbind_xx01zvns2b_c1_elab_chemspace_filtered_scored_top60percent,openbind_xx01zvns2b_c1_elabs_filtered

>  <smiles>  (389) 
CCc1cnc2ccccc2c1C(=O)Nc1cc(C(=O)OC)cc2cccnc12

>  <subsites>  (389) 
1 - Z4590/B/203/1

>  <gnina_score>  (389) 
5.906

>  <HIPPO Pose ID>  (389) 
70339

>  <ref_mols>  (389) 
Z0917a,Z0852a

>  <energy_score>  (389) 
-24.154491

>  <inspiration_score>  (389) 
None

>  <smina_score_min>  (389) 
-6.799

>  <fragmenstein_error>  (389) 
nan

>  <name>  (389) 
P70339

$$$$
P70340
     RDKit          3D

 29 32  0  0  0  0  0  0  0  0999 V2000
   -2.6878    4.1204  -18.5189 C   0  0  0  0  0  0  0  0  0  0  0  0
   -2.7552    4.9054  -19.7851 C   0  0  0  0  0  0  0  0  0  0  0  0
   -1.5601    5.2144  -20.4109 C   0  0  0  0  0  0  0  0  0  0  0  0
   -1.4638    5.8768  -21.5760 N   0  0  0  0  0  0  0  0  0  0  0  0
   -2.5851    6.2394  -22.1974 C   0  0  0  0  0  0  0  0  0  0  0  0
   -2.4359    6.9004  -23.4065 C   0  0  0  0  0  0  0  0  0  0  0  0
   -3.5317    7.3504  -24.1355 C   0  0  0  0  0  0  0  0  0  0  0  0
   -4.8057    7.1302  -23.6389 C   0  0  0  0  0  0  0  0  0  0  0  0
   -6.2820    7.7758  -24.6188 Br  0  0  0  0  0  0  0  0  0  0  0  0
   -4.9821    6.4555  -22.4297 C   0  0  0  0  0  0  0  0  0  0  0  0
   -3.8719    5.9944  -21.6782 C   0  0  0  0  0  0  0  0  0  0  0  0
   -3.9306    5.3149  -20.4282 C   0  0  0  0  0  0  0  0  0  0  0  0
   -5.2368    4.8620  -19.8722 C   0  0  0  0  0  0  0  0  0  0  0  0
   -5.8975    4.1680  -20.5487 O   0  0  0  0  0  0  0  0  0  0  0  0
   -5.4456    5.3346  -18.3938 N   0  0  0  0  0  0  0  0  0  0  0  0
   -6.5292    5.1292  -17.5093 C   0  0  0  0  0  0  0  0  0  0  0  0
   -6.3277    5.4605  -16.1498 C   0  0  0  0  0  0  0  0  0  0  0  0
   -7.3385    5.2647  -15.1862 C   0  0  0  0  0  0  0  0  0  0  0  0
   -7.2453    5.7645  -13.7696 C   0  0  0  0  0  0  0  0  0  0  0  0
   -8.3334    5.4496  -13.0070 F   0  0  0  0  0  0  0  0  0  0  0  0
   -7.1638    7.1251  -13.7210 F   0  0  0  0  0  0  0  0  0  0  0  0
   -6.1630    5.2919  -13.1037 F   0  0  0  0  0  0  0  0  0  0  0  0
   -8.5288    4.6822  -15.5801 C   0  0  0  0  0  0  0  0  0  0  0  0
   -8.7617    4.4757  -16.9228 C   0  0  0  0  0  0  0  0  0  0  0  0
  -10.0574    4.2090  -17.2816 C   0  0  0  0  0  0  0  0  0  0  0  0
  -10.4400    4.3575  -18.5762 C   0  0  0  0  0  0  0  0  0  0  0  0
   -9.4409    4.4662  -19.5006 C   0  0  0  0  0  0  0  0  0  0  0  0
   -8.1391    4.5622  -19.1925 N   0  0  0  0  0  0  0  0  0  0  0  0
   -7.7890    4.6815  -17.9148 C   0  0  0  0  0  0  0  0  0  0  0  0
  1  2  1  0
  2  3  2  0
  3  4  1  0
  4  5  2  0
  5  6  1  0
  6  7  2  0
  7  8  1  0
  8  9  1  0
  8 10  2  0
 10 11  1  0
 11 12  2  0
 12 13  1  0
 13 14  2  0
 13 15  1  0
 15 16  1  0
 16 17  2  0
 17 18  1  0
 18 19  1  0
 19 20  1  0
 19 21  1  0
 19 22  1  0
 18 23  2  0
 23 24  1  0
 24 25  2  0
 25 26  1  0
 26 27  2  0
 27 28  1  0
 28 29  2  0
 12  2  1  0
 29 16  1  0
 11  5  1  0
 29 24  1  0
M  END
>  <fragmenstein_outcome>  (390) 
nan

>  <exports>  (390) 
['/opt/xchem-fragalysis-2/maxwin/openbind-hippo/xx01zvns2b/cycle_01/syndirella/elabs/openbind_xx01zvns2b_c1_elab_chemspace_filtered.sdf']

>  <Energy>  (390) 
nan

>  <alias>  (390) 
None

>  <fragmenstein_runtime>  (390) 
nan

>  <scratch_subdir>  (390) 
nan

>  <HIPPO Compound ID>  (390) 
142288

>  <rmsd(smina/fragmenstein)>  (390) 
1.141

>  <distance_score>  (390) 
1.129688

>  <orig_smiles>  (390) 
nan

>  <fragmenstein_mode>  (390) 
nan

>  <inchikey>  (390) 
AKRNSRJJYGUBNX-UHFFFAOYSA-N

>  <ref_pdb>  (390) 
Z0852a

>  <GNINA pK>  (390) 
nan

>  <gnina_score_min>  (390) 
6.178

>  <tags>  (390) 
openbind_xx01zvns2b_c1_elab_nonasap_filtered_scored_top80percent,openbind_xx01zvns2b_c1_elab_chemspace_filtered_scored_top80percent,openbind_xx01zvns2b_c1_elab_chemspace_filtered_scored,openbind_xx01zvns2b_c1_elab_chemspace_filtered_scored_top40percent,openbind_xx01zvns2b_c1_elab_chemspace_filtered_scored_top20percent,openbind_xx01zvns2b_c1_elab_chemspace_filtered_scored_top60percent,openbind_xx01zvns2b_c1_elabs_filtered

>  <smiles>  (390) 
Cc1cnc2ccc(Br)cc2c1C(=O)Nc1cc(C(F)(F)F)cc2cccnc12

>  <subsites>  (390) 
1 - Z4590/B/203/1

>  <gnina_score>  (390) 
5.546

>  <HIPPO Pose ID>  (390) 
70340

>  <ref_mols>  (390) 
Z0917a,Z0852a

>  <energy_score>  (390) 
-14.899424

>  <inspiration_score>  (390) 
None

>  <smina_score_min>  (390) 
-7.47

>  <fragmenstein_error>  (390) 
nan

>  <name>  (390) 
P70340

$$$$
P70341
     RDKit          3D

 29 32  0  0  0  0  0  0  0  0999 V2000
   -0.3720    5.2349  -19.4341 C   0  0  0  0  0  0  0  0  0  0  0  0
   -1.6550    5.4070  -20.1860 C   0  0  0  0  0  0  0  0  0  0  0  0
   -1.5632    6.0055  -21.3979 N   0  0  0  0  0  0  0  0  0  0  0  0
   -2.6691    6.1949  -22.1282 C   0  0  0  0  0  0  0  0  0  0  0  0
   -2.5327    6.8072  -23.3682 C   0  0  0  0  0  0  0  0  0  0  0  0
   -3.6314    7.0865  -24.1821 C   0  0  0  0  0  0  0  0  0  0  0  0
   -4.9017    6.7494  -23.7467 C   0  0  0  0  0  0  0  0  0  0  0  0
   -5.0534    6.1270  -22.5083 C   0  0  0  0  0  0  0  0  0  0  0  0
   -3.9466    5.8289  -21.6774 C   0  0  0  0  0  0  0  0  0  0  0  0
   -4.0149    5.2094  -20.4026 C   0  0  0  0  0  0  0  0  0  0  0  0
   -5.3117    4.7465  -19.8542 C   0  0  0  0  0  0  0  0  0  0  0  0
   -5.9876    4.0680  -20.5299 O   0  0  0  0  0  0  0  0  0  0  0  0
   -5.4956    5.2012  -18.3677 N   0  0  0  0  0  0  0  0  0  0  0  0
   -6.5654    4.9948  -17.4740 C   0  0  0  0  0  0  0  0  0  0  0  0
   -6.3552    5.3143  -16.1156 C   0  0  0  0  0  0  0  0  0  0  0  0
   -7.3810    5.1606  -15.1627 C   0  0  0  0  0  0  0  0  0  0  0  0
   -7.2842    5.6794  -13.7528 C   0  0  0  0  0  0  0  0  0  0  0  0
   -7.2050    7.0411  -13.7228 F   0  0  0  0  0  0  0  0  0  0  0  0
   -6.1995    5.2182  -13.0830 F   0  0  0  0  0  0  0  0  0  0  0  0
   -8.3703    5.3733  -12.9845 F   0  0  0  0  0  0  0  0  0  0  0  0
   -8.5896    4.6204  -15.5670 C   0  0  0  0  0  0  0  0  0  0  0  0
   -8.8236    4.4264  -16.9133 C   0  0  0  0  0  0  0  0  0  0  0  0
  -10.1221    4.2033  -17.2944 C   0  0  0  0  0  0  0  0  0  0  0  0
  -10.4907    4.3907  -18.5882 C   0  0  0  0  0  0  0  0  0  0  0  0
   -9.4817    4.4897  -19.5004 C   0  0  0  0  0  0  0  0  0  0  0  0
   -8.1826    4.5335  -19.1767 N   0  0  0  0  0  0  0  0  0  0  0  0
   -7.8394    4.6080  -17.8932 C   0  0  0  0  0  0  0  0  0  0  0  0
   -2.8602    4.9787  -19.6570 C   0  0  0  0  0  0  0  0  0  0  0  0
   -2.8812    4.3625  -18.4334 O   0  0  0  0  0  0  0  0  0  0  0  0
  1  2  1  0
  2  3  2  0
  3  4  1  0
  4  5  2  0
  5  6  1  0
  6  7  2  0
  7  8  1  0
  8  9  2  0
  9 10  1  0
 10 11  1  0
 11 12  2  0
 11 13  1  0
 13 14  1  0
 14 15  2  0
 15 16  1  0
 16 17  1  0
 17 18  1  0
 17 19  1  0
 17 20  1  0
 16 21  2  0
 21 22  1  0
 22 23  2  0
 23 24  1  0
 24 25  2  0
 25 26  1  0
 26 27  2  0
 10 28  2  0
 28 29  1  0
 28  2  1  0
  9  4  1  0
 27 14  1  0
 27 22  1  0
M  END
>  <fragmenstein_outcome>  (391) 
nan

>  <exports>  (391) 
['/opt/xchem-fragalysis-2/maxwin/openbind-hippo/xx01zvns2b/cycle_01/syndirella/elabs/openbind_xx01zvns2b_c1_elab_chemspace_filtered.sdf']

>  <Energy>  (391) 
nan

>  <alias>  (391) 
None

>  <fragmenstein_runtime>  (391) 
nan

>  <scratch_subdir>  (391) 
nan

>  <HIPPO Compound ID>  (391) 
142289

>  <rmsd(smina/fragmenstein)>  (391) 
0.982

>  <distance_score>  (391) 
0.951513

>  <orig_smiles>  (391) 
nan

>  <fragmenstein_mode>  (391) 
nan

>  <inchikey>  (391) 
LYNQTMHYKINJHE-UHFFFAOYSA-N

>  <ref_pdb>  (391) 
Z0852a

>  <GNINA pK>  (391) 
nan

>  <gnina_score_min>  (391) 
5.806

>  <tags>  (391) 
openbind_xx01zvns2b_c1_elab_nonasap_filtered_scored_top80percent,openbind_xx01zvns2b_c1_elab_chemspace_filtered_scored_top80percent,openbind_xx01zvns2b_c1_elab_chemspace_filtered_scored,openbind_xx01zvns2b_c1_elab_chemspace_filtered_scored_top40percent,openbind_xx01zvns2b_c1_elab_chemspace_filtered_scored_top20percent,openbind_xx01zvns2b_c1_elab_chemspace_filtered_scored_top60percent,openbind_xx01zvns2b_c1_elabs_filtered

>  <smiles>  (391) 
Cc1nc2ccccc2c(C(=O)Nc2cc(C(F)(F)F)cc3cccnc23)c1O

>  <subsites>  (391) 
1 - Z4590/B/203/1

>  <gnina_score>  (391) 
5.303

>  <HIPPO Pose ID>  (391) 
70341

>  <ref_mols>  (391) 
Z0917a,Z0852a

>  <energy_score>  (391) 
-18.720356

>  <inspiration_score>  (391) 
None

>  <smina_score_min>  (391) 
-6.473

>  <fragmenstein_error>  (391) 
nan

>  <name>  (391) 
P70341

$$$$
P70342
     RDKit          3D

 29 32  0  0  0  0  0  0  0  0999 V2000
   -0.8131    6.5631  -22.7370 C   0  0  0  0  0  0  0  0  0  0  0  0
   -1.9518    6.1135  -21.9519 N   0  0  0  0  0  0  0  0  0  0  0  0
   -3.1527    5.9142  -22.6109 C   0  0  0  0  0  0  0  0  0  0  0  0
   -3.3433    6.1375  -23.8051 O   0  0  0  0  0  0  0  0  0  0  0  0
   -4.2830    5.4326  -21.8057 C   0  0  0  0  0  0  0  0  0  0  0  0
   -4.1643    5.1268  -20.5072 C   0  0  0  0  0  0  0  0  0  0  0  0
   -5.4413    4.5845  -19.9392 C   0  0  0  0  0  0  0  0  0  0  0  0
   -6.0984    3.8497  -20.5731 O   0  0  0  0  0  0  0  0  0  0  0  0
   -5.6239    5.0999  -18.4790 N   0  0  0  0  0  0  0  0  0  0  0  0
   -6.6670    4.8972  -17.5673 C   0  0  0  0  0  0  0  0  0  0  0  0
   -6.4101    5.1591  -16.2114 C   0  0  0  0  0  0  0  0  0  0  0  0
   -7.4012    4.9913  -15.2211 C   0  0  0  0  0  0  0  0  0  0  0  0
   -7.1954    5.4659  -13.7840 C   0  0  0  0  0  0  0  0  0  0  0  0
   -6.8685    6.9611  -13.8413 C   0  0  0  0  0  0  0  0  0  0  0  0
   -8.4326    5.3173  -12.8690 C   0  0  0  0  0  0  0  0  0  0  0  0
   -6.0408    4.7008  -13.1310 C   0  0  0  0  0  0  0  0  0  0  0  0
   -8.6272    4.4876  -15.6229 C   0  0  0  0  0  0  0  0  0  0  0  0
   -8.9075    4.3552  -16.9706 C   0  0  0  0  0  0  0  0  0  0  0  0
  -10.2188    4.1798  -17.3346 C   0  0  0  0  0  0  0  0  0  0  0  0
  -10.6110    4.4438  -18.6075 C   0  0  0  0  0  0  0  0  0  0  0  0
   -9.6195    4.5721  -19.5345 C   0  0  0  0  0  0  0  0  0  0  0  0
   -8.3142    4.5560  -19.2433 N   0  0  0  0  0  0  0  0  0  0  0  0
   -7.9494    4.5525  -17.9654 C   0  0  0  0  0  0  0  0  0  0  0  0
   -2.8731    5.3066  -19.8255 C   0  0  0  0  0  0  0  0  0  0  0  0
   -2.6616    4.9723  -18.4782 C   0  0  0  0  0  0  0  0  0  0  0  0
   -1.4973    5.3619  -17.8176 C   0  0  0  0  0  0  0  0  0  0  0  0
   -0.4645    5.9602  -18.5217 C   0  0  0  0  0  0  0  0  0  0  0  0
   -0.6032    6.1777  -19.8893 C   0  0  0  0  0  0  0  0  0  0  0  0
   -1.8027    5.8652  -20.5532 C   0  0  0  0  0  0  0  0  0  0  0  0
  1  2  1  0
  2  3  1  0
  3  4  2  0
  3  5  1  0
  5  6  2  0
  6  7  1  0
  7  8  2  0
  7  9  1  0
  9 10  1  0
 10 11  2  0
 11 12  1  0
 12 13  1  0
 13 14  1  0
 13 15  1  0
 13 16  1  0
 12 17  2  0
 17 18  1  0
 18 19  2  0
 19 20  1  0
 20 21  2  0
 21 22  1  0
 22 23  2  0
  6 24  1  0
 24 25  2  0
 25 26  1  0
 26 27  2  0
 27 28  1  0
 28 29  2  0
 29  2  1  0
 23 10  1  0
 29 24  1  0
 23 18  1  0
M  END
>  <fragmenstein_outcome>  (392) 
nan

>  <exports>  (392) 
['/opt/xchem-fragalysis-2/maxwin/openbind-hippo/xx01zvns2b/cycle_01/syndirella/elabs/openbind_xx01zvns2b_c1_elab_chemspace_filtered.sdf']

>  <Energy>  (392) 
nan

>  <alias>  (392) 
None

>  <fragmenstein_runtime>  (392) 
nan

>  <scratch_subdir>  (392) 
nan

>  <HIPPO Compound ID>  (392) 
142290

>  <rmsd(smina/fragmenstein)>  (392) 
1.263

>  <distance_score>  (392) 
1.194342

>  <orig_smiles>  (392) 
nan

>  <fragmenstein_mode>  (392) 
nan

>  <inchikey>  (392) 
ZRAYDAPOKPDOGG-UHFFFAOYSA-N

>  <ref_pdb>  (392) 
Z0852a

>  <GNINA pK>  (392) 
nan

>  <gnina_score_min>  (392) 
6.365

>  <tags>  (392) 
openbind_xx01zvns2b_c1_elab_nonasap_filtered_scored_top80percent,openbind_xx01zvns2b_c1_elab_chemspace_filtered_scored_top80percent,openbind_xx01zvns2b_c1_elab_chemspace_filtered_scored,openbind_xx01zvns2b_c1_elab_chemspace_filtered_scored_top40percent,openbind_xx01zvns2b_c1_elab_chemspace_filtered_scored_top20percent,openbind_xx01zvns2b_c1_elab_chemspace_filtered_scored_top60percent,openbind_xx01zvns2b_c1_elabs_filtered

>  <smiles>  (392) 
Cn1c(=O)cc(C(=O)Nc2cc(C(C)(C)C)cc3cccnc23)c2ccccc21

>  <subsites>  (392) 
1 - Z4590/B/203/1

>  <gnina_score>  (392) 
5.828

>  <HIPPO Pose ID>  (392) 
70342

>  <ref_mols>  (392) 
Z0917a,Z0852a

>  <energy_score>  (392) 
-39.896151

>  <inspiration_score>  (392) 
None

>  <smina_score_min>  (392) 
-6.856

>  <fragmenstein_error>  (392) 
nan

>  <name>  (392) 
P70342

$$$$
P70343
     RDKit          3D

 29 32  0  0  0  0  0  0  0  0999 V2000
   -0.7068    6.4241  -22.6208 C   0  0  0  0  0  0  0  0  0  0  0  0
   -1.8692    6.0403  -21.8354 N   0  0  0  0  0  0  0  0  0  0  0  0
   -3.0683    5.8534  -22.5031 C   0  0  0  0  0  0  0  0  0  0  0  0
   -3.2389    6.0400  -23.7066 O   0  0  0  0  0  0  0  0  0  0  0  0
   -4.2221    5.4346  -21.6950 C   0  0  0  0  0  0  0  0  0  0  0  0
   -4.1257    5.1850  -20.3823 C   0  0  0  0  0  0  0  0  0  0  0  0
   -5.4164    4.7052  -19.8030 C   0  0  0  0  0  0  0  0  0  0  0  0
   -6.0534    3.9155  -20.3899 O   0  0  0  0  0  0  0  0  0  0  0  0
   -5.6687    5.3815  -18.4178 N   0  0  0  0  0  0  0  0  0  0  0  0
   -6.6729    5.1581  -17.4661 C   0  0  0  0  0  0  0  0  0  0  0  0
   -6.4375    5.4888  -16.1202 C   0  0  0  0  0  0  0  0  0  0  0  0
   -7.4234    5.2553  -15.1423 C   0  0  0  0  0  0  0  0  0  0  0  0
   -7.3093    5.7536  -13.7276 C   0  0  0  0  0  0  0  0  0  0  0  0
   -6.2246    5.2679  -13.0746 F   0  0  0  0  0  0  0  0  0  0  0  0
   -8.3927    5.4515  -12.9547 F   0  0  0  0  0  0  0  0  0  0  0  0
   -7.2094    7.1131  -13.6804 F   0  0  0  0  0  0  0  0  0  0  0  0
   -8.6062    4.6370  -15.5169 C   0  0  0  0  0  0  0  0  0  0  0  0
   -8.8704    4.4479  -16.8595 C   0  0  0  0  0  0  0  0  0  0  0  0
  -10.1589    4.1542  -17.2235 C   0  0  0  0  0  0  0  0  0  0  0  0
  -10.5704    4.3537  -18.5053 C   0  0  0  0  0  0  0  0  0  0  0  0
   -9.5950    4.5604  -19.4361 C   0  0  0  0  0  0  0  0  0  0  0  0
   -8.2956    4.6658  -19.1357 N   0  0  0  0  0  0  0  0  0  0  0  0
   -7.9301    4.7058  -17.8567 C   0  0  0  0  0  0  0  0  0  0  0  0
   -2.8402    5.3416  -19.6936 C   0  0  0  0  0  0  0  0  0  0  0  0
   -2.6636    5.0402  -18.3338 C   0  0  0  0  0  0  0  0  0  0  0  0
   -1.4917    5.3999  -17.6707 C   0  0  0  0  0  0  0  0  0  0  0  0
   -0.4287    5.9383  -18.3805 C   0  0  0  0  0  0  0  0  0  0  0  0
   -0.5416    6.1217  -19.7566 C   0  0  0  0  0  0  0  0  0  0  0  0
   -1.7429    5.8347  -20.4269 C   0  0  0  0  0  0  0  0  0  0  0  0
  1  2  1  0
  2  3  1  0
  3  4  2  0
  3  5  1  0
  5  6  2  0
  6  7  1  0
  7  8  2  0
  7  9  1  0
  9 10  1  0
 10 11  2  0
 11 12  1  0
 12 13  1  0
 13 14  1  0
 13 15  1  0
 13 16  1  0
 12 17  2  0
 17 18  1  0
 18 19  2  0
 19 20  1  0
 20 21  2  0
 21 22  1  0
 22 23  2  0
  6 24  1  0
 24 25  2  0
 25 26  1  0
 26 27  2  0
 27 28  1  0
 28 29  2  0
 29  2  1  0
 23 10  1  0
 29 24  1  0
 23 18  1  0
M  END
>  <fragmenstein_outcome>  (393) 
nan

>  <exports>  (393) 
['/opt/xchem-fragalysis-2/maxwin/openbind-hippo/xx01zvns2b/cycle_01/syndirella/elabs/openbind_xx01zvns2b_c1_elab_chemspace_filtered.sdf']

>  <Energy>  (393) 
nan

>  <alias>  (393) 
None

>  <fragmenstein_runtime>  (393) 
nan

>  <scratch_subdir>  (393) 
nan

>  <HIPPO Compound ID>  (393) 
142291

>  <rmsd(smina/fragmenstein)>  (393) 
1.412

>  <distance_score>  (393) 
1.030265

>  <orig_smiles>  (393) 
nan

>  <fragmenstein_mode>  (393) 
nan

>  <inchikey>  (393) 
BBZQRFRCJVAUEP-UHFFFAOYSA-N

>  <ref_pdb>  (393) 
Z0852a

>  <GNINA pK>  (393) 
nan

>  <gnina_score_min>  (393) 
5.95

>  <tags>  (393) 
openbind_xx01zvns2b_c1_elab_nonasap_filtered_scored_top80percent,openbind_xx01zvns2b_c1_elab_chemspace_filtered_scored_top80percent,openbind_xx01zvns2b_c1_elab_chemspace_filtered_scored,openbind_xx01zvns2b_c1_elab_chemspace_filtered_scored_top40percent,openbind_xx01zvns2b_c1_elab_chemspace_filtered_scored_top20percent,openbind_xx01zvns2b_c1_elab_chemspace_filtered_scored_top60percent,openbind_xx01zvns2b_c1_elabs_filtered

>  <smiles>  (393) 
Cn1c(=O)cc(C(=O)Nc2cc(C(F)(F)F)cc3cccnc23)c2ccccc21

>  <subsites>  (393) 
1 - Z4590/B/203/1

>  <gnina_score>  (393) 
5.485

>  <HIPPO Pose ID>  (393) 
70343

>  <ref_mols>  (393) 
Z0917a,Z0852a

>  <energy_score>  (393) 
-17.060113

>  <inspiration_score>  (393) 
None

>  <smina_score_min>  (393) 
-6.538

>  <fragmenstein_error>  (393) 
nan

>  <name>  (393) 
P70343

$$$$
P70344
     RDKit          3D

 29 32  0  0  0  0  0  0  0  0999 V2000
   -2.7155    4.0194  -18.1497 C   0  0  0  0  0  0  0  0  0  0  0  0
   -2.9157    5.3872  -18.4592 O   0  0  0  0  0  0  0  0  0  0  0  0
   -2.9214    5.5521  -19.8146 C   0  0  0  0  0  0  0  0  0  0  0  0
   -1.7338    5.8774  -20.4380 C   0  0  0  0  0  0  0  0  0  0  0  0
   -1.6360    6.2019  -21.7403 N   0  0  0  0  0  0  0  0  0  0  0  0
   -2.7611    6.2650  -22.4616 C   0  0  0  0  0  0  0  0  0  0  0  0
   -2.6522    6.6951  -23.7784 C   0  0  0  0  0  0  0  0  0  0  0  0
   -3.7686    6.8673  -24.5967 C   0  0  0  0  0  0  0  0  0  0  0  0
   -5.0277    6.5995  -24.0888 C   0  0  0  0  0  0  0  0  0  0  0  0
   -5.1499    6.1390  -22.7771 C   0  0  0  0  0  0  0  0  0  0  0  0
   -4.0306    5.9528  -21.9334 C   0  0  0  0  0  0  0  0  0  0  0  0
   -4.0871    5.5264  -20.5769 C   0  0  0  0  0  0  0  0  0  0  0  0
   -5.3439    4.9330  -20.0033 C   0  0  0  0  0  0  0  0  0  0  0  0
   -5.9691    4.2240  -20.6975 O   0  0  0  0  0  0  0  0  0  0  0  0
   -5.5463    5.3163  -18.5027 N   0  0  0  0  0  0  0  0  0  0  0  0
   -6.5830    4.9887  -17.6068 C   0  0  0  0  0  0  0  0  0  0  0  0
   -6.3365    5.2240  -16.2391 C   0  0  0  0  0  0  0  0  0  0  0  0
   -7.3199    5.0125  -15.2464 C   0  0  0  0  0  0  0  0  0  0  0  0
   -7.1331    5.4721  -13.8008 C   0  0  0  0  0  0  0  0  0  0  0  0
   -8.3659    5.2693  -12.8866 C   0  0  0  0  0  0  0  0  0  0  0  0
   -6.8605    6.9786  -13.8371 C   0  0  0  0  0  0  0  0  0  0  0  0
   -5.9541    4.7380  -13.1574 C   0  0  0  0  0  0  0  0  0  0  0  0
   -8.5328    4.4888  -15.6519 C   0  0  0  0  0  0  0  0  0  0  0  0
   -8.8082    4.3656  -16.9981 C   0  0  0  0  0  0  0  0  0  0  0  0
  -10.1250    4.1815  -17.3372 C   0  0  0  0  0  0  0  0  0  0  0  0
  -10.5306    4.4170  -18.6107 C   0  0  0  0  0  0  0  0  0  0  0  0
   -9.5462    4.5261  -19.5498 C   0  0  0  0  0  0  0  0  0  0  0  0
   -8.2350    4.5387  -19.2748 N   0  0  0  0  0  0  0  0  0  0  0  0
   -7.8547    4.5848  -18.0016 C   0  0  0  0  0  0  0  0  0  0  0  0
  1  2  1  0
  2  3  1  0
  3  4  2  0
  4  5  1  0
  5  6  2  0
  6  7  1  0
  7  8  2  0
  8  9  1  0
  9 10  2  0
 10 11  1  0
 11 12  2  0
 12 13  1  0
 13 14  2  0
 13 15  1  0
 15 16  1  0
 16 17  2  0
 17 18  1  0
 18 19  1  0
 19 20  1  0
 19 21  1  0
 19 22  1  0
 18 23  2  0
 23 24  1  0
 24 25  2  0
 25 26  1  0
 26 27  2  0
 27 28  1  0
 28 29  2  0
 12  3  1  0
 29 16  1  0
 11  6  1  0
 29 24  1  0
M  END
>  <fragmenstein_outcome>  (394) 
nan

>  <exports>  (394) 
['/opt/xchem-fragalysis-2/maxwin/openbind-hippo/xx01zvns2b/cycle_01/syndirella/elabs/openbind_xx01zvns2b_c1_elab_chemspace_filtered.sdf']

>  <Energy>  (394) 
nan

>  <alias>  (394) 
None

>  <fragmenstein_runtime>  (394) 
nan

>  <scratch_subdir>  (394) 
nan

>  <HIPPO Compound ID>  (394) 
142292

>  <rmsd(smina/fragmenstein)>  (394) 
1.178

>  <distance_score>  (394) 
1.256629

>  <orig_smiles>  (394) 
nan

>  <fragmenstein_mode>  (394) 
nan

>  <inchikey>  (394) 
SJTSEPCPJRQPEJ-UHFFFAOYSA-N

>  <ref_pdb>  (394) 
Z0852a

>  <GNINA pK>  (394) 
nan

>  <gnina_score_min>  (394) 
6.388

>  <tags>  (394) 
openbind_xx01zvns2b_c1_elab_nonasap_filtered_scored_top80percent,openbind_xx01zvns2b_c1_elab_chemspace_filtered_scored_top80percent,openbind_xx01zvns2b_c1_elab_chemspace_filtered_scored,openbind_xx01zvns2b_c1_elab_chemspace_filtered_scored_top40percent,openbind_xx01zvns2b_c1_elab_chemspace_filtered_scored_top20percent,openbind_xx01zvns2b_c1_elab_chemspace_filtered_scored_top60percent,openbind_xx01zvns2b_c1_elabs_filtered

>  <smiles>  (394) 
COc1cnc2ccccc2c1C(=O)Nc1cc(C(C)(C)C)cc2cccnc12

>  <subsites>  (394) 
1 - Z4590/B/203/1

>  <gnina_score>  (394) 
5.69

>  <HIPPO Pose ID>  (394) 
70344

>  <ref_mols>  (394) 
Z0917a,Z0852a

>  <energy_score>  (394) 
-16.928916

>  <inspiration_score>  (394) 
None

>  <smina_score_min>  (394) 
-6.846

>  <fragmenstein_error>  (394) 
nan

>  <name>  (394) 
P70344

$$$$
P70345
     RDKit          3D

 29 32  0  0  0  0  0  0  0  0999 V2000
   -2.0773    5.3434  -17.4678 C   0  0  0  0  0  0  0  0  0  0  0  0
   -2.8356    4.5157  -18.3554 O   0  0  0  0  0  0  0  0  0  0  0  0
   -2.7834    4.9626  -19.6469 C   0  0  0  0  0  0  0  0  0  0  0  0
   -1.5895    5.1831  -20.3073 C   0  0  0  0  0  0  0  0  0  0  0  0
   -1.4942    5.6892  -21.5555 N   0  0  0  0  0  0  0  0  0  0  0  0
   -2.6200    5.9626  -22.2235 C   0  0  0  0  0  0  0  0  0  0  0  0
   -2.5011    6.5139  -23.4938 C   0  0  0  0  0  0  0  0  0  0  0  0
   -3.6151    6.8663  -24.2561 C   0  0  0  0  0  0  0  0  0  0  0  0
   -4.8826    6.6631  -23.7380 C   0  0  0  0  0  0  0  0  0  0  0  0
   -5.0173    6.0973  -22.4703 C   0  0  0  0  0  0  0  0  0  0  0  0
   -3.8973    5.7286  -21.6852 C   0  0  0  0  0  0  0  0  0  0  0  0
   -3.9534    5.1724  -20.3737 C   0  0  0  0  0  0  0  0  0  0  0  0
   -5.2609    4.7243  -19.8141 C   0  0  0  0  0  0  0  0  0  0  0  0
   -5.9617    4.1033  -20.5194 O   0  0  0  0  0  0  0  0  0  0  0  0
   -5.4875    5.2334  -18.3555 N   0  0  0  0  0  0  0  0  0  0  0  0
   -6.5540    5.0058  -17.4622 C   0  0  0  0  0  0  0  0  0  0  0  0
   -6.3465    5.3161  -16.1014 C   0  0  0  0  0  0  0  0  0  0  0  0
   -7.3735    5.1573  -15.1512 C   0  0  0  0  0  0  0  0  0  0  0  0
   -7.2798    5.6738  -13.7412 C   0  0  0  0  0  0  0  0  0  0  0  0
   -6.1940    5.2144  -13.0711 F   0  0  0  0  0  0  0  0  0  0  0  0
   -7.2013    7.0358  -13.7093 F   0  0  0  0  0  0  0  0  0  0  0  0
   -8.3654    5.3660  -12.9732 F   0  0  0  0  0  0  0  0  0  0  0  0
   -8.5800    4.6167  -15.5592 C   0  0  0  0  0  0  0  0  0  0  0  0
   -8.8116    4.4276  -16.9065 C   0  0  0  0  0  0  0  0  0  0  0  0
  -10.1100    4.2005  -17.2863 C   0  0  0  0  0  0  0  0  0  0  0  0
  -10.4808    4.3842  -18.5802 C   0  0  0  0  0  0  0  0  0  0  0  0
   -9.4732    4.4916  -19.4928 C   0  0  0  0  0  0  0  0  0  0  0  0
   -8.1741    4.5488  -19.1697 N   0  0  0  0  0  0  0  0  0  0  0  0
   -7.8275    4.6176  -17.8859 C   0  0  0  0  0  0  0  0  0  0  0  0
  1  2  1  0
  2  3  1  0
  3  4  2  0
  4  5  1  0
  5  6  2  0
  6  7  1  0
  7  8  2  0
  8  9  1  0
  9 10  2  0
 10 11  1  0
 11 12  2  0
 12 13  1  0
 13 14  2  0
 13 15  1  0
 15 16  1  0
 16 17  2  0
 17 18  1  0
 18 19  1  0
 19 20  1  0
 19 21  1  0
 19 22  1  0
 18 23  2  0
 23 24  1  0
 24 25  2  0
 25 26  1  0
 26 27  2  0
 27 28  1  0
 28 29  2  0
 12  3  1  0
 29 16  1  0
 11  6  1  0
 29 24  1  0
M  END
>  <fragmenstein_outcome>  (395) 
nan

>  <exports>  (395) 
['/opt/xchem-fragalysis-2/maxwin/openbind-hippo/xx01zvns2b/cycle_01/syndirella/elabs/openbind_xx01zvns2b_c1_elab_chemspace_filtered.sdf']

>  <Energy>  (395) 
nan

>  <alias>  (395) 
None

>  <fragmenstein_runtime>  (395) 
nan

>  <scratch_subdir>  (395) 
nan

>  <HIPPO Compound ID>  (395) 
142293

>  <rmsd(smina/fragmenstein)>  (395) 
1.369

>  <distance_score>  (395) 
0.948532

>  <orig_smiles>  (395) 
nan

>  <fragmenstein_mode>  (395) 
nan

>  <inchikey>  (395) 
DOHPSGBHCFCPBR-UHFFFAOYSA-N

>  <ref_pdb>  (395) 
Z0852a

>  <GNINA pK>  (395) 
nan

>  <gnina_score_min>  (395) 
6.024

>  <tags>  (395) 
openbind_xx01zvns2b_c1_elab_nonasap_filtered_scored_top80percent,openbind_xx01zvns2b_c1_elab_chemspace_filtered_scored_top80percent,openbind_xx01zvns2b_c1_elab_chemspace_filtered_scored,openbind_xx01zvns2b_c1_elab_chemspace_filtered_scored_top40percent,openbind_xx01zvns2b_c1_elab_chemspace_filtered_scored_top20percent,openbind_xx01zvns2b_c1_elab_chemspace_filtered_scored_top60percent,openbind_xx01zvns2b_c1_elabs_filtered

>  <smiles>  (395) 
COc1cnc2ccccc2c1C(=O)Nc1cc(C(F)(F)F)cc2cccnc12

>  <subsites>  (395) 
1 - Z4590/B/203/1

>  <gnina_score>  (395) 
5.509

>  <HIPPO Pose ID>  (395) 
70345

>  <ref_mols>  (395) 
Z0917a,Z0852a

>  <energy_score>  (395) 
-9.378058

>  <inspiration_score>  (395) 
None

>  <smina_score_min>  (395) 
-6.933

>  <fragmenstein_error>  (395) 
nan

>  <name>  (395) 
P70345

$$$$
P70346
     RDKit          3D

 30 33  0  0  0  0  0  0  0  0999 V2000
   -0.0392    6.5617  -18.8242 C   0  0  0  0  0  0  0  0  0  0  0  0
   -0.2798    5.4099  -19.7890 C   0  0  0  0  0  0  0  0  0  0  0  0
   -1.6299    5.5102  -20.4566 C   0  0  0  0  0  0  0  0  0  0  0  0
   -1.6137    6.1678  -21.6400 N   0  0  0  0  0  0  0  0  0  0  0  0
   -2.7473    6.3451  -22.3244 C   0  0  0  0  0  0  0  0  0  0  0  0
   -2.6706    6.9989  -23.5489 C   0  0  0  0  0  0  0  0  0  0  0  0
   -3.8024    7.2615  -24.3216 C   0  0  0  0  0  0  0  0  0  0  0  0
   -5.0448    6.8657  -23.8580 C   0  0  0  0  0  0  0  0  0  0  0  0
   -5.1337    6.2084  -22.6318 C   0  0  0  0  0  0  0  0  0  0  0  0
   -3.9927    5.9269  -21.8430 C   0  0  0  0  0  0  0  0  0  0  0  0
   -3.9976    5.2657  -20.5874 C   0  0  0  0  0  0  0  0  0  0  0  0
   -5.2953    4.7927  -20.0258 C   0  0  0  0  0  0  0  0  0  0  0  0
   -5.9421    4.0397  -20.6471 O   0  0  0  0  0  0  0  0  0  0  0  0
   -5.5318    5.3978  -18.6078 N   0  0  0  0  0  0  0  0  0  0  0  0
   -6.5349    5.1324  -17.6569 C   0  0  0  0  0  0  0  0  0  0  0  0
   -6.2495    5.4635  -16.3194 C   0  0  0  0  0  0  0  0  0  0  0  0
   -7.1799    5.2679  -15.2775 C   0  0  0  0  0  0  0  0  0  0  0  0
   -6.9669    5.7317  -13.8382 C   0  0  0  0  0  0  0  0  0  0  0  0
   -5.6481    6.4823  -13.6845 C   0  0  0  0  0  0  0  0  0  0  0  0
   -6.9416    4.5237  -12.8900 C   0  0  0  0  0  0  0  0  0  0  0  0
   -8.0781    6.7060  -13.3903 C   0  0  0  0  0  0  0  0  0  0  0  0
   -8.3844    4.6648  -15.6028 C   0  0  0  0  0  0  0  0  0  0  0  0
   -8.7049    4.4531  -16.9305 C   0  0  0  0  0  0  0  0  0  0  0  0
  -10.0152    4.1652  -17.2126 C   0  0  0  0  0  0  0  0  0  0  0  0
  -10.4800    4.3128  -18.4842 C   0  0  0  0  0  0  0  0  0  0  0  0
   -9.5425    4.4824  -19.4662 C   0  0  0  0  0  0  0  0  0  0  0  0
   -8.2262    4.5789  -19.2393 N   0  0  0  0  0  0  0  0  0  0  0  0
   -7.8044    4.6723  -17.9820 C   0  0  0  0  0  0  0  0  0  0  0  0
   -2.8031    5.0172  -19.8856 C   0  0  0  0  0  0  0  0  0  0  0  0
   -2.7486    4.2272  -18.6118 C   0  0  0  0  0  0  0  0  0  0  0  0
  1  2  1  0
  2  3  1  0
  3  4  2  0
  4  5  1  0
  5  6  2  0
  6  7  1  0
  7  8  2  0
  8  9  1  0
  9 10  2  0
 10 11  1  0
 11 12  1  0
 12 13  2  0
 12 14  1  0
 14 15  1  0
 15 16  2  0
 16 17  1  0
 17 18  1  0
 18 19  1  0
 18 20  1  0
 18 21  1  0
 17 22  2  0
 22 23  1  0
 23 24  2  0
 24 25  1  0
 25 26  2  0
 26 27  1  0
 27 28  2  0
 11 29  2  0
 29 30  1  0
 29  3  1  0
 10  5  1  0
 28 15  1  0
 28 23  1  0
M  END
>  <fragmenstein_outcome>  (396) 
nan

>  <exports>  (396) 
['/opt/xchem-fragalysis-2/maxwin/openbind-hippo/xx01zvns2b/cycle_01/syndirella/elabs/openbind_xx01zvns2b_c1_elab_chemspace_filtered.sdf']

>  <Energy>  (396) 
nan

>  <alias>  (396) 
None

>  <fragmenstein_runtime>  (396) 
nan

>  <scratch_subdir>  (396) 
nan

>  <HIPPO Compound ID>  (396) 
142296

>  <rmsd(smina/fragmenstein)>  (396) 
1.069

>  <distance_score>  (396) 
1.382601

>  <orig_smiles>  (396) 
nan

>  <fragmenstein_mode>  (396) 
nan

>  <inchikey>  (396) 
KCDUVVMHLCOLGY-UHFFFAOYSA-N

>  <ref_pdb>  (396) 
Z0852a

>  <GNINA pK>  (396) 
nan

>  <gnina_score_min>  (396) 
6.374

>  <tags>  (396) 
openbind_xx01zvns2b_c1_elab_nonasap_filtered_scored_top80percent,openbind_xx01zvns2b_c1_elab_chemspace_filtered_scored_top80percent,openbind_xx01zvns2b_c1_elab_chemspace_filtered_scored,openbind_xx01zvns2b_c1_elab_chemspace_filtered_scored_top40percent,openbind_xx01zvns2b_c1_elab_chemspace_filtered_scored_top20percent,openbind_xx01zvns2b_c1_elab_chemspace_filtered_scored_top60percent,openbind_xx01zvns2b_c1_elabs_filtered

>  <smiles>  (396) 
CCc1nc2ccccc2c(C(=O)Nc2cc(C(C)(C)C)cc3cccnc23)c1C

>  <subsites>  (396) 
1 - Z4590/B/203/1

>  <gnina_score>  (396) 
5.971

>  <HIPPO Pose ID>  (396) 
70346

>  <ref_mols>  (396) 
Z0917a,Z0852a

>  <energy_score>  (396) 
-32.515542

>  <inspiration_score>  (396) 
None

>  <smina_score_min>  (396) 
-6.241

>  <fragmenstein_error>  (396) 
nan

>  <name>  (396) 
P70346

$$$$
P70347
     RDKit          3D

 30 33  0  0  0  0  0  0  0  0999 V2000
    0.8758    6.1271  -20.2342 C   0  0  0  0  0  0  0  0  0  0  0  0
   -0.2970    5.4188  -19.5655 C   0  0  0  0  0  0  0  0  0  0  0  0
   -1.6272    5.5653  -20.2758 C   0  0  0  0  0  0  0  0  0  0  0  0
   -1.6052    6.1957  -21.4716 N   0  0  0  0  0  0  0  0  0  0  0  0
   -2.7330    6.3546  -22.1703 C   0  0  0  0  0  0  0  0  0  0  0  0
   -2.6461    6.9791  -23.4092 C   0  0  0  0  0  0  0  0  0  0  0  0
   -3.7708    7.2177  -24.1994 C   0  0  0  0  0  0  0  0  0  0  0  0
   -5.0158    6.8250  -23.7401 C   0  0  0  0  0  0  0  0  0  0  0  0
   -5.1142    6.1954  -22.5000 C   0  0  0  0  0  0  0  0  0  0  0  0
   -3.9813    5.9429  -21.6903 C   0  0  0  0  0  0  0  0  0  0  0  0
   -3.9954    5.3112  -20.4188 C   0  0  0  0  0  0  0  0  0  0  0  0
   -5.2870    4.8280  -19.8573 C   0  0  0  0  0  0  0  0  0  0  0  0
   -5.9190    4.0732  -20.4936 O   0  0  0  0  0  0  0  0  0  0  0  0
   -5.5546    5.4300  -18.4381 N   0  0  0  0  0  0  0  0  0  0  0  0
   -6.5768    5.1568  -17.5062 C   0  0  0  0  0  0  0  0  0  0  0  0
   -6.3581    5.4907  -16.1533 C   0  0  0  0  0  0  0  0  0  0  0  0
   -7.3491    5.2624  -15.1767 C   0  0  0  0  0  0  0  0  0  0  0  0
   -7.2502    5.7674  -13.7623 C   0  0  0  0  0  0  0  0  0  0  0  0
   -6.1689    5.2908  -13.0974 F   0  0  0  0  0  0  0  0  0  0  0  0
   -8.3381    5.4600  -12.9964 F   0  0  0  0  0  0  0  0  0  0  0  0
   -7.1616    7.1275  -13.7178 F   0  0  0  0  0  0  0  0  0  0  0  0
   -8.5297    4.6473  -15.5545 C   0  0  0  0  0  0  0  0  0  0  0  0
   -8.7815    4.4476  -16.8956 C   0  0  0  0  0  0  0  0  0  0  0  0
  -10.0771    4.1680  -17.2446 C   0  0  0  0  0  0  0  0  0  0  0  0
  -10.4826    4.3381  -18.5312 C   0  0  0  0  0  0  0  0  0  0  0  0
   -9.5008    4.4951  -19.4673 C   0  0  0  0  0  0  0  0  0  0  0  0
   -8.1976    4.5993  -19.1736 N   0  0  0  0  0  0  0  0  0  0  0  0
   -7.8309    4.6847  -17.8971 C   0  0  0  0  0  0  0  0  0  0  0  0
   -2.8057    5.0711  -19.7136 C   0  0  0  0  0  0  0  0  0  0  0  0
   -2.7538    4.2712  -18.4476 C   0  0  0  0  0  0  0  0  0  0  0  0
  1  2  1  0
  2  3  1  0
  3  4  2  0
  4  5  1  0
  5  6  2  0
  6  7  1  0
  7  8  2  0
  8  9  1  0
  9 10  2  0
 10 11  1  0
 11 12  1  0
 12 13  2  0
 12 14  1  0
 14 15  1  0
 15 16  2  0
 16 17  1  0
 17 18  1  0
 18 19  1  0
 18 20  1  0
 18 21  1  0
 17 22  2  0
 22 23  1  0
 23 24  2  0
 24 25  1  0
 25 26  2  0
 26 27  1  0
 27 28  2  0
 11 29  2  0
 29 30  1  0
 29  3  1  0
 10  5  1  0
 28 15  1  0
 28 23  1  0
M  END
>  <fragmenstein_outcome>  (397) 
nan

>  <exports>  (397) 
['/opt/xchem-fragalysis-2/maxwin/openbind-hippo/xx01zvns2b/cycle_01/syndirella/elabs/openbind_xx01zvns2b_c1_elab_chemspace_filtered.sdf']

>  <Energy>  (397) 
nan

>  <alias>  (397) 
None

>  <fragmenstein_runtime>  (397) 
nan

>  <scratch_subdir>  (397) 
nan

>  <HIPPO Compound ID>  (397) 
142297

>  <rmsd(smina/fragmenstein)>  (397) 
0.981

>  <distance_score>  (397) 
1.097789

>  <orig_smiles>  (397) 
nan

>  <fragmenstein_mode>  (397) 
nan

>  <inchikey>  (397) 
MMNSGDTYVNPPOG-UHFFFAOYSA-N

>  <ref_pdb>  (397) 
Z0852a

>  <GNINA pK>  (397) 
nan

>  <gnina_score_min>  (397) 
6.102

>  <tags>  (397) 
openbind_xx01zvns2b_c1_elab_nonasap_filtered_scored_top80percent,openbind_xx01zvns2b_c1_elab_chemspace_filtered_scored_top80percent,openbind_xx01zvns2b_c1_elab_chemspace_filtered_scored,openbind_xx01zvns2b_c1_elab_chemspace_filtered_scored_top40percent,openbind_xx01zvns2b_c1_elab_chemspace_filtered_scored_top20percent,openbind_xx01zvns2b_c1_elab_chemspace_filtered_scored_top60percent,openbind_xx01zvns2b_c1_elabs_filtered

>  <smiles>  (397) 
CCc1nc2ccccc2c(C(=O)Nc2cc(C(F)(F)F)cc3cccnc23)c1C

>  <subsites>  (397) 
1 - Z4590/B/203/1

>  <gnina_score>  (397) 
5.685

>  <HIPPO Pose ID>  (397) 
70347

>  <ref_mols>  (397) 
Z0917a,Z0852a

>  <energy_score>  (397) 
-19.930498

>  <inspiration_score>  (397) 
None

>  <smina_score_min>  (397) 
-6.236

>  <fragmenstein_error>  (397) 
nan

>  <name>  (397) 
P70347

$$$$
P70348
     RDKit          3D

 30 33  0  0  0  0  0  0  0  0999 V2000
    0.0274    6.6381  -19.0402 C   0  0  0  0  0  0  0  0  0  0  0  0
   -0.1951    5.4615  -19.9796 C   0  0  0  0  0  0  0  0  0  0  0  0
   -1.5573    5.5168  -20.6287 C   0  0  0  0  0  0  0  0  0  0  0  0
   -1.5800    6.1653  -21.8171 N   0  0  0  0  0  0  0  0  0  0  0  0
   -2.7355    6.3414  -22.4658 C   0  0  0  0  0  0  0  0  0  0  0  0
   -2.6994    6.9927  -23.6933 C   0  0  0  0  0  0  0  0  0  0  0  0
   -3.8571    7.2606  -24.4251 C   0  0  0  0  0  0  0  0  0  0  0  0
   -5.0850    6.8749  -23.9157 C   0  0  0  0  0  0  0  0  0  0  0  0
   -5.1343    6.2202  -22.6861 C   0  0  0  0  0  0  0  0  0  0  0  0
   -3.9657    5.9294  -21.9424 C   0  0  0  0  0  0  0  0  0  0  0  0
   -3.9276    5.2666  -20.6907 C   0  0  0  0  0  0  0  0  0  0  0  0
   -5.2063    4.8215  -20.0662 C   0  0  0  0  0  0  0  0  0  0  0  0
   -5.9029    4.0773  -20.6400 O   0  0  0  0  0  0  0  0  0  0  0  0
   -5.3211    5.4059  -18.6289 N   0  0  0  0  0  0  0  0  0  0  0  0
   -6.2362    5.1281  -17.6041 C   0  0  0  0  0  0  0  0  0  0  0  0
   -5.7417    5.2771  -16.2980 C   0  0  0  0  0  0  0  0  0  0  0  0
   -6.5258    4.9615  -15.1868 C   0  0  0  0  0  0  0  0  0  0  0  0
   -5.9225    5.0893  -13.8348 C   0  0  0  0  0  0  0  0  0  0  0  0
   -4.7451    5.3542  -13.6478 O   0  0  0  0  0  0  0  0  0  0  0  0
   -6.8581    4.8963  -12.8740 O   0  0  0  0  0  0  0  0  0  0  0  0
   -6.3588    4.9907  -11.5398 C   0  0  0  0  0  0  0  0  0  0  0  0
   -7.8343    4.5369  -15.3871 C   0  0  0  0  0  0  0  0  0  0  0  0
   -8.3451    4.4640  -16.6857 C   0  0  0  0  0  0  0  0  0  0  0  0
   -9.6805    4.1528  -16.8612 C   0  0  0  0  0  0  0  0  0  0  0  0
  -10.2555    4.2135  -18.1117 C   0  0  0  0  0  0  0  0  0  0  0  0
   -9.4265    4.4962  -19.1667 C   0  0  0  0  0  0  0  0  0  0  0  0
   -8.1093    4.7224  -19.0373 N   0  0  0  0  0  0  0  0  0  0  0  0
   -7.5603    4.7408  -17.8197 C   0  0  0  0  0  0  0  0  0  0  0  0
   -2.7090    5.0104  -20.0294 C   0  0  0  0  0  0  0  0  0  0  0  0
   -2.6110    4.2203  -18.7561 C   0  0  0  0  0  0  0  0  0  0  0  0
  1  2  1  0
  2  3  1  0
  3  4  2  0
  4  5  1  0
  5  6  2  0
  6  7  1  0
  7  8  2  0
  8  9  1  0
  9 10  2  0
 10 11  1  0
 11 12  1  0
 12 13  2  0
 12 14  1  0
 14 15  1  0
 15 16  2  0
 16 17  1  0
 17 18  1  0
 18 19  2  0
 18 20  1  0
 20 21  1  0
 17 22  2  0
 22 23  1  0
 23 24  2  0
 24 25  1  0
 25 26  2  0
 26 27  1  0
 27 28  2  0
 11 29  2  0
 29 30  1  0
 29  3  1  0
 10  5  1  0
 28 15  1  0
 28 23  1  0
M  END
>  <fragmenstein_outcome>  (398) 
nan

>  <exports>  (398) 
['/opt/xchem-fragalysis-2/maxwin/openbind-hippo/xx01zvns2b/cycle_01/syndirella/elabs/openbind_xx01zvns2b_c1_elab_chemspace_filtered.sdf']

>  <Energy>  (398) 
nan

>  <alias>  (398) 
None

>  <fragmenstein_runtime>  (398) 
nan

>  <scratch_subdir>  (398) 
nan

>  <HIPPO Compound ID>  (398) 
142298

>  <rmsd(smina/fragmenstein)>  (398) 
0.683

>  <distance_score>  (398) 
1.670485

>  <orig_smiles>  (398) 
nan

>  <fragmenstein_mode>  (398) 
nan

>  <inchikey>  (398) 
QEHXMFXNOBFGRK-UHFFFAOYSA-N

>  <ref_pdb>  (398) 
Z0852a

>  <GNINA pK>  (398) 
nan

>  <gnina_score_min>  (398) 
6.169

>  <tags>  (398) 
openbind_xx01zvns2b_c1_elab_nonasap_filtered_scored_top80percent,openbind_xx01zvns2b_c1_elab_chemspace_filtered_scored_top80percent,openbind_xx01zvns2b_c1_elab_chemspace_filtered_scored,openbind_xx01zvns2b_c1_elab_chemspace_filtered_scored_top40percent,openbind_xx01zvns2b_c1_elab_chemspace_filtered_scored_top20percent,openbind_xx01zvns2b_c1_elab_chemspace_filtered_scored_top60percent,openbind_xx01zvns2b_c1_elabs_filtered

>  <smiles>  (398) 
CCc1nc2ccccc2c(C(=O)Nc2cc(C(=O)OC)cc3cccnc23)c1C

>  <subsites>  (398) 
1 - Z4590/B/203/1

>  <gnina_score>  (398) 
6.121

>  <HIPPO Pose ID>  (398) 
70348

>  <ref_mols>  (398) 
Z0917a,Z0852a

>  <energy_score>  (398) 
-30.040859

>  <inspiration_score>  (398) 
None

>  <smina_score_min>  (398) 
-6.261

>  <fragmenstein_error>  (398) 
nan

>  <name>  (398) 
P70348

$$$$
P70349
     RDKit          3D

 30 33  0  0  0  0  0  0  0  0999 V2000
   -6.4522    5.0742  -11.5701 C   0  0  0  0  0  0  0  0  0  0  0  0
   -6.9607    5.0006  -12.9019 O   0  0  0  0  0  0  0  0  0  0  0  0
   -6.0646    5.3385  -13.8610 C   0  0  0  0  0  0  0  0  0  0  0  0
   -4.9300    5.7463  -13.6694 O   0  0  0  0  0  0  0  0  0  0  0  0
   -6.6597    5.1660  -15.2127 C   0  0  0  0  0  0  0  0  0  0  0  0
   -5.9194    5.5591  -16.3293 C   0  0  0  0  0  0  0  0  0  0  0  0
   -6.4001    5.3588  -17.6370 C   0  0  0  0  0  0  0  0  0  0  0  0
   -5.4928    5.6823  -18.6534 N   0  0  0  0  0  0  0  0  0  0  0  0
   -5.3394    5.1070  -20.0938 C   0  0  0  0  0  0  0  0  0  0  0  0
   -5.9965    4.3311  -20.6752 O   0  0  0  0  0  0  0  0  0  0  0  0
   -4.0831    5.5827  -20.7567 C   0  0  0  0  0  0  0  0  0  0  0  0
   -2.8768    5.4370  -20.0702 C   0  0  0  0  0  0  0  0  0  0  0  0
   -2.8308    5.2624  -18.6260 C   0  0  0  0  0  0  0  0  0  0  0  0
   -2.8143    3.8914  -18.0851 C   0  0  0  0  0  0  0  0  0  0  0  0
   -2.9795    6.2585  -17.9232 O   0  0  0  0  0  0  0  0  0  0  0  0
   -1.6899    5.6016  -20.7449 C   0  0  0  0  0  0  0  0  0  0  0  0
   -1.6349    5.9256  -22.0514 N   0  0  0  0  0  0  0  0  0  0  0  0
   -2.7845    6.1243  -22.7141 C   0  0  0  0  0  0  0  0  0  0  0  0
   -2.7060    6.5167  -24.0443 C   0  0  0  0  0  0  0  0  0  0  0  0
   -3.8440    6.7915  -24.8045 C   0  0  0  0  0  0  0  0  0  0  0  0
   -5.0960    6.6695  -24.2245 C   0  0  0  0  0  0  0  0  0  0  0  0
   -5.1940    6.2592  -22.8954 C   0  0  0  0  0  0  0  0  0  0  0  0
   -4.0529    5.9735  -22.1154 C   0  0  0  0  0  0  0  0  0  0  0  0
   -7.6775    4.8525  -17.8422 C   0  0  0  0  0  0  0  0  0  0  0  0
   -8.2241    4.7973  -19.0560 N   0  0  0  0  0  0  0  0  0  0  0  0
   -9.5283    4.5150  -19.1769 C   0  0  0  0  0  0  0  0  0  0  0  0
  -10.3323    4.1792  -18.1183 C   0  0  0  0  0  0  0  0  0  0  0  0
   -9.7435    4.1257  -16.8744 C   0  0  0  0  0  0  0  0  0  0  0  0
   -8.4311    4.5162  -16.7047 C   0  0  0  0  0  0  0  0  0  0  0  0
   -7.9228    4.6226  -15.4085 C   0  0  0  0  0  0  0  0  0  0  0  0
  1  2  1  0
  2  3  1  0
  3  4  2  0
  3  5  1  0
  5  6  2  0
  6  7  1  0
  7  8  1  0
  8  9  1  0
  9 10  2  0
  9 11  1  0
 11 12  2  0
 12 13  1  0
 13 14  1  0
 13 15  2  0
 12 16  1  0
 16 17  2  0
 17 18  1  0
 18 19  2  0
 19 20  1  0
 20 21  2  0
 21 22  1  0
 22 23  2  0
  7 24  2  0
 24 25  1  0
 25 26  2  0
 26 27  1  0
 27 28  2  0
 28 29  1  0
 29 30  2  0
 30  5  1  0
 23 11  1  0
 29 24  1  0
 23 18  1  0
M  END
>  <fragmenstein_outcome>  (399) 
nan

>  <exports>  (399) 
['/opt/xchem-fragalysis-2/maxwin/openbind-hippo/xx01zvns2b/cycle_01/syndirella/elabs/openbind_xx01zvns2b_c1_elab_chemspace_filtered.sdf']

>  <Energy>  (399) 
nan

>  <alias>  (399) 
None

>  <fragmenstein_runtime>  (399) 
nan

>  <scratch_subdir>  (399) 
nan

>  <HIPPO Compound ID>  (399) 
142299

>  <rmsd(smina/fragmenstein)>  (399) 
1.332

>  <distance_score>  (399) 
1.545593

>  <orig_smiles>  (399) 
nan

>  <fragmenstein_mode>  (399) 
nan

>  <inchikey>  (399) 
LQOOVZNHZROXAX-UHFFFAOYSA-N

>  <ref_pdb>  (399) 
Z0852a

>  <GNINA pK>  (399) 
nan

>  <gnina_score_min>  (399) 
5.979

>  <tags>  (399) 
openbind_xx01zvns2b_c1_elab_nonasap_filtered_scored_top80percent,openbind_xx01zvns2b_c1_elab_chemspace_filtered_scored_top80percent,openbind_xx01zvns2b_c1_elab_chemspace_filtered_scored,openbind_xx01zvns2b_c1_elab_chemspace_filtered_scored_top40percent,openbind_xx01zvns2b_c1_elab_chemspace_filtered_scored_top20percent,openbind_xx01zvns2b_c1_elab_chemspace_filtered_scored_top60percent,openbind_xx01zvns2b_c1_elabs_filtered

>  <smiles>  (399) 
COC(=O)c1cc(NC(=O)c2c(C(C)=O)cnc3ccccc23)c2ncccc2c1

>  <subsites>  (399) 
1 - Z4590/B/203/1

>  <gnina_score>  (399) 
5.723

>  <HIPPO Pose ID>  (399) 
70349

>  <ref_mols>  (399) 
Z0917a,Z0852a

>  <energy_score>  (399) 
-20.819157

>  <inspiration_score>  (399) 
None

>  <smina_score_min>  (399) 
-6.371

>  <fragmenstein_error>  (399) 
nan

>  <name>  (399) 
P70349

$$$$
P70350
     RDKit          3D

 30 33  0  0  0  0  0  0  0  0999 V2000
   -1.2399    5.5731  -16.2963 C   0  0  0  0  0  0  0  0  0  0  0  0
   -1.3892    5.6169  -17.7894 C   0  0  0  0  0  0  0  0  0  0  0  0
   -0.3846    6.1603  -18.5807 C   0  0  0  0  0  0  0  0  0  0  0  0
   -0.5847    6.3033  -19.9536 C   0  0  0  0  0  0  0  0  0  0  0  0
   -1.7970    6.0046  -20.5558 C   0  0  0  0  0  0  0  0  0  0  0  0
   -1.9165    6.2854  -21.8614 N   0  0  0  0  0  0  0  0  0  0  0  0
   -3.1122    6.1243  -22.4738 C   0  0  0  0  0  0  0  0  0  0  0  0
   -3.1740    6.4891  -23.9267 C   0  0  0  0  0  0  0  0  0  0  0  0
   -4.2335    5.6851  -21.7949 C   0  0  0  0  0  0  0  0  0  0  0  0
   -5.4328    5.6491  -22.4593 O   0  0  0  0  0  0  0  0  0  0  0  0
   -4.0918    5.3432  -20.4435 C   0  0  0  0  0  0  0  0  0  0  0  0
   -5.3025    4.8099  -19.7853 C   0  0  0  0  0  0  0  0  0  0  0  0
   -5.8956    3.9978  -20.3830 O   0  0  0  0  0  0  0  0  0  0  0  0
   -5.5483    5.3965  -18.3722 N   0  0  0  0  0  0  0  0  0  0  0  0
   -6.5916    5.1828  -17.4716 C   0  0  0  0  0  0  0  0  0  0  0  0
   -6.3597    5.5153  -16.1276 C   0  0  0  0  0  0  0  0  0  0  0  0
   -7.3355    5.2991  -15.1415 C   0  0  0  0  0  0  0  0  0  0  0  0
   -7.1503    5.7727  -13.7030 C   0  0  0  0  0  0  0  0  0  0  0  0
   -8.4286    5.6346  -12.8684 C   0  0  0  0  0  0  0  0  0  0  0  0
   -6.0506    4.9445  -13.0300 C   0  0  0  0  0  0  0  0  0  0  0  0
   -6.7772    7.2668  -13.6660 C   0  0  0  0  0  0  0  0  0  0  0  0
   -8.5109    4.6726  -15.5337 C   0  0  0  0  0  0  0  0  0  0  0  0
   -8.7781    4.4750  -16.8752 C   0  0  0  0  0  0  0  0  0  0  0  0
  -10.0693    4.1697  -17.2223 C   0  0  0  0  0  0  0  0  0  0  0  0
  -10.4823    4.3274  -18.5088 C   0  0  0  0  0  0  0  0  0  0  0  0
   -9.5073    4.5103  -19.4478 C   0  0  0  0  0  0  0  0  0  0  0  0
   -8.2050    4.6424  -19.1578 N   0  0  0  0  0  0  0  0  0  0  0  0
   -7.8408    4.7220  -17.8758 C   0  0  0  0  0  0  0  0  0  0  0  0
   -2.8446    5.4844  -19.7758 C   0  0  0  0  0  0  0  0  0  0  0  0
   -2.5733    5.1963  -18.4062 C   0  0  0  0  0  0  0  0  0  0  0  0
  1  2  1  0
  2  3  2  0
  3  4  1  0
  4  5  2  0
  5  6  1  0
  6  7  2  0
  7  8  1  0
  7  9  1  0
  9 10  1  0
  9 11  2  0
 11 12  1  0
 12 13  2  0
 12 14  1  0
 14 15  1  0
 15 16  2  0
 16 17  1  0
 17 18  1  0
 18 19  1  0
 18 20  1  0
 18 21  1  0
 17 22  2  0
 22 23  1  0
 23 24  2  0
 24 25  1  0
 25 26  2  0
 26 27  1  0
 27 28  2  0
 11 29  1  0
 29 30  2  0
 30  2  1  0
 29  5  1  0
 28 15  1  0
 28 23  1  0
M  END
>  <fragmenstein_outcome>  (400) 
nan

>  <exports>  (400) 
['/opt/xchem-fragalysis-2/maxwin/openbind-hippo/xx01zvns2b/cycle_01/syndirella/elabs/openbind_xx01zvns2b_c1_elab_chemspace_filtered.sdf']

>  <Energy>  (400) 
nan

>  <alias>  (400) 
None

>  <fragmenstein_runtime>  (400) 
nan

>  <scratch_subdir>  (400) 
nan

>  <HIPPO Compound ID>  (400) 
142300

>  <rmsd(smina/fragmenstein)>  (400) 
1.692

>  <distance_score>  (400) 
1.489758

>  <orig_smiles>  (400) 
nan

>  <fragmenstein_mode>  (400) 
nan

>  <inchikey>  (400) 
UCFZSZSFZVBVDD-UHFFFAOYSA-N

>  <ref_pdb>  (400) 
Z0852a

>  <GNINA pK>  (400) 
nan

>  <gnina_score_min>  (400) 
5.947

>  <tags>  (400) 
openbind_xx01zvns2b_c1_elab_nonasap_filtered_scored_top80percent,openbind_xx01zvns2b_c1_elab_chemspace_filtered_scored_top80percent,openbind_xx01zvns2b_c1_elab_chemspace_filtered_scored,openbind_xx01zvns2b_c1_elab_chemspace_filtered_scored_top40percent,openbind_xx01zvns2b_c1_elab_chemspace_filtered_scored_top20percent,openbind_xx01zvns2b_c1_elab_chemspace_filtered_scored_top60percent,openbind_xx01zvns2b_c1_elabs_filtered

>  <smiles>  (400) 
Cc1ccc2nc(C)c(O)c(C(=O)Nc3cc(C(C)(C)C)cc4cccnc34)c2c1

>  <subsites>  (400) 
1 - Z4590/B/203/1

>  <gnina_score>  (400) 
5.651

>  <HIPPO Pose ID>  (400) 
70350

>  <ref_mols>  (400) 
Z0917a,Z0852a

>  <energy_score>  (400) 
-37.499009

>  <inspiration_score>  (400) 
None

>  <smina_score_min>  (400) 
-6.968

>  <fragmenstein_error>  (400) 
nan

>  <name>  (400) 
P70350

$$$$
P70351
     RDKit          3D

 30 33  0  0  0  0  0  0  0  0999 V2000
   -1.3323    5.5261  -16.0893 C   0  0  0  0  0  0  0  0  0  0  0  0
   -1.4589    5.5934  -17.5837 C   0  0  0  0  0  0  0  0  0  0  0  0
   -0.4320    6.1254  -18.3550 C   0  0  0  0  0  0  0  0  0  0  0  0
   -0.5995    6.2653  -19.7332 C   0  0  0  0  0  0  0  0  0  0  0  0
   -1.7993    5.9724  -20.3626 C   0  0  0  0  0  0  0  0  0  0  0  0
   -1.8861    6.2346  -21.6752 N   0  0  0  0  0  0  0  0  0  0  0  0
   -3.0660    6.0649  -22.3147 C   0  0  0  0  0  0  0  0  0  0  0  0
   -3.0883    6.3955  -23.7767 C   0  0  0  0  0  0  0  0  0  0  0  0
   -4.2046    5.6413  -21.6546 C   0  0  0  0  0  0  0  0  0  0  0  0
   -5.3857    5.5857  -22.3508 O   0  0  0  0  0  0  0  0  0  0  0  0
   -4.0998    5.3302  -20.2901 C   0  0  0  0  0  0  0  0  0  0  0  0
   -5.3308    4.8274  -19.6464 C   0  0  0  0  0  0  0  0  0  0  0  0
   -5.9349    4.0360  -20.2624 O   0  0  0  0  0  0  0  0  0  0  0  0
   -5.6356    5.4773  -18.2686 N   0  0  0  0  0  0  0  0  0  0  0  0
   -6.6620    5.2255  -17.3535 C   0  0  0  0  0  0  0  0  0  0  0  0
   -6.4591    5.5468  -16.0023 C   0  0  0  0  0  0  0  0  0  0  0  0
   -7.4598    5.2888  -15.0512 C   0  0  0  0  0  0  0  0  0  0  0  0
   -7.3715    5.7737  -13.6317 C   0  0  0  0  0  0  0  0  0  0  0  0
   -6.2941    5.2891  -12.9673 F   0  0  0  0  0  0  0  0  0  0  0  0
   -8.4663    5.4605  -12.8814 F   0  0  0  0  0  0  0  0  0  0  0  0
   -7.2785    7.1333  -13.5742 F   0  0  0  0  0  0  0  0  0  0  0  0
   -8.6250    4.6585  -15.4580 C   0  0  0  0  0  0  0  0  0  0  0  0
   -8.8567    4.4713  -16.8080 C   0  0  0  0  0  0  0  0  0  0  0  0
  -10.1316    4.1537  -17.1989 C   0  0  0  0  0  0  0  0  0  0  0  0
  -10.5178    4.3311  -18.4918 C   0  0  0  0  0  0  0  0  0  0  0  0
   -9.5271    4.5461  -19.4046 C   0  0  0  0  0  0  0  0  0  0  0  0
   -8.2368    4.6960  -19.0763 N   0  0  0  0  0  0  0  0  0  0  0  0
   -7.9003    4.7492  -17.7847 C   0  0  0  0  0  0  0  0  0  0  0  0
   -2.8694    5.4715  -19.5998 C   0  0  0  0  0  0  0  0  0  0  0  0
   -2.6372    5.1922  -18.2230 C   0  0  0  0  0  0  0  0  0  0  0  0
  1  2  1  0
  2  3  2  0
  3  4  1  0
  4  5  2  0
  5  6  1  0
  6  7  2  0
  7  8  1  0
  7  9  1  0
  9 10  1  0
  9 11  2  0
 11 12  1  0
 12 13  2  0
 12 14  1  0
 14 15  1  0
 15 16  2  0
 16 17  1  0
 17 18  1  0
 18 19  1  0
 18 20  1  0
 18 21  1  0
 17 22  2  0
 22 23  1  0
 23 24  2  0
 24 25  1  0
 25 26  2  0
 26 27  1  0
 27 28  2  0
 11 29  1  0
 29 30  2  0
 30  2  1  0
 29  5  1  0
 28 15  1  0
 28 23  1  0
M  END
>  <fragmenstein_outcome>  (401) 
nan

>  <exports>  (401) 
['/opt/xchem-fragalysis-2/maxwin/openbind-hippo/xx01zvns2b/cycle_01/syndirella/elabs/openbind_xx01zvns2b_c1_elab_chemspace_filtered.sdf']

>  <Energy>  (401) 
nan

>  <alias>  (401) 
None

>  <fragmenstein_runtime>  (401) 
nan

>  <scratch_subdir>  (401) 
nan

>  <HIPPO Compound ID>  (401) 
142301

>  <rmsd(smina/fragmenstein)>  (401) 
1.926

>  <distance_score>  (401) 
1.084317

>  <orig_smiles>  (401) 
nan

>  <fragmenstein_mode>  (401) 
nan

>  <inchikey>  (401) 
TUOPFAHUCSZQAA-UHFFFAOYSA-N

>  <ref_pdb>  (401) 
Z0852a

>  <GNINA pK>  (401) 
nan

>  <gnina_score_min>  (401) 
5.683

>  <tags>  (401) 
openbind_xx01zvns2b_c1_elab_nonasap_filtered_scored_top80percent,openbind_xx01zvns2b_c1_elab_chemspace_filtered_scored_top80percent,openbind_xx01zvns2b_c1_elab_chemspace_filtered_scored,openbind_xx01zvns2b_c1_elab_chemspace_filtered_scored_top40percent,openbind_xx01zvns2b_c1_elab_chemspace_filtered_scored_top20percent,openbind_xx01zvns2b_c1_elab_chemspace_filtered_scored_top60percent,openbind_xx01zvns2b_c1_elabs_filtered

>  <smiles>  (401) 
Cc1ccc2nc(C)c(O)c(C(=O)Nc3cc(C(F)(F)F)cc4cccnc34)c2c1

>  <subsites>  (401) 
1 - Z4590/B/203/1

>  <gnina_score>  (401) 
5.476

>  <HIPPO Pose ID>  (401) 
70351

>  <ref_mols>  (401) 
Z0917a,Z0852a

>  <energy_score>  (401) 
-18.05127

>  <inspiration_score>  (401) 
None

>  <smina_score_min>  (401) 
-6.796

>  <fragmenstein_error>  (401) 
nan

>  <name>  (401) 
P70351

$$$$
P70352
     RDKit          3D

 30 33  0  0  0  0  0  0  0  0999 V2000
   -6.6195    5.0440  -11.3519 C   0  0  0  0  0  0  0  0  0  0  0  0
   -7.0762    4.9274  -12.6996 O   0  0  0  0  0  0  0  0  0  0  0  0
   -6.1498    5.2587  -13.6312 C   0  0  0  0  0  0  0  0  0  0  0  0
   -5.0164    5.6555  -13.4087 O   0  0  0  0  0  0  0  0  0  0  0  0
   -6.7017    5.0992  -15.0017 C   0  0  0  0  0  0  0  0  0  0  0  0
   -5.9012    5.4620  -16.0856 C   0  0  0  0  0  0  0  0  0  0  0  0
   -6.3559    5.2864  -17.3991 C   0  0  0  0  0  0  0  0  0  0  0  0
   -5.4409    5.5474  -18.4170 N   0  0  0  0  0  0  0  0  0  0  0  0
   -5.2770    4.8974  -19.8127 C   0  0  0  0  0  0  0  0  0  0  0  0
   -5.9310    4.0956  -20.3569 O   0  0  0  0  0  0  0  0  0  0  0  0
   -4.0701    5.3650  -20.5274 C   0  0  0  0  0  0  0  0  0  0  0  0
   -4.2446    5.6909  -21.8774 C   0  0  0  0  0  0  0  0  0  0  0  0
   -5.4641    5.6777  -22.5038 O   0  0  0  0  0  0  0  0  0  0  0  0
   -3.1328    6.0942  -22.5939 C   0  0  0  0  0  0  0  0  0  0  0  0
   -3.2281    6.4534  -24.0466 C   0  0  0  0  0  0  0  0  0  0  0  0
   -1.9142    6.2270  -22.0207 N   0  0  0  0  0  0  0  0  0  0  0  0
   -1.7611    5.9603  -20.7161 C   0  0  0  0  0  0  0  0  0  0  0  0
   -0.5246    6.2386  -20.1548 C   0  0  0  0  0  0  0  0  0  0  0  0
   -0.2908    6.1211  -18.7850 C   0  0  0  0  0  0  0  0  0  0  0  0
   -1.2866    5.6206  -17.9555 C   0  0  0  0  0  0  0  0  0  0  0  0
   -1.1055    5.6251  -16.4648 C   0  0  0  0  0  0  0  0  0  0  0  0
   -2.4933    5.2082  -18.5325 C   0  0  0  0  0  0  0  0  0  0  0  0
   -2.7981    5.4796  -19.8988 C   0  0  0  0  0  0  0  0  0  0  0  0
   -7.6525    4.8477  -17.6644 C   0  0  0  0  0  0  0  0  0  0  0  0
   -8.1604    4.8382  -18.9044 N   0  0  0  0  0  0  0  0  0  0  0  0
   -9.4549    4.5354  -19.0859 C   0  0  0  0  0  0  0  0  0  0  0  0
  -10.2921    4.1779  -18.0625 C   0  0  0  0  0  0  0  0  0  0  0  0
   -9.7502    4.1229  -16.7954 C   0  0  0  0  0  0  0  0  0  0  0  0
   -8.4464    4.5105  -16.5623 C   0  0  0  0  0  0  0  0  0  0  0  0
   -7.9767    4.5981  -15.2468 C   0  0  0  0  0  0  0  0  0  0  0  0
  1  2  1  0
  2  3  1  0
  3  4  2  0
  3  5  1  0
  5  6  2  0
  6  7  1  0
  7  8  1  0
  8  9  1  0
  9 10  2  0
  9 11  1  0
 11 12  2  0
 12 13  1  0
 12 14  1  0
 14 15  1  0
 14 16  2  0
 16 17  1  0
 17 18  2  0
 18 19  1  0
 19 20  2  0
 20 21  1  0
 20 22  1  0
 22 23  2  0
  7 24  2  0
 24 25  1  0
 25 26  2  0
 26 27  1  0
 27 28  2  0
 28 29  1  0
 29 30  2  0
 30  5  1  0
 23 11  1  0
 29 24  1  0
 23 17  1  0
M  END
>  <fragmenstein_outcome>  (402) 
nan

>  <exports>  (402) 
['/opt/xchem-fragalysis-2/maxwin/openbind-hippo/xx01zvns2b/cycle_01/syndirella/elabs/openbind_xx01zvns2b_c1_elab_chemspace_filtered.sdf']

>  <Energy>  (402) 
nan

>  <alias>  (402) 
None

>  <fragmenstein_runtime>  (402) 
nan

>  <scratch_subdir>  (402) 
nan

>  <HIPPO Compound ID>  (402) 
142302

>  <rmsd(smina/fragmenstein)>  (402) 
1.469

>  <distance_score>  (402) 
1.5484

>  <orig_smiles>  (402) 
nan

>  <fragmenstein_mode>  (402) 
nan

>  <inchikey>  (402) 
ZJQQZRJADLUIKH-UHFFFAOYSA-N

>  <ref_pdb>  (402) 
Z0852a

>  <GNINA pK>  (402) 
nan

>  <gnina_score_min>  (402) 
5.539

>  <tags>  (402) 
openbind_xx01zvns2b_c1_elab_nonasap_filtered_scored_top80percent,openbind_xx01zvns2b_c1_elab_chemspace_filtered_scored_top80percent,openbind_xx01zvns2b_c1_elab_chemspace_filtered_scored,openbind_xx01zvns2b_c1_elab_chemspace_filtered_scored_top40percent,openbind_xx01zvns2b_c1_elab_chemspace_filtered_scored_top20percent,openbind_xx01zvns2b_c1_elab_chemspace_filtered_scored_top60percent,openbind_xx01zvns2b_c1_elabs_filtered

>  <smiles>  (402) 
COC(=O)c1cc(NC(=O)c2c(O)c(C)nc3ccc(C)cc23)c2ncccc2c1

>  <subsites>  (402) 
1 - Z4590/B/203/1

>  <gnina_score>  (402) 
5.634

>  <HIPPO Pose ID>  (402) 
70352

>  <ref_mols>  (402) 
Z0917a,Z0852a

>  <energy_score>  (402) 
-1.947081

>  <inspiration_score>  (402) 
None

>  <smina_score_min>  (402) 
-6.838

>  <fragmenstein_error>  (402) 
nan

>  <name>  (402) 
P70352

$$$$
P70353
     RDKit          3D

 30 33  0  0  0  0  0  0  0  0999 V2000
   -3.0134    4.0263  -17.5971 C   0  0  0  0  0  0  0  0  0  0  0  0
   -2.9138    5.3752  -18.2033 C   0  0  0  0  0  0  0  0  0  0  0  0
   -2.9828    6.4137  -17.5489 O   0  0  0  0  0  0  0  0  0  0  0  0
   -2.8899    5.4992  -19.6549 C   0  0  0  0  0  0  0  0  0  0  0  0
   -1.6786    5.6828  -20.2812 C   0  0  0  0  0  0  0  0  0  0  0  0
   -1.5664    5.9731  -21.5938 N   0  0  0  0  0  0  0  0  0  0  0  0
   -2.6852    6.1281  -22.3174 C   0  0  0  0  0  0  0  0  0  0  0  0
   -2.5525    6.4970  -23.6502 C   0  0  0  0  0  0  0  0  0  0  0  0
   -3.6595    6.7311  -24.4672 C   0  0  0  0  0  0  0  0  0  0  0  0
   -4.9340    6.5842  -23.9450 C   0  0  0  0  0  0  0  0  0  0  0  0
   -5.0851    6.1887  -22.6163 C   0  0  0  0  0  0  0  0  0  0  0  0
   -3.9746    5.9578  -21.7743 C   0  0  0  0  0  0  0  0  0  0  0  0
   -4.0575    5.6038  -20.4032 C   0  0  0  0  0  0  0  0  0  0  0  0
   -5.3310    5.1126  -19.8103 C   0  0  0  0  0  0  0  0  0  0  0  0
   -5.8771    4.2678  -20.4128 O   0  0  0  0  0  0  0  0  0  0  0  0
   -5.6675    5.7450  -18.4213 N   0  0  0  0  0  0  0  0  0  0  0  0
   -6.6574    5.4088  -17.4815 C   0  0  0  0  0  0  0  0  0  0  0  0
   -6.4379    5.7474  -16.1316 C   0  0  0  0  0  0  0  0  0  0  0  0
   -7.3802    5.4163  -15.1390 C   0  0  0  0  0  0  0  0  0  0  0  0
   -7.2792    5.8893  -13.7151 C   0  0  0  0  0  0  0  0  0  0  0  0
   -6.2098    5.3825  -13.0551 F   0  0  0  0  0  0  0  0  0  0  0  0
   -8.3774    5.5780  -12.9643 F   0  0  0  0  0  0  0  0  0  0  0  0
   -7.1765    7.2463  -13.6401 F   0  0  0  0  0  0  0  0  0  0  0  0
   -8.5119    4.7071  -15.5018 C   0  0  0  0  0  0  0  0  0  0  0  0
   -8.7728    4.5028  -16.8406 C   0  0  0  0  0  0  0  0  0  0  0  0
  -10.0484    4.1305  -17.1705 C   0  0  0  0  0  0  0  0  0  0  0  0
  -10.4843    4.2698  -18.4528 C   0  0  0  0  0  0  0  0  0  0  0  0
   -9.5338    4.5115  -19.4052 C   0  0  0  0  0  0  0  0  0  0  0  0
   -8.2383    4.7120  -19.1294 N   0  0  0  0  0  0  0  0  0  0  0  0
   -7.8648    4.8229  -17.8562 C   0  0  0  0  0  0  0  0  0  0  0  0
  1  2  1  0
  2  3  2  0
  2  4  1  0
  4  5  2  0
  5  6  1  0
  6  7  2  0
  7  8  1  0
  8  9  2  0
  9 10  1  0
 10 11  2  0
 11 12  1  0
 12 13  2  0
 13 14  1  0
 14 15  2  0
 14 16  1  0
 16 17  1  0
 17 18  2  0
 18 19  1  0
 19 20  1  0
 20 21  1  0
 20 22  1  0
 20 23  1  0
 19 24  2  0
 24 25  1  0
 25 26  2  0
 26 27  1  0
 27 28  2  0
 28 29  1  0
 29 30  2  0
 13  4  1  0
 30 17  1  0
 12  7  1  0
 30 25  1  0
M  END
>  <fragmenstein_outcome>  (403) 
nan

>  <exports>  (403) 
['/opt/xchem-fragalysis-2/maxwin/openbind-hippo/xx01zvns2b/cycle_01/syndirella/elabs/openbind_xx01zvns2b_c1_elab_chemspace_filtered.sdf']

>  <Energy>  (403) 
nan

>  <alias>  (403) 
None

>  <fragmenstein_runtime>  (403) 
nan

>  <scratch_subdir>  (403) 
nan

>  <HIPPO Compound ID>  (403) 
142303

>  <rmsd(smina/fragmenstein)>  (403) 
1.545

>  <distance_score>  (403) 
1.046203

>  <orig_smiles>  (403) 
nan

>  <fragmenstein_mode>  (403) 
nan

>  <inchikey>  (403) 
XSUSTABBDCZWKI-UHFFFAOYSA-N

>  <ref_pdb>  (403) 
Z0852a

>  <GNINA pK>  (403) 
nan

>  <gnina_score_min>  (403) 
5.968

>  <tags>  (403) 
openbind_xx01zvns2b_c1_elab_nonasap_filtered_scored_top80percent,openbind_xx01zvns2b_c1_elab_chemspace_filtered_scored_top80percent,openbind_xx01zvns2b_c1_elab_chemspace_filtered_scored,openbind_xx01zvns2b_c1_elab_chemspace_filtered_scored_top40percent,openbind_xx01zvns2b_c1_elab_chemspace_filtered_scored_top20percent,openbind_xx01zvns2b_c1_elab_chemspace_filtered_scored_top60percent,openbind_xx01zvns2b_c1_elabs_filtered

>  <smiles>  (403) 
CC(=O)c1cnc2ccccc2c1C(=O)Nc1cc(C(F)(F)F)cc2cccnc12

>  <subsites>  (403) 
1 - Z4590/B/203/1

>  <gnina_score>  (403) 
5.464

>  <HIPPO Pose ID>  (403) 
70353

>  <ref_mols>  (403) 
Z0917a,Z0852a

>  <energy_score>  (403) 
-16.959442

>  <inspiration_score>  (403) 
None

>  <smina_score_min>  (403) 
-6.431

>  <fragmenstein_error>  (403) 
nan

>  <name>  (403) 
P70353

$$$$
P70354
     RDKit          3D

 30 34  0  0  0  0  0  0  0  0999 V2000
   -5.9140    3.9246  -20.3550 O   0  0  0  0  0  0  0  0  0  0  0  0
   -5.3150    4.7265  -19.7458 C   0  0  0  0  0  0  0  0  0  0  0  0
   -5.5640    5.3054  -18.3198 N   0  0  0  0  0  0  0  0  0  0  0  0
   -6.6196    5.0917  -17.4223 C   0  0  0  0  0  0  0  0  0  0  0  0
   -6.4190    5.4253  -16.0697 C   0  0  0  0  0  0  0  0  0  0  0  0
   -7.4350    5.2239  -15.1186 C   0  0  0  0  0  0  0  0  0  0  0  0
   -7.3418    5.7270  -13.7047 C   0  0  0  0  0  0  0  0  0  0  0  0
   -7.2498    7.0875  -13.6613 F   0  0  0  0  0  0  0  0  0  0  0  0
   -8.4336    5.4223  -12.9450 F   0  0  0  0  0  0  0  0  0  0  0  0
   -6.2629    5.2505  -13.0356 F   0  0  0  0  0  0  0  0  0  0  0  0
   -8.6223    4.6379  -15.5247 C   0  0  0  0  0  0  0  0  0  0  0  0
   -8.8512    4.4418  -16.8731 C   0  0  0  0  0  0  0  0  0  0  0  0
  -10.1394    4.1807  -17.2631 C   0  0  0  0  0  0  0  0  0  0  0  0
  -10.5099    4.3693  -18.5572 C   0  0  0  0  0  0  0  0  0  0  0  0
   -9.5037    4.5127  -19.4672 C   0  0  0  0  0  0  0  0  0  0  0  0
   -8.2083    4.5966  -19.1383 N   0  0  0  0  0  0  0  0  0  0  0  0
   -7.8746    4.6606  -17.8496 C   0  0  0  0  0  0  0  0  0  0  0  0
   -4.0904    5.2625  -20.3885 C   0  0  0  0  0  0  0  0  0  0  0  0
   -4.2303    5.5742  -21.7455 C   0  0  0  0  0  0  0  0  0  0  0  0
   -3.1534    6.0864  -22.4435 C   0  0  0  0  0  0  0  0  0  0  0  0
   -3.2796    6.4340  -23.9112 C   0  0  0  0  0  0  0  0  0  0  0  0
   -2.0648    6.8059  -24.7317 C   0  0  0  0  0  0  0  0  0  0  0  0
   -2.7278    5.4790  -24.9455 C   0  0  0  0  0  0  0  0  0  0  0  0
   -1.9829    6.3179  -21.8076 N   0  0  0  0  0  0  0  0  0  0  0  0
   -1.8360    6.0089  -20.5107 C   0  0  0  0  0  0  0  0  0  0  0  0
   -0.6176    6.3094  -19.9199 C   0  0  0  0  0  0  0  0  0  0  0  0
   -0.3749    6.0747  -18.5683 C   0  0  0  0  0  0  0  0  0  0  0  0
   -1.3548    5.4714  -17.7976 C   0  0  0  0  0  0  0  0  0  0  0  0
   -2.5605    5.0934  -18.3849 C   0  0  0  0  0  0  0  0  0  0  0  0
   -2.8545    5.4347  -19.7316 C   0  0  0  0  0  0  0  0  0  0  0  0
  1  2  2  0
  2  3  1  0
  3  4  1  0
  4  5  2  0
  5  6  1  0
  6  7  1  0
  7  8  1  0
  7  9  1  0
  7 10  1  0
  6 11  2  0
 11 12  1  0
 12 13  2  0
 13 14  1  0
 14 15  2  0
 15 16  1  0
 16 17  2  0
  2 18  1  0
 18 19  2  0
 19 20  1  0
 20 21  1  0
 21 22  1  0
 22 23  1  0
 20 24  2  0
 24 25  1  0
 25 26  2  0
 26 27  1  0
 27 28  2  0
 28 29  1  0
 29 30  2  0
 17  4  1  0
 30 18  1  0
 17 12  1  0
 23 21  1  0
 30 25  1  0
M  END
>  <fragmenstein_outcome>  (404) 
nan

>  <exports>  (404) 
['/opt/xchem-fragalysis-2/maxwin/openbind-hippo/xx01zvns2b/cycle_01/syndirella/elabs/openbind_xx01zvns2b_c1_elab_chemspace_filtered.sdf']

>  <Energy>  (404) 
nan

>  <alias>  (404) 
None

>  <fragmenstein_runtime>  (404) 
nan

>  <scratch_subdir>  (404) 
nan

>  <HIPPO Compound ID>  (404) 
142305

>  <rmsd(smina/fragmenstein)>  (404) 
2.162

>  <distance_score>  (404) 
1.088862

>  <orig_smiles>  (404) 
nan

>  <fragmenstein_mode>  (404) 
nan

>  <inchikey>  (404) 
ARBSLFUXVCADFM-UHFFFAOYSA-N

>  <ref_pdb>  (404) 
Z0852a

>  <GNINA pK>  (404) 
nan

>  <gnina_score_min>  (404) 
6.22

>  <tags>  (404) 
openbind_xx01zvns2b_c1_elab_nonasap_filtered_scored_top80percent,openbind_xx01zvns2b_c1_elab_chemspace_filtered_scored_top80percent,openbind_xx01zvns2b_c1_elab_chemspace_filtered_scored,openbind_xx01zvns2b_c1_elab_chemspace_filtered_scored_top40percent,openbind_xx01zvns2b_c1_elab_chemspace_filtered_scored_top20percent,openbind_xx01zvns2b_c1_elab_chemspace_filtered_scored_top60percent,openbind_xx01zvns2b_c1_elabs_filtered

>  <smiles>  (404) 
O=C(Nc1cc(C(F)(F)F)cc2cccnc12)c1cc(C2CC2)nc2ccccc12

>  <subsites>  (404) 
1 - Z4590/B/203/1

>  <gnina_score>  (404) 
5.883

>  <HIPPO Pose ID>  (404) 
70354

>  <ref_mols>  (404) 
Z0917a,Z0852a

>  <energy_score>  (404) 
-7.454899

>  <inspiration_score>  (404) 
None

>  <smina_score_min>  (404) 
-6.319

>  <fragmenstein_error>  (404) 
nan

>  <name>  (404) 
P70354

$$$$
P70355
     RDKit          3D

 30 34  0  0  0  0  0  0  0  0999 V2000
   -6.4332    4.9442  -11.4793 C   0  0  0  0  0  0  0  0  0  0  0  0
   -6.9267    4.8560  -12.8161 O   0  0  0  0  0  0  0  0  0  0  0  0
   -5.9873    5.0553  -13.7719 C   0  0  0  0  0  0  0  0  0  0  0  0
   -4.8121    5.3257  -13.5784 O   0  0  0  0  0  0  0  0  0  0  0  0
   -6.5839    4.9291  -15.1270 C   0  0  0  0  0  0  0  0  0  0  0  0
   -5.7938    5.2427  -16.2338 C   0  0  0  0  0  0  0  0  0  0  0  0
   -6.2878    5.0875  -17.5370 C   0  0  0  0  0  0  0  0  0  0  0  0
   -5.3824    5.3364  -18.5692 N   0  0  0  0  0  0  0  0  0  0  0  0
   -5.2876    4.7304  -19.9943 C   0  0  0  0  0  0  0  0  0  0  0  0
   -5.9984    3.9865  -20.5508 O   0  0  0  0  0  0  0  0  0  0  0  0
   -4.0849    5.2162  -20.7153 C   0  0  0  0  0  0  0  0  0  0  0  0
   -4.3069    5.5495  -22.0507 C   0  0  0  0  0  0  0  0  0  0  0  0
   -3.2609    6.0275  -22.8141 C   0  0  0  0  0  0  0  0  0  0  0  0
   -3.4466    6.3708  -24.2722 C   0  0  0  0  0  0  0  0  0  0  0  0
   -4.5807    7.2635  -24.7238 C   0  0  0  0  0  0  0  0  0  0  0  0
   -3.1734    7.7793  -24.7476 C   0  0  0  0  0  0  0  0  0  0  0  0
   -2.0379    6.2016  -22.2667 N   0  0  0  0  0  0  0  0  0  0  0  0
   -1.8183    5.8943  -20.9796 C   0  0  0  0  0  0  0  0  0  0  0  0
   -0.5562    6.1629  -20.4724 C   0  0  0  0  0  0  0  0  0  0  0  0
   -0.2377    5.9426  -19.1353 C   0  0  0  0  0  0  0  0  0  0  0  0
   -1.1874    5.3858  -18.2961 C   0  0  0  0  0  0  0  0  0  0  0  0
   -2.4359    5.0290  -18.8013 C   0  0  0  0  0  0  0  0  0  0  0  0
   -2.8037    5.3566  -20.1340 C   0  0  0  0  0  0  0  0  0  0  0  0
   -7.6140    4.7215  -17.7620 C   0  0  0  0  0  0  0  0  0  0  0  0
   -8.1580    4.7398  -18.9835 N   0  0  0  0  0  0  0  0  0  0  0  0
   -9.4735    4.5198  -19.1262 C   0  0  0  0  0  0  0  0  0  0  0  0
  -10.3038    4.2130  -18.0804 C   0  0  0  0  0  0  0  0  0  0  0  0
   -9.7322    4.1308  -16.8283 C   0  0  0  0  0  0  0  0  0  0  0  0
   -8.4000    4.4393  -16.6362 C   0  0  0  0  0  0  0  0  0  0  0  0
   -7.8921    4.5040  -15.3346 C   0  0  0  0  0  0  0  0  0  0  0  0
  1  2  1  0
  2  3  1  0
  3  4  2  0
  3  5  1  0
  5  6  2  0
  6  7  1  0
  7  8  1  0
  8  9  1  0
  9 10  2  0
  9 11  1  0
 11 12  2  0
 12 13  1  0
 13 14  1  0
 14 15  1  0
 15 16  1  0
 13 17  2  0
 17 18  1  0
 18 19  2  0
 19 20  1  0
 20 21  2  0
 21 22  1  0
 22 23  2  0
  7 24  2  0
 24 25  1  0
 25 26  2  0
 26 27  1  0
 27 28  2  0
 28 29  1  0
 29 30  2  0
 30  5  1  0
 23 11  1  0
 29 24  1  0
 16 14  1  0
 23 18  1  0
M  END
>  <fragmenstein_outcome>  (405) 
nan

>  <exports>  (405) 
['/opt/xchem-fragalysis-2/maxwin/openbind-hippo/xx01zvns2b/cycle_01/syndirella/elabs/openbind_xx01zvns2b_c1_elab_chemspace_filtered.sdf']

>  <Energy>  (405) 
nan

>  <alias>  (405) 
None

>  <fragmenstein_runtime>  (405) 
nan

>  <scratch_subdir>  (405) 
nan

>  <HIPPO Compound ID>  (405) 
142306

>  <rmsd(smina/fragmenstein)>  (405) 
1.644

>  <distance_score>  (405) 
1.617378

>  <orig_smiles>  (405) 
nan

>  <fragmenstein_mode>  (405) 
nan

>  <inchikey>  (405) 
BLGRAQATKYAEHR-UHFFFAOYSA-N

>  <ref_pdb>  (405) 
Z0852a

>  <GNINA pK>  (405) 
nan

>  <gnina_score_min>  (405) 
6.214

>  <tags>  (405) 
openbind_xx01zvns2b_c1_elab_nonasap_filtered_scored_top80percent,openbind_xx01zvns2b_c1_elab_chemspace_filtered_scored_top80percent,openbind_xx01zvns2b_c1_elab_chemspace_filtered_scored,openbind_xx01zvns2b_c1_elab_chemspace_filtered_scored_top40percent,openbind_xx01zvns2b_c1_elab_chemspace_filtered_scored_top20percent,openbind_xx01zvns2b_c1_elab_chemspace_filtered_scored_top60percent,openbind_xx01zvns2b_c1_elabs_filtered

>  <smiles>  (405) 
COC(=O)c1cc(NC(=O)c2cc(C3CC3)nc3ccccc23)c2ncccc2c1

>  <subsites>  (405) 
1 - Z4590/B/203/1

>  <gnina_score>  (405) 
6.163

>  <HIPPO Pose ID>  (405) 
70355

>  <ref_mols>  (405) 
Z0917a,Z0852a

>  <energy_score>  (405) 
-25.727985

>  <inspiration_score>  (405) 
None

>  <smina_score_min>  (405) 
-6.033

>  <fragmenstein_error>  (405) 
nan

>  <name>  (405) 
P70355

$$$$
P70356
     RDKit          3D

 30 33  0  0  0  0  0  0  0  0999 V2000
   -2.7570    4.2622  -18.5743 C   0  0  0  0  0  0  0  0  0  0  0  0
   -2.7933    4.9842  -19.8859 C   0  0  0  0  0  0  0  0  0  0  0  0
   -1.6188    5.3957  -20.5070 C   0  0  0  0  0  0  0  0  0  0  0  0
   -0.2819    5.3334  -19.8555 C   0  0  0  0  0  0  0  0  0  0  0  0
   -0.1195    5.2566  -18.6428 O   0  0  0  0  0  0  0  0  0  0  0  0
   -1.5613    5.9569  -21.7386 N   0  0  0  0  0  0  0  0  0  0  0  0
   -2.6986    6.1746  -22.4028 C   0  0  0  0  0  0  0  0  0  0  0  0
   -2.6117    6.7633  -23.6589 C   0  0  0  0  0  0  0  0  0  0  0  0
   -3.7451    7.0717  -24.4119 C   0  0  0  0  0  0  0  0  0  0  0  0
   -4.9985    6.7892  -23.8972 C   0  0  0  0  0  0  0  0  0  0  0  0
   -5.0989    6.1923  -22.6412 C   0  0  0  0  0  0  0  0  0  0  0  0
   -3.9586    5.8632  -21.8708 C   0  0  0  0  0  0  0  0  0  0  0  0
   -3.9806    5.2519  -20.5874 C   0  0  0  0  0  0  0  0  0  0  0  0
   -5.2871    4.8084  -20.0217 C   0  0  0  0  0  0  0  0  0  0  0  0
   -5.9386    4.0635  -20.6477 O   0  0  0  0  0  0  0  0  0  0  0  0
   -5.5208    5.4076  -18.6016 N   0  0  0  0  0  0  0  0  0  0  0  0
   -6.5276    5.1446  -17.6529 C   0  0  0  0  0  0  0  0  0  0  0  0
   -6.2433    5.4744  -16.3148 C   0  0  0  0  0  0  0  0  0  0  0  0
   -7.1744    5.2772  -15.2739 C   0  0  0  0  0  0  0  0  0  0  0  0
   -6.9622    5.7385  -13.8337 C   0  0  0  0  0  0  0  0  0  0  0  0
   -8.0728    6.7137  -13.3862 C   0  0  0  0  0  0  0  0  0  0  0  0
   -6.9398    4.5291  -12.8870 C   0  0  0  0  0  0  0  0  0  0  0  0
   -5.6425    6.4868  -13.6772 C   0  0  0  0  0  0  0  0  0  0  0  0
   -8.3783    4.6735  -15.6001 C   0  0  0  0  0  0  0  0  0  0  0  0
   -8.6972    4.4607  -16.9277 C   0  0  0  0  0  0  0  0  0  0  0  0
  -10.0064    4.1673  -17.2094 C   0  0  0  0  0  0  0  0  0  0  0  0
  -10.4706    4.3082  -18.4819 C   0  0  0  0  0  0  0  0  0  0  0  0
   -9.5329    4.4787  -19.4638 C   0  0  0  0  0  0  0  0  0  0  0  0
   -8.2169    4.5836  -19.2364 N   0  0  0  0  0  0  0  0  0  0  0  0
   -7.7962    4.6817  -17.9788 C   0  0  0  0  0  0  0  0  0  0  0  0
  1  2  1  0
  2  3  2  0
  3  4  1  0
  4  5  2  0
  3  6  1  0
  6  7  2  0
  7  8  1  0
  8  9  2  0
  9 10  1  0
 10 11  2  0
 11 12  1  0
 12 13  2  0
 13 14  1  0
 14 15  2  0
 14 16  1  0
 16 17  1  0
 17 18  2  0
 18 19  1  0
 19 20  1  0
 20 21  1  0
 20 22  1  0
 20 23  1  0
 19 24  2  0
 24 25  1  0
 25 26  2  0
 26 27  1  0
 27 28  2  0
 28 29  1  0
 29 30  2  0
 13  2  1  0
 30 17  1  0
 12  7  1  0
 30 25  1  0
M  END
>  <fragmenstein_outcome>  (406) 
nan

>  <exports>  (406) 
['/opt/xchem-fragalysis-2/maxwin/openbind-hippo/xx01zvns2b/cycle_01/syndirella/elabs/openbind_xx01zvns2b_c1_elab_chemspace_filtered.sdf']

>  <Energy>  (406) 
nan

>  <alias>  (406) 
None

>  <fragmenstein_runtime>  (406) 
nan

>  <scratch_subdir>  (406) 
nan

>  <HIPPO Compound ID>  (406) 
142308

>  <rmsd(smina/fragmenstein)>  (406) 
1.148

>  <distance_score>  (406) 
1.370462

>  <orig_smiles>  (406) 
nan

>  <fragmenstein_mode>  (406) 
nan

>  <inchikey>  (406) 
VRYJXNXQZZNJBS-UHFFFAOYSA-N

>  <ref_pdb>  (406) 
Z0852a

>  <GNINA pK>  (406) 
nan

>  <gnina_score_min>  (406) 
6.305

>  <tags>  (406) 
openbind_xx01zvns2b_c1_elab_nonasap_filtered_scored_top80percent,openbind_xx01zvns2b_c1_elab_chemspace_filtered_scored_top80percent,openbind_xx01zvns2b_c1_elab_chemspace_filtered_scored,openbind_xx01zvns2b_c1_elab_chemspace_filtered_scored_top40percent,openbind_xx01zvns2b_c1_elab_chemspace_filtered_scored_top20percent,openbind_xx01zvns2b_c1_elab_chemspace_filtered_scored_top60percent,openbind_xx01zvns2b_c1_elabs_filtered

>  <smiles>  (406) 
Cc1c(C=O)nc2ccccc2c1C(=O)Nc1cc(C(C)(C)C)cc2cccnc12

>  <subsites>  (406) 
1 - Z4590/B/203/1

>  <gnina_score>  (406) 
5.846

>  <HIPPO Pose ID>  (406) 
70356

>  <ref_mols>  (406) 
Z0917a,Z0852a

>  <energy_score>  (406) 
-26.138878

>  <inspiration_score>  (406) 
None

>  <smina_score_min>  (406) 
-6.314

>  <fragmenstein_error>  (406) 
nan

>  <name>  (406) 
P70356

$$$$
P70357
     RDKit          3D

 30 33  0  0  0  0  0  0  0  0999 V2000
   -2.7236    4.2787  -18.4588 C   0  0  0  0  0  0  0  0  0  0  0  0
   -2.7706    5.0115  -19.7614 C   0  0  0  0  0  0  0  0  0  0  0  0
   -1.6009    5.4159  -20.3981 C   0  0  0  0  0  0  0  0  0  0  0  0
   -0.2555    5.3422  -19.7664 C   0  0  0  0  0  0  0  0  0  0  0  0
   -0.0767    5.2663  -18.5562 O   0  0  0  0  0  0  0  0  0  0  0  0
   -1.5536    5.9704  -21.6327 N   0  0  0  0  0  0  0  0  0  0  0  0
   -2.6957    6.1837  -22.2876 C   0  0  0  0  0  0  0  0  0  0  0  0
   -2.6164    6.7605  -23.5498 C   0  0  0  0  0  0  0  0  0  0  0  0
   -3.7540    7.0595  -24.2993 C   0  0  0  0  0  0  0  0  0  0  0  0
   -5.0029    6.7782  -23.7744 C   0  0  0  0  0  0  0  0  0  0  0  0
   -5.0938    6.1935  -22.5116 C   0  0  0  0  0  0  0  0  0  0  0  0
   -3.9506    5.8763  -21.7407 C   0  0  0  0  0  0  0  0  0  0  0  0
   -3.9635    5.2783  -20.4472 C   0  0  0  0  0  0  0  0  0  0  0  0
   -5.2603    4.8193  -19.8702 C   0  0  0  0  0  0  0  0  0  0  0  0
   -5.9272    4.1176  -20.5317 O   0  0  0  0  0  0  0  0  0  0  0  0
   -5.5029    5.3892  -18.4332 N   0  0  0  0  0  0  0  0  0  0  0  0
   -6.5425    5.1386  -17.5118 C   0  0  0  0  0  0  0  0  0  0  0  0
   -6.3308    5.4858  -16.1599 C   0  0  0  0  0  0  0  0  0  0  0  0
   -7.3265    5.2696  -15.1844 C   0  0  0  0  0  0  0  0  0  0  0  0
   -7.2315    5.7798  -13.7712 C   0  0  0  0  0  0  0  0  0  0  0  0
   -8.3221    5.4743  -13.0075 F   0  0  0  0  0  0  0  0  0  0  0  0
   -6.1525    5.3075  -13.1005 F   0  0  0  0  0  0  0  0  0  0  0  0
   -7.1463    7.1404  -13.7322 F   0  0  0  0  0  0  0  0  0  0  0  0
   -8.5087    4.6579  -15.5616 C   0  0  0  0  0  0  0  0  0  0  0  0
   -8.7558    4.4484  -16.9012 C   0  0  0  0  0  0  0  0  0  0  0  0
  -10.0532    4.1741  -17.2480 C   0  0  0  0  0  0  0  0  0  0  0  0
  -10.4546    4.3320  -18.5370 C   0  0  0  0  0  0  0  0  0  0  0  0
   -9.4695    4.4716  -19.4727 C   0  0  0  0  0  0  0  0  0  0  0  0
   -8.1654    4.5724  -19.1785 N   0  0  0  0  0  0  0  0  0  0  0  0
   -7.7992    4.6696  -17.9024 C   0  0  0  0  0  0  0  0  0  0  0  0
  1  2  1  0
  2  3  2  0
  3  4  1  0
  4  5  2  0
  3  6  1  0
  6  7  2  0
  7  8  1  0
  8  9  2  0
  9 10  1  0
 10 11  2  0
 11 12  1  0
 12 13  2  0
 13 14  1  0
 14 15  2  0
 14 16  1  0
 16 17  1  0
 17 18  2  0
 18 19  1  0
 19 20  1  0
 20 21  1  0
 20 22  1  0
 20 23  1  0
 19 24  2  0
 24 25  1  0
 25 26  2  0
 26 27  1  0
 27 28  2  0
 28 29  1  0
 29 30  2  0
 13  2  1  0
 30 17  1  0
 12  7  1  0
 30 25  1  0
M  END
>  <fragmenstein_outcome>  (407) 
nan

>  <exports>  (407) 
['/opt/xchem-fragalysis-2/maxwin/openbind-hippo/xx01zvns2b/cycle_01/syndirella/elabs/openbind_xx01zvns2b_c1_elab_chemspace_filtered.sdf']

>  <Energy>  (407) 
nan

>  <alias>  (407) 
None

>  <fragmenstein_runtime>  (407) 
nan

>  <scratch_subdir>  (407) 
nan

>  <HIPPO Compound ID>  (407) 
142309

>  <rmsd(smina/fragmenstein)>  (407) 
0.997

>  <distance_score>  (407) 
1.098189

>  <orig_smiles>  (407) 
nan

>  <fragmenstein_mode>  (407) 
nan

>  <inchikey>  (407) 
JJHAGOBTXVYDRD-UHFFFAOYSA-N

>  <ref_pdb>  (407) 
Z0852a

>  <GNINA pK>  (407) 
nan

>  <gnina_score_min>  (407) 
6.043

>  <tags>  (407) 
openbind_xx01zvns2b_c1_elab_nonasap_filtered_scored_top80percent,openbind_xx01zvns2b_c1_elab_chemspace_filtered_scored_top80percent,openbind_xx01zvns2b_c1_elab_chemspace_filtered_scored,openbind_xx01zvns2b_c1_elab_chemspace_filtered_scored_top40percent,openbind_xx01zvns2b_c1_elab_chemspace_filtered_scored_top20percent,openbind_xx01zvns2b_c1_elab_chemspace_filtered_scored_top60percent,openbind_xx01zvns2b_c1_elabs_filtered

>  <smiles>  (407) 
Cc1c(C=O)nc2ccccc2c1C(=O)Nc1cc(C(F)(F)F)cc2cccnc12

>  <subsites>  (407) 
1 - Z4590/B/203/1

>  <gnina_score>  (407) 
5.635

>  <HIPPO Pose ID>  (407) 
70357

>  <ref_mols>  (407) 
Z0917a,Z0852a

>  <energy_score>  (407) 
-9.048629

>  <inspiration_score>  (407) 
None

>  <smina_score_min>  (407) 
-6.297

>  <fragmenstein_error>  (407) 
nan

>  <name>  (407) 
P70357

$$$$
P70358
     RDKit          3D

 30 33  0  0  0  0  0  0  0  0999 V2000
   -6.7555    5.3134  -11.4946 C   0  0  0  0  0  0  0  0  0  0  0  0
   -7.2493    5.1342  -12.8219 O   0  0  0  0  0  0  0  0  0  0  0  0
   -6.3527    5.4357  -13.7934 C   0  0  0  0  0  0  0  0  0  0  0  0
   -5.2177    5.8509  -13.6174 O   0  0  0  0  0  0  0  0  0  0  0  0
   -6.9506    5.2318  -15.1375 C   0  0  0  0  0  0  0  0  0  0  0  0
   -6.2181    5.6152  -16.2601 C   0  0  0  0  0  0  0  0  0  0  0  0
   -6.7254    5.3947  -17.5504 C   0  0  0  0  0  0  0  0  0  0  0  0
   -5.8238    5.5232  -18.5896 N   0  0  0  0  0  0  0  0  0  0  0  0
   -5.7379    4.7732  -19.9527 C   0  0  0  0  0  0  0  0  0  0  0  0
   -6.4612    3.9895  -20.4342 O   0  0  0  0  0  0  0  0  0  0  0  0
   -4.4711    5.1063  -20.6083 C   0  0  0  0  0  0  0  0  0  0  0  0
   -4.5015    5.5145  -21.9344 C   0  0  0  0  0  0  0  0  0  0  0  0
   -3.3146    5.9450  -22.4808 C   0  0  0  0  0  0  0  0  0  0  0  0
   -3.2434    6.3967  -23.9071 C   0  0  0  0  0  0  0  0  0  0  0  0
   -2.1804    6.0205  -21.7508 N   0  0  0  0  0  0  0  0  0  0  0  0
   -2.1763    5.6235  -20.4555 C   0  0  0  0  0  0  0  0  0  0  0  0
   -1.0637    5.8177  -19.6504 C   0  0  0  0  0  0  0  0  0  0  0  0
    0.0091    6.3831  -20.1811 F   0  0  0  0  0  0  0  0  0  0  0  0
   -0.9947    5.5361  -18.2907 C   0  0  0  0  0  0  0  0  0  0  0  0
   -2.0697    4.9272  -17.6989 C   0  0  0  0  0  0  0  0  0  0  0  0
   -3.1599    4.6252  -18.4894 C   0  0  0  0  0  0  0  0  0  0  0  0
   -4.1203    3.9140  -17.8966 F   0  0  0  0  0  0  0  0  0  0  0  0
   -3.2869    5.0800  -19.8363 C   0  0  0  0  0  0  0  0  0  0  0  0
   -8.0008    4.9293  -17.7502 C   0  0  0  0  0  0  0  0  0  0  0  0
   -8.5498    4.9672  -18.9623 N   0  0  0  0  0  0  0  0  0  0  0  0
   -9.8340    4.6483  -19.1050 C   0  0  0  0  0  0  0  0  0  0  0  0
  -10.5984    4.1880  -18.0694 C   0  0  0  0  0  0  0  0  0  0  0  0
   -9.9940    4.0889  -16.8326 C   0  0  0  0  0  0  0  0  0  0  0  0
   -8.7158    4.5426  -16.6237 C   0  0  0  0  0  0  0  0  0  0  0  0
   -8.1990    4.6507  -15.3261 C   0  0  0  0  0  0  0  0  0  0  0  0
  1  2  1  0
  2  3  1  0
  3  4  2  0
  3  5  1  0
  5  6  2  0
  6  7  1  0
  7  8  1  0
  8  9  1  0
  9 10  2  0
  9 11  1  0
 11 12  2  0
 12 13  1  0
 13 14  1  0
 13 15  2  0
 15 16  1  0
 16 17  2  0
 17 18  1  0
 17 19  1  0
 19 20  2  0
 20 21  1  0
 21 22  1  0
 21 23  2  0
  7 24  2  0
 24 25  1  0
 25 26  2  0
 26 27  1  0
 27 28  2  0
 28 29  1  0
 29 30  2  0
 30  5  1  0
 23 11  1  0
 29 24  1  0
 23 16  1  0
M  END
>  <fragmenstein_outcome>  (408) 
nan

>  <exports>  (408) 
['/opt/xchem-fragalysis-2/maxwin/openbind-hippo/xx01zvns2b/cycle_01/syndirella/elabs/openbind_xx01zvns2b_c1_elab_chemspace_filtered.sdf']

>  <Energy>  (408) 
nan

>  <alias>  (408) 
None

>  <fragmenstein_runtime>  (408) 
nan

>  <scratch_subdir>  (408) 
nan

>  <HIPPO Compound ID>  (408) 
142310

>  <rmsd(smina/fragmenstein)>  (408) 
1.45

>  <distance_score>  (408) 
1.709321

>  <orig_smiles>  (408) 
nan

>  <fragmenstein_mode>  (408) 
nan

>  <inchikey>  (408) 
QUYQCMXUWWHBIB-UHFFFAOYSA-N

>  <ref_pdb>  (408) 
Z0852a

>  <GNINA pK>  (408) 
nan

>  <gnina_score_min>  (408) 
6.122

>  <tags>  (408) 
openbind_xx01zvns2b_c1_elab_nonasap_filtered_scored_top80percent,openbind_xx01zvns2b_c1_elab_chemspace_filtered_scored_top80percent,openbind_xx01zvns2b_c1_elab_chemspace_filtered_scored,openbind_xx01zvns2b_c1_elab_chemspace_filtered_scored_top40percent,openbind_xx01zvns2b_c1_elab_chemspace_filtered_scored_top20percent,openbind_xx01zvns2b_c1_elab_chemspace_filtered_scored_top60percent,openbind_xx01zvns2b_c1_elabs_filtered

>  <smiles>  (408) 
COC(=O)c1cc(NC(=O)c2cc(C)nc3c(F)ccc(F)c23)c2ncccc2c1

>  <subsites>  (408) 
1 - Z4590/B/203/1

>  <gnina_score>  (408) 
5.918

>  <HIPPO Pose ID>  (408) 
70358

>  <ref_mols>  (408) 
Z0917a,Z0852a

>  <energy_score>  (408) 
-5.838886

>  <inspiration_score>  (408) 
None

>  <smina_score_min>  (408) 
-6.113

>  <fragmenstein_error>  (408) 
nan

>  <name>  (408) 
P70358

$$$$
P70359
     RDKit          3D

 30 33  0  0  0  0  0  0  0  0999 V2000
   -5.2326    6.0002  -22.4323 C   0  0  0  0  0  0  0  0  0  0  0  0
   -4.0079    5.7887  -21.5871 C   0  0  0  0  0  0  0  0  0  0  0  0
   -4.0102    5.3157  -20.3217 C   0  0  0  0  0  0  0  0  0  0  0  0
   -5.3200    4.7780  -19.8052 C   0  0  0  0  0  0  0  0  0  0  0  0
   -5.9178    3.9866  -20.4282 O   0  0  0  0  0  0  0  0  0  0  0  0
   -5.6318    5.4160  -18.4148 N   0  0  0  0  0  0  0  0  0  0  0  0
   -6.6596    5.1459  -17.4990 C   0  0  0  0  0  0  0  0  0  0  0  0
   -6.4586    5.4795  -16.1436 C   0  0  0  0  0  0  0  0  0  0  0  0
   -7.4459    5.2246  -15.1725 C   0  0  0  0  0  0  0  0  0  0  0  0
   -7.4104    5.7142  -13.7244 C   0  0  0  0  0  0  0  0  0  0  0  0
   -7.7508    4.5849  -12.7341 C   0  0  0  0  0  0  0  0  0  0  0  0
   -6.0736    6.3409  -13.3171 C   0  0  0  0  0  0  0  0  0  0  0  0
   -8.4667    6.8138  -13.5696 C   0  0  0  0  0  0  0  0  0  0  0  0
   -8.6088    4.5885  -15.5916 C   0  0  0  0  0  0  0  0  0  0  0  0
   -8.8548    4.4129  -16.9357 C   0  0  0  0  0  0  0  0  0  0  0  0
  -10.1517    4.1640  -17.3051 C   0  0  0  0  0  0  0  0  0  0  0  0
  -10.5380    4.3828  -18.5880 C   0  0  0  0  0  0  0  0  0  0  0  0
   -9.5411    4.5263  -19.5090 C   0  0  0  0  0  0  0  0  0  0  0  0
   -8.2402    4.5965  -19.2002 N   0  0  0  0  0  0  0  0  0  0  0  0
   -7.8957    4.6619  -17.9159 C   0  0  0  0  0  0  0  0  0  0  0  0
   -2.7780    5.3573  -19.5104 C   0  0  0  0  0  0  0  0  0  0  0  0
   -2.7482    4.9690  -18.1601 C   0  0  0  0  0  0  0  0  0  0  0  0
   -1.6681    5.2964  -17.3429 C   0  0  0  0  0  0  0  0  0  0  0  0
   -0.5348    5.8757  -17.8919 C   0  0  0  0  0  0  0  0  0  0  0  0
   -0.4897    6.1288  -19.2595 C   0  0  0  0  0  0  0  0  0  0  0  0
   -1.6093    5.8892  -20.0764 C   0  0  0  0  0  0  0  0  0  0  0  0
   -1.5851    6.2053  -21.4612 N   0  0  0  0  0  0  0  0  0  0  0  0
   -0.3281    6.5735  -22.0974 C   0  0  0  0  0  0  0  0  0  0  0  0
   -2.7271    6.1866  -22.2420 C   0  0  0  0  0  0  0  0  0  0  0  0
   -2.7242    6.5212  -23.4273 O   0  0  0  0  0  0  0  0  0  0  0  0
  1  2  1  0
  2  3  2  0
  3  4  1  0
  4  5  2  0
  4  6  1  0
  6  7  1  0
  7  8  2  0
  8  9  1  0
  9 10  1  0
 10 11  1  0
 10 12  1  0
 10 13  1  0
  9 14  2  0
 14 15  1  0
 15 16  2  0
 16 17  1  0
 17 18  2  0
 18 19  1  0
 19 20  2  0
  3 21  1  0
 21 22  2  0
 22 23  1  0
 23 24  2  0
 24 25  1  0
 25 26  2  0
 26 27  1  0
 27 28  1  0
 27 29  1  0
 29 30  2  0
 29  2  1  0
 20  7  1  0
 26 21  1  0
 20 15  1  0
M  END
>  <fragmenstein_outcome>  (409) 
nan

>  <exports>  (409) 
['/opt/xchem-fragalysis-2/maxwin/openbind-hippo/xx01zvns2b/cycle_01/syndirella/elabs/openbind_xx01zvns2b_c1_elab_chemspace_filtered.sdf']

>  <Energy>  (409) 
nan

>  <alias>  (409) 
None

>  <fragmenstein_runtime>  (409) 
nan

>  <scratch_subdir>  (409) 
nan

>  <HIPPO Compound ID>  (409) 
142311

>  <rmsd(smina/fragmenstein)>  (409) 
1.055

>  <distance_score>  (409) 
1.317123

>  <orig_smiles>  (409) 
nan

>  <fragmenstein_mode>  (409) 
nan

>  <inchikey>  (409) 
WRCGXPCYAZQTPI-UHFFFAOYSA-N

>  <ref_pdb>  (409) 
Z0852a

>  <GNINA pK>  (409) 
nan

>  <gnina_score_min>  (409) 
6.308

>  <tags>  (409) 
openbind_xx01zvns2b_c1_elab_nonasap_filtered_scored_top80percent,openbind_xx01zvns2b_c1_elab_chemspace_filtered_scored_top80percent,openbind_xx01zvns2b_c1_elab_chemspace_filtered_scored,openbind_xx01zvns2b_c1_elab_chemspace_filtered_scored_top40percent,openbind_xx01zvns2b_c1_elab_chemspace_filtered_scored_top20percent,openbind_xx01zvns2b_c1_elab_chemspace_filtered_scored_top60percent,openbind_xx01zvns2b_c1_elabs_filtered

>  <smiles>  (409) 
Cc1c(C(=O)Nc2cc(C(C)(C)C)cc3cccnc23)c2ccccc2n(C)c1=O

>  <subsites>  (409) 
1 - Z4590/B/203/1

>  <gnina_score>  (409) 
5.856

>  <HIPPO Pose ID>  (409) 
70359

>  <ref_mols>  (409) 
Z0917a,Z0852a

>  <energy_score>  (409) 
-33.822005

>  <inspiration_score>  (409) 
None

>  <smina_score_min>  (409) 
-6.715

>  <fragmenstein_error>  (409) 
nan

>  <name>  (409) 
P70359

$$$$
P70360
     RDKit          3D

 30 33  0  0  0  0  0  0  0  0999 V2000
   -5.3211    4.3302  -21.0205 C   0  0  0  0  0  0  0  0  0  0  0  0
   -4.0131    4.9691  -20.6591 C   0  0  0  0  0  0  0  0  0  0  0  0
   -3.4736    5.1338  -19.4293 C   0  0  0  0  0  0  0  0  0  0  0  0
   -4.1503    4.6987  -18.1279 C   0  0  0  0  0  0  0  0  0  0  0  0
   -3.5346    4.1728  -17.2898 O   0  0  0  0  0  0  0  0  0  0  0  0
   -5.6218    5.1402  -18.1550 N   0  0  0  0  0  0  0  0  0  0  0  0
   -6.6345    4.9518  -17.2306 C   0  0  0  0  0  0  0  0  0  0  0  0
   -6.4160    5.0933  -15.8599 C   0  0  0  0  0  0  0  0  0  0  0  0
   -7.5042    5.0138  -14.9812 C   0  0  0  0  0  0  0  0  0  0  0  0
   -7.4248    5.5002  -13.5615 C   0  0  0  0  0  0  0  0  0  0  0  0
   -7.3509    6.8636  -13.5100 F   0  0  0  0  0  0  0  0  0  0  0  0
   -6.3484    5.0361  -12.8821 F   0  0  0  0  0  0  0  0  0  0  0  0
   -8.5233    5.1816  -12.8193 F   0  0  0  0  0  0  0  0  0  0  0  0
   -8.7456    4.6287  -15.4760 C   0  0  0  0  0  0  0  0  0  0  0  0
   -8.9357    4.4993  -16.8432 C   0  0  0  0  0  0  0  0  0  0  0  0
  -10.2001    4.2981  -17.3404 C   0  0  0  0  0  0  0  0  0  0  0  0
  -10.4490    4.4684  -18.6654 C   0  0  0  0  0  0  0  0  0  0  0  0
   -9.3683    4.5236  -19.4968 C   0  0  0  0  0  0  0  0  0  0  0  0
   -8.0965    4.6006  -19.0734 N   0  0  0  0  0  0  0  0  0  0  0  0
   -7.8946    4.6825  -17.7499 C   0  0  0  0  0  0  0  0  0  0  0  0
   -2.0782    5.6253  -19.3408 C   0  0  0  0  0  0  0  0  0  0  0  0
   -1.5058    5.9848  -18.1071 C   0  0  0  0  0  0  0  0  0  0  0  0
   -0.1619    6.3498  -18.0042 C   0  0  0  0  0  0  0  0  0  0  0  0
    0.6354    6.3651  -19.1369 C   0  0  0  0  0  0  0  0  0  0  0  0
    0.0770    6.0500  -20.3744 C   0  0  0  0  0  0  0  0  0  0  0  0
   -1.2817    5.7036  -20.4926 C   0  0  0  0  0  0  0  0  0  0  0  0
   -1.8834    5.5076  -21.7632 N   0  0  0  0  0  0  0  0  0  0  0  0
   -1.0975    5.6467  -22.9778 C   0  0  0  0  0  0  0  0  0  0  0  0
   -3.2505    5.3729  -21.8852 C   0  0  0  0  0  0  0  0  0  0  0  0
   -3.8542    5.5291  -22.9468 O   0  0  0  0  0  0  0  0  0  0  0  0
  1  2  1  0
  2  3  2  0
  3  4  1  0
  4  5  2  0
  4  6  1  0
  6  7  1  0
  7  8  2  0
  8  9  1  0
  9 10  1  0
 10 11  1  0
 10 12  1  0
 10 13  1  0
  9 14  2  0
 14 15  1  0
 15 16  2  0
 16 17  1  0
 17 18  2  0
 18 19  1  0
 19 20  2  0
  3 21  1  0
 21 22  2  0
 22 23  1  0
 23 24  2  0
 24 25  1  0
 25 26  2  0
 26 27  1  0
 27 28  1  0
 27 29  1  0
 29 30  2  0
 29  2  1  0
 20  7  1  0
 26 21  1  0
 20 15  1  0
M  END
>  <fragmenstein_outcome>  (410) 
nan

>  <exports>  (410) 
['/opt/xchem-fragalysis-2/maxwin/openbind-hippo/xx01zvns2b/cycle_01/syndirella/elabs/openbind_xx01zvns2b_c1_elab_chemspace_filtered.sdf']

>  <Energy>  (410) 
nan

>  <alias>  (410) 
None

>  <fragmenstein_runtime>  (410) 
nan

>  <scratch_subdir>  (410) 
nan

>  <HIPPO Compound ID>  (410) 
142312

>  <rmsd(smina/fragmenstein)>  (410) 
1.062

>  <distance_score>  (410) 
1.708434

>  <orig_smiles>  (410) 
nan

>  <fragmenstein_mode>  (410) 
nan

>  <inchikey>  (410) 
KMQPWAQCDWDRCF-UHFFFAOYSA-N

>  <ref_pdb>  (410) 
Z0852a

>  <GNINA pK>  (410) 
nan

>  <gnina_score_min>  (410) 
5.897

>  <tags>  (410) 
openbind_xx01zvns2b_c1_elab_nonasap_filtered_scored_top80percent,openbind_xx01zvns2b_c1_elab_chemspace_filtered_scored_top80percent,openbind_xx01zvns2b_c1_elab_chemspace_filtered_scored,openbind_xx01zvns2b_c1_elab_chemspace_filtered_scored_top40percent,openbind_xx01zvns2b_c1_elab_chemspace_filtered_scored_top20percent,openbind_xx01zvns2b_c1_elab_chemspace_filtered_scored_top60percent,openbind_xx01zvns2b_c1_elabs_filtered

>  <smiles>  (410) 
Cc1c(C(=O)Nc2cc(C(F)(F)F)cc3cccnc23)c2ccccc2n(C)c1=O

>  <subsites>  (410) 
1 - Z4590/B/203/1

>  <gnina_score>  (410) 
5.997

>  <HIPPO Pose ID>  (410) 
70360

>  <ref_mols>  (410) 
Z0917a,Z0852a

>  <energy_score>  (410) 
-28.879112

>  <inspiration_score>  (410) 
None

>  <smina_score_min>  (410) 
-6.94

>  <fragmenstein_error>  (410) 
nan

>  <name>  (410) 
P70360

$$$$
P70361
     RDKit          3D

 30 33  0  0  0  0  0  0  0  0999 V2000
   -6.4558    5.1330  -11.5064 C   0  0  0  0  0  0  0  0  0  0  0  0
   -6.9364    4.9847  -12.8425 O   0  0  0  0  0  0  0  0  0  0  0  0
   -5.9963    5.1944  -13.7965 C   0  0  0  0  0  0  0  0  0  0  0  0
   -4.8321    5.5053  -13.5983 O   0  0  0  0  0  0  0  0  0  0  0  0
   -6.5772    5.0256  -15.1539 C   0  0  0  0  0  0  0  0  0  0  0  0
   -5.7829    5.3289  -16.2614 C   0  0  0  0  0  0  0  0  0  0  0  0
   -6.2600    5.1480  -17.5701 C   0  0  0  0  0  0  0  0  0  0  0  0
   -5.3258    5.3874  -18.5844 N   0  0  0  0  0  0  0  0  0  0  0  0
   -5.2335    4.8132  -20.0334 C   0  0  0  0  0  0  0  0  0  0  0  0
   -5.9670    4.1148  -20.6208 O   0  0  0  0  0  0  0  0  0  0  0  0
   -3.9306    5.2766  -20.6193 C   0  0  0  0  0  0  0  0  0  0  0  0
   -2.7935    4.9936  -19.9546 C   0  0  0  0  0  0  0  0  0  0  0  0
   -2.6524    4.2257  -18.6709 C   0  0  0  0  0  0  0  0  0  0  0  0
   -1.4785    5.4142  -20.5183 C   0  0  0  0  0  0  0  0  0  0  0  0
   -0.4951    5.4327  -19.7774 O   0  0  0  0  0  0  0  0  0  0  0  0
   -1.4409    5.7656  -21.8565 N   0  0  0  0  0  0  0  0  0  0  0  0
   -0.1383    5.9868  -22.4627 C   0  0  0  0  0  0  0  0  0  0  0  0
   -2.6284    6.0468  -22.5893 C   0  0  0  0  0  0  0  0  0  0  0  0
   -2.5824    6.5478  -23.9028 C   0  0  0  0  0  0  0  0  0  0  0  0
   -3.7502    6.9121  -24.5751 C   0  0  0  0  0  0  0  0  0  0  0  0
   -4.9770    6.7862  -23.9407 C   0  0  0  0  0  0  0  0  0  0  0  0
   -5.0317    6.2727  -22.6453 C   0  0  0  0  0  0  0  0  0  0  0  0
   -3.8713    5.8783  -21.9624 C   0  0  0  0  0  0  0  0  0  0  0  0
   -7.5782    4.7521  -17.7944 C   0  0  0  0  0  0  0  0  0  0  0  0
   -8.1141    4.7258  -19.0173 N   0  0  0  0  0  0  0  0  0  0  0  0
   -9.4273    4.4861  -19.1592 C   0  0  0  0  0  0  0  0  0  0  0  0
  -10.2624    4.1978  -18.1109 C   0  0  0  0  0  0  0  0  0  0  0  0
   -9.6985    4.1487  -16.8549 C   0  0  0  0  0  0  0  0  0  0  0  0
   -8.3706    4.4792  -16.6664 C   0  0  0  0  0  0  0  0  0  0  0  0
   -7.8759    4.5762  -15.3631 C   0  0  0  0  0  0  0  0  0  0  0  0
  1  2  1  0
  2  3  1  0
  3  4  2  0
  3  5  1  0
  5  6  2  0
  6  7  1  0
  7  8  1  0
  8  9  1  0
  9 10  2  0
  9 11  1  0
 11 12  2  0
 12 13  1  0
 12 14  1  0
 14 15  2  0
 14 16  1  0
 16 17  1  0
 16 18  1  0
 18 19  2  0
 19 20  1  0
 20 21  2  0
 21 22  1  0
 22 23  2  0
  7 24  2  0
 24 25  1  0
 25 26  2  0
 26 27  1  0
 27 28  2  0
 28 29  1  0
 29 30  2  0
 30  5  1  0
 23 11  1  0
 29 24  1  0
 23 18  1  0
M  END
>  <fragmenstein_outcome>  (411) 
nan

>  <exports>  (411) 
['/opt/xchem-fragalysis-2/maxwin/openbind-hippo/xx01zvns2b/cycle_01/syndirella/elabs/openbind_xx01zvns2b_c1_elab_chemspace_filtered.sdf']

>  <Energy>  (411) 
nan

>  <alias>  (411) 
None

>  <fragmenstein_runtime>  (411) 
nan

>  <scratch_subdir>  (411) 
nan

>  <HIPPO Compound ID>  (411) 
142313

>  <rmsd(smina/fragmenstein)>  (411) 
1.056

>  <distance_score>  (411) 
1.588726

>  <orig_smiles>  (411) 
nan

>  <fragmenstein_mode>  (411) 
nan

>  <inchikey>  (411) 
MSXKZJHAEQXLTJ-UHFFFAOYSA-N

>  <ref_pdb>  (411) 
Z0852a

>  <GNINA pK>  (411) 
nan

>  <gnina_score_min>  (411) 
6.087

>  <tags>  (411) 
openbind_xx01zvns2b_c1_elab_nonasap_filtered_scored_top80percent,openbind_xx01zvns2b_c1_elab_chemspace_filtered_scored_top80percent,openbind_xx01zvns2b_c1_elab_chemspace_filtered_scored,openbind_xx01zvns2b_c1_elab_chemspace_filtered_scored_top40percent,openbind_xx01zvns2b_c1_elab_chemspace_filtered_scored_top20percent,openbind_xx01zvns2b_c1_elab_chemspace_filtered_scored_top60percent,openbind_xx01zvns2b_c1_elabs_filtered

>  <smiles>  (411) 
COC(=O)c1cc(NC(=O)c2c(C)c(=O)n(C)c3ccccc23)c2ncccc2c1

>  <subsites>  (411) 
1 - Z4590/B/203/1

>  <gnina_score>  (411) 
6.031

>  <HIPPO Pose ID>  (411) 
70361

>  <ref_mols>  (411) 
Z0917a,Z0852a

>  <energy_score>  (411) 
-47.538741

>  <inspiration_score>  (411) 
None

>  <smina_score_min>  (411) 
-6.858

>  <fragmenstein_error>  (411) 
nan

>  <name>  (411) 
P70361

$$$$
P70362
     RDKit          3D

 30 34  0  0  0  0  0  0  0  0999 V2000
   -5.7879    4.0343  -20.5109 O   0  0  0  0  0  0  0  0  0  0  0  0
   -5.1977    4.8329  -19.8874 C   0  0  0  0  0  0  0  0  0  0  0  0
   -5.4342    5.3607  -18.4336 N   0  0  0  0  0  0  0  0  0  0  0  0
   -6.4748    5.0873  -17.5158 C   0  0  0  0  0  0  0  0  0  0  0  0
   -6.2745    5.4359  -16.1613 C   0  0  0  0  0  0  0  0  0  0  0  0
   -7.2849    5.2415  -15.1949 C   0  0  0  0  0  0  0  0  0  0  0  0
   -7.2018    5.7607  -13.7838 C   0  0  0  0  0  0  0  0  0  0  0  0
   -7.1294    7.1224  -13.7514 F   0  0  0  0  0  0  0  0  0  0  0  0
   -8.2922    5.4493  -13.0221 F   0  0  0  0  0  0  0  0  0  0  0  0
   -6.1210    5.3028  -13.1056 F   0  0  0  0  0  0  0  0  0  0  0  0
   -8.4744    4.6521  -15.5826 C   0  0  0  0  0  0  0  0  0  0  0  0
   -8.7094    4.4380  -16.9230 C   0  0  0  0  0  0  0  0  0  0  0  0
  -10.0114    4.1923  -17.2751 C   0  0  0  0  0  0  0  0  0  0  0  0
  -10.3945    4.3362  -18.5707 C   0  0  0  0  0  0  0  0  0  0  0  0
   -9.3964    4.4315  -19.4992 C   0  0  0  0  0  0  0  0  0  0  0  0
   -8.0918    4.5186  -19.1971 N   0  0  0  0  0  0  0  0  0  0  0  0
   -7.7356    4.6306  -17.9178 C   0  0  0  0  0  0  0  0  0  0  0  0
   -4.0121    5.4669  -20.5407 C   0  0  0  0  0  0  0  0  0  0  0  0
   -2.7822    5.4677  -19.9115 C   0  0  0  0  0  0  0  0  0  0  0  0
   -1.7105    6.0256  -20.5894 C   0  0  0  0  0  0  0  0  0  0  0  0
   -1.7500    6.5563  -21.8148 N   0  0  0  0  0  0  0  0  0  0  0  0
   -2.9269    6.5357  -22.4418 C   0  0  0  0  0  0  0  0  0  0  0  0
   -2.9718    7.0924  -23.7139 C   0  0  0  0  0  0  0  0  0  0  0  0
   -4.1545    7.1678  -24.4461 C   0  0  0  0  0  0  0  0  0  0  0  0
   -5.3205    6.6697  -23.8944 C   0  0  0  0  0  0  0  0  0  0  0  0
   -5.2844    6.0947  -22.6223 C   0  0  0  0  0  0  0  0  0  0  0  0
   -4.1028    6.0121  -21.8579 C   0  0  0  0  0  0  0  0  0  0  0  0
   -0.4672    6.0463  -19.7607 C   0  0  0  0  0  0  0  0  0  0  0  0
   -0.8193    4.9789  -18.7376 C   0  0  0  0  0  0  0  0  0  0  0  0
   -2.3480    4.9740  -18.5738 C   0  0  0  0  0  0  0  0  0  0  0  0
  1  2  2  0
  2  3  1  0
  3  4  1  0
  4  5  2  0
  5  6  1  0
  6  7  1  0
  7  8  1  0
  7  9  1  0
  7 10  1  0
  6 11  2  0
 11 12  1  0
 12 13  2  0
 13 14  1  0
 14 15  2  0
 15 16  1  0
 16 17  2  0
  2 18  1  0
 18 19  2  0
 19 20  1  0
 20 21  2  0
 21 22  1  0
 22 23  2  0
 23 24  1  0
 24 25  2  0
 25 26  1  0
 26 27  2  0
 20 28  1  0
 28 29  1  0
 29 30  1  0
 17  4  1  0
 27 18  1  0
 17 12  1  0
 30 19  1  0
 27 22  1  0
M  END
>  <fragmenstein_outcome>  (412) 
nan

>  <exports>  (412) 
['/opt/xchem-fragalysis-2/maxwin/openbind-hippo/xx01zvns2b/cycle_01/syndirella/elabs/openbind_xx01zvns2b_c1_elab_chemspace_filtered.sdf']

>  <Energy>  (412) 
nan

>  <alias>  (412) 
None

>  <fragmenstein_runtime>  (412) 
nan

>  <scratch_subdir>  (412) 
nan

>  <HIPPO Compound ID>  (412) 
142315

>  <rmsd(smina/fragmenstein)>  (412) 
0.63

>  <distance_score>  (412) 
1.241717

>  <orig_smiles>  (412) 
nan

>  <fragmenstein_mode>  (412) 
nan

>  <inchikey>  (412) 
NVWQQEIYOYYVJS-UHFFFAOYSA-N

>  <ref_pdb>  (412) 
Z0852a

>  <GNINA pK>  (412) 
nan

>  <gnina_score_min>  (412) 
6.181

>  <tags>  (412) 
openbind_xx01zvns2b_c1_elab_nonasap_filtered_scored_top80percent,openbind_xx01zvns2b_c1_elab_chemspace_filtered_scored_top80percent,openbind_xx01zvns2b_c1_elab_chemspace_filtered_scored,openbind_xx01zvns2b_c1_elab_chemspace_filtered_scored_top40percent,openbind_xx01zvns2b_c1_elab_chemspace_filtered_scored_top20percent,openbind_xx01zvns2b_c1_elab_chemspace_filtered_scored_top60percent,openbind_xx01zvns2b_c1_elabs_filtered

>  <smiles>  (412) 
O=C(Nc1cc(C(F)(F)F)cc2cccnc12)c1c2c(nc3ccccc13)CCC2

>  <subsites>  (412) 
1 - Z4590/B/203/1

>  <gnina_score>  (412) 
5.677

>  <HIPPO Pose ID>  (412) 
70362

>  <ref_mols>  (412) 
Z0917a,Z0852a

>  <energy_score>  (412) 
-10.150691

>  <inspiration_score>  (412) 
None

>  <smina_score_min>  (412) 
-7.165

>  <fragmenstein_error>  (412) 
nan

>  <name>  (412) 
P70362

$$$$
P70363
     RDKit          3D

 30 34  0  0  0  0  0  0  0  0999 V2000
   -6.4110    5.0366  -11.5455 C   0  0  0  0  0  0  0  0  0  0  0  0
   -6.8870    4.9016  -12.8847 O   0  0  0  0  0  0  0  0  0  0  0  0
   -5.9303    5.0595  -13.8321 C   0  0  0  0  0  0  0  0  0  0  0  0
   -4.7540    5.3155  -13.6260 O   0  0  0  0  0  0  0  0  0  0  0  0
   -6.5072    4.9081  -15.1931 C   0  0  0  0  0  0  0  0  0  0  0  0
   -5.6905    5.1669  -16.2949 C   0  0  0  0  0  0  0  0  0  0  0  0
   -6.1566    4.9981  -17.6105 C   0  0  0  0  0  0  0  0  0  0  0  0
   -5.1955    5.2418  -18.6037 N   0  0  0  0  0  0  0  0  0  0  0  0
   -5.1256    4.7615  -20.0797 C   0  0  0  0  0  0  0  0  0  0  0  0
   -5.8172    4.0272  -20.6714 O   0  0  0  0  0  0  0  0  0  0  0  0
   -3.9170    5.3313  -20.7473 C   0  0  0  0  0  0  0  0  0  0  0  0
   -2.6762    5.2675  -20.1292 C   0  0  0  0  0  0  0  0  0  0  0  0
   -1.6014    5.8414  -20.7889 C   0  0  0  0  0  0  0  0  0  0  0  0
   -1.6472    6.4186  -21.9942 N   0  0  0  0  0  0  0  0  0  0  0  0
   -2.8369    6.4628  -22.6019 C   0  0  0  0  0  0  0  0  0  0  0  0
   -2.8905    7.0764  -23.8471 C   0  0  0  0  0  0  0  0  0  0  0  0
   -4.0871    7.2302  -24.5466 C   0  0  0  0  0  0  0  0  0  0  0  0
   -5.2631    6.7638  -23.9864 C   0  0  0  0  0  0  0  0  0  0  0  0
   -5.2241    6.1369  -22.7404 C   0  0  0  0  0  0  0  0  0  0  0  0
   -4.0218    5.9565  -22.0220 C   0  0  0  0  0  0  0  0  0  0  0  0
   -0.3486    5.8013  -19.9652 C   0  0  0  0  0  0  0  0  0  0  0  0
   -0.9460    5.5110  -18.5917 C   0  0  0  0  0  0  0  0  0  0  0  0
   -2.1930    4.6473  -18.8550 C   0  0  0  0  0  0  0  0  0  0  0  0
   -7.4902    4.6509  -17.8466 C   0  0  0  0  0  0  0  0  0  0  0  0
   -8.0211    4.6194  -19.0730 N   0  0  0  0  0  0  0  0  0  0  0  0
   -9.3455    4.4375  -19.2151 C   0  0  0  0  0  0  0  0  0  0  0  0
  -10.2031    4.2179  -18.1671 C   0  0  0  0  0  0  0  0  0  0  0  0
   -9.6520    4.1684  -16.9072 C   0  0  0  0  0  0  0  0  0  0  0  0
   -8.3083    4.4336  -16.7193 C   0  0  0  0  0  0  0  0  0  0  0  0
   -7.8237    4.5226  -15.4120 C   0  0  0  0  0  0  0  0  0  0  0  0
  1  2  1  0
  2  3  1  0
  3  4  2  0
  3  5  1  0
  5  6  2  0
  6  7  1  0
  7  8  1  0
  8  9  1  0
  9 10  2  0
  9 11  1  0
 11 12  2  0
 12 13  1  0
 13 14  2  0
 14 15  1  0
 15 16  2  0
 16 17  1  0
 17 18  2  0
 18 19  1  0
 19 20  2  0
 13 21  1  0
 21 22  1  0
 22 23  1  0
  7 24  2  0
 24 25  1  0
 25 26  2  0
 26 27  1  0
 27 28  2  0
 28 29  1  0
 29 30  2  0
 30  5  1  0
 20 11  1  0
 29 24  1  0
 23 12  1  0
 20 15  1  0
M  END
>  <fragmenstein_outcome>  (413) 
nan

>  <exports>  (413) 
['/opt/xchem-fragalysis-2/maxwin/openbind-hippo/xx01zvns2b/cycle_01/syndirella/elabs/openbind_xx01zvns2b_c1_elab_chemspace_filtered.sdf']

>  <Energy>  (413) 
nan

>  <alias>  (413) 
None

>  <fragmenstein_runtime>  (413) 
nan

>  <scratch_subdir>  (413) 
nan

>  <HIPPO Compound ID>  (413) 
142316

>  <rmsd(smina/fragmenstein)>  (413) 
0.523

>  <distance_score>  (413) 
1.674142

>  <orig_smiles>  (413) 
nan

>  <fragmenstein_mode>  (413) 
nan

>  <inchikey>  (413) 
ARTYDSQTMOFCQW-UHFFFAOYSA-N

>  <ref_pdb>  (413) 
Z0852a

>  <GNINA pK>  (413) 
nan

>  <gnina_score_min>  (413) 
6.198

>  <tags>  (413) 
openbind_xx01zvns2b_c1_elab_nonasap_filtered_scored_top80percent,openbind_xx01zvns2b_c1_elab_chemspace_filtered_scored_top80percent,openbind_xx01zvns2b_c1_elab_chemspace_filtered_scored,openbind_xx01zvns2b_c1_elab_chemspace_filtered_scored_top40percent,openbind_xx01zvns2b_c1_elab_chemspace_filtered_scored_top20percent,openbind_xx01zvns2b_c1_elab_chemspace_filtered_scored_top60percent,openbind_xx01zvns2b_c1_elabs_filtered

>  <smiles>  (413) 
COC(=O)c1cc(NC(=O)c2c3c(nc4ccccc24)CCC3)c2ncccc2c1

>  <subsites>  (413) 
1 - Z4590/B/203/1

>  <gnina_score>  (413) 
6.143

>  <HIPPO Pose ID>  (413) 
70363

>  <ref_mols>  (413) 
Z0917a,Z0852a

>  <energy_score>  (413) 
-26.953715

>  <inspiration_score>  (413) 
None

>  <smina_score_min>  (413) 
-6.9

>  <fragmenstein_error>  (413) 
nan

>  <name>  (413) 
P70363

$$$$
P70364
     RDKit          3D

 30 33  0  0  0  0  0  0  0  0999 V2000
    1.0741    6.1964  -16.5204 C   0  0  0  0  0  0  0  0  0  0  0  0
    0.8664    6.3398  -17.9196 O   0  0  0  0  0  0  0  0  0  0  0  0
   -0.3536    5.9696  -18.4111 C   0  0  0  0  0  0  0  0  0  0  0  0
   -1.4127    5.4448  -17.6736 C   0  0  0  0  0  0  0  0  0  0  0  0
   -2.6108    5.0786  -18.3030 C   0  0  0  0  0  0  0  0  0  0  0  0
   -2.8155    5.3512  -19.6593 C   0  0  0  0  0  0  0  0  0  0  0  0
   -4.0954    5.1815  -20.3649 C   0  0  0  0  0  0  0  0  0  0  0  0
   -5.3904    4.7038  -19.7926 C   0  0  0  0  0  0  0  0  0  0  0  0
   -6.0268    3.9191  -20.3864 O   0  0  0  0  0  0  0  0  0  0  0  0
   -5.6473    5.3741  -18.4059 N   0  0  0  0  0  0  0  0  0  0  0  0
   -6.6575    5.1493  -17.4597 C   0  0  0  0  0  0  0  0  0  0  0  0
   -6.4280    5.4818  -16.1129 C   0  0  0  0  0  0  0  0  0  0  0  0
   -7.4186    5.2527  -15.1388 C   0  0  0  0  0  0  0  0  0  0  0  0
   -7.3088    5.7529  -13.7243 C   0  0  0  0  0  0  0  0  0  0  0  0
   -8.3928    5.4493  -12.9532 F   0  0  0  0  0  0  0  0  0  0  0  0
   -7.2116    7.1125  -13.6790 F   0  0  0  0  0  0  0  0  0  0  0  0
   -6.2239    5.2703  -13.0695 F   0  0  0  0  0  0  0  0  0  0  0  0
   -8.6018    4.6381  -15.5174 C   0  0  0  0  0  0  0  0  0  0  0  0
   -8.8604    4.4469  -16.8606 C   0  0  0  0  0  0  0  0  0  0  0  0
  -10.1491    4.1575  -17.2275 C   0  0  0  0  0  0  0  0  0  0  0  0
  -10.5543    4.3529  -18.5116 C   0  0  0  0  0  0  0  0  0  0  0  0
   -9.5740    4.5485  -19.4400 C   0  0  0  0  0  0  0  0  0  0  0  0
   -8.2748    4.6517  -19.1357 N   0  0  0  0  0  0  0  0  0  0  0  0
   -7.9144    4.6983  -17.8551 C   0  0  0  0  0  0  0  0  0  0  0  0
   -4.1750    5.4086  -21.6877 C   0  0  0  0  0  0  0  0  0  0  0  0
   -3.0027    5.8236  -22.4738 C   0  0  0  0  0  0  0  0  0  0  0  0
   -3.0837    5.9967  -23.6848 O   0  0  0  0  0  0  0  0  0  0  0  0
   -1.8490    6.0315  -21.7775 N   0  0  0  0  0  0  0  0  0  0  0  0
   -1.7246    5.8341  -20.3973 C   0  0  0  0  0  0  0  0  0  0  0  0
   -0.5049    6.1319  -19.7857 C   0  0  0  0  0  0  0  0  0  0  0  0
  1  2  1  0
  2  3  1  0
  3  4  2  0
  4  5  1  0
  5  6  2  0
  6  7  1  0
  7  8  1  0
  8  9  2  0
  8 10  1  0
 10 11  1  0
 11 12  2  0
 12 13  1  0
 13 14  1  0
 14 15  1  0
 14 16  1  0
 14 17  1  0
 13 18  2  0
 18 19  1  0
 19 20  2  0
 20 21  1  0
 21 22  2  0
 22 23  1  0
 23 24  2  0
  7 25  2  0
 25 26  1  0
 26 27  2  0
 26 28  1  0
 28 29  1  0
 29 30  2  0
 30  3  1  0
 29  6  1  0
 24 11  1  0
 24 19  1  0
M  END
>  <fragmenstein_outcome>  (414) 
nan

>  <exports>  (414) 
['/opt/xchem-fragalysis-2/maxwin/openbind-hippo/xx01zvns2b/cycle_01/syndirella/elabs/openbind_xx01zvns2b_c1_elab_chemspace_filtered.sdf']

>  <Energy>  (414) 
nan

>  <alias>  (414) 
None

>  <fragmenstein_runtime>  (414) 
nan

>  <scratch_subdir>  (414) 
nan

>  <HIPPO Compound ID>  (414) 
142318

>  <rmsd(smina/fragmenstein)>  (414) 
1.44

>  <distance_score>  (414) 
1.044654

>  <orig_smiles>  (414) 
nan

>  <fragmenstein_mode>  (414) 
nan

>  <inchikey>  (414) 
KKYFGVZSLPANME-UHFFFAOYSA-N

>  <ref_pdb>  (414) 
Z0852a

>  <GNINA pK>  (414) 
nan

>  <gnina_score_min>  (414) 
5.991

>  <tags>  (414) 
openbind_xx01zvns2b_c1_elab_nonasap_filtered_scored_top80percent,openbind_xx01zvns2b_c1_elab_chemspace_filtered_scored_top80percent,openbind_xx01zvns2b_c1_elab_chemspace_filtered_scored,openbind_xx01zvns2b_c1_elab_chemspace_filtered_scored_top40percent,openbind_xx01zvns2b_c1_elab_chemspace_filtered_scored_top20percent,openbind_xx01zvns2b_c1_elab_chemspace_filtered_scored_top60percent,openbind_xx01zvns2b_c1_elabs_filtered

>  <smiles>  (414) 
COc1ccc2c(C(=O)Nc3cc(C(F)(F)F)cc4cccnc34)cc(=O)[nH]c2c1

>  <subsites>  (414) 
1 - Z4590/B/203/1

>  <gnina_score>  (414) 
5.589

>  <HIPPO Pose ID>  (414) 
70364

>  <ref_mols>  (414) 
Z0917a,Z0852a

>  <energy_score>  (414) 
-10.729228

>  <inspiration_score>  (414) 
None

>  <smina_score_min>  (414) 
-6.376

>  <fragmenstein_error>  (414) 
nan

>  <name>  (414) 
P70364

$$$$
P70365
     RDKit          3D

 30 33  0  0  0  0  0  0  0  0999 V2000
   -3.0804    6.2794  -23.8528 C   0  0  0  0  0  0  0  0  0  0  0  0
   -3.0529    5.9833  -22.3853 C   0  0  0  0  0  0  0  0  0  0  0  0
   -4.1756    5.5311  -21.7349 C   0  0  0  0  0  0  0  0  0  0  0  0
   -4.0775    5.2428  -20.3726 C   0  0  0  0  0  0  0  0  0  0  0  0
   -5.3344    4.7570  -19.7529 C   0  0  0  0  0  0  0  0  0  0  0  0
   -5.9416    3.9586  -20.3583 O   0  0  0  0  0  0  0  0  0  0  0  0
   -5.6287    5.4154  -18.3706 N   0  0  0  0  0  0  0  0  0  0  0  0
   -6.6470    5.1627  -17.4407 C   0  0  0  0  0  0  0  0  0  0  0  0
   -6.4314    5.4954  -16.0911 C   0  0  0  0  0  0  0  0  0  0  0  0
   -7.4262    5.2586  -15.1246 C   0  0  0  0  0  0  0  0  0  0  0  0
   -7.3258    5.7562  -13.7091 C   0  0  0  0  0  0  0  0  0  0  0  0
   -7.2287    7.1158  -13.6602 F   0  0  0  0  0  0  0  0  0  0  0  0
   -8.4154    5.4516  -12.9463 F   0  0  0  0  0  0  0  0  0  0  0  0
   -6.2460    5.2720  -13.0470 F   0  0  0  0  0  0  0  0  0  0  0  0
   -8.6031    4.6400  -15.5137 C   0  0  0  0  0  0  0  0  0  0  0  0
   -8.8492    4.4466  -16.8592 C   0  0  0  0  0  0  0  0  0  0  0  0
  -10.1362    4.1585  -17.2324 C   0  0  0  0  0  0  0  0  0  0  0  0
  -10.5315    4.3479  -18.5201 C   0  0  0  0  0  0  0  0  0  0  0  0
   -9.5440    4.5310  -19.4437 C   0  0  0  0  0  0  0  0  0  0  0  0
   -8.2465    4.6378  -19.1322 N   0  0  0  0  0  0  0  0  0  0  0  0
   -7.8955    4.6972  -17.8484 C   0  0  0  0  0  0  0  0  0  0  0  0
   -2.8521    5.3829  -19.6822 C   0  0  0  0  0  0  0  0  0  0  0  0
   -2.6449    5.0556  -18.3233 C   0  0  0  0  0  0  0  0  0  0  0  0
   -1.4679    5.4098  -17.6748 C   0  0  0  0  0  0  0  0  0  0  0  0
   -0.4066    5.9615  -18.3888 C   0  0  0  0  0  0  0  0  0  0  0  0
    0.8715    6.2805  -17.6630 C   0  0  0  0  0  0  0  0  0  0  0  0
   -0.5442    6.1411  -19.7823 C   0  0  0  0  0  0  0  0  0  0  0  0
    0.6133    6.6708  -20.5995 C   0  0  0  0  0  0  0  0  0  0  0  0
   -1.7701    5.8939  -20.4262 C   0  0  0  0  0  0  0  0  0  0  0  0
   -1.8855    6.1747  -21.7392 N   0  0  0  0  0  0  0  0  0  0  0  0
  1  2  1  0
  2  3  2  0
  3  4  1  0
  4  5  1  0
  5  6  2  0
  5  7  1  0
  7  8  1  0
  8  9  2  0
  9 10  1  0
 10 11  1  0
 11 12  1  0
 11 13  1  0
 11 14  1  0
 10 15  2  0
 15 16  1  0
 16 17  2  0
 17 18  1  0
 18 19  2  0
 19 20  1  0
 20 21  2  0
  4 22  2  0
 22 23  1  0
 23 24  2  0
 24 25  1  0
 25 26  1  0
 25 27  2  0
 27 28  1  0
 27 29  1  0
 29 30  2  0
 30  2  1  0
 21  8  1  0
 29 22  1  0
 21 16  1  0
M  END
>  <fragmenstein_outcome>  (415) 
nan

>  <exports>  (415) 
['/opt/xchem-fragalysis-2/maxwin/openbind-hippo/xx01zvns2b/cycle_01/syndirella/elabs/openbind_xx01zvns2b_c1_elab_chemspace_filtered.sdf']

>  <Energy>  (415) 
nan

>  <alias>  (415) 
None

>  <fragmenstein_runtime>  (415) 
nan

>  <scratch_subdir>  (415) 
nan

>  <HIPPO Compound ID>  (415) 
142319

>  <rmsd(smina/fragmenstein)>  (415) 
1.729

>  <distance_score>  (415) 
1.056254

>  <orig_smiles>  (415) 
nan

>  <fragmenstein_mode>  (415) 
nan

>  <inchikey>  (415) 
SPPOCNUTYQHNEP-UHFFFAOYSA-N

>  <ref_pdb>  (415) 
Z0852a

>  <GNINA pK>  (415) 
nan

>  <gnina_score_min>  (415) 
6.201

>  <tags>  (415) 
openbind_xx01zvns2b_c1_elab_nonasap_filtered_scored_top80percent,openbind_xx01zvns2b_c1_elab_chemspace_filtered_scored_top80percent,openbind_xx01zvns2b_c1_elab_chemspace_filtered_scored,openbind_xx01zvns2b_c1_elab_chemspace_filtered_scored_top40percent,openbind_xx01zvns2b_c1_elab_chemspace_filtered_scored_top20percent,openbind_xx01zvns2b_c1_elab_chemspace_filtered_scored_top60percent,openbind_xx01zvns2b_c1_elabs_filtered

>  <smiles>  (415) 
Cc1cc(C(=O)Nc2cc(C(F)(F)F)cc3cccnc23)c2ccc(C)c(C)c2n1

>  <subsites>  (415) 
1 - Z4590/B/203/1

>  <gnina_score>  (415) 
5.851

>  <HIPPO Pose ID>  (415) 
70365

>  <ref_mols>  (415) 
Z0917a,Z0852a

>  <energy_score>  (415) 
-4.863635

>  <inspiration_score>  (415) 
None

>  <smina_score_min>  (415) 
-6.546

>  <fragmenstein_error>  (415) 
nan

>  <name>  (415) 
P70365

$$$$
P70366
     RDKit          3D

 30 33  0  0  0  0  0  0  0  0999 V2000
   -3.0665    6.5574  -23.6574 C   0  0  0  0  0  0  0  0  0  0  0  0
   -3.2475    6.0235  -22.2690 C   0  0  0  0  0  0  0  0  0  0  0  0
   -2.1645    6.0551  -21.4553 N   0  0  0  0  0  0  0  0  0  0  0  0
   -2.2634    5.6028  -20.1815 C   0  0  0  0  0  0  0  0  0  0  0  0
   -1.2400    5.7776  -19.2644 C   0  0  0  0  0  0  0  0  0  0  0  0
   -0.1321    6.3900  -19.6563 F   0  0  0  0  0  0  0  0  0  0  0  0
   -1.3029    5.4285  -17.9181 C   0  0  0  0  0  0  0  0  0  0  0  0
   -2.4052    4.7506  -17.4578 C   0  0  0  0  0  0  0  0  0  0  0  0
   -3.4176    4.4789  -18.3576 C   0  0  0  0  0  0  0  0  0  0  0  0
   -3.4148    5.0177  -19.6812 C   0  0  0  0  0  0  0  0  0  0  0  0
   -4.5399    5.0837  -20.5286 C   0  0  0  0  0  0  0  0  0  0  0  0
   -5.8383    4.6885  -19.9849 C   0  0  0  0  0  0  0  0  0  0  0  0
   -6.5133    3.9528  -20.5968 O   0  0  0  0  0  0  0  0  0  0  0  0
   -6.0332    5.2911  -18.5617 N   0  0  0  0  0  0  0  0  0  0  0  0
   -7.0050    5.0476  -17.6097 C   0  0  0  0  0  0  0  0  0  0  0  0
   -6.6769    5.2648  -16.2668 C   0  0  0  0  0  0  0  0  0  0  0  0
   -7.6043    5.0171  -15.2430 C   0  0  0  0  0  0  0  0  0  0  0  0
   -7.3188    5.4274  -13.8012 C   0  0  0  0  0  0  0  0  0  0  0  0
   -6.1655    4.5957  -13.2319 C   0  0  0  0  0  0  0  0  0  0  0  0
   -8.5227    5.2838  -12.8489 C   0  0  0  0  0  0  0  0  0  0  0  0
   -6.9374    6.9122  -13.8013 C   0  0  0  0  0  0  0  0  0  0  0  0
   -8.8262    4.4723  -15.6141 C   0  0  0  0  0  0  0  0  0  0  0  0
   -9.1679    4.3742  -16.9589 C   0  0  0  0  0  0  0  0  0  0  0  0
  -10.4667    4.1332  -17.3284 C   0  0  0  0  0  0  0  0  0  0  0  0
  -10.9024    4.4641  -18.5735 C   0  0  0  0  0  0  0  0  0  0  0  0
   -9.9516    4.7453  -19.5045 C   0  0  0  0  0  0  0  0  0  0  0  0
   -8.6537    4.7628  -19.2336 N   0  0  0  0  0  0  0  0  0  0  0  0
   -8.2705    4.6691  -17.9694 C   0  0  0  0  0  0  0  0  0  0  0  0
   -4.4803    5.5959  -21.8201 C   0  0  0  0  0  0  0  0  0  0  0  0
   -5.5829    5.7490  -22.6118 O   0  0  0  0  0  0  0  0  0  0  0  0
  1  2  1  0
  2  3  2  0
  3  4  1  0
  4  5  2  0
  5  6  1  0
  5  7  1  0
  7  8  2  0
  8  9  1  0
  9 10  2  0
 10 11  1  0
 11 12  1  0
 12 13  2  0
 12 14  1  0
 14 15  1  0
 15 16  2  0
 16 17  1  0
 17 18  1  0
 18 19  1  0
 18 20  1  0
 18 21  1  0
 17 22  2  0
 22 23  1  0
 23 24  2  0
 24 25  1  0
 25 26  2  0
 26 27  1  0
 27 28  2  0
 11 29  2  0
 29 30  1  0
 29  2  1  0
 10  4  1  0
 28 15  1  0
 28 23  1  0
M  END
>  <fragmenstein_outcome>  (416) 
nan

>  <exports>  (416) 
['/opt/xchem-fragalysis-2/maxwin/openbind-hippo/xx01zvns2b/cycle_01/syndirella/elabs/openbind_xx01zvns2b_c1_elab_chemspace_filtered.sdf']

>  <Energy>  (416) 
nan

>  <alias>  (416) 
None

>  <fragmenstein_runtime>  (416) 
nan

>  <scratch_subdir>  (416) 
nan

>  <HIPPO Compound ID>  (416) 
142320

>  <rmsd(smina/fragmenstein)>  (416) 
1.392

>  <distance_score>  (416) 
1.426571

>  <orig_smiles>  (416) 
nan

>  <fragmenstein_mode>  (416) 
nan

>  <inchikey>  (416) 
JHMLKQWNFIQQIW-UHFFFAOYSA-N

>  <ref_pdb>  (416) 
Z0852a

>  <GNINA pK>  (416) 
nan

>  <gnina_score_min>  (416) 
6.269

>  <tags>  (416) 
openbind_xx01zvns2b_c1_elab_nonasap_filtered_scored_top80percent,openbind_xx01zvns2b_c1_elab_chemspace_filtered_scored_top80percent,openbind_xx01zvns2b_c1_elab_chemspace_filtered_scored,openbind_xx01zvns2b_c1_elab_chemspace_filtered_scored_top40percent,openbind_xx01zvns2b_c1_elab_chemspace_filtered_scored_top20percent,openbind_xx01zvns2b_c1_elab_chemspace_filtered_scored_top60percent,openbind_xx01zvns2b_c1_elabs_filtered

>  <smiles>  (416) 
Cc1nc2c(F)cccc2c(C(=O)Nc2cc(C(C)(C)C)cc3cccnc23)c1O

>  <subsites>  (416) 
1 - Z4590/B/203/1

>  <gnina_score>  (416) 
5.94

>  <HIPPO Pose ID>  (416) 
70366

>  <ref_mols>  (416) 
Z0917a,Z0852a

>  <energy_score>  (416) 
-27.505069

>  <inspiration_score>  (416) 
None

>  <smina_score_min>  (416) 
-7.093

>  <fragmenstein_error>  (416) 
nan

>  <name>  (416) 
P70366

$$$$
P70367
     RDKit          3D

 30 33  0  0  0  0  0  0  0  0999 V2000
   -0.6460    6.3711  -22.6073 C   0  0  0  0  0  0  0  0  0  0  0  0
   -1.8189    5.9886  -21.8367 N   0  0  0  0  0  0  0  0  0  0  0  0
   -3.0023    5.7813  -22.5251 C   0  0  0  0  0  0  0  0  0  0  0  0
   -3.1510    5.9550  -23.7332 O   0  0  0  0  0  0  0  0  0  0  0  0
   -4.1645    5.3548  -21.7350 C   0  0  0  0  0  0  0  0  0  0  0  0
   -4.0982    5.1203  -20.4174 C   0  0  0  0  0  0  0  0  0  0  0  0
   -5.4026    4.6052  -19.8785 C   0  0  0  0  0  0  0  0  0  0  0  0
   -6.0395    3.8550  -20.5136 O   0  0  0  0  0  0  0  0  0  0  0  0
   -5.6182    5.1388  -18.4321 N   0  0  0  0  0  0  0  0  0  0  0  0
   -6.6748    4.9388  -17.5389 C   0  0  0  0  0  0  0  0  0  0  0  0
   -6.4277    5.2010  -16.1817 C   0  0  0  0  0  0  0  0  0  0  0  0
   -7.4200    5.0194  -15.1976 C   0  0  0  0  0  0  0  0  0  0  0  0
   -7.2162    5.4822  -13.7575 C   0  0  0  0  0  0  0  0  0  0  0  0
   -6.8920    6.9784  -13.8008 C   0  0  0  0  0  0  0  0  0  0  0  0
   -6.0603    4.7134  -13.1102 C   0  0  0  0  0  0  0  0  0  0  0  0
   -8.4540    5.3223  -12.8470 C   0  0  0  0  0  0  0  0  0  0  0  0
   -8.6394    4.5071  -15.6082 C   0  0  0  0  0  0  0  0  0  0  0  0
   -8.9104    4.3726  -16.9584 C   0  0  0  0  0  0  0  0  0  0  0  0
  -10.2169    4.1838  -17.3317 C   0  0  0  0  0  0  0  0  0  0  0  0
  -10.6010    4.4388  -18.6089 C   0  0  0  0  0  0  0  0  0  0  0  0
   -9.6038    4.5685  -19.5302 C   0  0  0  0  0  0  0  0  0  0  0  0
   -8.3003    4.5719  -19.2296 N   0  0  0  0  0  0  0  0  0  0  0  0
   -7.9480    4.5778  -17.9479 C   0  0  0  0  0  0  0  0  0  0  0  0
   -2.8284    5.3317  -19.6971 C   0  0  0  0  0  0  0  0  0  0  0  0
   -2.6731    5.1094  -18.3172 C   0  0  0  0  0  0  0  0  0  0  0  0
   -1.5556    5.5951  -17.6390 C   0  0  0  0  0  0  0  0  0  0  0  0
   -1.5435    5.6111  -15.7448 Br  0  0  0  0  0  0  0  0  0  0  0  0
   -0.4855    6.1249  -18.3403 C   0  0  0  0  0  0  0  0  0  0  0  0
   -0.5541    6.1991  -19.7306 C   0  0  0  0  0  0  0  0  0  0  0  0
   -1.7258    5.8331  -20.4200 C   0  0  0  0  0  0  0  0  0  0  0  0
  1  2  1  0
  2  3  1  0
  3  4  2  0
  3  5  1  0
  5  6  2  0
  6  7  1  0
  7  8  2  0
  7  9  1  0
  9 10  1  0
 10 11  2  0
 11 12  1  0
 12 13  1  0
 13 14  1  0
 13 15  1  0
 13 16  1  0
 12 17  2  0
 17 18  1  0
 18 19  2  0
 19 20  1  0
 20 21  2  0
 21 22  1  0
 22 23  2  0
  6 24  1  0
 24 25  2  0
 25 26  1  0
 26 27  1  0
 26 28  2  0
 28 29  1  0
 29 30  2  0
 30  2  1  0
 23 10  1  0
 30 24  1  0
 23 18  1  0
M  END
>  <fragmenstein_outcome>  (417) 
nan

>  <exports>  (417) 
['/opt/xchem-fragalysis-2/maxwin/openbind-hippo/xx01zvns2b/cycle_01/syndirella/elabs/openbind_xx01zvns2b_c1_elab_chemspace_filtered.sdf']

>  <Energy>  (417) 
nan

>  <alias>  (417) 
None

>  <fragmenstein_runtime>  (417) 
nan

>  <scratch_subdir>  (417) 
nan

>  <HIPPO Compound ID>  (417) 
142323

>  <rmsd(smina/fragmenstein)>  (417) 
2.132

>  <distance_score>  (417) 
1.199151

>  <orig_smiles>  (417) 
nan

>  <fragmenstein_mode>  (417) 
nan

>  <inchikey>  (417) 
BHUSWVFVZKEYQK-UHFFFAOYSA-N

>  <ref_pdb>  (417) 
Z0852a

>  <GNINA pK>  (417) 
nan

>  <gnina_score_min>  (417) 
6.387

>  <tags>  (417) 
openbind_xx01zvns2b_c1_elab_nonasap_filtered_scored_top80percent,openbind_xx01zvns2b_c1_elab_chemspace_filtered_scored_top80percent,openbind_xx01zvns2b_c1_elab_chemspace_filtered_scored,openbind_xx01zvns2b_c1_elab_chemspace_filtered_scored_top40percent,openbind_xx01zvns2b_c1_elab_chemspace_filtered_scored_top20percent,openbind_xx01zvns2b_c1_elab_chemspace_filtered_scored_top60percent,openbind_xx01zvns2b_c1_elabs_filtered

>  <smiles>  (417) 
Cn1c(=O)cc(C(=O)Nc2cc(C(C)(C)C)cc3cccnc23)c2cc(Br)ccc21

>  <subsites>  (417) 
1 - Z4590/B/203/1

>  <gnina_score>  (417) 
6.149

>  <HIPPO Pose ID>  (417) 
70367

>  <ref_mols>  (417) 
Z0917a,Z0852a

>  <energy_score>  (417) 
-16.563422

>  <inspiration_score>  (417) 
None

>  <smina_score_min>  (417) 
-6.886

>  <fragmenstein_error>  (417) 
nan

>  <name>  (417) 
P70367

$$$$
P70368
     RDKit          3D

 30 33  0  0  0  0  0  0  0  0999 V2000
   -0.6279    6.2996  -22.5770 C   0  0  0  0  0  0  0  0  0  0  0  0
   -1.7964    5.9596  -21.7799 N   0  0  0  0  0  0  0  0  0  0  0  0
   -2.9952    5.7651  -22.4452 C   0  0  0  0  0  0  0  0  0  0  0  0
   -3.1613    5.9188  -23.6536 O   0  0  0  0  0  0  0  0  0  0  0  0
   -4.1520    5.3752  -21.6280 C   0  0  0  0  0  0  0  0  0  0  0  0
   -4.0704    5.1816  -20.3040 C   0  0  0  0  0  0  0  0  0  0  0  0
   -5.3658    4.6869  -19.7349 C   0  0  0  0  0  0  0  0  0  0  0  0
   -5.9915    3.9002  -20.3364 O   0  0  0  0  0  0  0  0  0  0  0  0
   -5.5955    5.2883  -18.3151 N   0  0  0  0  0  0  0  0  0  0  0  0
   -6.6572    5.1199  -17.4174 C   0  0  0  0  0  0  0  0  0  0  0  0
   -6.4518    5.4632  -16.0692 C   0  0  0  0  0  0  0  0  0  0  0  0
   -7.4614    5.2526  -15.1135 C   0  0  0  0  0  0  0  0  0  0  0  0
   -7.3593    5.7462  -13.6972 C   0  0  0  0  0  0  0  0  0  0  0  0
   -6.2859    5.2492  -13.0337 F   0  0  0  0  0  0  0  0  0  0  0  0
   -8.4534    5.4502  -12.9379 F   0  0  0  0  0  0  0  0  0  0  0  0
   -7.2484    7.1045  -13.6455 F   0  0  0  0  0  0  0  0  0  0  0  0
   -8.6452    4.6534  -15.5132 C   0  0  0  0  0  0  0  0  0  0  0  0
   -8.8799    4.4551  -16.8607 C   0  0  0  0  0  0  0  0  0  0  0  0
  -10.1639    4.1770  -17.2524 C   0  0  0  0  0  0  0  0  0  0  0  0
  -10.5393    4.3695  -18.5449 C   0  0  0  0  0  0  0  0  0  0  0  0
   -9.5375    4.5349  -19.4555 C   0  0  0  0  0  0  0  0  0  0  0  0
   -8.2433    4.6290  -19.1263 N   0  0  0  0  0  0  0  0  0  0  0  0
   -7.9101    4.6844  -17.8384 C   0  0  0  0  0  0  0  0  0  0  0  0
   -2.7898    5.3862  -19.6081 C   0  0  0  0  0  0  0  0  0  0  0  0
   -2.6257    5.1982  -18.2246 C   0  0  0  0  0  0  0  0  0  0  0  0
   -1.4742    5.6458  -17.5776 C   0  0  0  0  0  0  0  0  0  0  0  0
   -1.4130    5.6732  -15.6851 Br  0  0  0  0  0  0  0  0  0  0  0  0
   -0.3970    6.1187  -18.3091 C   0  0  0  0  0  0  0  0  0  0  0  0
   -0.4886    6.1711  -19.6993 C   0  0  0  0  0  0  0  0  0  0  0  0
   -1.6835    5.8326  -20.3613 C   0  0  0  0  0  0  0  0  0  0  0  0
  1  2  1  0
  2  3  1  0
  3  4  2  0
  3  5  1  0
  5  6  2  0
  6  7  1  0
  7  8  2  0
  7  9  1  0
  9 10  1  0
 10 11  2  0
 11 12  1  0
 12 13  1  0
 13 14  1  0
 13 15  1  0
 13 16  1  0
 12 17  2  0
 17 18  1  0
 18 19  2  0
 19 20  1  0
 20 21  2  0
 21 22  1  0
 22 23  2  0
  6 24  1  0
 24 25  2  0
 25 26  1  0
 26 27  1  0
 26 28  2  0
 28 29  1  0
 29 30  2  0
 30  2  1  0
 23 10  1  0
 30 24  1  0
 23 18  1  0
M  END
>  <fragmenstein_outcome>  (418) 
nan

>  <exports>  (418) 
['/opt/xchem-fragalysis-2/maxwin/openbind-hippo/xx01zvns2b/cycle_01/syndirella/elabs/openbind_xx01zvns2b_c1_elab_chemspace_filtered.sdf']

>  <Energy>  (418) 
nan

>  <alias>  (418) 
None

>  <fragmenstein_runtime>  (418) 
nan

>  <scratch_subdir>  (418) 
nan

>  <HIPPO Compound ID>  (418) 
142324

>  <rmsd(smina/fragmenstein)>  (418) 
2.483

>  <distance_score>  (418) 
1.03876

>  <orig_smiles>  (418) 
nan

>  <fragmenstein_mode>  (418) 
nan

>  <inchikey>  (418) 
KJEBYNPKMMKFKJ-UHFFFAOYSA-N

>  <ref_pdb>  (418) 
Z0852a

>  <GNINA pK>  (418) 
nan

>  <gnina_score_min>  (418) 
5.885

>  <tags>  (418) 
openbind_xx01zvns2b_c1_elab_nonasap_filtered_scored_top80percent,openbind_xx01zvns2b_c1_elab_chemspace_filtered_scored_top80percent,openbind_xx01zvns2b_c1_elab_chemspace_filtered_scored,openbind_xx01zvns2b_c1_elab_chemspace_filtered_scored_top40percent,openbind_xx01zvns2b_c1_elab_chemspace_filtered_scored_top20percent,openbind_xx01zvns2b_c1_elab_chemspace_filtered_scored_top60percent,openbind_xx01zvns2b_c1_elabs_filtered

>  <smiles>  (418) 
Cn1c(=O)cc(C(=O)Nc2cc(C(F)(F)F)cc3cccnc23)c2cc(Br)ccc21

>  <subsites>  (418) 
1 - Z4590/B/203/1

>  <gnina_score>  (418) 
5.888

>  <HIPPO Pose ID>  (418) 
70368

>  <ref_mols>  (418) 
Z0917a,Z0852a

>  <energy_score>  (418) 
-13.084202

>  <inspiration_score>  (418) 
None

>  <smina_score_min>  (418) 
-6.579

>  <fragmenstein_error>  (418) 
nan

>  <name>  (418) 
P70368

$$$$
P70369
     RDKit          3D

 30 33  0  0  0  0  0  0  0  0999 V2000
   -2.0329    7.5879  -24.2874 C   0  0  0  0  0  0  0  0  0  0  0  0
   -3.2970    7.0248  -23.8100 N   0  0  0  0  0  0  0  0  0  0  0  0
   -4.1005    6.3798  -24.8394 C   0  0  0  0  0  0  0  0  0  0  0  0
   -3.1915    6.3804  -22.5672 C   0  0  0  0  0  0  0  0  0  0  0  0
   -4.2767    5.7741  -21.9594 C   0  0  0  0  0  0  0  0  0  0  0  0
   -4.1496    5.2868  -20.6531 C   0  0  0  0  0  0  0  0  0  0  0  0
   -5.3910    4.7489  -20.0409 C   0  0  0  0  0  0  0  0  0  0  0  0
   -6.0389    3.9941  -20.6599 O   0  0  0  0  0  0  0  0  0  0  0  0
   -5.6203    5.3492  -18.6202 N   0  0  0  0  0  0  0  0  0  0  0  0
   -6.6109    5.0781  -17.6671 C   0  0  0  0  0  0  0  0  0  0  0  0
   -6.3174    5.4155  -16.3338 C   0  0  0  0  0  0  0  0  0  0  0  0
   -7.2415    5.2240  -15.2879 C   0  0  0  0  0  0  0  0  0  0  0  0
   -7.0156    5.6937  -13.8523 C   0  0  0  0  0  0  0  0  0  0  0  0
   -6.9771    4.4887  -12.9015 C   0  0  0  0  0  0  0  0  0  0  0  0
   -8.1250    6.6657  -13.3962 C   0  0  0  0  0  0  0  0  0  0  0  0
   -5.6975    6.4500  -13.7128 C   0  0  0  0  0  0  0  0  0  0  0  0
   -8.4489    4.6221  -15.6088 C   0  0  0  0  0  0  0  0  0  0  0  0
   -8.7771    4.4160  -16.9378 C   0  0  0  0  0  0  0  0  0  0  0  0
  -10.0896    4.1497  -17.2278 C   0  0  0  0  0  0  0  0  0  0  0  0
  -10.5562    4.3409  -18.4931 C   0  0  0  0  0  0  0  0  0  0  0  0
   -9.6195    4.5192  -19.4731 C   0  0  0  0  0  0  0  0  0  0  0  0
   -8.3030    4.5712  -19.2473 N   0  0  0  0  0  0  0  0  0  0  0  0
   -7.8803    4.6309  -17.9894 C   0  0  0  0  0  0  0  0  0  0  0  0
   -2.9320    5.3884  -19.9482 C   0  0  0  0  0  0  0  0  0  0  0  0
   -2.6907    4.9571  -18.6171 C   0  0  0  0  0  0  0  0  0  0  0  0
   -1.5141    5.3036  -17.9602 C   0  0  0  0  0  0  0  0  0  0  0  0
   -0.5002    5.9414  -18.6554 C   0  0  0  0  0  0  0  0  0  0  0  0
   -0.6928    6.2657  -19.9960 C   0  0  0  0  0  0  0  0  0  0  0  0
   -1.8959    6.0236  -20.6425 C   0  0  0  0  0  0  0  0  0  0  0  0
   -2.0245    6.4792  -21.8959 N   0  0  0  0  0  0  0  0  0  0  0  0
  1  2  1  0
  2  3  1  0
  2  4  1  0
  4  5  2  0
  5  6  1  0
  6  7  1  0
  7  8  2  0
  7  9  1  0
  9 10  1  0
 10 11  2  0
 11 12  1  0
 12 13  1  0
 13 14  1  0
 13 15  1  0
 13 16  1  0
 12 17  2  0
 17 18  1  0
 18 19  2  0
 19 20  1  0
 20 21  2  0
 21 22  1  0
 22 23  2  0
  6 24  2  0
 24 25  1  0
 25 26  2  0
 26 27  1  0
 27 28  2  0
 28 29  1  0
 29 30  2  0
 30  4  1  0
 23 10  1  0
 29 24  1  0
 23 18  1  0
M  END
>  <fragmenstein_outcome>  (419) 
nan

>  <exports>  (419) 
['/opt/xchem-fragalysis-2/maxwin/openbind-hippo/xx01zvns2b/cycle_01/syndirella/elabs/openbind_xx01zvns2b_c1_elab_chemspace_filtered.sdf']

>  <Energy>  (419) 
nan

>  <alias>  (419) 
None

>  <fragmenstein_runtime>  (419) 
nan

>  <scratch_subdir>  (419) 
nan

>  <HIPPO Compound ID>  (419) 
142332

>  <rmsd(smina/fragmenstein)>  (419) 
1.7

>  <distance_score>  (419) 
1.334878

>  <orig_smiles>  (419) 
nan

>  <fragmenstein_mode>  (419) 
nan

>  <inchikey>  (419) 
OCJFDGSEUYPQBF-UHFFFAOYSA-N

>  <ref_pdb>  (419) 
Z0852a

>  <GNINA pK>  (419) 
nan

>  <gnina_score_min>  (419) 
6.445

>  <tags>  (419) 
openbind_xx01zvns2b_c1_elab_nonasap_filtered_scored_top80percent,openbind_xx01zvns2b_c1_elab_chemspace_filtered_scored_top80percent,openbind_xx01zvns2b_c1_elab_chemspace_filtered_scored,openbind_xx01zvns2b_c1_elab_chemspace_filtered_scored_top40percent,openbind_xx01zvns2b_c1_elab_chemspace_filtered_scored_top20percent,openbind_xx01zvns2b_c1_elab_chemspace_filtered_scored_top60percent,openbind_xx01zvns2b_c1_elabs_filtered

>  <smiles>  (419) 
CN(C)c1cc(C(=O)Nc2cc(C(C)(C)C)cc3cccnc23)c2ccccc2n1

>  <subsites>  (419) 
1 - Z4590/B/203/1

>  <gnina_score>  (419) 
5.888

>  <HIPPO Pose ID>  (419) 
70369

>  <ref_mols>  (419) 
Z0917a,Z0852a

>  <energy_score>  (419) 
-25.965084

>  <inspiration_score>  (419) 
None

>  <smina_score_min>  (419) 
-6.42

>  <fragmenstein_error>  (419) 
nan

>  <name>  (419) 
P70369

$$$$
P70370
     RDKit          3D

 30 33  0  0  0  0  0  0  0  0999 V2000
   -3.9613    6.3579  -24.6081 C   0  0  0  0  0  0  0  0  0  0  0  0
   -3.2092    7.0607  -23.5782 N   0  0  0  0  0  0  0  0  0  0  0  0
   -1.9479    7.6441  -24.0387 C   0  0  0  0  0  0  0  0  0  0  0  0
   -3.1130    6.4365  -22.3234 C   0  0  0  0  0  0  0  0  0  0  0  0
   -4.2018    5.8340  -21.7182 C   0  0  0  0  0  0  0  0  0  0  0  0
   -4.0866    5.3680  -20.4013 C   0  0  0  0  0  0  0  0  0  0  0  0
   -5.3260    4.8194  -19.8027 C   0  0  0  0  0  0  0  0  0  0  0  0
   -5.9239    4.0286  -20.4280 O   0  0  0  0  0  0  0  0  0  0  0  0
   -5.6255    5.4363  -18.3990 N   0  0  0  0  0  0  0  0  0  0  0  0
   -6.6377    5.1425  -17.4718 C   0  0  0  0  0  0  0  0  0  0  0  0
   -6.4217    5.4710  -16.1191 C   0  0  0  0  0  0  0  0  0  0  0  0
   -7.4143    5.2354  -15.1495 C   0  0  0  0  0  0  0  0  0  0  0  0
   -7.3146    5.7380  -13.7354 C   0  0  0  0  0  0  0  0  0  0  0  0
   -6.2345    5.2582  -13.0703 F   0  0  0  0  0  0  0  0  0  0  0  0
   -7.2195    7.0982  -13.6904 F   0  0  0  0  0  0  0  0  0  0  0  0
   -8.4040    5.4356  -12.9707 F   0  0  0  0  0  0  0  0  0  0  0  0
   -8.5925    4.6205  -15.5376 C   0  0  0  0  0  0  0  0  0  0  0  0
   -8.8398    4.4297  -16.8829 C   0  0  0  0  0  0  0  0  0  0  0  0
  -10.1319    4.1580  -17.2503 C   0  0  0  0  0  0  0  0  0  0  0  0
  -10.5279    4.3542  -18.5363 C   0  0  0  0  0  0  0  0  0  0  0  0
   -9.5399    4.5217  -19.4629 C   0  0  0  0  0  0  0  0  0  0  0  0
   -8.2397    4.6125  -19.1576 N   0  0  0  0  0  0  0  0  0  0  0  0
   -7.8855    4.6739  -17.8757 C   0  0  0  0  0  0  0  0  0  0  0  0
   -2.8763    5.4744  -19.6907 C   0  0  0  0  0  0  0  0  0  0  0  0
   -2.6449    5.0425  -18.3589 C   0  0  0  0  0  0  0  0  0  0  0  0
   -1.4719    5.3888  -17.6943 C   0  0  0  0  0  0  0  0  0  0  0  0
   -0.4564    6.0325  -18.3826 C   0  0  0  0  0  0  0  0  0  0  0  0
   -0.6401    6.3559  -19.7252 C   0  0  0  0  0  0  0  0  0  0  0  0
   -1.8364    6.1074  -20.3820 C   0  0  0  0  0  0  0  0  0  0  0  0
   -1.9543    6.5509  -21.6413 N   0  0  0  0  0  0  0  0  0  0  0  0
  1  2  1  0
  2  3  1  0
  2  4  1  0
  4  5  2  0
  5  6  1  0
  6  7  1  0
  7  8  2  0
  7  9  1  0
  9 10  1  0
 10 11  2  0
 11 12  1  0
 12 13  1  0
 13 14  1  0
 13 15  1  0
 13 16  1  0
 12 17  2  0
 17 18  1  0
 18 19  2  0
 19 20  1  0
 20 21  2  0
 21 22  1  0
 22 23  2  0
  6 24  2  0
 24 25  1  0
 25 26  2  0
 26 27  1  0
 27 28  2  0
 28 29  1  0
 29 30  2  0
 30  4  1  0
 23 10  1  0
 29 24  1  0
 23 18  1  0
M  END
>  <fragmenstein_outcome>  (420) 
nan

>  <exports>  (420) 
['/opt/xchem-fragalysis-2/maxwin/openbind-hippo/xx01zvns2b/cycle_01/syndirella/elabs/openbind_xx01zvns2b_c1_elab_chemspace_filtered.sdf']

>  <Energy>  (420) 
nan

>  <alias>  (420) 
None

>  <fragmenstein_runtime>  (420) 
nan

>  <scratch_subdir>  (420) 
nan

>  <HIPPO Compound ID>  (420) 
142333

>  <rmsd(smina/fragmenstein)>  (420) 
1.68

>  <distance_score>  (420) 
1.091986

>  <orig_smiles>  (420) 
nan

>  <fragmenstein_mode>  (420) 
nan

>  <inchikey>  (420) 
MKOFSIOYJWUEEC-UHFFFAOYSA-N

>  <ref_pdb>  (420) 
Z0852a

>  <GNINA pK>  (420) 
nan

>  <gnina_score_min>  (420) 
6.097

>  <tags>  (420) 
openbind_xx01zvns2b_c1_elab_nonasap_filtered_scored_top80percent,openbind_xx01zvns2b_c1_elab_chemspace_filtered_scored_top80percent,openbind_xx01zvns2b_c1_elab_chemspace_filtered_scored,openbind_xx01zvns2b_c1_elab_chemspace_filtered_scored_top40percent,openbind_xx01zvns2b_c1_elab_chemspace_filtered_scored_top20percent,openbind_xx01zvns2b_c1_elab_chemspace_filtered_scored_top60percent,openbind_xx01zvns2b_c1_elabs_filtered

>  <smiles>  (420) 
CN(C)c1cc(C(=O)Nc2cc(C(F)(F)F)cc3cccnc23)c2ccccc2n1

>  <subsites>  (420) 
1 - Z4590/B/203/1

>  <gnina_score>  (420) 
5.607

>  <HIPPO Pose ID>  (420) 
70370

>  <ref_mols>  (420) 
Z0917a,Z0852a

>  <energy_score>  (420) 
-26.777247

>  <inspiration_score>  (420) 
None

>  <smina_score_min>  (420) 
-6.591

>  <fragmenstein_error>  (420) 
nan

>  <name>  (420) 
P70370

$$$$
P70371
     RDKit          3D

 30 33  0  0  0  0  0  0  0  0999 V2000
   -6.2157    4.8115  -11.5958 C   0  0  0  0  0  0  0  0  0  0  0  0
   -6.7577    4.7290  -12.9139 O   0  0  0  0  0  0  0  0  0  0  0  0
   -5.8535    4.9454  -13.9003 C   0  0  0  0  0  0  0  0  0  0  0  0
   -4.6721    5.2120  -13.7424 O   0  0  0  0  0  0  0  0  0  0  0  0
   -6.4963    4.8416  -15.2360 C   0  0  0  0  0  0  0  0  0  0  0  0
   -5.7365    5.1526  -16.3649 C   0  0  0  0  0  0  0  0  0  0  0  0
   -6.2713    5.0199  -17.6551 C   0  0  0  0  0  0  0  0  0  0  0  0
   -5.4007    5.3092  -18.7083 N   0  0  0  0  0  0  0  0  0  0  0  0
   -5.3400    4.7394  -20.1535 C   0  0  0  0  0  0  0  0  0  0  0  0
   -6.0565    3.9980  -20.7074 O   0  0  0  0  0  0  0  0  0  0  0  0
   -4.1760    5.2927  -20.8889 C   0  0  0  0  0  0  0  0  0  0  0  0
   -4.4633    5.8108  -22.1561 C   0  0  0  0  0  0  0  0  0  0  0  0
   -3.4623    6.4241  -22.8850 C   0  0  0  0  0  0  0  0  0  0  0  0
   -3.7179    7.0961  -24.0877 N   0  0  0  0  0  0  0  0  0  0  0  0
   -2.5170    7.6179  -24.7410 C   0  0  0  0  0  0  0  0  0  0  0  0
   -4.7298    6.5705  -24.9947 C   0  0  0  0  0  0  0  0  0  0  0  0
   -2.2182    6.4972  -22.3665 N   0  0  0  0  0  0  0  0  0  0  0  0
   -1.9359    6.0214  -21.1466 C   0  0  0  0  0  0  0  0  0  0  0  0
   -0.6561    6.2467  -20.6648 C   0  0  0  0  0  0  0  0  0  0  0  0
   -0.2924    5.9063  -19.3666 C   0  0  0  0  0  0  0  0  0  0  0  0
   -1.2147    5.2737  -18.5513 C   0  0  0  0  0  0  0  0  0  0  0  0
   -2.4727    4.9410  -19.0474 C   0  0  0  0  0  0  0  0  0  0  0  0
   -2.8806    5.3827  -20.3341 C   0  0  0  0  0  0  0  0  0  0  0  0
   -7.6082    4.6720  -17.8395 C   0  0  0  0  0  0  0  0  0  0  0  0
   -8.1868    4.7034  -19.0426 N   0  0  0  0  0  0  0  0  0  0  0  0
   -9.5119    4.5261  -19.1454 C   0  0  0  0  0  0  0  0  0  0  0  0
  -10.3201    4.2364  -18.0772 C   0  0  0  0  0  0  0  0  0  0  0  0
   -9.7153    4.1333  -16.8420 C   0  0  0  0  0  0  0  0  0  0  0  0
   -8.3685    4.4034  -16.6908 C   0  0  0  0  0  0  0  0  0  0  0  0
   -7.8200    4.4488  -15.4051 C   0  0  0  0  0  0  0  0  0  0  0  0
  1  2  1  0
  2  3  1  0
  3  4  2  0
  3  5  1  0
  5  6  2  0
  6  7  1  0
  7  8  1  0
  8  9  1  0
  9 10  2  0
  9 11  1  0
 11 12  2  0
 12 13  1  0
 13 14  1  0
 14 15  1  0
 14 16  1  0
 13 17  2  0
 17 18  1  0
 18 19  2  0
 19 20  1  0
 20 21  2  0
 21 22  1  0
 22 23  2  0
  7 24  2  0
 24 25  1  0
 25 26  2  0
 26 27  1  0
 27 28  2  0
 28 29  1  0
 29 30  2  0
 30  5  1  0
 23 11  1  0
 29 24  1  0
 23 18  1  0
M  END
>  <fragmenstein_outcome>  (421) 
nan

>  <exports>  (421) 
['/opt/xchem-fragalysis-2/maxwin/openbind-hippo/xx01zvns2b/cycle_01/syndirella/elabs/openbind_xx01zvns2b_c1_elab_chemspace_filtered.sdf']

>  <Energy>  (421) 
nan

>  <alias>  (421) 
None

>  <fragmenstein_runtime>  (421) 
nan

>  <scratch_subdir>  (421) 
nan

>  <HIPPO Compound ID>  (421) 
142334

>  <rmsd(smina/fragmenstein)>  (421) 
1.339

>  <distance_score>  (421) 
1.551648

>  <orig_smiles>  (421) 
nan

>  <fragmenstein_mode>  (421) 
nan

>  <inchikey>  (421) 
FGBDJYKNMSSMIE-UHFFFAOYSA-N

>  <ref_pdb>  (421) 
Z0852a

>  <GNINA pK>  (421) 
nan

>  <gnina_score_min>  (421) 
6.081

>  <tags>  (421) 
openbind_xx01zvns2b_c1_elab_nonasap_filtered_scored_top80percent,openbind_xx01zvns2b_c1_elab_chemspace_filtered_scored_top80percent,openbind_xx01zvns2b_c1_elab_chemspace_filtered_scored,openbind_xx01zvns2b_c1_elab_chemspace_filtered_scored_top40percent,openbind_xx01zvns2b_c1_elab_chemspace_filtered_scored_top20percent,openbind_xx01zvns2b_c1_elab_chemspace_filtered_scored_top60percent,openbind_xx01zvns2b_c1_elabs_filtered

>  <smiles>  (421) 
COC(=O)c1cc(NC(=O)c2cc(N(C)C)nc3ccccc23)c2ncccc2c1

>  <subsites>  (421) 
1 - Z4590/B/203/1

>  <gnina_score>  (421) 
6.042

>  <HIPPO Pose ID>  (421) 
70371

>  <ref_mols>  (421) 
Z0917a,Z0852a

>  <energy_score>  (421) 
-12.908928

>  <inspiration_score>  (421) 
None

>  <smina_score_min>  (421) 
-6.615

>  <fragmenstein_error>  (421) 
nan

>  <name>  (421) 
P70371

$$$$
P70372
     RDKit          3D

 30 33  0  0  0  0  0  0  0  0999 V2000
   -6.4447    5.1688  -11.5250 C   0  0  0  0  0  0  0  0  0  0  0  0
   -6.9206    5.0153  -12.8625 O   0  0  0  0  0  0  0  0  0  0  0  0
   -5.9625    5.1521  -13.8120 C   0  0  0  0  0  0  0  0  0  0  0  0
   -4.7824    5.3897  -13.6087 O   0  0  0  0  0  0  0  0  0  0  0  0
   -6.5448    5.0002  -15.1704 C   0  0  0  0  0  0  0  0  0  0  0  0
   -5.7467    5.2988  -16.2767 C   0  0  0  0  0  0  0  0  0  0  0  0
   -6.2237    5.1276  -17.5872 C   0  0  0  0  0  0  0  0  0  0  0  0
   -5.2871    5.3817  -18.5991 N   0  0  0  0  0  0  0  0  0  0  0  0
   -5.1909    4.8265  -20.0488 C   0  0  0  0  0  0  0  0  0  0  0  0
   -5.9203    4.1333  -20.6450 O   0  0  0  0  0  0  0  0  0  0  0  0
   -3.9022    5.2409  -20.6761 C   0  0  0  0  0  0  0  0  0  0  0  0
   -2.6919    4.9629  -20.0146 C   0  0  0  0  0  0  0  0  0  0  0  0
   -2.6097    4.2250  -18.7123 C   0  0  0  0  0  0  0  0  0  0  0  0
   -1.5388    5.3923  -20.6602 C   0  0  0  0  0  0  0  0  0  0  0  0
   -0.1875    5.3527  -20.0356 C   0  0  0  0  0  0  0  0  0  0  0  0
    0.0025    5.2615  -18.8278 O   0  0  0  0  0  0  0  0  0  0  0  0
   -1.5209    5.9629  -21.8886 N   0  0  0  0  0  0  0  0  0  0  0  0
   -2.6786    6.1804  -22.5184 C   0  0  0  0  0  0  0  0  0  0  0  0
   -2.6305    6.7785  -23.7720 C   0  0  0  0  0  0  0  0  0  0  0  0
   -3.7866    7.0945  -24.4867 C   0  0  0  0  0  0  0  0  0  0  0  0
   -5.0242    6.8131  -23.9340 C   0  0  0  0  0  0  0  0  0  0  0  0
   -5.0870    6.2076  -22.6799 C   0  0  0  0  0  0  0  0  0  0  0  0
   -3.9224    5.8653  -21.9516 C   0  0  0  0  0  0  0  0  0  0  0  0
   -7.5460    4.7370  -17.8120 C   0  0  0  0  0  0  0  0  0  0  0  0
   -8.0844    4.7052  -19.0338 N   0  0  0  0  0  0  0  0  0  0  0  0
   -9.4002    4.4744  -19.1732 C   0  0  0  0  0  0  0  0  0  0  0  0
  -10.2388    4.2023  -18.1231 C   0  0  0  0  0  0  0  0  0  0  0  0
   -9.6757    4.1563  -16.8672 C   0  0  0  0  0  0  0  0  0  0  0  0
   -8.3432    4.4736  -16.6829 C   0  0  0  0  0  0  0  0  0  0  0  0
   -7.8487    4.5670  -15.3799 C   0  0  0  0  0  0  0  0  0  0  0  0
  1  2  1  0
  2  3  1  0
  3  4  2  0
  3  5  1  0
  5  6  2  0
  6  7  1  0
  7  8  1  0
  8  9  1  0
  9 10  2  0
  9 11  1  0
 11 12  2  0
 12 13  1  0
 12 14  1  0
 14 15  1  0
 15 16  2  0
 14 17  2  0
 17 18  1  0
 18 19  2  0
 19 20  1  0
 20 21  2  0
 21 22  1  0
 22 23  2  0
  7 24  2  0
 24 25  1  0
 25 26  2  0
 26 27  1  0
 27 28  2  0
 28 29  1  0
 29 30  2  0
 30  5  1  0
 23 11  1  0
 29 24  1  0
 23 18  1  0
M  END
>  <fragmenstein_outcome>  (422) 
nan

>  <exports>  (422) 
['/opt/xchem-fragalysis-2/maxwin/openbind-hippo/xx01zvns2b/cycle_01/syndirella/elabs/openbind_xx01zvns2b_c1_elab_chemspace_filtered.sdf']

>  <Energy>  (422) 
nan

>  <alias>  (422) 
None

>  <fragmenstein_runtime>  (422) 
nan

>  <scratch_subdir>  (422) 
nan

>  <HIPPO Compound ID>  (422) 
142335

>  <rmsd(smina/fragmenstein)>  (422) 
1.226

>  <distance_score>  (422) 
1.538846

>  <orig_smiles>  (422) 
nan

>  <fragmenstein_mode>  (422) 
nan

>  <inchikey>  (422) 
QFODDMKRGFZDDZ-UHFFFAOYSA-N

>  <ref_pdb>  (422) 
Z0852a

>  <GNINA pK>  (422) 
nan

>  <gnina_score_min>  (422) 
6.032

>  <tags>  (422) 
openbind_xx01zvns2b_c1_elab_nonasap_filtered_scored_top80percent,openbind_xx01zvns2b_c1_elab_chemspace_filtered_scored_top80percent,openbind_xx01zvns2b_c1_elab_chemspace_filtered_scored,openbind_xx01zvns2b_c1_elab_chemspace_filtered_scored_top40percent,openbind_xx01zvns2b_c1_elab_chemspace_filtered_scored_top20percent,openbind_xx01zvns2b_c1_elab_chemspace_filtered_scored_top60percent,openbind_xx01zvns2b_c1_elabs_filtered

>  <smiles>  (422) 
COC(=O)c1cc(NC(=O)c2c(C)c(C=O)nc3ccccc23)c2ncccc2c1

>  <subsites>  (422) 
1 - Z4590/B/203/1

>  <gnina_score>  (422) 
5.938

>  <HIPPO Pose ID>  (422) 
70372

>  <ref_mols>  (422) 
Z0917a,Z0852a

>  <energy_score>  (422) 
-24.39101

>  <inspiration_score>  (422) 
None

>  <smina_score_min>  (422) 
-6.1

>  <fragmenstein_error>  (422) 
nan

>  <name>  (422) 
P70372

$$$$
P70373
     RDKit          3D

 30 33  0  0  0  0  0  0  0  0999 V2000
   -2.1043    7.8141  -25.8983 C   0  0  0  0  0  0  0  0  0  0  0  0
   -3.4045    7.6161  -25.3561 O   0  0  0  0  0  0  0  0  0  0  0  0
   -3.4762    7.0127  -24.1316 C   0  0  0  0  0  0  0  0  0  0  0  0
   -4.7646    6.7851  -23.6666 C   0  0  0  0  0  0  0  0  0  0  0  0
   -4.9595    6.1702  -22.4310 C   0  0  0  0  0  0  0  0  0  0  0  0
   -3.8698    5.7680  -21.6271 C   0  0  0  0  0  0  0  0  0  0  0  0
   -3.9748    5.1450  -20.3570 C   0  0  0  0  0  0  0  0  0  0  0  0
   -5.2902    4.7335  -19.8216 C   0  0  0  0  0  0  0  0  0  0  0  0
   -5.9838    4.0887  -20.5117 O   0  0  0  0  0  0  0  0  0  0  0  0
   -5.4708    5.1753  -18.3322 N   0  0  0  0  0  0  0  0  0  0  0  0
   -6.5556    4.9964  -17.4500 C   0  0  0  0  0  0  0  0  0  0  0  0
   -6.3516    5.3134  -16.0906 C   0  0  0  0  0  0  0  0  0  0  0  0
   -7.3847    5.1670  -15.1448 C   0  0  0  0  0  0  0  0  0  0  0  0
   -7.2915    5.6828  -13.7338 C   0  0  0  0  0  0  0  0  0  0  0  0
   -6.2075    5.2209  -13.0633 F   0  0  0  0  0  0  0  0  0  0  0  0
   -7.2122    7.0444  -13.7018 F   0  0  0  0  0  0  0  0  0  0  0  0
   -8.3788    5.3750  -12.9685 F   0  0  0  0  0  0  0  0  0  0  0  0
   -8.5940    4.6344  -15.5563 C   0  0  0  0  0  0  0  0  0  0  0  0
   -8.8209    4.4398  -16.9036 C   0  0  0  0  0  0  0  0  0  0  0  0
  -10.1167    4.2124  -17.2919 C   0  0  0  0  0  0  0  0  0  0  0  0
  -10.4778    4.3904  -18.5891 C   0  0  0  0  0  0  0  0  0  0  0  0
   -9.4635    4.4856  -19.4954 C   0  0  0  0  0  0  0  0  0  0  0  0
   -8.1664    4.5381  -19.1629 N   0  0  0  0  0  0  0  0  0  0  0  0
   -7.8304    4.6183  -17.8777 C   0  0  0  0  0  0  0  0  0  0  0  0
   -2.8366    4.8048  -19.6325 C   0  0  0  0  0  0  0  0  0  0  0  0
   -2.8704    4.1896  -18.4135 O   0  0  0  0  0  0  0  0  0  0  0  0
   -1.6166    5.0992  -20.1960 C   0  0  0  0  0  0  0  0  0  0  0  0
   -1.4735    5.7027  -21.3974 N   0  0  0  0  0  0  0  0  0  0  0  0
   -2.5705    6.0173  -22.1011 C   0  0  0  0  0  0  0  0  0  0  0  0
   -2.3953    6.6271  -23.3389 C   0  0  0  0  0  0  0  0  0  0  0  0
  1  2  1  0
  2  3  1  0
  3  4  2  0
  4  5  1  0
  5  6  2  0
  6  7  1  0
  7  8  1  0
  8  9  2  0
  8 10  1  0
 10 11  1  0
 11 12  2  0
 12 13  1  0
 13 14  1  0
 14 15  1  0
 14 16  1  0
 14 17  1  0
 13 18  2  0
 18 19  1  0
 19 20  2  0
 20 21  1  0
 21 22  2  0
 22 23  1  0
 23 24  2  0
  7 25  2  0
 25 26  1  0
 25 27  1  0
 27 28  2  0
 28 29  1  0
 29 30  2  0
 30  3  1  0
 29  6  1  0
 24 11  1  0
 24 19  1  0
M  END
>  <fragmenstein_outcome>  (423) 
nan

>  <exports>  (423) 
['/opt/xchem-fragalysis-2/maxwin/openbind-hippo/xx01zvns2b/cycle_01/syndirella/elabs/openbind_xx01zvns2b_c1_elab_chemspace_filtered.sdf']

>  <Energy>  (423) 
nan

>  <alias>  (423) 
None

>  <fragmenstein_runtime>  (423) 
nan

>  <scratch_subdir>  (423) 
nan

>  <HIPPO Compound ID>  (423) 
142336

>  <rmsd(smina/fragmenstein)>  (423) 
1.278

>  <distance_score>  (423) 
0.95043

>  <orig_smiles>  (423) 
nan

>  <fragmenstein_mode>  (423) 
nan

>  <inchikey>  (423) 
NBUQKIPHILZILE-UHFFFAOYSA-N

>  <ref_pdb>  (423) 
Z0852a

>  <GNINA pK>  (423) 
nan

>  <gnina_score_min>  (423) 
5.799

>  <tags>  (423) 
openbind_xx01zvns2b_c1_elab_nonasap_filtered_scored_top80percent,openbind_xx01zvns2b_c1_elab_chemspace_filtered_scored_top80percent,openbind_xx01zvns2b_c1_elab_chemspace_filtered_scored,openbind_xx01zvns2b_c1_elab_chemspace_filtered_scored_top40percent,openbind_xx01zvns2b_c1_elab_chemspace_filtered_scored_top20percent,openbind_xx01zvns2b_c1_elab_chemspace_filtered_scored_top60percent,openbind_xx01zvns2b_c1_elabs_filtered

>  <smiles>  (423) 
COc1ccc2c(C(=O)Nc3cc(C(F)(F)F)cc4cccnc34)c(O)cnc2c1

>  <subsites>  (423) 
1 - Z4590/B/203/1

>  <gnina_score>  (423) 
5.286

>  <HIPPO Pose ID>  (423) 
70373

>  <ref_mols>  (423) 
Z0917a,Z0852a

>  <energy_score>  (423) 
-18.400078

>  <inspiration_score>  (423) 
None

>  <smina_score_min>  (423) 
-6.914

>  <fragmenstein_error>  (423) 
nan

>  <name>  (423) 
P70373

$$$$
P70374
     RDKit          3D

 30 33  0  0  0  0  0  0  0  0999 V2000
   -3.1401    6.3709  -23.9439 C   0  0  0  0  0  0  0  0  0  0  0  0
   -3.1076    6.0156  -22.4895 C   0  0  0  0  0  0  0  0  0  0  0  0
   -4.2263    5.5265  -21.8592 C   0  0  0  0  0  0  0  0  0  0  0  0
   -4.1277    5.1843  -20.5106 C   0  0  0  0  0  0  0  0  0  0  0  0
   -5.3877    4.6695  -19.9137 C   0  0  0  0  0  0  0  0  0  0  0  0
   -6.0046    3.9025  -20.5492 O   0  0  0  0  0  0  0  0  0  0  0  0
   -5.6634    5.2618  -18.5005 N   0  0  0  0  0  0  0  0  0  0  0  0
   -6.6705    4.9690  -17.5727 C   0  0  0  0  0  0  0  0  0  0  0  0
   -6.4098    5.2165  -16.2150 C   0  0  0  0  0  0  0  0  0  0  0  0
   -7.3888    5.0078  -15.2207 C   0  0  0  0  0  0  0  0  0  0  0  0
   -7.1862    5.4683  -13.7782 C   0  0  0  0  0  0  0  0  0  0  0  0
   -8.4166    5.2846  -12.8599 C   0  0  0  0  0  0  0  0  0  0  0  0
   -6.8903    6.9706  -13.8170 C   0  0  0  0  0  0  0  0  0  0  0  0
   -6.0140    4.7180  -13.1403 C   0  0  0  0  0  0  0  0  0  0  0  0
   -8.6046    4.4801  -15.6211 C   0  0  0  0  0  0  0  0  0  0  0  0
   -8.8899    4.3554  -16.9681 C   0  0  0  0  0  0  0  0  0  0  0  0
  -10.2017    4.1647  -17.3220 C   0  0  0  0  0  0  0  0  0  0  0  0
  -10.6070    4.4282  -18.5914 C   0  0  0  0  0  0  0  0  0  0  0  0
   -9.6240    4.5749  -19.5255 C   0  0  0  0  0  0  0  0  0  0  0  0
   -8.3164    4.5780  -19.2448 N   0  0  0  0  0  0  0  0  0  0  0  0
   -7.9430    4.5818  -17.9679 C   0  0  0  0  0  0  0  0  0  0  0  0
   -2.9051    5.3229  -19.8100 C   0  0  0  0  0  0  0  0  0  0  0  0
   -2.6928    4.9583  -18.4611 C   0  0  0  0  0  0  0  0  0  0  0  0
   -1.5325    5.3316  -17.7942 C   0  0  0  0  0  0  0  0  0  0  0  0
   -0.4808    5.9284  -18.4848 C   0  0  0  0  0  0  0  0  0  0  0  0
    0.7821    6.2638  -17.7407 C   0  0  0  0  0  0  0  0  0  0  0  0
   -0.6136    6.1388  -19.8738 C   0  0  0  0  0  0  0  0  0  0  0  0
    0.5350    6.7177  -20.6696 C   0  0  0  0  0  0  0  0  0  0  0  0
   -1.8303    5.8810  -20.5308 C   0  0  0  0  0  0  0  0  0  0  0  0
   -1.9445    6.2015  -21.8343 N   0  0  0  0  0  0  0  0  0  0  0  0
  1  2  1  0
  2  3  2  0
  3  4  1  0
  4  5  1  0
  5  6  2  0
  5  7  1  0
  7  8  1  0
  8  9  2  0
  9 10  1  0
 10 11  1  0
 11 12  1  0
 11 13  1  0
 11 14  1  0
 10 15  2  0
 15 16  1  0
 16 17  2  0
 17 18  1  0
 18 19  2  0
 19 20  1  0
 20 21  2  0
  4 22  2  0
 22 23  1  0
 23 24  2  0
 24 25  1  0
 25 26  1  0
 25 27  2  0
 27 28  1  0
 27 29  1  0
 29 30  2  0
 30  2  1  0
 21  8  1  0
 29 22  1  0
 21 16  1  0
M  END
>  <fragmenstein_outcome>  (424) 
nan

>  <exports>  (424) 
['/opt/xchem-fragalysis-2/maxwin/openbind-hippo/xx01zvns2b/cycle_01/syndirella/elabs/openbind_xx01zvns2b_c1_elab_chemspace_filtered.sdf']

>  <Energy>  (424) 
nan

>  <alias>  (424) 
None

>  <fragmenstein_runtime>  (424) 
nan

>  <scratch_subdir>  (424) 
nan

>  <HIPPO Compound ID>  (424) 
142337

>  <rmsd(smina/fragmenstein)>  (424) 
1.183

>  <distance_score>  (424) 
1.325409

>  <orig_smiles>  (424) 
nan

>  <fragmenstein_mode>  (424) 
nan

>  <inchikey>  (424) 
ZIOQWXCWCHJFNY-UHFFFAOYSA-N

>  <ref_pdb>  (424) 
Z0852a

>  <GNINA pK>  (424) 
nan

>  <gnina_score_min>  (424) 
6.574

>  <tags>  (424) 
openbind_xx01zvns2b_c1_elab_nonasap_filtered_scored_top80percent,openbind_xx01zvns2b_c1_elab_chemspace_filtered_scored_top80percent,openbind_xx01zvns2b_c1_elab_chemspace_filtered_scored,openbind_xx01zvns2b_c1_elab_chemspace_filtered_scored_top40percent,openbind_xx01zvns2b_c1_elab_chemspace_filtered_scored_top20percent,openbind_xx01zvns2b_c1_elab_chemspace_filtered_scored_top60percent,openbind_xx01zvns2b_c1_elabs_filtered

>  <smiles>  (424) 
Cc1cc(C(=O)Nc2cc(C(C)(C)C)cc3cccnc23)c2ccc(C)c(C)c2n1

>  <subsites>  (424) 
1 - Z4590/B/203/1

>  <gnina_score>  (424) 
6.117

>  <HIPPO Pose ID>  (424) 
70374

>  <ref_mols>  (424) 
Z0917a,Z0852a

>  <energy_score>  (424) 
-17.302773

>  <inspiration_score>  (424) 
None

>  <smina_score_min>  (424) 
-6.963

>  <fragmenstein_error>  (424) 
nan

>  <name>  (424) 
P70374

$$$$
P70375
     RDKit          3D

 30 33  0  0  0  0  0  0  0  0999 V2000
   -1.4250    4.7044  -24.7565 C   0  0  0  0  0  0  0  0  0  0  0  0
   -1.7704    6.1793  -24.6074 C   0  0  0  0  0  0  0  0  0  0  0  0
   -3.0682    6.4185  -23.8274 C   0  0  0  0  0  0  0  0  0  0  0  0
   -3.0138    6.0238  -22.3721 C   0  0  0  0  0  0  0  0  0  0  0  0
   -4.1338    5.5349  -21.7331 C   0  0  0  0  0  0  0  0  0  0  0  0
   -4.0503    5.2293  -20.3699 C   0  0  0  0  0  0  0  0  0  0  0  0
   -5.3097    4.7282  -19.7617 C   0  0  0  0  0  0  0  0  0  0  0  0
   -5.9486    3.9850  -20.4044 O   0  0  0  0  0  0  0  0  0  0  0  0
   -5.5866    5.3444  -18.3552 N   0  0  0  0  0  0  0  0  0  0  0  0
   -6.6259    5.1042  -17.4446 C   0  0  0  0  0  0  0  0  0  0  0  0
   -6.4207    5.4468  -16.0945 C   0  0  0  0  0  0  0  0  0  0  0  0
   -7.4261    5.2329  -15.1340 C   0  0  0  0  0  0  0  0  0  0  0  0
   -7.3295    5.7392  -13.7211 C   0  0  0  0  0  0  0  0  0  0  0  0
   -7.2361    7.0996  -13.6802 F   0  0  0  0  0  0  0  0  0  0  0  0
   -6.2502    5.2624  -13.0530 F   0  0  0  0  0  0  0  0  0  0  0  0
   -8.4202    5.4371  -12.9585 F   0  0  0  0  0  0  0  0  0  0  0  0
   -8.6091    4.6308  -15.5292 C   0  0  0  0  0  0  0  0  0  0  0  0
   -8.8460    4.4315  -16.8754 C   0  0  0  0  0  0  0  0  0  0  0  0
  -10.1364    4.1677  -17.2554 C   0  0  0  0  0  0  0  0  0  0  0  0
  -10.5182    4.3601  -18.5460 C   0  0  0  0  0  0  0  0  0  0  0  0
   -9.5199    4.5115  -19.4635 C   0  0  0  0  0  0  0  0  0  0  0  0
   -8.2223    4.5927  -19.1445 N   0  0  0  0  0  0  0  0  0  0  0  0
   -7.8784    4.6558  -17.8593 C   0  0  0  0  0  0  0  0  0  0  0  0
   -2.8409    5.4016  -19.6611 C   0  0  0  0  0  0  0  0  0  0  0  0
   -2.6132    5.0740  -18.2987 C   0  0  0  0  0  0  0  0  0  0  0  0
   -1.4356    5.4525  -17.6576 C   0  0  0  0  0  0  0  0  0  0  0  0
   -0.4177    6.0459  -18.3861 C   0  0  0  0  0  0  0  0  0  0  0  0
   -0.5941    6.2695  -19.7501 C   0  0  0  0  0  0  0  0  0  0  0  0
   -1.7836    5.9673  -20.3963 C   0  0  0  0  0  0  0  0  0  0  0  0
   -1.8705    6.2702  -21.7000 N   0  0  0  0  0  0  0  0  0  0  0  0
  1  2  1  0
  2  3  1  0
  3  4  1  0
  4  5  2  0
  5  6  1  0
  6  7  1  0
  7  8  2  0
  7  9  1  0
  9 10  1  0
 10 11  2  0
 11 12  1  0
 12 13  1  0
 13 14  1  0
 13 15  1  0
 13 16  1  0
 12 17  2  0
 17 18  1  0
 18 19  2  0
 19 20  1  0
 20 21  2  0
 21 22  1  0
 22 23  2  0
  6 24  2  0
 24 25  1  0
 25 26  2  0
 26 27  1  0
 27 28  2  0
 28 29  1  0
 29 30  2  0
 30  4  1  0
 23 10  1  0
 29 24  1  0
 23 18  1  0
M  END
>  <fragmenstein_outcome>  (425) 
nan

>  <exports>  (425) 
['/opt/xchem-fragalysis-2/maxwin/openbind-hippo/xx01zvns2b/cycle_01/syndirella/elabs/openbind_xx01zvns2b_c1_elab_chemspace_filtered.sdf']

>  <Energy>  (425) 
nan

>  <alias>  (425) 
None

>  <fragmenstein_runtime>  (425) 
nan

>  <scratch_subdir>  (425) 
nan

>  <HIPPO Compound ID>  (425) 
142339

>  <rmsd(smina/fragmenstein)>  (425) 
1.177

>  <distance_score>  (425) 
1.066181

>  <orig_smiles>  (425) 
nan

>  <fragmenstein_mode>  (425) 
nan

>  <inchikey>  (425) 
JNJYQYWTPWWCOP-UHFFFAOYSA-N

>  <ref_pdb>  (425) 
Z0852a

>  <GNINA pK>  (425) 
nan

>  <gnina_score_min>  (425) 
6.174

>  <tags>  (425) 
openbind_xx01zvns2b_c1_elab_nonasap_filtered_scored_top80percent,openbind_xx01zvns2b_c1_elab_chemspace_filtered_scored_top80percent,openbind_xx01zvns2b_c1_elab_chemspace_filtered_scored,openbind_xx01zvns2b_c1_elab_chemspace_filtered_scored_top40percent,openbind_xx01zvns2b_c1_elab_chemspace_filtered_scored_top20percent,openbind_xx01zvns2b_c1_elab_chemspace_filtered_scored_top60percent,openbind_xx01zvns2b_c1_elabs_filtered

>  <smiles>  (425) 
CCCc1cc(C(=O)Nc2cc(C(F)(F)F)cc3cccnc23)c2ccccc2n1

>  <subsites>  (425) 
1 - Z4590/B/203/1

>  <gnina_score>  (425) 
5.93

>  <HIPPO Pose ID>  (425) 
70375

>  <ref_mols>  (425) 
Z0917a,Z0852a

>  <energy_score>  (425) 
-14.146401

>  <inspiration_score>  (425) 
None

>  <smina_score_min>  (425) 
-6.376

>  <fragmenstein_error>  (425) 
nan

>  <name>  (425) 
P70375

$$$$
P70376
     RDKit          3D

 30 33  0  0  0  0  0  0  0  0999 V2000
   -1.9550    4.8648  -25.3800 C   0  0  0  0  0  0  0  0  0  0  0  0
   -2.2341    6.3420  -25.1414 C   0  0  0  0  0  0  0  0  0  0  0  0
   -3.4338    6.5882  -24.2197 C   0  0  0  0  0  0  0  0  0  0  0  0
   -3.2446    6.1212  -22.7968 C   0  0  0  0  0  0  0  0  0  0  0  0
   -4.3118    5.6304  -22.0748 C   0  0  0  0  0  0  0  0  0  0  0  0
   -4.0993    5.2544  -20.7486 C   0  0  0  0  0  0  0  0  0  0  0  0
   -5.3063    4.7591  -20.0393 C   0  0  0  0  0  0  0  0  0  0  0  0
   -5.9849    3.9785  -20.5865 O   0  0  0  0  0  0  0  0  0  0  0  0
   -5.4181    5.3664  -18.6144 N   0  0  0  0  0  0  0  0  0  0  0  0
   -6.3013    5.0774  -17.5725 C   0  0  0  0  0  0  0  0  0  0  0  0
   -5.7841    5.1843  -16.2729 C   0  0  0  0  0  0  0  0  0  0  0  0
   -6.5568    4.8358  -15.1642 C   0  0  0  0  0  0  0  0  0  0  0  0
   -5.9321    4.8938  -13.8170 C   0  0  0  0  0  0  0  0  0  0  0  0
   -4.7545    5.1623  -13.6344 O   0  0  0  0  0  0  0  0  0  0  0  0
   -6.8486    4.6312  -12.8551 O   0  0  0  0  0  0  0  0  0  0  0  0
   -6.3209    4.5995  -11.5293 C   0  0  0  0  0  0  0  0  0  0  0  0
   -7.8740    4.4356  -15.3637 C   0  0  0  0  0  0  0  0  0  0  0  0
   -8.4031    4.4151  -16.6581 C   0  0  0  0  0  0  0  0  0  0  0  0
   -9.7413    4.1254  -16.8378 C   0  0  0  0  0  0  0  0  0  0  0  0
  -10.3278    4.2344  -18.0811 C   0  0  0  0  0  0  0  0  0  0  0  0
   -9.5077    4.5525  -19.1316 C   0  0  0  0  0  0  0  0  0  0  0  0
   -8.1892    4.7618  -19.0022 N   0  0  0  0  0  0  0  0  0  0  0  0
   -7.6309    4.7193  -17.7878 C   0  0  0  0  0  0  0  0  0  0  0  0
   -2.8207    5.3731  -20.1488 C   0  0  0  0  0  0  0  0  0  0  0  0
   -2.4673    4.9982  -18.8249 C   0  0  0  0  0  0  0  0  0  0  0  0
   -1.2339    5.3573  -18.2861 C   0  0  0  0  0  0  0  0  0  0  0  0
   -0.2766    5.9526  -19.0894 C   0  0  0  0  0  0  0  0  0  0  0  0
   -0.5747    6.2121  -20.4237 C   0  0  0  0  0  0  0  0  0  0  0  0
   -1.8263    5.9488  -20.9586 C   0  0  0  0  0  0  0  0  0  0  0  0
   -2.0320    6.3053  -22.2341 N   0  0  0  0  0  0  0  0  0  0  0  0
  1  2  1  0
  2  3  1  0
  3  4  1  0
  4  5  2  0
  5  6  1  0
  6  7  1  0
  7  8  2  0
  7  9  1  0
  9 10  1  0
 10 11  2  0
 11 12  1  0
 12 13  1  0
 13 14  2  0
 13 15  1  0
 15 16  1  0
 12 17  2  0
 17 18  1  0
 18 19  2  0
 19 20  1  0
 20 21  2  0
 21 22  1  0
 22 23  2  0
  6 24  2  0
 24 25  1  0
 25 26  2  0
 26 27  1  0
 27 28  2  0
 28 29  1  0
 29 30  2  0
 30  4  1  0
 23 10  1  0
 29 24  1  0
 23 18  1  0
M  END
>  <fragmenstein_outcome>  (426) 
nan

>  <exports>  (426) 
['/opt/xchem-fragalysis-2/maxwin/openbind-hippo/xx01zvns2b/cycle_01/syndirella/elabs/openbind_xx01zvns2b_c1_elab_chemspace_filtered.sdf']

>  <Energy>  (426) 
nan

>  <alias>  (426) 
None

>  <fragmenstein_runtime>  (426) 
nan

>  <scratch_subdir>  (426) 
nan

>  <HIPPO Compound ID>  (426) 
142340

>  <rmsd(smina/fragmenstein)>  (426) 
1.684

>  <distance_score>  (426) 
1.623096

>  <orig_smiles>  (426) 
nan

>  <fragmenstein_mode>  (426) 
nan

>  <inchikey>  (426) 
QHXTUZYCQJZXAO-UHFFFAOYSA-N

>  <ref_pdb>  (426) 
Z0852a

>  <GNINA pK>  (426) 
nan

>  <gnina_score_min>  (426) 
6.226

>  <tags>  (426) 
openbind_xx01zvns2b_c1_elab_nonasap_filtered_scored_top80percent,openbind_xx01zvns2b_c1_elab_chemspace_filtered_scored_top80percent,openbind_xx01zvns2b_c1_elab_chemspace_filtered_scored,openbind_xx01zvns2b_c1_elab_chemspace_filtered_scored_top40percent,openbind_xx01zvns2b_c1_elab_chemspace_filtered_scored_top20percent,openbind_xx01zvns2b_c1_elab_chemspace_filtered_scored_top60percent,openbind_xx01zvns2b_c1_elabs_filtered

>  <smiles>  (426) 
CCCc1cc(C(=O)Nc2cc(C(=O)OC)cc3cccnc23)c2ccccc2n1

>  <subsites>  (426) 
1 - Z4590/B/203/1

>  <gnina_score>  (426) 
6.139

>  <HIPPO Pose ID>  (426) 
70376

>  <ref_mols>  (426) 
Z0917a,Z0852a

>  <energy_score>  (426) 
-4.68147

>  <inspiration_score>  (426) 
None

>  <smina_score_min>  (426) 
-5.847

>  <fragmenstein_error>  (426) 
nan

>  <name>  (426) 
P70376

$$$$
P70377
     RDKit          3D

 30 33  0  0  0  0  0  0  0  0999 V2000
   -6.8514    5.4408  -11.4951 C   0  0  0  0  0  0  0  0  0  0  0  0
   -7.3435    5.2646  -12.8238 O   0  0  0  0  0  0  0  0  0  0  0  0
   -6.4462    5.5632  -13.7939 C   0  0  0  0  0  0  0  0  0  0  0  0
   -5.3134    5.9862  -13.6233 O   0  0  0  0  0  0  0  0  0  0  0  0
   -7.0351    5.3332  -15.1372 C   0  0  0  0  0  0  0  0  0  0  0  0
   -6.3091    5.7252  -16.2615 C   0  0  0  0  0  0  0  0  0  0  0  0
   -6.7964    5.4618  -17.5509 C   0  0  0  0  0  0  0  0  0  0  0  0
   -5.8746    5.5430  -18.5754 N   0  0  0  0  0  0  0  0  0  0  0  0
   -5.7800    4.7528  -19.9178 C   0  0  0  0  0  0  0  0  0  0  0  0
   -6.5111    3.9712  -20.3909 O   0  0  0  0  0  0  0  0  0  0  0  0
   -4.4932    5.0481  -20.5505 C   0  0  0  0  0  0  0  0  0  0  0  0
   -4.4488    5.4075  -21.8834 C   0  0  0  0  0  0  0  0  0  0  0  0
   -3.2130    5.7485  -22.3479 C   0  0  0  0  0  0  0  0  0  0  0  0
   -3.0300    6.1024  -23.6422 O   0  0  0  0  0  0  0  0  0  0  0  0
   -2.1027    5.8292  -21.6016 N   0  0  0  0  0  0  0  0  0  0  0  0
   -2.1861    5.4932  -20.2893 C   0  0  0  0  0  0  0  0  0  0  0  0
   -1.1428    5.7080  -19.4029 C   0  0  0  0  0  0  0  0  0  0  0  0
   -0.0166    6.2276  -19.8688 F   0  0  0  0  0  0  0  0  0  0  0  0
   -1.2052    5.5156  -18.0218 C   0  0  0  0  0  0  0  0  0  0  0  0
   -2.3273    4.9374  -17.4700 C   0  0  0  0  0  0  0  0  0  0  0  0
   -2.4894    4.7793  -15.9887 C   0  0  0  0  0  0  0  0  0  0  0  0
   -3.3439    4.5839  -18.3463 C   0  0  0  0  0  0  0  0  0  0  0  0
   -3.3467    5.0017  -19.7186 C   0  0  0  0  0  0  0  0  0  0  0  0
   -8.0561    4.9642  -17.7498 C   0  0  0  0  0  0  0  0  0  0  0  0
   -8.5922    4.9780  -18.9652 N   0  0  0  0  0  0  0  0  0  0  0  0
   -9.8709    4.6464  -19.1125 C   0  0  0  0  0  0  0  0  0  0  0  0
  -10.6310    4.1747  -18.0790 C   0  0  0  0  0  0  0  0  0  0  0  0
  -10.0294    4.0844  -16.8402 C   0  0  0  0  0  0  0  0  0  0  0  0
   -8.7664    4.5713  -16.6240 C   0  0  0  0  0  0  0  0  0  0  0  0
   -8.2612    4.7072  -15.3245 C   0  0  0  0  0  0  0  0  0  0  0  0
  1  2  1  0
  2  3  1  0
  3  4  2  0
  3  5  1  0
  5  6  2  0
  6  7  1  0
  7  8  1  0
  8  9  1  0
  9 10  2  0
  9 11  1  0
 11 12  2  0
 12 13  1  0
 13 14  1  0
 13 15  2  0
 15 16  1  0
 16 17  2  0
 17 18  1  0
 17 19  1  0
 19 20  2  0
 20 21  1  0
 20 22  1  0
 22 23  2  0
  7 24  2  0
 24 25  1  0
 25 26  2  0
 26 27  1  0
 27 28  2  0
 28 29  1  0
 29 30  2  0
 30  5  1  0
 23 11  1  0
 29 24  1  0
 23 16  1  0
M  END
>  <fragmenstein_outcome>  (427) 
nan

>  <exports>  (427) 
['/opt/xchem-fragalysis-2/maxwin/openbind-hippo/xx01zvns2b/cycle_01/syndirella/elabs/openbind_xx01zvns2b_c1_elab_chemspace_filtered.sdf']

>  <Energy>  (427) 
nan

>  <alias>  (427) 
None

>  <fragmenstein_runtime>  (427) 
nan

>  <scratch_subdir>  (427) 
nan

>  <HIPPO Compound ID>  (427) 
142343

>  <rmsd(smina/fragmenstein)>  (427) 
2.664

>  <distance_score>  (427) 
1.569105

>  <orig_smiles>  (427) 
nan

>  <fragmenstein_mode>  (427) 
nan

>  <inchikey>  (427) 
SAXLTYRYPURWJU-UHFFFAOYSA-N

>  <ref_pdb>  (427) 
Z0852a

>  <GNINA pK>  (427) 
nan

>  <gnina_score_min>  (427) 
5.62

>  <tags>  (427) 
openbind_xx01zvns2b_c1_elab_nonasap_filtered_scored_top80percent,openbind_xx01zvns2b_c1_elab_chemspace_filtered_scored_top80percent,openbind_xx01zvns2b_c1_elab_chemspace_filtered_scored,openbind_xx01zvns2b_c1_elab_chemspace_filtered_scored_top40percent,openbind_xx01zvns2b_c1_elab_chemspace_filtered_scored_top20percent,openbind_xx01zvns2b_c1_elab_chemspace_filtered_scored_top60percent,openbind_xx01zvns2b_c1_elabs_filtered

>  <smiles>  (427) 
COC(=O)c1cc(NC(=O)c2cc(O)nc3c(F)cc(C)cc23)c2ncccc2c1

>  <subsites>  (427) 
1 - Z4590/B/203/1

>  <gnina_score>  (427) 
5.564

>  <HIPPO Pose ID>  (427) 
70377

>  <ref_mols>  (427) 
Z0917a,Z0852a

>  <energy_score>  (427) 
-16.930576

>  <inspiration_score>  (427) 
None

>  <smina_score_min>  (427) 
-6.001

>  <fragmenstein_error>  (427) 
nan

>  <name>  (427) 
P70377

$$$$
P70378
     RDKit          3D

 30 33  0  0  0  0  0  0  0  0999 V2000
   -4.4575    7.0828  -24.3667 C   0  0  0  0  0  0  0  0  0  0  0  0
   -3.0849    6.6838  -23.8176 C   0  0  0  0  0  0  0  0  0  0  0  0
   -2.4051    5.6672  -24.7356 C   0  0  0  0  0  0  0  0  0  0  0  0
   -3.0841    6.1886  -22.3851 C   0  0  0  0  0  0  0  0  0  0  0  0
   -4.1775    5.6104  -21.7734 C   0  0  0  0  0  0  0  0  0  0  0  0
   -4.0787    5.2363  -20.4269 C   0  0  0  0  0  0  0  0  0  0  0  0
   -5.3290    4.6944  -19.8330 C   0  0  0  0  0  0  0  0  0  0  0  0
   -5.9648    3.9665  -20.4964 O   0  0  0  0  0  0  0  0  0  0  0  0
   -5.6093    5.2714  -18.4103 N   0  0  0  0  0  0  0  0  0  0  0  0
   -6.6488    5.0028  -17.5071 C   0  0  0  0  0  0  0  0  0  0  0  0
   -6.4433    5.3234  -16.1479 C   0  0  0  0  0  0  0  0  0  0  0  0
   -7.4492    5.1212  -15.1849 C   0  0  0  0  0  0  0  0  0  0  0  0
   -7.4110    5.6374  -13.7456 C   0  0  0  0  0  0  0  0  0  0  0  0
   -6.0540    6.2122  -13.3286 C   0  0  0  0  0  0  0  0  0  0  0  0
   -8.4155    6.7897  -13.6342 C   0  0  0  0  0  0  0  0  0  0  0  0
   -7.8182    4.5481  -12.7367 C   0  0  0  0  0  0  0  0  0  0  0  0
   -8.6336    4.5331  -15.6124 C   0  0  0  0  0  0  0  0  0  0  0  0
   -8.8778    4.3680  -16.9590 C   0  0  0  0  0  0  0  0  0  0  0  0
  -10.1818    4.1707  -17.3366 C   0  0  0  0  0  0  0  0  0  0  0  0
  -10.5546    4.4144  -18.6183 C   0  0  0  0  0  0  0  0  0  0  0  0
   -9.5489    4.5261  -19.5328 C   0  0  0  0  0  0  0  0  0  0  0  0
   -8.2480    4.5417  -19.2197 N   0  0  0  0  0  0  0  0  0  0  0  0
   -7.9039    4.5810  -17.9340 C   0  0  0  0  0  0  0  0  0  0  0  0
   -2.8736    5.4058  -19.7104 C   0  0  0  0  0  0  0  0  0  0  0  0
   -2.6391    5.0320  -18.3610 C   0  0  0  0  0  0  0  0  0  0  0  0
   -1.4720    5.4153  -17.7046 C   0  0  0  0  0  0  0  0  0  0  0  0
   -0.4650    6.0529  -18.4102 C   0  0  0  0  0  0  0  0  0  0  0  0
   -0.6461    6.3228  -19.7649 C   0  0  0  0  0  0  0  0  0  0  0  0
   -1.8312    6.0246  -20.4210 C   0  0  0  0  0  0  0  0  0  0  0  0
   -1.9322    6.3925  -21.7069 N   0  0  0  0  0  0  0  0  0  0  0  0
  1  2  1  0
  2  3  1  0
  2  4  1  0
  4  5  2  0
  5  6  1  0
  6  7  1  0
  7  8  2  0
  7  9  1  0
  9 10  1  0
 10 11  2  0
 11 12  1  0
 12 13  1  0
 13 14  1  0
 13 15  1  0
 13 16  1  0
 12 17  2  0
 17 18  1  0
 18 19  2  0
 19 20  1  0
 20 21  2  0
 21 22  1  0
 22 23  2  0
  6 24  2  0
 24 25  1  0
 25 26  2  0
 26 27  1  0
 27 28  2  0
 28 29  1  0
 29 30  2  0
 30  4  1  0
 23 10  1  0
 29 24  1  0
 23 18  1  0
M  END
>  <fragmenstein_outcome>  (428) 
nan

>  <exports>  (428) 
['/opt/xchem-fragalysis-2/maxwin/openbind-hippo/xx01zvns2b/cycle_01/syndirella/elabs/openbind_xx01zvns2b_c1_elab_chemspace_filtered.sdf']

>  <Energy>  (428) 
nan

>  <alias>  (428) 
None

>  <fragmenstein_runtime>  (428) 
nan

>  <scratch_subdir>  (428) 
nan

>  <HIPPO Compound ID>  (428) 
142344

>  <rmsd(smina/fragmenstein)>  (428) 
1.617

>  <distance_score>  (428) 
1.344696

>  <orig_smiles>  (428) 
nan

>  <fragmenstein_mode>  (428) 
nan

>  <inchikey>  (428) 
OBDIWIKCRMZWAF-UHFFFAOYSA-N

>  <ref_pdb>  (428) 
Z0852a

>  <GNINA pK>  (428) 
nan

>  <gnina_score_min>  (428) 
6.567

>  <tags>  (428) 
openbind_xx01zvns2b_c1_elab_nonasap_filtered_scored_top80percent,openbind_xx01zvns2b_c1_elab_chemspace_filtered_scored_top80percent,openbind_xx01zvns2b_c1_elab_chemspace_filtered_scored,openbind_xx01zvns2b_c1_elab_chemspace_filtered_scored_top40percent,openbind_xx01zvns2b_c1_elab_chemspace_filtered_scored_top20percent,openbind_xx01zvns2b_c1_elab_chemspace_filtered_scored_top60percent,openbind_xx01zvns2b_c1_elabs_filtered

>  <smiles>  (428) 
CC(C)c1cc(C(=O)Nc2cc(C(C)(C)C)cc3cccnc23)c2ccccc2n1

>  <subsites>  (428) 
1 - Z4590/B/203/1

>  <gnina_score>  (428) 
6.02

>  <HIPPO Pose ID>  (428) 
70378

>  <ref_mols>  (428) 
Z0917a,Z0852a

>  <energy_score>  (428) 
-18.639246

>  <inspiration_score>  (428) 
None

>  <smina_score_min>  (428) 
-6.775

>  <fragmenstein_error>  (428) 
nan

>  <name>  (428) 
P70378

$$$$
P70379
     RDKit          3D

 30 33  0  0  0  0  0  0  0  0999 V2000
   -6.5025    4.9934  -11.4753 C   0  0  0  0  0  0  0  0  0  0  0  0
   -6.9790    4.8888  -12.8169 O   0  0  0  0  0  0  0  0  0  0  0  0
   -6.0084    4.9638  -13.7603 C   0  0  0  0  0  0  0  0  0  0  0  0
   -4.8150    5.1145  -13.5503 O   0  0  0  0  0  0  0  0  0  0  0  0
   -6.5949    4.8691  -15.1214 C   0  0  0  0  0  0  0  0  0  0  0  0
   -5.7879    5.1708  -16.2190 C   0  0  0  0  0  0  0  0  0  0  0  0
   -6.2759    5.0426  -17.5285 C   0  0  0  0  0  0  0  0  0  0  0  0
   -5.3523    5.2787  -18.5481 N   0  0  0  0  0  0  0  0  0  0  0  0
   -5.2923    4.7331  -20.0000 C   0  0  0  0  0  0  0  0  0  0  0  0
   -5.9636    3.9423  -20.5414 O   0  0  0  0  0  0  0  0  0  0  0  0
   -4.1233    5.2668  -20.7427 C   0  0  0  0  0  0  0  0  0  0  0  0
   -4.3980    5.6480  -22.0560 C   0  0  0  0  0  0  0  0  0  0  0  0
   -3.3705    6.1555  -22.8219 C   0  0  0  0  0  0  0  0  0  0  0  0
   -3.6170    6.5873  -24.2533 C   0  0  0  0  0  0  0  0  0  0  0  0
   -3.5064    8.1069  -24.3822 C   0  0  0  0  0  0  0  0  0  0  0  0
   -2.6514    5.8884  -25.2122 C   0  0  0  0  0  0  0  0  0  0  0  0
   -2.1299    6.3315  -22.3191 N   0  0  0  0  0  0  0  0  0  0  0  0
   -1.8658    5.9743  -21.0551 C   0  0  0  0  0  0  0  0  0  0  0  0
   -0.5891    6.2371  -20.5840 C   0  0  0  0  0  0  0  0  0  0  0  0
   -0.2220    5.9695  -19.2694 C   0  0  0  0  0  0  0  0  0  0  0  0
   -1.1362    5.3687  -18.4217 C   0  0  0  0  0  0  0  0  0  0  0  0
   -2.3983    5.0148  -18.8962 C   0  0  0  0  0  0  0  0  0  0  0  0
   -2.8194    5.3934  -20.1997 C   0  0  0  0  0  0  0  0  0  0  0  0
   -7.6083    4.7057  -17.7670 C   0  0  0  0  0  0  0  0  0  0  0  0
   -8.1435    4.7348  -18.9925 N   0  0  0  0  0  0  0  0  0  0  0  0
   -9.4609    4.5272  -19.1445 C   0  0  0  0  0  0  0  0  0  0  0  0
  -10.3031    4.2297  -18.1057 C   0  0  0  0  0  0  0  0  0  0  0  0
   -9.7419    4.1387  -16.8505 C   0  0  0  0  0  0  0  0  0  0  0  0
   -8.4076    4.4297  -16.6482 C   0  0  0  0  0  0  0  0  0  0  0  0
   -7.9104    4.4772  -15.3422 C   0  0  0  0  0  0  0  0  0  0  0  0
  1  2  1  0
  2  3  1  0
  3  4  2  0
  3  5  1  0
  5  6  2  0
  6  7  1  0
  7  8  1  0
  8  9  1  0
  9 10  2  0
  9 11  1  0
 11 12  2  0
 12 13  1  0
 13 14  1  0
 14 15  1  0
 14 16  1  0
 13 17  2  0
 17 18  1  0
 18 19  2  0
 19 20  1  0
 20 21  2  0
 21 22  1  0
 22 23  2  0
  7 24  2  0
 24 25  1  0
 25 26  2  0
 26 27  1  0
 27 28  2  0
 28 29  1  0
 29 30  2  0
 30  5  1  0
 23 11  1  0
 29 24  1  0
 23 18  1  0
M  END
>  <fragmenstein_outcome>  (429) 
nan

>  <exports>  (429) 
['/opt/xchem-fragalysis-2/maxwin/openbind-hippo/xx01zvns2b/cycle_01/syndirella/elabs/openbind_xx01zvns2b_c1_elab_chemspace_filtered.sdf']

>  <Energy>  (429) 
nan

>  <alias>  (429) 
None

>  <fragmenstein_runtime>  (429) 
nan

>  <scratch_subdir>  (429) 
nan

>  <HIPPO Compound ID>  (429) 
142346

>  <rmsd(smina/fragmenstein)>  (429) 
1.358

>  <distance_score>  (429) 
1.526513

>  <orig_smiles>  (429) 
nan

>  <fragmenstein_mode>  (429) 
nan

>  <inchikey>  (429) 
ALJQTDICVQIUNO-UHFFFAOYSA-N

>  <ref_pdb>  (429) 
Z0852a

>  <GNINA pK>  (429) 
nan

>  <gnina_score_min>  (429) 
6.201

>  <tags>  (429) 
openbind_xx01zvns2b_c1_elab_nonasap_filtered_scored_top80percent,openbind_xx01zvns2b_c1_elab_chemspace_filtered_scored_top80percent,openbind_xx01zvns2b_c1_elab_chemspace_filtered_scored,openbind_xx01zvns2b_c1_elab_chemspace_filtered_scored_top40percent,openbind_xx01zvns2b_c1_elab_chemspace_filtered_scored_top20percent,openbind_xx01zvns2b_c1_elab_chemspace_filtered_scored_top60percent,openbind_xx01zvns2b_c1_elabs_filtered

>  <smiles>  (429) 
COC(=O)c1cc(NC(=O)c2cc(C(C)C)nc3ccccc23)c2ncccc2c1

>  <subsites>  (429) 
1 - Z4590/B/203/1

>  <gnina_score>  (429) 
6.147

>  <HIPPO Pose ID>  (429) 
70379

>  <ref_mols>  (429) 
Z0917a,Z0852a

>  <energy_score>  (429) 
-31.741788

>  <inspiration_score>  (429) 
None

>  <smina_score_min>  (429) 
-6.28

>  <fragmenstein_error>  (429) 
nan

>  <name>  (429) 
P70379

$$$$
P70380
     RDKit          3D

 31 35  0  0  0  0  0  0  0  0999 V2000
   -6.3479    4.8369  -11.5350 C   0  0  0  0  0  0  0  0  0  0  0  0
   -6.8592    4.7734  -12.8664 O   0  0  0  0  0  0  0  0  0  0  0  0
   -5.9231    4.9385  -13.8320 C   0  0  0  0  0  0  0  0  0  0  0  0
   -4.7352    5.1565  -13.6506 O   0  0  0  0  0  0  0  0  0  0  0  0
   -6.5406    4.8462  -15.1803 C   0  0  0  0  0  0  0  0  0  0  0  0
   -5.7570    5.1511  -16.2941 C   0  0  0  0  0  0  0  0  0  0  0  0
   -6.2704    5.0272  -17.5941 C   0  0  0  0  0  0  0  0  0  0  0  0
   -5.3695    5.2837  -18.6298 N   0  0  0  0  0  0  0  0  0  0  0  0
   -5.3330    4.7536  -20.0896 C   0  0  0  0  0  0  0  0  0  0  0  0
   -6.0069    3.9614  -20.6261 O   0  0  0  0  0  0  0  0  0  0  0  0
   -4.1893    5.3226  -20.8434 C   0  0  0  0  0  0  0  0  0  0  0  0
   -4.5123    5.8236  -22.1049 C   0  0  0  0  0  0  0  0  0  0  0  0
   -3.5214    6.4026  -22.8694 C   0  0  0  0  0  0  0  0  0  0  0  0
   -3.7827    7.0780  -24.1975 C   0  0  0  0  0  0  0  0  0  0  0  0
   -3.5427    6.2979  -25.4697 C   0  0  0  0  0  0  0  0  0  0  0  0
   -4.9316    6.7396  -25.1141 C   0  0  0  0  0  0  0  0  0  0  0  0
   -2.2561    6.4748  -22.3968 N   0  0  0  0  0  0  0  0  0  0  0  0
   -1.9296    6.0166  -21.1767 C   0  0  0  0  0  0  0  0  0  0  0  0
   -0.6202    6.2185  -20.7277 C   0  0  0  0  0  0  0  0  0  0  0  0
    0.4019    6.8518  -21.6352 C   0  0  0  0  0  0  0  0  0  0  0  0
   -0.2544    5.8830  -19.4217 C   0  0  0  0  0  0  0  0  0  0  0  0
   -1.1718    5.2700  -18.5870 C   0  0  0  0  0  0  0  0  0  0  0  0
   -2.4399    4.9511  -19.0591 C   0  0  0  0  0  0  0  0  0  0  0  0
   -2.8706    5.4006  -20.3334 C   0  0  0  0  0  0  0  0  0  0  0  0
   -7.6070    4.6908  -17.8051 C   0  0  0  0  0  0  0  0  0  0  0  0
   -8.1653    4.7229  -19.0191 N   0  0  0  0  0  0  0  0  0  0  0  0
   -9.4871    4.5318  -19.1459 C   0  0  0  0  0  0  0  0  0  0  0  0
  -10.3123    4.2383  -18.0920 C   0  0  0  0  0  0  0  0  0  0  0  0
   -9.7283    4.1397  -16.8471 C   0  0  0  0  0  0  0  0  0  0  0  0
   -8.3868    4.4181  -16.6710 C   0  0  0  0  0  0  0  0  0  0  0  0
   -7.8625    4.4602  -15.3753 C   0  0  0  0  0  0  0  0  0  0  0  0
  1  2  1  0
  2  3  1  0
  3  4  2  0
  3  5  1  0
  5  6  2  0
  6  7  1  0
  7  8  1  0
  8  9  1  0
  9 10  2  0
  9 11  1  0
 11 12  2  0
 12 13  1  0
 13 14  1  0
 14 15  1  0
 15 16  1  0
 13 17  2  0
 17 18  1  0
 18 19  2  0
 19 20  1  0
 19 21  1  0
 21 22  2  0
 22 23  1  0
 23 24  2  0
  7 25  2  0
 25 26  1  0
 26 27  2  0
 27 28  1  0
 28 29  2  0
 29 30  1  0
 30 31  2  0
 31  5  1  0
 24 11  1  0
 30 25  1  0
 16 14  1  0
 24 18  1  0
M  END
>  <fragmenstein_outcome>  (430) 
nan

>  <exports>  (430) 
['/opt/xchem-fragalysis-2/maxwin/openbind-hippo/xx01zvns2b/cycle_01/syndirella/elabs/openbind_xx01zvns2b_c1_elab_chemspace_filtered.sdf']

>  <Energy>  (430) 
nan

>  <alias>  (430) 
None

>  <fragmenstein_runtime>  (430) 
nan

>  <scratch_subdir>  (430) 
nan

>  <HIPPO Compound ID>  (430) 
142349

>  <rmsd(smina/fragmenstein)>  (430) 
1.062

>  <distance_score>  (430) 
1.68877

>  <orig_smiles>  (430) 
nan

>  <fragmenstein_mode>  (430) 
nan

>  <inchikey>  (430) 
RVJGSCDIVFLULY-UHFFFAOYSA-N

>  <ref_pdb>  (430) 
Z0852a

>  <GNINA pK>  (430) 
nan

>  <gnina_score_min>  (430) 
6.363

>  <tags>  (430) 
openbind_xx01zvns2b_c1_elab_nonasap_filtered_scored_top80percent,openbind_xx01zvns2b_c1_elab_chemspace_filtered_scored_top80percent,openbind_xx01zvns2b_c1_elab_chemspace_filtered_scored,openbind_xx01zvns2b_c1_elab_chemspace_filtered_scored_top40percent,openbind_xx01zvns2b_c1_elab_chemspace_filtered_scored_top20percent,openbind_xx01zvns2b_c1_elab_chemspace_filtered_scored_top60percent,openbind_xx01zvns2b_c1_elabs_filtered

>  <smiles>  (430) 
COC(=O)c1cc(NC(=O)c2cc(C3CC3)nc3c(C)cccc23)c2ncccc2c1

>  <subsites>  (430) 
1 - Z4590/B/203/1

>  <gnina_score>  (430) 
6.278

>  <HIPPO Pose ID>  (430) 
70380

>  <ref_mols>  (430) 
Z0917a,Z0852a

>  <energy_score>  (430) 
-21.041963

>  <inspiration_score>  (430) 
None

>  <smina_score_min>  (430) 
-6.66

>  <fragmenstein_error>  (430) 
nan

>  <name>  (430) 
P70380

$$$$
P70381
     RDKit          3D

 31 35  0  0  0  0  0  0  0  0999 V2000
    0.5336    6.8785  -20.6859 C   0  0  0  0  0  0  0  0  0  0  0  0
   -0.5867    6.2857  -19.8703 C   0  0  0  0  0  0  0  0  0  0  0  0
   -0.3888    6.0569  -18.5029 C   0  0  0  0  0  0  0  0  0  0  0  0
   -1.3877    5.4633  -17.7500 C   0  0  0  0  0  0  0  0  0  0  0  0
   -2.5778    5.0843  -18.3615 C   0  0  0  0  0  0  0  0  0  0  0  0
   -2.8441    5.4177  -19.7141 C   0  0  0  0  0  0  0  0  0  0  0  0
   -4.0752    5.2368  -20.3809 C   0  0  0  0  0  0  0  0  0  0  0  0
   -5.3073    4.7017  -19.7462 C   0  0  0  0  0  0  0  0  0  0  0  0
   -5.9318    3.9368  -20.3771 O   0  0  0  0  0  0  0  0  0  0  0  0
   -5.5444    5.2578  -18.3091 N   0  0  0  0  0  0  0  0  0  0  0  0
   -6.6147    5.0644  -17.4227 C   0  0  0  0  0  0  0  0  0  0  0  0
   -6.4197    5.4083  -16.0714 C   0  0  0  0  0  0  0  0  0  0  0  0
   -7.4405    5.2188  -15.1231 C   0  0  0  0  0  0  0  0  0  0  0  0
   -7.3477    5.7253  -13.7103 C   0  0  0  0  0  0  0  0  0  0  0  0
   -7.2557    7.0857  -13.6699 F   0  0  0  0  0  0  0  0  0  0  0  0
   -8.4398    5.4220  -12.9505 F   0  0  0  0  0  0  0  0  0  0  0  0
   -6.2691    5.2501  -13.0396 F   0  0  0  0  0  0  0  0  0  0  0  0
   -8.6302    4.6393  -15.5314 C   0  0  0  0  0  0  0  0  0  0  0  0
   -8.8545    4.4374  -16.8797 C   0  0  0  0  0  0  0  0  0  0  0  0
  -10.1435    4.1868  -17.2745 C   0  0  0  0  0  0  0  0  0  0  0  0
  -10.5064    4.3763  -18.5703 C   0  0  0  0  0  0  0  0  0  0  0  0
   -9.4948    4.5034  -19.4763 C   0  0  0  0  0  0  0  0  0  0  0  0
   -8.2002    4.5736  -19.1421 N   0  0  0  0  0  0  0  0  0  0  0  0
   -7.8710    4.6411  -17.8528 C   0  0  0  0  0  0  0  0  0  0  0  0
   -4.2065    5.5405  -21.7398 C   0  0  0  0  0  0  0  0  0  0  0  0
   -3.1263    6.0477  -22.4314 C   0  0  0  0  0  0  0  0  0  0  0  0
   -3.2373    6.3863  -23.9021 C   0  0  0  0  0  0  0  0  0  0  0  0
   -2.6619    5.4321  -24.9240 C   0  0  0  0  0  0  0  0  0  0  0  0
   -2.0156    6.7670  -24.7083 C   0  0  0  0  0  0  0  0  0  0  0  0
   -1.9628    6.2810  -21.7857 N   0  0  0  0  0  0  0  0  0  0  0  0
   -1.8104    5.9861  -20.4819 C   0  0  0  0  0  0  0  0  0  0  0  0
  1  2  1  0
  2  3  2  0
  3  4  1  0
  4  5  2  0
  5  6  1  0
  6  7  2  0
  7  8  1  0
  8  9  2  0
  8 10  1  0
 10 11  1  0
 11 12  2  0
 12 13  1  0
 13 14  1  0
 14 15  1  0
 14 16  1  0
 14 17  1  0
 13 18  2  0
 18 19  1  0
 19 20  2  0
 20 21  1  0
 21 22  2  0
 22 23  1  0
 23 24  2  0
  7 25  1  0
 25 26  2  0
 26 27  1  0
 27 28  1  0
 28 29  1  0
 26 30  1  0
 30 31  2  0
 31  2  1  0
 31  6  1  0
 24 11  1  0
 29 27  1  0
 24 19  1  0
M  END
>  <fragmenstein_outcome>  (431) 
nan

>  <exports>  (431) 
['/opt/xchem-fragalysis-2/maxwin/openbind-hippo/xx01zvns2b/cycle_01/syndirella/elabs/openbind_xx01zvns2b_c1_elab_chemspace_filtered.sdf']

>  <Energy>  (431) 
nan

>  <alias>  (431) 
None

>  <fragmenstein_runtime>  (431) 
nan

>  <scratch_subdir>  (431) 
nan

>  <HIPPO Compound ID>  (431) 
142350

>  <rmsd(smina/fragmenstein)>  (431) 
1.351

>  <distance_score>  (431) 
1.075361

>  <orig_smiles>  (431) 
nan

>  <fragmenstein_mode>  (431) 
nan

>  <inchikey>  (431) 
VXZDOJQCRRSFBW-UHFFFAOYSA-N

>  <ref_pdb>  (431) 
Z0852a

>  <GNINA pK>  (431) 
nan

>  <gnina_score_min>  (431) 
6.271

>  <tags>  (431) 
openbind_xx01zvns2b_c1_elab_nonasap_filtered_scored_top80percent,openbind_xx01zvns2b_c1_elab_chemspace_filtered_scored_top80percent,openbind_xx01zvns2b_c1_elab_chemspace_filtered_scored,openbind_xx01zvns2b_c1_elab_chemspace_filtered_scored_top40percent,openbind_xx01zvns2b_c1_elab_chemspace_filtered_scored_top20percent,openbind_xx01zvns2b_c1_elab_chemspace_filtered_scored_top60percent,openbind_xx01zvns2b_c1_elabs_filtered

>  <smiles>  (431) 
Cc1cccc2c(C(=O)Nc3cc(C(F)(F)F)cc4cccnc34)cc(C3CC3)nc12

>  <subsites>  (431) 
1 - Z4590/B/203/1

>  <gnina_score>  (431) 
6.127

>  <HIPPO Pose ID>  (431) 
70381

>  <ref_mols>  (431) 
Z0917a,Z0852a

>  <energy_score>  (431) 
-3.120481

>  <inspiration_score>  (431) 
None

>  <smina_score_min>  (431) 
-6.705

>  <fragmenstein_error>  (431) 
nan

>  <name>  (431) 
P70381

$$$$
P70382
     RDKit          3D

 31 34  0  0  0  0  0  0  0  0999 V2000
   -8.4338    6.8001  -13.6035 C   0  0  0  0  0  0  0  0  0  0  0  0
   -7.4282    5.6497  -13.7236 C   0  0  0  0  0  0  0  0  0  0  0  0
   -6.0705    6.2247  -13.3089 C   0  0  0  0  0  0  0  0  0  0  0  0
   -7.8300    4.5538  -12.7202 C   0  0  0  0  0  0  0  0  0  0  0  0
   -7.4708    5.1393  -15.1642 C   0  0  0  0  0  0  0  0  0  0  0  0
   -6.4566    5.3261  -16.1204 C   0  0  0  0  0  0  0  0  0  0  0  0
   -6.6627    5.0050  -17.4777 C   0  0  0  0  0  0  0  0  0  0  0  0
   -5.5990    5.1982  -18.3698 N   0  0  0  0  0  0  0  0  0  0  0  0
   -5.3730    4.6460  -19.8096 C   0  0  0  0  0  0  0  0  0  0  0  0
   -6.0037    3.8849  -20.4386 O   0  0  0  0  0  0  0  0  0  0  0  0
   -4.0782    5.1597  -20.3658 C   0  0  0  0  0  0  0  0  0  0  0  0
   -4.1542    5.3676  -21.6927 C   0  0  0  0  0  0  0  0  0  0  0  0
   -2.9840    5.7643  -22.4891 C   0  0  0  0  0  0  0  0  0  0  0  0
   -3.0678    5.9310  -23.7005 O   0  0  0  0  0  0  0  0  0  0  0  0
   -1.8229    5.9586  -21.8028 N   0  0  0  0  0  0  0  0  0  0  0  0
   -1.6976    5.8018  -20.4193 C   0  0  0  0  0  0  0  0  0  0  0  0
   -0.4690    6.1189  -19.8289 C   0  0  0  0  0  0  0  0  0  0  0  0
   -0.3272    6.0493  -18.4465 C   0  0  0  0  0  0  0  0  0  0  0  0
   -1.4005    5.5886  -17.6804 C   0  0  0  0  0  0  0  0  0  0  0  0
   -1.2939    5.5835  -16.2152 N   0  0  0  0  0  0  0  0  0  0  0  0
   -0.1684    5.7235  -15.7171 O   0  0  0  0  0  0  0  0  0  0  0  0
   -2.3433    5.4605  -15.5672 O   0  0  0  0  0  0  0  0  0  0  0  0
   -2.5971    5.1649  -18.2855 C   0  0  0  0  0  0  0  0  0  0  0  0
   -2.7964    5.3573  -19.6590 C   0  0  0  0  0  0  0  0  0  0  0  0
   -7.9209    4.6028  -17.9114 C   0  0  0  0  0  0  0  0  0  0  0  0
   -8.2539    4.5670  -19.2001 N   0  0  0  0  0  0  0  0  0  0  0  0
   -9.5523    4.5393  -19.5242 C   0  0  0  0  0  0  0  0  0  0  0  0
  -10.5635    4.4206  -18.6171 C   0  0  0  0  0  0  0  0  0  0  0  0
  -10.1984    4.1830  -17.3320 C   0  0  0  0  0  0  0  0  0  0  0  0
   -8.8996    4.3922  -16.9431 C   0  0  0  0  0  0  0  0  0  0  0  0
   -8.6592    4.5603  -15.5958 C   0  0  0  0  0  0  0  0  0  0  0  0
  1  2  1  0
  2  3  1  0
  2  4  1  0
  2  5  1  0
  5  6  2  0
  6  7  1  0
  7  8  1  0
  8  9  1  0
  9 10  2  0
  9 11  1  0
 11 12  2  0
 12 13  1  0
 13 14  2  0
 13 15  1  0
 15 16  1  0
 16 17  2  0
 17 18  1  0
 18 19  2  0
 19 20  1  0
 20 21  2  0
 20 22  1  0
 19 23  1  0
 23 24  2  0
  7 25  2  0
 25 26  1  0
 26 27  2  0
 27 28  1  0
 28 29  2  0
 29 30  1  0
 30 31  2  0
 31  5  1  0
 24 11  1  0
 30 25  1  0
 24 16  1  0
M  CHG  2  20   1  22  -1
M  END
>  <fragmenstein_outcome>  (432) 
nan

>  <exports>  (432) 
['/opt/xchem-fragalysis-2/maxwin/openbind-hippo/xx01zvns2b/cycle_01/syndirella/elabs/openbind_xx01zvns2b_c1_elab_chemspace_filtered.sdf']

>  <Energy>  (432) 
nan

>  <alias>  (432) 
None

>  <fragmenstein_runtime>  (432) 
nan

>  <scratch_subdir>  (432) 
nan

>  <HIPPO Compound ID>  (432) 
142351

>  <rmsd(smina/fragmenstein)>  (432) 
1.899

>  <distance_score>  (432) 
1.367041

>  <orig_smiles>  (432) 
nan

>  <fragmenstein_mode>  (432) 
nan

>  <inchikey>  (432) 
BCSUOLWGVFHXCH-UHFFFAOYSA-N

>  <ref_pdb>  (432) 
Z0852a

>  <GNINA pK>  (432) 
nan

>  <gnina_score_min>  (432) 
6.411

>  <tags>  (432) 
openbind_xx01zvns2b_c1_elab_nonasap_filtered_scored_top80percent,openbind_xx01zvns2b_c1_elab_chemspace_filtered_scored_top80percent,openbind_xx01zvns2b_c1_elab_chemspace_filtered_scored,openbind_xx01zvns2b_c1_elab_chemspace_filtered_scored_top40percent,openbind_xx01zvns2b_c1_elab_chemspace_filtered_scored_top20percent,openbind_xx01zvns2b_c1_elab_chemspace_filtered_scored_top60percent,openbind_xx01zvns2b_c1_elabs_filtered

>  <smiles>  (432) 
CC(C)(C)c1cc(NC(=O)c2cc(=O)[nH]c3ccc([N+](=O)[O-])cc23)c2ncccc2c1

>  <subsites>  (432) 
1 - Z4590/B/203/1

>  <gnina_score>  (432) 
6.074

>  <HIPPO Pose ID>  (432) 
70382

>  <ref_mols>  (432) 
Z0917a,Z0852a

>  <energy_score>  (432) 
-23.547681

>  <inspiration_score>  (432) 
None

>  <smina_score_min>  (432) 
-6.637

>  <fragmenstein_error>  (432) 
nan

>  <name>  (432) 
P70382

$$$$
P70385
     RDKit          3D

 31 34  0  0  0  0  0  0  0  0999 V2000
   -5.9250    3.9408  -20.3618 O   0  0  0  0  0  0  0  0  0  0  0  0
   -5.2978    4.7011  -19.7286 C   0  0  0  0  0  0  0  0  0  0  0  0
   -5.5347    5.2561  -18.2926 N   0  0  0  0  0  0  0  0  0  0  0  0
   -6.6079    5.0675  -17.4086 C   0  0  0  0  0  0  0  0  0  0  0  0
   -6.4153    5.4099  -16.0570 C   0  0  0  0  0  0  0  0  0  0  0  0
   -7.4386    5.2205  -15.1114 C   0  0  0  0  0  0  0  0  0  0  0  0
   -7.3488    5.7263  -13.6984 C   0  0  0  0  0  0  0  0  0  0  0  0
   -7.2555    7.0870  -13.6589 F   0  0  0  0  0  0  0  0  0  0  0  0
   -6.2709    5.2516  -13.0263 F   0  0  0  0  0  0  0  0  0  0  0  0
   -8.4420    5.4246  -12.9402 F   0  0  0  0  0  0  0  0  0  0  0  0
   -8.6272    4.6411  -15.5224 C   0  0  0  0  0  0  0  0  0  0  0  0
   -8.8490    4.4407  -16.8713 C   0  0  0  0  0  0  0  0  0  0  0  0
  -10.1366    4.1865  -17.2678 C   0  0  0  0  0  0  0  0  0  0  0  0
  -10.4980    4.3716  -18.5647 C   0  0  0  0  0  0  0  0  0  0  0  0
   -9.4855    4.5032  -19.4692 C   0  0  0  0  0  0  0  0  0  0  0  0
   -8.1911    4.5830  -19.1332 N   0  0  0  0  0  0  0  0  0  0  0  0
   -7.8643    4.6470  -17.8426 C   0  0  0  0  0  0  0  0  0  0  0  0
   -4.0654    5.2261  -20.3697 C   0  0  0  0  0  0  0  0  0  0  0  0
   -4.1975    5.5049  -21.7357 C   0  0  0  0  0  0  0  0  0  0  0  0
   -3.1029    5.9764  -22.4344 C   0  0  0  0  0  0  0  0  0  0  0  0
   -3.2178    6.2487  -23.9263 C   0  0  0  0  0  0  0  0  0  0  0  0
   -2.4597    7.2993  -24.3540 F   0  0  0  0  0  0  0  0  0  0  0  0
   -2.8524    5.1832  -24.6965 F   0  0  0  0  0  0  0  0  0  0  0  0
   -4.4952    6.5499  -24.3119 F   0  0  0  0  0  0  0  0  0  0  0  0
   -1.9177    6.1977  -21.8101 N   0  0  0  0  0  0  0  0  0  0  0  0
   -1.7897    5.9341  -20.5010 C   0  0  0  0  0  0  0  0  0  0  0  0
   -0.5701    6.2313  -19.9119 C   0  0  0  0  0  0  0  0  0  0  0  0
   -0.3419    6.0381  -18.5515 C   0  0  0  0  0  0  0  0  0  0  0  0
   -1.3385    5.4798  -17.7687 C   0  0  0  0  0  0  0  0  0  0  0  0
   -2.5480    5.1062  -18.3516 C   0  0  0  0  0  0  0  0  0  0  0  0
   -2.8283    5.4050  -19.7107 C   0  0  0  0  0  0  0  0  0  0  0  0
  1  2  2  0
  2  3  1  0
  3  4  1  0
  4  5  2  0
  5  6  1  0
  6  7  1  0
  7  8  1  0
  7  9  1  0
  7 10  1  0
  6 11  2  0
 11 12  1  0
 12 13  2  0
 13 14  1  0
 14 15  2  0
 15 16  1  0
 16 17  2  0
  2 18  1  0
 18 19  2  0
 19 20  1  0
 20 21  1  0
 21 22  1  0
 21 23  1  0
 21 24  1  0
 20 25  2  0
 25 26  1  0
 26 27  2  0
 27 28  1  0
 28 29  2  0
 29 30  1  0
 30 31  2  0
 17  4  1  0
 31 18  1  0
 17 12  1  0
 31 26  1  0
M  END
>  <fragmenstein_outcome>  (433) 
nan

>  <exports>  (433) 
['/opt/xchem-fragalysis-2/maxwin/openbind-hippo/xx01zvns2b/cycle_01/syndirella/elabs/openbind_xx01zvns2b_c1_elab_chemspace_filtered.sdf']

>  <Energy>  (433) 
nan

>  <alias>  (433) 
None

>  <fragmenstein_runtime>  (433) 
nan

>  <scratch_subdir>  (433) 
nan

>  <HIPPO Compound ID>  (433) 
142362

>  <rmsd(smina/fragmenstein)>  (433) 
1.435

>  <distance_score>  (433) 
1.079629

>  <orig_smiles>  (433) 
nan

>  <fragmenstein_mode>  (433) 
nan

>  <inchikey>  (433) 
PPCMCQRTSPBPJQ-UHFFFAOYSA-N

>  <ref_pdb>  (433) 
Z0852a

>  <GNINA pK>  (433) 
nan

>  <gnina_score_min>  (433) 
6.145

>  <tags>  (433) 
openbind_xx01zvns2b_c1_elab_nonasap_filtered_scored_top80percent,openbind_xx01zvns2b_c1_elab_chemspace_filtered_scored_top80percent,openbind_xx01zvns2b_c1_elab_chemspace_filtered_scored,openbind_xx01zvns2b_c1_elab_chemspace_filtered_scored_top40percent,openbind_xx01zvns2b_c1_elab_chemspace_filtered_scored_top20percent,openbind_xx01zvns2b_c1_elab_chemspace_filtered_scored_top60percent,openbind_xx01zvns2b_c1_elabs_filtered

>  <smiles>  (433) 
O=C(Nc1cc(C(F)(F)F)cc2cccnc12)c1cc(C(F)(F)F)nc2ccccc12

>  <subsites>  (433) 
1 - Z4590/B/203/1

>  <gnina_score>  (433) 
5.942

>  <HIPPO Pose ID>  (433) 
70385

>  <ref_mols>  (433) 
Z0917a,Z0852a

>  <energy_score>  (433) 
-5.71885

>  <inspiration_score>  (433) 
None

>  <smina_score_min>  (433) 
-6.721

>  <fragmenstein_error>  (433) 
nan

>  <name>  (433) 
P70385

$$$$
P70386
     RDKit          3D

 31 35  0  0  0  0  0  0  0  0999 V2000
   -5.8764    4.1760  -20.5012 O   0  0  0  0  0  0  0  0  0  0  0  0
   -5.2573    4.9166  -19.8372 C   0  0  0  0  0  0  0  0  0  0  0  0
   -5.5475    5.4808  -18.4099 N   0  0  0  0  0  0  0  0  0  0  0  0
   -6.5814    5.1808  -17.5007 C   0  0  0  0  0  0  0  0  0  0  0  0
   -6.3815    5.5260  -16.1464 C   0  0  0  0  0  0  0  0  0  0  0  0
   -7.3716    5.2820  -15.1741 C   0  0  0  0  0  0  0  0  0  0  0  0
   -7.2799    5.7830  -13.7584 C   0  0  0  0  0  0  0  0  0  0  0  0
   -7.1867    7.1428  -13.7107 F   0  0  0  0  0  0  0  0  0  0  0  0
   -6.2034    5.3020  -13.0886 F   0  0  0  0  0  0  0  0  0  0  0  0
   -8.3731    5.4775  -12.9997 F   0  0  0  0  0  0  0  0  0  0  0  0
   -8.5411    4.6519  -15.5590 C   0  0  0  0  0  0  0  0  0  0  0  0
   -8.7794    4.4457  -16.9019 C   0  0  0  0  0  0  0  0  0  0  0  0
  -10.0728    4.1674  -17.2581 C   0  0  0  0  0  0  0  0  0  0  0  0
  -10.4665    4.3352  -18.5482 C   0  0  0  0  0  0  0  0  0  0  0  0
   -9.4767    4.4772  -19.4789 C   0  0  0  0  0  0  0  0  0  0  0  0
   -8.1752    4.5815  -19.1774 N   0  0  0  0  0  0  0  0  0  0  0  0
   -7.8213    4.6818  -17.8988 C   0  0  0  0  0  0  0  0  0  0  0  0
   -3.9634    5.4157  -20.3761 C   0  0  0  0  0  0  0  0  0  0  0  0
   -2.8145    5.3033  -19.6112 C   0  0  0  0  0  0  0  0  0  0  0  0
   -1.6126    5.6795  -20.1900 C   0  0  0  0  0  0  0  0  0  0  0  0
   -1.4633    6.1398  -21.4342 N   0  0  0  0  0  0  0  0  0  0  0  0
   -2.5699    6.2737  -22.1662 C   0  0  0  0  0  0  0  0  0  0  0  0
   -2.3987    6.8082  -23.4323 C   0  0  0  0  0  0  0  0  0  0  0  0
   -3.4800    7.0969  -24.2571 C   0  0  0  0  0  0  0  0  0  0  0  0
   -4.7617    6.8329  -23.8035 C   0  0  0  0  0  0  0  0  0  0  0  0
   -6.2202    7.3252  -24.8937 Br  0  0  0  0  0  0  0  0  0  0  0  0
   -4.9610    6.2457  -22.5516 C   0  0  0  0  0  0  0  0  0  0  0  0
   -3.8687    5.9535  -21.6958 C   0  0  0  0  0  0  0  0  0  0  0  0
   -0.4729    5.5760  -19.2159 C   0  0  0  0  0  0  0  0  0  0  0  0
   -1.2678    5.5920  -17.9108 C   0  0  0  0  0  0  0  0  0  0  0  0
   -2.5563    4.8108  -18.2229 C   0  0  0  0  0  0  0  0  0  0  0  0
  1  2  2  0
  2  3  1  0
  3  4  1  0
  4  5  2  0
  5  6  1  0
  6  7  1  0
  7  8  1  0
  7  9  1  0
  7 10  1  0
  6 11  2  0
 11 12  1  0
 12 13  2  0
 13 14  1  0
 14 15  2  0
 15 16  1  0
 16 17  2  0
  2 18  1  0
 18 19  2  0
 19 20  1  0
 20 21  2  0
 21 22  1  0
 22 23  2  0
 23 24  1  0
 24 25  2  0
 25 26  1  0
 25 27  1  0
 27 28  2  0
 20 29  1  0
 29 30  1  0
 30 31  1  0
 17  4  1  0
 28 18  1  0
 17 12  1  0
 31 19  1  0
 28 22  1  0
M  END
>  <fragmenstein_outcome>  (434) 
nan

>  <exports>  (434) 
['/opt/xchem-fragalysis-2/maxwin/openbind-hippo/xx01zvns2b/cycle_01/syndirella/elabs/openbind_xx01zvns2b_c1_elab_chemspace_filtered.sdf']

>  <Energy>  (434) 
nan

>  <alias>  (434) 
None

>  <fragmenstein_runtime>  (434) 
nan

>  <scratch_subdir>  (434) 
nan

>  <HIPPO Compound ID>  (434) 
142363

>  <rmsd(smina/fragmenstein)>  (434) 
0.636

>  <distance_score>  (434) 
1.103193

>  <orig_smiles>  (434) 
nan

>  <fragmenstein_mode>  (434) 
nan

>  <inchikey>  (434) 
ZVKNOCBRKGMVPO-UHFFFAOYSA-N

>  <ref_pdb>  (434) 
Z0852a

>  <GNINA pK>  (434) 
nan

>  <gnina_score_min>  (434) 
6.425

>  <tags>  (434) 
openbind_xx01zvns2b_c1_elab_nonasap_filtered_scored_top80percent,openbind_xx01zvns2b_c1_elab_chemspace_filtered_scored_top80percent,openbind_xx01zvns2b_c1_elab_chemspace_filtered_scored,openbind_xx01zvns2b_c1_elab_chemspace_filtered_scored_top40percent,openbind_xx01zvns2b_c1_elab_chemspace_filtered_scored_top20percent,openbind_xx01zvns2b_c1_elab_chemspace_filtered_scored_top60percent,openbind_xx01zvns2b_c1_elabs_filtered

>  <smiles>  (434) 
O=C(Nc1cc(C(F)(F)F)cc2cccnc12)c1c2c(nc3ccc(Br)cc13)CCC2

>  <subsites>  (434) 
1 - Z4590/B/203/1

>  <gnina_score>  (434) 
5.903

>  <HIPPO Pose ID>  (434) 
70386

>  <ref_mols>  (434) 
Z0917a,Z0852a

>  <energy_score>  (434) 
-7.989327

>  <inspiration_score>  (434) 
None

>  <smina_score_min>  (434) 
-7.214

>  <fragmenstein_error>  (434) 
nan

>  <name>  (434) 
P70386

$$$$
P70387
     RDKit          3D

 31 34  0  0  0  0  0  0  0  0999 V2000
   -3.0492    6.4488  -23.5850 C   0  0  0  0  0  0  0  0  0  0  0  0
   -3.2348    5.9640  -22.1792 C   0  0  0  0  0  0  0  0  0  0  0  0
   -2.1459    5.9936  -21.3732 N   0  0  0  0  0  0  0  0  0  0  0  0
   -2.2420    5.5819  -20.0862 C   0  0  0  0  0  0  0  0  0  0  0  0
   -1.1998    5.7524  -19.1943 C   0  0  0  0  0  0  0  0  0  0  0  0
   -0.0793    6.3136  -19.6254 F   0  0  0  0  0  0  0  0  0  0  0  0
   -1.2749    5.4403  -17.8436 C   0  0  0  0  0  0  0  0  0  0  0  0
   -0.2497    5.7156  -17.0258 F   0  0  0  0  0  0  0  0  0  0  0  0
   -2.3862    4.8077  -17.3434 C   0  0  0  0  0  0  0  0  0  0  0  0
   -3.4180    4.5383  -18.2205 C   0  0  0  0  0  0  0  0  0  0  0  0
   -3.4063    5.0444  -19.5566 C   0  0  0  0  0  0  0  0  0  0  0  0
   -4.5331    5.1170  -20.3969 C   0  0  0  0  0  0  0  0  0  0  0  0
   -5.8291    4.7589  -19.8340 C   0  0  0  0  0  0  0  0  0  0  0  0
   -6.5013    4.0000  -20.4207 O   0  0  0  0  0  0  0  0  0  0  0  0
   -6.0336    5.4204  -18.4351 N   0  0  0  0  0  0  0  0  0  0  0  0
   -7.0143    5.2167  -17.4800 C   0  0  0  0  0  0  0  0  0  0  0  0
   -6.7334    5.5094  -16.1390 C   0  0  0  0  0  0  0  0  0  0  0  0
   -7.6799    5.2223  -15.1473 C   0  0  0  0  0  0  0  0  0  0  0  0
   -7.5104    5.6787  -13.7248 C   0  0  0  0  0  0  0  0  0  0  0  0
   -7.3713    7.0340  -13.6489 F   0  0  0  0  0  0  0  0  0  0  0  0
   -6.4173    5.1516  -13.1196 F   0  0  0  0  0  0  0  0  0  0  0  0
   -8.5779    5.3849  -12.9307 F   0  0  0  0  0  0  0  0  0  0  0  0
   -8.8575    4.5855  -15.5179 C   0  0  0  0  0  0  0  0  0  0  0  0
   -9.1626    4.4420  -16.8662 C   0  0  0  0  0  0  0  0  0  0  0  0
  -10.4368    4.1272  -17.2643 C   0  0  0  0  0  0  0  0  0  0  0  0
  -10.8639    4.4166  -18.5244 C   0  0  0  0  0  0  0  0  0  0  0  0
   -9.9106    4.7343  -19.4399 C   0  0  0  0  0  0  0  0  0  0  0  0
   -8.6227    4.8343  -19.1334 N   0  0  0  0  0  0  0  0  0  0  0  0
   -8.2583    4.7707  -17.8599 C   0  0  0  0  0  0  0  0  0  0  0  0
   -4.4725    5.5772  -21.7088 C   0  0  0  0  0  0  0  0  0  0  0  0
   -5.5758    5.7120  -22.5025 O   0  0  0  0  0  0  0  0  0  0  0  0
  1  2  1  0
  2  3  2  0
  3  4  1  0
  4  5  2  0
  5  6  1  0
  5  7  1  0
  7  8  1  0
  7  9  2  0
  9 10  1  0
 10 11  2  0
 11 12  1  0
 12 13  1  0
 13 14  2  0
 13 15  1  0
 15 16  1  0
 16 17  2  0
 17 18  1  0
 18 19  1  0
 19 20  1  0
 19 21  1  0
 19 22  1  0
 18 23  2  0
 23 24  1  0
 24 25  2  0
 25 26  1  0
 26 27  2  0
 27 28  1  0
 28 29  2  0
 12 30  2  0
 30 31  1  0
 30  2  1  0
 11  4  1  0
 29 16  1  0
 29 24  1  0
M  END
>  <fragmenstein_outcome>  (435) 
nan

>  <exports>  (435) 
['/opt/xchem-fragalysis-2/maxwin/openbind-hippo/xx01zvns2b/cycle_01/syndirella/elabs/openbind_xx01zvns2b_c1_elab_chemspace_filtered.sdf']

>  <Energy>  (435) 
nan

>  <alias>  (435) 
None

>  <fragmenstein_runtime>  (435) 
nan

>  <scratch_subdir>  (435) 
nan

>  <HIPPO Compound ID>  (435) 
142374

>  <rmsd(smina/fragmenstein)>  (435) 
1.539

>  <distance_score>  (435) 
1.29457

>  <orig_smiles>  (435) 
nan

>  <fragmenstein_mode>  (435) 
nan

>  <inchikey>  (435) 
COJJJHYJMCMKSP-UHFFFAOYSA-N

>  <ref_pdb>  (435) 
Z0852a

>  <GNINA pK>  (435) 
nan

>  <gnina_score_min>  (435) 
5.913

>  <tags>  (435) 
openbind_xx01zvns2b_c1_elab_nonasap_filtered_scored_top80percent,openbind_xx01zvns2b_c1_elab_chemspace_filtered_scored_top80percent,openbind_xx01zvns2b_c1_elab_chemspace_filtered_scored,openbind_xx01zvns2b_c1_elab_chemspace_filtered_scored_top40percent,openbind_xx01zvns2b_c1_elab_chemspace_filtered_scored_top20percent,openbind_xx01zvns2b_c1_elab_chemspace_filtered_scored_top60percent,openbind_xx01zvns2b_c1_elabs_filtered

>  <smiles>  (435) 
Cc1nc2c(F)c(F)ccc2c(C(=O)Nc2cc(C(F)(F)F)cc3cccnc23)c1O

>  <subsites>  (435) 
1 - Z4590/B/203/1

>  <gnina_score>  (435) 
5.802

>  <HIPPO Pose ID>  (435) 
70387

>  <ref_mols>  (435) 
Z0917a,Z0852a

>  <energy_score>  (435) 
-4.728721

>  <inspiration_score>  (435) 
None

>  <smina_score_min>  (435) 
-6.934

>  <fragmenstein_error>  (435) 
nan

>  <name>  (435) 
P70387

$$$$
P70388
     RDKit          3D

 31 34  0  0  0  0  0  0  0  0999 V2000
   -3.0725    6.5146  -23.6063 C   0  0  0  0  0  0  0  0  0  0  0  0
   -3.2511    6.0076  -22.2074 C   0  0  0  0  0  0  0  0  0  0  0  0
   -2.1599    6.0321  -21.4035 N   0  0  0  0  0  0  0  0  0  0  0  0
   -2.2510    5.5996  -20.1227 C   0  0  0  0  0  0  0  0  0  0  0  0
   -1.2109    5.7665  -19.2270 C   0  0  0  0  0  0  0  0  0  0  0  0
   -0.0971    6.3496  -19.6464 F   0  0  0  0  0  0  0  0  0  0  0  0
   -1.2834    5.4319  -17.8817 C   0  0  0  0  0  0  0  0  0  0  0  0
   -0.2626    5.7075  -17.0584 F   0  0  0  0  0  0  0  0  0  0  0  0
   -2.3888    4.7811  -17.3925 C   0  0  0  0  0  0  0  0  0  0  0  0
   -3.4161    4.5138  -18.2749 C   0  0  0  0  0  0  0  0  0  0  0  0
   -3.4101    5.0434  -19.6021 C   0  0  0  0  0  0  0  0  0  0  0  0
   -4.5401    5.1237  -20.4383 C   0  0  0  0  0  0  0  0  0  0  0  0
   -5.8273    4.7329  -19.8773 C   0  0  0  0  0  0  0  0  0  0  0  0
   -6.4753    3.9518  -20.4619 O   0  0  0  0  0  0  0  0  0  0  0  0
   -6.0558    5.3960  -18.4837 N   0  0  0  0  0  0  0  0  0  0  0  0
   -7.0339    5.1700  -17.5310 C   0  0  0  0  0  0  0  0  0  0  0  0
   -6.7494    5.4408  -16.1834 C   0  0  0  0  0  0  0  0  0  0  0  0
   -7.6926    5.1591  -15.1877 C   0  0  0  0  0  0  0  0  0  0  0  0
   -7.5833    5.6242  -13.7362 C   0  0  0  0  0  0  0  0  0  0  0  0
   -7.8826    4.4818  -12.7519 C   0  0  0  0  0  0  0  0  0  0  0  0
   -8.6219    6.7293  -13.5208 C   0  0  0  0  0  0  0  0  0  0  0  0
   -6.2244    6.2385  -13.3779 C   0  0  0  0  0  0  0  0  0  0  0  0
   -8.8705    4.5283  -15.5867 C   0  0  0  0  0  0  0  0  0  0  0  0
   -9.1828    4.4070  -16.9323 C   0  0  0  0  0  0  0  0  0  0  0  0
  -10.4682    4.1282  -17.3218 C   0  0  0  0  0  0  0  0  0  0  0  0
  -10.8913    4.4492  -18.5731 C   0  0  0  0  0  0  0  0  0  0  0  0
   -9.9315    4.7443  -19.4901 C   0  0  0  0  0  0  0  0  0  0  0  0
   -8.6394    4.8036  -19.1935 N   0  0  0  0  0  0  0  0  0  0  0  0
   -8.2768    4.7348  -17.9200 C   0  0  0  0  0  0  0  0  0  0  0  0
   -4.4860    5.6064  -21.7412 C   0  0  0  0  0  0  0  0  0  0  0  0
   -5.5915    5.7462  -22.5302 O   0  0  0  0  0  0  0  0  0  0  0  0
  1  2  1  0
  2  3  2  0
  3  4  1  0
  4  5  2  0
  5  6  1  0
  5  7  1  0
  7  8  1  0
  7  9  2  0
  9 10  1  0
 10 11  2  0
 11 12  1  0
 12 13  1  0
 13 14  2  0
 13 15  1  0
 15 16  1  0
 16 17  2  0
 17 18  1  0
 18 19  1  0
 19 20  1  0
 19 21  1  0
 19 22  1  0
 18 23  2  0
 23 24  1  0
 24 25  2  0
 25 26  1  0
 26 27  2  0
 27 28  1  0
 28 29  2  0
 12 30  2  0
 30 31  1  0
 30  2  1  0
 11  4  1  0
 29 16  1  0
 29 24  1  0
M  END
>  <fragmenstein_outcome>  (436) 
nan

>  <exports>  (436) 
['/opt/xchem-fragalysis-2/maxwin/openbind-hippo/xx01zvns2b/cycle_01/syndirella/elabs/openbind_xx01zvns2b_c1_elab_chemspace_filtered.sdf']

>  <Energy>  (436) 
nan

>  <alias>  (436) 
None

>  <fragmenstein_runtime>  (436) 
nan

>  <scratch_subdir>  (436) 
nan

>  <HIPPO Compound ID>  (436) 
142375

>  <rmsd(smina/fragmenstein)>  (436) 
1.575

>  <distance_score>  (436) 
1.553176

>  <orig_smiles>  (436) 
nan

>  <fragmenstein_mode>  (436) 
nan

>  <inchikey>  (436) 
DPWYRJBYIBMZHR-UHFFFAOYSA-N

>  <ref_pdb>  (436) 
Z0852a

>  <GNINA pK>  (436) 
nan

>  <gnina_score_min>  (436) 
6.183

>  <tags>  (436) 
openbind_xx01zvns2b_c1_elab_nonasap_filtered_scored_top80percent,openbind_xx01zvns2b_c1_elab_chemspace_filtered_scored_top80percent,openbind_xx01zvns2b_c1_elab_chemspace_filtered_scored,openbind_xx01zvns2b_c1_elab_chemspace_filtered_scored_top40percent,openbind_xx01zvns2b_c1_elab_chemspace_filtered_scored_top20percent,openbind_xx01zvns2b_c1_elab_chemspace_filtered_scored_top60percent,openbind_xx01zvns2b_c1_elabs_filtered

>  <smiles>  (436) 
Cc1nc2c(F)c(F)ccc2c(C(=O)Nc2cc(C(C)(C)C)cc3cccnc23)c1O

>  <subsites>  (436) 
1 - Z4590/B/203/1

>  <gnina_score>  (436) 
5.958

>  <HIPPO Pose ID>  (436) 
70388

>  <ref_mols>  (436) 
Z0917a,Z0852a

>  <energy_score>  (436) 
-27.976676

>  <inspiration_score>  (436) 
None

>  <smina_score_min>  (436) 
-6.979

>  <fragmenstein_error>  (436) 
nan

>  <name>  (436) 
P70388

$$$$
P70389
     RDKit          3D

 31 35  0  0  0  0  0  0  0  0999 V2000
   -5.8409    4.1229  -20.4567 O   0  0  0  0  0  0  0  0  0  0  0  0
   -5.2515    4.9099  -19.8200 C   0  0  0  0  0  0  0  0  0  0  0  0
   -5.5616    5.5086  -18.4120 N   0  0  0  0  0  0  0  0  0  0  0  0
   -6.5803    5.1968  -17.4897 C   0  0  0  0  0  0  0  0  0  0  0  0
   -6.3750    5.5321  -16.1349 C   0  0  0  0  0  0  0  0  0  0  0  0
   -7.3642    5.2827  -15.1630 C   0  0  0  0  0  0  0  0  0  0  0  0
   -7.2735    5.7817  -13.7464 C   0  0  0  0  0  0  0  0  0  0  0  0
   -7.1815    7.1415  -13.6969 F   0  0  0  0  0  0  0  0  0  0  0  0
   -8.3667    5.4741  -12.9886 F   0  0  0  0  0  0  0  0  0  0  0  0
   -6.1968    5.3006  -13.0774 F   0  0  0  0  0  0  0  0  0  0  0  0
   -8.5336    4.6520  -15.5483 C   0  0  0  0  0  0  0  0  0  0  0  0
   -8.7748    4.4508  -16.8914 C   0  0  0  0  0  0  0  0  0  0  0  0
  -10.0669    4.1647  -17.2467 C   0  0  0  0  0  0  0  0  0  0  0  0
  -10.4638    4.3296  -18.5366 C   0  0  0  0  0  0  0  0  0  0  0  0
   -9.4768    4.4841  -19.4685 C   0  0  0  0  0  0  0  0  0  0  0  0
   -8.1757    4.6013  -19.1681 N   0  0  0  0  0  0  0  0  0  0  0  0
   -7.8207    4.6973  -17.8887 C   0  0  0  0  0  0  0  0  0  0  0  0
   -3.9712    5.4206  -20.3745 C   0  0  0  0  0  0  0  0  0  0  0  0
   -2.8085    5.3135  -19.6327 C   0  0  0  0  0  0  0  0  0  0  0  0
   -1.6225    5.7111  -20.2302 C   0  0  0  0  0  0  0  0  0  0  0  0
   -1.5018    6.1864  -21.4730 N   0  0  0  0  0  0  0  0  0  0  0  0
   -2.6233    6.3083  -22.1856 C   0  0  0  0  0  0  0  0  0  0  0  0
   -2.4917    6.8527  -23.4536 C   0  0  0  0  0  0  0  0  0  0  0  0
   -3.5978    7.1182  -24.2557 C   0  0  0  0  0  0  0  0  0  0  0  0
   -4.8633    6.8204  -23.7789 C   0  0  0  0  0  0  0  0  0  0  0  0
   -6.2294    7.2204  -24.7391 Cl  0  0  0  0  0  0  0  0  0  0  0  0
   -5.0196    6.2283  -22.5251 C   0  0  0  0  0  0  0  0  0  0  0  0
   -3.9059    5.9621  -21.6924 C   0  0  0  0  0  0  0  0  0  0  0  0
   -0.4646    5.6104  -19.2772 C   0  0  0  0  0  0  0  0  0  0  0  0
   -1.2365    5.5991  -17.9577 C   0  0  0  0  0  0  0  0  0  0  0  0
   -2.5203    4.8048  -18.2569 C   0  0  0  0  0  0  0  0  0  0  0  0
  1  2  2  0
  2  3  1  0
  3  4  1  0
  4  5  2  0
  5  6  1  0
  6  7  1  0
  7  8  1  0
  7  9  1  0
  7 10  1  0
  6 11  2  0
 11 12  1  0
 12 13  2  0
 13 14  1  0
 14 15  2  0
 15 16  1  0
 16 17  2  0
  2 18  1  0
 18 19  2  0
 19 20  1  0
 20 21  2  0
 21 22  1  0
 22 23  2  0
 23 24  1  0
 24 25  2  0
 25 26  1  0
 25 27  1  0
 27 28  2  0
 20 29  1  0
 29 30  1  0
 30 31  1  0
 17  4  1  0
 28 18  1  0
 17 12  1  0
 31 19  1  0
 28 22  1  0
M  END
>  <fragmenstein_outcome>  (437) 
nan

>  <exports>  (437) 
['/opt/xchem-fragalysis-2/maxwin/openbind-hippo/xx01zvns2b/cycle_01/syndirella/elabs/openbind_xx01zvns2b_c1_elab_chemspace_filtered.sdf']

>  <Energy>  (437) 
nan

>  <alias>  (437) 
None

>  <fragmenstein_runtime>  (437) 
nan

>  <scratch_subdir>  (437) 
nan

>  <HIPPO Compound ID>  (437) 
142376

>  <rmsd(smina/fragmenstein)>  (437) 
0.695

>  <distance_score>  (437) 
1.118393

>  <orig_smiles>  (437) 
nan

>  <fragmenstein_mode>  (437) 
nan

>  <inchikey>  (437) 
HGWRXVLBQQFPGK-UHFFFAOYSA-N

>  <ref_pdb>  (437) 
Z0852a

>  <GNINA pK>  (437) 
nan

>  <gnina_score_min>  (437) 
6.386

>  <tags>  (437) 
openbind_xx01zvns2b_c1_elab_nonasap_filtered_scored_top80percent,openbind_xx01zvns2b_c1_elab_chemspace_filtered_scored_top80percent,openbind_xx01zvns2b_c1_elab_chemspace_filtered_scored,openbind_xx01zvns2b_c1_elab_chemspace_filtered_scored_top40percent,openbind_xx01zvns2b_c1_elab_chemspace_filtered_scored_top20percent,openbind_xx01zvns2b_c1_elab_chemspace_filtered_scored_top60percent,openbind_xx01zvns2b_c1_elabs_filtered

>  <smiles>  (437) 
O=C(Nc1cc(C(F)(F)F)cc2cccnc12)c1c2c(nc3ccc(Cl)cc13)CCC2

>  <subsites>  (437) 
1 - Z4590/B/203/1

>  <gnina_score>  (437) 
5.883

>  <HIPPO Pose ID>  (437) 
70389

>  <ref_mols>  (437) 
Z0917a,Z0852a

>  <energy_score>  (437) 
-8.316071

>  <inspiration_score>  (437) 
None

>  <smina_score_min>  (437) 
-7.246

>  <fragmenstein_error>  (437) 
nan

>  <name>  (437) 
P70389

$$$$
P70390
     RDKit          3D

 31 35  0  0  0  0  0  0  0  0999 V2000
   -6.0982    4.8400  -13.2661 C   0  0  0  0  0  0  0  0  0  0  0  0
   -7.2310    5.7004  -13.8117 C   0  0  0  0  0  0  0  0  0  0  0  0
   -8.4664    5.4851  -12.9062 C   0  0  0  0  0  0  0  0  0  0  0  0
   -6.8716    7.1925  -13.7053 C   0  0  0  0  0  0  0  0  0  0  0  0
   -7.4235    5.2913  -15.2690 C   0  0  0  0  0  0  0  0  0  0  0  0
   -6.4253    5.4859  -16.2502 C   0  0  0  0  0  0  0  0  0  0  0  0
   -6.6108    5.1215  -17.5993 C   0  0  0  0  0  0  0  0  0  0  0  0
   -5.5301    5.3586  -18.4714 N   0  0  0  0  0  0  0  0  0  0  0  0
   -5.2695    4.8499  -19.9223 C   0  0  0  0  0  0  0  0  0  0  0  0
   -5.8755    4.0957  -20.5827 O   0  0  0  0  0  0  0  0  0  0  0  0
   -3.9903    5.3837  -20.4666 C   0  0  0  0  0  0  0  0  0  0  0  0
   -2.8259    5.2850  -19.7223 C   0  0  0  0  0  0  0  0  0  0  0  0
   -1.6431    5.7015  -20.3143 C   0  0  0  0  0  0  0  0  0  0  0  0
   -1.5258    6.1909  -21.5519 N   0  0  0  0  0  0  0  0  0  0  0  0
   -2.6484    6.3130  -22.2619 C   0  0  0  0  0  0  0  0  0  0  0  0
   -2.5205    6.8782  -23.5212 C   0  0  0  0  0  0  0  0  0  0  0  0
   -3.6281    7.1488  -24.3195 C   0  0  0  0  0  0  0  0  0  0  0  0
   -4.8915    6.8359  -23.8473 C   0  0  0  0  0  0  0  0  0  0  0  0
   -6.2604    7.2423  -24.8009 Cl  0  0  0  0  0  0  0  0  0  0  0  0
   -5.0435    6.2231  -22.6030 C   0  0  0  0  0  0  0  0  0  0  0  0
   -3.9284    5.9484  -21.7748 C   0  0  0  0  0  0  0  0  0  0  0  0
   -0.4846    5.6074  -19.3617 C   0  0  0  0  0  0  0  0  0  0  0  0
   -1.2565    5.5818  -18.0438 C   0  0  0  0  0  0  0  0  0  0  0  0
   -2.5307    4.7737  -18.3472 C   0  0  0  0  0  0  0  0  0  0  0  0
   -7.8544    4.6503  -18.0003 C   0  0  0  0  0  0  0  0  0  0  0  0
   -8.1920    4.5156  -19.2782 N   0  0  0  0  0  0  0  0  0  0  0  0
   -9.4955    4.4740  -19.5819 C   0  0  0  0  0  0  0  0  0  0  0  0
  -10.5016    4.4089  -18.6604 C   0  0  0  0  0  0  0  0  0  0  0  0
  -10.1302    4.2275  -17.3700 C   0  0  0  0  0  0  0  0  0  0  0  0
   -8.8313    4.4701  -17.0105 C   0  0  0  0  0  0  0  0  0  0  0  0
   -8.6023    4.6928  -15.6699 C   0  0  0  0  0  0  0  0  0  0  0  0
  1  2  1  0
  2  3  1  0
  2  4  1  0
  2  5  1  0
  5  6  2  0
  6  7  1  0
  7  8  1  0
  8  9  1  0
  9 10  2  0
  9 11  1  0
 11 12  2  0
 12 13  1  0
 13 14  2  0
 14 15  1  0
 15 16  2  0
 16 17  1  0
 17 18  2  0
 18 19  1  0
 18 20  1  0
 20 21  2  0
 13 22  1  0
 22 23  1  0
 23 24  1  0
  7 25  2  0
 25 26  1  0
 26 27  2  0
 27 28  1  0
 28 29  2  0
 29 30  1  0
 30 31  2  0
 31  5  1  0
 21 11  1  0
 30 25  1  0
 24 12  1  0
 21 15  1  0
M  END
>  <fragmenstein_outcome>  (438) 
nan

>  <exports>  (438) 
['/opt/xchem-fragalysis-2/maxwin/openbind-hippo/xx01zvns2b/cycle_01/syndirella/elabs/openbind_xx01zvns2b_c1_elab_chemspace_filtered.sdf']

>  <Energy>  (438) 
nan

>  <alias>  (438) 
None

>  <fragmenstein_runtime>  (438) 
nan

>  <scratch_subdir>  (438) 
nan

>  <HIPPO Compound ID>  (438) 
142377

>  <rmsd(smina/fragmenstein)>  (438) 
0.706

>  <distance_score>  (438) 
1.448993

>  <orig_smiles>  (438) 
nan

>  <fragmenstein_mode>  (438) 
nan

>  <inchikey>  (438) 
IROWQKMMAKZTMZ-UHFFFAOYSA-N

>  <ref_pdb>  (438) 
Z0852a

>  <GNINA pK>  (438) 
nan

>  <gnina_score_min>  (438) 
6.695

>  <tags>  (438) 
openbind_xx01zvns2b_c1_elab_nonasap_filtered_scored_top80percent,openbind_xx01zvns2b_c1_elab_chemspace_filtered_scored_top80percent,openbind_xx01zvns2b_c1_elab_chemspace_filtered_scored,openbind_xx01zvns2b_c1_elab_chemspace_filtered_scored_top40percent,openbind_xx01zvns2b_c1_elab_chemspace_filtered_scored_top20percent,openbind_xx01zvns2b_c1_elab_chemspace_filtered_scored_top60percent,openbind_xx01zvns2b_c1_elabs_filtered

>  <smiles>  (438) 
CC(C)(C)c1cc(NC(=O)c2c3c(nc4ccc(Cl)cc24)CCC3)c2ncccc2c1

>  <subsites>  (438) 
1 - Z4590/B/203/1

>  <gnina_score>  (438) 
6.025

>  <HIPPO Pose ID>  (438) 
70390

>  <ref_mols>  (438) 
Z0917a,Z0852a

>  <energy_score>  (438) 
-13.780094

>  <inspiration_score>  (438) 
None

>  <smina_score_min>  (438) 
-7.484

>  <fragmenstein_error>  (438) 
nan

>  <name>  (438) 
P70390

$$$$
P70391
     RDKit          3D

 31 35  0  0  0  0  0  0  0  0999 V2000
   -5.9140    3.9641  -20.3216 O   0  0  0  0  0  0  0  0  0  0  0  0
   -5.2911    4.7293  -19.6908 C   0  0  0  0  0  0  0  0  0  0  0  0
   -5.5891    5.3739  -18.3053 N   0  0  0  0  0  0  0  0  0  0  0  0
   -6.6332    5.1433  -17.4010 C   0  0  0  0  0  0  0  0  0  0  0  0
   -6.4361    5.4866  -16.0516 C   0  0  0  0  0  0  0  0  0  0  0  0
   -7.4442    5.2600  -15.0982 C   0  0  0  0  0  0  0  0  0  0  0  0
   -7.3539    5.7584  -13.6827 C   0  0  0  0  0  0  0  0  0  0  0  0
   -8.4515    5.4580  -12.9298 F   0  0  0  0  0  0  0  0  0  0  0  0
   -6.2817    5.2721  -13.0105 F   0  0  0  0  0  0  0  0  0  0  0  0
   -7.2538    7.1179  -13.6355 F   0  0  0  0  0  0  0  0  0  0  0  0
   -8.6197    4.6475  -15.5011 C   0  0  0  0  0  0  0  0  0  0  0  0
   -8.8484    4.4473  -16.8490 C   0  0  0  0  0  0  0  0  0  0  0  0
  -10.1322    4.1658  -17.2386 C   0  0  0  0  0  0  0  0  0  0  0  0
  -10.5076    4.3486  -18.5328 C   0  0  0  0  0  0  0  0  0  0  0  0
   -9.5059    4.5132  -19.4444 C   0  0  0  0  0  0  0  0  0  0  0  0
   -8.2121    4.6186  -19.1154 N   0  0  0  0  0  0  0  0  0  0  0  0
   -7.8785    4.6837  -17.8263 C   0  0  0  0  0  0  0  0  0  0  0  0
   -4.0174    5.1973  -20.2963 C   0  0  0  0  0  0  0  0  0  0  0  0
   -4.0771    5.3934  -21.6808 C   0  0  0  0  0  0  0  0  0  0  0  0
   -2.9558    5.8212  -22.3625 C   0  0  0  0  0  0  0  0  0  0  0  0
   -2.9705    6.0081  -23.8593 C   0  0  0  0  0  0  0  0  0  0  0  0
   -2.5717    7.3405  -24.4512 C   0  0  0  0  0  0  0  0  0  0  0  0
   -4.0018    6.8967  -24.5181 C   0  0  0  0  0  0  0  0  0  0  0  0
   -1.8122    6.0817  -21.6923 N   0  0  0  0  0  0  0  0  0  0  0  0
   -1.7431    5.8982  -20.3659 C   0  0  0  0  0  0  0  0  0  0  0  0
   -0.5541    6.2443  -19.7384 C   0  0  0  0  0  0  0  0  0  0  0  0
   -0.3971    6.1667  -18.3542 C   0  0  0  0  0  0  0  0  0  0  0  0
   -1.4332    5.6636  -17.5868 C   0  0  0  0  0  0  0  0  0  0  0  0
   -1.3017    5.6385  -15.8707 Cl  0  0  0  0  0  0  0  0  0  0  0  0
   -2.6014    5.2157  -18.1997 C   0  0  0  0  0  0  0  0  0  0  0  0
   -2.8143    5.4158  -19.5910 C   0  0  0  0  0  0  0  0  0  0  0  0
  1  2  2  0
  2  3  1  0
  3  4  1  0
  4  5  2  0
  5  6  1  0
  6  7  1  0
  7  8  1  0
  7  9  1  0
  7 10  1  0
  6 11  2  0
 11 12  1  0
 12 13  2  0
 13 14  1  0
 14 15  2  0
 15 16  1  0
 16 17  2  0
  2 18  1  0
 18 19  2  0
 19 20  1  0
 20 21  1  0
 21 22  1  0
 22 23  1  0
 20 24  2  0
 24 25  1  0
 25 26  2  0
 26 27  1  0
 27 28  2  0
 28 29  1  0
 28 30  1  0
 30 31  2  0
 17  4  1  0
 31 18  1  0
 17 12  1  0
 23 21  1  0
 31 25  1  0
M  END
>  <fragmenstein_outcome>  (439) 
nan

>  <exports>  (439) 
['/opt/xchem-fragalysis-2/maxwin/openbind-hippo/xx01zvns2b/cycle_01/syndirella/elabs/openbind_xx01zvns2b_c1_elab_chemspace_filtered.sdf']

>  <Energy>  (439) 
nan

>  <alias>  (439) 
None

>  <fragmenstein_runtime>  (439) 
nan

>  <scratch_subdir>  (439) 
nan

>  <HIPPO Compound ID>  (439) 
142378

>  <rmsd(smina/fragmenstein)>  (439) 
2.588

>  <distance_score>  (439) 
1.067267

>  <orig_smiles>  (439) 
nan

>  <fragmenstein_mode>  (439) 
nan

>  <inchikey>  (439) 
GYPDLELRDIUXPM-UHFFFAOYSA-N

>  <ref_pdb>  (439) 
Z0852a

>  <GNINA pK>  (439) 
nan

>  <gnina_score_min>  (439) 
6.202

>  <tags>  (439) 
openbind_xx01zvns2b_c1_elab_nonasap_filtered_scored_top80percent,openbind_xx01zvns2b_c1_elab_chemspace_filtered_scored_top80percent,openbind_xx01zvns2b_c1_elab_chemspace_filtered_scored,openbind_xx01zvns2b_c1_elab_chemspace_filtered_scored_top40percent,openbind_xx01zvns2b_c1_elab_chemspace_filtered_scored_top20percent,openbind_xx01zvns2b_c1_elab_chemspace_filtered_scored_top60percent,openbind_xx01zvns2b_c1_elabs_filtered

>  <smiles>  (439) 
O=C(Nc1cc(C(F)(F)F)cc2cccnc12)c1cc(C2CC2)nc2ccc(Cl)cc12

>  <subsites>  (439) 
1 - Z4590/B/203/1

>  <gnina_score>  (439) 
6.135

>  <HIPPO Pose ID>  (439) 
70391

>  <ref_mols>  (439) 
Z0917a,Z0852a

>  <energy_score>  (439) 
-4.378339

>  <inspiration_score>  (439) 
None

>  <smina_score_min>  (439) 
-6.486

>  <fragmenstein_error>  (439) 
nan

>  <name>  (439) 
P70391

$$$$
P70392
     RDKit          3D

 31 35  0  0  0  0  0  0  0  0999 V2000
   -6.1025    6.2907  -13.2760 C   0  0  0  0  0  0  0  0  0  0  0  0
   -7.4457    5.6848  -13.6948 C   0  0  0  0  0  0  0  0  0  0  0  0
   -8.4809    6.8077  -13.5682 C   0  0  0  0  0  0  0  0  0  0  0  0
   -7.8196    4.5733  -12.6980 C   0  0  0  0  0  0  0  0  0  0  0  0
   -7.4739    5.1804  -15.1376 C   0  0  0  0  0  0  0  0  0  0  0  0
   -6.4690    5.4095  -16.0938 C   0  0  0  0  0  0  0  0  0  0  0  0
   -6.6686    5.0940  -17.4524 C   0  0  0  0  0  0  0  0  0  0  0  0
   -5.6344    5.3601  -18.3587 N   0  0  0  0  0  0  0  0  0  0  0  0
   -5.3104    4.7182  -19.7384 C   0  0  0  0  0  0  0  0  0  0  0  0
   -5.9014    3.9237  -20.3634 O   0  0  0  0  0  0  0  0  0  0  0  0
   -4.0358    5.1992  -20.3291 C   0  0  0  0  0  0  0  0  0  0  0  0
   -4.0921    5.4139  -21.7104 C   0  0  0  0  0  0  0  0  0  0  0  0
   -2.9701    5.8548  -22.3821 C   0  0  0  0  0  0  0  0  0  0  0  0
   -2.9806    6.0574  -23.8769 C   0  0  0  0  0  0  0  0  0  0  0  0
   -2.5856    7.3974  -24.4538 C   0  0  0  0  0  0  0  0  0  0  0  0
   -4.0137    6.9485  -24.5295 C   0  0  0  0  0  0  0  0  0  0  0  0
   -1.8306    6.1144  -21.7042 N   0  0  0  0  0  0  0  0  0  0  0  0
   -1.7656    5.9132  -20.3798 C   0  0  0  0  0  0  0  0  0  0  0  0
   -0.5829    6.2619  -19.7418 C   0  0  0  0  0  0  0  0  0  0  0  0
   -0.4328    6.1695  -18.3577 C   0  0  0  0  0  0  0  0  0  0  0  0
   -1.4668    5.6441  -17.6025 C   0  0  0  0  0  0  0  0  0  0  0  0
   -1.3485    5.6080  -15.8853 Cl  0  0  0  0  0  0  0  0  0  0  0  0
   -2.6245    5.1873  -18.2280 C   0  0  0  0  0  0  0  0  0  0  0  0
   -2.8356    5.4108  -19.6162 C   0  0  0  0  0  0  0  0  0  0  0  0
   -7.9116    4.6459  -17.8897 C   0  0  0  0  0  0  0  0  0  0  0  0
   -8.2436    4.5981  -19.1798 N   0  0  0  0  0  0  0  0  0  0  0  0
   -9.5410    4.5370  -19.5037 C   0  0  0  0  0  0  0  0  0  0  0  0
  -10.5483    4.3971  -18.5947 C   0  0  0  0  0  0  0  0  0  0  0  0
  -10.1771    4.1692  -17.3089 C   0  0  0  0  0  0  0  0  0  0  0  0
   -8.8827    4.4042  -16.9210 C   0  0  0  0  0  0  0  0  0  0  0  0
   -8.6457    4.5706  -15.5726 C   0  0  0  0  0  0  0  0  0  0  0  0
  1  2  1  0
  2  3  1  0
  2  4  1  0
  2  5  1  0
  5  6  2  0
  6  7  1  0
  7  8  1  0
  8  9  1  0
  9 10  2  0
  9 11  1  0
 11 12  2  0
 12 13  1  0
 13 14  1  0
 14 15  1  0
 15 16  1  0
 13 17  2  0
 17 18  1  0
 18 19  2  0
 19 20  1  0
 20 21  2  0
 21 22  1  0
 21 23  1  0
 23 24  2  0
  7 25  2  0
 25 26  1  0
 26 27  2  0
 27 28  1  0
 28 29  2  0
 29 30  1  0
 30 31  2  0
 31  5  1  0
 24 11  1  0
 30 25  1  0
 16 14  1  0
 24 18  1  0
M  END
>  <fragmenstein_outcome>  (440) 
nan

>  <exports>  (440) 
['/opt/xchem-fragalysis-2/maxwin/openbind-hippo/xx01zvns2b/cycle_01/syndirella/elabs/openbind_xx01zvns2b_c1_elab_chemspace_filtered.sdf']

>  <Energy>  (440) 
nan

>  <alias>  (440) 
None

>  <fragmenstein_runtime>  (440) 
nan

>  <scratch_subdir>  (440) 
nan

>  <HIPPO Compound ID>  (440) 
142379

>  <rmsd(smina/fragmenstein)>  (440) 
3.014

>  <distance_score>  (440) 
1.479907

>  <orig_smiles>  (440) 
nan

>  <fragmenstein_mode>  (440) 
nan

>  <inchikey>  (440) 
SOUCJILWLIRZRL-UHFFFAOYSA-N

>  <ref_pdb>  (440) 
Z0852a

>  <GNINA pK>  (440) 
nan

>  <gnina_score_min>  (440) 
6.33

>  <tags>  (440) 
openbind_xx01zvns2b_c1_elab_nonasap_filtered_scored_top80percent,openbind_xx01zvns2b_c1_elab_chemspace_filtered_scored_top80percent,openbind_xx01zvns2b_c1_elab_chemspace_filtered_scored,openbind_xx01zvns2b_c1_elab_chemspace_filtered_scored_top40percent,openbind_xx01zvns2b_c1_elab_chemspace_filtered_scored_top20percent,openbind_xx01zvns2b_c1_elab_chemspace_filtered_scored_top60percent,openbind_xx01zvns2b_c1_elabs_filtered

>  <smiles>  (440) 
CC(C)(C)c1cc(NC(=O)c2cc(C3CC3)nc3ccc(Cl)cc23)c2ncccc2c1

>  <subsites>  (440) 
1 - Z4590/B/203/1

>  <gnina_score>  (440) 
6.271

>  <HIPPO Pose ID>  (440) 
70392

>  <ref_mols>  (440) 
Z0917a,Z0852a

>  <energy_score>  (440) 
-15.26602

>  <inspiration_score>  (440) 
None

>  <smina_score_min>  (440) 
-6.371

>  <fragmenstein_error>  (440) 
nan

>  <name>  (440) 
P70392

$$$$
P70393
     RDKit          3D

 31 35  0  0  0  0  0  0  0  0999 V2000
   -6.5562    5.0535  -11.4186 C   0  0  0  0  0  0  0  0  0  0  0  0
   -7.0245    4.9235  -12.7612 O   0  0  0  0  0  0  0  0  0  0  0  0
   -6.1036    5.2401  -13.7036 C   0  0  0  0  0  0  0  0  0  0  0  0
   -4.9676    5.6365  -13.4929 O   0  0  0  0  0  0  0  0  0  0  0  0
   -6.6644    5.0628  -15.0682 C   0  0  0  0  0  0  0  0  0  0  0  0
   -5.8627    5.3893  -16.1625 C   0  0  0  0  0  0  0  0  0  0  0  0
   -6.3192    5.1912  -17.4738 C   0  0  0  0  0  0  0  0  0  0  0  0
   -5.3878    5.4282  -18.4838 N   0  0  0  0  0  0  0  0  0  0  0  0
   -5.2333    4.7796  -19.8832 C   0  0  0  0  0  0  0  0  0  0  0  0
   -5.9082    4.0016  -20.4367 O   0  0  0  0  0  0  0  0  0  0  0  0
   -3.9868    5.2229  -20.5617 C   0  0  0  0  0  0  0  0  0  0  0  0
   -4.1258    5.4454  -21.9321 C   0  0  0  0  0  0  0  0  0  0  0  0
   -3.0375    5.8728  -22.6650 C   0  0  0  0  0  0  0  0  0  0  0  0
   -3.1307    6.0929  -24.1550 C   0  0  0  0  0  0  0  0  0  0  0  0
   -2.7949    7.4490  -24.7321 C   0  0  0  0  0  0  0  0  0  0  0  0
   -4.2144    6.9675  -24.7450 C   0  0  0  0  0  0  0  0  0  0  0  0
   -1.8549    6.1091  -22.0560 N   0  0  0  0  0  0  0  0  0  0  0  0
   -1.7149    5.9097  -20.7359 C   0  0  0  0  0  0  0  0  0  0  0  0
   -0.4981    6.2549  -20.1676 C   0  0  0  0  0  0  0  0  0  0  0  0
   -0.2725    6.1789  -18.7930 C   0  0  0  0  0  0  0  0  0  0  0  0
   -1.2577    5.6651  -17.9586 C   0  0  0  0  0  0  0  0  0  0  0  0
   -1.0739    5.6809  -16.4687 C   0  0  0  0  0  0  0  0  0  0  0  0
   -2.4512    5.2131  -18.5334 C   0  0  0  0  0  0  0  0  0  0  0  0
   -2.7426    5.4223  -19.9134 C   0  0  0  0  0  0  0  0  0  0  0  0
   -7.6243    4.7736  -17.7238 C   0  0  0  0  0  0  0  0  0  0  0  0
   -8.1389    4.7539  -18.9583 N   0  0  0  0  0  0  0  0  0  0  0  0
   -9.4443    4.4956  -19.1254 C   0  0  0  0  0  0  0  0  0  0  0  0
  -10.2877    4.1817  -18.0919 C   0  0  0  0  0  0  0  0  0  0  0  0
   -9.7404    4.1273  -16.8279 C   0  0  0  0  0  0  0  0  0  0  0  0
   -8.4241    4.4805  -16.6108 C   0  0  0  0  0  0  0  0  0  0  0  0
   -7.9492    4.5825  -15.2987 C   0  0  0  0  0  0  0  0  0  0  0  0
  1  2  1  0
  2  3  1  0
  3  4  2  0
  3  5  1  0
  5  6  2  0
  6  7  1  0
  7  8  1  0
  8  9  1  0
  9 10  2  0
  9 11  1  0
 11 12  2  0
 12 13  1  0
 13 14  1  0
 14 15  1  0
 15 16  1  0
 13 17  2  0
 17 18  1  0
 18 19  2  0
 19 20  1  0
 20 21  2  0
 21 22  1  0
 21 23  1  0
 23 24  2  0
  7 25  2  0
 25 26  1  0
 26 27  2  0
 27 28  1  0
 28 29  2  0
 29 30  1  0
 30 31  2  0
 31  5  1  0
 24 11  1  0
 30 25  1  0
 16 14  1  0
 24 18  1  0
M  END
>  <fragmenstein_outcome>  (441) 
nan

>  <exports>  (441) 
['/opt/xchem-fragalysis-2/maxwin/openbind-hippo/xx01zvns2b/cycle_01/syndirella/elabs/openbind_xx01zvns2b_c1_elab_chemspace_filtered.sdf']

>  <Energy>  (441) 
nan

>  <alias>  (441) 
None

>  <fragmenstein_runtime>  (441) 
nan

>  <scratch_subdir>  (441) 
nan

>  <HIPPO Compound ID>  (441) 
142380

>  <rmsd(smina/fragmenstein)>  (441) 
1.888

>  <distance_score>  (441) 
1.473811

>  <orig_smiles>  (441) 
nan

>  <fragmenstein_mode>  (441) 
nan

>  <inchikey>  (441) 
SEAMDHYRLQDGSS-UHFFFAOYSA-N

>  <ref_pdb>  (441) 
Z0852a

>  <GNINA pK>  (441) 
nan

>  <gnina_score_min>  (441) 
6.197

>  <tags>  (441) 
openbind_xx01zvns2b_c1_elab_nonasap_filtered_scored_top80percent,openbind_xx01zvns2b_c1_elab_chemspace_filtered_scored_top80percent,openbind_xx01zvns2b_c1_elab_chemspace_filtered_scored,openbind_xx01zvns2b_c1_elab_chemspace_filtered_scored_top40percent,openbind_xx01zvns2b_c1_elab_chemspace_filtered_scored_top20percent,openbind_xx01zvns2b_c1_elab_chemspace_filtered_scored_top60percent,openbind_xx01zvns2b_c1_elabs_filtered

>  <smiles>  (441) 
COC(=O)c1cc(NC(=O)c2cc(C3CC3)nc3ccc(C)cc23)c2ncccc2c1

>  <subsites>  (441) 
1 - Z4590/B/203/1

>  <gnina_score>  (441) 
6.239

>  <HIPPO Pose ID>  (441) 
70393

>  <ref_mols>  (441) 
Z0917a,Z0852a

>  <energy_score>  (441) 
-17.393804

>  <inspiration_score>  (441) 
None

>  <smina_score_min>  (441) 
-6.45

>  <fragmenstein_error>  (441) 
nan

>  <name>  (441) 
P70393

$$$$
P70394
     RDKit          3D

 31 35  0  0  0  0  0  0  0  0999 V2000
   -1.4189    5.5509  -16.2102 C   0  0  0  0  0  0  0  0  0  0  0  0
   -1.5075    5.5834  -17.7080 C   0  0  0  0  0  0  0  0  0  0  0  0
   -0.4744    6.1210  -18.4670 C   0  0  0  0  0  0  0  0  0  0  0  0
   -0.6091    6.2199  -19.8529 C   0  0  0  0  0  0  0  0  0  0  0  0
   -1.7819    5.8738  -20.5075 C   0  0  0  0  0  0  0  0  0  0  0  0
   -1.8359    6.0835  -21.8328 N   0  0  0  0  0  0  0  0  0  0  0  0
   -2.9738    5.8403  -22.5200 C   0  0  0  0  0  0  0  0  0  0  0  0
   -2.9732    6.0612  -24.0125 C   0  0  0  0  0  0  0  0  0  0  0  0
   -3.9936    6.9699  -24.6606 C   0  0  0  0  0  0  0  0  0  0  0  0
   -2.5618    7.4043  -24.5705 C   0  0  0  0  0  0  0  0  0  0  0  0
   -4.1047    5.4022  -21.8615 C   0  0  0  0  0  0  0  0  0  0  0  0
   -4.0546    5.1691  -20.4864 C   0  0  0  0  0  0  0  0  0  0  0  0
   -5.3386    4.7107  -19.8940 C   0  0  0  0  0  0  0  0  0  0  0  0
   -5.9726    3.9397  -20.5047 O   0  0  0  0  0  0  0  0  0  0  0  0
   -5.6042    5.3596  -18.5087 N   0  0  0  0  0  0  0  0  0  0  0  0
   -6.6216    5.1297  -17.5792 C   0  0  0  0  0  0  0  0  0  0  0  0
   -6.3496    5.4724  -16.2459 C   0  0  0  0  0  0  0  0  0  0  0  0
   -7.2868    5.2702  -15.2170 C   0  0  0  0  0  0  0  0  0  0  0  0
   -7.0740    5.7235  -13.7756 C   0  0  0  0  0  0  0  0  0  0  0  0
   -8.1701    6.7173  -13.3380 C   0  0  0  0  0  0  0  0  0  0  0  0
   -5.7406    6.4468  -13.6061 C   0  0  0  0  0  0  0  0  0  0  0  0
   -7.0776    4.5121  -12.8321 C   0  0  0  0  0  0  0  0  0  0  0  0
   -8.4868    4.6633  -15.5590 C   0  0  0  0  0  0  0  0  0  0  0  0
   -8.7921    4.4499  -16.8934 C   0  0  0  0  0  0  0  0  0  0  0  0
  -10.0925    4.1560  -17.2093 C   0  0  0  0  0  0  0  0  0  0  0  0
  -10.5383    4.3275  -18.4850 C   0  0  0  0  0  0  0  0  0  0  0  0
   -9.5877    4.5142  -19.4495 C   0  0  0  0  0  0  0  0  0  0  0  0
   -8.2774    4.6019  -19.1967 N   0  0  0  0  0  0  0  0  0  0  0  0
   -7.8810    4.6732  -17.9284 C   0  0  0  0  0  0  0  0  0  0  0  0
   -2.8578    5.3702  -19.7593 C   0  0  0  0  0  0  0  0  0  0  0  0
   -2.6599    5.1420  -18.3669 C   0  0  0  0  0  0  0  0  0  0  0  0
  1  2  1  0
  2  3  2  0
  3  4  1  0
  4  5  2  0
  5  6  1  0
  6  7  2  0
  7  8  1  0
  8  9  1  0
  9 10  1  0
  7 11  1  0
 11 12  2  0
 12 13  1  0
 13 14  2  0
 13 15  1  0
 15 16  1  0
 16 17  2  0
 17 18  1  0
 18 19  1  0
 19 20  1  0
 19 21  1  0
 19 22  1  0
 18 23  2  0
 23 24  1  0
 24 25  2  0
 25 26  1  0
 26 27  2  0
 27 28  1  0
 28 29  2  0
 12 30  1  0
 30 31  2  0
 31  2  1  0
 30  5  1  0
 10  8  1  0
 29 16  1  0
 29 24  1  0
M  END
>  <fragmenstein_outcome>  (442) 
nan

>  <exports>  (442) 
['/opt/xchem-fragalysis-2/maxwin/openbind-hippo/xx01zvns2b/cycle_01/syndirella/elabs/openbind_xx01zvns2b_c1_elab_chemspace_filtered.sdf']

>  <Energy>  (442) 
nan

>  <alias>  (442) 
None

>  <fragmenstein_runtime>  (442) 
nan

>  <scratch_subdir>  (442) 
nan

>  <HIPPO Compound ID>  (442) 
142382

>  <rmsd(smina/fragmenstein)>  (442) 
2.375

>  <distance_score>  (442) 
1.278924

>  <orig_smiles>  (442) 
nan

>  <fragmenstein_mode>  (442) 
nan

>  <inchikey>  (442) 
XAFXJBOJWBVVKX-UHFFFAOYSA-N

>  <ref_pdb>  (442) 
Z0852a

>  <GNINA pK>  (442) 
nan

>  <gnina_score_min>  (442) 
6.437

>  <tags>  (442) 
openbind_xx01zvns2b_c1_elab_nonasap_filtered_scored_top80percent,openbind_xx01zvns2b_c1_elab_chemspace_filtered_scored_top80percent,openbind_xx01zvns2b_c1_elab_chemspace_filtered_scored,openbind_xx01zvns2b_c1_elab_chemspace_filtered_scored_top40percent,openbind_xx01zvns2b_c1_elab_chemspace_filtered_scored_top20percent,openbind_xx01zvns2b_c1_elab_chemspace_filtered_scored_top60percent,openbind_xx01zvns2b_c1_elabs_filtered

>  <smiles>  (442) 
Cc1ccc2nc(C3CC3)cc(C(=O)Nc3cc(C(C)(C)C)cc4cccnc34)c2c1

>  <subsites>  (442) 
1 - Z4590/B/203/1

>  <gnina_score>  (442) 
6.232

>  <HIPPO Pose ID>  (442) 
70394

>  <ref_mols>  (442) 
Z0917a,Z0852a

>  <energy_score>  (442) 
-25.579572

>  <inspiration_score>  (442) 
None

>  <smina_score_min>  (442) 
-6.708

>  <fragmenstein_error>  (442) 
nan

>  <name>  (442) 
P70394

$$$$
P70395
     RDKit          3D

 31 35  0  0  0  0  0  0  0  0999 V2000
   -5.9467    3.9755  -20.3911 O   0  0  0  0  0  0  0  0  0  0  0  0
   -5.3092    4.7231  -19.7526 C   0  0  0  0  0  0  0  0  0  0  0  0
   -5.5863    5.3449  -18.3493 N   0  0  0  0  0  0  0  0  0  0  0  0
   -6.6240    5.1063  -17.4367 C   0  0  0  0  0  0  0  0  0  0  0  0
   -6.4186    5.4481  -16.0868 C   0  0  0  0  0  0  0  0  0  0  0  0
   -7.4251    5.2340  -15.1274 C   0  0  0  0  0  0  0  0  0  0  0  0
   -7.3300    5.7404  -13.7143 C   0  0  0  0  0  0  0  0  0  0  0  0
   -6.2540    5.2611  -13.0432 F   0  0  0  0  0  0  0  0  0  0  0  0
   -8.4237    5.4413  -12.9546 F   0  0  0  0  0  0  0  0  0  0  0  0
   -7.2341    7.1006  -13.6740 F   0  0  0  0  0  0  0  0  0  0  0  0
   -8.6079    4.6318  -15.5235 C   0  0  0  0  0  0  0  0  0  0  0  0
   -8.8444    4.4328  -16.8698 C   0  0  0  0  0  0  0  0  0  0  0  0
  -10.1341    4.1668  -17.2508 C   0  0  0  0  0  0  0  0  0  0  0  0
  -10.5156    4.3575  -18.5419 C   0  0  0  0  0  0  0  0  0  0  0  0
   -9.5171    4.5122  -19.4587 C   0  0  0  0  0  0  0  0  0  0  0  0
   -8.2199    4.5976  -19.1386 N   0  0  0  0  0  0  0  0  0  0  0  0
   -7.8767    4.6587  -17.8527 C   0  0  0  0  0  0  0  0  0  0  0  0
   -4.0526    5.2193  -20.3693 C   0  0  0  0  0  0  0  0  0  0  0  0
   -4.1426    5.5029  -21.7372 C   0  0  0  0  0  0  0  0  0  0  0  0
   -3.0373    5.9847  -22.4123 C   0  0  0  0  0  0  0  0  0  0  0  0
   -3.1140    6.3052  -23.8895 C   0  0  0  0  0  0  0  0  0  0  0  0
   -2.5322    5.3299  -24.8874 C   0  0  0  0  0  0  0  0  0  0  0  0
   -1.8722    6.6588  -24.6768 C   0  0  0  0  0  0  0  0  0  0  0  0
   -1.8832    6.2107  -21.7449 N   0  0  0  0  0  0  0  0  0  0  0  0
   -1.7818    5.9315  -20.4386 C   0  0  0  0  0  0  0  0  0  0  0  0
   -0.5760    6.2300  -19.8177 C   0  0  0  0  0  0  0  0  0  0  0  0
   -0.3854    6.0391  -18.4511 C   0  0  0  0  0  0  0  0  0  0  0  0
   -1.4079    5.4821  -17.7086 C   0  0  0  0  0  0  0  0  0  0  0  0
   -1.2492    5.3013  -16.3913 F   0  0  0  0  0  0  0  0  0  0  0  0
   -2.5992    5.0999  -18.3110 C   0  0  0  0  0  0  0  0  0  0  0  0
   -2.8372    5.3954  -19.6771 C   0  0  0  0  0  0  0  0  0  0  0  0
  1  2  2  0
  2  3  1  0
  3  4  1  0
  4  5  2  0
  5  6  1  0
  6  7  1  0
  7  8  1  0
  7  9  1  0
  7 10  1  0
  6 11  2  0
 11 12  1  0
 12 13  2  0
 13 14  1  0
 14 15  2  0
 15 16  1  0
 16 17  2  0
  2 18  1  0
 18 19  2  0
 19 20  1  0
 20 21  1  0
 21 22  1  0
 22 23  1  0
 20 24  2  0
 24 25  1  0
 25 26  2  0
 26 27  1  0
 27 28  2  0
 28 29  1  0
 28 30  1  0
 30 31  2  0
 17  4  1  0
 31 18  1  0
 17 12  1  0
 23 21  1  0
 31 25  1  0
M  END
>  <fragmenstein_outcome>  (443) 
nan

>  <exports>  (443) 
['/opt/xchem-fragalysis-2/maxwin/openbind-hippo/xx01zvns2b/cycle_01/syndirella/elabs/openbind_xx01zvns2b_c1_elab_chemspace_filtered.sdf']

>  <Energy>  (443) 
nan

>  <alias>  (443) 
None

>  <fragmenstein_runtime>  (443) 
nan

>  <scratch_subdir>  (443) 
nan

>  <HIPPO Compound ID>  (443) 
142384

>  <rmsd(smina/fragmenstein)>  (443) 
1.829

>  <distance_score>  (443) 
1.065391

>  <orig_smiles>  (443) 
nan

>  <fragmenstein_mode>  (443) 
nan

>  <inchikey>  (443) 
KSDJLSQAYXPCKH-UHFFFAOYSA-N

>  <ref_pdb>  (443) 
Z0852a

>  <GNINA pK>  (443) 
nan

>  <gnina_score_min>  (443) 
6.261

>  <tags>  (443) 
openbind_xx01zvns2b_c1_elab_nonasap_filtered_scored_top80percent,openbind_xx01zvns2b_c1_elab_chemspace_filtered_scored_top80percent,openbind_xx01zvns2b_c1_elab_chemspace_filtered_scored,openbind_xx01zvns2b_c1_elab_chemspace_filtered_scored_top40percent,openbind_xx01zvns2b_c1_elab_chemspace_filtered_scored_top20percent,openbind_xx01zvns2b_c1_elab_chemspace_filtered_scored_top60percent,openbind_xx01zvns2b_c1_elabs_filtered

>  <smiles>  (443) 
O=C(Nc1cc(C(F)(F)F)cc2cccnc12)c1cc(C2CC2)nc2ccc(F)cc12

>  <subsites>  (443) 
1 - Z4590/B/203/1

>  <gnina_score>  (443) 
6.117

>  <HIPPO Pose ID>  (443) 
70395

>  <ref_mols>  (443) 
Z0917a,Z0852a

>  <energy_score>  (443) 
-11.412861

>  <inspiration_score>  (443) 
None

>  <smina_score_min>  (443) 
-6.441

>  <fragmenstein_error>  (443) 
nan

>  <name>  (443) 
P70395

$$$$
P70396
     RDKit          3D

 31 35  0  0  0  0  0  0  0  0999 V2000
   -7.0213    4.5045  -12.8577 C   0  0  0  0  0  0  0  0  0  0  0  0
   -7.0383    5.7138  -13.8039 C   0  0  0  0  0  0  0  0  0  0  0  0
   -5.7126    6.4534  -13.6480 C   0  0  0  0  0  0  0  0  0  0  0  0
   -8.1417    6.6964  -13.3573 C   0  0  0  0  0  0  0  0  0  0  0  0
   -7.2576    5.2544  -15.2431 C   0  0  0  0  0  0  0  0  0  0  0  0
   -6.3293    5.4586  -16.2817 C   0  0  0  0  0  0  0  0  0  0  0  0
   -6.6198    5.1303  -17.6155 C   0  0  0  0  0  0  0  0  0  0  0  0
   -5.6299    5.3879  -18.5710 N   0  0  0  0  0  0  0  0  0  0  0  0
   -5.3703    4.7332  -19.9579 C   0  0  0  0  0  0  0  0  0  0  0  0
   -5.9890    3.9329  -20.5469 O   0  0  0  0  0  0  0  0  0  0  0  0
   -4.1084    5.2139  -20.5737 C   0  0  0  0  0  0  0  0  0  0  0  0
   -4.1997    5.5325  -21.9299 C   0  0  0  0  0  0  0  0  0  0  0  0
   -3.0845    6.0074  -22.5939 C   0  0  0  0  0  0  0  0  0  0  0  0
   -3.1568    6.3630  -24.0632 C   0  0  0  0  0  0  0  0  0  0  0  0
   -2.6519    5.3727  -25.0880 C   0  0  0  0  0  0  0  0  0  0  0  0
   -1.9033    6.6506  -24.8586 C   0  0  0  0  0  0  0  0  0  0  0  0
   -1.9243    6.1983  -21.9242 N   0  0  0  0  0  0  0  0  0  0  0  0
   -1.8257    5.8918  -20.6240 C   0  0  0  0  0  0  0  0  0  0  0  0
   -0.6186    6.1670  -19.9948 C   0  0  0  0  0  0  0  0  0  0  0  0
   -0.4377    5.9596  -18.6293 C   0  0  0  0  0  0  0  0  0  0  0  0
   -1.4695    5.4037  -17.8991 C   0  0  0  0  0  0  0  0  0  0  0  0
   -1.3304    5.2291  -16.5787 F   0  0  0  0  0  0  0  0  0  0  0  0
   -2.6566    5.0315  -18.5141 C   0  0  0  0  0  0  0  0  0  0  0  0
   -2.8885    5.3544  -19.8761 C   0  0  0  0  0  0  0  0  0  0  0  0
   -7.8847    4.6765  -17.9492 C   0  0  0  0  0  0  0  0  0  0  0  0
   -8.2976    4.6151  -19.2119 N   0  0  0  0  0  0  0  0  0  0  0  0
   -9.6107    4.5268  -19.4488 C   0  0  0  0  0  0  0  0  0  0  0  0
  -10.5491    4.3277  -18.4745 C   0  0  0  0  0  0  0  0  0  0  0  0
  -10.0870    4.1511  -17.2048 C   0  0  0  0  0  0  0  0  0  0  0  0
   -8.7825    4.4435  -16.9044 C   0  0  0  0  0  0  0  0  0  0  0  0
   -8.4610    4.6480  -15.5732 C   0  0  0  0  0  0  0  0  0  0  0  0
  1  2  1  0
  2  3  1  0
  2  4  1  0
  2  5  1  0
  5  6  2  0
  6  7  1  0
  7  8  1  0
  8  9  1  0
  9 10  2  0
  9 11  1  0
 11 12  2  0
 12 13  1  0
 13 14  1  0
 14 15  1  0
 15 16  1  0
 13 17  2  0
 17 18  1  0
 18 19  2  0
 19 20  1  0
 20 21  2  0
 21 22  1  0
 21 23  1  0
 23 24  2  0
  7 25  2  0
 25 26  1  0
 26 27  2  0
 27 28  1  0
 28 29  2  0
 29 30  1  0
 30 31  2  0
 31  5  1  0
 24 11  1  0
 30 25  1  0
 16 14  1  0
 24 18  1  0
M  END
>  <fragmenstein_outcome>  (444) 
nan

>  <exports>  (444) 
['/opt/xchem-fragalysis-2/maxwin/openbind-hippo/xx01zvns2b/cycle_01/syndirella/elabs/openbind_xx01zvns2b_c1_elab_chemspace_filtered.sdf']

>  <Energy>  (444) 
nan

>  <alias>  (444) 
None

>  <fragmenstein_runtime>  (444) 
nan

>  <scratch_subdir>  (444) 
nan

>  <HIPPO Compound ID>  (444) 
142385

>  <rmsd(smina/fragmenstein)>  (444) 
2.214

>  <distance_score>  (444) 
1.33981

>  <orig_smiles>  (444) 
nan

>  <fragmenstein_mode>  (444) 
nan

>  <inchikey>  (444) 
FEDSQCQZLBDVGN-UHFFFAOYSA-N

>  <ref_pdb>  (444) 
Z0852a

>  <GNINA pK>  (444) 
nan

>  <gnina_score_min>  (444) 
6.486

>  <tags>  (444) 
openbind_xx01zvns2b_c1_elab_nonasap_filtered_scored_top80percent,openbind_xx01zvns2b_c1_elab_chemspace_filtered_scored_top80percent,openbind_xx01zvns2b_c1_elab_chemspace_filtered_scored,openbind_xx01zvns2b_c1_elab_chemspace_filtered_scored_top40percent,openbind_xx01zvns2b_c1_elab_chemspace_filtered_scored_top20percent,openbind_xx01zvns2b_c1_elab_chemspace_filtered_scored_top60percent,openbind_xx01zvns2b_c1_elabs_filtered

>  <smiles>  (444) 
CC(C)(C)c1cc(NC(=O)c2cc(C3CC3)nc3ccc(F)cc23)c2ncccc2c1

>  <subsites>  (444) 
1 - Z4590/B/203/1

>  <gnina_score>  (444) 
6.281

>  <HIPPO Pose ID>  (444) 
70396

>  <ref_mols>  (444) 
Z0917a,Z0852a

>  <energy_score>  (444) 
-9.340477

>  <inspiration_score>  (444) 
None

>  <smina_score_min>  (444) 
-6.485

>  <fragmenstein_error>  (444) 
nan

>  <name>  (444) 
P70396

$$$$
P70397
     RDKit          3D

 31 34  0  0  0  0  0  0  0  0999 V2000
   -2.2290    5.7005  -24.7343 C   0  0  0  0  0  0  0  0  0  0  0  0
   -3.2741    6.4380  -23.8956 C   0  0  0  0  0  0  0  0  0  0  0  0
   -3.1480    7.9510  -24.0800 C   0  0  0  0  0  0  0  0  0  0  0  0
   -3.1573    6.0699  -22.4308 C   0  0  0  0  0  0  0  0  0  0  0  0
   -4.2459    5.5848  -21.7370 C   0  0  0  0  0  0  0  0  0  0  0  0
   -4.0951    5.2737  -20.3815 C   0  0  0  0  0  0  0  0  0  0  0  0
   -5.3175    4.7392  -19.7333 C   0  0  0  0  0  0  0  0  0  0  0  0
   -5.9123    3.9319  -20.3389 O   0  0  0  0  0  0  0  0  0  0  0  0
   -5.5685    5.3219  -18.3100 N   0  0  0  0  0  0  0  0  0  0  0  0
   -6.6220    5.1059  -17.4113 C   0  0  0  0  0  0  0  0  0  0  0  0
   -6.4214    5.4377  -16.0587 C   0  0  0  0  0  0  0  0  0  0  0  0
   -7.4368    5.2310  -15.1083 C   0  0  0  0  0  0  0  0  0  0  0  0
   -7.3452    5.7319  -13.6936 C   0  0  0  0  0  0  0  0  0  0  0  0
   -6.2699    5.2512  -13.0222 F   0  0  0  0  0  0  0  0  0  0  0  0
   -8.4401    5.4294  -12.9375 F   0  0  0  0  0  0  0  0  0  0  0  0
   -7.2499    7.0921  -13.6487 F   0  0  0  0  0  0  0  0  0  0  0  0
   -8.6219    4.6406  -15.5153 C   0  0  0  0  0  0  0  0  0  0  0  0
   -8.8505    4.4456  -16.8639 C   0  0  0  0  0  0  0  0  0  0  0  0
  -10.1372    4.1777  -17.2546 C   0  0  0  0  0  0  0  0  0  0  0  0
  -10.5089    4.3642  -18.5488 C   0  0  0  0  0  0  0  0  0  0  0  0
   -9.5039    4.5164  -19.4586 C   0  0  0  0  0  0  0  0  0  0  0  0
   -8.2092    4.6098  -19.1290 N   0  0  0  0  0  0  0  0  0  0  0  0
   -7.8755    4.6710  -17.8398 C   0  0  0  0  0  0  0  0  0  0  0  0
   -2.8495    5.4356  -19.7344 C   0  0  0  0  0  0  0  0  0  0  0  0
   -2.5570    5.1168  -18.3841 C   0  0  0  0  0  0  0  0  0  0  0  0
   -1.3444    5.4943  -17.8216 C   0  0  0  0  0  0  0  0  0  0  0  0
   -1.1418    5.3100  -16.5108 F   0  0  0  0  0  0  0  0  0  0  0  0
   -0.3494    6.0598  -18.5939 C   0  0  0  0  0  0  0  0  0  0  0  0
   -0.5905    6.2685  -19.9495 C   0  0  0  0  0  0  0  0  0  0  0  0
   -1.8200    5.9818  -20.5272 C   0  0  0  0  0  0  0  0  0  0  0  0
   -1.9695    6.2819  -21.8241 N   0  0  0  0  0  0  0  0  0  0  0  0
  1  2  1  0
  2  3  1  0
  2  4  1  0
  4  5  2  0
  5  6  1  0
  6  7  1  0
  7  8  2  0
  7  9  1  0
  9 10  1  0
 10 11  2  0
 11 12  1  0
 12 13  1  0
 13 14  1  0
 13 15  1  0
 13 16  1  0
 12 17  2  0
 17 18  1  0
 18 19  2  0
 19 20  1  0
 20 21  2  0
 21 22  1  0
 22 23  2  0
  6 24  2  0
 24 25  1  0
 25 26  2  0
 26 27  1  0
 26 28  1  0
 28 29  2  0
 29 30  1  0
 30 31  2  0
 31  4  1  0
 23 10  1  0
 30 24  1  0
 23 18  1  0
M  END
>  <fragmenstein_outcome>  (445) 
nan

>  <exports>  (445) 
['/opt/xchem-fragalysis-2/maxwin/openbind-hippo/xx01zvns2b/cycle_01/syndirella/elabs/openbind_xx01zvns2b_c1_elab_chemspace_filtered.sdf']

>  <Energy>  (445) 
nan

>  <alias>  (445) 
None

>  <fragmenstein_runtime>  (445) 
nan

>  <scratch_subdir>  (445) 
nan

>  <HIPPO Compound ID>  (445) 
142386

>  <rmsd(smina/fragmenstein)>  (445) 
1.673

>  <distance_score>  (445) 
0.98691

>  <orig_smiles>  (445) 
nan

>  <fragmenstein_mode>  (445) 
nan

>  <inchikey>  (445) 
MUHTUZOJMBSHOS-UHFFFAOYSA-N

>  <ref_pdb>  (445) 
Z0852a

>  <GNINA pK>  (445) 
nan

>  <gnina_score_min>  (445) 
6.321

>  <tags>  (445) 
openbind_xx01zvns2b_c1_elab_nonasap_filtered_scored_top80percent,openbind_xx01zvns2b_c1_elab_chemspace_filtered_scored_top80percent,openbind_xx01zvns2b_c1_elab_chemspace_filtered_scored,openbind_xx01zvns2b_c1_elab_chemspace_filtered_scored_top40percent,openbind_xx01zvns2b_c1_elab_chemspace_filtered_scored_top20percent,openbind_xx01zvns2b_c1_elab_chemspace_filtered_scored_top60percent,openbind_xx01zvns2b_c1_elabs_filtered

>  <smiles>  (445) 
CC(C)c1cc(C(=O)Nc2cc(C(F)(F)F)cc3cccnc23)c2cc(F)ccc2n1

>  <subsites>  (445) 
1 - Z4590/B/203/1

>  <gnina_score>  (445) 
6.074

>  <HIPPO Pose ID>  (445) 
70397

>  <ref_mols>  (445) 
Z0917a,Z0852a

>  <energy_score>  (445) 
-18.906545

>  <inspiration_score>  (445) 
None

>  <smina_score_min>  (445) 
-6.587

>  <fragmenstein_error>  (445) 
nan

>  <name>  (445) 
P70397

$$$$
P70398
     RDKit          3D

 31 34  0  0  0  0  0  0  0  0999 V2000
   -2.1264    5.6072  -24.8668 C   0  0  0  0  0  0  0  0  0  0  0  0
   -3.1675    6.3825  -24.0576 C   0  0  0  0  0  0  0  0  0  0  0  0
   -2.9798    7.8899  -24.2347 C   0  0  0  0  0  0  0  0  0  0  0  0
   -3.1070    6.0073  -22.5909 C   0  0  0  0  0  0  0  0  0  0  0  0
   -4.2297    5.5464  -21.9357 C   0  0  0  0  0  0  0  0  0  0  0  0
   -4.1250    5.2200  -20.5830 C   0  0  0  0  0  0  0  0  0  0  0  0
   -5.3818    4.7361  -19.9603 C   0  0  0  0  0  0  0  0  0  0  0  0
   -6.0014    3.9342  -20.5463 O   0  0  0  0  0  0  0  0  0  0  0  0
   -5.6377    5.3921  -18.5737 N   0  0  0  0  0  0  0  0  0  0  0  0
   -6.6239    5.1346  -17.6149 C   0  0  0  0  0  0  0  0  0  0  0  0
   -6.3312    5.4623  -16.2818 C   0  0  0  0  0  0  0  0  0  0  0  0
   -7.2577    5.2564  -15.2420 C   0  0  0  0  0  0  0  0  0  0  0  0
   -7.0370    5.7156  -13.8031 C   0  0  0  0  0  0  0  0  0  0  0  0
   -8.1398    6.6987  -13.3559 C   0  0  0  0  0  0  0  0  0  0  0  0
   -7.0197    4.5066  -12.8566 C   0  0  0  0  0  0  0  0  0  0  0  0
   -5.7108    6.4547  -13.6483 C   0  0  0  0  0  0  0  0  0  0  0  0
   -8.4610    4.6485  -15.5704 C   0  0  0  0  0  0  0  0  0  0  0  0
   -8.7846    4.4443  -16.9013 C   0  0  0  0  0  0  0  0  0  0  0  0
  -10.0889    4.1494  -17.2006 C   0  0  0  0  0  0  0  0  0  0  0  0
  -10.5535    4.3268  -18.4695 C   0  0  0  0  0  0  0  0  0  0  0  0
   -9.6173    4.5309  -19.4446 C   0  0  0  0  0  0  0  0  0  0  0  0
   -8.3043    4.6209  -19.2090 N   0  0  0  0  0  0  0  0  0  0  0  0
   -7.8891    4.6801  -17.9468 C   0  0  0  0  0  0  0  0  0  0  0  0
   -2.8971    5.3523  -19.8928 C   0  0  0  0  0  0  0  0  0  0  0  0
   -2.6614    5.0300  -18.5317 C   0  0  0  0  0  0  0  0  0  0  0  0
   -1.4691    5.3949  -17.9225 C   0  0  0  0  0  0  0  0  0  0  0  0
   -1.3276    5.2253  -16.6016 F   0  0  0  0  0  0  0  0  0  0  0  0
   -0.4350    5.9398  -18.6579 C   0  0  0  0  0  0  0  0  0  0  0  0
   -0.6189    6.1455  -20.0231 C   0  0  0  0  0  0  0  0  0  0  0  0
   -1.8311    5.8804  -20.6464 C   0  0  0  0  0  0  0  0  0  0  0  0
   -1.9329    6.1875  -21.9464 N   0  0  0  0  0  0  0  0  0  0  0  0
  1  2  1  0
  2  3  1  0
  2  4  1  0
  4  5  2  0
  5  6  1  0
  6  7  1  0
  7  8  2  0
  7  9  1  0
  9 10  1  0
 10 11  2  0
 11 12  1  0
 12 13  1  0
 13 14  1  0
 13 15  1  0
 13 16  1  0
 12 17  2  0
 17 18  1  0
 18 19  2  0
 19 20  1  0
 20 21  2  0
 21 22  1  0
 22 23  2  0
  6 24  2  0
 24 25  1  0
 25 26  2  0
 26 27  1  0
 26 28  1  0
 28 29  2  0
 29 30  1  0
 30 31  2  0
 31  4  1  0
 23 10  1  0
 30 24  1  0
 23 18  1  0
M  END
>  <fragmenstein_outcome>  (446) 
nan

>  <exports>  (446) 
['/opt/xchem-fragalysis-2/maxwin/openbind-hippo/xx01zvns2b/cycle_01/syndirella/elabs/openbind_xx01zvns2b_c1_elab_chemspace_filtered.sdf']

>  <Energy>  (446) 
nan

>  <alias>  (446) 
None

>  <fragmenstein_runtime>  (446) 
nan

>  <scratch_subdir>  (446) 
nan

>  <HIPPO Compound ID>  (446) 
142387

>  <rmsd(smina/fragmenstein)>  (446) 
1.489

>  <distance_score>  (446) 
1.278735

>  <orig_smiles>  (446) 
nan

>  <fragmenstein_mode>  (446) 
nan

>  <inchikey>  (446) 
OIZSVHIGDBXLBV-UHFFFAOYSA-N

>  <ref_pdb>  (446) 
Z0852a

>  <GNINA pK>  (446) 
nan

>  <gnina_score_min>  (446) 
6.465

>  <tags>  (446) 
openbind_xx01zvns2b_c1_elab_nonasap_filtered_scored_top80percent,openbind_xx01zvns2b_c1_elab_chemspace_filtered_scored_top80percent,openbind_xx01zvns2b_c1_elab_chemspace_filtered_scored,openbind_xx01zvns2b_c1_elab_chemspace_filtered_scored_top40percent,openbind_xx01zvns2b_c1_elab_chemspace_filtered_scored_top20percent,openbind_xx01zvns2b_c1_elab_chemspace_filtered_scored_top60percent,openbind_xx01zvns2b_c1_elabs_filtered

>  <smiles>  (446) 
CC(C)c1cc(C(=O)Nc2cc(C(C)(C)C)cc3cccnc23)c2cc(F)ccc2n1

>  <subsites>  (446) 
1 - Z4590/B/203/1

>  <gnina_score>  (446) 
6.26

>  <HIPPO Pose ID>  (446) 
70398

>  <ref_mols>  (446) 
Z0917a,Z0852a

>  <energy_score>  (446) 
-31.794763

>  <inspiration_score>  (446) 
None

>  <smina_score_min>  (446) 
-6.587

>  <fragmenstein_error>  (446) 
nan

>  <name>  (446) 
P70398

$$$$
P70399
     RDKit          3D

 31 35  0  0  0  0  0  0  0  0999 V2000
    0.4909    6.8086  -20.9055 C   0  0  0  0  0  0  0  0  0  0  0  0
   -0.6317    6.2148  -20.0943 C   0  0  0  0  0  0  0  0  0  0  0  0
   -0.4304    5.9620  -18.7321 C   0  0  0  0  0  0  0  0  0  0  0  0
   -1.4328    5.3674  -17.9849 C   0  0  0  0  0  0  0  0  0  0  0  0
   -2.6264    5.0052  -18.5978 C   0  0  0  0  0  0  0  0  0  0  0  0
   -2.8991    5.3733  -19.9407 C   0  0  0  0  0  0  0  0  0  0  0  0
   -4.1417    5.2323  -20.6010 C   0  0  0  0  0  0  0  0  0  0  0  0
   -5.3755    4.7134  -19.9577 C   0  0  0  0  0  0  0  0  0  0  0  0
   -5.9875    3.9038  -20.5416 O   0  0  0  0  0  0  0  0  0  0  0  0
   -5.5825    5.2998  -18.5319 N   0  0  0  0  0  0  0  0  0  0  0  0
   -6.6053    5.0862  -17.6015 C   0  0  0  0  0  0  0  0  0  0  0  0
   -6.3261    5.4184  -16.2657 C   0  0  0  0  0  0  0  0  0  0  0  0
   -7.2696    5.2403  -15.2368 C   0  0  0  0  0  0  0  0  0  0  0  0
   -7.0564    5.7042  -13.7984 C   0  0  0  0  0  0  0  0  0  0  0  0
   -8.1564    6.6943  -13.3601 C   0  0  0  0  0  0  0  0  0  0  0  0
   -5.7280    6.4383  -13.6380 C   0  0  0  0  0  0  0  0  0  0  0  0
   -7.0507    4.4977  -12.8490 C   0  0  0  0  0  0  0  0  0  0  0  0
   -8.4785    4.6514  -15.5773 C   0  0  0  0  0  0  0  0  0  0  0  0
   -8.7884    4.4442  -16.9112 C   0  0  0  0  0  0  0  0  0  0  0  0
  -10.0933    4.1655  -17.2232 C   0  0  0  0  0  0  0  0  0  0  0  0
  -10.5406    4.3421  -18.4973 C   0  0  0  0  0  0  0  0  0  0  0  0
   -9.5899    4.5196  -19.4633 C   0  0  0  0  0  0  0  0  0  0  0  0
   -8.2778    4.5946  -19.2145 N   0  0  0  0  0  0  0  0  0  0  0  0
   -7.8757    4.6576  -17.9481 C   0  0  0  0  0  0  0  0  0  0  0  0
   -4.2859    5.5767  -21.9449 C   0  0  0  0  0  0  0  0  0  0  0  0
   -3.2014    6.0796  -22.6334 C   0  0  0  0  0  0  0  0  0  0  0  0
   -3.3214    6.4583  -24.0936 C   0  0  0  0  0  0  0  0  0  0  0  0
   -2.0965    6.7919  -24.9154 C   0  0  0  0  0  0  0  0  0  0  0  0
   -2.8173    5.4986  -25.1477 C   0  0  0  0  0  0  0  0  0  0  0  0
   -2.0253    6.2747  -21.9961 N   0  0  0  0  0  0  0  0  0  0  0  0
   -1.8640    5.9451  -20.7021 C   0  0  0  0  0  0  0  0  0  0  0  0
  1  2  1  0
  2  3  2  0
  3  4  1  0
  4  5  2  0
  5  6  1  0
  6  7  2  0
  7  8  1  0
  8  9  2  0
  8 10  1  0
 10 11  1  0
 11 12  2  0
 12 13  1  0
 13 14  1  0
 14 15  1  0
 14 16  1  0
 14 17  1  0
 13 18  2  0
 18 19  1  0
 19 20  2  0
 20 21  1  0
 21 22  2  0
 22 23  1  0
 23 24  2  0
  7 25  1  0
 25 26  2  0
 26 27  1  0
 27 28  1  0
 28 29  1  0
 26 30  1  0
 30 31  2  0
 31  2  1  0
 31  6  1  0
 24 11  1  0
 29 27  1  0
 24 19  1  0
M  END
>  <fragmenstein_outcome>  (447) 
nan

>  <exports>  (447) 
['/opt/xchem-fragalysis-2/maxwin/openbind-hippo/xx01zvns2b/cycle_01/syndirella/elabs/openbind_xx01zvns2b_c1_elab_chemspace_filtered.sdf']

>  <Energy>  (447) 
nan

>  <alias>  (447) 
None

>  <fragmenstein_runtime>  (447) 
nan

>  <scratch_subdir>  (447) 
nan

>  <HIPPO Compound ID>  (447) 
142389

>  <rmsd(smina/fragmenstein)>  (447) 
1.213

>  <distance_score>  (447) 
1.351208

>  <orig_smiles>  (447) 
nan

>  <fragmenstein_mode>  (447) 
nan

>  <inchikey>  (447) 
MIAJRBUUFLBNTG-UHFFFAOYSA-N

>  <ref_pdb>  (447) 
Z0852a

>  <GNINA pK>  (447) 
nan

>  <gnina_score_min>  (447) 
6.59

>  <tags>  (447) 
openbind_xx01zvns2b_c1_elab_nonasap_filtered_scored_top80percent,openbind_xx01zvns2b_c1_elab_chemspace_filtered_scored_top80percent,openbind_xx01zvns2b_c1_elab_chemspace_filtered_scored,openbind_xx01zvns2b_c1_elab_chemspace_filtered_scored_top40percent,openbind_xx01zvns2b_c1_elab_chemspace_filtered_scored_top20percent,openbind_xx01zvns2b_c1_elab_chemspace_filtered_scored_top60percent,openbind_xx01zvns2b_c1_elabs_filtered

>  <smiles>  (447) 
Cc1cccc2c(C(=O)Nc3cc(C(C)(C)C)cc4cccnc34)cc(C3CC3)nc12

>  <subsites>  (447) 
1 - Z4590/B/203/1

>  <gnina_score>  (447) 
6.274

>  <HIPPO Pose ID>  (447) 
70399

>  <ref_mols>  (447) 
Z0917a,Z0852a

>  <energy_score>  (447) 
-16.60442

>  <inspiration_score>  (447) 
None

>  <smina_score_min>  (447) 
-6.706

>  <fragmenstein_error>  (447) 
nan

>  <name>  (447) 
P70399

$$$$
P70400
     RDKit          3D

 31 35  0  0  0  0  0  0  0  0999 V2000
   -6.3921    4.9720  -11.5292 C   0  0  0  0  0  0  0  0  0  0  0  0
   -6.8887    4.8829  -12.8648 O   0  0  0  0  0  0  0  0  0  0  0  0
   -5.9499    5.0752  -13.8227 C   0  0  0  0  0  0  0  0  0  0  0  0
   -4.7720    5.3354  -13.6319 O   0  0  0  0  0  0  0  0  0  0  0  0
   -6.5501    4.9534  -15.1765 C   0  0  0  0  0  0  0  0  0  0  0  0
   -5.7646    5.2758  -16.2845 C   0  0  0  0  0  0  0  0  0  0  0  0
   -6.2567    5.1319  -17.5922 C   0  0  0  0  0  0  0  0  0  0  0  0
   -5.3404    5.4143  -18.6132 N   0  0  0  0  0  0  0  0  0  0  0  0
   -5.2191    4.8324  -20.0511 C   0  0  0  0  0  0  0  0  0  0  0  0
   -5.9113    4.0865  -20.6280 O   0  0  0  0  0  0  0  0  0  0  0  0
   -3.9406    5.2842  -20.6688 C   0  0  0  0  0  0  0  0  0  0  0  0
   -2.7301    5.0484  -19.9889 C   0  0  0  0  0  0  0  0  0  0  0  0
   -2.6352    4.2676  -18.7083 C   0  0  0  0  0  0  0  0  0  0  0  0
   -1.5624    5.5699  -20.5486 C   0  0  0  0  0  0  0  0  0  0  0  0
   -0.2307    5.5076  -19.8238 C   0  0  0  0  0  0  0  0  0  0  0  0
    0.7806    6.6215  -19.9760 C   0  0  0  0  0  0  0  0  0  0  0  0
    0.0469    6.4588  -18.6800 C   0  0  0  0  0  0  0  0  0  0  0  0
   -1.5794    6.1833  -21.7569 N   0  0  0  0  0  0  0  0  0  0  0  0
   -2.7241    6.3399  -22.4308 C   0  0  0  0  0  0  0  0  0  0  0  0
   -2.6696    6.9723  -23.6674 C   0  0  0  0  0  0  0  0  0  0  0  0
   -3.8160    7.2269  -24.4219 C   0  0  0  0  0  0  0  0  0  0  0  0
   -5.0519    6.8468  -23.9271 C   0  0  0  0  0  0  0  0  0  0  0  0
   -5.1203    6.2082  -22.6901 C   0  0  0  0  0  0  0  0  0  0  0  0
   -3.9622    5.9309  -21.9253 C   0  0  0  0  0  0  0  0  0  0  0  0
   -7.5788    4.7436  -17.8131 C   0  0  0  0  0  0  0  0  0  0  0  0
   -8.1244    4.7318  -19.0322 N   0  0  0  0  0  0  0  0  0  0  0  0
   -9.4409    4.5055  -19.1661 C   0  0  0  0  0  0  0  0  0  0  0  0
  -10.2714    4.2158  -18.1144 C   0  0  0  0  0  0  0  0  0  0  0  0
   -9.6985    4.1477  -16.8634 C   0  0  0  0  0  0  0  0  0  0  0  0
   -8.3647    4.4599  -16.6823 C   0  0  0  0  0  0  0  0  0  0  0  0
   -7.8571    4.5273  -15.3820 C   0  0  0  0  0  0  0  0  0  0  0  0
  1  2  1  0
  2  3  1  0
  3  4  2  0
  3  5  1  0
  5  6  2  0
  6  7  1  0
  7  8  1  0
  8  9  1  0
  9 10  2  0
  9 11  1  0
 11 12  2  0
 12 13  1  0
 12 14  1  0
 14 15  1  0
 15 16  1  0
 16 17  1  0
 14 18  2  0
 18 19  1  0
 19 20  2  0
 20 21  1  0
 21 22  2  0
 22 23  1  0
 23 24  2  0
  7 25  2  0
 25 26  1  0
 26 27  2  0
 27 28  1  0
 28 29  2  0
 29 30  1  0
 30 31  2  0
 31  5  1  0
 24 11  1  0
 30 25  1  0
 17 15  1  0
 24 19  1  0
M  END
>  <fragmenstein_outcome>  (448) 
nan

>  <exports>  (448) 
['/opt/xchem-fragalysis-2/maxwin/openbind-hippo/xx01zvns2b/cycle_01/syndirella/elabs/openbind_xx01zvns2b_c1_elab_chemspace_filtered.sdf']

>  <Energy>  (448) 
nan

>  <alias>  (448) 
None

>  <fragmenstein_runtime>  (448) 
nan

>  <scratch_subdir>  (448) 
nan

>  <HIPPO Compound ID>  (448) 
142391

>  <rmsd(smina/fragmenstein)>  (448) 
0.905

>  <distance_score>  (448) 
1.509579

>  <orig_smiles>  (448) 
nan

>  <fragmenstein_mode>  (448) 
nan

>  <inchikey>  (448) 
XOXFIPGMJCBLOK-UHFFFAOYSA-N

>  <ref_pdb>  (448) 
Z0852a

>  <GNINA pK>  (448) 
nan

>  <gnina_score_min>  (448) 
6.307

>  <tags>  (448) 
openbind_xx01zvns2b_c1_elab_nonasap_filtered_scored_top80percent,openbind_xx01zvns2b_c1_elab_chemspace_filtered_scored_top80percent,openbind_xx01zvns2b_c1_elab_chemspace_filtered_scored,openbind_xx01zvns2b_c1_elab_chemspace_filtered_scored_top40percent,openbind_xx01zvns2b_c1_elab_chemspace_filtered_scored_top20percent,openbind_xx01zvns2b_c1_elab_chemspace_filtered_scored_top60percent,openbind_xx01zvns2b_c1_elabs_filtered

>  <smiles>  (448) 
COC(=O)c1cc(NC(=O)c2c(C)c(C3CC3)nc3ccccc23)c2ncccc2c1

>  <subsites>  (448) 
1 - Z4590/B/203/1

>  <gnina_score>  (448) 
6.245

>  <HIPPO Pose ID>  (448) 
70400

>  <ref_mols>  (448) 
Z0917a,Z0852a

>  <energy_score>  (448) 
-2.058654

>  <inspiration_score>  (448) 
None

>  <smina_score_min>  (448) 
-6.393

>  <fragmenstein_error>  (448) 
nan

>  <name>  (448) 
P70400

$$$$
P70401
     RDKit          3D

 31 35  0  0  0  0  0  0  0  0999 V2000
   -2.7886    4.2860  -18.5629 C   0  0  0  0  0  0  0  0  0  0  0  0
   -2.8298    5.0487  -19.8548 C   0  0  0  0  0  0  0  0  0  0  0  0
   -1.6368    5.5399  -20.3911 C   0  0  0  0  0  0  0  0  0  0  0  0
   -0.3176    5.4266  -19.6515 C   0  0  0  0  0  0  0  0  0  0  0  0
    0.7122    6.5297  -19.7503 C   0  0  0  0  0  0  0  0  0  0  0  0
   -0.0318    6.3230  -18.4668 C   0  0  0  0  0  0  0  0  0  0  0  0
   -1.6097    6.1510  -21.6004 N   0  0  0  0  0  0  0  0  0  0  0  0
   -2.7314    6.3191  -22.3079 C   0  0  0  0  0  0  0  0  0  0  0  0
   -2.6315    6.9461  -23.5445 C   0  0  0  0  0  0  0  0  0  0  0  0
   -3.7502    7.2042  -24.3379 C   0  0  0  0  0  0  0  0  0  0  0  0
   -5.0035    6.8312  -23.8839 C   0  0  0  0  0  0  0  0  0  0  0  0
   -5.1163    6.1979  -22.6472 C   0  0  0  0  0  0  0  0  0  0  0  0
   -3.9874    5.9208  -21.8395 C   0  0  0  0  0  0  0  0  0  0  0  0
   -4.0135    5.2827  -20.5764 C   0  0  0  0  0  0  0  0  0  0  0  0
   -5.3132    4.8119  -20.0219 C   0  0  0  0  0  0  0  0  0  0  0  0
   -5.9539    4.0529  -20.6421 O   0  0  0  0  0  0  0  0  0  0  0  0
   -5.5540    5.4162  -18.6045 N   0  0  0  0  0  0  0  0  0  0  0  0
   -6.5534    5.1432  -17.6534 C   0  0  0  0  0  0  0  0  0  0  0  0
   -6.2667    5.4718  -16.3159 C   0  0  0  0  0  0  0  0  0  0  0  0
   -7.1941    5.2690  -15.2734 C   0  0  0  0  0  0  0  0  0  0  0  0
   -6.9797    5.7302  -13.8335 C   0  0  0  0  0  0  0  0  0  0  0  0
   -5.6602    6.4798  -13.6790 C   0  0  0  0  0  0  0  0  0  0  0  0
   -6.9540    4.5206  -12.8872 C   0  0  0  0  0  0  0  0  0  0  0  0
   -8.0904    6.7040  -13.3839 C   0  0  0  0  0  0  0  0  0  0  0  0
   -8.3969    4.6621  -15.5989 C   0  0  0  0  0  0  0  0  0  0  0  0
   -8.7183    4.4527  -16.9272 C   0  0  0  0  0  0  0  0  0  0  0  0
  -10.0273    4.1614  -17.2107 C   0  0  0  0  0  0  0  0  0  0  0  0
  -10.4935    4.3143  -18.4813 C   0  0  0  0  0  0  0  0  0  0  0  0
   -9.5573    4.4916  -19.4631 C   0  0  0  0  0  0  0  0  0  0  0  0
   -8.2415    4.5890  -19.2361 N   0  0  0  0  0  0  0  0  0  0  0  0
   -7.8201    4.6784  -17.9786 C   0  0  0  0  0  0  0  0  0  0  0  0
  1  2  1  0
  2  3  2  0
  3  4  1  0
  4  5  1  0
  5  6  1  0
  3  7  1  0
  7  8  2  0
  8  9  1  0
  9 10  2  0
 10 11  1  0
 11 12  2  0
 12 13  1  0
 13 14  2  0
 14 15  1  0
 15 16  2  0
 15 17  1  0
 17 18  1  0
 18 19  2  0
 19 20  1  0
 20 21  1  0
 21 22  1  0
 21 23  1  0
 21 24  1  0
 20 25  2  0
 25 26  1  0
 26 27  2  0
 27 28  1  0
 28 29  2  0
 29 30  1  0
 30 31  2  0
 14  2  1  0
 31 18  1  0
  6  4  1  0
 13  8  1  0
 31 26  1  0
M  END
>  <fragmenstein_outcome>  (449) 
nan

>  <exports>  (449) 
['/opt/xchem-fragalysis-2/maxwin/openbind-hippo/xx01zvns2b/cycle_01/syndirella/elabs/openbind_xx01zvns2b_c1_elab_chemspace_filtered.sdf']

>  <Energy>  (449) 
nan

>  <alias>  (449) 
None

>  <fragmenstein_runtime>  (449) 
nan

>  <scratch_subdir>  (449) 
nan

>  <HIPPO Compound ID>  (449) 
142393

>  <rmsd(smina/fragmenstein)>  (449) 
0.973

>  <distance_score>  (449) 
1.395166

>  <orig_smiles>  (449) 
nan

>  <fragmenstein_mode>  (449) 
nan

>  <inchikey>  (449) 
PSZQVFIDIHUNMP-UHFFFAOYSA-N

>  <ref_pdb>  (449) 
Z0852a

>  <GNINA pK>  (449) 
nan

>  <gnina_score_min>  (449) 
6.52

>  <tags>  (449) 
openbind_xx01zvns2b_c1_elab_nonasap_filtered_scored_top80percent,openbind_xx01zvns2b_c1_elab_chemspace_filtered_scored_top80percent,openbind_xx01zvns2b_c1_elab_chemspace_filtered_scored,openbind_xx01zvns2b_c1_elab_chemspace_filtered_scored_top40percent,openbind_xx01zvns2b_c1_elab_chemspace_filtered_scored_top20percent,openbind_xx01zvns2b_c1_elab_chemspace_filtered_scored_top60percent,openbind_xx01zvns2b_c1_elabs_filtered

>  <smiles>  (449) 
Cc1c(C2CC2)nc2ccccc2c1C(=O)Nc1cc(C(C)(C)C)cc2cccnc12

>  <subsites>  (449) 
1 - Z4590/B/203/1

>  <gnina_score>  (449) 
6.167

>  <HIPPO Pose ID>  (449) 
70401

>  <ref_mols>  (449) 
Z0917a,Z0852a

>  <energy_score>  (449) 
-31.000074

>  <inspiration_score>  (449) 
None

>  <smina_score_min>  (449) 
-6.48

>  <fragmenstein_error>  (449) 
nan

>  <name>  (449) 
P70401

$$$$
P70402
     RDKit          3D

 31 34  0  0  0  0  0  0  0  0999 V2000
   -5.9913    3.9048  -20.3600 O   0  0  0  0  0  0  0  0  0  0  0  0
   -5.3588    4.6827  -19.7538 C   0  0  0  0  0  0  0  0  0  0  0  0
   -5.5771    5.2692  -18.3258 N   0  0  0  0  0  0  0  0  0  0  0  0
   -6.6347    5.0948  -17.4223 C   0  0  0  0  0  0  0  0  0  0  0  0
   -6.4254    5.4345  -16.0730 C   0  0  0  0  0  0  0  0  0  0  0  0
   -7.4381    5.2356  -15.1172 C   0  0  0  0  0  0  0  0  0  0  0  0
   -7.3401    5.7401  -13.7032 C   0  0  0  0  0  0  0  0  0  0  0  0
   -8.4376    5.4471  -12.9464 F   0  0  0  0  0  0  0  0  0  0  0  0
   -6.2683    5.2575  -13.0300 F   0  0  0  0  0  0  0  0  0  0  0  0
   -7.2402    7.1005  -13.6649 F   0  0  0  0  0  0  0  0  0  0  0  0
   -8.6270    4.6457  -15.5162 C   0  0  0  0  0  0  0  0  0  0  0  0
   -8.8633    4.4470  -16.8630 C   0  0  0  0  0  0  0  0  0  0  0  0
  -10.1502    4.1769  -17.2511 C   0  0  0  0  0  0  0  0  0  0  0  0
  -10.5270    4.3673  -18.5436 C   0  0  0  0  0  0  0  0  0  0  0  0
   -9.5255    4.5262  -19.4558 C   0  0  0  0  0  0  0  0  0  0  0  0
   -8.2297    4.6137  -19.1296 N   0  0  0  0  0  0  0  0  0  0  0  0
   -7.8925    4.6687  -17.8419 C   0  0  0  0  0  0  0  0  0  0  0  0
   -4.0721    5.1855  -20.3357 C   0  0  0  0  0  0  0  0  0  0  0  0
   -4.1649    5.3750  -21.6644 C   0  0  0  0  0  0  0  0  0  0  0  0
   -3.0009    5.7454  -22.4830 C   0  0  0  0  0  0  0  0  0  0  0  0
   -3.1017    5.9000  -23.6947 O   0  0  0  0  0  0  0  0  0  0  0  0
   -1.8258    5.9263  -21.8170 N   0  0  0  0  0  0  0  0  0  0  0  0
   -1.6822    5.7855  -20.4336 C   0  0  0  0  0  0  0  0  0  0  0  0
   -0.4385    6.0846  -19.8658 C   0  0  0  0  0  0  0  0  0  0  0  0
   -0.2777    6.0323  -18.4848 C   0  0  0  0  0  0  0  0  0  0  0  0
   -1.3501    5.6086  -17.6968 C   0  0  0  0  0  0  0  0  0  0  0  0
   -1.2246    5.6246  -16.2336 N   0  0  0  0  0  0  0  0  0  0  0  0
   -2.2709    5.5488  -15.5733 O   0  0  0  0  0  0  0  0  0  0  0  0
   -0.0890    5.7342  -15.7518 O   0  0  0  0  0  0  0  0  0  0  0  0
   -2.5650    5.2028  -18.2776 C   0  0  0  0  0  0  0  0  0  0  0  0
   -2.7783    5.3748  -19.6510 C   0  0  0  0  0  0  0  0  0  0  0  0
  1  2  2  0
  2  3  1  0
  3  4  1  0
  4  5  2  0
  5  6  1  0
  6  7  1  0
  7  8  1  0
  7  9  1  0
  7 10  1  0
  6 11  2  0
 11 12  1  0
 12 13  2  0
 13 14  1  0
 14 15  2  0
 15 16  1  0
 16 17  2  0
  2 18  1  0
 18 19  2  0
 19 20  1  0
 20 21  2  0
 20 22  1  0
 22 23  1  0
 23 24  2  0
 24 25  1  0
 25 26  2  0
 26 27  1  0
 27 28  2  0
 27 29  1  0
 26 30  1  0
 30 31  2  0
 17  4  1  0
 31 18  1  0
 17 12  1  0
 31 23  1  0
M  CHG  2  27   1  29  -1
M  END
>  <fragmenstein_outcome>  (450) 
nan

>  <exports>  (450) 
['/opt/xchem-fragalysis-2/maxwin/openbind-hippo/xx01zvns2b/cycle_01/syndirella/elabs/openbind_xx01zvns2b_c1_elab_chemspace_filtered.sdf']

>  <Energy>  (450) 
nan

>  <alias>  (450) 
None

>  <fragmenstein_runtime>  (450) 
nan

>  <scratch_subdir>  (450) 
nan

>  <HIPPO Compound ID>  (450) 
142394

>  <rmsd(smina/fragmenstein)>  (450) 
2.524

>  <distance_score>  (450) 
1.048818

>  <orig_smiles>  (450) 
nan

>  <fragmenstein_mode>  (450) 
nan

>  <inchikey>  (450) 
WPMKBPQOTXIZBV-UHFFFAOYSA-N

>  <ref_pdb>  (450) 
Z0852a

>  <GNINA pK>  (450) 
nan

>  <gnina_score_min>  (450) 
5.828

>  <tags>  (450) 
openbind_xx01zvns2b_c1_elab_nonasap_filtered_scored_top80percent,openbind_xx01zvns2b_c1_elab_chemspace_filtered_scored_top80percent,openbind_xx01zvns2b_c1_elab_chemspace_filtered_scored,openbind_xx01zvns2b_c1_elab_chemspace_filtered_scored_top40percent,openbind_xx01zvns2b_c1_elab_chemspace_filtered_scored_top20percent,openbind_xx01zvns2b_c1_elab_chemspace_filtered_scored_top60percent,openbind_xx01zvns2b_c1_elabs_filtered

>  <smiles>  (450) 
O=C(Nc1cc(C(F)(F)F)cc2cccnc12)c1cc(=O)[nH]c2ccc([N+](=O)[O-])cc12

>  <subsites>  (450) 
1 - Z4590/B/203/1

>  <gnina_score>  (450) 
5.888

>  <HIPPO Pose ID>  (450) 
70402

>  <ref_mols>  (450) 
Z0917a,Z0852a

>  <energy_score>  (450) 
-26.869878

>  <inspiration_score>  (450) 
None

>  <smina_score_min>  (450) 
-6.296

>  <fragmenstein_error>  (450) 
nan

>  <name>  (450) 
P70402

$$$$
P70403
     RDKit          3D

 32 35  0  0  0  0  0  0  0  0999 V2000
    1.6379    6.7951  -18.8439 C   0  0  0  0  0  0  0  0  0  0  0  0
    0.2638    6.8888  -19.4881 C   0  0  0  0  0  0  0  0  0  0  0  0
   -0.1549    5.5488  -20.1002 C   0  0  0  0  0  0  0  0  0  0  0  0
   -1.5546    5.6081  -20.6614 C   0  0  0  0  0  0  0  0  0  0  0  0
   -1.6129    6.2170  -21.8713 N   0  0  0  0  0  0  0  0  0  0  0  0
   -2.7808    6.3721  -22.4977 C   0  0  0  0  0  0  0  0  0  0  0  0
   -2.7722    6.9897  -23.7433 C   0  0  0  0  0  0  0  0  0  0  0  0
   -3.9447    7.2246  -24.4618 C   0  0  0  0  0  0  0  0  0  0  0  0
   -5.1576    6.8362  -23.9210 C   0  0  0  0  0  0  0  0  0  0  0  0
   -5.1759    6.2143  -22.6732 C   0  0  0  0  0  0  0  0  0  0  0  0
   -3.9935    5.9633  -21.9380 C   0  0  0  0  0  0  0  0  0  0  0  0
   -3.9254    5.3407  -20.6652 C   0  0  0  0  0  0  0  0  0  0  0  0
   -5.1941    4.8625  -20.0372 C   0  0  0  0  0  0  0  0  0  0  0  0
   -5.8472    4.0681  -20.5939 O   0  0  0  0  0  0  0  0  0  0  0  0
   -5.3574    5.4898  -18.6247 N   0  0  0  0  0  0  0  0  0  0  0  0
   -6.2751    5.2062  -17.6032 C   0  0  0  0  0  0  0  0  0  0  0  0
   -5.8073    5.4040  -16.2936 C   0  0  0  0  0  0  0  0  0  0  0  0
   -6.5906    5.0777  -15.1848 C   0  0  0  0  0  0  0  0  0  0  0  0
   -6.0099    5.2596  -13.8290 C   0  0  0  0  0  0  0  0  0  0  0  0
   -4.8507    5.5912  -13.6350 O   0  0  0  0  0  0  0  0  0  0  0  0
   -6.9440    5.0315  -12.8744 O   0  0  0  0  0  0  0  0  0  0  0  0
   -6.4637    5.1718  -11.5371 C   0  0  0  0  0  0  0  0  0  0  0  0
   -7.8778    4.5978  -15.3915 C   0  0  0  0  0  0  0  0  0  0  0  0
   -8.3696    4.4886  -16.6943 C   0  0  0  0  0  0  0  0  0  0  0  0
   -9.6948    4.1457  -16.8778 C   0  0  0  0  0  0  0  0  0  0  0  0
  -10.2595    4.1879  -18.1330 C   0  0  0  0  0  0  0  0  0  0  0  0
   -9.4260    4.4717  -19.1847 C   0  0  0  0  0  0  0  0  0  0  0  0
   -8.1139    4.7185  -19.0480 N   0  0  0  0  0  0  0  0  0  0  0  0
   -7.5809    4.7695  -17.8250 C   0  0  0  0  0  0  0  0  0  0  0  0
   -2.6901    5.1265  -20.0066 C   0  0  0  0  0  0  0  0  0  0  0  0
   -2.5868    4.3560  -18.7090 C   0  0  0  0  0  0  0  0  0  0  0  0
   -2.2199    5.2040  -17.4954 C   0  0  0  0  0  0  0  0  0  0  0  0
  1  2  1  0
  2  3  1  0
  3  4  1  0
  4  5  2  0
  5  6  1  0
  6  7  2  0
  7  8  1  0
  8  9  2  0
  9 10  1  0
 10 11  2  0
 11 12  1  0
 12 13  1  0
 13 14  2  0
 13 15  1  0
 15 16  1  0
 16 17  2  0
 17 18  1  0
 18 19  1  0
 19 20  2  0
 19 21  1  0
 21 22  1  0
 18 23  2  0
 23 24  1  0
 24 25  2  0
 25 26  1  0
 26 27  2  0
 27 28  1  0
 28 29  2  0
 12 30  2  0
 30 31  1  0
 31 32  1  0
 30  4  1  0
 11  6  1  0
 29 16  1  0
 29 24  1  0
M  END
>  <fragmenstein_outcome>  (451) 
nan

>  <exports>  (451) 
['/opt/xchem-fragalysis-2/maxwin/openbind-hippo/xx01zvns2b/cycle_01/syndirella/elabs/openbind_xx01zvns2b_c1_elab_chemspace_filtered.sdf']

>  <Energy>  (451) 
nan

>  <alias>  (451) 
None

>  <fragmenstein_runtime>  (451) 
nan

>  <scratch_subdir>  (451) 
nan

>  <HIPPO Compound ID>  (451) 
142395

>  <rmsd(smina/fragmenstein)>  (451) 
1.22

>  <distance_score>  (451) 
1.700032

>  <orig_smiles>  (451) 
nan

>  <fragmenstein_mode>  (451) 
nan

>  <inchikey>  (451) 
OHLOHXIXXJFDGJ-UHFFFAOYSA-N

>  <ref_pdb>  (451) 
Z0852a

>  <GNINA pK>  (451) 
nan

>  <gnina_score_min>  (451) 
6.219

>  <tags>  (451) 
openbind_xx01zvns2b_c1_elab_nonasap_filtered_scored_top80percent,openbind_xx01zvns2b_c1_elab_chemspace_filtered_scored_top80percent,openbind_xx01zvns2b_c1_elab_chemspace_filtered_scored,openbind_xx01zvns2b_c1_elab_chemspace_filtered_scored_top40percent,openbind_xx01zvns2b_c1_elab_chemspace_filtered_scored_top20percent,openbind_xx01zvns2b_c1_elab_chemspace_filtered_scored_top60percent,openbind_xx01zvns2b_c1_elabs_filtered

>  <smiles>  (451) 
CCCc1nc2ccccc2c(C(=O)Nc2cc(C(=O)OC)cc3cccnc23)c1CC

>  <subsites>  (451) 
1 - Z4590/B/203/1

>  <gnina_score>  (451) 
6.114

>  <HIPPO Pose ID>  (451) 
70403

>  <ref_mols>  (451) 
Z0917a,Z0852a

>  <energy_score>  (451) 
-33.441757

>  <inspiration_score>  (451) 
None

>  <smina_score_min>  (451) 
-5.481

>  <fragmenstein_error>  (451) 
nan

>  <name>  (451) 
P70403

$$$$
P70404
     RDKit          3D

 32 36  0  0  0  0  0  0  0  0999 V2000
   -8.4310    6.7972  -13.6066 C   0  0  0  0  0  0  0  0  0  0  0  0
   -7.4126    5.6580  -13.7261 C   0  0  0  0  0  0  0  0  0  0  0  0
   -7.8017    4.5607  -12.7184 C   0  0  0  0  0  0  0  0  0  0  0  0
   -6.0605    6.2478  -13.3147 C   0  0  0  0  0  0  0  0  0  0  0  0
   -7.4516    5.1447  -15.1661 C   0  0  0  0  0  0  0  0  0  0  0  0
   -6.4527    5.3638  -16.1330 C   0  0  0  0  0  0  0  0  0  0  0  0
   -6.6698    5.0534  -17.4903 C   0  0  0  0  0  0  0  0  0  0  0  0
   -5.6541    5.3241  -18.4183 N   0  0  0  0  0  0  0  0  0  0  0  0
   -5.3701    4.7005  -19.8174 C   0  0  0  0  0  0  0  0  0  0  0  0
   -5.9846    3.9216  -20.4404 O   0  0  0  0  0  0  0  0  0  0  0  0
   -4.1365    5.2242  -20.4484 C   0  0  0  0  0  0  0  0  0  0  0  0
   -4.2742    5.5491  -21.7998 C   0  0  0  0  0  0  0  0  0  0  0  0
   -3.1736    6.0251  -22.4731 C   0  0  0  0  0  0  0  0  0  0  0  0
   -3.2079    6.3887  -23.8829 C   0  0  0  0  0  0  0  0  0  0  0  0
   -2.2408    6.7569  -24.7985 C   0  0  0  0  0  0  0  0  0  0  0  0
   -2.9056    6.9825  -26.0284 C   0  0  0  0  0  0  0  0  0  0  0  0
   -4.2382    6.7445  -25.7904 C   0  0  0  0  0  0  0  0  0  0  0  0
   -4.4332    6.3916  -24.4941 O   0  0  0  0  0  0  0  0  0  0  0  0
   -1.9838    6.2224  -21.8644 N   0  0  0  0  0  0  0  0  0  0  0  0
   -1.8573    5.9212  -20.5632 C   0  0  0  0  0  0  0  0  0  0  0  0
   -0.6390    6.1982  -19.9615 C   0  0  0  0  0  0  0  0  0  0  0  0
   -0.4207    5.9780  -18.6032 C   0  0  0  0  0  0  0  0  0  0  0  0
   -1.4251    5.4103  -17.8361 C   0  0  0  0  0  0  0  0  0  0  0  0
   -2.6302    5.0483  -18.4328 C   0  0  0  0  0  0  0  0  0  0  0  0
   -2.8993    5.3781  -19.7860 C   0  0  0  0  0  0  0  0  0  0  0  0
   -7.9250    4.6236  -17.9116 C   0  0  0  0  0  0  0  0  0  0  0  0
   -8.2767    4.5959  -19.1959 N   0  0  0  0  0  0  0  0  0  0  0  0
   -9.5777    4.5531  -19.5053 C   0  0  0  0  0  0  0  0  0  0  0  0
  -10.5745    4.4037  -18.5871 C   0  0  0  0  0  0  0  0  0  0  0  0
  -10.1876    4.1612  -17.3083 C   0  0  0  0  0  0  0  0  0  0  0  0
   -8.8866    4.3840  -16.9339 C   0  0  0  0  0  0  0  0  0  0  0  0
   -8.6327    4.5435  -15.5882 C   0  0  0  0  0  0  0  0  0  0  0  0
  1  2  1  0
  2  3  1  0
  2  4  1  0
  2  5  1  0
  5  6  2  0
  6  7  1  0
  7  8  1  0
  8  9  1  0
  9 10  2  0
  9 11  1  0
 11 12  2  0
 12 13  1  0
 13 14  1  0
 14 15  2  0
 15 16  1  0
 16 17  2  0
 17 18  1  0
 13 19  2  0
 19 20  1  0
 20 21  2  0
 21 22  1  0
 22 23  2  0
 23 24  1  0
 24 25  2  0
  7 26  2  0
 26 27  1  0
 27 28  2  0
 28 29  1  0
 29 30  2  0
 30 31  1  0
 31 32  2  0
 32  5  1  0
 25 11  1  0
 31 26  1  0
 18 14  1  0
 25 20  1  0
M  END
>  <fragmenstein_outcome>  (452) 
nan

>  <exports>  (452) 
['/opt/xchem-fragalysis-2/maxwin/openbind-hippo/xx01zvns2b/cycle_01/syndirella/elabs/openbind_xx01zvns2b_c1_elab_chemspace_filtered.sdf']

>  <Energy>  (452) 
nan

>  <alias>  (452) 
None

>  <fragmenstein_runtime>  (452) 
nan

>  <scratch_subdir>  (452) 
nan

>  <HIPPO Compound ID>  (452) 
142396

>  <rmsd(smina/fragmenstein)>  (452) 
2.004

>  <distance_score>  (452) 
1.340719

>  <orig_smiles>  (452) 
nan

>  <fragmenstein_mode>  (452) 
nan

>  <inchikey>  (452) 
UABOTPUSOFUZEL-UHFFFAOYSA-N

>  <ref_pdb>  (452) 
Z0852a

>  <GNINA pK>  (452) 
nan

>  <gnina_score_min>  (452) 
6.524

>  <tags>  (452) 
openbind_xx01zvns2b_c1_elab_nonasap_filtered_scored_top80percent,openbind_xx01zvns2b_c1_elab_chemspace_filtered_scored_top80percent,openbind_xx01zvns2b_c1_elab_chemspace_filtered_scored,openbind_xx01zvns2b_c1_elab_chemspace_filtered_scored_top40percent,openbind_xx01zvns2b_c1_elab_chemspace_filtered_scored_top20percent,openbind_xx01zvns2b_c1_elab_chemspace_filtered_scored_top60percent,openbind_xx01zvns2b_c1_elabs_filtered

>  <smiles>  (452) 
CC(C)(C)c1cc(NC(=O)c2cc(-c3ccco3)nc3ccccc23)c2ncccc2c1

>  <subsites>  (452) 
1 - Z4590/B/203/1

>  <gnina_score>  (452) 
6.123

>  <HIPPO Pose ID>  (452) 
70404

>  <ref_mols>  (452) 
Z0917a,Z0852a

>  <energy_score>  (452) 
-18.512464

>  <inspiration_score>  (452) 
None

>  <smina_score_min>  (452) 
-6.649

>  <fragmenstein_error>  (452) 
nan

>  <name>  (452) 
P70404

$$$$
P70405
     RDKit          3D

 32 36  0  0  0  0  0  0  0  0999 V2000
   -5.9431    3.9148  -20.3368 O   0  0  0  0  0  0  0  0  0  0  0  0
   -5.3444    4.7281  -19.7436 C   0  0  0  0  0  0  0  0  0  0  0  0
   -5.5821    5.3203  -18.3229 N   0  0  0  0  0  0  0  0  0  0  0  0
   -6.6253    5.1081  -17.4118 C   0  0  0  0  0  0  0  0  0  0  0  0
   -6.4185    5.4414  -16.0615 C   0  0  0  0  0  0  0  0  0  0  0  0
   -7.4304    5.2333  -15.1071 C   0  0  0  0  0  0  0  0  0  0  0  0
   -7.3353    5.7358  -13.6933 C   0  0  0  0  0  0  0  0  0  0  0  0
   -8.4265    5.4318  -12.9326 F   0  0  0  0  0  0  0  0  0  0  0  0
   -6.2561    5.2578  -13.0258 F   0  0  0  0  0  0  0  0  0  0  0  0
   -7.2418    7.0961  -13.6497 F   0  0  0  0  0  0  0  0  0  0  0  0
   -8.6163    4.6395  -15.5081 C   0  0  0  0  0  0  0  0  0  0  0  0
   -8.8513    4.4448  -16.8556 C   0  0  0  0  0  0  0  0  0  0  0  0
  -10.1382    4.1719  -17.2425 C   0  0  0  0  0  0  0  0  0  0  0  0
  -10.5171    4.3594  -18.5350 C   0  0  0  0  0  0  0  0  0  0  0  0
   -9.5173    4.5239  -19.4481 C   0  0  0  0  0  0  0  0  0  0  0  0
   -8.2222    4.6207  -19.1221 N   0  0  0  0  0  0  0  0  0  0  0  0
   -7.8818    4.6749  -17.8344 C   0  0  0  0  0  0  0  0  0  0  0  0
   -4.1466    5.2750  -20.4187 C   0  0  0  0  0  0  0  0  0  0  0  0
   -4.3416    5.5969  -21.7638 C   0  0  0  0  0  0  0  0  0  0  0  0
   -3.2699    6.0700  -22.4842 C   0  0  0  0  0  0  0  0  0  0  0  0
   -3.3655    6.4325  -23.8915 C   0  0  0  0  0  0  0  0  0  0  0  0
   -2.4419    6.8129  -24.8462 C   0  0  0  0  0  0  0  0  0  0  0  0
   -3.1594    7.0249  -26.0487 C   0  0  0  0  0  0  0  0  0  0  0  0
   -4.4776    6.7674  -25.7567 C   0  0  0  0  0  0  0  0  0  0  0  0
   -4.6145    6.4162  -24.4525 O   0  0  0  0  0  0  0  0  0  0  0  0
   -2.0533    6.2598  -21.9287 N   0  0  0  0  0  0  0  0  0  0  0  0
   -1.8717    5.9617  -20.6333 C   0  0  0  0  0  0  0  0  0  0  0  0
   -0.6250    6.2295  -20.0887 C   0  0  0  0  0  0  0  0  0  0  0  0
   -0.3461    6.0081  -18.7419 C   0  0  0  0  0  0  0  0  0  0  0  0
   -1.3196    5.4516  -17.9287 C   0  0  0  0  0  0  0  0  0  0  0  0
   -2.5554    5.1008  -18.4679 C   0  0  0  0  0  0  0  0  0  0  0  0
   -2.8821    5.4275  -19.8093 C   0  0  0  0  0  0  0  0  0  0  0  0
  1  2  2  0
  2  3  1  0
  3  4  1  0
  4  5  2  0
  5  6  1  0
  6  7  1  0
  7  8  1  0
  7  9  1  0
  7 10  1  0
  6 11  2  0
 11 12  1  0
 12 13  2  0
 13 14  1  0
 14 15  2  0
 15 16  1  0
 16 17  2  0
  2 18  1  0
 18 19  2  0
 19 20  1  0
 20 21  1  0
 21 22  2  0
 22 23  1  0
 23 24  2  0
 24 25  1  0
 20 26  2  0
 26 27  1  0
 27 28  2  0
 28 29  1  0
 29 30  2  0
 30 31  1  0
 31 32  2  0
 17  4  1  0
 32 18  1  0
 17 12  1  0
 25 21  1  0
 32 27  1  0
M  END
>  <fragmenstein_outcome>  (453) 
nan

>  <exports>  (453) 
['/opt/xchem-fragalysis-2/maxwin/openbind-hippo/xx01zvns2b/cycle_01/syndirella/elabs/openbind_xx01zvns2b_c1_elab_chemspace_filtered.sdf']

>  <Energy>  (453) 
nan

>  <alias>  (453) 
None

>  <fragmenstein_runtime>  (453) 
nan

>  <scratch_subdir>  (453) 
nan

>  <HIPPO Compound ID>  (453) 
142397

>  <rmsd(smina/fragmenstein)>  (453) 
1.695

>  <distance_score>  (453) 
1.084488

>  <orig_smiles>  (453) 
nan

>  <fragmenstein_mode>  (453) 
nan

>  <inchikey>  (453) 
XUAGKVCCPJRUJL-UHFFFAOYSA-N

>  <ref_pdb>  (453) 
Z0852a

>  <GNINA pK>  (453) 
nan

>  <gnina_score_min>  (453) 
6.242

>  <tags>  (453) 
openbind_xx01zvns2b_c1_elab_nonasap_filtered_scored_top80percent,openbind_xx01zvns2b_c1_elab_chemspace_filtered_scored_top80percent,openbind_xx01zvns2b_c1_elab_chemspace_filtered_scored,openbind_xx01zvns2b_c1_elab_chemspace_filtered_scored_top40percent,openbind_xx01zvns2b_c1_elab_chemspace_filtered_scored_top20percent,openbind_xx01zvns2b_c1_elab_chemspace_filtered_scored_top60percent,openbind_xx01zvns2b_c1_elabs_filtered

>  <smiles>  (453) 
O=C(Nc1cc(C(F)(F)F)cc2cccnc12)c1cc(-c2ccco2)nc2ccccc12

>  <subsites>  (453) 
1 - Z4590/B/203/1

>  <gnina_score>  (453) 
5.805

>  <HIPPO Pose ID>  (453) 
70405

>  <ref_mols>  (453) 
Z0917a,Z0852a

>  <energy_score>  (453) 
-7.565915

>  <inspiration_score>  (453) 
None

>  <smina_score_min>  (453) 
-6.722

>  <fragmenstein_error>  (453) 
nan

>  <name>  (453) 
P70405

$$$$
P70406
     RDKit          3D

 32 36  0  0  0  0  0  0  0  0999 V2000
   -6.4462    4.8723  -11.4758 C   0  0  0  0  0  0  0  0  0  0  0  0
   -6.9336    4.7982  -12.8157 O   0  0  0  0  0  0  0  0  0  0  0  0
   -5.9819    4.9658  -13.7654 C   0  0  0  0  0  0  0  0  0  0  0  0
   -4.7998    5.1977  -13.5644 O   0  0  0  0  0  0  0  0  0  0  0  0
   -6.5734    4.8575  -15.1242 C   0  0  0  0  0  0  0  0  0  0  0  0
   -5.7665    5.1414  -16.2265 C   0  0  0  0  0  0  0  0  0  0  0  0
   -6.2563    5.0016  -17.5337 C   0  0  0  0  0  0  0  0  0  0  0  0
   -5.3255    5.2154  -18.5528 N   0  0  0  0  0  0  0  0  0  0  0  0
   -5.2960    4.6989  -20.0147 C   0  0  0  0  0  0  0  0  0  0  0  0
   -6.0052    3.9523  -20.5697 O   0  0  0  0  0  0  0  0  0  0  0  0
   -4.1451    5.2493  -20.7710 C   0  0  0  0  0  0  0  0  0  0  0  0
   -4.4544    5.6477  -22.0713 C   0  0  0  0  0  0  0  0  0  0  0  0
   -3.4481    6.1648  -22.8534 C   0  0  0  0  0  0  0  0  0  0  0  0
   -3.6969    6.6159  -24.2210 C   0  0  0  0  0  0  0  0  0  0  0  0
   -4.8289    6.7302  -25.0105 C   0  0  0  0  0  0  0  0  0  0  0  0
   -4.4056    7.2243  -26.2689 C   0  0  0  0  0  0  0  0  0  0  0  0
   -3.0456    7.3901  -26.1737 C   0  0  0  0  0  0  0  0  0  0  0  0
   -2.6079    7.0276  -24.9420 O   0  0  0  0  0  0  0  0  0  0  0  0
   -2.1912    6.3219  -22.3891 N   0  0  0  0  0  0  0  0  0  0  0  0
   -1.8971    5.9596  -21.1343 C   0  0  0  0  0  0  0  0  0  0  0  0
   -0.6079    6.2162  -20.6960 C   0  0  0  0  0  0  0  0  0  0  0  0
   -0.2095    5.9463  -19.3911 C   0  0  0  0  0  0  0  0  0  0  0  0
   -1.1064    5.3536  -18.5193 C   0  0  0  0  0  0  0  0  0  0  0  0
   -2.3835    5.0085  -18.9595 C   0  0  0  0  0  0  0  0  0  0  0  0
   -2.8315    5.3804  -20.2555 C   0  0  0  0  0  0  0  0  0  0  0  0
   -7.5935    4.6794  -17.7673 C   0  0  0  0  0  0  0  0  0  0  0  0
   -8.1333    4.7092  -18.9913 N   0  0  0  0  0  0  0  0  0  0  0  0
   -9.4536    4.5180  -19.1389 C   0  0  0  0  0  0  0  0  0  0  0  0
  -10.2958    4.2327  -18.0967 C   0  0  0  0  0  0  0  0  0  0  0  0
   -9.7316    4.1417  -16.8425 C   0  0  0  0  0  0  0  0  0  0  0  0
   -8.3935    4.4205  -16.6450 C   0  0  0  0  0  0  0  0  0  0  0  0
   -7.8927    4.4740  -15.3402 C   0  0  0  0  0  0  0  0  0  0  0  0
  1  2  1  0
  2  3  1  0
  3  4  2  0
  3  5  1  0
  5  6  2  0
  6  7  1  0
  7  8  1  0
  8  9  1  0
  9 10  2  0
  9 11  1  0
 11 12  2  0
 12 13  1  0
 13 14  1  0
 14 15  2  0
 15 16  1  0
 16 17  2  0
 17 18  1  0
 13 19  2  0
 19 20  1  0
 20 21  2  0
 21 22  1  0
 22 23  2  0
 23 24  1  0
 24 25  2  0
  7 26  2  0
 26 27  1  0
 27 28  2  0
 28 29  1  0
 29 30  2  0
 30 31  1  0
 31 32  2  0
 32  5  1  0
 25 11  1  0
 31 26  1  0
 18 14  1  0
 25 20  1  0
M  END
>  <fragmenstein_outcome>  (454) 
nan

>  <exports>  (454) 
['/opt/xchem-fragalysis-2/maxwin/openbind-hippo/xx01zvns2b/cycle_01/syndirella/elabs/openbind_xx01zvns2b_c1_elab_chemspace_filtered.sdf']

>  <Energy>  (454) 
nan

>  <alias>  (454) 
None

>  <fragmenstein_runtime>  (454) 
nan

>  <scratch_subdir>  (454) 
nan

>  <HIPPO Compound ID>  (454) 
142398

>  <rmsd(smina/fragmenstein)>  (454) 
1.641

>  <distance_score>  (454) 
1.658672

>  <orig_smiles>  (454) 
nan

>  <fragmenstein_mode>  (454) 
nan

>  <inchikey>  (454) 
IXVVUQBJKDJOGE-UHFFFAOYSA-N

>  <ref_pdb>  (454) 
Z0852a

>  <GNINA pK>  (454) 
nan

>  <gnina_score_min>  (454) 
6.192

>  <tags>  (454) 
openbind_xx01zvns2b_c1_elab_nonasap_filtered_scored_top80percent,openbind_xx01zvns2b_c1_elab_chemspace_filtered_scored_top80percent,openbind_xx01zvns2b_c1_elab_chemspace_filtered_scored,openbind_xx01zvns2b_c1_elab_chemspace_filtered_scored_top40percent,openbind_xx01zvns2b_c1_elab_chemspace_filtered_scored_top20percent,openbind_xx01zvns2b_c1_elab_chemspace_filtered_scored_top60percent,openbind_xx01zvns2b_c1_elabs_filtered

>  <smiles>  (454) 
COC(=O)c1cc(NC(=O)c2cc(-c3ccco3)nc3ccccc23)c2ncccc2c1

>  <subsites>  (454) 
1 - Z4590/B/203/1

>  <gnina_score>  (454) 
6.087

>  <HIPPO Pose ID>  (454) 
70406

>  <ref_mols>  (454) 
Z0917a,Z0852a

>  <energy_score>  (454) 
-38.784959

>  <inspiration_score>  (454) 
None

>  <smina_score_min>  (454) 
-6.542

>  <fragmenstein_error>  (454) 
nan

>  <name>  (454) 
P70406

$$$$
P70407
     RDKit          3D

 32 36  0  0  0  0  0  0  0  0999 V2000
   -2.7369    4.4452  -18.3335 C   0  0  0  0  0  0  0  0  0  0  0  0
   -2.7964    5.3083  -19.5576 C   0  0  0  0  0  0  0  0  0  0  0  0
   -1.6520    6.0028  -19.9484 C   0  0  0  0  0  0  0  0  0  0  0  0
   -0.4887    6.2388  -18.9961 C   0  0  0  0  0  0  0  0  0  0  0  0
    0.8593    6.6746  -19.5325 C   0  0  0  0  0  0  0  0  0  0  0  0
    0.6906    5.3078  -18.9472 C   0  0  0  0  0  0  0  0  0  0  0  0
   -1.5946    6.6121  -21.1515 N   0  0  0  0  0  0  0  0  0  0  0  0
   -2.6533    6.6309  -21.9604 C   0  0  0  0  0  0  0  0  0  0  0  0
   -2.4852    7.2788  -23.1733 C   0  0  0  0  0  0  0  0  0  0  0  0
   -3.5424    7.4630  -24.0562 C   0  0  0  0  0  0  0  0  0  0  0  0
   -4.7957    6.9857  -23.7112 C   0  0  0  0  0  0  0  0  0  0  0  0
   -6.2308    7.3079  -24.8907 Br  0  0  0  0  0  0  0  0  0  0  0  0
   -4.9821    6.3013  -22.5078 C   0  0  0  0  0  0  0  0  0  0  0  0
   -3.9036    6.1033  -21.6050 C   0  0  0  0  0  0  0  0  0  0  0  0
   -3.9536    5.4462  -20.3477 C   0  0  0  0  0  0  0  0  0  0  0  0
   -5.2366    4.8855  -19.8287 C   0  0  0  0  0  0  0  0  0  0  0  0
   -5.8308    4.1242  -20.4938 O   0  0  0  0  0  0  0  0  0  0  0  0
   -5.5049    5.3810  -18.3655 N   0  0  0  0  0  0  0  0  0  0  0  0
   -6.5791    5.1169  -17.4935 C   0  0  0  0  0  0  0  0  0  0  0  0
   -6.3902    5.4477  -16.1325 C   0  0  0  0  0  0  0  0  0  0  0  0
   -7.4023    5.2377  -15.1768 C   0  0  0  0  0  0  0  0  0  0  0  0
   -7.3136    5.7369  -13.7601 C   0  0  0  0  0  0  0  0  0  0  0  0
   -6.2348    5.2601  -13.0906 F   0  0  0  0  0  0  0  0  0  0  0  0
   -7.2245    7.0972  -13.7115 F   0  0  0  0  0  0  0  0  0  0  0  0
   -8.4057    5.4269  -13.0026 F   0  0  0  0  0  0  0  0  0  0  0  0
   -8.5854    4.6495  -15.5836 C   0  0  0  0  0  0  0  0  0  0  0  0
   -8.8063    4.4481  -16.9310 C   0  0  0  0  0  0  0  0  0  0  0  0
  -10.0999    4.2011  -17.3091 C   0  0  0  0  0  0  0  0  0  0  0  0
  -10.4638    4.3757  -18.6055 C   0  0  0  0  0  0  0  0  0  0  0  0
   -9.4531    4.4713  -19.5190 C   0  0  0  0  0  0  0  0  0  0  0  0
   -8.1540    4.5446  -19.1976 N   0  0  0  0  0  0  0  0  0  0  0  0
   -7.8244    4.6545  -17.9136 C   0  0  0  0  0  0  0  0  0  0  0  0
  1  2  1  0
  2  3  2  0
  3  4  1  0
  4  5  1  0
  5  6  1  0
  3  7  1  0
  7  8  2  0
  8  9  1  0
  9 10  2  0
 10 11  1  0
 11 12  1  0
 11 13  2  0
 13 14  1  0
 14 15  2  0
 15 16  1  0
 16 17  2  0
 16 18  1  0
 18 19  1  0
 19 20  2  0
 20 21  1  0
 21 22  1  0
 22 23  1  0
 22 24  1  0
 22 25  1  0
 21 26  2  0
 26 27  1  0
 27 28  2  0
 28 29  1  0
 29 30  2  0
 30 31  1  0
 31 32  2  0
 15  2  1  0
 32 19  1  0
  6  4  1  0
 14  8  1  0
 32 27  1  0
M  END
>  <fragmenstein_outcome>  (455) 
nan

>  <exports>  (455) 
['/opt/xchem-fragalysis-2/maxwin/openbind-hippo/xx01zvns2b/cycle_01/syndirella/elabs/openbind_xx01zvns2b_c1_elab_chemspace_filtered.sdf']

>  <Energy>  (455) 
nan

>  <alias>  (455) 
None

>  <fragmenstein_runtime>  (455) 
nan

>  <scratch_subdir>  (455) 
nan

>  <HIPPO Compound ID>  (455) 
142409

>  <rmsd(smina/fragmenstein)>  (455) 
0.473

>  <distance_score>  (455) 
1.191137

>  <orig_smiles>  (455) 
nan

>  <fragmenstein_mode>  (455) 
nan

>  <inchikey>  (455) 
WNSJYKRUHMRNAX-UHFFFAOYSA-N

>  <ref_pdb>  (455) 
Z0852a

>  <GNINA pK>  (455) 
nan

>  <gnina_score_min>  (455) 
6.512

>  <tags>  (455) 
openbind_xx01zvns2b_c1_elab_nonasap_filtered_scored_top80percent,openbind_xx01zvns2b_c1_elab_chemspace_filtered_scored_top80percent,openbind_xx01zvns2b_c1_elab_chemspace_filtered_scored,openbind_xx01zvns2b_c1_elab_chemspace_filtered_scored_top40percent,openbind_xx01zvns2b_c1_elab_chemspace_filtered_scored_top20percent,openbind_xx01zvns2b_c1_elab_chemspace_filtered_scored_top60percent,openbind_xx01zvns2b_c1_elabs_filtered

>  <smiles>  (455) 
Cc1c(C2CC2)nc2ccc(Br)cc2c1C(=O)Nc1cc(C(F)(F)F)cc2cccnc12

>  <subsites>  (455) 
1 - Z4590/B/203/1

>  <gnina_score>  (455) 
6.077

>  <HIPPO Pose ID>  (455) 
70407

>  <ref_mols>  (455) 
Z0917a,Z0852a

>  <energy_score>  (455) 
-15.753923

>  <inspiration_score>  (455) 
None

>  <smina_score_min>  (455) 
-6.804

>  <fragmenstein_error>  (455) 
nan

>  <name>  (455) 
P70407

$$$$
P70408
     RDKit          3D

 32 36  0  0  0  0  0  0  0  0999 V2000
    1.2544    6.2149  -18.9959 C   0  0  0  0  0  0  0  0  0  0  0  0
   -0.1559    5.9301  -19.4103 C   0  0  0  0  0  0  0  0  0  0  0  0
   -1.0775    5.4124  -18.5146 C   0  0  0  0  0  0  0  0  0  0  0  0
   -2.3951    5.1046  -18.9084 C   0  0  0  0  0  0  0  0  0  0  0  0
   -3.2245    4.4305  -17.8576 C   0  0  0  0  0  0  0  0  0  0  0  0
   -2.8609    5.4776  -20.2237 C   0  0  0  0  0  0  0  0  0  0  0  0
   -4.1652    5.4096  -20.8093 C   0  0  0  0  0  0  0  0  0  0  0  0
   -5.3720    4.8936  -20.1316 C   0  0  0  0  0  0  0  0  0  0  0  0
   -5.9679    4.0252  -20.6392 O   0  0  0  0  0  0  0  0  0  0  0  0
   -5.6339    5.6507  -18.8053 N   0  0  0  0  0  0  0  0  0  0  0  0
   -6.5978    5.4393  -17.8134 C   0  0  0  0  0  0  0  0  0  0  0  0
   -6.2849    5.8979  -16.5321 C   0  0  0  0  0  0  0  0  0  0  0  0
   -7.0932    5.6120  -15.4185 C   0  0  0  0  0  0  0  0  0  0  0  0
   -6.6634    6.0485  -14.0321 C   0  0  0  0  0  0  0  0  0  0  0  0
   -7.6762    5.7038  -12.9214 C   0  0  0  0  0  0  0  0  0  0  0  0
   -5.3421    5.3296  -13.7253 C   0  0  0  0  0  0  0  0  0  0  0  0
   -6.4295    7.5729  -13.9662 C   0  0  0  0  0  0  0  0  0  0  0  0
   -8.2524    4.8836  -15.6266 C   0  0  0  0  0  0  0  0  0  0  0  0
   -8.6347    4.5796  -16.9188 C   0  0  0  0  0  0  0  0  0  0  0  0
   -9.9213    4.1468  -17.1078 C   0  0  0  0  0  0  0  0  0  0  0  0
  -10.4630    4.1976  -18.3603 C   0  0  0  0  0  0  0  0  0  0  0  0
   -9.6035    4.4434  -19.4013 C   0  0  0  0  0  0  0  0  0  0  0  0
   -8.2912    4.6470  -19.2559 N   0  0  0  0  0  0  0  0  0  0  0  0
   -7.8207    4.8303  -18.0306 C   0  0  0  0  0  0  0  0  0  0  0  0
   -4.4317    5.8612  -22.1080 C   0  0  0  0  0  0  0  0  0  0  0  0
   -3.4063    6.3817  -22.8630 C   0  0  0  0  0  0  0  0  0  0  0  0
   -3.6026    7.0081  -24.2255 C   0  0  0  0  0  0  0  0  0  0  0  0
   -3.3799    6.1606  -25.4568 C   0  0  0  0  0  0  0  0  0  0  0  0
   -4.7496    6.6926  -25.1528 C   0  0  0  0  0  0  0  0  0  0  0  0
   -2.1608    6.4336  -22.3487 N   0  0  0  0  0  0  0  0  0  0  0  0
   -1.9015    6.0203  -21.1019 C   0  0  0  0  0  0  0  0  0  0  0  0
   -0.5918    6.2163  -20.6983 C   0  0  0  0  0  0  0  0  0  0  0  0
  1  2  1  0
  2  3  2  0
  3  4  1  0
  4  5  1  0
  4  6  2  0
  6  7  1  0
  7  8  1  0
  8  9  2  0
  8 10  1  0
 10 11  1  0
 11 12  2  0
 12 13  1  0
 13 14  1  0
 14 15  1  0
 14 16  1  0
 14 17  1  0
 13 18  2  0
 18 19  1  0
 19 20  2  0
 20 21  1  0
 21 22  2  0
 22 23  1  0
 23 24  2  0
  7 25  2  0
 25 26  1  0
 26 27  1  0
 27 28  1  0
 28 29  1  0
 26 30  2  0
 30 31  1  0
 31 32  2  0
 32  2  1  0
 31  6  1  0
 24 11  1  0
 29 27  1  0
 24 19  1  0
M  END
>  <fragmenstein_outcome>  (456) 
nan

>  <exports>  (456) 
['/opt/xchem-fragalysis-2/maxwin/openbind-hippo/xx01zvns2b/cycle_01/syndirella/elabs/openbind_xx01zvns2b_c1_elab_chemspace_filtered.sdf']

>  <Energy>  (456) 
nan

>  <alias>  (456) 
None

>  <fragmenstein_runtime>  (456) 
nan

>  <scratch_subdir>  (456) 
nan

>  <HIPPO Compound ID>  (456) 
142410

>  <rmsd(smina/fragmenstein)>  (456) 
1.674

>  <distance_score>  (456) 
1.402113

>  <orig_smiles>  (456) 
nan

>  <fragmenstein_mode>  (456) 
nan

>  <inchikey>  (456) 
BZJMAWJAVHONLY-UHFFFAOYSA-N

>  <ref_pdb>  (456) 
Z0852a

>  <GNINA pK>  (456) 
nan

>  <gnina_score_min>  (456) 
6.816

>  <tags>  (456) 
openbind_xx01zvns2b_c1_elab_nonasap_filtered_scored_top80percent,openbind_xx01zvns2b_c1_elab_chemspace_filtered_scored_top80percent,openbind_xx01zvns2b_c1_elab_chemspace_filtered_scored,openbind_xx01zvns2b_c1_elab_chemspace_filtered_scored_top40percent,openbind_xx01zvns2b_c1_elab_chemspace_filtered_scored_top20percent,openbind_xx01zvns2b_c1_elab_chemspace_filtered_scored_top60percent,openbind_xx01zvns2b_c1_elabs_filtered

>  <smiles>  (456) 
Cc1cc(C)c2c(C(=O)Nc3cc(C(C)(C)C)cc4cccnc34)cc(C3CC3)nc2c1

>  <subsites>  (456) 
1 - Z4590/B/203/1

>  <gnina_score>  (456) 
6.355

>  <HIPPO Pose ID>  (456) 
70408

>  <ref_mols>  (456) 
Z0917a,Z0852a

>  <energy_score>  (456) 
-29.346497

>  <inspiration_score>  (456) 
None

>  <smina_score_min>  (456) 
-6.771

>  <fragmenstein_error>  (456) 
nan

>  <name>  (456) 
P70408

$$$$
P70409
     RDKit          3D

 32 36  0  0  0  0  0  0  0  0999 V2000
    1.2187    6.5711  -18.2698 C   0  0  0  0  0  0  0  0  0  0  0  0
   -0.1657    6.2206  -18.7211 C   0  0  0  0  0  0  0  0  0  0  0  0
   -1.0840    5.6593  -17.8478 C   0  0  0  0  0  0  0  0  0  0  0  0
   -2.3590    5.2463  -18.2874 C   0  0  0  0  0  0  0  0  0  0  0  0
   -3.1771    4.5392  -17.2452 C   0  0  0  0  0  0  0  0  0  0  0  0
   -2.7825    5.5190  -19.6421 C   0  0  0  0  0  0  0  0  0  0  0  0
   -4.0479    5.3381  -20.2789 C   0  0  0  0  0  0  0  0  0  0  0  0
   -5.2828    4.8242  -19.6424 C   0  0  0  0  0  0  0  0  0  0  0  0
   -5.8593    3.9913  -20.2282 O   0  0  0  0  0  0  0  0  0  0  0  0
   -5.6260    5.5352  -18.3054 N   0  0  0  0  0  0  0  0  0  0  0  0
   -6.6675    5.3077  -17.3943 C   0  0  0  0  0  0  0  0  0  0  0  0
   -6.4932    5.6848  -16.0516 C   0  0  0  0  0  0  0  0  0  0  0  0
   -7.4716    5.3873  -15.0868 C   0  0  0  0  0  0  0  0  0  0  0  0
   -7.3838    5.8680  -13.6659 C   0  0  0  0  0  0  0  0  0  0  0  0
   -6.3141    5.3693  -12.9991 F   0  0  0  0  0  0  0  0  0  0  0  0
   -7.2785    7.2258  -13.6019 F   0  0  0  0  0  0  0  0  0  0  0  0
   -8.4844    5.5609  -12.9206 F   0  0  0  0  0  0  0  0  0  0  0  0
   -8.6079    4.6993  -15.4764 C   0  0  0  0  0  0  0  0  0  0  0  0
   -8.8342    4.4874  -16.8221 C   0  0  0  0  0  0  0  0  0  0  0  0
  -10.1055    4.1459  -17.1996 C   0  0  0  0  0  0  0  0  0  0  0  0
  -10.4963    4.3043  -18.4932 C   0  0  0  0  0  0  0  0  0  0  0  0
   -9.5098    4.5111  -19.4144 C   0  0  0  0  0  0  0  0  0  0  0  0
   -8.2197    4.6755  -19.0949 N   0  0  0  0  0  0  0  0  0  0  0  0
   -7.8844    4.7691  -17.8075 C   0  0  0  0  0  0  0  0  0  0  0  0
   -4.2328    5.6055  -21.6470 C   0  0  0  0  0  0  0  0  0  0  0  0
   -3.1841    6.0733  -22.4049 C   0  0  0  0  0  0  0  0  0  0  0  0
   -3.3566    6.3694  -23.8792 C   0  0  0  0  0  0  0  0  0  0  0  0
   -2.1975    6.8620  -24.7166 C   0  0  0  0  0  0  0  0  0  0  0  0
   -2.7014    5.4616  -24.8955 C   0  0  0  0  0  0  0  0  0  0  0  0
   -1.9950    6.2996  -21.8165 N   0  0  0  0  0  0  0  0  0  0  0  0
   -1.8037    6.0442  -20.5153 C   0  0  0  0  0  0  0  0  0  0  0  0
   -0.5383    6.3655  -20.0533 C   0  0  0  0  0  0  0  0  0  0  0  0
  1  2  1  0
  2  3  2  0
  3  4  1  0
  4  5  1  0
  4  6  2  0
  6  7  1  0
  7  8  1  0
  8  9  2  0
  8 10  1  0
 10 11  1  0
 11 12  2  0
 12 13  1  0
 13 14  1  0
 14 15  1  0
 14 16  1  0
 14 17  1  0
 13 18  2  0
 18 19  1  0
 19 20  2  0
 20 21  1  0
 21 22  2  0
 22 23  1  0
 23 24  2  0
  7 25  2  0
 25 26  1  0
 26 27  1  0
 27 28  1  0
 28 29  1  0
 26 30  2  0
 30 31  1  0
 31 32  2  0
 32  2  1  0
 31  6  1  0
 24 11  1  0
 29 27  1  0
 24 19  1  0
M  END
>  <fragmenstein_outcome>  (457) 
nan

>  <exports>  (457) 
['/opt/xchem-fragalysis-2/maxwin/openbind-hippo/xx01zvns2b/cycle_01/syndirella/elabs/openbind_xx01zvns2b_c1_elab_chemspace_filtered.sdf']

>  <Energy>  (457) 
nan

>  <alias>  (457) 
None

>  <fragmenstein_runtime>  (457) 
nan

>  <scratch_subdir>  (457) 
nan

>  <HIPPO Compound ID>  (457) 
142411

>  <rmsd(smina/fragmenstein)>  (457) 
2.013

>  <distance_score>  (457) 
1.102515

>  <orig_smiles>  (457) 
nan

>  <fragmenstein_mode>  (457) 
nan

>  <inchikey>  (457) 
RVXSVOJXTZKBCI-UHFFFAOYSA-N

>  <ref_pdb>  (457) 
Z0852a

>  <GNINA pK>  (457) 
nan

>  <gnina_score_min>  (457) 
6.422

>  <tags>  (457) 
openbind_xx01zvns2b_c1_elab_nonasap_filtered_scored_top80percent,openbind_xx01zvns2b_c1_elab_chemspace_filtered_scored_top80percent,openbind_xx01zvns2b_c1_elab_chemspace_filtered_scored,openbind_xx01zvns2b_c1_elab_chemspace_filtered_scored_top40percent,openbind_xx01zvns2b_c1_elab_chemspace_filtered_scored_top20percent,openbind_xx01zvns2b_c1_elab_chemspace_filtered_scored_top60percent,openbind_xx01zvns2b_c1_elabs_filtered

>  <smiles>  (457) 
Cc1cc(C)c2c(C(=O)Nc3cc(C(F)(F)F)cc4cccnc34)cc(C3CC3)nc2c1

>  <subsites>  (457) 
1 - Z4590/B/203/1

>  <gnina_score>  (457) 
6.194

>  <HIPPO Pose ID>  (457) 
70409

>  <ref_mols>  (457) 
Z0917a,Z0852a

>  <energy_score>  (457) 
-22.271141

>  <inspiration_score>  (457) 
None

>  <smina_score_min>  (457) 
-6.507

>  <fragmenstein_error>  (457) 
nan

>  <name>  (457) 
P70409

$$$$
P70410
     RDKit          3D

 32 36  0  0  0  0  0  0  0  0999 V2000
   -8.0235    6.7332  -13.4333 C   0  0  0  0  0  0  0  0  0  0  0  0
   -6.8992    5.8026  -13.9363 C   0  0  0  0  0  0  0  0  0  0  0  0
   -6.8147    4.5755  -13.0128 C   0  0  0  0  0  0  0  0  0  0  0  0
   -5.5949    6.5801  -13.8024 C   0  0  0  0  0  0  0  0  0  0  0  0
   -7.1404    5.3656  -15.3807 C   0  0  0  0  0  0  0  0  0  0  0  0
   -6.2748    5.6524  -16.4610 C   0  0  0  0  0  0  0  0  0  0  0  0
   -6.5720    5.2983  -17.7948 C   0  0  0  0  0  0  0  0  0  0  0  0
   -5.6298    5.6829  -18.7743 N   0  0  0  0  0  0  0  0  0  0  0  0
   -5.3398    5.0901  -20.1919 C   0  0  0  0  0  0  0  0  0  0  0  0
   -5.8908    4.2447  -20.7890 O   0  0  0  0  0  0  0  0  0  0  0  0
   -4.0826    5.6760  -20.7875 C   0  0  0  0  0  0  0  0  0  0  0  0
   -2.8817    5.6464  -20.0431 C   0  0  0  0  0  0  0  0  0  0  0  0
   -1.7214    6.0830  -20.6876 C   0  0  0  0  0  0  0  0  0  0  0  0
   -1.6930    6.4585  -21.9759 N   0  0  0  0  0  0  0  0  0  0  0  0
   -2.8214    6.5046  -22.6662 C   0  0  0  0  0  0  0  0  0  0  0  0
   -2.6980    6.9831  -23.9587 C   0  0  0  0  0  0  0  0  0  0  0  0
   -3.8079    7.2098  -24.7568 C   0  0  0  0  0  0  0  0  0  0  0  0
   -5.0631    6.9358  -24.2441 C   0  0  0  0  0  0  0  0  0  0  0  0
   -6.5560    7.3877  -25.3013 Br  0  0  0  0  0  0  0  0  0  0  0  0
   -5.2024    6.3873  -22.9635 C   0  0  0  0  0  0  0  0  0  0  0  0
   -4.0764    6.1607  -22.1314 C   0  0  0  0  0  0  0  0  0  0  0  0
   -0.3807    6.1862  -20.0111 C   0  0  0  0  0  0  0  0  0  0  0  0
   -0.5039    6.2147  -18.5009 C   0  0  0  0  0  0  0  0  0  0  0  0
   -1.3935    5.0588  -18.0953 C   0  0  0  0  0  0  0  0  0  0  0  0
   -2.8116    5.2241  -18.5996 C   0  0  0  0  0  0  0  0  0  0  0  0
   -7.8020    4.7199  -18.0673 C   0  0  0  0  0  0  0  0  0  0  0  0
   -8.2504    4.5835  -19.3067 N   0  0  0  0  0  0  0  0  0  0  0  0
   -9.5714    4.4660  -19.4873 C   0  0  0  0  0  0  0  0  0  0  0  0
  -10.4766    4.2803  -18.4748 C   0  0  0  0  0  0  0  0  0  0  0  0
   -9.9726    4.1420  -17.2170 C   0  0  0  0  0  0  0  0  0  0  0  0
   -8.6613    4.4639  -16.9844 C   0  0  0  0  0  0  0  0  0  0  0  0
   -8.3142    4.6903  -15.6680 C   0  0  0  0  0  0  0  0  0  0  0  0
  1  2  1  0
  2  3  1  0
  2  4  1  0
  2  5  1  0
  5  6  2  0
  6  7  1  0
  7  8  1  0
  8  9  1  0
  9 10  2  0
  9 11  1  0
 11 12  2  0
 12 13  1  0
 13 14  2  0
 14 15  1  0
 15 16  2  0
 16 17  1  0
 17 18  2  0
 18 19  1  0
 18 20  1  0
 20 21  2  0
 13 22  1  0
 22 23  1  0
 23 24  1  0
 24 25  1  0
  7 26  2  0
 26 27  1  0
 27 28  2  0
 28 29  1  0
 29 30  2  0
 30 31  1  0
 31 32  2  0
 32  5  1  0
 21 11  1  0
 31 26  1  0
 25 12  1  0
 21 15  1  0
M  END
>  <fragmenstein_outcome>  (458) 
nan

>  <exports>  (458) 
['/opt/xchem-fragalysis-2/maxwin/openbind-hippo/xx01zvns2b/cycle_01/syndirella/elabs/openbind_xx01zvns2b_c1_elab_chemspace_filtered.sdf']

>  <Energy>  (458) 
nan

>  <alias>  (458) 
None

>  <fragmenstein_runtime>  (458) 
nan

>  <scratch_subdir>  (458) 
nan

>  <HIPPO Compound ID>  (458) 
142412

>  <rmsd(smina/fragmenstein)>  (458) 
0.871

>  <distance_score>  (458) 
1.401305

>  <orig_smiles>  (458) 
nan

>  <fragmenstein_mode>  (458) 
nan

>  <inchikey>  (458) 
HFKQZZNTCKNODC-UHFFFAOYSA-N

>  <ref_pdb>  (458) 
Z0852a

>  <GNINA pK>  (458) 
nan

>  <gnina_score_min>  (458) 
6.608

>  <tags>  (458) 
openbind_xx01zvns2b_c1_elab_nonasap_filtered_scored_top80percent,openbind_xx01zvns2b_c1_elab_chemspace_filtered_scored_top80percent,openbind_xx01zvns2b_c1_elab_chemspace_filtered_scored,openbind_xx01zvns2b_c1_elab_chemspace_filtered_scored_top40percent,openbind_xx01zvns2b_c1_elab_chemspace_filtered_scored_top20percent,openbind_xx01zvns2b_c1_elab_chemspace_filtered_scored_top60percent,openbind_xx01zvns2b_c1_elabs_filtered

>  <smiles>  (458) 
CC(C)(C)c1cc(NC(=O)c2c3c(nc4ccc(Br)cc24)CCCC3)c2ncccc2c1

>  <subsites>  (458) 
1 - Z4590/B/203/1

>  <gnina_score>  (458) 
6.166

>  <HIPPO Pose ID>  (458) 
70410

>  <ref_mols>  (458) 
Z0917a,Z0852a

>  <energy_score>  (458) 
-20.839797

>  <inspiration_score>  (458) 
None

>  <smina_score_min>  (458) 
-7.075

>  <fragmenstein_error>  (458) 
nan

>  <name>  (458) 
P70410

$$$$
P70411
     RDKit          3D

 32 36  0  0  0  0  0  0  0  0999 V2000
   -5.9186    4.1397  -20.5179 O   0  0  0  0  0  0  0  0  0  0  0  0
   -5.3021    4.9057  -19.8795 C   0  0  0  0  0  0  0  0  0  0  0  0
   -5.5846    5.5022  -18.4602 N   0  0  0  0  0  0  0  0  0  0  0  0
   -6.6044    5.2100  -17.5311 C   0  0  0  0  0  0  0  0  0  0  0  0
   -6.3840    5.5432  -16.1770 C   0  0  0  0  0  0  0  0  0  0  0  0
   -7.3619    5.2911  -15.1932 C   0  0  0  0  0  0  0  0  0  0  0  0
   -7.2581    5.7867  -13.7759 C   0  0  0  0  0  0  0  0  0  0  0  0
   -8.3464    5.4803  -13.0102 F   0  0  0  0  0  0  0  0  0  0  0  0
   -6.1784    5.2987  -13.1164 F   0  0  0  0  0  0  0  0  0  0  0  0
   -7.1610    7.1457  -13.7226 F   0  0  0  0  0  0  0  0  0  0  0  0
   -8.5333    4.6562  -15.5654 C   0  0  0  0  0  0  0  0  0  0  0  0
   -8.7892    4.4571  -16.9058 C   0  0  0  0  0  0  0  0  0  0  0  0
  -10.0832    4.1642  -17.2477 C   0  0  0  0  0  0  0  0  0  0  0  0
  -10.4964    4.3363  -18.5315 C   0  0  0  0  0  0  0  0  0  0  0  0
   -9.5208    4.5034  -19.4730 C   0  0  0  0  0  0  0  0  0  0  0  0
   -8.2169    4.6164  -19.1870 N   0  0  0  0  0  0  0  0  0  0  0  0
   -7.8481    4.7103  -17.9133 C   0  0  0  0  0  0  0  0  0  0  0  0
   -3.9889    5.3592  -20.4108 C   0  0  0  0  0  0  0  0  0  0  0  0
   -2.8362    5.1296  -19.6554 C   0  0  0  0  0  0  0  0  0  0  0  0
   -1.6284    5.5705  -20.1857 C   0  0  0  0  0  0  0  0  0  0  0  0
   -1.5094    6.1399  -21.3966 N   0  0  0  0  0  0  0  0  0  0  0  0
   -2.6063    6.3184  -22.1323 C   0  0  0  0  0  0  0  0  0  0  0  0
   -2.4277    6.9212  -23.3673 C   0  0  0  0  0  0  0  0  0  0  0  0
   -3.5030    7.2371  -24.1908 C   0  0  0  0  0  0  0  0  0  0  0  0
   -4.7861    6.9361  -23.7656 C   0  0  0  0  0  0  0  0  0  0  0  0
   -6.2406    7.4328  -24.8589 Br  0  0  0  0  0  0  0  0  0  0  0  0
   -4.9894    6.2977  -22.5406 C   0  0  0  0  0  0  0  0  0  0  0  0
   -3.9000    5.9730  -21.6925 C   0  0  0  0  0  0  0  0  0  0  0  0
   -0.3858    5.4525  -19.3405 C   0  0  0  0  0  0  0  0  0  0  0  0
   -0.6831    5.9045  -17.9057 C   0  0  0  0  0  0  0  0  0  0  0  0
   -2.0136    5.3636  -17.3460 C   0  0  0  0  0  0  0  0  0  0  0  0
   -2.7479    4.4402  -18.3240 C   0  0  0  0  0  0  0  0  0  0  0  0
  1  2  2  0
  2  3  1  0
  3  4  1  0
  4  5  2  0
  5  6  1  0
  6  7  1  0
  7  8  1  0
  7  9  1  0
  7 10  1  0
  6 11  2  0
 11 12  1  0
 12 13  2  0
 13 14  1  0
 14 15  2  0
 15 16  1  0
 16 17  2  0
  2 18  1  0
 18 19  2  0
 19 20  1  0
 20 21  2  0
 21 22  1  0
 22 23  2  0
 23 24  1  0
 24 25  2  0
 25 26  1  0
 25 27  1  0
 27 28  2  0
 20 29  1  0
 29 30  1  0
 30 31  1  0
 31 32  1  0
 17  4  1  0
 28 18  1  0
 17 12  1  0
 32 19  1  0
 28 22  1  0
M  END
>  <fragmenstein_outcome>  (459) 
nan

>  <exports>  (459) 
['/opt/xchem-fragalysis-2/maxwin/openbind-hippo/xx01zvns2b/cycle_01/syndirella/elabs/openbind_xx01zvns2b_c1_elab_chemspace_filtered.sdf']

>  <Energy>  (459) 
nan

>  <alias>  (459) 
None

>  <fragmenstein_runtime>  (459) 
nan

>  <scratch_subdir>  (459) 
nan

>  <HIPPO Compound ID>  (459) 
142413

>  <rmsd(smina/fragmenstein)>  (459) 
0.408

>  <distance_score>  (459) 
1.07618

>  <orig_smiles>  (459) 
nan

>  <fragmenstein_mode>  (459) 
nan

>  <inchikey>  (459) 
NVDOSAFDRKFYFI-UHFFFAOYSA-N

>  <ref_pdb>  (459) 
Z0852a

>  <GNINA pK>  (459) 
nan

>  <gnina_score_min>  (459) 
6.577

>  <tags>  (459) 
openbind_xx01zvns2b_c1_elab_nonasap_filtered_scored_top80percent,openbind_xx01zvns2b_c1_elab_chemspace_filtered_scored_top80percent,openbind_xx01zvns2b_c1_elab_chemspace_filtered_scored,openbind_xx01zvns2b_c1_elab_chemspace_filtered_scored_top40percent,openbind_xx01zvns2b_c1_elab_chemspace_filtered_scored_top20percent,openbind_xx01zvns2b_c1_elab_chemspace_filtered_scored_top60percent,openbind_xx01zvns2b_c1_elabs_filtered

>  <smiles>  (459) 
O=C(Nc1cc(C(F)(F)F)cc2cccnc12)c1c2c(nc3ccc(Br)cc13)CCCC2

>  <subsites>  (459) 
1 - Z4590/B/203/1

>  <gnina_score>  (459) 
6.09

>  <HIPPO Pose ID>  (459) 
70411

>  <ref_mols>  (459) 
Z0917a,Z0852a

>  <energy_score>  (459) 
-12.048316

>  <inspiration_score>  (459) 
None

>  <smina_score_min>  (459) 
-7.282

>  <fragmenstein_error>  (459) 
nan

>  <name>  (459) 
P70411

$$$$
P70412
     RDKit          3D

 32 36  0  0  0  0  0  0  0  0999 V2000
   -1.7995    5.2650  -16.2141 C   0  0  0  0  0  0  0  0  0  0  0  0
   -1.6986    5.3595  -17.7091 C   0  0  0  0  0  0  0  0  0  0  0  0
   -0.5659    5.8825  -18.3215 C   0  0  0  0  0  0  0  0  0  0  0  0
   -0.5610    6.0985  -19.7003 C   0  0  0  0  0  0  0  0  0  0  0  0
   -1.6967    5.9142  -20.4749 C   0  0  0  0  0  0  0  0  0  0  0  0
   -1.6515    6.3251  -21.7477 N   0  0  0  0  0  0  0  0  0  0  0  0
   -2.7886    6.3721  -22.4762 C   0  0  0  0  0  0  0  0  0  0  0  0
   -4.0200    5.9644  -21.9840 C   0  0  0  0  0  0  0  0  0  0  0  0
   -4.0297    5.4211  -20.6892 C   0  0  0  0  0  0  0  0  0  0  0  0
   -5.3148    4.9256  -20.1204 C   0  0  0  0  0  0  0  0  0  0  0  0
   -5.8833    4.0566  -20.6578 O   0  0  0  0  0  0  0  0  0  0  0  0
   -5.6167    5.6485  -18.7802 N   0  0  0  0  0  0  0  0  0  0  0  0
   -6.5916    5.3952  -17.8128 C   0  0  0  0  0  0  0  0  0  0  0  0
   -6.2610    5.7943  -16.5141 C   0  0  0  0  0  0  0  0  0  0  0  0
   -7.0907    5.5255  -15.4141 C   0  0  0  0  0  0  0  0  0  0  0  0
   -6.6709    5.9487  -14.0213 C   0  0  0  0  0  0  0  0  0  0  0  0
   -7.7156    5.6441  -12.9290 C   0  0  0  0  0  0  0  0  0  0  0  0
   -5.3811    5.1868  -13.6891 C   0  0  0  0  0  0  0  0  0  0  0  0
   -6.3881    7.4654  -13.9580 C   0  0  0  0  0  0  0  0  0  0  0  0
   -8.2702    4.8393  -15.6457 C   0  0  0  0  0  0  0  0  0  0  0  0
   -8.6489    4.5642  -16.9462 C   0  0  0  0  0  0  0  0  0  0  0  0
   -9.9434    4.1618  -17.1473 C   0  0  0  0  0  0  0  0  0  0  0  0
  -10.4763    4.2373  -18.4009 C   0  0  0  0  0  0  0  0  0  0  0  0
   -9.6040    4.4674  -19.4345 C   0  0  0  0  0  0  0  0  0  0  0  0
   -8.2880    4.6470  -19.2813 N   0  0  0  0  0  0  0  0  0  0  0  0
   -7.8237    4.8151  -18.0514 C   0  0  0  0  0  0  0  0  0  0  0  0
   -2.8567    5.4034  -19.8795 C   0  0  0  0  0  0  0  0  0  0  0  0
   -2.7891    5.0142  -18.5107 C   0  0  0  0  0  0  0  0  0  0  0  0
   -5.2906    6.2847  -22.7266 C   0  0  0  0  0  0  0  0  0  0  0  0
   -5.1133    6.8013  -24.1572 C   0  0  0  0  0  0  0  0  0  0  0  0
   -3.9054    7.7177  -24.2749 C   0  0  0  0  0  0  0  0  0  0  0  0
   -2.6510    6.9597  -23.8559 C   0  0  0  0  0  0  0  0  0  0  0  0
  1  2  1  0
  2  3  2  0
  3  4  1  0
  4  5  2  0
  5  6  1  0
  6  7  2  0
  7  8  1  0
  8  9  2  0
  9 10  1  0
 10 11  2  0
 10 12  1  0
 12 13  1  0
 13 14  2  0
 14 15  1  0
 15 16  1  0
 16 17  1  0
 16 18  1  0
 16 19  1  0
 15 20  2  0
 20 21  1  0
 21 22  2  0
 22 23  1  0
 23 24  2  0
 24 25  1  0
 25 26  2  0
  9 27  1  0
 27 28  2  0
  8 29  1  0
 29 30  1  0
 30 31  1  0
 31 32  1  0
 28  2  1  0
 27  5  1  0
 32  7  1  0
 26 13  1  0
 26 21  1  0
M  END
>  <fragmenstein_outcome>  (460) 
nan

>  <exports>  (460) 
['/opt/xchem-fragalysis-2/maxwin/openbind-hippo/xx01zvns2b/cycle_01/syndirella/elabs/openbind_xx01zvns2b_c1_elab_chemspace_filtered.sdf']

>  <Energy>  (460) 
nan

>  <alias>  (460) 
None

>  <fragmenstein_runtime>  (460) 
nan

>  <scratch_subdir>  (460) 
nan

>  <HIPPO Compound ID>  (460) 
142414

>  <rmsd(smina/fragmenstein)>  (460) 
1.006

>  <distance_score>  (460) 
1.323303

>  <orig_smiles>  (460) 
nan

>  <fragmenstein_mode>  (460) 
nan

>  <inchikey>  (460) 
JCXFWAPFDMLBHA-UHFFFAOYSA-N

>  <ref_pdb>  (460) 
Z0852a

>  <GNINA pK>  (460) 
nan

>  <gnina_score_min>  (460) 
6.695

>  <tags>  (460) 
openbind_xx01zvns2b_c1_elab_nonasap_filtered_scored_top80percent,openbind_xx01zvns2b_c1_elab_chemspace_filtered_scored_top80percent,openbind_xx01zvns2b_c1_elab_chemspace_filtered_scored,openbind_xx01zvns2b_c1_elab_chemspace_filtered_scored_top40percent,openbind_xx01zvns2b_c1_elab_chemspace_filtered_scored_top20percent,openbind_xx01zvns2b_c1_elab_chemspace_filtered_scored_top60percent,openbind_xx01zvns2b_c1_elabs_filtered

>  <smiles>  (460) 
Cc1ccc2nc3c(c(C(=O)Nc4cc(C(C)(C)C)cc5cccnc45)c2c1)CCCC3

>  <subsites>  (460) 
1 - Z4590/B/203/1

>  <gnina_score>  (460) 
6.143

>  <HIPPO Pose ID>  (460) 
70412

>  <ref_mols>  (460) 
Z0917a,Z0852a

>  <energy_score>  (460) 
-24.59189

>  <inspiration_score>  (460) 
None

>  <smina_score_min>  (460) 
-6.981

>  <fragmenstein_error>  (460) 
nan

>  <name>  (460) 
P70412

$$$$
P70413
     RDKit          3D

 32 36  0  0  0  0  0  0  0  0999 V2000
   -1.6030    5.3186  -15.7029 C   0  0  0  0  0  0  0  0  0  0  0  0
   -1.5620    5.4846  -17.1941 C   0  0  0  0  0  0  0  0  0  0  0  0
   -0.4447    6.0288  -17.8175 C   0  0  0  0  0  0  0  0  0  0  0  0
   -0.4553    6.2414  -19.1963 C   0  0  0  0  0  0  0  0  0  0  0  0
   -1.5885    6.0230  -19.9650 C   0  0  0  0  0  0  0  0  0  0  0  0
   -1.5339    6.3764  -21.2545 N   0  0  0  0  0  0  0  0  0  0  0  0
   -2.6520    6.3387  -22.0088 C   0  0  0  0  0  0  0  0  0  0  0  0
   -3.8830    5.9614  -21.4942 C   0  0  0  0  0  0  0  0  0  0  0  0
   -3.9073    5.4883  -20.1652 C   0  0  0  0  0  0  0  0  0  0  0  0
   -5.1932    4.9546  -19.6325 C   0  0  0  0  0  0  0  0  0  0  0  0
   -5.7198    4.1087  -20.2462 O   0  0  0  0  0  0  0  0  0  0  0  0
   -5.5839    5.6085  -18.2748 N   0  0  0  0  0  0  0  0  0  0  0  0
   -6.6166    5.2979  -17.3788 C   0  0  0  0  0  0  0  0  0  0  0  0
   -6.4383    5.6368  -16.0249 C   0  0  0  0  0  0  0  0  0  0  0  0
   -7.4302    5.3484  -15.0721 C   0  0  0  0  0  0  0  0  0  0  0  0
   -7.3554    5.8279  -13.6501 C   0  0  0  0  0  0  0  0  0  0  0  0
   -6.2847    5.3395  -12.9774 F   0  0  0  0  0  0  0  0  0  0  0  0
   -7.2638    7.1870  -13.5845 F   0  0  0  0  0  0  0  0  0  0  0  0
   -8.4571    5.5104  -12.9109 F   0  0  0  0  0  0  0  0  0  0  0  0
   -8.5757    4.6872  -15.4796 C   0  0  0  0  0  0  0  0  0  0  0  0
   -8.7910    4.4827  -16.8284 C   0  0  0  0  0  0  0  0  0  0  0  0
  -10.0648    4.1554  -17.2108 C   0  0  0  0  0  0  0  0  0  0  0  0
  -10.4409    4.3011  -18.5098 C   0  0  0  0  0  0  0  0  0  0  0  0
   -9.4433    4.4832  -19.4252 C   0  0  0  0  0  0  0  0  0  0  0  0
   -8.1542    4.6520  -19.0981 N   0  0  0  0  0  0  0  0  0  0  0  0
   -7.8300    4.7594  -17.8081 C   0  0  0  0  0  0  0  0  0  0  0  0
   -2.7448    5.5179  -19.3531 C   0  0  0  0  0  0  0  0  0  0  0  0
   -2.6694    5.1501  -17.9805 C   0  0  0  0  0  0  0  0  0  0  0  0
   -5.1374    6.1067  -22.3114 C   0  0  0  0  0  0  0  0  0  0  0  0
   -4.9735    6.9019  -23.6079 C   0  0  0  0  0  0  0  0  0  0  0  0
   -3.6720    6.5546  -24.3141 C   0  0  0  0  0  0  0  0  0  0  0  0
   -2.4893    6.8673  -23.4086 C   0  0  0  0  0  0  0  0  0  0  0  0
  1  2  1  0
  2  3  2  0
  3  4  1  0
  4  5  2  0
  5  6  1  0
  6  7  2  0
  7  8  1  0
  8  9  2  0
  9 10  1  0
 10 11  2  0
 10 12  1  0
 12 13  1  0
 13 14  2  0
 14 15  1  0
 15 16  1  0
 16 17  1  0
 16 18  1  0
 16 19  1  0
 15 20  2  0
 20 21  1  0
 21 22  2  0
 22 23  1  0
 23 24  2  0
 24 25  1  0
 25 26  2  0
  9 27  1  0
 27 28  2  0
  8 29  1  0
 29 30  1  0
 30 31  1  0
 31 32  1  0
 28  2  1  0
 27  5  1  0
 32  7  1  0
 26 13  1  0
 26 21  1  0
M  END
>  <fragmenstein_outcome>  (461) 
nan

>  <exports>  (461) 
['/opt/xchem-fragalysis-2/maxwin/openbind-hippo/xx01zvns2b/cycle_01/syndirella/elabs/openbind_xx01zvns2b_c1_elab_chemspace_filtered.sdf']

>  <Energy>  (461) 
nan

>  <alias>  (461) 
None

>  <fragmenstein_runtime>  (461) 
nan

>  <scratch_subdir>  (461) 
nan

>  <HIPPO Compound ID>  (461) 
142415

>  <rmsd(smina/fragmenstein)>  (461) 
2.291

>  <distance_score>  (461) 
1.160949

>  <orig_smiles>  (461) 
nan

>  <fragmenstein_mode>  (461) 
nan

>  <inchikey>  (461) 
WEVUTQRRRUTFQP-UHFFFAOYSA-N

>  <ref_pdb>  (461) 
Z0852a

>  <GNINA pK>  (461) 
nan

>  <gnina_score_min>  (461) 
6.082

>  <tags>  (461) 
openbind_xx01zvns2b_c1_elab_nonasap_filtered_scored_top80percent,openbind_xx01zvns2b_c1_elab_chemspace_filtered_scored_top80percent,openbind_xx01zvns2b_c1_elab_chemspace_filtered_scored,openbind_xx01zvns2b_c1_elab_chemspace_filtered_scored_top40percent,openbind_xx01zvns2b_c1_elab_chemspace_filtered_scored_top20percent,openbind_xx01zvns2b_c1_elab_chemspace_filtered_scored_top60percent,openbind_xx01zvns2b_c1_elabs_filtered

>  <smiles>  (461) 
Cc1ccc2nc3c(c(C(=O)Nc4cc(C(F)(F)F)cc5cccnc45)c2c1)CCCC3

>  <subsites>  (461) 
1 - Z4590/B/203/1

>  <gnina_score>  (461) 
5.962

>  <HIPPO Pose ID>  (461) 
70413

>  <ref_mols>  (461) 
Z0917a,Z0852a

>  <energy_score>  (461) 
-23.267883

>  <inspiration_score>  (461) 
None

>  <smina_score_min>  (461) 
-6.185

>  <fragmenstein_error>  (461) 
nan

>  <name>  (461) 
P70413

$$$$
P70414
     RDKit          3D

 32 35  0  0  0  0  0  0  0  0999 V2000
   -6.5576    4.6768  -12.9404 C   0  0  0  0  0  0  0  0  0  0  0  0
   -7.0294    5.8034  -13.8651 C   0  0  0  0  0  0  0  0  0  0  0  0
   -5.9878    6.9221  -13.8791 C   0  0  0  0  0  0  0  0  0  0  0  0
   -8.3098    6.4364  -13.2745 C   0  0  0  0  0  0  0  0  0  0  0  0
   -7.2372    5.2477  -15.2729 C   0  0  0  0  0  0  0  0  0  0  0  0
   -6.2868    5.3848  -16.3051 C   0  0  0  0  0  0  0  0  0  0  0  0
   -6.5730    5.0316  -17.6327 C   0  0  0  0  0  0  0  0  0  0  0  0
   -5.5627    5.2321  -18.5840 N   0  0  0  0  0  0  0  0  0  0  0  0
   -5.4079    4.6713  -20.0253 C   0  0  0  0  0  0  0  0  0  0  0  0
   -6.0595    3.8956  -20.6117 O   0  0  0  0  0  0  0  0  0  0  0  0
   -4.2249    5.2186  -20.7307 C   0  0  0  0  0  0  0  0  0  0  0  0
   -4.4777    5.6083  -22.0423 C   0  0  0  0  0  0  0  0  0  0  0  0
   -3.4166    6.0593  -22.7726 C   0  0  0  0  0  0  0  0  0  0  0  0
   -3.6142    6.6009  -24.3855 Cl  0  0  0  0  0  0  0  0  0  0  0  0
   -2.1671    6.1629  -22.2953 N   0  0  0  0  0  0  0  0  0  0  0  0
   -1.9056    5.7879  -21.0352 C   0  0  0  0  0  0  0  0  0  0  0  0
   -0.6189    5.9140  -20.5282 C   0  0  0  0  0  0  0  0  0  0  0  0
    0.6921    6.4519  -21.5777 S   0  0  0  0  0  0  0  0  0  0  0  0
    0.7713    7.8954  -21.4501 O   0  0  0  0  0  0  0  0  0  0  0  0
    0.6621    5.7785  -22.8576 O   0  0  0  0  0  0  0  0  0  0  0  0
    2.0337    5.9234  -20.8897 F   0  0  0  0  0  0  0  0  0  0  0  0
   -0.3121    5.6713  -19.1869 C   0  0  0  0  0  0  0  0  0  0  0  0
   -1.3117    5.2291  -18.3397 C   0  0  0  0  0  0  0  0  0  0  0  0
   -2.5788    4.9599  -18.8450 C   0  0  0  0  0  0  0  0  0  0  0  0
   -2.9216    5.3032  -20.1769 C   0  0  0  0  0  0  0  0  0  0  0  0
   -7.8539    4.6176  -17.9626 C   0  0  0  0  0  0  0  0  0  0  0  0
   -8.2735    4.5680  -19.2235 N   0  0  0  0  0  0  0  0  0  0  0  0
   -9.5894    4.5079  -19.4574 C   0  0  0  0  0  0  0  0  0  0  0  0
  -10.5304    4.3298  -18.4817 C   0  0  0  0  0  0  0  0  0  0  0  0
  -10.0699    4.1483  -17.2123 C   0  0  0  0  0  0  0  0  0  0  0  0
   -8.7579    4.4131  -16.9165 C   0  0  0  0  0  0  0  0  0  0  0  0
   -8.4363    4.6288  -15.5880 C   0  0  0  0  0  0  0  0  0  0  0  0
  1  2  1  0
  2  3  1  0
  2  4  1  0
  2  5  1  0
  5  6  2  0
  6  7  1  0
  7  8  1  0
  8  9  1  0
  9 10  2  0
  9 11  1  0
 11 12  2  0
 12 13  1  0
 13 14  1  0
 13 15  2  0
 15 16  1  0
 16 17  2  0
 17 18  1  0
 18 19  2  0
 18 20  2  0
 18 21  1  0
 17 22  1  0
 22 23  2  0
 23 24  1  0
 24 25  2  0
  7 26  2  0
 26 27  1  0
 27 28  2  0
 28 29  1  0
 29 30  2  0
 30 31  1  0
 31 32  2  0
 32  5  1  0
 25 11  1  0
 31 26  1  0
 25 16  1  0
M  END
>  <fragmenstein_outcome>  (462) 
nan

>  <exports>  (462) 
['/opt/xchem-fragalysis-2/maxwin/openbind-hippo/xx01zvns2b/cycle_01/syndirella/elabs/openbind_xx01zvns2b_c1_elab_chemspace_filtered.sdf']

>  <Energy>  (462) 
nan

>  <alias>  (462) 
None

>  <fragmenstein_runtime>  (462) 
nan

>  <scratch_subdir>  (462) 
nan

>  <HIPPO Compound ID>  (462) 
142418

>  <rmsd(smina/fragmenstein)>  (462) 
0.84

>  <distance_score>  (462) 
1.281012

>  <orig_smiles>  (462) 
nan

>  <fragmenstein_mode>  (462) 
nan

>  <inchikey>  (462) 
LCLFIYQMFALFJU-UHFFFAOYSA-N

>  <ref_pdb>  (462) 
Z0852a

>  <GNINA pK>  (462) 
nan

>  <gnina_score_min>  (462) 
6.446

>  <tags>  (462) 
openbind_xx01zvns2b_c1_elab_nonasap_filtered_scored_top80percent,openbind_xx01zvns2b_c1_elab_chemspace_filtered_scored_top80percent,openbind_xx01zvns2b_c1_elab_chemspace_filtered_scored,openbind_xx01zvns2b_c1_elab_chemspace_filtered_scored_top40percent,openbind_xx01zvns2b_c1_elab_chemspace_filtered_scored_top20percent,openbind_xx01zvns2b_c1_elab_chemspace_filtered_scored_top60percent,openbind_xx01zvns2b_c1_elabs_filtered

>  <smiles>  (462) 
CC(C)(C)c1cc(NC(=O)c2cc(Cl)nc3c(S(=O)(=O)F)cccc23)c2ncccc2c1

>  <subsites>  (462) 
1 - Z4590/B/203/1

>  <gnina_score>  (462) 
5.983

>  <HIPPO Pose ID>  (462) 
70414

>  <ref_mols>  (462) 
Z0917a,Z0852a

>  <energy_score>  (462) 
-36.056042

>  <inspiration_score>  (462) 
None

>  <smina_score_min>  (462) 
-6.721

>  <fragmenstein_error>  (462) 
nan

>  <name>  (462) 
P70414

$$$$
P70415
     RDKit          3D

 32 35  0  0  0  0  0  0  0  0999 V2000
   -5.9287    3.9654  -20.3586 O   0  0  0  0  0  0  0  0  0  0  0  0
   -5.3197    4.7681  -19.7613 C   0  0  0  0  0  0  0  0  0  0  0  0
   -5.6084    5.4350  -18.3831 N   0  0  0  0  0  0  0  0  0  0  0  0
   -6.6240    5.1872  -17.4456 C   0  0  0  0  0  0  0  0  0  0  0  0
   -6.4082    5.5254  -16.0973 C   0  0  0  0  0  0  0  0  0  0  0  0
   -7.3999    5.2830  -15.1272 C   0  0  0  0  0  0  0  0  0  0  0  0
   -7.3011    5.7800  -13.7110 C   0  0  0  0  0  0  0  0  0  0  0  0
   -8.3906    5.4738  -12.9487 F   0  0  0  0  0  0  0  0  0  0  0  0
   -6.2211    5.2950  -13.0500 F   0  0  0  0  0  0  0  0  0  0  0  0
   -7.2042    7.1392  -13.6618 F   0  0  0  0  0  0  0  0  0  0  0  0
   -8.5738    4.6553  -15.5106 C   0  0  0  0  0  0  0  0  0  0  0  0
   -8.8217    4.4571  -16.8541 C   0  0  0  0  0  0  0  0  0  0  0  0
  -10.1082    4.1577  -17.2197 C   0  0  0  0  0  0  0  0  0  0  0  0
  -10.5085    4.3327  -18.5082 C   0  0  0  0  0  0  0  0  0  0  0  0
   -9.5250    4.5201  -19.4362 C   0  0  0  0  0  0  0  0  0  0  0  0
   -8.2269    4.6431  -19.1294 N   0  0  0  0  0  0  0  0  0  0  0  0
   -7.8722    4.7115  -17.8471 C   0  0  0  0  0  0  0  0  0  0  0  0
   -4.0634    5.2264  -20.4031 C   0  0  0  0  0  0  0  0  0  0  0  0
   -4.1824    5.4860  -21.7685 C   0  0  0  0  0  0  0  0  0  0  0  0
   -3.0452    5.8332  -22.4408 C   0  0  0  0  0  0  0  0  0  0  0  0
   -3.0720    6.1958  -24.1142 Cl  0  0  0  0  0  0  0  0  0  0  0  0
   -1.8403    5.9639  -21.8606 N   0  0  0  0  0  0  0  0  0  0  0  0
   -1.7123    5.7271  -20.5450 C   0  0  0  0  0  0  0  0  0  0  0  0
   -0.4846    5.9090  -19.9196 C   0  0  0  0  0  0  0  0  0  0  0  0
    0.9221    6.3458  -20.8892 S   0  0  0  0  0  0  0  0  0  0  0  0
    2.0838    5.7209  -20.2771 O   0  0  0  0  0  0  0  0  0  0  0  0
    0.8758    7.7850  -21.0727 O   0  0  0  0  0  0  0  0  0  0  0  0
    0.8049    5.7003  -22.3346 F   0  0  0  0  0  0  0  0  0  0  0  0
   -0.3108    5.7701  -18.5387 C   0  0  0  0  0  0  0  0  0  0  0  0
   -1.3812    5.3636  -17.7625 C   0  0  0  0  0  0  0  0  0  0  0  0
   -2.5950    5.0630  -18.3713 C   0  0  0  0  0  0  0  0  0  0  0  0
   -2.8119    5.3270  -19.7474 C   0  0  0  0  0  0  0  0  0  0  0  0
  1  2  2  0
  2  3  1  0
  3  4  1  0
  4  5  2  0
  5  6  1  0
  6  7  1  0
  7  8  1  0
  7  9  1  0
  7 10  1  0
  6 11  2  0
 11 12  1  0
 12 13  2  0
 13 14  1  0
 14 15  2  0
 15 16  1  0
 16 17  2  0
  2 18  1  0
 18 19  2  0
 19 20  1  0
 20 21  1  0
 20 22  2  0
 22 23  1  0
 23 24  2  0
 24 25  1  0
 25 26  2  0
 25 27  2  0
 25 28  1  0
 24 29  1  0
 29 30  2  0
 30 31  1  0
 31 32  2  0
 17  4  1  0
 32 18  1  0
 17 12  1  0
 32 23  1  0
M  END
>  <fragmenstein_outcome>  (463) 
nan

>  <exports>  (463) 
['/opt/xchem-fragalysis-2/maxwin/openbind-hippo/xx01zvns2b/cycle_01/syndirella/elabs/openbind_xx01zvns2b_c1_elab_chemspace_filtered.sdf']

>  <Energy>  (463) 
nan

>  <alias>  (463) 
None

>  <fragmenstein_runtime>  (463) 
nan

>  <scratch_subdir>  (463) 
nan

>  <HIPPO Compound ID>  (463) 
142419

>  <rmsd(smina/fragmenstein)>  (463) 
1.306

>  <distance_score>  (463) 
1.060157

>  <orig_smiles>  (463) 
nan

>  <fragmenstein_mode>  (463) 
nan

>  <inchikey>  (463) 
WCVAFKBMSHERGX-UHFFFAOYSA-N

>  <ref_pdb>  (463) 
Z0852a

>  <GNINA pK>  (463) 
nan

>  <gnina_score_min>  (463) 
6.15

>  <tags>  (463) 
openbind_xx01zvns2b_c1_elab_nonasap_filtered_scored_top80percent,openbind_xx01zvns2b_c1_elab_chemspace_filtered_scored_top80percent,openbind_xx01zvns2b_c1_elab_chemspace_filtered_scored,openbind_xx01zvns2b_c1_elab_chemspace_filtered_scored_top40percent,openbind_xx01zvns2b_c1_elab_chemspace_filtered_scored_top20percent,openbind_xx01zvns2b_c1_elab_chemspace_filtered_scored_top60percent,openbind_xx01zvns2b_c1_elabs_filtered

>  <smiles>  (463) 
O=C(Nc1cc(C(F)(F)F)cc2cccnc12)c1cc(Cl)nc2c(S(=O)(=O)F)cccc12

>  <subsites>  (463) 
1 - Z4590/B/203/1

>  <gnina_score>  (463) 
5.753

>  <HIPPO Pose ID>  (463) 
70415

>  <ref_mols>  (463) 
Z0917a,Z0852a

>  <energy_score>  (463) 
-17.468636

>  <inspiration_score>  (463) 
None

>  <smina_score_min>  (463) 
-6.433

>  <fragmenstein_error>  (463) 
nan

>  <name>  (463) 
P70415

$$$$
P70416
     RDKit          3D

 32 36  0  0  0  0  0  0  0  0999 V2000
   -2.2244    5.4034  -16.0425 C   0  0  0  0  0  0  0  0  0  0  0  0
   -2.1658    5.6717  -17.4693 N   0  0  0  0  0  0  0  0  0  0  0  0
   -0.8228    6.1200  -17.9089 C   0  0  0  0  0  0  0  0  0  0  0  0
   -0.4529    5.7809  -19.3760 C   0  0  0  0  0  0  0  0  0  0  0  0
   -1.6854    5.7226  -20.2443 C   0  0  0  0  0  0  0  0  0  0  0  0
   -1.6245    6.2550  -21.4811 N   0  0  0  0  0  0  0  0  0  0  0  0
   -2.7507    6.3238  -22.2000 C   0  0  0  0  0  0  0  0  0  0  0  0
   -2.6740    6.9004  -23.4621 C   0  0  0  0  0  0  0  0  0  0  0  0
   -3.8008    7.0795  -24.2650 C   0  0  0  0  0  0  0  0  0  0  0  0
   -5.0381    6.6731  -23.7964 C   0  0  0  0  0  0  0  0  0  0  0  0
   -5.1280    6.0781  -22.5381 C   0  0  0  0  0  0  0  0  0  0  0  0
   -3.9958    5.8830  -21.7145 C   0  0  0  0  0  0  0  0  0  0  0  0
   -4.0162    5.3001  -20.4181 C   0  0  0  0  0  0  0  0  0  0  0  0
   -5.2855    4.7742  -19.8501 C   0  0  0  0  0  0  0  0  0  0  0  0
   -5.8787    3.9888  -20.4869 O   0  0  0  0  0  0  0  0  0  0  0  0
   -5.5497    5.3160  -18.4084 N   0  0  0  0  0  0  0  0  0  0  0  0
   -6.6183    5.0779  -17.5250 C   0  0  0  0  0  0  0  0  0  0  0  0
   -6.4286    5.4083  -16.1643 C   0  0  0  0  0  0  0  0  0  0  0  0
   -7.4306    5.1878  -15.1999 C   0  0  0  0  0  0  0  0  0  0  0  0
   -7.3938    5.6849  -13.7538 C   0  0  0  0  0  0  0  0  0  0  0  0
   -6.0423    6.2712  -13.3359 C   0  0  0  0  0  0  0  0  0  0  0  0
   -7.7800    4.5734  -12.7598 C   0  0  0  0  0  0  0  0  0  0  0  0
   -8.4153    6.8188  -13.6166 C   0  0  0  0  0  0  0  0  0  0  0  0
   -8.6061    4.5860  -15.6285 C   0  0  0  0  0  0  0  0  0  0  0  0
   -8.8407    4.4107  -16.9744 C   0  0  0  0  0  0  0  0  0  0  0  0
  -10.1420    4.1927  -17.3474 C   0  0  0  0  0  0  0  0  0  0  0  0
  -10.5111    4.4067  -18.6347 C   0  0  0  0  0  0  0  0  0  0  0  0
   -9.5025    4.4985  -19.5497 C   0  0  0  0  0  0  0  0  0  0  0  0
   -8.2011    4.5369  -19.2359 N   0  0  0  0  0  0  0  0  0  0  0  0
   -7.8640    4.6253  -17.9509 C   0  0  0  0  0  0  0  0  0  0  0  0
   -2.8362    5.1743  -19.6890 C   0  0  0  0  0  0  0  0  0  0  0  0
   -2.6661    4.5874  -18.3156 C   0  0  0  0  0  0  0  0  0  0  0  0
  1  2  1  0
  2  3  1  0
  3  4  1  0
  4  5  1  0
  5  6  2  0
  6  7  1  0
  7  8  2  0
  8  9  1  0
  9 10  2  0
 10 11  1  0
 11 12  2  0
 12 13  1  0
 13 14  1  0
 14 15  2  0
 14 16  1  0
 16 17  1  0
 17 18  2  0
 18 19  1  0
 19 20  1  0
 20 21  1  0
 20 22  1  0
 20 23  1  0
 19 24  2  0
 24 25  1  0
 25 26  2  0
 26 27  1  0
 27 28  2  0
 28 29  1  0
 29 30  2  0
 13 31  2  0
 31 32  1  0
 32  2  1  0
 31  5  1  0
 12  7  1  0
 30 17  1  0
 30 25  1  0
M  END
>  <fragmenstein_outcome>  (464) 
nan

>  <exports>  (464) 
['/opt/xchem-fragalysis-2/maxwin/openbind-hippo/xx01zvns2b/cycle_01/syndirella/elabs/openbind_xx01zvns2b_c1_elab_chemspace_filtered.sdf']

>  <Energy>  (464) 
nan

>  <alias>  (464) 
None

>  <fragmenstein_runtime>  (464) 
nan

>  <scratch_subdir>  (464) 
nan

>  <HIPPO Compound ID>  (464) 
142421

>  <rmsd(smina/fragmenstein)>  (464) 
0.698

>  <distance_score>  (464) 
1.395237

>  <orig_smiles>  (464) 
nan

>  <fragmenstein_mode>  (464) 
nan

>  <inchikey>  (464) 
BSRRWBGTVQHAHW-UHFFFAOYSA-N

>  <ref_pdb>  (464) 
Z0852a

>  <GNINA pK>  (464) 
nan

>  <gnina_score_min>  (464) 
6.488

>  <tags>  (464) 
openbind_xx01zvns2b_c1_elab_nonasap_filtered_scored_top80percent,openbind_xx01zvns2b_c1_elab_chemspace_filtered_scored_top80percent,openbind_xx01zvns2b_c1_elab_chemspace_filtered_scored,openbind_xx01zvns2b_c1_elab_chemspace_filtered_scored_top40percent,openbind_xx01zvns2b_c1_elab_chemspace_filtered_scored_top20percent,openbind_xx01zvns2b_c1_elab_chemspace_filtered_scored_top60percent,openbind_xx01zvns2b_c1_elabs_filtered

>  <smiles>  (464) 
CN1CCc2nc3ccccc3c(C(=O)Nc3cc(C(C)(C)C)cc4cccnc34)c2C1

>  <subsites>  (464) 
1 - Z4590/B/203/1

>  <gnina_score>  (464) 
6.111

>  <HIPPO Pose ID>  (464) 
70416

>  <ref_mols>  (464) 
Z0917a,Z0852a

>  <energy_score>  (464) 
-26.728387

>  <inspiration_score>  (464) 
None

>  <smina_score_min>  (464) 
-7.288

>  <fragmenstein_error>  (464) 
nan

>  <name>  (464) 
P70416

$$$$
P70417
     RDKit          3D

 32 36  0  0  0  0  0  0  0  0999 V2000
   -2.1667    5.4531  -16.0265 C   0  0  0  0  0  0  0  0  0  0  0  0
   -2.1229    5.7088  -17.4564 N   0  0  0  0  0  0  0  0  0  0  0  0
   -0.7763    6.1242  -17.9160 C   0  0  0  0  0  0  0  0  0  0  0  0
   -0.4291    5.7608  -19.3818 C   0  0  0  0  0  0  0  0  0  0  0  0
   -1.6710    5.7130  -20.2367 C   0  0  0  0  0  0  0  0  0  0  0  0
   -1.6103    6.2257  -21.4818 N   0  0  0  0  0  0  0  0  0  0  0  0
   -2.7385    6.2982  -22.1962 C   0  0  0  0  0  0  0  0  0  0  0  0
   -2.6600    6.8590  -23.4653 C   0  0  0  0  0  0  0  0  0  0  0  0
   -3.7877    7.0428  -24.2655 C   0  0  0  0  0  0  0  0  0  0  0  0
   -5.0276    6.6565  -23.7871 C   0  0  0  0  0  0  0  0  0  0  0  0
   -5.1188    6.0759  -22.5220 C   0  0  0  0  0  0  0  0  0  0  0  0
   -3.9859    5.8770  -21.6997 C   0  0  0  0  0  0  0  0  0  0  0  0
   -4.0066    5.3113  -20.3943 C   0  0  0  0  0  0  0  0  0  0  0  0
   -5.2805    4.8062  -19.8158 C   0  0  0  0  0  0  0  0  0  0  0  0
   -5.8994    4.0394  -20.4503 O   0  0  0  0  0  0  0  0  0  0  0  0
   -5.5212    5.3533  -18.3718 N   0  0  0  0  0  0  0  0  0  0  0  0
   -6.5921    5.1444  -17.4824 C   0  0  0  0  0  0  0  0  0  0  0  0
   -6.3991    5.5047  -16.1326 C   0  0  0  0  0  0  0  0  0  0  0  0
   -7.3997    5.2843  -15.1670 C   0  0  0  0  0  0  0  0  0  0  0  0
   -7.3047    5.7877  -13.7526 C   0  0  0  0  0  0  0  0  0  0  0  0
   -6.2212    5.3169  -13.0873 F   0  0  0  0  0  0  0  0  0  0  0  0
   -8.3924    5.4747  -12.9895 F   0  0  0  0  0  0  0  0  0  0  0  0
   -7.2224    7.1484  -13.7076 F   0  0  0  0  0  0  0  0  0  0  0  0
   -8.5757    4.6687  -15.5569 C   0  0  0  0  0  0  0  0  0  0  0  0
   -8.8076    4.4566  -16.9007 C   0  0  0  0  0  0  0  0  0  0  0  0
  -10.0985    4.1828  -17.2692 C   0  0  0  0  0  0  0  0  0  0  0  0
  -10.4805    4.3522  -18.5622 C   0  0  0  0  0  0  0  0  0  0  0  0
   -9.4821    4.4818  -19.4845 C   0  0  0  0  0  0  0  0  0  0  0  0
   -8.1824    4.5721  -19.1724 N   0  0  0  0  0  0  0  0  0  0  0  0
   -7.8390    4.6738  -17.8902 C   0  0  0  0  0  0  0  0  0  0  0  0
   -2.8261    5.1900  -19.6655 C   0  0  0  0  0  0  0  0  0  0  0  0
   -2.6560    4.6244  -18.2835 C   0  0  0  0  0  0  0  0  0  0  0  0
  1  2  1  0
  2  3  1  0
  3  4  1  0
  4  5  1  0
  5  6  2  0
  6  7  1  0
  7  8  2  0
  8  9  1  0
  9 10  2  0
 10 11  1  0
 11 12  2  0
 12 13  1  0
 13 14  1  0
 14 15  2  0
 14 16  1  0
 16 17  1  0
 17 18  2  0
 18 19  1  0
 19 20  1  0
 20 21  1  0
 20 22  1  0
 20 23  1  0
 19 24  2  0
 24 25  1  0
 25 26  2  0
 26 27  1  0
 27 28  2  0
 28 29  1  0
 29 30  2  0
 13 31  2  0
 31 32  1  0
 32  2  1  0
 31  5  1  0
 12  7  1  0
 30 17  1  0
 30 25  1  0
M  END
>  <fragmenstein_outcome>  (465) 
nan

>  <exports>  (465) 
['/opt/xchem-fragalysis-2/maxwin/openbind-hippo/xx01zvns2b/cycle_01/syndirella/elabs/openbind_xx01zvns2b_c1_elab_chemspace_filtered.sdf']

>  <Energy>  (465) 
nan

>  <alias>  (465) 
None

>  <fragmenstein_runtime>  (465) 
nan

>  <scratch_subdir>  (465) 
nan

>  <HIPPO Compound ID>  (465) 
142422

>  <rmsd(smina/fragmenstein)>  (465) 
0.672

>  <distance_score>  (465) 
1.075289

>  <orig_smiles>  (465) 
nan

>  <fragmenstein_mode>  (465) 
nan

>  <inchikey>  (465) 
WXKHRCJXEHVGAW-UHFFFAOYSA-N

>  <ref_pdb>  (465) 
Z0852a

>  <GNINA pK>  (465) 
nan

>  <gnina_score_min>  (465) 
6.267

>  <tags>  (465) 
openbind_xx01zvns2b_c1_elab_nonasap_filtered_scored_top80percent,openbind_xx01zvns2b_c1_elab_chemspace_filtered_scored_top80percent,openbind_xx01zvns2b_c1_elab_chemspace_filtered_scored,openbind_xx01zvns2b_c1_elab_chemspace_filtered_scored_top40percent,openbind_xx01zvns2b_c1_elab_chemspace_filtered_scored_top20percent,openbind_xx01zvns2b_c1_elab_chemspace_filtered_scored_top60percent,openbind_xx01zvns2b_c1_elabs_filtered

>  <smiles>  (465) 
CN1CCc2nc3ccccc3c(C(=O)Nc3cc(C(F)(F)F)cc4cccnc34)c2C1

>  <subsites>  (465) 
1 - Z4590/B/203/1

>  <gnina_score>  (465) 
5.913

>  <HIPPO Pose ID>  (465) 
70417

>  <ref_mols>  (465) 
Z0917a,Z0852a

>  <energy_score>  (465) 
-16.662747

>  <inspiration_score>  (465) 
None

>  <smina_score_min>  (465) 
-7.191

>  <fragmenstein_error>  (465) 
nan

>  <name>  (465) 
P70417

$$$$
P70418
     RDKit          3D

 32 36  0  0  0  0  0  0  0  0999 V2000
   -7.6495    5.6306  -12.9195 C   0  0  0  0  0  0  0  0  0  0  0  0
   -6.6708    6.0470  -14.0360 C   0  0  0  0  0  0  0  0  0  0  0  0
   -5.3234    5.3540  -13.7876 C   0  0  0  0  0  0  0  0  0  0  0  0
   -6.4800    7.5742  -13.9130 C   0  0  0  0  0  0  0  0  0  0  0  0
   -7.1179    5.6517  -15.4289 C   0  0  0  0  0  0  0  0  0  0  0  0
   -6.3598    6.0290  -16.5500 C   0  0  0  0  0  0  0  0  0  0  0  0
   -6.6915    5.6263  -17.8483 C   0  0  0  0  0  0  0  0  0  0  0  0
   -5.7905    6.0089  -18.8475 N   0  0  0  0  0  0  0  0  0  0  0  0
   -5.3820    5.2951  -20.1624 C   0  0  0  0  0  0  0  0  0  0  0  0
   -5.7917    4.3156  -20.6519 O   0  0  0  0  0  0  0  0  0  0  0  0
   -4.2099    5.9881  -20.7841 C   0  0  0  0  0  0  0  0  0  0  0  0
   -3.0253    6.0904  -20.0290 C   0  0  0  0  0  0  0  0  0  0  0  0
   -1.8610    6.4281  -20.7252 C   0  0  0  0  0  0  0  0  0  0  0  0
   -1.8553    6.7666  -22.0300 N   0  0  0  0  0  0  0  0  0  0  0  0
   -2.9957    6.7298  -22.7229 C   0  0  0  0  0  0  0  0  0  0  0  0
   -2.9489    7.1045  -24.0606 C   0  0  0  0  0  0  0  0  0  0  0  0
   -4.0846    7.1018  -24.8701 C   0  0  0  0  0  0  0  0  0  0  0  0
   -5.2959    6.7043  -24.3325 C   0  0  0  0  0  0  0  0  0  0  0  0
   -5.3499    6.3152  -22.9941 C   0  0  0  0  0  0  0  0  0  0  0  0
   -4.2156    6.3308  -22.1577 C   0  0  0  0  0  0  0  0  0  0  0  0
   -0.4942    6.3293  -20.0851 C   0  0  0  0  0  0  0  0  0  0  0  0
   -0.1775    4.9885  -19.3896 C   0  0  0  0  0  0  0  0  0  0  0  0
   -1.2678    3.9090  -19.5034 C   0  0  0  0  0  0  0  0  0  0  0  0
   -2.4491    4.1977  -18.5748 C   0  0  0  0  0  0  0  0  0  0  0  0
   -2.8667    5.6454  -18.5995 C   0  0  0  0  0  0  0  0  0  0  0  0
   -7.8583    4.9178  -18.0568 C   0  0  0  0  0  0  0  0  0  0  0  0
   -8.3270    4.7135  -19.2767 N   0  0  0  0  0  0  0  0  0  0  0  0
   -9.6319    4.4601  -19.4058 C   0  0  0  0  0  0  0  0  0  0  0  0
  -10.4703    4.1772  -18.3557 C   0  0  0  0  0  0  0  0  0  0  0  0
   -9.9124    4.1267  -17.1104 C   0  0  0  0  0  0  0  0  0  0  0  0
   -8.6382    4.5983  -16.9351 C   0  0  0  0  0  0  0  0  0  0  0  0
   -8.2473    4.8810  -15.6408 C   0  0  0  0  0  0  0  0  0  0  0  0
  1  2  1  0
  2  3  1  0
  2  4  1  0
  2  5  1  0
  5  6  2  0
  6  7  1  0
  7  8  1  0
  8  9  1  0
  9 10  2  0
  9 11  1  0
 11 12  2  0
 12 13  1  0
 13 14  2  0
 14 15  1  0
 15 16  2  0
 16 17  1  0
 17 18  2  0
 18 19  1  0
 19 20  2  0
 13 21  1  0
 21 22  1  0
 22 23  1  0
 23 24  1  0
 24 25  1  0
  7 26  2  0
 26 27  1  0
 27 28  2  0
 28 29  1  0
 29 30  2  0
 30 31  1  0
 31 32  2  0
 32  5  1  0
 20 11  1  0
 31 26  1  0
 25 12  1  0
 20 15  1  0
M  END
>  <fragmenstein_outcome>  (466) 
nan

>  <exports>  (466) 
['/opt/xchem-fragalysis-2/maxwin/openbind-hippo/xx01zvns2b/cycle_01/syndirella/elabs/openbind_xx01zvns2b_c1_elab_chemspace_filtered.sdf']

>  <Energy>  (466) 
nan

>  <alias>  (466) 
None

>  <fragmenstein_runtime>  (466) 
nan

>  <scratch_subdir>  (466) 
nan

>  <HIPPO Compound ID>  (466) 
142423

>  <rmsd(smina/fragmenstein)>  (466) 
1.298

>  <distance_score>  (466) 
1.532166

>  <orig_smiles>  (466) 
nan

>  <fragmenstein_mode>  (466) 
nan

>  <inchikey>  (466) 
LTJAVFPRJVTXCT-UHFFFAOYSA-N

>  <ref_pdb>  (466) 
Z0852a

>  <GNINA pK>  (466) 
nan

>  <gnina_score_min>  (466) 
6.276

>  <tags>  (466) 
openbind_xx01zvns2b_c1_elab_nonasap_filtered_scored_top80percent,openbind_xx01zvns2b_c1_elab_chemspace_filtered_scored_top80percent,openbind_xx01zvns2b_c1_elab_chemspace_filtered_scored,openbind_xx01zvns2b_c1_elab_chemspace_filtered_scored_top40percent,openbind_xx01zvns2b_c1_elab_chemspace_filtered_scored_top20percent,openbind_xx01zvns2b_c1_elab_chemspace_filtered_scored_top60percent,openbind_xx01zvns2b_c1_elabs_filtered

>  <smiles>  (466) 
CC(C)(C)c1cc(NC(=O)c2c3c(nc4ccccc24)CCCCC3)c2ncccc2c1

>  <subsites>  (466) 
1 - Z4590/B/203/1

>  <gnina_score>  (466) 
5.655

>  <HIPPO Pose ID>  (466) 
70418

>  <ref_mols>  (466) 
Z0917a,Z0852a

>  <energy_score>  (466) 
-138.297794

>  <inspiration_score>  (466) 
None

>  <smina_score_min>  (466) 
-6.581

>  <fragmenstein_error>  (466) 
nan

>  <name>  (466) 
P70418

$$$$
P70419
     RDKit          3D

 32 36  0  0  0  0  0  0  0  0999 V2000
   -5.8888    4.0479  -20.4731 O   0  0  0  0  0  0  0  0  0  0  0  0
   -5.2714    4.8147  -19.8374 C   0  0  0  0  0  0  0  0  0  0  0  0
   -5.5078    5.3517  -18.3892 N   0  0  0  0  0  0  0  0  0  0  0  0
   -6.5743    5.1308  -17.4940 C   0  0  0  0  0  0  0  0  0  0  0  0
   -6.3788    5.4836  -16.1414 C   0  0  0  0  0  0  0  0  0  0  0  0
   -7.3824    5.2697  -15.1760 C   0  0  0  0  0  0  0  0  0  0  0  0
   -7.2881    5.7725  -13.7610 C   0  0  0  0  0  0  0  0  0  0  0  0
   -8.3795    5.4671  -13.0000 F   0  0  0  0  0  0  0  0  0  0  0  0
   -7.1952    7.1323  -13.7151 F   0  0  0  0  0  0  0  0  0  0  0  0
   -6.2101    5.2924  -13.0929 F   0  0  0  0  0  0  0  0  0  0  0  0
   -8.5624    4.6628  -15.5664 C   0  0  0  0  0  0  0  0  0  0  0  0
   -8.7949    4.4527  -16.9097 C   0  0  0  0  0  0  0  0  0  0  0  0
  -10.0884    4.1866  -17.2754 C   0  0  0  0  0  0  0  0  0  0  0  0
  -10.4702    4.3543  -18.5684 C   0  0  0  0  0  0  0  0  0  0  0  0
   -9.4716    4.4774  -19.4915 C   0  0  0  0  0  0  0  0  0  0  0  0
   -8.1710    4.5666  -19.1810 N   0  0  0  0  0  0  0  0  0  0  0  0
   -7.8249    4.6657  -17.9000 C   0  0  0  0  0  0  0  0  0  0  0  0
   -3.9949    5.3276  -20.4159 C   0  0  0  0  0  0  0  0  0  0  0  0
   -2.7912    5.1317  -19.7256 C   0  0  0  0  0  0  0  0  0  0  0  0
   -1.6234    5.5737  -20.3525 C   0  0  0  0  0  0  0  0  0  0  0  0
   -1.6102    6.1626  -21.5662 N   0  0  0  0  0  0  0  0  0  0  0  0
   -2.7574    6.3139  -22.2329 C   0  0  0  0  0  0  0  0  0  0  0  0
   -2.6982    6.9084  -23.4879 C   0  0  0  0  0  0  0  0  0  0  0  0
   -3.8407    7.1349  -24.2553 C   0  0  0  0  0  0  0  0  0  0  0  0
   -5.0748    6.7569  -23.7572 C   0  0  0  0  0  0  0  0  0  0  0  0
   -5.1453    6.1545  -22.5012 C   0  0  0  0  0  0  0  0  0  0  0  0
   -3.9979    5.9193  -21.7093 C   0  0  0  0  0  0  0  0  0  0  0  0
   -0.2834    5.4322  -19.6739 C   0  0  0  0  0  0  0  0  0  0  0  0
   -0.1176    6.2949  -18.4193 C   0  0  0  0  0  0  0  0  0  0  0  0
   -1.3819    6.6006  -17.6137 C   0  0  0  0  0  0  0  0  0  0  0  0
   -2.2661    5.4062  -17.2474 C   0  0  0  0  0  0  0  0  0  0  0  0
   -2.6635    4.4566  -18.3878 C   0  0  0  0  0  0  0  0  0  0  0  0
  1  2  2  0
  2  3  1  0
  3  4  1  0
  4  5  2  0
  5  6  1  0
  6  7  1  0
  7  8  1  0
  7  9  1  0
  7 10  1  0
  6 11  2  0
 11 12  1  0
 12 13  2  0
 13 14  1  0
 14 15  2  0
 15 16  1  0
 16 17  2  0
  2 18  1  0
 18 19  2  0
 19 20  1  0
 20 21  2  0
 21 22  1  0
 22 23  2  0
 23 24  1  0
 24 25  2  0
 25 26  1  0
 26 27  2  0
 20 28  1  0
 28 29  1  0
 29 30  1  0
 30 31  1  0
 31 32  1  0
 17  4  1  0
 27 18  1  0
 17 12  1  0
 32 19  1  0
 27 22  1  0
M  END
>  <fragmenstein_outcome>  (467) 
nan

>  <exports>  (467) 
['/opt/xchem-fragalysis-2/maxwin/openbind-hippo/xx01zvns2b/cycle_01/syndirella/elabs/openbind_xx01zvns2b_c1_elab_chemspace_filtered.sdf']

>  <Energy>  (467) 
nan

>  <alias>  (467) 
None

>  <fragmenstein_runtime>  (467) 
nan

>  <scratch_subdir>  (467) 
nan

>  <HIPPO Compound ID>  (467) 
142424

>  <rmsd(smina/fragmenstein)>  (467) 
0.938

>  <distance_score>  (467) 
1.086032

>  <orig_smiles>  (467) 
nan

>  <fragmenstein_mode>  (467) 
nan

>  <inchikey>  (467) 
VZUORNBTAQEYOW-UHFFFAOYSA-N

>  <ref_pdb>  (467) 
Z0852a

>  <GNINA pK>  (467) 
nan

>  <gnina_score_min>  (467) 
6.353

>  <tags>  (467) 
openbind_xx01zvns2b_c1_elab_nonasap_filtered_scored_top80percent,openbind_xx01zvns2b_c1_elab_chemspace_filtered_scored_top80percent,openbind_xx01zvns2b_c1_elab_chemspace_filtered_scored,openbind_xx01zvns2b_c1_elab_chemspace_filtered_scored_top40percent,openbind_xx01zvns2b_c1_elab_chemspace_filtered_scored_top20percent,openbind_xx01zvns2b_c1_elab_chemspace_filtered_scored_top60percent,openbind_xx01zvns2b_c1_elabs_filtered

>  <smiles>  (467) 
O=C(Nc1cc(C(F)(F)F)cc2cccnc12)c1c2c(nc3ccccc13)CCCCC2

>  <subsites>  (467) 
1 - Z4590/B/203/1

>  <gnina_score>  (467) 
6.096

>  <HIPPO Pose ID>  (467) 
70419

>  <ref_mols>  (467) 
Z0917a,Z0852a

>  <energy_score>  (467) 
-17.202623

>  <inspiration_score>  (467) 
None

>  <smina_score_min>  (467) 
-6.782

>  <fragmenstein_error>  (467) 
nan

>  <name>  (467) 
P70419

$$$$
P70420
     RDKit          3D

 32 36  0  0  0  0  0  0  0  0999 V2000
   -6.3718    5.1273  -11.5632 C   0  0  0  0  0  0  0  0  0  0  0  0
   -6.8599    4.9994  -12.8990 O   0  0  0  0  0  0  0  0  0  0  0  0
   -5.9190    5.1813  -13.8565 C   0  0  0  0  0  0  0  0  0  0  0  0
   -4.7449    5.4593  -13.6671 O   0  0  0  0  0  0  0  0  0  0  0  0
   -6.5108    5.0207  -15.2101 C   0  0  0  0  0  0  0  0  0  0  0  0
   -5.7255    5.3369  -16.3208 C   0  0  0  0  0  0  0  0  0  0  0  0
   -6.2017    5.1552  -17.6292 C   0  0  0  0  0  0  0  0  0  0  0  0
   -5.2971    5.4681  -18.6567 N   0  0  0  0  0  0  0  0  0  0  0  0
   -5.1200    4.8456  -20.0686 C   0  0  0  0  0  0  0  0  0  0  0  0
   -5.7493    4.0298  -20.6216 O   0  0  0  0  0  0  0  0  0  0  0  0
   -3.8858    5.3854  -20.7262 C   0  0  0  0  0  0  0  0  0  0  0  0
   -2.6201    5.2758  -20.0986 C   0  0  0  0  0  0  0  0  0  0  0  0
   -1.5376    5.8316  -20.7801 C   0  0  0  0  0  0  0  0  0  0  0  0
   -1.6703    6.3853  -22.0104 N   0  0  0  0  0  0  0  0  0  0  0  0
   -2.8577    6.4501  -22.6104 C   0  0  0  0  0  0  0  0  0  0  0  0
   -2.9141    7.0416  -23.8675 C   0  0  0  0  0  0  0  0  0  0  0  0
   -4.1156    7.2034  -24.5556 C   0  0  0  0  0  0  0  0  0  0  0  0
   -5.2897    6.7656  -23.9707 C   0  0  0  0  0  0  0  0  0  0  0  0
   -5.2382    6.1634  -22.7132 C   0  0  0  0  0  0  0  0  0  0  0  0
   -4.0258    5.9840  -22.0073 C   0  0  0  0  0  0  0  0  0  0  0  0
   -0.1183    5.9577  -20.2852 C   0  0  0  0  0  0  0  0  0  0  0  0
    0.2550    5.6463  -18.8405 C   0  0  0  0  0  0  0  0  0  0  0  0
   -0.6987    6.2587  -17.8281 C   0  0  0  0  0  0  0  0  0  0  0  0
   -2.0003    5.4777  -17.6429 C   0  0  0  0  0  0  0  0  0  0  0  0
   -2.4073    4.5538  -18.7959 C   0  0  0  0  0  0  0  0  0  0  0  0
   -7.5158    4.7318  -17.8471 C   0  0  0  0  0  0  0  0  0  0  0  0
   -8.0535    4.6768  -19.0688 N   0  0  0  0  0  0  0  0  0  0  0  0
   -9.3708    4.4460  -19.1983 C   0  0  0  0  0  0  0  0  0  0  0  0
  -10.2085    4.1900  -18.1419 C   0  0  0  0  0  0  0  0  0  0  0  0
   -9.6436    4.1537  -16.8867 C   0  0  0  0  0  0  0  0  0  0  0  0
   -8.3091    4.4699  -16.7122 C   0  0  0  0  0  0  0  0  0  0  0  0
   -7.8102    4.5714  -15.4118 C   0  0  0  0  0  0  0  0  0  0  0  0
  1  2  1  0
  2  3  1  0
  3  4  2  0
  3  5  1  0
  5  6  2  0
  6  7  1  0
  7  8  1  0
  8  9  1  0
  9 10  2  0
  9 11  1  0
 11 12  2  0
 12 13  1  0
 13 14  2  0
 14 15  1  0
 15 16  2  0
 16 17  1  0
 17 18  2  0
 18 19  1  0
 19 20  2  0
 13 21  1  0
 21 22  1  0
 22 23  1  0
 23 24  1  0
 24 25  1  0
  7 26  2  0
 26 27  1  0
 27 28  2  0
 28 29  1  0
 29 30  2  0
 30 31  1  0
 31 32  2  0
 32  5  1  0
 20 11  1  0
 31 26  1  0
 25 12  1  0
 20 15  1  0
M  END
>  <fragmenstein_outcome>  (468) 
nan

>  <exports>  (468) 
['/opt/xchem-fragalysis-2/maxwin/openbind-hippo/xx01zvns2b/cycle_01/syndirella/elabs/openbind_xx01zvns2b_c1_elab_chemspace_filtered.sdf']

>  <Energy>  (468) 
nan

>  <alias>  (468) 
None

>  <fragmenstein_runtime>  (468) 
nan

>  <scratch_subdir>  (468) 
nan

>  <HIPPO Compound ID>  (468) 
142425

>  <rmsd(smina/fragmenstein)>  (468) 
0.595

>  <distance_score>  (468) 
1.656798

>  <orig_smiles>  (468) 
nan

>  <fragmenstein_mode>  (468) 
nan

>  <inchikey>  (468) 
DKMNEARHXVBGJC-UHFFFAOYSA-N

>  <ref_pdb>  (468) 
Z0852a

>  <GNINA pK>  (468) 
nan

>  <gnina_score_min>  (468) 
6.443

>  <tags>  (468) 
openbind_xx01zvns2b_c1_elab_nonasap_filtered_scored_top80percent,openbind_xx01zvns2b_c1_elab_chemspace_filtered_scored_top80percent,openbind_xx01zvns2b_c1_elab_chemspace_filtered_scored,openbind_xx01zvns2b_c1_elab_chemspace_filtered_scored_top40percent,openbind_xx01zvns2b_c1_elab_chemspace_filtered_scored_top20percent,openbind_xx01zvns2b_c1_elab_chemspace_filtered_scored_top60percent,openbind_xx01zvns2b_c1_elabs_filtered

>  <smiles>  (468) 
COC(=O)c1cc(NC(=O)c2c3c(nc4ccccc24)CCCCC3)c2ncccc2c1

>  <subsites>  (468) 
1 - Z4590/B/203/1

>  <gnina_score>  (468) 
6.356

>  <HIPPO Pose ID>  (468) 
70420

>  <ref_mols>  (468) 
Z0917a,Z0852a

>  <energy_score>  (468) 
-34.011934

>  <inspiration_score>  (468) 
None

>  <smina_score_min>  (468) 
-7.001

>  <fragmenstein_error>  (468) 
nan

>  <name>  (468) 
P70420

$$$$
P70422
     RDKit          3D

 32 35  0  0  0  0  0  0  0  0999 V2000
    1.6007    5.3816  -19.3953 C   0  0  0  0  0  0  0  0  0  0  0  0
    1.2275    6.6129  -20.2047 C   0  0  0  0  0  0  0  0  0  0  0  0
   -0.0420    7.2923  -19.6817 C   0  0  0  0  0  0  0  0  0  0  0  0
   -1.3196    6.5980  -20.0993 C   0  0  0  0  0  0  0  0  0  0  0  0
   -1.5465    6.6307  -21.4288 N   0  0  0  0  0  0  0  0  0  0  0  0
   -2.7431    6.2948  -21.9041 C   0  0  0  0  0  0  0  0  0  0  0  0
   -2.9834    6.6644  -23.2148 C   0  0  0  0  0  0  0  0  0  0  0  0
   -4.2452    6.5504  -23.7716 C   0  0  0  0  0  0  0  0  0  0  0  0
   -5.2537    5.9723  -23.0204 C   0  0  0  0  0  0  0  0  0  0  0  0
   -4.9974    5.4571  -21.7464 C   0  0  0  0  0  0  0  0  0  0  0  0
   -3.7525    5.6953  -21.1246 C   0  0  0  0  0  0  0  0  0  0  0  0
   -3.4242    5.4954  -19.7627 C   0  0  0  0  0  0  0  0  0  0  0  0
   -4.1970    4.7486  -18.7358 C   0  0  0  0  0  0  0  0  0  0  0  0
   -3.5710    4.0098  -18.0888 O   0  0  0  0  0  0  0  0  0  0  0  0
   -5.6684    5.1524  -18.6361 N   0  0  0  0  0  0  0  0  0  0  0  0
   -6.6305    4.8217  -17.6976 C   0  0  0  0  0  0  0  0  0  0  0  0
   -6.2633    4.9317  -16.3570 C   0  0  0  0  0  0  0  0  0  0  0  0
   -7.2278    4.9287  -15.3436 C   0  0  0  0  0  0  0  0  0  0  0  0
   -6.9374    5.4610  -13.9504 C   0  0  0  0  0  0  0  0  0  0  0  0
   -7.4988    4.5334  -12.8662 C   0  0  0  0  0  0  0  0  0  0  0  0
   -7.5964    6.8470  -13.7836 C   0  0  0  0  0  0  0  0  0  0  0  0
   -5.4306    5.6450  -13.7018 C   0  0  0  0  0  0  0  0  0  0  0  0
   -8.5238    4.5667  -15.6862 C   0  0  0  0  0  0  0  0  0  0  0  0
   -8.8658    4.4334  -17.0220 C   0  0  0  0  0  0  0  0  0  0  0  0
  -10.1847    4.2549  -17.3468 C   0  0  0  0  0  0  0  0  0  0  0  0
  -10.6035    4.4829  -18.6189 C   0  0  0  0  0  0  0  0  0  0  0  0
   -9.6321    4.6058  -19.5745 C   0  0  0  0  0  0  0  0  0  0  0  0
   -8.3126    4.5941  -19.3327 N   0  0  0  0  0  0  0  0  0  0  0  0
   -7.9414    4.6091  -18.0541 C   0  0  0  0  0  0  0  0  0  0  0  0
   -2.2792    6.1220  -19.2138 C   0  0  0  0  0  0  0  0  0  0  0  0
   -2.2474    6.4831  -17.7379 C   0  0  0  0  0  0  0  0  0  0  0  0
   -1.3456    5.6792  -16.8260 C   0  0  0  0  0  0  0  0  0  0  0  0
  1  2  1  0
  2  3  1  0
  3  4  1  0
  4  5  2  0
  5  6  1  0
  6  7  2  0
  7  8  1  0
  8  9  2  0
  9 10  1  0
 10 11  2  0
 11 12  1  0
 12 13  1  0
 13 14  2  0
 13 15  1  0
 15 16  1  0
 16 17  2  0
 17 18  1  0
 18 19  1  0
 19 20  1  0
 19 21  1  0
 19 22  1  0
 18 23  2  0
 23 24  1  0
 24 25  2  0
 25 26  1  0
 26 27  2  0
 27 28  1  0
 28 29  2  0
 12 30  2  0
 30 31  1  0
 31 32  1  0
 30  4  1  0
 11  6  1  0
 29 16  1  0
 29 24  1  0
M  END
>  <fragmenstein_outcome>  (469) 
nan

>  <exports>  (469) 
['/opt/xchem-fragalysis-2/maxwin/openbind-hippo/xx01zvns2b/cycle_01/syndirella/elabs/openbind_xx01zvns2b_c1_elab_chemspace_filtered.sdf']

>  <Energy>  (469) 
nan

>  <alias>  (469) 
None

>  <fragmenstein_runtime>  (469) 
nan

>  <scratch_subdir>  (469) 
nan

>  <HIPPO Compound ID>  (469) 
142431

>  <rmsd(smina/fragmenstein)>  (469) 
0.892

>  <distance_score>  (469) 
1.84914

>  <orig_smiles>  (469) 
nan

>  <fragmenstein_mode>  (469) 
nan

>  <inchikey>  (469) 
ROZAZSCCXGWPHC-UHFFFAOYSA-N

>  <ref_pdb>  (469) 
Z0852a

>  <GNINA pK>  (469) 
nan

>  <gnina_score_min>  (469) 
6.497

>  <tags>  (469) 
openbind_xx01zvns2b_c1_elab_nonasap_filtered_scored_top80percent,openbind_xx01zvns2b_c1_elab_chemspace_filtered_scored_top80percent,openbind_xx01zvns2b_c1_elab_chemspace_filtered_scored,openbind_xx01zvns2b_c1_elab_chemspace_filtered_scored_top40percent,openbind_xx01zvns2b_c1_elab_chemspace_filtered_scored_top20percent,openbind_xx01zvns2b_c1_elab_chemspace_filtered_scored_top60percent,openbind_xx01zvns2b_c1_elabs_filtered

>  <smiles>  (469) 
CCCc1nc2ccccc2c(C(=O)Nc2cc(C(C)(C)C)cc3cccnc23)c1CC

>  <subsites>  (469) 
1 - Z4590/B/203/1

>  <gnina_score>  (469) 
6.499

>  <HIPPO Pose ID>  (469) 
70422

>  <ref_mols>  (469) 
Z0917a,Z0852a

>  <energy_score>  (469) 
-2.413175

>  <inspiration_score>  (469) 
None

>  <smina_score_min>  (469) 
-6.147

>  <fragmenstein_error>  (469) 
nan

>  <name>  (469) 
P70422

$$$$
P70423
     RDKit          3D

 32 35  0  0  0  0  0  0  0  0999 V2000
    1.5787    6.7219  -18.4742 C   0  0  0  0  0  0  0  0  0  0  0  0
    0.2184    6.8532  -19.1408 C   0  0  0  0  0  0  0  0  0  0  0  0
   -0.2264    5.5257  -19.7605 C   0  0  0  0  0  0  0  0  0  0  0  0
   -1.6134    5.6245  -20.3481 C   0  0  0  0  0  0  0  0  0  0  0  0
   -1.6359    6.2532  -21.5485 N   0  0  0  0  0  0  0  0  0  0  0  0
   -2.7829    6.3984  -22.2129 C   0  0  0  0  0  0  0  0  0  0  0  0
   -2.7348    7.0196  -23.4559 C   0  0  0  0  0  0  0  0  0  0  0  0
   -3.8804    7.2340  -24.2215 C   0  0  0  0  0  0  0  0  0  0  0  0
   -5.1052    6.8165  -23.7330 C   0  0  0  0  0  0  0  0  0  0  0  0
   -5.1616    6.1917  -22.4874 C   0  0  0  0  0  0  0  0  0  0  0  0
   -4.0094    5.9699  -21.6972 C   0  0  0  0  0  0  0  0  0  0  0  0
   -3.9838    5.3521  -20.4163 C   0  0  0  0  0  0  0  0  0  0  0  0
   -5.2624    4.8265  -19.8448 C   0  0  0  0  0  0  0  0  0  0  0  0
   -5.8751    4.0569  -20.4817 O   0  0  0  0  0  0  0  0  0  0  0  0
   -5.5019    5.3597  -18.3953 N   0  0  0  0  0  0  0  0  0  0  0  0
   -6.5668    5.1305  -17.5004 C   0  0  0  0  0  0  0  0  0  0  0  0
   -6.3681    5.4810  -16.1472 C   0  0  0  0  0  0  0  0  0  0  0  0
   -7.3704    5.2672  -15.1802 C   0  0  0  0  0  0  0  0  0  0  0  0
   -7.2764    5.7707  -13.7656 C   0  0  0  0  0  0  0  0  0  0  0  0
   -8.3676    5.4656  -13.0037 F   0  0  0  0  0  0  0  0  0  0  0  0
   -6.1979    5.2938  -13.0961 F   0  0  0  0  0  0  0  0  0  0  0  0
   -7.1859    7.1311  -13.7209 F   0  0  0  0  0  0  0  0  0  0  0  0
   -8.5509    4.6607  -15.5693 C   0  0  0  0  0  0  0  0  0  0  0  0
   -8.7854    4.4513  -16.9123 C   0  0  0  0  0  0  0  0  0  0  0  0
  -10.0800    4.1857  -17.2740 C   0  0  0  0  0  0  0  0  0  0  0  0
  -10.4646    4.3513  -18.5664 C   0  0  0  0  0  0  0  0  0  0  0  0
   -9.4679    4.4748  -19.4920 C   0  0  0  0  0  0  0  0  0  0  0  0
   -8.1663    4.5664  -19.1855 N   0  0  0  0  0  0  0  0  0  0  0  0
   -7.8174    4.6647  -17.9049 C   0  0  0  0  0  0  0  0  0  0  0  0
   -2.7689    5.1397  -19.7291 C   0  0  0  0  0  0  0  0  0  0  0  0
   -2.7044    4.3407  -18.4512 C   0  0  0  0  0  0  0  0  0  0  0  0
   -2.4128    5.1608  -17.2000 C   0  0  0  0  0  0  0  0  0  0  0  0
  1  2  1  0
  2  3  1  0
  3  4  1  0
  4  5  2  0
  5  6  1  0
  6  7  2  0
  7  8  1  0
  8  9  2  0
  9 10  1  0
 10 11  2  0
 11 12  1  0
 12 13  1  0
 13 14  2  0
 13 15  1  0
 15 16  1  0
 16 17  2  0
 17 18  1  0
 18 19  1  0
 19 20  1  0
 19 21  1  0
 19 22  1  0
 18 23  2  0
 23 24  1  0
 24 25  2  0
 25 26  1  0
 26 27  2  0
 27 28  1  0
 28 29  2  0
 12 30  2  0
 30 31  1  0
 31 32  1  0
 30  4  1  0
 11  6  1  0
 29 16  1  0
 29 24  1  0
M  END
>  <fragmenstein_outcome>  (470) 
nan

>  <exports>  (470) 
['/opt/xchem-fragalysis-2/maxwin/openbind-hippo/xx01zvns2b/cycle_01/syndirella/elabs/openbind_xx01zvns2b_c1_elab_chemspace_filtered.sdf']

>  <Energy>  (470) 
nan

>  <alias>  (470) 
None

>  <fragmenstein_runtime>  (470) 
nan

>  <scratch_subdir>  (470) 
nan

>  <HIPPO Compound ID>  (470) 
142432

>  <rmsd(smina/fragmenstein)>  (470) 
1.128

>  <distance_score>  (470) 
1.095885

>  <orig_smiles>  (470) 
nan

>  <fragmenstein_mode>  (470) 
nan

>  <inchikey>  (470) 
PVEQGHALFHTWCG-UHFFFAOYSA-N

>  <ref_pdb>  (470) 
Z0852a

>  <GNINA pK>  (470) 
nan

>  <gnina_score_min>  (470) 
6.318

>  <tags>  (470) 
openbind_xx01zvns2b_c1_elab_nonasap_filtered_scored_top80percent,openbind_xx01zvns2b_c1_elab_chemspace_filtered_scored_top80percent,openbind_xx01zvns2b_c1_elab_chemspace_filtered_scored,openbind_xx01zvns2b_c1_elab_chemspace_filtered_scored_top40percent,openbind_xx01zvns2b_c1_elab_chemspace_filtered_scored_top20percent,openbind_xx01zvns2b_c1_elab_chemspace_filtered_scored_top60percent,openbind_xx01zvns2b_c1_elabs_filtered

>  <smiles>  (470) 
CCCc1nc2ccccc2c(C(=O)Nc2cc(C(F)(F)F)cc3cccnc23)c1CC

>  <subsites>  (470) 
1 - Z4590/B/203/1

>  <gnina_score>  (470) 
5.939

>  <HIPPO Pose ID>  (470) 
70423

>  <ref_mols>  (470) 
Z0917a,Z0852a

>  <energy_score>  (470) 
-22.86017

>  <inspiration_score>  (470) 
None

>  <smina_score_min>  (470) 
-5.239

>  <fragmenstein_error>  (470) 
nan

>  <name>  (470) 
P70423

$$$$
P70424
     RDKit          3D

 32 36  0  0  0  0  0  0  0  0999 V2000
   -6.0660    6.2512  -13.3065 C   0  0  0  0  0  0  0  0  0  0  0  0
   -7.4179    5.6620  -13.7200 C   0  0  0  0  0  0  0  0  0  0  0  0
   -7.8092    4.5657  -12.7122 C   0  0  0  0  0  0  0  0  0  0  0  0
   -8.4358    6.8019  -13.6034 C   0  0  0  0  0  0  0  0  0  0  0  0
   -7.4546    5.1472  -15.1596 C   0  0  0  0  0  0  0  0  0  0  0  0
   -6.4539    5.3663  -16.1245 C   0  0  0  0  0  0  0  0  0  0  0  0
   -6.6685    5.0551  -17.4818 C   0  0  0  0  0  0  0  0  0  0  0  0
   -5.6527    5.3275  -18.4087 N   0  0  0  0  0  0  0  0  0  0  0  0
   -5.3650    4.7027  -19.8059 C   0  0  0  0  0  0  0  0  0  0  0  0
   -5.9761    3.9209  -20.4284 O   0  0  0  0  0  0  0  0  0  0  0  0
   -4.1369    5.2327  -20.4397 C   0  0  0  0  0  0  0  0  0  0  0  0
   -4.2846    5.5630  -21.7899 C   0  0  0  0  0  0  0  0  0  0  0  0
   -3.1896    6.0415  -22.4716 C   0  0  0  0  0  0  0  0  0  0  0  0
   -3.2085    6.4166  -23.8923 C   0  0  0  0  0  0  0  0  0  0  0  0
   -2.1490    6.4241  -24.7851 C   0  0  0  0  0  0  0  0  0  0  0  0
   -2.5245    6.8423  -26.0940 C   0  0  0  0  0  0  0  0  0  0  0  0
   -3.8608    7.1600  -26.1652 C   0  0  0  0  0  0  0  0  0  0  0  0
   -4.6461    6.9681  -24.6603 S   0  0  0  0  0  0  0  0  0  0  0  0
   -1.9934    6.2177  -21.8685 N   0  0  0  0  0  0  0  0  0  0  0  0
   -1.8584    5.9185  -20.5677 C   0  0  0  0  0  0  0  0  0  0  0  0
   -0.6343    6.1894  -19.9752 C   0  0  0  0  0  0  0  0  0  0  0  0
   -0.4086    5.9715  -18.6177 C   0  0  0  0  0  0  0  0  0  0  0  0
   -1.4116    5.4124  -17.8426 C   0  0  0  0  0  0  0  0  0  0  0  0
   -2.6225    5.0554  -18.4305 C   0  0  0  0  0  0  0  0  0  0  0  0
   -2.8972    5.3828  -19.7832 C   0  0  0  0  0  0  0  0  0  0  0  0
   -7.9225    4.6239  -17.9059 C   0  0  0  0  0  0  0  0  0  0  0  0
   -8.2705    4.5930  -19.1914 N   0  0  0  0  0  0  0  0  0  0  0  0
   -9.5707    4.5493  -19.5043 C   0  0  0  0  0  0  0  0  0  0  0  0
  -10.5698    4.4026  -18.5880 C   0  0  0  0  0  0  0  0  0  0  0  0
  -10.1864    4.1621  -17.3078 C   0  0  0  0  0  0  0  0  0  0  0  0
   -8.8863    4.3854  -16.9302 C   0  0  0  0  0  0  0  0  0  0  0  0
   -8.6352    4.5464  -15.5839 C   0  0  0  0  0  0  0  0  0  0  0  0
  1  2  1  0
  2  3  1  0
  2  4  1  0
  2  5  1  0
  5  6  2  0
  6  7  1  0
  7  8  1  0
  8  9  1  0
  9 10  2  0
  9 11  1  0
 11 12  2  0
 12 13  1  0
 13 14  1  0
 14 15  2  0
 15 16  1  0
 16 17  2  0
 17 18  1  0
 13 19  2  0
 19 20  1  0
 20 21  2  0
 21 22  1  0
 22 23  2  0
 23 24  1  0
 24 25  2  0
  7 26  2  0
 26 27  1  0
 27 28  2  0
 28 29  1  0
 29 30  2  0
 30 31  1  0
 31 32  2  0
 32  5  1  0
 25 11  1  0
 31 26  1  0
 18 14  1  0
 25 20  1  0
M  END
>  <fragmenstein_outcome>  (471) 
nan

>  <exports>  (471) 
['/opt/xchem-fragalysis-2/maxwin/openbind-hippo/xx01zvns2b/cycle_01/syndirella/elabs/openbind_xx01zvns2b_c1_elab_chemspace_filtered.sdf']

>  <Energy>  (471) 
nan

>  <alias>  (471) 
None

>  <fragmenstein_runtime>  (471) 
nan

>  <scratch_subdir>  (471) 
nan

>  <HIPPO Compound ID>  (471) 
142434

>  <rmsd(smina/fragmenstein)>  (471) 
1.813

>  <distance_score>  (471) 
1.335283

>  <orig_smiles>  (471) 
nan

>  <fragmenstein_mode>  (471) 
nan

>  <inchikey>  (471) 
ZDCVFLZGKKCGJB-UHFFFAOYSA-N

>  <ref_pdb>  (471) 
Z0852a

>  <GNINA pK>  (471) 
nan

>  <gnina_score_min>  (471) 
6.585

>  <tags>  (471) 
openbind_xx01zvns2b_c1_elab_nonasap_filtered_scored_top80percent,openbind_xx01zvns2b_c1_elab_chemspace_filtered_scored_top80percent,openbind_xx01zvns2b_c1_elab_chemspace_filtered_scored,openbind_xx01zvns2b_c1_elab_chemspace_filtered_scored_top40percent,openbind_xx01zvns2b_c1_elab_chemspace_filtered_scored_top20percent,openbind_xx01zvns2b_c1_elab_chemspace_filtered_scored_top60percent,openbind_xx01zvns2b_c1_elabs_filtered

>  <smiles>  (471) 
CC(C)(C)c1cc(NC(=O)c2cc(-c3cccs3)nc3ccccc23)c2ncccc2c1

>  <subsites>  (471) 
1 - Z4590/B/203/1

>  <gnina_score>  (471) 
6.194

>  <HIPPO Pose ID>  (471) 
70424

>  <ref_mols>  (471) 
Z0917a,Z0852a

>  <energy_score>  (471) 
-19.772037

>  <inspiration_score>  (471) 
None

>  <smina_score_min>  (471) 
-6.698

>  <fragmenstein_error>  (471) 
nan

>  <name>  (471) 
P70424

$$$$
P70425
     RDKit          3D

 32 36  0  0  0  0  0  0  0  0999 V2000
   -5.9576    3.9212  -20.3591 O   0  0  0  0  0  0  0  0  0  0  0  0
   -5.3265    4.6870  -19.7367 C   0  0  0  0  0  0  0  0  0  0  0  0
   -5.5505    5.2491  -18.3017 N   0  0  0  0  0  0  0  0  0  0  0  0
   -6.6136    5.0620  -17.4063 C   0  0  0  0  0  0  0  0  0  0  0  0
   -6.4144    5.4039  -16.0564 C   0  0  0  0  0  0  0  0  0  0  0  0
   -7.4357    5.2160  -15.1082 C   0  0  0  0  0  0  0  0  0  0  0  0
   -7.3430    5.7241  -13.6962 C   0  0  0  0  0  0  0  0  0  0  0  0
   -8.4348    5.4220  -12.9358 F   0  0  0  0  0  0  0  0  0  0  0  0
   -6.2640    5.2503  -13.0254 F   0  0  0  0  0  0  0  0  0  0  0  0
   -7.2511    7.0848  -13.6582 F   0  0  0  0  0  0  0  0  0  0  0  0
   -8.6265    4.6366  -15.5151 C   0  0  0  0  0  0  0  0  0  0  0  0
   -8.8540    4.4372  -16.8633 C   0  0  0  0  0  0  0  0  0  0  0  0
  -10.1422    4.1805  -17.2575 C   0  0  0  0  0  0  0  0  0  0  0  0
  -10.5100    4.3695  -18.5525 C   0  0  0  0  0  0  0  0  0  0  0  0
   -9.5017    4.5125  -19.4595 C   0  0  0  0  0  0  0  0  0  0  0  0
   -8.2071    4.5918  -19.1262 N   0  0  0  0  0  0  0  0  0  0  0  0
   -7.8736    4.6467  -17.8365 C   0  0  0  0  0  0  0  0  0  0  0  0
   -4.1221    5.2363  -20.4025 C   0  0  0  0  0  0  0  0  0  0  0  0
   -4.3058    5.5421  -21.7545 C   0  0  0  0  0  0  0  0  0  0  0  0
   -3.2384    6.0303  -22.4725 C   0  0  0  0  0  0  0  0  0  0  0  0
   -3.3624    6.3811  -23.8956 C   0  0  0  0  0  0  0  0  0  0  0  0
   -4.4944    6.7437  -24.6108 C   0  0  0  0  0  0  0  0  0  0  0  0
   -4.2320    6.9711  -25.9933 C   0  0  0  0  0  0  0  0  0  0  0  0
   -2.9040    6.7876  -26.2985 C   0  0  0  0  0  0  0  0  0  0  0  0
   -1.9868    6.3413  -24.9287 S   0  0  0  0  0  0  0  0  0  0  0  0
   -2.0403    6.2578  -21.8965 N   0  0  0  0  0  0  0  0  0  0  0  0
   -1.8627    5.9684  -20.5992 C   0  0  0  0  0  0  0  0  0  0  0  0
   -0.6252    6.2630  -20.0474 C   0  0  0  0  0  0  0  0  0  0  0  0
   -0.3498    6.0497  -18.6985 C   0  0  0  0  0  0  0  0  0  0  0  0
   -1.3177    5.4777  -17.8893 C   0  0  0  0  0  0  0  0  0  0  0  0
   -2.5453    5.1066  -18.4346 C   0  0  0  0  0  0  0  0  0  0  0  0
   -2.8682    5.4183  -19.7810 C   0  0  0  0  0  0  0  0  0  0  0  0
  1  2  2  0
  2  3  1  0
  3  4  1  0
  4  5  2  0
  5  6  1  0
  6  7  1  0
  7  8  1  0
  7  9  1  0
  7 10  1  0
  6 11  2  0
 11 12  1  0
 12 13  2  0
 13 14  1  0
 14 15  2  0
 15 16  1  0
 16 17  2  0
  2 18  1  0
 18 19  2  0
 19 20  1  0
 20 21  1  0
 21 22  2  0
 22 23  1  0
 23 24  2  0
 24 25  1  0
 20 26  2  0
 26 27  1  0
 27 28  2  0
 28 29  1  0
 29 30  2  0
 30 31  1  0
 31 32  2  0
 17  4  1  0
 32 18  1  0
 17 12  1  0
 25 21  1  0
 32 27  1  0
M  END
>  <fragmenstein_outcome>  (472) 
nan

>  <exports>  (472) 
['/opt/xchem-fragalysis-2/maxwin/openbind-hippo/xx01zvns2b/cycle_01/syndirella/elabs/openbind_xx01zvns2b_c1_elab_chemspace_filtered.sdf']

>  <Energy>  (472) 
nan

>  <alias>  (472) 
None

>  <fragmenstein_runtime>  (472) 
nan

>  <scratch_subdir>  (472) 
nan

>  <HIPPO Compound ID>  (472) 
142435

>  <rmsd(smina/fragmenstein)>  (472) 
2.281

>  <distance_score>  (472) 
1.080737

>  <orig_smiles>  (472) 
nan

>  <fragmenstein_mode>  (472) 
nan

>  <inchikey>  (472) 
LLSQZZWSBZUSJP-UHFFFAOYSA-N

>  <ref_pdb>  (472) 
Z0852a

>  <GNINA pK>  (472) 
nan

>  <gnina_score_min>  (472) 
6.356

>  <tags>  (472) 
openbind_xx01zvns2b_c1_elab_nonasap_filtered_scored_top80percent,openbind_xx01zvns2b_c1_elab_chemspace_filtered_scored_top80percent,openbind_xx01zvns2b_c1_elab_chemspace_filtered_scored,openbind_xx01zvns2b_c1_elab_chemspace_filtered_scored_top40percent,openbind_xx01zvns2b_c1_elab_chemspace_filtered_scored_top20percent,openbind_xx01zvns2b_c1_elab_chemspace_filtered_scored_top60percent,openbind_xx01zvns2b_c1_elabs_filtered

>  <smiles>  (472) 
O=C(Nc1cc(C(F)(F)F)cc2cccnc12)c1cc(-c2cccs2)nc2ccccc12

>  <subsites>  (472) 
1 - Z4590/B/203/1

>  <gnina_score>  (472) 
5.881

>  <HIPPO Pose ID>  (472) 
70425

>  <ref_mols>  (472) 
Z0917a,Z0852a

>  <energy_score>  (472) 
-10.961287

>  <inspiration_score>  (472) 
None

>  <smina_score_min>  (472) 
-6.674

>  <fragmenstein_error>  (472) 
nan

>  <name>  (472) 
P70425

$$$$
P70426
     RDKit          3D

 32 36  0  0  0  0  0  0  0  0999 V2000
   -6.3211    4.5906  -11.5019 C   0  0  0  0  0  0  0  0  0  0  0  0
   -6.8484    4.6249  -12.8278 O   0  0  0  0  0  0  0  0  0  0  0  0
   -5.9324    4.8934  -13.7885 C   0  0  0  0  0  0  0  0  0  0  0  0
   -4.7556    5.1646  -13.6049 O   0  0  0  0  0  0  0  0  0  0  0  0
   -6.5565    4.8381  -15.1362 C   0  0  0  0  0  0  0  0  0  0  0  0
   -5.7824    5.1887  -16.2435 C   0  0  0  0  0  0  0  0  0  0  0  0
   -6.3013    5.0839  -17.5412 C   0  0  0  0  0  0  0  0  0  0  0  0
   -5.4256    5.3653  -18.5902 N   0  0  0  0  0  0  0  0  0  0  0  0
   -5.3246    4.7499  -20.0103 C   0  0  0  0  0  0  0  0  0  0  0  0
   -6.0074    3.9672  -20.5479 O   0  0  0  0  0  0  0  0  0  0  0  0
   -4.1419    5.2532  -20.7464 C   0  0  0  0  0  0  0  0  0  0  0  0
   -4.4024    5.6282  -22.0634 C   0  0  0  0  0  0  0  0  0  0  0  0
   -3.3588    6.1017  -22.8251 C   0  0  0  0  0  0  0  0  0  0  0  0
   -3.4913    6.5222  -24.2289 C   0  0  0  0  0  0  0  0  0  0  0  0
   -2.4943    6.6178  -25.1869 C   0  0  0  0  0  0  0  0  0  0  0  0
   -2.9758    7.0520  -26.4553 C   0  0  0  0  0  0  0  0  0  0  0  0
   -4.3297    7.2920  -26.4326 C   0  0  0  0  0  0  0  0  0  0  0  0
   -5.0043    7.0102  -24.8894 S   0  0  0  0  0  0  0  0  0  0  0  0
   -2.1094    6.2311  -22.3261 N   0  0  0  0  0  0  0  0  0  0  0  0
   -1.8662    5.8958  -21.0515 C   0  0  0  0  0  0  0  0  0  0  0  0
   -0.5889    6.1341  -20.5690 C   0  0  0  0  0  0  0  0  0  0  0  0
   -0.2485    5.8916  -19.2417 C   0  0  0  0  0  0  0  0  0  0  0  0
   -1.1909    5.3396  -18.3911 C   0  0  0  0  0  0  0  0  0  0  0  0
   -2.4535    5.0046  -18.8750 C   0  0  0  0  0  0  0  0  0  0  0  0
   -2.8435    5.3608  -20.1930 C   0  0  0  0  0  0  0  0  0  0  0  0
   -7.6323    4.7293  -17.7583 C   0  0  0  0  0  0  0  0  0  0  0  0
   -8.1899    4.7790  -18.9735 N   0  0  0  0  0  0  0  0  0  0  0  0
   -9.5063    4.5607  -19.1084 C   0  0  0  0  0  0  0  0  0  0  0  0
  -10.3255    4.2322  -18.0608 C   0  0  0  0  0  0  0  0  0  0  0  0
   -9.7403    4.1234  -16.8162 C   0  0  0  0  0  0  0  0  0  0  0  0
   -8.4038    4.4188  -16.6315 C   0  0  0  0  0  0  0  0  0  0  0  0
   -7.8738    4.4368  -15.3370 C   0  0  0  0  0  0  0  0  0  0  0  0
  1  2  1  0
  2  3  1  0
  3  4  2  0
  3  5  1  0
  5  6  2  0
  6  7  1  0
  7  8  1  0
  8  9  1  0
  9 10  2  0
  9 11  1  0
 11 12  2  0
 12 13  1  0
 13 14  1  0
 14 15  2  0
 15 16  1  0
 16 17  2  0
 17 18  1  0
 13 19  2  0
 19 20  1  0
 20 21  2  0
 21 22  1  0
 22 23  2  0
 23 24  1  0
 24 25  2  0
  7 26  2  0
 26 27  1  0
 27 28  2  0
 28 29  1  0
 29 30  2  0
 30 31  1  0
 31 32  2  0
 32  5  1  0
 25 11  1  0
 31 26  1  0
 18 14  1  0
 25 20  1  0
M  END
>  <fragmenstein_outcome>  (473) 
nan

>  <exports>  (473) 
['/opt/xchem-fragalysis-2/maxwin/openbind-hippo/xx01zvns2b/cycle_01/syndirella/elabs/openbind_xx01zvns2b_c1_elab_chemspace_filtered.sdf']

>  <Energy>  (473) 
nan

>  <alias>  (473) 
None

>  <fragmenstein_runtime>  (473) 
nan

>  <scratch_subdir>  (473) 
nan

>  <HIPPO Compound ID>  (473) 
142436

>  <rmsd(smina/fragmenstein)>  (473) 
1.407

>  <distance_score>  (473) 
1.720751

>  <orig_smiles>  (473) 
nan

>  <fragmenstein_mode>  (473) 
nan

>  <inchikey>  (473) 
YYWYSLYTCMOWSE-UHFFFAOYSA-N

>  <ref_pdb>  (473) 
Z0852a

>  <GNINA pK>  (473) 
nan

>  <gnina_score_min>  (473) 
6.358

>  <tags>  (473) 
openbind_xx01zvns2b_c1_elab_nonasap_filtered_scored_top80percent,openbind_xx01zvns2b_c1_elab_chemspace_filtered_scored_top80percent,openbind_xx01zvns2b_c1_elab_chemspace_filtered_scored,openbind_xx01zvns2b_c1_elab_chemspace_filtered_scored_top40percent,openbind_xx01zvns2b_c1_elab_chemspace_filtered_scored_top20percent,openbind_xx01zvns2b_c1_elab_chemspace_filtered_scored_top60percent,openbind_xx01zvns2b_c1_elabs_filtered

>  <smiles>  (473) 
COC(=O)c1cc(NC(=O)c2cc(-c3cccs3)nc3ccccc23)c2ncccc2c1

>  <subsites>  (473) 
1 - Z4590/B/203/1

>  <gnina_score>  (473) 
6.173

>  <HIPPO Pose ID>  (473) 
70426

>  <ref_mols>  (473) 
Z0917a,Z0852a

>  <energy_score>  (473) 
-33.883727

>  <inspiration_score>  (473) 
None

>  <smina_score_min>  (473) 
-6.467

>  <fragmenstein_error>  (473) 
nan

>  <name>  (473) 
P70426

$$$$
P70427
     RDKit          3D

 32 36  0  0  0  0  0  0  0  0999 V2000
   -1.5799    5.4879  -16.3119 C   0  0  0  0  0  0  0  0  0  0  0  0
   -1.5900    5.5120  -17.8124 C   0  0  0  0  0  0  0  0  0  0  0  0
   -0.5132    6.0249  -18.5259 C   0  0  0  0  0  0  0  0  0  0  0  0
   -0.5702    6.1275  -19.9252 C   0  0  0  0  0  0  0  0  0  0  0  0
    0.6349    6.6404  -20.6713 C   0  0  0  0  0  0  0  0  0  0  0  0
   -1.7431    5.8205  -20.6267 C   0  0  0  0  0  0  0  0  0  0  0  0
   -1.7832    6.0400  -21.9556 N   0  0  0  0  0  0  0  0  0  0  0  0
   -2.9135    5.8375  -22.6693 C   0  0  0  0  0  0  0  0  0  0  0  0
   -2.8728    6.0679  -24.1596 C   0  0  0  0  0  0  0  0  0  0  0  0
   -3.8313    7.0333  -24.8195 C   0  0  0  0  0  0  0  0  0  0  0  0
   -2.3804    7.3907  -24.7002 C   0  0  0  0  0  0  0  0  0  0  0  0
   -4.0704    5.4331  -22.0402 C   0  0  0  0  0  0  0  0  0  0  0  0
   -4.0430    5.1797  -20.6737 C   0  0  0  0  0  0  0  0  0  0  0  0
   -5.3460    4.7634  -20.0953 C   0  0  0  0  0  0  0  0  0  0  0  0
   -5.9767    3.9516  -20.6517 O   0  0  0  0  0  0  0  0  0  0  0  0
   -5.5952    5.4762  -18.7430 N   0  0  0  0  0  0  0  0  0  0  0  0
   -6.5858    5.2772  -17.7846 C   0  0  0  0  0  0  0  0  0  0  0  0
   -6.2570    5.6879  -16.4908 C   0  0  0  0  0  0  0  0  0  0  0  0
   -7.1084    5.4619  -15.3988 C   0  0  0  0  0  0  0  0  0  0  0  0
   -6.6946    5.9036  -14.0101 C   0  0  0  0  0  0  0  0  0  0  0  0
   -5.4110    5.1416  -13.6543 C   0  0  0  0  0  0  0  0  0  0  0  0
   -6.4035    7.4194  -13.9712 C   0  0  0  0  0  0  0  0  0  0  0  0
   -7.7488    5.6228  -12.9211 C   0  0  0  0  0  0  0  0  0  0  0  0
   -8.3040    4.8046  -15.6360 C   0  0  0  0  0  0  0  0  0  0  0  0
   -8.6788    4.5299  -16.9391 C   0  0  0  0  0  0  0  0  0  0  0  0
   -9.9807    4.1627  -17.1569 C   0  0  0  0  0  0  0  0  0  0  0  0
  -10.5029    4.2630  -18.4134 C   0  0  0  0  0  0  0  0  0  0  0  0
   -9.6171    4.4756  -19.4379 C   0  0  0  0  0  0  0  0  0  0  0  0
   -8.2977    4.6090  -19.2717 N   0  0  0  0  0  0  0  0  0  0  0  0
   -7.8373    4.7491  -18.0357 C   0  0  0  0  0  0  0  0  0  0  0  0
   -2.8548    5.3388  -19.9170 C   0  0  0  0  0  0  0  0  0  0  0  0
   -2.7164    5.0938  -18.5215 C   0  0  0  0  0  0  0  0  0  0  0  0
  1  2  1  0
  2  3  2  0
  3  4  1  0
  4  5  1  0
  4  6  2  0
  6  7  1  0
  7  8  2  0
  8  9  1  0
  9 10  1  0
 10 11  1  0
  8 12  1  0
 12 13  2  0
 13 14  1  0
 14 15  2  0
 14 16  1  0
 16 17  1  0
 17 18  2  0
 18 19  1  0
 19 20  1  0
 20 21  1  0
 20 22  1  0
 20 23  1  0
 19 24  2  0
 24 25  1  0
 25 26  2  0
 26 27  1  0
 27 28  2  0
 28 29  1  0
 29 30  2  0
 13 31  1  0
 31 32  2  0
 32  2  1  0
 31  6  1  0
 11  9  1  0
 30 17  1  0
 30 25  1  0
M  END
>  <fragmenstein_outcome>  (474) 
nan

>  <exports>  (474) 
['/opt/xchem-fragalysis-2/maxwin/openbind-hippo/xx01zvns2b/cycle_01/syndirella/elabs/openbind_xx01zvns2b_c1_elab_chemspace_filtered.sdf']

>  <Energy>  (474) 
nan

>  <alias>  (474) 
None

>  <fragmenstein_runtime>  (474) 
nan

>  <scratch_subdir>  (474) 
nan

>  <HIPPO Compound ID>  (474) 
142437

>  <rmsd(smina/fragmenstein)>  (474) 
1.903

>  <distance_score>  (474) 
1.323768

>  <orig_smiles>  (474) 
nan

>  <fragmenstein_mode>  (474) 
nan

>  <inchikey>  (474) 
GZTZLFXVUUSNCL-UHFFFAOYSA-N

>  <ref_pdb>  (474) 
Z0852a

>  <GNINA pK>  (474) 
nan

>  <gnina_score_min>  (474) 
6.741

>  <tags>  (474) 
openbind_xx01zvns2b_c1_elab_nonasap_filtered_scored_top80percent,openbind_xx01zvns2b_c1_elab_chemspace_filtered_scored_top80percent,openbind_xx01zvns2b_c1_elab_chemspace_filtered_scored,openbind_xx01zvns2b_c1_elab_chemspace_filtered_scored_top40percent,openbind_xx01zvns2b_c1_elab_chemspace_filtered_scored_top20percent,openbind_xx01zvns2b_c1_elab_chemspace_filtered_scored_top60percent,openbind_xx01zvns2b_c1_elabs_filtered

>  <smiles>  (474) 
Cc1cc(C)c2nc(C3CC3)cc(C(=O)Nc3cc(C(C)(C)C)cc4cccnc34)c2c1

>  <subsites>  (474) 
1 - Z4590/B/203/1

>  <gnina_score>  (474) 
6.389

>  <HIPPO Pose ID>  (474) 
70427

>  <ref_mols>  (474) 
Z0917a,Z0852a

>  <energy_score>  (474) 
-22.410361

>  <inspiration_score>  (474) 
None

>  <smina_score_min>  (474) 
-6.655

>  <fragmenstein_error>  (474) 
nan

>  <name>  (474) 
P70427

$$$$
P70428
     RDKit          3D

 32 36  0  0  0  0  0  0  0  0999 V2000
   -1.2864    5.5928  -16.0877 C   0  0  0  0  0  0  0  0  0  0  0  0
   -1.4202    5.6517  -17.5813 C   0  0  0  0  0  0  0  0  0  0  0  0
   -0.4113    6.2097  -18.3574 C   0  0  0  0  0  0  0  0  0  0  0  0
   -0.5614    6.3179  -19.7481 C   0  0  0  0  0  0  0  0  0  0  0  0
    0.5773    6.8711  -20.5670 C   0  0  0  0  0  0  0  0  0  0  0  0
   -1.7592    5.9580  -20.3776 C   0  0  0  0  0  0  0  0  0  0  0  0
   -1.8697    6.1547  -21.7055 N   0  0  0  0  0  0  0  0  0  0  0  0
   -3.0145    5.8759  -22.3635 C   0  0  0  0  0  0  0  0  0  0  0  0
   -3.0512    6.0751  -23.8581 C   0  0  0  0  0  0  0  0  0  0  0  0
   -2.6949    7.4231  -24.4417 C   0  0  0  0  0  0  0  0  0  0  0  0
   -4.1129    6.9405  -24.4991 C   0  0  0  0  0  0  0  0  0  0  0  0
   -4.1147    5.4198  -21.6711 C   0  0  0  0  0  0  0  0  0  0  0  0
   -4.0248    5.2090  -20.2917 C   0  0  0  0  0  0  0  0  0  0  0  0
   -5.2798    4.7039  -19.6738 C   0  0  0  0  0  0  0  0  0  0  0  0
   -5.8874    3.9225  -20.2994 O   0  0  0  0  0  0  0  0  0  0  0  0
   -5.5432    5.2833  -18.2539 N   0  0  0  0  0  0  0  0  0  0  0  0
   -6.6233    5.0970  -17.3817 C   0  0  0  0  0  0  0  0  0  0  0  0
   -6.4399    5.4424  -16.0305 C   0  0  0  0  0  0  0  0  0  0  0  0
   -7.4646    5.2418  -15.0907 C   0  0  0  0  0  0  0  0  0  0  0  0
   -7.3793    5.7428  -13.6762 C   0  0  0  0  0  0  0  0  0  0  0  0
   -8.4735    5.4342  -12.9226 F   0  0  0  0  0  0  0  0  0  0  0  0
   -7.2915    7.1036  -13.6327 F   0  0  0  0  0  0  0  0  0  0  0  0
   -6.3009    5.2706  -13.0038 F   0  0  0  0  0  0  0  0  0  0  0  0
   -8.6468    4.6536  -15.5089 C   0  0  0  0  0  0  0  0  0  0  0  0
   -8.8600    4.4503  -16.8595 C   0  0  0  0  0  0  0  0  0  0  0  0
  -10.1427    4.1869  -17.2660 C   0  0  0  0  0  0  0  0  0  0  0  0
  -10.4955    4.3691  -18.5657 C   0  0  0  0  0  0  0  0  0  0  0  0
   -9.4778    4.5012  -19.4641 C   0  0  0  0  0  0  0  0  0  0  0  0
   -8.1869    4.5879  -19.1182 N   0  0  0  0  0  0  0  0  0  0  0  0
   -7.8712    4.6620  -17.8247 C   0  0  0  0  0  0  0  0  0  0  0  0
   -2.8119    5.4379  -19.6017 C   0  0  0  0  0  0  0  0  0  0  0  0
   -2.5805    5.2044  -18.2179 C   0  0  0  0  0  0  0  0  0  0  0  0
  1  2  1  0
  2  3  2  0
  3  4  1  0
  4  5  1  0
  4  6  2  0
  6  7  1  0
  7  8  2  0
  8  9  1  0
  9 10  1  0
 10 11  1  0
  8 12  1  0
 12 13  2  0
 13 14  1  0
 14 15  2  0
 14 16  1  0
 16 17  1  0
 17 18  2  0
 18 19  1  0
 19 20  1  0
 20 21  1  0
 20 22  1  0
 20 23  1  0
 19 24  2  0
 24 25  1  0
 25 26  2  0
 26 27  1  0
 27 28  2  0
 28 29  1  0
 29 30  2  0
 13 31  1  0
 31 32  2  0
 32  2  1  0
 31  6  1  0
 11  9  1  0
 30 17  1  0
 30 25  1  0
M  END
>  <fragmenstein_outcome>  (475) 
nan

>  <exports>  (475) 
['/opt/xchem-fragalysis-2/maxwin/openbind-hippo/xx01zvns2b/cycle_01/syndirella/elabs/openbind_xx01zvns2b_c1_elab_chemspace_filtered.sdf']

>  <Energy>  (475) 
nan

>  <alias>  (475) 
None

>  <fragmenstein_runtime>  (475) 
nan

>  <scratch_subdir>  (475) 
nan

>  <HIPPO Compound ID>  (475) 
142438

>  <rmsd(smina/fragmenstein)>  (475) 
2.247

>  <distance_score>  (475) 
1.077074

>  <orig_smiles>  (475) 
nan

>  <fragmenstein_mode>  (475) 
nan

>  <inchikey>  (475) 
QHUPAATWCWMRQI-UHFFFAOYSA-N

>  <ref_pdb>  (475) 
Z0852a

>  <GNINA pK>  (475) 
nan

>  <gnina_score_min>  (475) 
6.258

>  <tags>  (475) 
openbind_xx01zvns2b_c1_elab_nonasap_filtered_scored_top80percent,openbind_xx01zvns2b_c1_elab_chemspace_filtered_scored_top80percent,openbind_xx01zvns2b_c1_elab_chemspace_filtered_scored,openbind_xx01zvns2b_c1_elab_chemspace_filtered_scored_top40percent,openbind_xx01zvns2b_c1_elab_chemspace_filtered_scored_top20percent,openbind_xx01zvns2b_c1_elab_chemspace_filtered_scored_top60percent,openbind_xx01zvns2b_c1_elabs_filtered

>  <smiles>  (475) 
Cc1cc(C)c2nc(C3CC3)cc(C(=O)Nc3cc(C(F)(F)F)cc4cccnc34)c2c1

>  <subsites>  (475) 
1 - Z4590/B/203/1

>  <gnina_score>  (475) 
6.206

>  <HIPPO Pose ID>  (475) 
70428

>  <ref_mols>  (475) 
Z0917a,Z0852a

>  <energy_score>  (475) 
-10.538732

>  <inspiration_score>  (475) 
None

>  <smina_score_min>  (475) 
-6.63

>  <fragmenstein_error>  (475) 
nan

>  <name>  (475) 
P70428

$$$$
P70429
     RDKit          3D

 32 36  0  0  0  0  0  0  0  0999 V2000
   -6.5623    5.1294  -11.4430 C   0  0  0  0  0  0  0  0  0  0  0  0
   -7.0317    4.9869  -12.7838 O   0  0  0  0  0  0  0  0  0  0  0  0
   -6.1037    5.2718  -13.7295 C   0  0  0  0  0  0  0  0  0  0  0  0
   -4.9621    5.6540  -13.5232 O   0  0  0  0  0  0  0  0  0  0  0  0
   -6.6660    5.0832  -15.0920 C   0  0  0  0  0  0  0  0  0  0  0  0
   -5.8685    5.4083  -16.1897 C   0  0  0  0  0  0  0  0  0  0  0  0
   -6.3249    5.2012  -17.5003 C   0  0  0  0  0  0  0  0  0  0  0  0
   -5.3919    5.4422  -18.5085 N   0  0  0  0  0  0  0  0  0  0  0  0
   -5.2301    4.7921  -19.9078 C   0  0  0  0  0  0  0  0  0  0  0  0
   -5.8993    4.0094  -20.4621 O   0  0  0  0  0  0  0  0  0  0  0  0
   -3.9720    5.2327  -20.5707 C   0  0  0  0  0  0  0  0  0  0  0  0
   -4.0928    5.4797  -21.9382 C   0  0  0  0  0  0  0  0  0  0  0  0
   -2.9946    5.9239  -22.6439 C   0  0  0  0  0  0  0  0  0  0  0  0
   -3.0892    6.2047  -24.1283 C   0  0  0  0  0  0  0  0  0  0  0  0
   -1.8580    6.5468  -24.9372 C   0  0  0  0  0  0  0  0  0  0  0  0
   -2.5101    5.2079  -25.1065 C   0  0  0  0  0  0  0  0  0  0  0  0
   -1.8276    6.1538  -22.0020 N   0  0  0  0  0  0  0  0  0  0  0  0
   -1.6896    5.9265  -20.6828 C   0  0  0  0  0  0  0  0  0  0  0  0
   -0.4743    6.2593  -20.0721 C   0  0  0  0  0  0  0  0  0  0  0  0
    0.6614    6.7957  -20.9055 C   0  0  0  0  0  0  0  0  0  0  0  0
   -0.3119    6.1618  -18.6822 C   0  0  0  0  0  0  0  0  0  0  0  0
   -1.3223    5.6283  -17.8921 C   0  0  0  0  0  0  0  0  0  0  0  0
   -1.1977    5.6251  -16.3959 C   0  0  0  0  0  0  0  0  0  0  0  0
   -2.4864    5.1757  -18.5171 C   0  0  0  0  0  0  0  0  0  0  0  0
   -2.7370    5.4180  -19.8976 C   0  0  0  0  0  0  0  0  0  0  0  0
   -7.6269    4.7737  -17.7450 C   0  0  0  0  0  0  0  0  0  0  0  0
   -8.1429    4.7436  -18.9779 N   0  0  0  0  0  0  0  0  0  0  0  0
   -9.4493    4.4884  -19.1395 C   0  0  0  0  0  0  0  0  0  0  0  0
  -10.2909    4.1803  -18.1024 C   0  0  0  0  0  0  0  0  0  0  0  0
   -9.7406    4.1288  -16.8398 C   0  0  0  0  0  0  0  0  0  0  0  0
   -8.4242    4.4843  -16.6283 C   0  0  0  0  0  0  0  0  0  0  0  0
   -7.9480    4.5947  -15.3176 C   0  0  0  0  0  0  0  0  0  0  0  0
  1  2  1  0
  2  3  1  0
  3  4  2  0
  3  5  1  0
  5  6  2  0
  6  7  1  0
  7  8  1  0
  8  9  1  0
  9 10  2  0
  9 11  1  0
 11 12  2  0
 12 13  1  0
 13 14  1  0
 14 15  1  0
 15 16  1  0
 13 17  2  0
 17 18  1  0
 18 19  2  0
 19 20  1  0
 19 21  1  0
 21 22  2  0
 22 23  1  0
 22 24  1  0
 24 25  2  0
  7 26  2  0
 26 27  1  0
 27 28  2  0
 28 29  1  0
 29 30  2  0
 30 31  1  0
 31 32  2  0
 32  5  1  0
 25 11  1  0
 31 26  1  0
 16 14  1  0
 25 18  1  0
M  END
>  <fragmenstein_outcome>  (476) 
nan

>  <exports>  (476) 
['/opt/xchem-fragalysis-2/maxwin/openbind-hippo/xx01zvns2b/cycle_01/syndirella/elabs/openbind_xx01zvns2b_c1_elab_chemspace_filtered.sdf']

>  <Energy>  (476) 
nan

>  <alias>  (476) 
None

>  <fragmenstein_runtime>  (476) 
nan

>  <scratch_subdir>  (476) 
nan

>  <HIPPO Compound ID>  (476) 
142439

>  <rmsd(smina/fragmenstein)>  (476) 
2.034

>  <distance_score>  (476) 
1.552249

>  <orig_smiles>  (476) 
nan

>  <fragmenstein_mode>  (476) 
nan

>  <inchikey>  (476) 
IDWMSPPDGVXYEX-UHFFFAOYSA-N

>  <ref_pdb>  (476) 
Z0852a

>  <GNINA pK>  (476) 
nan

>  <gnina_score_min>  (476) 
6.319

>  <tags>  (476) 
openbind_xx01zvns2b_c1_elab_nonasap_filtered_scored_top80percent,openbind_xx01zvns2b_c1_elab_chemspace_filtered_scored_top80percent,openbind_xx01zvns2b_c1_elab_chemspace_filtered_scored,openbind_xx01zvns2b_c1_elab_chemspace_filtered_scored_top40percent,openbind_xx01zvns2b_c1_elab_chemspace_filtered_scored_top20percent,openbind_xx01zvns2b_c1_elab_chemspace_filtered_scored_top60percent,openbind_xx01zvns2b_c1_elabs_filtered

>  <smiles>  (476) 
COC(=O)c1cc(NC(=O)c2cc(C3CC3)nc3c(C)cc(C)cc23)c2ncccc2c1

>  <subsites>  (476) 
1 - Z4590/B/203/1

>  <gnina_score>  (476) 
6.299

>  <HIPPO Pose ID>  (476) 
70429

>  <ref_mols>  (476) 
Z0917a,Z0852a

>  <energy_score>  (476) 
-15.54145

>  <inspiration_score>  (476) 
None

>  <smina_score_min>  (476) 
-6.519

>  <fragmenstein_error>  (476) 
nan

>  <name>  (476) 
P70429

$$$$
P70431
     RDKit          3D

 32 36  0  0  0  0  0  0  0  0999 V2000
   -2.0364    5.5382  -16.2497 C   0  0  0  0  0  0  0  0  0  0  0  0
   -2.0443    5.7681  -17.7555 C   0  0  1  0  0  0  0  0  0  0  0  0
   -0.6343    6.1053  -18.2989 C   0  0  0  0  0  0  0  0  0  0  0  0
   -0.3801    5.5852  -19.7249 C   0  0  0  0  0  0  0  0  0  0  0  0
   -1.6423    5.5964  -20.5519 C   0  0  0  0  0  0  0  0  0  0  0  0
   -1.5785    6.1254  -21.7893 N   0  0  0  0  0  0  0  0  0  0  0  0
   -2.7066    6.2479  -22.4993 C   0  0  0  0  0  0  0  0  0  0  0  0
   -2.6181    6.8263  -23.7598 C   0  0  0  0  0  0  0  0  0  0  0  0
   -3.7455    7.0683  -24.5465 C   0  0  0  0  0  0  0  0  0  0  0  0
   -4.9977    6.7312  -24.0613 C   0  0  0  0  0  0  0  0  0  0  0  0
   -5.1025    6.1369  -22.8043 C   0  0  0  0  0  0  0  0  0  0  0  0
   -3.9654    5.8652  -22.0064 C   0  0  0  0  0  0  0  0  0  0  0  0
   -3.9943    5.2718  -20.7192 C   0  0  0  0  0  0  0  0  0  0  0  0
   -5.2958    4.8242  -20.1544 C   0  0  0  0  0  0  0  0  0  0  0  0
   -5.9322    4.0273  -20.7264 O   0  0  0  0  0  0  0  0  0  0  0  0
   -5.5367    5.5080  -18.7814 N   0  0  0  0  0  0  0  0  0  0  0  0
   -6.5281    5.2886  -17.8184 C   0  0  0  0  0  0  0  0  0  0  0  0
   -6.2113    5.7093  -16.5215 C   0  0  0  0  0  0  0  0  0  0  0  0
   -7.0718    5.4964  -15.4311 C   0  0  0  0  0  0  0  0  0  0  0  0
   -6.6836    5.9562  -14.0397 C   0  0  0  0  0  0  0  0  0  0  0  0
   -7.7890    5.7656  -12.9804 C   0  0  0  0  0  0  0  0  0  0  0  0
   -5.4626    5.1317  -13.6201 C   0  0  0  0  0  0  0  0  0  0  0  0
   -6.3055    7.4536  -14.0231 C   0  0  0  0  0  0  0  0  0  0  0  0
   -8.2611    4.8295  -15.6673 C   0  0  0  0  0  0  0  0  0  0  0  0
   -8.6273    4.5401  -16.9671 C   0  0  0  0  0  0  0  0  0  0  0  0
   -9.9319    4.1744  -17.1745 C   0  0  0  0  0  0  0  0  0  0  0  0
  -10.4509    4.2517  -18.4326 C   0  0  0  0  0  0  0  0  0  0  0  0
   -9.5617    4.4398  -19.4597 C   0  0  0  0  0  0  0  0  0  0  0  0
   -8.2414    4.5825  -19.2970 N   0  0  0  0  0  0  0  0  0  0  0  0
   -7.7795    4.7486  -18.0651 C   0  0  0  0  0  0  0  0  0  0  0  0
   -2.8180    5.1274  -19.9718 C   0  0  0  0  0  0  0  0  0  0  0  0
   -2.6848    4.6152  -18.5561 C   0  0  0  0  0  0  0  0  0  0  0  0
  2  1  1  1
  2  3  1  0
  3  4  1  0
  4  5  1  0
  5  6  2  0
  6  7  1  0
  7  8  2  0
  8  9  1  0
  9 10  2  0
 10 11  1  0
 11 12  2  0
 12 13  1  0
 13 14  1  0
 14 15  2  0
 14 16  1  0
 16 17  1  0
 17 18  2  0
 18 19  1  0
 19 20  1  0
 20 21  1  0
 20 22  1  0
 20 23  1  0
 19 24  2  0
 24 25  1  0
 25 26  2  0
 26 27  1  0
 27 28  2  0
 28 29  1  0
 29 30  2  0
 13 31  2  0
 31 32  1  0
 32  2  1  0
 31  5  1  0
 12  7  1  0
 30 17  1  0
 30 25  1  0
M  END
>  <fragmenstein_outcome>  (477) 
nan

>  <exports>  (477) 
['/opt/xchem-fragalysis-2/maxwin/openbind-hippo/xx01zvns2b/cycle_01/syndirella/elabs/openbind_xx01zvns2b_c1_elab_chemspace_filtered.sdf']

>  <Energy>  (477) 
nan

>  <alias>  (477) 
None

>  <fragmenstein_runtime>  (477) 
nan

>  <scratch_subdir>  (477) 
nan

>  <HIPPO Compound ID>  (477) 
142440

>  <rmsd(smina/fragmenstein)>  (477) 
0.867

>  <distance_score>  (477) 
1.366567

>  <orig_smiles>  (477) 
nan

>  <fragmenstein_mode>  (477) 
nan

>  <inchikey>  (477) 
FUROGAADZGVSET-KRWDZBQOSA-N

>  <ref_pdb>  (477) 
Z0852a

>  <GNINA pK>  (477) 
nan

>  <gnina_score_min>  (477) 
6.725

>  <tags>  (477) 
openbind_xx01zvns2b_c1_elab_nonasap_filtered_scored_top80percent,openbind_xx01zvns2b_c1_elab_chemspace_filtered_scored_top80percent,openbind_xx01zvns2b_c1_elab_chemspace_filtered_scored,openbind_xx01zvns2b_c1_elab_chemspace_filtered_scored_top40percent,openbind_xx01zvns2b_c1_elab_chemspace_filtered_scored_top20percent,openbind_xx01zvns2b_c1_elab_chemspace_filtered_scored_top60percent,openbind_xx01zvns2b_c1_elabs_filtered

>  <smiles>  (477) 
C[C@H]1CCc2nc3ccccc3c(C(=O)Nc3cc(C(C)(C)C)cc4cccnc34)c2C1

>  <subsites>  (477) 
1 - Z4590/B/203/1

>  <gnina_score>  (477) 
6.421

>  <HIPPO Pose ID>  (477) 
70431

>  <ref_mols>  (477) 
Z0917a,Z0852a

>  <energy_score>  (477) 
-10.669208

>  <inspiration_score>  (477) 
None

>  <smina_score_min>  (477) 
-7.078

>  <fragmenstein_error>  (477) 
nan

>  <name>  (477) 
P70431

$$$$
P70433
     RDKit          3D

 32 36  0  0  0  0  0  0  0  0999 V2000
   -1.9384    5.5534  -15.9345 C   0  0  0  0  0  0  0  0  0  0  0  0
   -1.9693    5.8148  -17.4359 C   0  0  1  0  0  0  0  0  0  0  0  0
   -0.5670    6.1450  -18.0002 C   0  0  0  0  0  0  0  0  0  0  0  0
   -0.3564    5.6869  -19.4552 C   0  0  0  0  0  0  0  0  0  0  0  0
   -1.6425    5.7014  -20.2457 C   0  0  0  0  0  0  0  0  0  0  0  0
   -1.6034    6.2134  -21.4904 N   0  0  0  0  0  0  0  0  0  0  0  0
   -2.7397    6.2930  -22.1900 C   0  0  0  0  0  0  0  0  0  0  0  0
   -2.6718    6.8476  -23.4624 C   0  0  0  0  0  0  0  0  0  0  0  0
   -3.8063    7.0305  -24.2529 C   0  0  0  0  0  0  0  0  0  0  0  0
   -5.0419    6.6472  -23.7617 C   0  0  0  0  0  0  0  0  0  0  0  0
   -5.1217    6.0729  -22.4928 C   0  0  0  0  0  0  0  0  0  0  0  0
   -3.9822    5.8798  -21.6779 C   0  0  0  0  0  0  0  0  0  0  0  0
   -3.9923    5.3283  -20.3658 C   0  0  0  0  0  0  0  0  0  0  0  0
   -5.2679    4.8128  -19.7914 C   0  0  0  0  0  0  0  0  0  0  0  0
   -5.8675    4.0258  -20.4189 O   0  0  0  0  0  0  0  0  0  0  0  0
   -5.5260    5.3714  -18.3566 N   0  0  0  0  0  0  0  0  0  0  0  0
   -6.5952    5.1509  -17.4696 C   0  0  0  0  0  0  0  0  0  0  0  0
   -6.4027    5.5034  -16.1177 C   0  0  0  0  0  0  0  0  0  0  0  0
   -7.4060    5.2804  -15.1560 C   0  0  0  0  0  0  0  0  0  0  0  0
   -7.3139    5.7806  -13.7402 C   0  0  0  0  0  0  0  0  0  0  0  0
   -7.2272    7.1412  -13.6946 F   0  0  0  0  0  0  0  0  0  0  0  0
   -6.2339    5.3064  -13.0723 F   0  0  0  0  0  0  0  0  0  0  0  0
   -8.4053    5.4710  -12.9814 F   0  0  0  0  0  0  0  0  0  0  0  0
   -8.5814    4.6668  -15.5512 C   0  0  0  0  0  0  0  0  0  0  0  0
   -8.8099    4.4572  -16.8962 C   0  0  0  0  0  0  0  0  0  0  0  0
  -10.0995    4.1828  -17.2691 C   0  0  0  0  0  0  0  0  0  0  0  0
  -10.4775    4.3524  -18.5632 C   0  0  0  0  0  0  0  0  0  0  0  0
   -9.4768    4.4844  -19.4827 C   0  0  0  0  0  0  0  0  0  0  0  0
   -8.1783    4.5806  -19.1668 N   0  0  0  0  0  0  0  0  0  0  0  0
   -7.8394    4.6781  -17.8827 C   0  0  0  0  0  0  0  0  0  0  0  0
   -2.8026    5.2194  -19.6412 C   0  0  0  0  0  0  0  0  0  0  0  0
   -2.6302    4.6830  -18.2441 C   0  0  0  0  0  0  0  0  0  0  0  0
  2  1  1  1
  2  3  1  0
  3  4  1  0
  4  5  1  0
  5  6  2  0
  6  7  1  0
  7  8  2  0
  8  9  1  0
  9 10  2  0
 10 11  1  0
 11 12  2  0
 12 13  1  0
 13 14  1  0
 14 15  2  0
 14 16  1  0
 16 17  1  0
 17 18  2  0
 18 19  1  0
 19 20  1  0
 20 21  1  0
 20 22  1  0
 20 23  1  0
 19 24  2  0
 24 25  1  0
 25 26  2  0
 26 27  1  0
 27 28  2  0
 28 29  1  0
 29 30  2  0
 13 31  2  0
 31 32  1  0
 32  2  1  0
 31  5  1  0
 12  7  1  0
 30 17  1  0
 30 25  1  0
M  END
>  <fragmenstein_outcome>  (478) 
nan

>  <exports>  (478) 
['/opt/xchem-fragalysis-2/maxwin/openbind-hippo/xx01zvns2b/cycle_01/syndirella/elabs/openbind_xx01zvns2b_c1_elab_chemspace_filtered.sdf']

>  <Energy>  (478) 
nan

>  <alias>  (478) 
None

>  <fragmenstein_runtime>  (478) 
nan

>  <scratch_subdir>  (478) 
nan

>  <HIPPO Compound ID>  (478) 
142454

>  <rmsd(smina/fragmenstein)>  (478) 
0.653

>  <distance_score>  (478) 
1.075984

>  <orig_smiles>  (478) 
nan

>  <fragmenstein_mode>  (478) 
nan

>  <inchikey>  (478) 
XZTDRIRSJZLQFG-AWEZNQCLSA-N

>  <ref_pdb>  (478) 
Z0852a

>  <GNINA pK>  (478) 
nan

>  <gnina_score_min>  (478) 
6.434

>  <tags>  (478) 
openbind_xx01zvns2b_c1_elab_nonasap_filtered_scored_top80percent,openbind_xx01zvns2b_c1_elab_chemspace_filtered_scored_top80percent,openbind_xx01zvns2b_c1_elab_chemspace_filtered_scored,openbind_xx01zvns2b_c1_elab_chemspace_filtered_scored_top40percent,openbind_xx01zvns2b_c1_elab_chemspace_filtered_scored_top20percent,openbind_xx01zvns2b_c1_elab_chemspace_filtered_scored_top60percent,openbind_xx01zvns2b_c1_elabs_filtered

>  <smiles>  (478) 
C[C@H]1CCc2nc3ccccc3c(C(=O)Nc3cc(C(F)(F)F)cc4cccnc34)c2C1

>  <subsites>  (478) 
1 - Z4590/B/203/1

>  <gnina_score>  (478) 
6.13

>  <HIPPO Pose ID>  (478) 
70433

>  <ref_mols>  (478) 
Z0917a,Z0852a

>  <energy_score>  (478) 
-13.547339

>  <inspiration_score>  (478) 
None

>  <smina_score_min>  (478) 
-7.278

>  <fragmenstein_error>  (478) 
nan

>  <name>  (478) 
P70433

$$$$
P70439
     RDKit          3D

 22 25  0  0  0  0  0  0  0  0999 V2000
   -6.4777    1.2523  -13.3146 N   0  0  0  0  0  0  0  0  0  0  0  0
   -6.4455    2.3860  -13.0958 C   0  0  0  0  0  0  0  0  0  0  0  0
   -6.3313    3.7609  -12.7874 C   0  0  0  0  0  0  0  0  0  0  0  0
   -5.2898    4.1727  -11.9615 C   0  0  0  0  0  0  0  0  0  0  0  0
   -5.1867    5.5249  -11.6219 C   0  0  0  0  0  0  0  0  0  0  0  0
   -4.1681    5.9984  -10.7821 C   0  0  0  0  0  0  0  0  0  0  0  0
   -4.1134    7.3483  -10.4740 C   0  0  0  0  0  0  0  0  0  0  0  0
   -5.0804    8.1664  -11.0205 C   0  0  0  0  0  0  0  0  0  0  0  0
   -6.0680    7.7291  -11.8318 N   0  0  0  0  0  0  0  0  0  0  0  0
   -6.1336    6.4303  -12.1342 C   0  0  0  0  0  0  0  0  0  0  0  0
   -7.1109    6.0136  -12.9416 N   0  0  0  0  0  0  0  0  0  0  0  0
   -7.2257    4.7070  -13.2744 C   0  0  0  0  0  0  0  0  0  0  0  0
   -8.2284    4.4186  -14.2083 N   0  0  0  0  0  0  0  0  0  0  0  0
   -7.7499    4.2555  -15.5999 C   0  0  1  0  0  0  0  0  0  0  0  0
   -8.9727    4.3546  -16.5519 C   0  0  0  0  0  0  0  0  0  0  0  0
   -8.6549    4.2922  -18.0642 C   0  0  0  0  0  0  0  0  0  0  0  0
   -7.2923    4.7995  -18.3294 C   0  0  0  0  0  0  0  0  0  0  0  0
   -6.6808    4.9569  -19.5367 N   0  0  0  0  0  0  0  0  0  0  0  0
   -5.4161    5.4219  -19.2873 C   0  0  0  0  0  0  0  0  0  0  0  0
   -5.1897    5.5789  -18.0014 N   0  0  0  0  0  0  0  0  0  0  0  0
   -6.3631    5.2081  -17.4098 C   0  0  0  0  0  0  0  0  0  0  0  0
   -6.6253    5.2522  -15.9658 C   0  0  0  0  0  0  0  0  0  0  0  0
  1  2  3  0
  2  3  1  0
  3  4  2  0
  4  5  1  0
  5  6  2  0
  6  7  1  0
  7  8  2  0
  8  9  1  0
  9 10  2  0
 10 11  1  0
 11 12  2  0
 12 13  1  0
 14 13  1  1
 14 15  1  0
 15 16  1  0
 16 17  1  0
 17 18  1  0
 18 19  1  0
 19 20  2  0
 20 21  1  0
 21 22  1  0
 12  3  1  0
 22 14  1  0
 10  5  1  0
 21 17  2  0
M  END
>  <fragmenstein_outcome>  (479) 
nan

>  <exports>  (479) 
['/opt/xchem-fragalysis-2/maxwin/openbind-hippo/xx01zvns2b/cycle_01/syndirella/elabs/openbind_xx01zvns2b_c1_elab_chemspace_filtered.sdf']

>  <Energy>  (479) 
nan

>  <alias>  (479) 
None

>  <fragmenstein_runtime>  (479) 
nan

>  <scratch_subdir>  (479) 
nan

>  <HIPPO Compound ID>  (479) 
142484

>  <rmsd(smina/fragmenstein)>  (479) 
1.555

>  <distance_score>  (479) 
1.19198

>  <orig_smiles>  (479) 
nan

>  <fragmenstein_mode>  (479) 
nan

>  <inchikey>  (479) 
BXPTUQSQBWQJRW-LBPRGKRZSA-N

>  <ref_pdb>  (479) 
Z0089a

>  <GNINA pK>  (479) 
nan

>  <gnina_score_min>  (479) 
5.563

>  <tags>  (479) 
openbind_xx01zvns2b_c1_elab_nonasap_filtered_scored_top80percent,openbind_xx01zvns2b_c1_elab_chemspace_filtered_scored_top80percent,openbind_xx01zvns2b_c1_elab_chemspace_filtered_scored,openbind_xx01zvns2b_c1_elab_chemspace_filtered_scored_top40percent,openbind_xx01zvns2b_c1_elab_chemspace_filtered_scored_top20percent,openbind_xx01zvns2b_c1_elab_chemspace_filtered_scored_top60percent,openbind_xx01zvns2b_c1_elabs_filtered

>  <smiles>  (479) 
N#Cc1cc2cccnc2nc1N[C@H]1CCc2[nH]cnc2C1

>  <subsites>  (479) 
1 - Z4590/B/203/1

>  <gnina_score>  (479) 
5.677

>  <HIPPO Pose ID>  (479) 
70439

>  <ref_mols>  (479) 
Z0719a,Z0089a

>  <energy_score>  (479) 
-9.550303

>  <inspiration_score>  (479) 
None

>  <smina_score_min>  (479) 
-7.354

>  <fragmenstein_error>  (479) 
nan

>  <name>  (479) 
P70439

$$$$
P70460
     RDKit          3D

 26 29  0  0  0  0  0  0  0  0999 V2000
   -4.0794    5.4768  -19.8611 C   0  0  0  0  0  0  0  0  0  0  0  0
   -5.1138    5.4796  -18.8059 C   0  0  0  0  0  0  0  0  0  0  0  0
   -6.1619    4.6794  -18.7284 N   0  0  0  0  0  0  0  0  0  0  0  0
   -6.7477    4.9664  -17.5306 C   0  0  0  0  0  0  0  0  0  0  0  0
   -6.0314    5.9290  -16.8628 C   0  0  0  0  0  0  0  0  0  0  0  0
   -5.1070    6.3713  -17.7578 N   0  0  0  0  0  0  0  0  0  0  0  0
   -4.4012    7.6376  -17.7060 C   0  0  0  0  0  0  0  0  0  0  0  0
   -4.7915    8.5801  -18.8530 C   0  0  0  0  0  0  0  0  0  0  0  0
   -6.2077    8.6663  -19.0406 O   0  0  0  0  0  0  0  0  0  0  0  0
   -6.1985    6.3135  -15.4422 C   0  0  0  0  0  0  0  0  0  0  0  0
   -7.4799    5.6865  -14.8701 C   0  0  0  0  0  0  0  0  0  0  0  0
   -7.6801    4.2333  -15.3385 C   0  0  2  0  0  0  0  0  0  0  0  0
   -6.5083    3.4277  -14.9689 N   0  0  0  0  0  0  0  0  0  0  0  0
   -5.9324    3.1208  -13.7737 C   0  0  0  0  0  0  0  0  0  0  0  0
   -4.6356    2.7413  -13.8969 N   0  0  0  0  0  0  0  0  0  0  0  0
   -3.9184    2.3550  -12.8402 C   0  0  0  0  0  0  0  0  0  0  0  0
   -2.6322    2.0357  -13.0222 N   0  0  0  0  0  0  0  0  0  0  0  0
   -1.8930    1.6764  -11.9503 C   0  0  0  0  0  0  0  0  0  0  0  0
   -2.3816    1.6132  -10.6610 C   0  0  0  0  0  0  0  0  0  0  0  0
   -3.7152    1.9341  -10.4654 C   0  0  0  0  0  0  0  0  0  0  0  0
   -4.4970    2.3211  -11.5637 C   0  0  0  0  0  0  0  0  0  0  0  0
   -5.8318    2.7111  -11.4237 C   0  0  0  0  0  0  0  0  0  0  0  0
   -6.5477    3.1389  -12.5433 C   0  0  0  0  0  0  0  0  0  0  0  0
   -7.8434    3.6861  -12.3615 C   0  0  0  0  0  0  0  0  0  0  0  0
   -8.8287    4.2565  -12.1444 N   0  0  0  0  0  0  0  0  0  0  0  0
   -7.8908    4.2598  -16.8984 C   0  0  0  0  0  0  0  0  0  0  0  0
  1  2  1  0
  2  3  2  0
  3  4  1  0
  4  5  2  0
  5  6  1  0
  6  7  1  0
  7  8  1  0
  8  9  1  0
  5 10  1  0
 10 11  1  0
 11 12  1  0
 12 13  1  6
 13 14  1  0
 14 15  2  0
 15 16  1  0
 16 17  2  0
 17 18  1  0
 18 19  2  0
 19 20  1  0
 20 21  2  0
 21 22  1  0
 22 23  2  0
 23 24  1  0
 24 25  3  0
 12 26  1  0
  6  2  1  0
 23 14  1  0
 26  4  1  0
 21 16  1  0
M  END
>  <fragmenstein_outcome>  (480) 
nan

>  <exports>  (480) 
['/opt/xchem-fragalysis-2/maxwin/openbind-hippo/xx01zvns2b/cycle_01/syndirella/elabs/openbind_xx01zvns2b_c1_elab_chemspace_filtered.sdf']

>  <Energy>  (480) 
nan

>  <alias>  (480) 
None

>  <fragmenstein_runtime>  (480) 
nan

>  <scratch_subdir>  (480) 
nan

>  <HIPPO Compound ID>  (480) 
142501

>  <rmsd(smina/fragmenstein)>  (480) 
1.333

>  <distance_score>  (480) 
1.794543

>  <orig_smiles>  (480) 
nan

>  <fragmenstein_mode>  (480) 
nan

>  <inchikey>  (480) 
ZHHHHLUWYMEEHU-HNNXBMFYSA-N

>  <ref_pdb>  (480) 
Z0089a

>  <GNINA pK>  (480) 
nan

>  <gnina_score_min>  (480) 
5.141

>  <tags>  (480) 
openbind_xx01zvns2b_c1_elab_nonasap_filtered_scored_top80percent,openbind_xx01zvns2b_c1_elab_chemspace_filtered_scored_top80percent,openbind_xx01zvns2b_c1_elab_chemspace_filtered_scored,openbind_xx01zvns2b_c1_elab_chemspace_filtered_scored_top40percent,openbind_xx01zvns2b_c1_elab_chemspace_filtered_scored_top20percent,openbind_xx01zvns2b_c1_elab_chemspace_filtered_scored_top60percent,openbind_xx01zvns2b_c1_elabs_filtered

>  <smiles>  (480) 
Cc1nc2c(n1CCO)CC[C@H](Nc1nc3ncccc3cc1C#N)C2

>  <subsites>  (480) 
1 - Z4590/B/203/1

>  <gnina_score>  (480) 
5.626

>  <HIPPO Pose ID>  (480) 
70460

>  <ref_mols>  (480) 
Z0719a,Z0089a

>  <energy_score>  (480) 
-33.999995

>  <inspiration_score>  (480) 
None

>  <smina_score_min>  (480) 
-6.292

>  <fragmenstein_error>  (480) 
nan

>  <name>  (480) 
P70460

$$$$
P70470
     RDKit          3D

 24 26  0  0  0  0  0  0  0  0999 V2000
   -9.2041    3.6834   -6.0277 C   0  0  0  0  0  0  0  0  0  0  0  0
   -8.6555    3.5083   -7.4092 C   0  0  0  0  0  0  0  0  0  0  0  0
   -8.3514    2.2336   -7.7164 N   0  0  0  0  0  0  0  0  0  0  0  0
   -7.7958    2.0123   -8.9108 C   0  0  0  0  0  0  0  0  0  0  0  0
   -7.6388    2.9823   -9.8802 C   0  0  0  0  0  0  0  0  0  0  0  0
   -7.9710    4.3090   -9.5833 C   0  0  0  0  0  0  0  0  0  0  0  0
   -7.7989    5.2627  -10.6292 N   0  0  0  0  0  0  0  0  0  0  0  0
   -8.2335    6.5675  -10.7182 C   0  0  0  0  0  0  0  0  0  0  0  0
   -7.7346    7.0890  -11.8857 C   0  0  0  0  0  0  0  0  0  0  0  0
   -7.0655    6.0206  -12.4951 C   0  0  0  0  0  0  0  0  0  0  0  0
   -6.4192    6.0517  -13.6874 N   0  0  0  0  0  0  0  0  0  0  0  0
   -6.0393    7.2452  -14.5921 C   0  0  0  0  0  0  0  0  0  0  0  0
   -6.2903    8.3817  -14.4913 O   0  0  0  0  0  0  0  0  0  0  0  0
   -5.2613    6.7495  -15.8111 C   0  0  1  0  0  0  0  0  0  0  0  0
   -4.0471    5.8636  -15.5648 C   0  0  0  0  0  0  0  0  0  0  0  0
   -3.2194    5.8242  -16.8454 C   0  0  0  0  0  0  0  0  0  0  0  0
   -4.0306    5.9759  -18.1258 C   0  0  0  0  0  0  0  0  0  0  0  0
   -3.4781    6.3040  -19.1730 O   0  0  0  0  0  0  0  0  0  0  0  0
   -5.3832    5.6942  -18.0328 N   0  0  0  0  0  0  0  0  0  0  0  0
   -6.1510    5.4881  -19.2440 C   0  0  0  0  0  0  0  0  0  0  0  0
   -6.1395    6.0530  -16.8407 C   0  0  0  0  0  0  0  0  0  0  0  0
   -7.1207    4.9123  -11.7674 N   0  0  0  0  0  0  0  0  0  0  0  0
   -8.4137    4.5915   -8.2819 C   0  0  0  0  0  0  0  0  0  0  0  0
   -8.4935    6.1814   -7.6071 Cl  0  0  0  0  0  0  0  0  0  0  0  0
  1  2  1  0
  2  3  2  0
  3  4  1  0
  4  5  2  0
  5  6  1  0
  6  7  1  0
  7  8  1  0
  8  9  2  0
  9 10  1  0
 10 11  1  0
 11 12  1  0
 12 13  2  0
 14 12  1  1
 14 15  1  0
 15 16  1  0
 16 17  1  0
 17 18  2  0
 17 19  1  0
 19 20  1  0
 19 21  1  0
 10 22  2  0
  6 23  2  0
 23 24  1  0
 23  2  1  0
 22  7  1  0
 21 14  1  0
M  END
>  <fragmenstein_outcome>  (481) 
nan

>  <exports>  (481) 
['/opt/xchem-fragalysis-2/maxwin/openbind-hippo/xx01zvns2b/cycle_01/syndirella/elabs/openbind_xx01zvns2b_c1_elab_chemspace_filtered.sdf']

>  <Energy>  (481) 
nan

>  <alias>  (481) 
None

>  <fragmenstein_runtime>  (481) 
nan

>  <scratch_subdir>  (481) 
nan

>  <HIPPO Compound ID>  (481) 
142542

>  <rmsd(smina/fragmenstein)>  (481) 
1.736

>  <distance_score>  (481) 
1.820806

>  <orig_smiles>  (481) 
nan

>  <fragmenstein_mode>  (481) 
nan

>  <inchikey>  (481) 
NYMCURLDRFUOEP-NSHDSACASA-N

>  <ref_pdb>  (481) 
Z0788a

>  <GNINA pK>  (481) 
nan

>  <gnina_score_min>  (481) 
5.152

>  <tags>  (481) 
openbind_xx01zvns2b_c1_elab_nonasap_filtered_scored_top80percent,openbind_xx01zvns2b_c1_elab_chemspace_filtered_scored_top80percent,openbind_xx01zvns2b_c1_elab_chemspace_filtered_scored,openbind_xx01zvns2b_c1_elab_chemspace_filtered_scored_top40percent,openbind_xx01zvns2b_c1_elab_chemspace_filtered_scored_top20percent,openbind_xx01zvns2b_c1_elab_chemspace_filtered_scored_top60percent,openbind_xx01zvns2b_c1_elabs_filtered

>  <smiles>  (481) 
Cc1nccc(-n2ccc(NC(=O)[C@H]3CCC(=O)N(C)C3)n2)c1Cl

>  <subsites>  (481) 
1 - Z4590/B/203/1

>  <gnina_score>  (481) 
5.359

>  <HIPPO Pose ID>  (481) 
70470

>  <ref_mols>  (481) 
Z0788a,Z0969a

>  <energy_score>  (481) 
-41.446636

>  <inspiration_score>  (481) 
None

>  <smina_score_min>  (481) 
-6.594

>  <fragmenstein_error>  (481) 
nan

>  <name>  (481) 
P70470

$$$$
P70481
     RDKit          3D

 25 27  0  0  0  0  0  0  0  0999 V2000
   -4.1079    4.3347  -16.1692 C   0  0  0  0  0  0  0  0  0  0  0  0
   -3.9339    5.6674  -16.8899 C   0  0  1  0  0  0  0  0  0  0  0  0
   -3.5416    5.4260  -18.3679 C   0  0  0  0  0  0  0  0  0  0  0  0
   -4.6872    5.2870  -19.3647 C   0  0  0  0  0  0  0  0  0  0  0  0
   -4.5281    4.7899  -20.4770 O   0  0  0  0  0  0  0  0  0  0  0  0
   -5.8879    5.8559  -19.0385 N   0  0  0  0  0  0  0  0  0  0  0  0
   -6.2981    6.0697  -17.6738 C   0  0  0  0  0  0  0  0  0  0  0  0
   -5.1531    6.6100  -16.8306 C   0  0  1  0  0  0  0  0  0  0  0  0
   -5.6338    7.1591  -15.4616 C   0  0  0  0  0  0  0  0  0  0  0  0
   -5.5619    8.3096  -15.2582 O   0  0  0  0  0  0  0  0  0  0  0  0
   -6.2466    6.0222  -14.6010 N   0  0  0  0  0  0  0  0  0  0  0  0
   -6.7802    6.0505  -13.3462 C   0  0  0  0  0  0  0  0  0  0  0  0
   -7.0903    7.1804  -12.5691 C   0  0  0  0  0  0  0  0  0  0  0  0
   -7.6162    6.6794  -11.3982 C   0  0  0  0  0  0  0  0  0  0  0  0
   -7.5102    5.3066  -11.4716 N   0  0  0  0  0  0  0  0  0  0  0  0
   -7.6865    4.3560  -10.4254 C   0  0  0  0  0  0  0  0  0  0  0  0
   -7.2693    3.0463  -10.6486 C   0  0  0  0  0  0  0  0  0  0  0  0
   -7.2962    2.1514   -9.5979 C   0  0  0  0  0  0  0  0  0  0  0  0
   -7.7860    2.4323   -8.3827 N   0  0  0  0  0  0  0  0  0  0  0  0
   -8.2124    3.6935   -8.1674 C   0  0  0  0  0  0  0  0  0  0  0  0
   -8.6721    4.0126   -6.7722 C   0  0  0  0  0  0  0  0  0  0  0  0
   -9.7358    4.8650   -6.7845 F   0  0  0  0  0  0  0  0  0  0  0  0
   -7.7204    4.6632   -6.0362 F   0  0  0  0  0  0  0  0  0  0  0  0
   -8.1625    4.6955   -9.1547 C   0  0  0  0  0  0  0  0  0  0  0  0
   -7.0829    4.9219  -12.7114 N   0  0  0  0  0  0  0  0  0  0  0  0
  2  1  1  6
  2  3  1  0
  3  4  1  0
  4  5  2  0
  4  6  1  0
  6  7  1  0
  7  8  1  0
  8  9  1  1
  9 10  2  0
  9 11  1  0
 11 12  1  0
 12 13  1  0
 13 14  2  0
 14 15  1  0
 15 16  1  0
 16 17  2  0
 17 18  1  0
 18 19  2  0
 19 20  1  0
 20 21  1  0
 21 22  1  0
 21 23  1  0
 20 24  2  0
 15 25  1  0
  8  2  1  0
 25 12  2  0
 24 16  1  0
M  END
>  <fragmenstein_outcome>  (482) 
nan

>  <exports>  (482) 
['/opt/xchem-fragalysis-2/maxwin/openbind-hippo/xx01zvns2b/cycle_01/syndirella/elabs/openbind_xx01zvns2b_c1_elab_chemspace_filtered.sdf']

>  <Energy>  (482) 
nan

>  <alias>  (482) 
None

>  <fragmenstein_runtime>  (482) 
nan

>  <scratch_subdir>  (482) 
nan

>  <HIPPO Compound ID>  (482) 
142555

>  <rmsd(smina/fragmenstein)>  (482) 
1.246

>  <distance_score>  (482) 
1.689407

>  <orig_smiles>  (482) 
nan

>  <fragmenstein_mode>  (482) 
nan

>  <inchikey>  (482) 
FDHCIFTVMFZFGC-GXSJLCMTSA-N

>  <ref_pdb>  (482) 
Z0788a

>  <GNINA pK>  (482) 
nan

>  <gnina_score_min>  (482) 
5.291

>  <tags>  (482) 
openbind_xx01zvns2b_c1_elab_nonasap_filtered_scored_top80percent,openbind_xx01zvns2b_c1_elab_chemspace_filtered_scored_top80percent,openbind_xx01zvns2b_c1_elab_chemspace_filtered_scored,openbind_xx01zvns2b_c1_elab_chemspace_filtered_scored_top40percent,openbind_xx01zvns2b_c1_elab_chemspace_filtered_scored_top20percent,openbind_xx01zvns2b_c1_elab_chemspace_filtered_scored_top60percent,openbind_xx01zvns2b_c1_elabs_filtered

>  <smiles>  (482) 
C[C@H]1CC(=O)NC[C@H]1C(=O)Nc1ccn(-c2ccnc(C(F)F)c2)n1

>  <subsites>  (482) 
1 - Z4590/B/203/1

>  <gnina_score>  (482) 
5.12

>  <HIPPO Pose ID>  (482) 
70481

>  <ref_mols>  (482) 
Z0788a,Z0969a

>  <energy_score>  (482) 
-38.765056

>  <inspiration_score>  (482) 
None

>  <smina_score_min>  (482) 
-5.663

>  <fragmenstein_error>  (482) 
nan

>  <name>  (482) 
P70481

$$$$
P70486
     RDKit          3D

 25 27  0  0  0  0  0  0  0  0999 V2000
   -7.7848    4.7053  -18.7844 C   0  0  0  0  0  0  0  0  0  0  0  0
   -6.3323    5.0055  -19.1299 C   0  0  0  0  0  0  0  0  0  0  0  0
   -5.6363    5.7262  -18.0718 N   0  0  0  0  0  0  0  0  0  0  0  0
   -5.6304    5.0978  -16.7670 C   0  0  0  0  0  0  0  0  0  0  0  0
   -4.3642    5.3420  -15.9661 C   0  0  2  0  0  0  0  0  0  0  0  0
   -4.7204    4.9838  -14.5059 C   0  0  0  0  0  0  0  0  0  0  0  0
   -4.4524    3.9228  -14.0895 O   0  0  0  0  0  0  0  0  0  0  0  0
   -5.5108    6.1557  -13.8499 N   0  0  0  0  0  0  0  0  0  0  0  0
   -6.1752    6.2201  -12.6542 C   0  0  0  0  0  0  0  0  0  0  0  0
   -6.6232    7.3931  -12.0188 C   0  0  0  0  0  0  0  0  0  0  0  0
   -7.2804    6.9643  -10.8850 C   0  0  0  0  0  0  0  0  0  0  0  0
   -7.2609    5.5860  -10.9051 N   0  0  0  0  0  0  0  0  0  0  0  0
   -7.9115    4.6569  -10.0464 C   0  0  0  0  0  0  0  0  0  0  0  0
   -8.3672    3.4877  -10.6554 C   0  0  0  0  0  0  0  0  0  0  0  0
   -9.0763    2.5824   -9.8997 C   0  0  0  0  0  0  0  0  0  0  0  0
   -9.2624    2.6748   -8.5758 N   0  0  0  0  0  0  0  0  0  0  0  0
   -8.7583    3.7656   -7.9653 C   0  0  0  0  0  0  0  0  0  0  0  0
   -8.9282    3.7671   -6.4752 C   0  0  0  0  0  0  0  0  0  0  0  0
   -8.1413    4.8239   -8.6716 C   0  0  0  0  0  0  0  0  0  0  0  0
   -7.6545    6.2166   -7.7815 Cl  0  0  0  0  0  0  0  0  0  0  0  0
   -6.5710    5.1395  -11.9910 N   0  0  0  0  0  0  0  0  0  0  0  0
   -3.7244    6.6879  -16.2944 C   0  0  0  0  0  0  0  0  0  0  0  0
   -4.6820    7.6762  -16.9742 C   0  0  0  0  0  0  0  0  0  0  0  0
   -5.3916    7.0860  -18.1779 C   0  0  0  0  0  0  0  0  0  0  0  0
   -5.7391    7.8039  -19.1120 O   0  0  0  0  0  0  0  0  0  0  0  0
  1  2  1  0
  2  3  1  0
  3  4  1  0
  4  5  1  0
  5  6  1  1
  6  7  2  0
  6  8  1  0
  8  9  1  0
  9 10  1  0
 10 11  2  0
 11 12  1  0
 12 13  1  0
 13 14  2  0
 14 15  1  0
 15 16  2  0
 16 17  1  0
 17 18  1  0
 17 19  2  0
 19 20  1  0
 12 21  1  0
  5 22  1  0
 22 23  1  0
 23 24  1  0
 24 25  2  0
 24  3  1  0
 21  9  2  0
 19 13  1  0
M  END
>  <fragmenstein_outcome>  (483) 
nan

>  <exports>  (483) 
['/opt/xchem-fragalysis-2/maxwin/openbind-hippo/xx01zvns2b/cycle_01/syndirella/elabs/openbind_xx01zvns2b_c1_elab_chemspace_filtered.sdf']

>  <Energy>  (483) 
nan

>  <alias>  (483) 
None

>  <fragmenstein_runtime>  (483) 
nan

>  <scratch_subdir>  (483) 
nan

>  <HIPPO Compound ID>  (483) 
142558

>  <rmsd(smina/fragmenstein)>  (483) 
1.646

>  <distance_score>  (483) 
1.772359

>  <orig_smiles>  (483) 
nan

>  <fragmenstein_mode>  (483) 
nan

>  <inchikey>  (483) 
VDCZXRSELORQCZ-GFCCVEGCSA-N

>  <ref_pdb>  (483) 
Z0788a

>  <GNINA pK>  (483) 
nan

>  <gnina_score_min>  (483) 
5.227

>  <tags>  (483) 
openbind_xx01zvns2b_c1_elab_nonasap_filtered_scored_top80percent,openbind_xx01zvns2b_c1_elab_chemspace_filtered_scored_top80percent,openbind_xx01zvns2b_c1_elab_chemspace_filtered_scored,openbind_xx01zvns2b_c1_elab_chemspace_filtered_scored_top40percent,openbind_xx01zvns2b_c1_elab_chemspace_filtered_scored_top20percent,openbind_xx01zvns2b_c1_elab_chemspace_filtered_scored_top60percent,openbind_xx01zvns2b_c1_elabs_filtered

>  <smiles>  (483) 
CCN1C[C@H](C(=O)Nc2ccn(-c3ccnc(C)c3Cl)n2)CCC1=O

>  <subsites>  (483) 
1 - Z4590/B/203/1

>  <gnina_score>  (483) 
5.428

>  <HIPPO Pose ID>  (483) 
70486

>  <ref_mols>  (483) 
Z0788a,Z0969a

>  <energy_score>  (483) 
-35.449036

>  <inspiration_score>  (483) 
None

>  <smina_score_min>  (483) 
-6.441

>  <fragmenstein_error>  (483) 
nan

>  <name>  (483) 
P70486

$$$$
P70494
     RDKit          3D

 26 28  0  0  0  0  0  0  0  0999 V2000
   -7.7461    4.7338  -18.8008 C   0  0  0  0  0  0  0  0  0  0  0  0
   -6.3069    5.0202  -19.2113 C   0  0  0  0  0  0  0  0  0  0  0  0
   -5.5486    5.7017  -18.1714 N   0  0  0  0  0  0  0  0  0  0  0  0
   -5.4886    5.0314  -16.8926 C   0  0  0  0  0  0  0  0  0  0  0  0
   -4.1853    5.2356  -16.1402 C   0  0  2  0  0  0  0  0  0  0  0  0
   -4.5235    4.8167  -14.6946 C   0  0  0  0  0  0  0  0  0  0  0  0
   -4.3467    3.7095  -14.3560 O   0  0  0  0  0  0  0  0  0  0  0  0
   -5.1718    6.0124  -13.9363 N   0  0  0  0  0  0  0  0  0  0  0  0
   -5.7836    6.0614  -12.7167 C   0  0  0  0  0  0  0  0  0  0  0  0
   -5.9932    7.2058  -11.9239 C   0  0  0  0  0  0  0  0  0  0  0  0
   -6.6746    6.7528  -10.8136 C   0  0  0  0  0  0  0  0  0  0  0  0
   -6.9536    5.4230  -11.0414 N   0  0  0  0  0  0  0  0  0  0  0  0
   -7.7429    4.5444  -10.2606 C   0  0  0  0  0  0  0  0  0  0  0  0
   -8.3077    3.4383  -10.8813 C   0  0  0  0  0  0  0  0  0  0  0  0
   -9.0941    2.6006  -10.1225 C   0  0  0  0  0  0  0  0  0  0  0  0
   -9.2753    2.7132   -8.7958 N   0  0  0  0  0  0  0  0  0  0  0  0
   -8.6867    3.7659   -8.1905 C   0  0  0  0  0  0  0  0  0  0  0  0
   -8.8455    3.8767   -6.6987 C   0  0  0  0  0  0  0  0  0  0  0  0
   -9.9844    4.5417   -6.3328 F   0  0  0  0  0  0  0  0  0  0  0  0
   -7.8341    4.6097   -6.1557 F   0  0  0  0  0  0  0  0  0  0  0  0
   -7.9663    4.7441   -8.8983 C   0  0  0  0  0  0  0  0  0  0  0  0
   -6.3610    4.9920  -12.1806 N   0  0  0  0  0  0  0  0  0  0  0  0
   -3.5583    6.5925  -16.4477 C   0  0  0  0  0  0  0  0  0  0  0  0
   -4.5478    7.6080  -17.0423 C   0  0  0  0  0  0  0  0  0  0  0  0
   -5.3122    7.0655  -18.2360 C   0  0  0  0  0  0  0  0  0  0  0  0
   -5.7036    7.8185  -19.1238 O   0  0  0  0  0  0  0  0  0  0  0  0
  1  2  1  0
  2  3  1  0
  3  4  1  0
  4  5  1  0
  5  6  1  1
  6  7  2  0
  6  8  1  0
  8  9  1  0
  9 10  1  0
 10 11  2  0
 11 12  1  0
 12 13  1  0
 13 14  2  0
 14 15  1  0
 15 16  2  0
 16 17  1  0
 17 18  1  0
 18 19  1  0
 18 20  1  0
 17 21  2  0
 12 22  1  0
  5 23  1  0
 23 24  1  0
 24 25  1  0
 25 26  2  0
 25  3  1  0
 22  9  2  0
 21 13  1  0
M  END
>  <fragmenstein_outcome>  (484) 
nan

>  <exports>  (484) 
['/opt/xchem-fragalysis-2/maxwin/openbind-hippo/xx01zvns2b/cycle_01/syndirella/elabs/openbind_xx01zvns2b_c1_elab_chemspace_filtered.sdf']

>  <Energy>  (484) 
nan

>  <alias>  (484) 
None

>  <fragmenstein_runtime>  (484) 
nan

>  <scratch_subdir>  (484) 
nan

>  <HIPPO Compound ID>  (484) 
142569

>  <rmsd(smina/fragmenstein)>  (484) 
2.165

>  <distance_score>  (484) 
1.60596

>  <orig_smiles>  (484) 
nan

>  <fragmenstein_mode>  (484) 
nan

>  <inchikey>  (484) 
OEIRBRXEFRABAI-LLVKDONJSA-N

>  <ref_pdb>  (484) 
Z0788a

>  <GNINA pK>  (484) 
nan

>  <gnina_score_min>  (484) 
5.209

>  <tags>  (484) 
openbind_xx01zvns2b_c1_elab_nonasap_filtered_scored_top80percent,openbind_xx01zvns2b_c1_elab_chemspace_filtered_scored_top80percent,openbind_xx01zvns2b_c1_elab_chemspace_filtered_scored,openbind_xx01zvns2b_c1_elab_chemspace_filtered_scored_top40percent,openbind_xx01zvns2b_c1_elab_chemspace_filtered_scored_top20percent,openbind_xx01zvns2b_c1_elab_chemspace_filtered_scored_top60percent,openbind_xx01zvns2b_c1_elabs_filtered

>  <smiles>  (484) 
CCN1C[C@H](C(=O)Nc2ccn(-c3ccnc(C(F)F)c3)n2)CCC1=O

>  <subsites>  (484) 
1 - Z4590/B/203/1

>  <gnina_score>  (484) 
5.316

>  <HIPPO Pose ID>  (484) 
70494

>  <ref_mols>  (484) 
Z0788a,Z0969a

>  <energy_score>  (484) 
-31.222734

>  <inspiration_score>  (484) 
None

>  <smina_score_min>  (484) 
-6.797

>  <fragmenstein_error>  (484) 
nan

>  <name>  (484) 
P70494

$$$$
P70496
     RDKit          3D

 26 28  0  0  0  0  0  0  0  0999 V2000
   -3.0454    6.4043  -14.5582 C   0  0  0  0  0  0  0  0  0  0  0  0
   -3.9357    5.9305  -15.7074 C   0  0  2  0  0  0  0  0  0  0  0  0
   -3.1206    5.8605  -17.0073 C   0  0  0  0  0  0  0  0  0  0  0  0
   -3.9476    6.0385  -18.2696 C   0  0  0  0  0  0  0  0  0  0  0  0
   -3.4284    6.4173  -19.3148 O   0  0  0  0  0  0  0  0  0  0  0  0
   -5.2863    5.7083  -18.1507 N   0  0  0  0  0  0  0  0  0  0  0  0
   -6.0490    5.4562  -19.3549 C   0  0  0  0  0  0  0  0  0  0  0  0
   -6.0349    6.2062  -17.0094 C   0  0  0  0  0  0  0  0  0  0  0  0
   -5.1340    6.8590  -15.9622 C   0  0  1  0  0  0  0  0  0  0  0  0
   -5.9375    7.3421  -14.7529 C   0  0  0  0  0  0  0  0  0  0  0  0
   -6.1174    8.4829  -14.5804 O   0  0  0  0  0  0  0  0  0  0  0  0
   -6.4059    6.1198  -13.9339 N   0  0  0  0  0  0  0  0  0  0  0  0
   -7.0698    6.0527  -12.7564 C   0  0  0  0  0  0  0  0  0  0  0  0
   -7.6691    7.1065  -12.0505 C   0  0  0  0  0  0  0  0  0  0  0  0
   -8.1377    6.5286  -10.8947 C   0  0  0  0  0  0  0  0  0  0  0  0
   -7.7807    5.1984  -10.9427 N   0  0  0  0  0  0  0  0  0  0  0  0
   -7.8972    4.2226   -9.9235 C   0  0  0  0  0  0  0  0  0  0  0  0
   -7.4323    2.9334  -10.1645 C   0  0  0  0  0  0  0  0  0  0  0  0
   -7.4864    2.0089   -9.1403 C   0  0  0  0  0  0  0  0  0  0  0  0
   -8.0204    2.2508   -7.9351 N   0  0  0  0  0  0  0  0  0  0  0  0
   -8.4654    3.5021   -7.7058 C   0  0  0  0  0  0  0  0  0  0  0  0
   -8.9973    3.8039   -6.3359 C   0  0  0  0  0  0  0  0  0  0  0  0
   -8.0664    4.3793   -5.5165 F   0  0  0  0  0  0  0  0  0  0  0  0
  -10.0055    4.7225   -6.4066 F   0  0  0  0  0  0  0  0  0  0  0  0
   -8.4035    4.5248   -8.6632 C   0  0  0  0  0  0  0  0  0  0  0  0
   -7.1738    4.8946  -12.1198 N   0  0  0  0  0  0  0  0  0  0  0  0
  2  1  1  1
  2  3  1  0
  3  4  1  0
  4  5  2  0
  4  6  1  0
  6  7  1  0
  6  8  1  0
  8  9  1  0
  9 10  1  1
 10 11  2  0
 10 12  1  0
 12 13  1  0
 13 14  1  0
 14 15  2  0
 15 16  1  0
 16 17  1  0
 17 18  2  0
 18 19  1  0
 19 20  2  0
 20 21  1  0
 21 22  1  0
 22 23  1  0
 22 24  1  0
 21 25  2  0
 16 26  1  0
  9  2  1  0
 26 13  2  0
 25 17  1  0
M  END
>  <fragmenstein_outcome>  (485) 
nan

>  <exports>  (485) 
['/opt/xchem-fragalysis-2/maxwin/openbind-hippo/xx01zvns2b/cycle_01/syndirella/elabs/openbind_xx01zvns2b_c1_elab_chemspace_filtered.sdf']

>  <Energy>  (485) 
nan

>  <alias>  (485) 
None

>  <fragmenstein_runtime>  (485) 
nan

>  <scratch_subdir>  (485) 
nan

>  <HIPPO Compound ID>  (485) 
142570

>  <rmsd(smina/fragmenstein)>  (485) 
1.922

>  <distance_score>  (485) 
1.69685

>  <orig_smiles>  (485) 
nan

>  <fragmenstein_mode>  (485) 
nan

>  <inchikey>  (485) 
KAEXQPGDKNIVPX-ZYHUDNBSSA-N

>  <ref_pdb>  (485) 
Z0788a

>  <GNINA pK>  (485) 
nan

>  <gnina_score_min>  (485) 
5.151

>  <tags>  (485) 
openbind_xx01zvns2b_c1_elab_nonasap_filtered_scored_top80percent,openbind_xx01zvns2b_c1_elab_chemspace_filtered_scored_top80percent,openbind_xx01zvns2b_c1_elab_chemspace_filtered_scored,openbind_xx01zvns2b_c1_elab_chemspace_filtered_scored_top40percent,openbind_xx01zvns2b_c1_elab_chemspace_filtered_scored_top20percent,openbind_xx01zvns2b_c1_elab_chemspace_filtered_scored_top60percent,openbind_xx01zvns2b_c1_elabs_filtered

>  <smiles>  (485) 
C[C@@H]1CC(=O)N(C)C[C@H]1C(=O)Nc1ccn(-c2ccnc(C(F)F)c2)n1

>  <subsites>  (485) 
1 - Z4590/B/203/1

>  <gnina_score>  (485) 
5.42

>  <HIPPO Pose ID>  (485) 
70496

>  <ref_mols>  (485) 
Z0788a,Z0969a

>  <energy_score>  (485) 
-72.583177

>  <inspiration_score>  (485) 
None

>  <smina_score_min>  (485) 
-6.534

>  <fragmenstein_error>  (485) 
nan

>  <name>  (485) 
P70496

$$$$
P70503
     RDKit          3D

 26 28  0  0  0  0  0  0  0  0999 V2000
   -8.8837    3.5397   -6.3043 C   0  0  0  0  0  0  0  0  0  0  0  0
   -8.7957    3.6097   -7.7993 C   0  0  0  0  0  0  0  0  0  0  0  0
   -9.2629    2.5147   -8.4293 N   0  0  0  0  0  0  0  0  0  0  0  0
   -9.1867    2.5054   -9.7651 C   0  0  0  0  0  0  0  0  0  0  0  0
   -8.6149    3.4981  -10.5238 C   0  0  0  0  0  0  0  0  0  0  0  0
   -8.1798    4.6610   -9.8888 C   0  0  0  0  0  0  0  0  0  0  0  0
   -7.6635    5.6727  -10.7441 N   0  0  0  0  0  0  0  0  0  0  0  0
   -7.5770    7.0347  -10.5592 C   0  0  0  0  0  0  0  0  0  0  0  0
   -6.9099    7.5514  -11.6450 C   0  0  0  0  0  0  0  0  0  0  0  0
   -6.6620    6.4480  -12.4731 C   0  0  0  0  0  0  0  0  0  0  0  0
   -5.9868    6.4370  -13.6510 N   0  0  0  0  0  0  0  0  0  0  0  0
   -5.3210    7.5908  -14.4386 C   0  0  0  0  0  0  0  0  0  0  0  0
   -5.1829    8.7171  -14.1597 O   0  0  0  0  0  0  0  0  0  0  0  0
   -4.7561    7.0528  -15.7564 C   0  0  1  0  0  0  0  0  0  0  0  0
   -3.7351    5.9217  -15.6494 C   0  0  0  0  0  0  0  0  0  0  0  0
   -3.0461    5.7954  -17.0084 C   0  0  0  0  0  0  0  0  0  0  0  0
   -3.9838    6.1313  -18.1615 C   0  0  0  0  0  0  0  0  0  0  0  0
   -3.5704    6.5832  -19.2211 O   0  0  0  0  0  0  0  0  0  0  0  0
   -5.3194    5.8476  -17.8698 N   0  0  0  0  0  0  0  0  0  0  0  0
   -6.2776    5.5457  -18.9615 C   0  0  0  0  0  0  0  0  0  0  0  0
   -7.4967    4.7901  -18.4133 C   0  0  0  0  0  0  0  0  0  0  0  0
   -5.6450    4.7073  -20.0755 C   0  0  0  0  0  0  0  0  0  0  0  0
   -5.8344    6.6568  -16.7676 C   0  0  0  0  0  0  0  0  0  0  0  0
   -7.1740    5.3291  -11.9754 N   0  0  0  0  0  0  0  0  0  0  0  0
   -8.2906    4.7351   -8.4898 C   0  0  0  0  0  0  0  0  0  0  0  0
   -7.7964    6.0933   -7.5506 Cl  0  0  0  0  0  0  0  0  0  0  0  0
  1  2  1  0
  2  3  2  0
  3  4  1  0
  4  5  2  0
  5  6  1  0
  6  7  1  0
  7  8  1  0
  8  9  2  0
  9 10  1  0
 10 11  1  0
 11 12  1  0
 12 13  2  0
 14 12  1  1
 14 15  1  0
 15 16  1  0
 16 17  1  0
 17 18  2  0
 17 19  1  0
 19 20  1  0
 20 21  1  0
 20 22  1  0
 19 23  1  0
 10 24  2  0
  6 25  2  0
 25 26  1  0
 25  2  1  0
 24  7  1  0
 23 14  1  0
M  END
>  <fragmenstein_outcome>  (486) 
nan

>  <exports>  (486) 
['/opt/xchem-fragalysis-2/maxwin/openbind-hippo/xx01zvns2b/cycle_01/syndirella/elabs/openbind_xx01zvns2b_c1_elab_chemspace_filtered.sdf']

>  <Energy>  (486) 
nan

>  <alias>  (486) 
None

>  <fragmenstein_runtime>  (486) 
nan

>  <scratch_subdir>  (486) 
nan

>  <HIPPO Compound ID>  (486) 
142575

>  <rmsd(smina/fragmenstein)>  (486) 
2.62

>  <distance_score>  (486) 
1.580931

>  <orig_smiles>  (486) 
nan

>  <fragmenstein_mode>  (486) 
nan

>  <inchikey>  (486) 
ZHXMIGWDBDMNTF-ZDUSSCGKSA-N

>  <ref_pdb>  (486) 
Z0788a

>  <GNINA pK>  (486) 
nan

>  <gnina_score_min>  (486) 
5.19

>  <tags>  (486) 
openbind_xx01zvns2b_c1_elab_nonasap_filtered_scored_top80percent,openbind_xx01zvns2b_c1_elab_chemspace_filtered_scored_top80percent,openbind_xx01zvns2b_c1_elab_chemspace_filtered_scored,openbind_xx01zvns2b_c1_elab_chemspace_filtered_scored_top40percent,openbind_xx01zvns2b_c1_elab_chemspace_filtered_scored_top20percent,openbind_xx01zvns2b_c1_elab_chemspace_filtered_scored_top60percent,openbind_xx01zvns2b_c1_elabs_filtered

>  <smiles>  (486) 
Cc1nccc(-n2ccc(NC(=O)[C@H]3CCC(=O)N(C(C)C)C3)n2)c1Cl

>  <subsites>  (486) 
1 - Z4590/B/203/1

>  <gnina_score>  (486) 
5.554

>  <HIPPO Pose ID>  (486) 
70503

>  <ref_mols>  (486) 
Z0788a,Z0969a

>  <energy_score>  (486) 
-14.952639

>  <inspiration_score>  (486) 
None

>  <smina_score_min>  (486) 
-6.689

>  <fragmenstein_error>  (486) 
nan

>  <name>  (486) 
P70503

$$$$
P70508
     RDKit          3D

 26 28  0  0  0  0  0  0  0  0999 V2000
   -8.6655    5.2918   -6.6012 C   0  0  0  0  0  0  0  0  0  0  0  0
   -8.4118    4.3905   -7.7597 C   0  0  0  0  0  0  0  0  0  0  0  0
   -8.1041    4.9060   -9.0302 C   0  0  0  0  0  0  0  0  0  0  0  0
   -7.9151    3.9747  -10.0333 C   0  0  0  0  0  0  0  0  0  0  0  0
   -7.8027    4.2740  -11.4104 N   0  0  0  0  0  0  0  0  0  0  0  0
   -8.3452    3.4571  -12.3718 C   0  0  0  0  0  0  0  0  0  0  0  0
   -7.7789    3.7918  -13.5604 C   0  0  0  0  0  0  0  0  0  0  0  0
   -6.9326    4.8691  -13.2525 C   0  0  0  0  0  0  0  0  0  0  0  0
   -6.1169    5.3443  -14.2358 N   0  0  0  0  0  0  0  0  0  0  0  0
   -5.2248    6.6104  -14.2789 C   0  0  0  0  0  0  0  0  0  0  0  0
   -4.9914    7.3999  -13.4513 O   0  0  0  0  0  0  0  0  0  0  0  0
   -4.6129    6.6810  -15.6918 C   0  0  1  0  0  0  0  0  0  0  0  0
   -3.7113    5.4736  -16.0172 C   0  0  0  0  0  0  0  0  0  0  0  0
   -3.2267    5.4838  -17.4692 C   0  0  0  0  0  0  0  0  0  0  0  0
   -4.0974    6.3532  -18.3573 C   0  0  0  0  0  0  0  0  0  0  0  0
   -3.6279    7.1143  -19.1959 O   0  0  0  0  0  0  0  0  0  0  0  0
   -5.4406    6.3499  -18.0530 N   0  0  0  0  0  0  0  0  0  0  0  0
   -6.1251    5.1166  -18.3159 C   0  0  0  0  0  0  0  0  0  0  0  0
   -7.4622    5.2957  -18.2734 F   0  0  0  0  0  0  0  0  0  0  0  0
   -5.7912    4.5909  -19.5094 F   0  0  0  0  0  0  0  0  0  0  0  0
   -5.8297    4.2183  -17.3507 F   0  0  0  0  0  0  0  0  0  0  0  0
   -5.7001    6.9476  -16.7627 C   0  0  0  0  0  0  0  0  0  0  0  0
   -7.0385    5.2543  -11.9710 N   0  0  0  0  0  0  0  0  0  0  0  0
   -7.9091    2.6159   -9.7061 C   0  0  0  0  0  0  0  0  0  0  0  0
   -8.2023    2.2050   -8.4314 C   0  0  0  0  0  0  0  0  0  0  0  0
   -8.4816    3.0717   -7.4595 N   0  0  0  0  0  0  0  0  0  0  0  0
  1  2  1  0
  2  3  2  0
  3  4  1  0
  4  5  1  0
  5  6  1  0
  6  7  2  0
  7  8  1  0
  8  9  1  0
  9 10  1  0
 10 11  2  0
 12 10  1  1
 12 13  1  0
 13 14  1  0
 14 15  1  0
 15 16  2  0
 15 17  1  0
 17 18  1  0
 18 19  1  0
 18 20  1  0
 18 21  1  0
 17 22  1  0
  8 23  2  0
  4 24  2  0
 24 25  1  0
 25 26  2  0
 26  2  1  0
 23  5  1  0
 22 12  1  0
M  END
>  <fragmenstein_outcome>  (487) 
nan

>  <exports>  (487) 
['/opt/xchem-fragalysis-2/maxwin/openbind-hippo/xx01zvns2b/cycle_01/syndirella/elabs/openbind_xx01zvns2b_c1_elab_chemspace_filtered.sdf']

>  <Energy>  (487) 
nan

>  <alias>  (487) 
None

>  <fragmenstein_runtime>  (487) 
nan

>  <scratch_subdir>  (487) 
nan

>  <HIPPO Compound ID>  (487) 
142581

>  <rmsd(smina/fragmenstein)>  (487) 
1.657

>  <distance_score>  (487) 
1.746592

>  <orig_smiles>  (487) 
nan

>  <fragmenstein_mode>  (487) 
nan

>  <inchikey>  (487) 
FSRDZPXVDLSUKT-NSHDSACASA-N

>  <ref_pdb>  (487) 
Z0788a

>  <GNINA pK>  (487) 
nan

>  <gnina_score_min>  (487) 
5.26

>  <tags>  (487) 
openbind_xx01zvns2b_c1_elab_nonasap_filtered_scored_top80percent,openbind_xx01zvns2b_c1_elab_chemspace_filtered_scored_top80percent,openbind_xx01zvns2b_c1_elab_chemspace_filtered_scored,openbind_xx01zvns2b_c1_elab_chemspace_filtered_scored_top40percent,openbind_xx01zvns2b_c1_elab_chemspace_filtered_scored_top20percent,openbind_xx01zvns2b_c1_elab_chemspace_filtered_scored_top60percent,openbind_xx01zvns2b_c1_elabs_filtered

>  <smiles>  (487) 
Cc1cc(-n2ccc(NC(=O)[C@H]3CCC(=O)N(C(F)(F)F)C3)n2)ccn1

>  <subsites>  (487) 
1 - Z4590/B/203/1

>  <gnina_score>  (487) 
5.225

>  <HIPPO Pose ID>  (487) 
70508

>  <ref_mols>  (487) 
Z0788a,Z0969a

>  <energy_score>  (487) 
-0.847775

>  <inspiration_score>  (487) 
None

>  <smina_score_min>  (487) 
-6.774

>  <fragmenstein_error>  (487) 
nan

>  <name>  (487) 
P70508

$$$$
P70514
     RDKit          3D

 26 28  0  0  0  0  0  0  0  0999 V2000
   -9.2334    4.0414   -6.3736 C   0  0  0  0  0  0  0  0  0  0  0  0
   -8.6739    3.6977   -7.7152 C   0  0  0  0  0  0  0  0  0  0  0  0
   -8.4849    4.6695   -8.7060 C   0  0  0  0  0  0  0  0  0  0  0  0
   -7.8971    4.2836   -9.9146 C   0  0  0  0  0  0  0  0  0  0  0  0
   -7.6706    5.2000  -10.9761 N   0  0  0  0  0  0  0  0  0  0  0  0
   -8.1038    6.5046  -11.0735 C   0  0  0  0  0  0  0  0  0  0  0  0
   -7.5554    7.0235  -12.2218 C   0  0  0  0  0  0  0  0  0  0  0  0
   -6.7862    5.9782  -12.7599 C   0  0  0  0  0  0  0  0  0  0  0  0
   -5.9693    6.0436  -13.8451 N   0  0  0  0  0  0  0  0  0  0  0  0
   -5.6573    7.2253  -14.8014 C   0  0  0  0  0  0  0  0  0  0  0  0
   -6.1121    8.2999  -14.8496 O   0  0  0  0  0  0  0  0  0  0  0  0
   -4.4832    6.7988  -15.7072 C   0  0  2  0  0  0  0  0  0  0  0  0
   -3.7947    8.0484  -16.2708 C   0  0  0  0  0  0  0  0  0  0  0  0
   -4.4090    8.5721  -17.4693 N   0  0  0  0  0  0  0  0  0  0  0  0
   -5.2723    7.9303  -18.2988 C   0  0  0  0  0  0  0  0  0  0  0  0
   -5.7753    8.5416  -19.2405 O   0  0  0  0  0  0  0  0  0  0  0  0
   -5.6510    6.5081  -17.9687 C   0  0  0  0  0  0  0  0  0  0  0  0
   -4.8675    5.8281  -16.8443 C   0  0  1  0  0  0  0  0  0  0  0  0
   -3.6128    5.1043  -17.3305 C   0  0  0  0  0  0  0  0  0  0  0  0
   -3.1920    4.2864  -16.3329 F   0  0  0  0  0  0  0  0  0  0  0  0
   -2.5942    5.9408  -17.6066 F   0  0  0  0  0  0  0  0  0  0  0  0
   -3.8193    4.3366  -18.4151 F   0  0  0  0  0  0  0  0  0  0  0  0
   -6.8845    4.8642  -12.0412 N   0  0  0  0  0  0  0  0  0  0  0  0
   -7.4778    2.9649  -10.0611 C   0  0  0  0  0  0  0  0  0  0  0  0
   -7.6724    2.0913   -9.0089 C   0  0  0  0  0  0  0  0  0  0  0  0
   -8.2798    2.4215   -7.8592 N   0  0  0  0  0  0  0  0  0  0  0  0
  1  2  1  0
  2  3  2  0
  3  4  1  0
  4  5  1  0
  5  6  1  0
  6  7  2  0
  7  8  1  0
  8  9  1  0
  9 10  1  0
 10 11  2  0
 12 10  1  6
 12 13  1  0
 13 14  1  0
 14 15  1  0
 15 16  2  0
 15 17  1  0
 17 18  1  0
 18 19  1  6
 19 20  1  0
 19 21  1  0
 19 22  1  0
  8 23  2  0
  4 24  2  0
 24 25  1  0
 25 26  2  0
 26  2  1  0
 23  5  1  0
 18 12  1  0
M  END
>  <fragmenstein_outcome>  (488) 
nan

>  <exports>  (488) 
['/opt/xchem-fragalysis-2/maxwin/openbind-hippo/xx01zvns2b/cycle_01/syndirella/elabs/openbind_xx01zvns2b_c1_elab_chemspace_filtered.sdf']

>  <Energy>  (488) 
nan

>  <alias>  (488) 
None

>  <fragmenstein_runtime>  (488) 
nan

>  <scratch_subdir>  (488) 
nan

>  <HIPPO Compound ID>  (488) 
142583

>  <rmsd(smina/fragmenstein)>  (488) 
2.059

>  <distance_score>  (488) 
1.737137

>  <orig_smiles>  (488) 
nan

>  <fragmenstein_mode>  (488) 
nan

>  <inchikey>  (488) 
KJEAMZGZIYXVPY-VXGBXAGGSA-N

>  <ref_pdb>  (488) 
Z0788a

>  <GNINA pK>  (488) 
nan

>  <gnina_score_min>  (488) 
5.198

>  <tags>  (488) 
openbind_xx01zvns2b_c1_elab_nonasap_filtered_scored_top80percent,openbind_xx01zvns2b_c1_elab_chemspace_filtered_scored_top80percent,openbind_xx01zvns2b_c1_elab_chemspace_filtered_scored,openbind_xx01zvns2b_c1_elab_chemspace_filtered_scored_top40percent,openbind_xx01zvns2b_c1_elab_chemspace_filtered_scored_top20percent,openbind_xx01zvns2b_c1_elab_chemspace_filtered_scored_top60percent,openbind_xx01zvns2b_c1_elabs_filtered

>  <smiles>  (488) 
Cc1cc(-n2ccc(NC(=O)[C@@H]3CNC(=O)C[C@H]3C(F)(F)F)n2)ccn1

>  <subsites>  (488) 
1 - Z4590/B/203/1

>  <gnina_score>  (488) 
5.304

>  <HIPPO Pose ID>  (488) 
70514

>  <ref_mols>  (488) 
Z0788a,Z0969a

>  <energy_score>  (488) 
-61.460093

>  <inspiration_score>  (488) 
None

>  <smina_score_min>  (488) 
-6.079

>  <fragmenstein_error>  (488) 
nan

>  <name>  (488) 
P70514

$$$$
P70516
     RDKit          3D

 27 29  0  0  0  0  0  0  0  0999 V2000
   -9.1123    3.8057   -6.2829 C   0  0  0  0  0  0  0  0  0  0  0  0
   -8.5530    3.5941   -7.6566 C   0  0  0  0  0  0  0  0  0  0  0  0
   -8.2305    2.3131   -7.9185 N   0  0  0  0  0  0  0  0  0  0  0  0
   -7.6201    2.0629   -9.0818 C   0  0  0  0  0  0  0  0  0  0  0  0
   -7.4180    3.0081  -10.0677 C   0  0  0  0  0  0  0  0  0  0  0  0
   -7.7830    4.3362   -9.8277 C   0  0  0  0  0  0  0  0  0  0  0  0
   -7.5644    5.2633  -10.8907 N   0  0  0  0  0  0  0  0  0  0  0  0
   -8.1058    6.5146  -11.0871 C   0  0  0  0  0  0  0  0  0  0  0  0
   -7.5321    7.0372  -12.2204 C   0  0  0  0  0  0  0  0  0  0  0  0
   -6.6738    6.0317  -12.6896 C   0  0  0  0  0  0  0  0  0  0  0  0
   -5.8516    6.1123  -13.7725 N   0  0  0  0  0  0  0  0  0  0  0  0
   -5.5992    7.2827  -14.7620 C   0  0  0  0  0  0  0  0  0  0  0  0
   -6.1145    8.3279  -14.8451 O   0  0  0  0  0  0  0  0  0  0  0  0
   -4.4271    6.8925  -15.6905 C   0  0  2  0  0  0  0  0  0  0  0  0
   -3.7373    8.1536  -16.2428 C   0  0  0  0  0  0  0  0  0  0  0  0
   -4.5453    8.8890  -17.3065 C   0  0  0  0  0  0  0  0  0  0  0  0
   -5.3454    8.0223  -18.2513 C   0  0  0  0  0  0  0  0  0  0  0  0
   -5.9349    8.5112  -19.2146 O   0  0  0  0  0  0  0  0  0  0  0  0
   -5.4649    6.6973  -17.9695 N   0  0  0  0  0  0  0  0  0  0  0  0
   -4.8356    5.9704  -16.8582 C   0  0  1  0  0  0  0  0  0  0  0  0
   -3.6261    5.0799  -17.2524 C   0  0  0  0  0  0  0  0  0  0  0  0
   -3.4284    4.1614  -16.2737 F   0  0  0  0  0  0  0  0  0  0  0  0
   -2.4804    5.7836  -17.3734 F   0  0  0  0  0  0  0  0  0  0  0  0
   -3.8177    4.4077  -18.4057 F   0  0  0  0  0  0  0  0  0  0  0  0
   -6.7206    4.9426  -11.9271 N   0  0  0  0  0  0  0  0  0  0  0  0
   -8.2968    4.6517   -8.5584 C   0  0  0  0  0  0  0  0  0  0  0  0
   -8.4206    6.2655   -7.9503 Cl  0  0  0  0  0  0  0  0  0  0  0  0
  1  2  1  0
  2  3  2  0
  3  4  1  0
  4  5  2  0
  5  6  1  0
  6  7  1  0
  7  8  1  0
  8  9  2  0
  9 10  1  0
 10 11  1  0
 11 12  1  0
 12 13  2  0
 14 12  1  6
 14 15  1  0
 15 16  1  0
 16 17  1  0
 17 18  2  0
 17 19  1  0
 19 20  1  0
 20 21  1  6
 21 22  1  0
 21 23  1  0
 21 24  1  0
 10 25  2  0
  6 26  2  0
 26 27  1  0
 26  2  1  0
 25  7  1  0
 20 14  1  0
M  END
>  <fragmenstein_outcome>  (489) 
nan

>  <exports>  (489) 
['/opt/xchem-fragalysis-2/maxwin/openbind-hippo/xx01zvns2b/cycle_01/syndirella/elabs/openbind_xx01zvns2b_c1_elab_chemspace_filtered.sdf']

>  <Energy>  (489) 
nan

>  <alias>  (489) 
None

>  <fragmenstein_runtime>  (489) 
nan

>  <scratch_subdir>  (489) 
nan

>  <HIPPO Compound ID>  (489) 
142584

>  <rmsd(smina/fragmenstein)>  (489) 
2.258

>  <distance_score>  (489) 
1.716262

>  <orig_smiles>  (489) 
nan

>  <fragmenstein_mode>  (489) 
nan

>  <inchikey>  (489) 
YMUMDZJTWIWCAL-YMTOWFKASA-N

>  <ref_pdb>  (489) 
Z0788a

>  <GNINA pK>  (489) 
nan

>  <gnina_score_min>  (489) 
5.231

>  <tags>  (489) 
openbind_xx01zvns2b_c1_elab_nonasap_filtered_scored_top80percent,openbind_xx01zvns2b_c1_elab_chemspace_filtered_scored_top80percent,openbind_xx01zvns2b_c1_elab_chemspace_filtered_scored,openbind_xx01zvns2b_c1_elab_chemspace_filtered_scored_top40percent,openbind_xx01zvns2b_c1_elab_chemspace_filtered_scored_top20percent,openbind_xx01zvns2b_c1_elab_chemspace_filtered_scored_top60percent,openbind_xx01zvns2b_c1_elabs_filtered

>  <smiles>  (489) 
Cc1nccc(-n2ccc(NC(=O)[C@@H]3CCC(=O)N[C@H]3C(F)(F)F)n2)c1Cl

>  <subsites>  (489) 
1 - Z4590/B/203/1

>  <gnina_score>  (489) 
5.569

>  <HIPPO Pose ID>  (489) 
70516

>  <ref_mols>  (489) 
Z0788a,Z0969a

>  <energy_score>  (489) 
-48.892438

>  <inspiration_score>  (489) 
None

>  <smina_score_min>  (489) 
-6.028

>  <fragmenstein_error>  (489) 
nan

>  <name>  (489) 
P70516

$$$$
P70518
     RDKit          3D

 27 29  0  0  0  0  0  0  0  0999 V2000
   -7.7670    5.0689  -18.2377 C   0  0  0  0  0  0  0  0  0  0  0  0
   -6.2880    4.8002  -18.4583 C   0  0  0  0  0  0  0  0  0  0  0  0
   -5.9356    4.5833  -19.9307 C   0  0  0  0  0  0  0  0  0  0  0  0
   -5.3974    5.8039  -17.8439 N   0  0  0  0  0  0  0  0  0  0  0  0
   -4.2015    5.2557  -17.1921 C   0  0  0  0  0  0  0  0  0  0  0  0
   -3.3936    6.2440  -16.3613 C   0  0  2  0  0  0  0  0  0  0  0  0
   -3.3809    6.1021  -14.8245 C   0  0  0  0  0  0  0  0  0  0  0  0
   -2.3634    6.2523  -14.2638 O   0  0  0  0  0  0  0  0  0  0  0  0
   -4.8139    5.8698  -14.2668 N   0  0  0  0  0  0  0  0  0  0  0  0
   -5.2485    5.6904  -12.9826 C   0  0  0  0  0  0  0  0  0  0  0  0
   -4.5080    6.0456  -11.8396 C   0  0  0  0  0  0  0  0  0  0  0  0
   -5.3171    5.7410  -10.7745 C   0  0  0  0  0  0  0  0  0  0  0  0
   -6.4366    5.1204  -11.2886 N   0  0  0  0  0  0  0  0  0  0  0  0
   -7.4102    4.3944  -10.5429 C   0  0  0  0  0  0  0  0  0  0  0  0
   -8.2809    3.5467  -11.2106 C   0  0  0  0  0  0  0  0  0  0  0  0
   -9.0874    2.7187  -10.4541 C   0  0  0  0  0  0  0  0  0  0  0  0
   -9.1164    2.6899   -9.1070 N   0  0  0  0  0  0  0  0  0  0  0  0
   -8.2922    3.5405   -8.4586 C   0  0  0  0  0  0  0  0  0  0  0  0
   -8.4037    3.6021   -6.9574 C   0  0  0  0  0  0  0  0  0  0  0  0
   -9.4082    4.4537   -6.5970 F   0  0  0  0  0  0  0  0  0  0  0  0
   -7.2881    4.1083   -6.3471 F   0  0  0  0  0  0  0  0  0  0  0  0
   -7.4410    4.4204   -9.1412 C   0  0  0  0  0  0  0  0  0  0  0  0
   -6.4414    5.1839  -12.6609 N   0  0  0  0  0  0  0  0  0  0  0  0
   -3.6876    7.6942  -16.7049 C   0  0  0  0  0  0  0  0  0  0  0  0
   -4.1238    7.8686  -18.1388 C   0  0  0  0  0  0  0  0  0  0  0  0
   -5.3966    7.1013  -18.3734 C   0  0  0  0  0  0  0  0  0  0  0  0
   -6.3019    7.6174  -19.0227 O   0  0  0  0  0  0  0  0  0  0  0  0
  1  2  1  0
  2  3  1  0
  2  4  1  0
  4  5  1  0
  5  6  1  0
  6  7  1  1
  7  8  2  0
  7  9  1  0
  9 10  1  0
 10 11  1  0
 11 12  2  0
 12 13  1  0
 13 14  1  0
 14 15  2  0
 15 16  1  0
 16 17  2  0
 17 18  1  0
 18 19  1  0
 19 20  1  0
 19 21  1  0
 18 22  2  0
 13 23  1  0
  6 24  1  0
 24 25  1  0
 25 26  1  0
 26 27  2  0
 26  4  1  0
 23 10  2  0
 22 14  1  0
M  END
>  <fragmenstein_outcome>  (490) 
nan

>  <exports>  (490) 
['/opt/xchem-fragalysis-2/maxwin/openbind-hippo/xx01zvns2b/cycle_01/syndirella/elabs/openbind_xx01zvns2b_c1_elab_chemspace_filtered.sdf']

>  <Energy>  (490) 
nan

>  <alias>  (490) 
None

>  <fragmenstein_runtime>  (490) 
nan

>  <scratch_subdir>  (490) 
nan

>  <HIPPO Compound ID>  (490) 
142585

>  <rmsd(smina/fragmenstein)>  (490) 
2.475

>  <distance_score>  (490) 
1.706448

>  <orig_smiles>  (490) 
nan

>  <fragmenstein_mode>  (490) 
nan

>  <inchikey>  (490) 
ODMRKOMXAVMCRT-GFCCVEGCSA-N

>  <ref_pdb>  (490) 
Z0788a

>  <GNINA pK>  (490) 
nan

>  <gnina_score_min>  (490) 
5.295

>  <tags>  (490) 
openbind_xx01zvns2b_c1_elab_nonasap_filtered_scored_top80percent,openbind_xx01zvns2b_c1_elab_chemspace_filtered_scored_top80percent,openbind_xx01zvns2b_c1_elab_chemspace_filtered_scored,openbind_xx01zvns2b_c1_elab_chemspace_filtered_scored_top40percent,openbind_xx01zvns2b_c1_elab_chemspace_filtered_scored_top20percent,openbind_xx01zvns2b_c1_elab_chemspace_filtered_scored_top60percent,openbind_xx01zvns2b_c1_elabs_filtered

>  <smiles>  (490) 
CC(C)N1C[C@H](C(=O)Nc2ccn(-c3ccnc(C(F)F)c3)n2)CCC1=O

>  <subsites>  (490) 
1 - Z4590/B/203/1

>  <gnina_score>  (490) 
5.659

>  <HIPPO Pose ID>  (490) 
70518

>  <ref_mols>  (490) 
Z0788a,Z0969a

>  <energy_score>  (490) 
-58.115296

>  <inspiration_score>  (490) 
None

>  <smina_score_min>  (490) 
-6.339

>  <fragmenstein_error>  (490) 
nan

>  <name>  (490) 
P70518

$$$$
P70519
     RDKit          3D

 27 30  0  0  0  0  0  0  0  0999 V2000
   -1.9874    9.2499  -16.9024 O   0  0  0  0  0  0  0  0  0  0  0  0
   -2.8539    8.3838  -16.9906 C   0  0  0  0  0  0  0  0  0  0  0  0
   -2.7699    7.0654  -16.2335 C   0  0  0  0  0  0  0  0  0  0  0  0
   -3.6629    5.9994  -16.8528 C   0  0  0  0  0  0  0  0  0  0  0  0
   -2.9885    5.5265  -18.1992 C   0  0  0  0  0  0  0  0  0  0  0  0
   -3.5009    4.1286  -17.8883 C   0  0  0  0  0  0  0  0  0  0  0  0
   -3.4749    4.5207  -16.3988 C   0  0  0  0  0  0  0  0  0  0  0  0
   -5.1162    6.5250  -16.9171 C   0  0  1  0  0  0  0  0  0  0  0  0
   -5.6888    7.0898  -15.5760 C   0  0  0  0  0  0  0  0  0  0  0  0
   -5.6923    8.2408  -15.3689 O   0  0  0  0  0  0  0  0  0  0  0  0
   -6.2472    5.9137  -14.7294 N   0  0  0  0  0  0  0  0  0  0  0  0
   -6.8070    5.9053  -13.4826 C   0  0  0  0  0  0  0  0  0  0  0  0
   -7.2627    7.0279  -12.7653 C   0  0  0  0  0  0  0  0  0  0  0  0
   -7.7473    6.5299  -11.5776 C   0  0  0  0  0  0  0  0  0  0  0  0
   -7.5036    5.1740  -11.5872 N   0  0  0  0  0  0  0  0  0  0  0  0
   -7.6459    4.2536  -10.5078 C   0  0  0  0  0  0  0  0  0  0  0  0
   -7.1790    2.9544  -10.6848 C   0  0  0  0  0  0  0  0  0  0  0  0
   -7.2046    2.0851   -9.6128 C   0  0  0  0  0  0  0  0  0  0  0  0
   -7.7211    2.3849   -8.4128 N   0  0  0  0  0  0  0  0  0  0  0  0
   -8.1822    3.6401   -8.2360 C   0  0  0  0  0  0  0  0  0  0  0  0
   -8.6481    3.9856   -6.8484 C   0  0  0  0  0  0  0  0  0  0  0  0
   -9.6915    4.8621   -6.8746 F   0  0  0  0  0  0  0  0  0  0  0  0
   -7.6885    4.6194   -6.1081 F   0  0  0  0  0  0  0  0  0  0  0  0
   -8.1523    4.6133   -9.2529 C   0  0  0  0  0  0  0  0  0  0  0  0
   -6.9882    4.7808  -12.7945 N   0  0  0  0  0  0  0  0  0  0  0  0
   -5.0810    7.6796  -17.9431 C   0  0  0  0  0  0  0  0  0  0  0  0
   -3.9581    8.5894  -17.7783 N   0  0  0  0  0  0  0  0  0  0  0  0
  1  2  2  0
  2  3  1  0
  3  4  1  0
  4  5  1  0
  5  6  1  0
  6  7  1  0
  4  8  1  0
  8  9  1  1
  9 10  2  0
  9 11  1  0
 11 12  1  0
 12 13  1  0
 13 14  2  0
 14 15  1  0
 15 16  1  0
 16 17  2  0
 17 18  1  0
 18 19  2  0
 19 20  1  0
 20 21  1  0
 21 22  1  0
 21 23  1  0
 20 24  2  0
 15 25  1  0
  8 26  1  0
 26 27  1  0
 27  2  1  0
  7  4  1  0
 25 12  2  0
 24 16  1  0
M  END
>  <fragmenstein_outcome>  (491) 
nan

>  <exports>  (491) 
['/opt/xchem-fragalysis-2/maxwin/openbind-hippo/xx01zvns2b/cycle_01/syndirella/elabs/openbind_xx01zvns2b_c1_elab_chemspace_filtered.sdf']

>  <Energy>  (491) 
nan

>  <alias>  (491) 
None

>  <fragmenstein_runtime>  (491) 
nan

>  <scratch_subdir>  (491) 
nan

>  <HIPPO Compound ID>  (491) 
142587

>  <rmsd(smina/fragmenstein)>  (491) 
1.723

>  <distance_score>  (491) 
1.880464

>  <orig_smiles>  (491) 
nan

>  <fragmenstein_mode>  (491) 
nan

>  <inchikey>  (491) 
HXNOHVJQZBLFHX-GFCCVEGCSA-N

>  <ref_pdb>  (491) 
Z0788a

>  <GNINA pK>  (491) 
nan

>  <gnina_score_min>  (491) 
5.239

>  <tags>  (491) 
openbind_xx01zvns2b_c1_elab_nonasap_filtered_scored_top80percent,openbind_xx01zvns2b_c1_elab_chemspace_filtered_scored_top80percent,openbind_xx01zvns2b_c1_elab_chemspace_filtered_scored,openbind_xx01zvns2b_c1_elab_chemspace_filtered_scored_top40percent,openbind_xx01zvns2b_c1_elab_chemspace_filtered_scored_top20percent,openbind_xx01zvns2b_c1_elab_chemspace_filtered_scored_top60percent,openbind_xx01zvns2b_c1_elabs_filtered

>  <smiles>  (491) 
O=C1CC2(CCC2)[C@@H](C(=O)Nc2ccn(-c3ccnc(C(F)F)c3)n2)CN1

>  <subsites>  (491) 
1 - Z4590/B/203/1

>  <gnina_score>  (491) 
5.483

>  <HIPPO Pose ID>  (491) 
70519

>  <ref_mols>  (491) 
Z0788a,Z0969a

>  <energy_score>  (491) 
-76.207288

>  <inspiration_score>  (491) 
None

>  <smina_score_min>  (491) 
-5.564

>  <fragmenstein_error>  (491) 
nan

>  <name>  (491) 
P70519

$$$$
P70520
     RDKit          3D

 27 30  0  0  0  0  0  0  0  0999 V2000
   -4.7581    4.2143  -15.0731 O   0  0  0  0  0  0  0  0  0  0  0  0
   -5.2660    5.2033  -15.4423 C   0  0  0  0  0  0  0  0  0  0  0  0
   -6.2654    6.1570  -14.7188 N   0  0  0  0  0  0  0  0  0  0  0  0
   -6.8814    6.0416  -13.4976 C   0  0  0  0  0  0  0  0  0  0  0  0
   -7.7253    7.0077  -12.9118 C   0  0  0  0  0  0  0  0  0  0  0  0
   -8.1107    6.4729  -11.7014 C   0  0  0  0  0  0  0  0  0  0  0  0
   -7.5375    5.2228  -11.6163 N   0  0  0  0  0  0  0  0  0  0  0  0
   -7.6405    4.2650  -10.5646 C   0  0  0  0  0  0  0  0  0  0  0  0
   -7.0070    3.0359  -10.7307 C   0  0  0  0  0  0  0  0  0  0  0  0
   -7.0676    2.1076   -9.7113 C   0  0  0  0  0  0  0  0  0  0  0  0
   -7.7207    2.3018   -8.5566 N   0  0  0  0  0  0  0  0  0  0  0  0
   -8.3431    3.4876   -8.3880 C   0  0  0  0  0  0  0  0  0  0  0  0
   -8.9958    3.7033   -7.0487 C   0  0  0  0  0  0  0  0  0  0  0  0
   -9.2340    5.0287   -6.8179 F   0  0  0  0  0  0  0  0  0  0  0  0
  -10.2071    3.0958   -6.9168 F   0  0  0  0  0  0  0  0  0  0  0  0
   -8.3233    4.5019   -9.3671 C   0  0  0  0  0  0  0  0  0  0  0  0
   -6.7533    4.9820  -12.7044 N   0  0  0  0  0  0  0  0  0  0  0  0
   -4.9544    5.7580  -16.8517 C   0  0  1  0  0  0  0  0  0  0  0  0
   -6.1673    5.8111  -17.7837 C   0  0  0  0  0  0  0  0  0  0  0  0
   -5.9377    6.8026  -18.9167 C   0  0  0  0  0  0  0  0  0  0  0  0
   -5.7654    8.1907  -18.3516 C   0  0  0  0  0  0  0  0  0  0  0  0
   -6.3498    9.1649  -18.8279 O   0  0  0  0  0  0  0  0  0  0  0  0
   -4.9287    8.2452  -17.2393 N   0  0  0  0  0  0  0  0  0  0  0  0
   -4.6430    9.5072  -16.6024 C   0  0  0  0  0  0  0  0  0  0  0  0
   -4.0358   10.6538  -17.3699 C   0  0  0  0  0  0  0  0  0  0  0  0
   -3.2354    9.9637  -16.3099 C   0  0  0  0  0  0  0  0  0  0  0  0
   -4.1637    7.0717  -16.8128 C   0  0  0  0  0  0  0  0  0  0  0  0
  1  2  2  0
  2  3  1  0
  3  4  1  0
  4  5  1  0
  5  6  2  0
  6  7  1  0
  7  8  1  0
  8  9  2  0
  9 10  1  0
 10 11  2  0
 11 12  1  0
 12 13  1  0
 13 14  1  0
 13 15  1  0
 12 16  2  0
  7 17  1  0
 18  2  1  1
 18 19  1  0
 19 20  1  0
 20 21  1  0
 21 22  2  0
 21 23  1  0
 23 24  1  0
 24 25  1  0
 25 26  1  0
 23 27  1  0
 17  4  2  0
 27 18  1  0
 16  8  1  0
 26 24  1  0
M  END
>  <fragmenstein_outcome>  (492) 
nan

>  <exports>  (492) 
['/opt/xchem-fragalysis-2/maxwin/openbind-hippo/xx01zvns2b/cycle_01/syndirella/elabs/openbind_xx01zvns2b_c1_elab_chemspace_filtered.sdf']

>  <Energy>  (492) 
nan

>  <alias>  (492) 
None

>  <fragmenstein_runtime>  (492) 
nan

>  <scratch_subdir>  (492) 
nan

>  <HIPPO Compound ID>  (492) 
142588

>  <rmsd(smina/fragmenstein)>  (492) 
1.972

>  <distance_score>  (492) 
1.929044

>  <orig_smiles>  (492) 
nan

>  <fragmenstein_mode>  (492) 
nan

>  <inchikey>  (492) 
RFCPZNRVJUJUBM-NSHDSACASA-N

>  <ref_pdb>  (492) 
Z0788a

>  <GNINA pK>  (492) 
nan

>  <gnina_score_min>  (492) 
5.194

>  <tags>  (492) 
openbind_xx01zvns2b_c1_elab_nonasap_filtered_scored_top80percent,openbind_xx01zvns2b_c1_elab_chemspace_filtered_scored_top80percent,openbind_xx01zvns2b_c1_elab_chemspace_filtered_scored,openbind_xx01zvns2b_c1_elab_chemspace_filtered_scored_top40percent,openbind_xx01zvns2b_c1_elab_chemspace_filtered_scored_top20percent,openbind_xx01zvns2b_c1_elab_chemspace_filtered_scored_top60percent,openbind_xx01zvns2b_c1_elabs_filtered

>  <smiles>  (492) 
O=C(Nc1ccn(-c2ccnc(C(F)F)c2)n1)[C@H]1CCC(=O)N(C2CC2)C1

>  <subsites>  (492) 
1 - Z4590/B/203/1

>  <gnina_score>  (492) 
5.277

>  <HIPPO Pose ID>  (492) 
70520

>  <ref_mols>  (492) 
Z0969a,Z0788a

>  <energy_score>  (492) 
-53.901302

>  <inspiration_score>  (492) 
None

>  <smina_score_min>  (492) 
-6.018

>  <fragmenstein_error>  (492) 
nan

>  <name>  (492) 
P70520

$$$$
P70521
     RDKit          3D

 27 29  0  0  0  0  0  0  0  0999 V2000
   -8.8555    3.5479   -6.3960 C   0  0  0  0  0  0  0  0  0  0  0  0
   -8.7684    3.6197   -7.8919 C   0  0  0  0  0  0  0  0  0  0  0  0
   -9.2545    2.5330   -8.5214 N   0  0  0  0  0  0  0  0  0  0  0  0
   -9.1896    2.5287   -9.8576 C   0  0  0  0  0  0  0  0  0  0  0  0
   -8.6078    3.5167  -10.6160 C   0  0  0  0  0  0  0  0  0  0  0  0
   -8.1361    4.6681   -9.9836 C   0  0  0  0  0  0  0  0  0  0  0  0
   -7.5726    5.6555  -10.8445 N   0  0  0  0  0  0  0  0  0  0  0  0
   -7.3231    6.9944  -10.6350 C   0  0  0  0  0  0  0  0  0  0  0  0
   -6.6245    7.4576  -11.7260 C   0  0  0  0  0  0  0  0  0  0  0  0
   -6.5413    6.3602  -12.5926 C   0  0  0  0  0  0  0  0  0  0  0  0
   -5.9015    6.2988  -13.7909 N   0  0  0  0  0  0  0  0  0  0  0  0
   -5.1743    7.4004  -14.6000 C   0  0  0  0  0  0  0  0  0  0  0  0
   -4.9450    8.5135  -14.3275 O   0  0  0  0  0  0  0  0  0  0  0  0
   -4.7107    6.8398  -15.9535 C   0  0  1  0  0  0  0  0  0  0  0  0
   -3.9835    5.4882  -15.9647 C   0  0  0  0  0  0  0  0  0  0  0  0
   -3.4291    5.2122  -17.3716 C   0  0  0  0  0  0  0  0  0  0  0  0
   -4.1615    6.0406  -18.4214 C   0  0  0  0  0  0  0  0  0  0  0  0
   -3.5688    6.7011  -19.2678 O   0  0  0  0  0  0  0  0  0  0  0  0
   -5.5218    6.1672  -18.2223 N   0  0  0  0  0  0  0  0  0  0  0  0
   -6.2709    4.9682  -18.4522 C   0  0  0  0  0  0  0  0  0  0  0  0
   -7.5965    5.2153  -18.4029 F   0  0  0  0  0  0  0  0  0  0  0  0
   -6.0034    4.0731  -17.4806 F   0  0  0  0  0  0  0  0  0  0  0  0
   -5.9764    4.4115  -19.6437 F   0  0  0  0  0  0  0  0  0  0  0  0
   -5.8405    6.8722  -16.9979 C   0  0  0  0  0  0  0  0  0  0  0  0
   -7.1775    5.3003  -12.1092 N   0  0  0  0  0  0  0  0  0  0  0  0
   -8.2459    4.7397   -8.5826 C   0  0  0  0  0  0  0  0  0  0  0  0
   -7.7533    6.0910   -7.6329 Cl  0  0  0  0  0  0  0  0  0  0  0  0
  1  2  1  0
  2  3  2  0
  3  4  1  0
  4  5  2  0
  5  6  1  0
  6  7  1  0
  7  8  1  0
  8  9  2  0
  9 10  1  0
 10 11  1  0
 11 12  1  0
 12 13  2  0
 14 12  1  1
 14 15  1  0
 15 16  1  0
 16 17  1  0
 17 18  2  0
 17 19  1  0
 19 20  1  0
 20 21  1  0
 20 22  1  0
 20 23  1  0
 19 24  1  0
 10 25  2  0
  6 26  2  0
 26 27  1  0
 26  2  1  0
 25  7  1  0
 24 14  1  0
M  END
>  <fragmenstein_outcome>  (493) 
nan

>  <exports>  (493) 
['/opt/xchem-fragalysis-2/maxwin/openbind-hippo/xx01zvns2b/cycle_01/syndirella/elabs/openbind_xx01zvns2b_c1_elab_chemspace_filtered.sdf']

>  <Energy>  (493) 
nan

>  <alias>  (493) 
None

>  <fragmenstein_runtime>  (493) 
nan

>  <scratch_subdir>  (493) 
nan

>  <HIPPO Compound ID>  (493) 
142589

>  <rmsd(smina/fragmenstein)>  (493) 
2.362

>  <distance_score>  (493) 
1.60205

>  <orig_smiles>  (493) 
nan

>  <fragmenstein_mode>  (493) 
nan

>  <inchikey>  (493) 
UNXXBQAYGNXDTE-JTQLQIEISA-N

>  <ref_pdb>  (493) 
Z0788a

>  <GNINA pK>  (493) 
nan

>  <gnina_score_min>  (493) 
5.291

>  <tags>  (493) 
openbind_xx01zvns2b_c1_elab_nonasap_filtered_scored_top80percent,openbind_xx01zvns2b_c1_elab_chemspace_filtered_scored_top80percent,openbind_xx01zvns2b_c1_elab_chemspace_filtered_scored,openbind_xx01zvns2b_c1_elab_chemspace_filtered_scored_top40percent,openbind_xx01zvns2b_c1_elab_chemspace_filtered_scored_top20percent,openbind_xx01zvns2b_c1_elab_chemspace_filtered_scored_top60percent,openbind_xx01zvns2b_c1_elabs_filtered

>  <smiles>  (493) 
Cc1nccc(-n2ccc(NC(=O)[C@H]3CCC(=O)N(C(F)(F)F)C3)n2)c1Cl

>  <subsites>  (493) 
1 - Z4590/B/203/1

>  <gnina_score>  (493) 
5.646

>  <HIPPO Pose ID>  (493) 
70521

>  <ref_mols>  (493) 
Z0788a,Z0969a

>  <energy_score>  (493) 
-31.925708

>  <inspiration_score>  (493) 
None

>  <smina_score_min>  (493) 
-6.801

>  <fragmenstein_error>  (493) 
nan

>  <name>  (493) 
P70521

$$$$
P70524
     RDKit          3D

 27 29  0  0  0  0  0  0  0  0999 V2000
   -8.8244    3.8565   -6.3161 C   0  0  0  0  0  0  0  0  0  0  0  0
   -8.7630    3.7764   -7.8106 C   0  0  0  0  0  0  0  0  0  0  0  0
   -9.2273    2.6197   -8.3181 N   0  0  0  0  0  0  0  0  0  0  0  0
   -9.1541    2.4684   -9.6465 C   0  0  0  0  0  0  0  0  0  0  0  0
   -8.5893    3.3745  -10.5141 C   0  0  0  0  0  0  0  0  0  0  0  0
   -8.1851    4.6046  -10.0040 C   0  0  0  0  0  0  0  0  0  0  0  0
   -7.7433    5.5551  -10.9581 N   0  0  0  0  0  0  0  0  0  0  0  0
   -7.9896    6.9087  -10.9975 C   0  0  0  0  0  0  0  0  0  0  0  0
   -7.4141    7.3870  -12.1511 C   0  0  0  0  0  0  0  0  0  0  0  0
   -6.7995    6.2698  -12.7426 C   0  0  0  0  0  0  0  0  0  0  0  0
   -5.9924    6.2722  -13.8405 N   0  0  0  0  0  0  0  0  0  0  0  0
   -5.5614    7.4374  -14.7727 C   0  0  0  0  0  0  0  0  0  0  0  0
   -5.8939    8.5577  -14.7874 O   0  0  0  0  0  0  0  0  0  0  0  0
   -4.4482    6.9148  -15.7135 C   0  0  2  0  0  0  0  0  0  0  0  0
   -3.7298    8.1123  -16.3535 C   0  0  0  0  0  0  0  0  0  0  0  0
   -4.3857    8.6211  -17.5362 N   0  0  0  0  0  0  0  0  0  0  0  0
   -5.3000    7.9776  -18.3074 C   0  0  0  0  0  0  0  0  0  0  0  0
   -5.8465    8.5803  -19.2304 O   0  0  0  0  0  0  0  0  0  0  0  0
   -5.6740    6.5632  -17.9387 C   0  0  0  0  0  0  0  0  0  0  0  0
   -4.8869    5.9097  -16.8009 C   0  0  1  0  0  0  0  0  0  0  0  0
   -3.6630    5.1274  -17.2870 C   0  0  0  0  0  0  0  0  0  0  0  0
   -3.2518    4.3223  -16.2751 F   0  0  0  0  0  0  0  0  0  0  0  0
   -2.6205    5.9187  -17.6038 F   0  0  0  0  0  0  0  0  0  0  0  0
   -3.9115    4.3385  -18.3474 F   0  0  0  0  0  0  0  0  0  0  0  0
   -7.0399    5.1535  -12.0605 N   0  0  0  0  0  0  0  0  0  0  0  0
   -8.2887    4.8294   -8.6218 C   0  0  0  0  0  0  0  0  0  0  0  0
   -7.8001    6.2949   -7.8583 Cl  0  0  0  0  0  0  0  0  0  0  0  0
  1  2  1  0
  2  3  2  0
  3  4  1  0
  4  5  2  0
  5  6  1  0
  6  7  1  0
  7  8  1  0
  8  9  2  0
  9 10  1  0
 10 11  1  0
 11 12  1  0
 12 13  2  0
 14 12  1  6
 14 15  1  0
 15 16  1  0
 16 17  1  0
 17 18  2  0
 17 19  1  0
 19 20  1  0
 20 21  1  6
 21 22  1  0
 21 23  1  0
 21 24  1  0
 10 25  2  0
  6 26  2  0
 26 27  1  0
 26  2  1  0
 25  7  1  0
 20 14  1  0
M  END
>  <fragmenstein_outcome>  (494) 
nan

>  <exports>  (494) 
['/opt/xchem-fragalysis-2/maxwin/openbind-hippo/xx01zvns2b/cycle_01/syndirella/elabs/openbind_xx01zvns2b_c1_elab_chemspace_filtered.sdf']

>  <Energy>  (494) 
nan

>  <alias>  (494) 
None

>  <fragmenstein_runtime>  (494) 
nan

>  <scratch_subdir>  (494) 
nan

>  <HIPPO Compound ID>  (494) 
142590

>  <rmsd(smina/fragmenstein)>  (494) 
0.695

>  <distance_score>  (494) 
1.722118

>  <orig_smiles>  (494) 
nan

>  <fragmenstein_mode>  (494) 
nan

>  <inchikey>  (494) 
UHQTYGJKTAXAFN-NXEZZACHSA-N

>  <ref_pdb>  (494) 
Z0788a

>  <GNINA pK>  (494) 
nan

>  <gnina_score_min>  (494) 
5.458

>  <tags>  (494) 
openbind_xx01zvns2b_c1_elab_nonasap_filtered_scored_top80percent,openbind_xx01zvns2b_c1_elab_chemspace_filtered_scored_top80percent,openbind_xx01zvns2b_c1_elab_chemspace_filtered_scored,openbind_xx01zvns2b_c1_elab_chemspace_filtered_scored_top40percent,openbind_xx01zvns2b_c1_elab_chemspace_filtered_scored_top20percent,openbind_xx01zvns2b_c1_elab_chemspace_filtered_scored_top60percent,openbind_xx01zvns2b_c1_elabs_filtered

>  <smiles>  (494) 
Cc1nccc(-n2ccc(NC(=O)[C@@H]3CNC(=O)C[C@H]3C(F)(F)F)n2)c1Cl

>  <subsites>  (494) 
1 - Z4590/B/203/1

>  <gnina_score>  (494) 
5.633

>  <HIPPO Pose ID>  (494) 
70524

>  <ref_mols>  (494) 
Z0788a,Z0969a

>  <energy_score>  (494) 
-45.221843

>  <inspiration_score>  (494) 
None

>  <smina_score_min>  (494) 
-5.405

>  <fragmenstein_error>  (494) 
nan

>  <name>  (494) 
P70524

$$$$
P70526
     RDKit          3D

 27 29  0  0  0  0  0  0  0  0999 V2000
   -9.2235    3.5426   -6.0915 C   0  0  0  0  0  0  0  0  0  0  0  0
   -8.6303    3.4883   -7.4658 C   0  0  0  0  0  0  0  0  0  0  0  0
   -8.3035    2.2456   -7.8678 N   0  0  0  0  0  0  0  0  0  0  0  0
   -7.7060    2.1290   -9.0571 C   0  0  0  0  0  0  0  0  0  0  0  0
   -7.5254    3.1778   -9.9347 C   0  0  0  0  0  0  0  0  0  0  0  0
   -7.8708    4.4769   -9.5390 C   0  0  0  0  0  0  0  0  0  0  0  0
   -7.6377    5.5154  -10.4921 N   0  0  0  0  0  0  0  0  0  0  0  0
   -7.9790    6.8511  -10.4667 C   0  0  0  0  0  0  0  0  0  0  0  0
   -7.4563    7.4354  -11.5955 C   0  0  0  0  0  0  0  0  0  0  0  0
   -6.8893    6.3762  -12.3111 C   0  0  0  0  0  0  0  0  0  0  0  0
   -6.3706    6.4212  -13.5632 N   0  0  0  0  0  0  0  0  0  0  0  0
   -6.1374    7.6222  -14.5125 C   0  0  0  0  0  0  0  0  0  0  0  0
   -6.2840    8.7679  -14.3346 O   0  0  0  0  0  0  0  0  0  0  0  0
   -5.7479    7.1063  -15.9032 C   0  0  2  0  0  0  0  0  0  0  0  0
   -6.7790    6.1236  -16.4411 C   0  0  0  0  0  0  0  0  0  0  0  0
   -6.5669    5.9579  -17.8527 N   0  0  0  0  0  0  0  0  0  0  0  0
   -5.3356    5.5443  -18.2868 C   0  0  0  0  0  0  0  0  0  0  0  0
   -5.2779    4.8889  -19.3177 O   0  0  0  0  0  0  0  0  0  0  0  0
   -4.1228    6.0582  -17.5304 C   0  0  2  0  0  0  0  0  0  0  0  0
   -3.0564    4.9918  -17.5431 C   0  0  0  0  0  0  0  0  0  0  0  0
   -3.4452    3.9252  -16.8059 F   0  0  0  0  0  0  0  0  0  0  0  0
   -1.9354    5.4858  -16.9530 F   0  0  0  0  0  0  0  0  0  0  0  0
   -2.7004    4.5674  -18.7659 F   0  0  0  0  0  0  0  0  0  0  0  0
   -4.3756    6.4845  -16.0652 C   0  0  0  0  0  0  0  0  0  0  0  0
   -6.9872    5.2234  -11.6624 N   0  0  0  0  0  0  0  0  0  0  0  0
   -8.3715    4.6440   -8.2380 C   0  0  0  0  0  0  0  0  0  0  0  0
   -8.5392    6.1684   -7.4434 Cl  0  0  0  0  0  0  0  0  0  0  0  0
  1  2  1  0
  2  3  2  0
  3  4  1  0
  4  5  2  0
  5  6  1  0
  6  7  1  0
  7  8  1  0
  8  9  2  0
  9 10  1  0
 10 11  1  0
 11 12  1  0
 12 13  2  0
 14 12  1  1
 14 15  1  0
 15 16  1  0
 16 17  1  0
 17 18  2  0
 17 19  1  0
 19 20  1  1
 20 21  1  0
 20 22  1  0
 20 23  1  0
 19 24  1  0
 10 25  2  0
  6 26  2  0
 26 27  1  0
 26  2  1  0
 25  7  1  0
 24 14  1  0
M  END
>  <fragmenstein_outcome>  (495) 
nan

>  <exports>  (495) 
['/opt/xchem-fragalysis-2/maxwin/openbind-hippo/xx01zvns2b/cycle_01/syndirella/elabs/openbind_xx01zvns2b_c1_elab_chemspace_filtered.sdf']

>  <Energy>  (495) 
nan

>  <alias>  (495) 
None

>  <fragmenstein_runtime>  (495) 
nan

>  <scratch_subdir>  (495) 
nan

>  <HIPPO Compound ID>  (495) 
142591

>  <rmsd(smina/fragmenstein)>  (495) 
2.633

>  <distance_score>  (495) 
1.558388

>  <orig_smiles>  (495) 
nan

>  <fragmenstein_mode>  (495) 
nan

>  <inchikey>  (495) 
ODAQLFJUSJXSKA-VHSXEESVSA-N

>  <ref_pdb>  (495) 
Z0788a

>  <GNINA pK>  (495) 
nan

>  <gnina_score_min>  (495) 
5.386

>  <tags>  (495) 
openbind_xx01zvns2b_c1_elab_nonasap_filtered_scored_top80percent,openbind_xx01zvns2b_c1_elab_chemspace_filtered_scored_top80percent,openbind_xx01zvns2b_c1_elab_chemspace_filtered_scored,openbind_xx01zvns2b_c1_elab_chemspace_filtered_scored_top40percent,openbind_xx01zvns2b_c1_elab_chemspace_filtered_scored_top20percent,openbind_xx01zvns2b_c1_elab_chemspace_filtered_scored_top60percent,openbind_xx01zvns2b_c1_elabs_filtered

>  <smiles>  (495) 
Cc1nccc(-n2ccc(NC(=O)[C@@H]3CNC(=O)[C@H](C(F)(F)F)C3)n2)c1Cl

>  <subsites>  (495) 
1 - Z4590/B/203/1

>  <gnina_score>  (495) 
5.58

>  <HIPPO Pose ID>  (495) 
70526

>  <ref_mols>  (495) 
Z0788a,Z0969a

>  <energy_score>  (495) 
-42.245687

>  <inspiration_score>  (495) 
None

>  <smina_score_min>  (495) 
-7.943

>  <fragmenstein_error>  (495) 
nan

>  <name>  (495) 
P70526

$$$$
P70541
     RDKit          3D

 28 30  0  0  0  0  0  0  0  0999 V2000
   -6.2631    8.8134  -19.0407 O   0  0  0  0  0  0  0  0  0  0  0  0
   -5.3972    8.2613  -18.3691 C   0  0  0  0  0  0  0  0  0  0  0  0
   -5.0611    6.7918  -18.4494 C   0  0  0  0  0  0  0  0  0  0  0  0
   -4.7670    6.1250  -17.0898 C   0  0  1  0  0  0  0  0  0  0  0  0
   -3.6296    5.1169  -17.2550 C   0  0  0  0  0  0  0  0  0  0  0  0
   -3.5790    4.3218  -16.1605 F   0  0  0  0  0  0  0  0  0  0  0  0
   -2.4344    5.7436  -17.3492 F   0  0  0  0  0  0  0  0  0  0  0  0
   -3.7644    4.3281  -18.3359 F   0  0  0  0  0  0  0  0  0  0  0  0
   -4.3612    7.1029  -15.9498 C   0  0  2  0  0  0  0  0  0  0  0  0
   -5.5017    7.4935  -14.9780 C   0  0  0  0  0  0  0  0  0  0  0  0
   -5.9314    8.5797  -14.9423 O   0  0  0  0  0  0  0  0  0  0  0  0
   -5.8341    6.2508  -14.1074 N   0  0  0  0  0  0  0  0  0  0  0  0
   -6.6443    6.1241  -13.0204 C   0  0  0  0  0  0  0  0  0  0  0  0
   -7.4209    7.1308  -12.4203 C   0  0  0  0  0  0  0  0  0  0  0  0
   -7.9733    6.5407  -11.3072 C   0  0  0  0  0  0  0  0  0  0  0  0
   -7.5145    5.2426  -11.2752 N   0  0  0  0  0  0  0  0  0  0  0  0
   -7.6842    4.2767  -10.2461 C   0  0  0  0  0  0  0  0  0  0  0  0
   -7.1864    2.9929  -10.4482 C   0  0  0  0  0  0  0  0  0  0  0  0
   -7.2765    2.0756   -9.4207 C   0  0  0  0  0  0  0  0  0  0  0  0
   -7.8550    2.3252   -8.2378 N   0  0  0  0  0  0  0  0  0  0  0  0
   -8.3267    3.5726   -8.0345 C   0  0  0  0  0  0  0  0  0  0  0  0
   -8.8446    3.8793   -6.6568 C   0  0  0  0  0  0  0  0  0  0  0  0
   -9.8214    4.8302   -6.6975 F   0  0  0  0  0  0  0  0  0  0  0  0
   -7.8882    4.4079   -5.8351 F   0  0  0  0  0  0  0  0  0  0  0  0
   -8.2617    4.5816   -9.0116 C   0  0  0  0  0  0  0  0  0  0  0  0
   -6.7401    4.9698  -12.3677 N   0  0  0  0  0  0  0  0  0  0  0  0
   -3.7342    8.3662  -16.5516 C   0  0  0  0  0  0  0  0  0  0  0  0
   -4.6123    8.9832  -17.5163 N   0  0  0  0  0  0  0  0  0  0  0  0
  1  2  2  0
  2  3  1  0
  3  4  1  0
  4  5  1  6
  5  6  1  0
  5  7  1  0
  5  8  1  0
  4  9  1  0
  9 10  1  6
 10 11  2  0
 10 12  1  0
 12 13  1  0
 13 14  1  0
 14 15  2  0
 15 16  1  0
 16 17  1  0
 17 18  2  0
 18 19  1  0
 19 20  2  0
 20 21  1  0
 21 22  1  0
 22 23  1  0
 22 24  1  0
 21 25  2  0
 16 26  1  0
  9 27  1  0
 27 28  1  0
 28  2  1  0
 26 13  2  0
 25 17  1  0
M  END
>  <fragmenstein_outcome>  (496) 
nan

>  <exports>  (496) 
['/opt/xchem-fragalysis-2/maxwin/openbind-hippo/xx01zvns2b/cycle_01/syndirella/elabs/openbind_xx01zvns2b_c1_elab_chemspace_filtered.sdf']

>  <Energy>  (496) 
nan

>  <alias>  (496) 
None

>  <fragmenstein_runtime>  (496) 
nan

>  <scratch_subdir>  (496) 
nan

>  <HIPPO Compound ID>  (496) 
142599

>  <rmsd(smina/fragmenstein)>  (496) 
2.261

>  <distance_score>  (496) 
1.670393

>  <orig_smiles>  (496) 
nan

>  <fragmenstein_mode>  (496) 
nan

>  <inchikey>  (496) 
BTRSTASIMLBSCE-NXEZZACHSA-N

>  <ref_pdb>  (496) 
Z0788a

>  <GNINA pK>  (496) 
nan

>  <gnina_score_min>  (496) 
5.412

>  <tags>  (496) 
openbind_xx01zvns2b_c1_elab_nonasap_filtered_scored_top80percent,openbind_xx01zvns2b_c1_elab_chemspace_filtered_scored_top80percent,openbind_xx01zvns2b_c1_elab_chemspace_filtered_scored,openbind_xx01zvns2b_c1_elab_chemspace_filtered_scored_top40percent,openbind_xx01zvns2b_c1_elab_chemspace_filtered_scored_top20percent,openbind_xx01zvns2b_c1_elab_chemspace_filtered_scored_top60percent,openbind_xx01zvns2b_c1_elabs_filtered

>  <smiles>  (496) 
O=C1C[C@@H](C(F)(F)F)[C@H](C(=O)Nc2ccn(-c3ccnc(C(F)F)c3)n2)CN1

>  <subsites>  (496) 
1 - Z4590/B/203/1

>  <gnina_score>  (496) 
5.494

>  <HIPPO Pose ID>  (496) 
70541

>  <ref_mols>  (496) 
Z0788a,Z0969a

>  <energy_score>  (496) 
-71.23117

>  <inspiration_score>  (496) 
None

>  <smina_score_min>  (496) 
-6.043

>  <fragmenstein_error>  (496) 
nan

>  <name>  (496) 
P70541

$$$$
P70542
     RDKit          3D

 28 30  0  0  0  0  0  0  0  0999 V2000
   -5.7477    8.5159  -14.6260 O   0  0  0  0  0  0  0  0  0  0  0  0
   -5.6351    7.3681  -14.8142 C   0  0  0  0  0  0  0  0  0  0  0  0
   -6.1022    6.1627  -13.9655 N   0  0  0  0  0  0  0  0  0  0  0  0
   -6.8405    6.1190  -12.8292 C   0  0  0  0  0  0  0  0  0  0  0  0
   -7.4502    7.1811  -12.1446 C   0  0  0  0  0  0  0  0  0  0  0  0
   -8.0021    6.6043  -11.0230 C   0  0  0  0  0  0  0  0  0  0  0  0
   -7.6696    5.2669  -11.0589 N   0  0  0  0  0  0  0  0  0  0  0  0
   -7.8305    4.2898  -10.0430 C   0  0  0  0  0  0  0  0  0  0  0  0
   -7.3763    2.9947  -10.2782 C   0  0  0  0  0  0  0  0  0  0  0  0
   -7.4441    2.0713   -9.2540 C   0  0  0  0  0  0  0  0  0  0  0  0
   -7.9825    2.3192   -8.0526 N   0  0  0  0  0  0  0  0  0  0  0  0
   -8.4219    3.5736   -7.8267 C   0  0  0  0  0  0  0  0  0  0  0  0
   -8.9390    3.8763   -6.4502 C   0  0  0  0  0  0  0  0  0  0  0  0
   -7.9963    4.4466   -5.6408 F   0  0  0  0  0  0  0  0  0  0  0  0
   -9.9454    4.7965   -6.5044 F   0  0  0  0  0  0  0  0  0  0  0  0
   -8.3513    4.5953   -8.7876 C   0  0  0  0  0  0  0  0  0  0  0  0
   -7.0233    4.9569  -12.2149 N   0  0  0  0  0  0  0  0  0  0  0  0
   -4.9457    6.8751  -16.0993 C   0  0  1  0  0  0  0  0  0  0  0  0
   -4.0989    5.5937  -16.0740 C   0  0  0  0  0  0  0  0  0  0  0  0
   -3.3996    5.4017  -17.4271 C   0  0  0  0  0  0  0  0  0  0  0  0
   -4.1350    6.1404  -18.5383 C   0  0  0  0  0  0  0  0  0  0  0  0
   -3.5428    6.8219  -19.3682 O   0  0  0  0  0  0  0  0  0  0  0  0
   -5.5103    6.1544  -18.4297 N   0  0  0  0  0  0  0  0  0  0  0  0
   -6.1527    4.9017  -18.6888 C   0  0  0  0  0  0  0  0  0  0  0  0
   -7.4959    5.0225  -18.6310 F   0  0  0  0  0  0  0  0  0  0  0  0
   -5.7997    4.0092  -17.7446 F   0  0  0  0  0  0  0  0  0  0  0  0
   -5.8132    4.4039  -19.8953 F   0  0  0  0  0  0  0  0  0  0  0  0
   -5.9699    6.8456  -17.2483 C   0  0  0  0  0  0  0  0  0  0  0  0
  1  2  2  0
  2  3  1  0
  3  4  1  0
  4  5  1  0
  5  6  2  0
  6  7  1  0
  7  8  1  0
  8  9  2  0
  9 10  1  0
 10 11  2  0
 11 12  1  0
 12 13  1  0
 13 14  1  0
 13 15  1  0
 12 16  2  0
  7 17  1  0
 18  2  1  1
 18 19  1  0
 19 20  1  0
 20 21  1  0
 21 22  2  0
 21 23  1  0
 23 24  1  0
 24 25  1  0
 24 26  1  0
 24 27  1  0
 23 28  1  0
 17  4  2  0
 28 18  1  0
 16  8  1  0
M  END
>  <fragmenstein_outcome>  (497) 
nan

>  <exports>  (497) 
['/opt/xchem-fragalysis-2/maxwin/openbind-hippo/xx01zvns2b/cycle_01/syndirella/elabs/openbind_xx01zvns2b_c1_elab_chemspace_filtered.sdf']

>  <Energy>  (497) 
nan

>  <alias>  (497) 
None

>  <fragmenstein_runtime>  (497) 
nan

>  <scratch_subdir>  (497) 
nan

>  <HIPPO Compound ID>  (497) 
142600

>  <rmsd(smina/fragmenstein)>  (497) 
2.34

>  <distance_score>  (497) 
1.456783

>  <orig_smiles>  (497) 
nan

>  <fragmenstein_mode>  (497) 
nan

>  <inchikey>  (497) 
NAHRFSYVQFAZLF-VIFPVBQESA-N

>  <ref_pdb>  (497) 
Z0788a

>  <GNINA pK>  (497) 
nan

>  <gnina_score_min>  (497) 
5.15

>  <tags>  (497) 
openbind_xx01zvns2b_c1_elab_nonasap_filtered_scored_top80percent,openbind_xx01zvns2b_c1_elab_chemspace_filtered_scored_top80percent,openbind_xx01zvns2b_c1_elab_chemspace_filtered_scored,openbind_xx01zvns2b_c1_elab_chemspace_filtered_scored_top40percent,openbind_xx01zvns2b_c1_elab_chemspace_filtered_scored_top20percent,openbind_xx01zvns2b_c1_elab_chemspace_filtered_scored_top60percent,openbind_xx01zvns2b_c1_elabs_filtered

>  <smiles>  (497) 
O=C(Nc1ccn(-c2ccnc(C(F)F)c2)n1)[C@H]1CCC(=O)N(C(F)(F)F)C1

>  <subsites>  (497) 
1 - Z4590/B/203/1

>  <gnina_score>  (497) 
5.346

>  <HIPPO Pose ID>  (497) 
70542

>  <ref_mols>  (497) 
Z0788a,Z0969a

>  <energy_score>  (497) 
-2.309373

>  <inspiration_score>  (497) 
None

>  <smina_score_min>  (497) 
-6.873

>  <fragmenstein_error>  (497) 
nan

>  <name>  (497) 
P70542

$$$$
P70543
     RDKit          3D

 28 31  0  0  0  0  0  0  0  0999 V2000
   -8.5467    4.0161   -6.7915 C   0  0  0  0  0  0  0  0  0  0  0  0
   -8.4889    3.9097   -8.2834 C   0  0  0  0  0  0  0  0  0  0  0  0
   -7.8408    4.8810   -9.0625 C   0  0  0  0  0  0  0  0  0  0  0  0
   -7.7405    4.6762  -10.4477 C   0  0  0  0  0  0  0  0  0  0  0  0
   -7.0455    5.5738  -11.3074 N   0  0  0  0  0  0  0  0  0  0  0  0
   -6.6875    6.8781  -11.0402 C   0  0  0  0  0  0  0  0  0  0  0  0
   -6.0216    7.3450  -12.1498 C   0  0  0  0  0  0  0  0  0  0  0  0
   -5.9540    6.2493  -13.0372 C   0  0  0  0  0  0  0  0  0  0  0  0
   -5.2673    6.2737  -14.2272 N   0  0  0  0  0  0  0  0  0  0  0  0
   -4.9355    5.1209  -15.2318 C   0  0  0  0  0  0  0  0  0  0  0  0
   -5.2646    3.9963  -15.2319 O   0  0  0  0  0  0  0  0  0  0  0  0
   -3.9232    5.6807  -16.3074 C   0  0  1  0  0  0  0  0  0  0  0  0
   -4.5714    6.7740  -17.1760 C   0  0  0  0  0  0  0  0  0  0  0  0
   -5.6206    6.4308  -18.0454 C   0  0  0  0  0  0  0  0  0  0  0  0
   -6.0954    7.3391  -18.9890 C   0  0  0  0  0  0  0  0  0  0  0  0
   -5.5790    8.6266  -19.0547 C   0  0  0  0  0  0  0  0  0  0  0  0
   -4.6024    9.0125  -18.1499 C   0  0  0  0  0  0  0  0  0  0  0  0
   -4.1072    8.0981  -17.2161 C   0  0  0  0  0  0  0  0  0  0  0  0
   -2.6080    6.0761  -15.5799 C   0  0  0  0  0  0  0  0  0  0  0  0
   -1.4085    6.3659  -16.4841 C   0  0  0  0  0  0  0  0  0  0  0  0
   -1.3630    5.6464  -17.8113 C   0  0  0  0  0  0  0  0  0  0  0  0
   -0.4078    5.7793  -18.5715 O   0  0  0  0  0  0  0  0  0  0  0  0
   -2.4271    4.8703  -18.1498 N   0  0  0  0  0  0  0  0  0  0  0  0
   -3.4918    4.5032  -17.2353 C   0  0  0  0  0  0  0  0  0  0  0  0
   -6.6102    5.1984  -12.5460 N   0  0  0  0  0  0  0  0  0  0  0  0
   -8.3297    3.5470  -10.9994 C   0  0  0  0  0  0  0  0  0  0  0  0
   -9.0181    2.6982  -10.1569 C   0  0  0  0  0  0  0  0  0  0  0  0
   -9.0970    2.8385   -8.8205 N   0  0  0  0  0  0  0  0  0  0  0  0
  1  2  1  0
  2  3  2  0
  3  4  1  0
  4  5  1  0
  5  6  1  0
  6  7  2  0
  7  8  1  0
  8  9  1  0
  9 10  1  0
 10 11  2  0
 12 10  1  1
 12 13  1  0
 13 14  2  0
 14 15  1  0
 15 16  2  0
 16 17  1  0
 17 18  2  0
 12 19  1  0
 19 20  1  0
 20 21  1  0
 21 22  2  0
 21 23  1  0
 23 24  1  0
  8 25  2  0
  4 26  2  0
 26 27  1  0
 27 28  2  0
 28  2  1  0
 25  5  1  0
 24 12  1  0
 18 13  1  0
M  END
>  <fragmenstein_outcome>  (498) 
nan

>  <exports>  (498) 
['/opt/xchem-fragalysis-2/maxwin/openbind-hippo/xx01zvns2b/cycle_01/syndirella/elabs/openbind_xx01zvns2b_c1_elab_chemspace_filtered.sdf']

>  <Energy>  (498) 
nan

>  <alias>  (498) 
None

>  <fragmenstein_runtime>  (498) 
nan

>  <scratch_subdir>  (498) 
nan

>  <HIPPO Compound ID>  (498) 
142601

>  <rmsd(smina/fragmenstein)>  (498) 
1.855

>  <distance_score>  (498) 
1.570529

>  <orig_smiles>  (498) 
nan

>  <fragmenstein_mode>  (498) 
nan

>  <inchikey>  (498) 
LGPIYPICCNOTBL-NRFANRHFSA-N

>  <ref_pdb>  (498) 
Z0788a

>  <GNINA pK>  (498) 
nan

>  <gnina_score_min>  (498) 
5.256

>  <tags>  (498) 
openbind_xx01zvns2b_c1_elab_nonasap_filtered_scored_top80percent,openbind_xx01zvns2b_c1_elab_chemspace_filtered_scored_top80percent,openbind_xx01zvns2b_c1_elab_chemspace_filtered_scored,openbind_xx01zvns2b_c1_elab_chemspace_filtered_scored_top40percent,openbind_xx01zvns2b_c1_elab_chemspace_filtered_scored_top20percent,openbind_xx01zvns2b_c1_elab_chemspace_filtered_scored_top60percent,openbind_xx01zvns2b_c1_elabs_filtered

>  <smiles>  (498) 
Cc1cc(-n2ccc(NC(=O)[C@@]3(c4ccccc4)CCC(=O)NC3)n2)ccn1

>  <subsites>  (498) 
1 - Z4590/B/203/1

>  <gnina_score>  (498) 
5.664

>  <HIPPO Pose ID>  (498) 
70543

>  <ref_mols>  (498) 
Z0788a,Z0969a

>  <energy_score>  (498) 
-47.699563

>  <inspiration_score>  (498) 
None

>  <smina_score_min>  (498) 
-6.097

>  <fragmenstein_error>  (498) 
nan

>  <name>  (498) 
P70543

$$$$
P70545
     RDKit          3D

 28 31  0  0  0  0  0  0  0  0999 V2000
   -9.2473    4.4394   -5.9944 C   0  0  0  0  0  0  0  0  0  0  0  0
   -8.8526    3.8775   -7.3175 C   0  0  0  0  0  0  0  0  0  0  0  0
   -8.5608    4.7210   -8.3966 C   0  0  0  0  0  0  0  0  0  0  0  0
   -8.1766    4.1239   -9.5904 C   0  0  0  0  0  0  0  0  0  0  0  0
   -7.8636    4.8571  -10.7573 N   0  0  0  0  0  0  0  0  0  0  0  0
   -7.9715    6.2072  -11.0154 C   0  0  0  0  0  0  0  0  0  0  0  0
   -7.4556    6.4103  -12.2810 C   0  0  0  0  0  0  0  0  0  0  0  0
   -7.0488    5.1376  -12.6994 C   0  0  0  0  0  0  0  0  0  0  0  0
   -6.4053    4.7216  -13.8085 N   0  0  0  0  0  0  0  0  0  0  0  0
   -6.0341    5.4870  -15.1025 C   0  0  0  0  0  0  0  0  0  0  0  0
   -6.1595    6.6135  -15.3764 O   0  0  0  0  0  0  0  0  0  0  0  0
   -5.3304    4.4351  -15.9776 C   0  0  2  0  0  0  0  0  0  0  0  0
   -3.9649    4.0371  -15.4233 C   0  0  0  0  0  0  0  0  0  0  0  0
   -2.9720    5.1767  -15.5531 C   0  0  0  0  0  0  0  0  0  0  0  0
   -2.9599    5.8880  -16.8976 C   0  0  0  0  0  0  0  0  0  0  0  0
   -1.9267    6.4570  -17.2552 O   0  0  0  0  0  0  0  0  0  0  0  0
   -4.1893    5.9599  -17.5548 N   0  0  0  0  0  0  0  0  0  0  0  0
   -4.5424    7.0948  -18.2970 C   0  0  0  0  0  0  0  0  0  0  0  0
   -5.7495    7.3623  -18.9996 C   0  0  0  0  0  0  0  0  0  0  0  0
   -5.8083    8.6090  -19.4843 N   0  0  0  0  0  0  0  0  0  0  0  0
   -4.6063    9.1147  -19.1555 N   0  0  0  0  0  0  0  0  0  0  0  0
   -4.2677   10.4595  -19.5517 C   0  0  0  0  0  0  0  0  0  0  0  0
   -3.8258    8.2594  -18.4408 C   0  0  0  0  0  0  0  0  0  0  0  0
   -5.1358    4.8668  -17.4169 C   0  0  0  0  0  0  0  0  0  0  0  0
   -7.3286    4.2052  -11.8078 N   0  0  0  0  0  0  0  0  0  0  0  0
   -8.0562    2.7345   -9.6412 C   0  0  0  0  0  0  0  0  0  0  0  0
   -8.3538    1.9929   -8.5204 C   0  0  0  0  0  0  0  0  0  0  0  0
   -8.7725    2.5344   -7.3714 N   0  0  0  0  0  0  0  0  0  0  0  0
  1  2  1  0
  2  3  2  0
  3  4  1  0
  4  5  1  0
  5  6  1  0
  6  7  2  0
  7  8  1  0
  8  9  1  0
  9 10  1  0
 10 11  2  0
 12 10  1  1
 12 13  1  0
 13 14  1  0
 14 15  1  0
 15 16  2  0
 15 17  1  0
 17 18  1  0
 18 19  1  0
 19 20  2  0
 20 21  1  0
 21 22  1  0
 21 23  1  0
 17 24  1  0
  8 25  2  0
  4 26  2  0
 26 27  1  0
 27 28  2  0
 28  2  1  0
 25  5  1  0
 24 12  1  0
 23 18  2  0
M  END
>  <fragmenstein_outcome>  (499) 
nan

>  <exports>  (499) 
['/opt/xchem-fragalysis-2/maxwin/openbind-hippo/xx01zvns2b/cycle_01/syndirella/elabs/openbind_xx01zvns2b_c1_elab_chemspace_filtered.sdf']

>  <Energy>  (499) 
nan

>  <alias>  (499) 
None

>  <fragmenstein_runtime>  (499) 
nan

>  <scratch_subdir>  (499) 
nan

>  <HIPPO Compound ID>  (499) 
142603

>  <rmsd(smina/fragmenstein)>  (499) 
1.218

>  <distance_score>  (499) 
1.980461

>  <orig_smiles>  (499) 
nan

>  <fragmenstein_mode>  (499) 
nan

>  <inchikey>  (499) 
VJOFEAFCVBGRHH-CQSZACIVSA-N

>  <ref_pdb>  (499) 
Z0788a

>  <GNINA pK>  (499) 
nan

>  <gnina_score_min>  (499) 
5.276

>  <tags>  (499) 
openbind_xx01zvns2b_c1_elab_nonasap_filtered_scored_top80percent,openbind_xx01zvns2b_c1_elab_chemspace_filtered_scored_top80percent,openbind_xx01zvns2b_c1_elab_chemspace_filtered_scored,openbind_xx01zvns2b_c1_elab_chemspace_filtered_scored_top40percent,openbind_xx01zvns2b_c1_elab_chemspace_filtered_scored_top20percent,openbind_xx01zvns2b_c1_elab_chemspace_filtered_scored_top60percent,openbind_xx01zvns2b_c1_elabs_filtered

>  <smiles>  (499) 
Cc1cc(-n2ccc(NC(=O)[C@@H]3CCC(=O)N(c4cnn(C)c4)C3)n2)ccn1

>  <subsites>  (499) 
1 - Z4590/B/203/1

>  <gnina_score>  (499) 
5.424

>  <HIPPO Pose ID>  (499) 
70545

>  <ref_mols>  (499) 
Z0788a,Z0969a

>  <energy_score>  (499) 
-41.77321

>  <inspiration_score>  (499) 
None

>  <smina_score_min>  (499) 
-6.054

>  <fragmenstein_error>  (499) 
nan

>  <name>  (499) 
P70545

$$$$
P70546
     RDKit          3D

 29 32  0  0  0  0  0  0  0  0999 V2000
   -9.2285    4.1759   -5.9113 C   0  0  0  0  0  0  0  0  0  0  0  0
   -8.8030    3.7353   -7.2749 C   0  0  0  0  0  0  0  0  0  0  0  0
   -8.7304    2.3950   -7.4073 N   0  0  0  0  0  0  0  0  0  0  0  0
   -8.2723    1.9258   -8.5678 C   0  0  0  0  0  0  0  0  0  0  0  0
   -7.9721    2.7301   -9.6455 C   0  0  0  0  0  0  0  0  0  0  0  0
   -8.1029    4.1224   -9.5403 C   0  0  0  0  0  0  0  0  0  0  0  0
   -7.8318    4.8634  -10.7222 N   0  0  0  0  0  0  0  0  0  0  0  0
   -8.1728    6.1450  -11.1015 C   0  0  0  0  0  0  0  0  0  0  0  0
   -7.7207    6.3225  -12.3937 C   0  0  0  0  0  0  0  0  0  0  0  0
   -7.0909    5.1165  -12.7102 C   0  0  0  0  0  0  0  0  0  0  0  0
   -6.4319    4.7251  -13.8205 N   0  0  0  0  0  0  0  0  0  0  0  0
   -6.1989    5.4620  -15.1669 C   0  0  0  0  0  0  0  0  0  0  0  0
   -6.6064    6.4868  -15.5482 O   0  0  0  0  0  0  0  0  0  0  0  0
   -5.1919    4.5760  -15.9171 C   0  0  2  0  0  0  0  0  0  0  0  0
   -3.8377    4.6016  -15.1877 C   0  0  0  0  0  0  0  0  0  0  0  0
   -2.6847    4.8637  -16.1378 C   0  0  0  0  0  0  0  0  0  0  0  0
   -2.9302    6.1002  -16.9610 C   0  0  0  0  0  0  0  0  0  0  0  0
   -2.0464    6.9490  -17.0553 O   0  0  0  0  0  0  0  0  0  0  0  0
   -4.1936    6.1175  -17.5644 N   0  0  0  0  0  0  0  0  0  0  0  0
   -4.6615    7.2504  -18.2365 C   0  0  0  0  0  0  0  0  0  0  0  0
   -5.9207    7.4623  -18.8563 C   0  0  0  0  0  0  0  0  0  0  0  0
   -6.0669    8.7050  -19.3359 N   0  0  0  0  0  0  0  0  0  0  0  0
   -4.8753    9.2688  -19.0758 N   0  0  0  0  0  0  0  0  0  0  0  0
   -4.6284   10.6313  -19.4788 C   0  0  0  0  0  0  0  0  0  0  0  0
   -4.0114    8.4479  -18.4216 C   0  0  0  0  0  0  0  0  0  0  0  0
   -5.0464    4.9468  -17.3917 C   0  0  0  0  0  0  0  0  0  0  0  0
   -7.1438    4.2487  -11.7146 N   0  0  0  0  0  0  0  0  0  0  0  0
   -8.4694    4.6474   -8.3012 C   0  0  0  0  0  0  0  0  0  0  0  0
   -8.3807    6.3242   -7.9072 Cl  0  0  0  0  0  0  0  0  0  0  0  0
  1  2  1  0
  2  3  2  0
  3  4  1  0
  4  5  2  0
  5  6  1  0
  6  7  1  0
  7  8  1  0
  8  9  2  0
  9 10  1  0
 10 11  1  0
 11 12  1  0
 12 13  2  0
 14 12  1  1
 14 15  1  0
 15 16  1  0
 16 17  1  0
 17 18  2  0
 17 19  1  0
 19 20  1  0
 20 21  1  0
 21 22  2  0
 22 23  1  0
 23 24  1  0
 23 25  1  0
 19 26  1  0
 10 27  2  0
  6 28  2  0
 28 29  1  0
 28  2  1  0
 27  7  1  0
 26 14  1  0
 25 20  2  0
M  END
>  <fragmenstein_outcome>  (500) 
nan

>  <exports>  (500) 
['/opt/xchem-fragalysis-2/maxwin/openbind-hippo/xx01zvns2b/cycle_01/syndirella/elabs/openbind_xx01zvns2b_c1_elab_chemspace_filtered.sdf']

>  <Energy>  (500) 
nan

>  <alias>  (500) 
None

>  <fragmenstein_runtime>  (500) 
nan

>  <scratch_subdir>  (500) 
nan

>  <HIPPO Compound ID>  (500) 
142604

>  <rmsd(smina/fragmenstein)>  (500) 
1.222

>  <distance_score>  (500) 
1.680518

>  <orig_smiles>  (500) 
nan

>  <fragmenstein_mode>  (500) 
nan

>  <inchikey>  (500) 
FXIAHIURXISJIJ-CYBMUJFWSA-N

>  <ref_pdb>  (500) 
Z0788a

>  <GNINA pK>  (500) 
nan

>  <gnina_score_min>  (500) 
5.403

>  <tags>  (500) 
openbind_xx01zvns2b_c1_elab_nonasap_filtered_scored_top80percent,openbind_xx01zvns2b_c1_elab_chemspace_filtered_scored_top80percent,openbind_xx01zvns2b_c1_elab_chemspace_filtered_scored,openbind_xx01zvns2b_c1_elab_chemspace_filtered_scored_top40percent,openbind_xx01zvns2b_c1_elab_chemspace_filtered_scored_top20percent,openbind_xx01zvns2b_c1_elab_chemspace_filtered_scored_top60percent,openbind_xx01zvns2b_c1_elabs_filtered

>  <smiles>  (500) 
Cc1nccc(-n2ccc(NC(=O)[C@@H]3CCC(=O)N(c4cnn(C)c4)C3)n2)c1Cl

>  <subsites>  (500) 
1 - Z4590/B/203/1

>  <gnina_score>  (500) 
5.6

>  <HIPPO Pose ID>  (500) 
70546

>  <ref_mols>  (500) 
Z0788a,Z0969a

>  <energy_score>  (500) 
-72.90483

>  <inspiration_score>  (500) 
None

>  <smina_score_min>  (500) 
-6.402

>  <fragmenstein_error>  (500) 
nan

>  <name>  (500) 
P70546

$$$$
P70547
     RDKit          3D

 29 32  0  0  0  0  0  0  0  0999 V2000
   -8.8776    3.9081   -6.6890 C   0  0  0  0  0  0  0  0  0  0  0  0
   -8.3486    3.7129   -8.0801 C   0  0  0  0  0  0  0  0  0  0  0  0
   -7.9888    2.4415   -8.3393 N   0  0  0  0  0  0  0  0  0  0  0  0
   -7.3925    2.2040   -9.5135 C   0  0  0  0  0  0  0  0  0  0  0  0
   -7.2309    3.1515  -10.5049 C   0  0  0  0  0  0  0  0  0  0  0  0
   -7.6111    4.4784  -10.2691 C   0  0  0  0  0  0  0  0  0  0  0  0
   -7.3611    5.4044  -11.3404 N   0  0  0  0  0  0  0  0  0  0  0  0
   -7.7473    6.7197  -11.4971 C   0  0  0  0  0  0  0  0  0  0  0  0
   -7.1164    7.2043  -12.6218 C   0  0  0  0  0  0  0  0  0  0  0  0
   -6.4266    6.1066  -13.1688 C   0  0  0  0  0  0  0  0  0  0  0  0
   -5.6452    6.1577  -14.3001 N   0  0  0  0  0  0  0  0  0  0  0  0
   -4.8772    5.0232  -15.0555 C   0  0  0  0  0  0  0  0  0  0  0  0
   -4.8591    3.8653  -14.8710 O   0  0  0  0  0  0  0  0  0  0  0  0
   -3.9419    5.6726  -16.1476 C   0  0  1  0  0  0  0  0  0  0  0  0
   -4.6444    6.7048  -17.0472 C   0  0  0  0  0  0  0  0  0  0  0  0
   -5.6827    6.2879  -17.8949 C   0  0  0  0  0  0  0  0  0  0  0  0
   -6.1796    7.1362  -18.8821 C   0  0  0  0  0  0  0  0  0  0  0  0
   -5.6867    8.4279  -19.0227 C   0  0  0  0  0  0  0  0  0  0  0  0
   -4.7258    8.8892  -18.1387 C   0  0  0  0  0  0  0  0  0  0  0  0
   -4.2168    8.0392  -17.1549 C   0  0  0  0  0  0  0  0  0  0  0  0
   -2.6884    6.1833  -15.3843 C   0  0  0  0  0  0  0  0  0  0  0  0
   -1.4618    6.5163  -16.2377 C   0  0  0  0  0  0  0  0  0  0  0  0
   -1.3266    5.7981  -17.5607 C   0  0  0  0  0  0  0  0  0  0  0  0
   -0.3430    5.9617  -18.2781 O   0  0  0  0  0  0  0  0  0  0  0  0
   -2.3459    4.9862  -17.9514 N   0  0  0  0  0  0  0  0  0  0  0  0
   -3.3982    4.5351  -17.0620 C   0  0  0  0  0  0  0  0  0  0  0  0
   -6.6153    5.0175  -12.4277 N   0  0  0  0  0  0  0  0  0  0  0  0
   -8.1340    4.7776   -8.9938 C   0  0  0  0  0  0  0  0  0  0  0  0
   -8.3558    6.3803   -8.3885 Cl  0  0  0  0  0  0  0  0  0  0  0  0
  1  2  1  0
  2  3  2  0
  3  4  1  0
  4  5  2  0
  5  6  1  0
  6  7  1  0
  7  8  1  0
  8  9  2  0
  9 10  1  0
 10 11  1  0
 11 12  1  0
 12 13  2  0
 14 12  1  1
 14 15  1  0
 15 16  2  0
 16 17  1  0
 17 18  2  0
 18 19  1  0
 19 20  2  0
 14 21  1  0
 21 22  1  0
 22 23  1  0
 23 24  2  0
 23 25  1  0
 25 26  1  0
 10 27  2  0
  6 28  2  0
 28 29  1  0
 28  2  1  0
 27  7  1  0
 26 14  1  0
 20 15  1  0
M  END
>  <fragmenstein_outcome>  (501) 
nan

>  <exports>  (501) 
['/opt/xchem-fragalysis-2/maxwin/openbind-hippo/xx01zvns2b/cycle_01/syndirella/elabs/openbind_xx01zvns2b_c1_elab_chemspace_filtered.sdf']

>  <Energy>  (501) 
nan

>  <alias>  (501) 
None

>  <fragmenstein_runtime>  (501) 
nan

>  <scratch_subdir>  (501) 
nan

>  <HIPPO Compound ID>  (501) 
142605

>  <rmsd(smina/fragmenstein)>  (501) 
1.64

>  <distance_score>  (501) 
1.564155

>  <orig_smiles>  (501) 
nan

>  <fragmenstein_mode>  (501) 
nan

>  <inchikey>  (501) 
CXBIUTYVMSIRNE-NRFANRHFSA-N

>  <ref_pdb>  (501) 
Z0788a

>  <GNINA pK>  (501) 
nan

>  <gnina_score_min>  (501) 
5.296

>  <tags>  (501) 
openbind_xx01zvns2b_c1_elab_nonasap_filtered_scored_top80percent,openbind_xx01zvns2b_c1_elab_chemspace_filtered_scored_top80percent,openbind_xx01zvns2b_c1_elab_chemspace_filtered_scored,openbind_xx01zvns2b_c1_elab_chemspace_filtered_scored_top40percent,openbind_xx01zvns2b_c1_elab_chemspace_filtered_scored_top20percent,openbind_xx01zvns2b_c1_elab_chemspace_filtered_scored_top60percent,openbind_xx01zvns2b_c1_elabs_filtered

>  <smiles>  (501) 
Cc1nccc(-n2ccc(NC(=O)[C@@]3(c4ccccc4)CCC(=O)NC3)n2)c1Cl

>  <subsites>  (501) 
1 - Z4590/B/203/1

>  <gnina_score>  (501) 
5.793

>  <HIPPO Pose ID>  (501) 
70547

>  <ref_mols>  (501) 
Z0788a,Z0969a

>  <energy_score>  (501) 
-29.659703

>  <inspiration_score>  (501) 
None

>  <smina_score_min>  (501) 
-5.437

>  <fragmenstein_error>  (501) 
nan

>  <name>  (501) 
P70547

$$$$
P70550
     RDKit          3D

 29 32  0  0  0  0  0  0  0  0999 V2000
   -8.4951    3.8805   -6.9135 C   0  0  0  0  0  0  0  0  0  0  0  0
   -8.4287    3.8579   -8.4101 C   0  0  0  0  0  0  0  0  0  0  0  0
   -7.7741    4.8713   -9.1295 C   0  0  0  0  0  0  0  0  0  0  0  0
   -7.6891    4.7694  -10.5292 C   0  0  0  0  0  0  0  0  0  0  0  0
   -6.9895    5.7255  -11.3292 N   0  0  0  0  0  0  0  0  0  0  0  0
   -6.4833    6.9394  -10.9162 C   0  0  0  0  0  0  0  0  0  0  0  0
   -5.8776    7.5181  -12.0055 C   0  0  0  0  0  0  0  0  0  0  0  0
   -6.0248    6.5911  -13.0543 C   0  0  0  0  0  0  0  0  0  0  0  0
   -5.5468    6.7496  -14.3308 N   0  0  0  0  0  0  0  0  0  0  0  0
   -4.8193    7.9556  -14.9954 C   0  0  0  0  0  0  0  0  0  0  0  0
   -4.5862    9.0255  -14.5777 O   0  0  0  0  0  0  0  0  0  0  0  0
   -4.3476    7.6134  -16.4418 C   0  0  1  0  0  0  0  0  0  0  0  0
   -3.0210    6.8574  -16.4932 C   0  0  0  0  0  0  0  0  0  0  0  0
   -3.1925    5.3800  -16.6988 C   0  0  0  0  0  0  0  0  0  0  0  0
   -3.9767    5.1017  -17.9472 C   0  0  0  0  0  0  0  0  0  0  0  0
   -3.6378    4.1947  -18.7009 O   0  0  0  0  0  0  0  0  0  0  0  0
   -5.1312    5.8426  -18.0989 N   0  0  0  0  0  0  0  0  0  0  0  0
   -6.2095    5.2560  -18.9068 C   0  0  0  0  0  0  0  0  0  0  0  0
   -7.3374    4.7590  -18.0296 C   0  0  0  0  0  0  0  0  0  0  0  0
   -8.6409    4.6773  -18.5284 C   0  0  0  0  0  0  0  0  0  0  0  0
   -9.6937    4.3374  -17.6933 C   0  0  0  0  0  0  0  0  0  0  0  0
   -9.4334    4.0605  -16.3596 C   0  0  0  0  0  0  0  0  0  0  0  0
   -8.1509    4.0775  -15.8508 C   0  0  0  0  0  0  0  0  0  0  0  0
   -7.1048    4.3819  -16.6981 C   0  0  0  0  0  0  0  0  0  0  0  0
   -5.4263    7.0883  -17.3887 C   0  0  0  0  0  0  0  0  0  0  0  0
   -6.7079    5.5113  -12.6591 N   0  0  0  0  0  0  0  0  0  0  0  0
   -8.2968    3.6856  -11.1487 C   0  0  0  0  0  0  0  0  0  0  0  0
   -8.9677    2.7720  -10.3579 C   0  0  0  0  0  0  0  0  0  0  0  0
   -9.0382    2.8237   -9.0143 N   0  0  0  0  0  0  0  0  0  0  0  0
  1  2  1  0
  2  3  2  0
  3  4  1  0
  4  5  1  0
  5  6  1  0
  6  7  2  0
  7  8  1  0
  8  9  1  0
  9 10  1  0
 10 11  2  0
 12 10  1  1
 12 13  1  0
 13 14  1  0
 14 15  1  0
 15 16  2  0
 15 17  1  0
 17 18  1  0
 18 19  1  0
 19 20  2  0
 20 21  1  0
 21 22  2  0
 22 23  1  0
 23 24  2  0
 17 25  1  0
  8 26  2  0
  4 27  2  0
 27 28  1  0
 28 29  2  0
 29  2  1  0
 26  5  1  0
 25 12  1  0
 24 19  1  0
M  END
>  <fragmenstein_outcome>  (502) 
nan

>  <exports>  (502) 
['/opt/xchem-fragalysis-2/maxwin/openbind-hippo/xx01zvns2b/cycle_01/syndirella/elabs/openbind_xx01zvns2b_c1_elab_chemspace_filtered.sdf']

>  <Energy>  (502) 
nan

>  <alias>  (502) 
None

>  <fragmenstein_runtime>  (502) 
nan

>  <scratch_subdir>  (502) 
nan

>  <HIPPO Compound ID>  (502) 
142614

>  <rmsd(smina/fragmenstein)>  (502) 
0.778

>  <distance_score>  (502) 
1.826516

>  <orig_smiles>  (502) 
nan

>  <fragmenstein_mode>  (502) 
nan

>  <inchikey>  (502) 
KXEQNVGUJQVEQP-SFHVURJKSA-N

>  <ref_pdb>  (502) 
Z0788a

>  <GNINA pK>  (502) 
nan

>  <gnina_score_min>  (502) 
5.373

>  <tags>  (502) 
openbind_xx01zvns2b_c1_elab_nonasap_filtered_scored_top80percent,openbind_xx01zvns2b_c1_elab_chemspace_filtered_scored_top80percent,openbind_xx01zvns2b_c1_elab_chemspace_filtered_scored,openbind_xx01zvns2b_c1_elab_chemspace_filtered_scored_top40percent,openbind_xx01zvns2b_c1_elab_chemspace_filtered_scored_top20percent,openbind_xx01zvns2b_c1_elab_chemspace_filtered_scored_top60percent,openbind_xx01zvns2b_c1_elabs_filtered

>  <smiles>  (502) 
Cc1cc(-n2ccc(NC(=O)[C@H]3CCC(=O)N(Cc4ccccc4)C3)n2)ccn1

>  <subsites>  (502) 
1 - Z4590/B/203/1

>  <gnina_score>  (502) 
5.758

>  <HIPPO Pose ID>  (502) 
70550

>  <ref_mols>  (502) 
Z0788a,Z0969a

>  <energy_score>  (502) 
-10.762811

>  <inspiration_score>  (502) 
None

>  <smina_score_min>  (502) 
-6.577

>  <fragmenstein_error>  (502) 
nan

>  <name>  (502) 
P70550

$$$$
P70551
     RDKit          3D

 30 33  0  0  0  0  0  0  0  0999 V2000
   -5.3144    9.9080  -20.5294 C   0  0  0  0  0  0  0  0  0  0  0  0
   -5.0212    9.0132  -19.4370 N   0  0  0  0  0  0  0  0  0  0  0  0
   -4.7903    7.6790  -19.5153 C   0  0  0  0  0  0  0  0  0  0  0  0
   -4.3887    7.2773  -18.2596 C   0  0  0  0  0  0  0  0  0  0  0  0
   -4.0778    5.9634  -17.8910 N   0  0  0  0  0  0  0  0  0  0  0  0
   -4.0534    5.5481  -16.4855 C   0  0  0  0  0  0  0  0  0  0  0  0
   -5.1187    4.4983  -16.2097 C   0  0  1  0  0  0  0  0  0  0  0  0
   -5.3755    4.2870  -14.7252 C   0  0  0  0  0  0  0  0  0  0  0  0
   -4.8988    3.3701  -14.1773 O   0  0  0  0  0  0  0  0  0  0  0  0
   -6.3271    5.3949  -14.1934 N   0  0  0  0  0  0  0  0  0  0  0  0
   -6.9244    5.5377  -12.9802 C   0  0  0  0  0  0  0  0  0  0  0  0
   -7.7114    6.6076  -12.5196 C   0  0  0  0  0  0  0  0  0  0  0  0
   -8.1147    6.2289  -11.2545 C   0  0  0  0  0  0  0  0  0  0  0  0
   -7.6219    4.9577  -11.0482 N   0  0  0  0  0  0  0  0  0  0  0  0
   -7.8189    4.0739   -9.9601 C   0  0  0  0  0  0  0  0  0  0  0  0
   -7.2985    2.7846  -10.0509 C   0  0  0  0  0  0  0  0  0  0  0  0
   -7.4910    1.9105   -9.0015 C   0  0  0  0  0  0  0  0  0  0  0  0
   -8.1707    2.2148   -7.8875 N   0  0  0  0  0  0  0  0  0  0  0  0
   -8.6451    3.4732   -7.7882 C   0  0  0  0  0  0  0  0  0  0  0  0
   -9.2709    3.8500   -6.4770 C   0  0  0  0  0  0  0  0  0  0  0  0
  -10.5741    3.4737   -6.3433 F   0  0  0  0  0  0  0  0  0  0  0  0
   -9.2841    5.2083   -6.3230 F   0  0  0  0  0  0  0  0  0  0  0  0
   -8.4937    4.4371   -8.8016 C   0  0  0  0  0  0  0  0  0  0  0  0
   -6.8335    4.5814  -12.0724 N   0  0  0  0  0  0  0  0  0  0  0  0
   -6.3611    4.7291  -17.0732 C   0  0  0  0  0  0  0  0  0  0  0  0
   -5.9870    4.6382  -18.5538 C   0  0  0  0  0  0  0  0  0  0  0  0
   -4.5284    5.0058  -18.8102 C   0  0  0  0  0  0  0  0  0  0  0  0
   -3.9105    4.6518  -19.8085 O   0  0  0  0  0  0  0  0  0  0  0  0
   -4.4273    8.4615  -17.4969 C   0  0  0  0  0  0  0  0  0  0  0  0
   -4.8928    9.5041  -18.1937 N   0  0  0  0  0  0  0  0  0  0  0  0
  1  2  1  0
  2  3  1  0
  3  4  2  0
  4  5  1  0
  5  6  1  0
  6  7  1  0
  7  8  1  1
  8  9  2  0
  8 10  1  0
 10 11  1  0
 11 12  1  0
 12 13  2  0
 13 14  1  0
 14 15  1  0
 15 16  2  0
 16 17  1  0
 17 18  2  0
 18 19  1  0
 19 20  1  0
 20 21  1  0
 20 22  1  0
 19 23  2  0
 14 24  1  0
  7 25  1  0
 25 26  1  0
 26 27  1  0
 27 28  2  0
  4 29  1  0
 29 30  2  0
 30  2  1  0
 27  5  1  0
 24 11  2  0
 23 15  1  0
M  END
>  <fragmenstein_outcome>  (503) 
nan

>  <exports>  (503) 
['/opt/xchem-fragalysis-2/maxwin/openbind-hippo/xx01zvns2b/cycle_01/syndirella/elabs/openbind_xx01zvns2b_c1_elab_chemspace_filtered.sdf']

>  <Energy>  (503) 
nan

>  <alias>  (503) 
None

>  <fragmenstein_runtime>  (503) 
nan

>  <scratch_subdir>  (503) 
nan

>  <HIPPO Compound ID>  (503) 
142615

>  <rmsd(smina/fragmenstein)>  (503) 
1.952

>  <distance_score>  (503) 
1.660037

>  <orig_smiles>  (503) 
nan

>  <fragmenstein_mode>  (503) 
nan

>  <inchikey>  (503) 
MXAULGYYDNFBIF-LBPRGKRZSA-N

>  <ref_pdb>  (503) 
Z0788a

>  <GNINA pK>  (503) 
nan

>  <gnina_score_min>  (503) 
5.262

>  <tags>  (503) 
openbind_xx01zvns2b_c1_elab_nonasap_filtered_scored_top80percent,openbind_xx01zvns2b_c1_elab_chemspace_filtered_scored_top80percent,openbind_xx01zvns2b_c1_elab_chemspace_filtered_scored,openbind_xx01zvns2b_c1_elab_chemspace_filtered_scored_top40percent,openbind_xx01zvns2b_c1_elab_chemspace_filtered_scored_top20percent,openbind_xx01zvns2b_c1_elab_chemspace_filtered_scored_top60percent,openbind_xx01zvns2b_c1_elabs_filtered

>  <smiles>  (503) 
Cn1cc(N2C[C@@H](C(=O)Nc3ccn(-c4ccnc(C(F)F)c4)n3)CCC2=O)cn1

>  <subsites>  (503) 
1 - Z4590/B/203/1

>  <gnina_score>  (503) 
5.365

>  <HIPPO Pose ID>  (503) 
70551

>  <ref_mols>  (503) 
Z0788a,Z0969a

>  <energy_score>  (503) 
-21.588978

>  <inspiration_score>  (503) 
None

>  <smina_score_min>  (503) 
-7.328

>  <fragmenstein_error>  (503) 
nan

>  <name>  (503) 
P70551

$$$$
P70552
     RDKit          3D

 30 33  0  0  0  0  0  0  0  0999 V2000
   -1.2079    4.1797  -13.4406 O   0  0  0  0  0  0  0  0  0  0  0  0
   -2.0261    4.6218  -14.2417 C   0  0  0  0  0  0  0  0  0  0  0  0
   -3.3334    3.9238  -14.5327 C   0  0  0  0  0  0  0  0  0  0  0  0
   -4.0162    4.3908  -15.8199 C   0  0  0  0  0  0  0  0  0  0  0  0
   -4.0824    5.9411  -15.9491 C   0  0  2  0  0  0  0  0  0  0  0  0
   -4.7953    6.7170  -14.7507 C   0  0  0  0  0  0  0  0  0  0  0  0
   -4.4563    7.7982  -14.4513 O   0  0  0  0  0  0  0  0  0  0  0  0
   -5.8723    5.7857  -14.1183 N   0  0  0  0  0  0  0  0  0  0  0  0
   -6.6329    5.9465  -13.0059 C   0  0  0  0  0  0  0  0  0  0  0  0
   -6.8589    7.0880  -12.2217 C   0  0  0  0  0  0  0  0  0  0  0  0
   -7.5963    6.6368  -11.1438 C   0  0  0  0  0  0  0  0  0  0  0  0
   -7.6323    5.2610  -11.2539 N   0  0  0  0  0  0  0  0  0  0  0  0
   -7.8743    4.3006  -10.2342 C   0  0  0  0  0  0  0  0  0  0  0  0
   -7.4299    2.9967  -10.4389 C   0  0  0  0  0  0  0  0  0  0  0  0
   -7.4867    2.1034   -9.3872 C   0  0  0  0  0  0  0  0  0  0  0  0
   -8.0473    2.3718   -8.2003 N   0  0  0  0  0  0  0  0  0  0  0  0
   -8.5101    3.6229   -8.0117 C   0  0  0  0  0  0  0  0  0  0  0  0
   -9.0584    3.9293   -6.6468 C   0  0  0  0  0  0  0  0  0  0  0  0
  -10.3494    3.5349   -6.4586 F   0  0  0  0  0  0  0  0  0  0  0  0
   -9.0715    5.2762   -6.4215 F   0  0  0  0  0  0  0  0  0  0  0  0
   -8.4131    4.6300   -8.9914 C   0  0  0  0  0  0  0  0  0  0  0  0
   -7.2244    4.8739  -12.4906 N   0  0  0  0  0  0  0  0  0  0  0  0
   -4.6859    6.4458  -17.2783 C   0  0  0  0  0  0  0  0  0  0  0  0
   -5.3382    5.5979  -18.1777 C   0  0  0  0  0  0  0  0  0  0  0  0
   -5.7683    6.0760  -19.4145 C   0  0  0  0  0  0  0  0  0  0  0  0
   -5.5777    7.4046  -19.7772 C   0  0  0  0  0  0  0  0  0  0  0  0
   -4.9821    8.2792  -18.8832 C   0  0  0  0  0  0  0  0  0  0  0  0
   -4.5459    7.8042  -17.6464 C   0  0  0  0  0  0  0  0  0  0  0  0
   -2.5737    6.3339  -15.9748 C   0  0  0  0  0  0  0  0  0  0  0  0
   -1.8071    5.8150  -14.8575 N   0  0  0  0  0  0  0  0  0  0  0  0
  1  2  2  0
  2  3  1  0
  3  4  1  0
  4  5  1  0
  5  6  1  1
  6  7  2  0
  6  8  1  0
  8  9  1  0
  9 10  1  0
 10 11  2  0
 11 12  1  0
 12 13  1  0
 13 14  2  0
 14 15  1  0
 15 16  2  0
 16 17  1  0
 17 18  1  0
 18 19  1  0
 18 20  1  0
 17 21  2  0
 12 22  1  0
  5 23  1  0
 23 24  2  0
 24 25  1  0
 25 26  2  0
 26 27  1  0
 27 28  2  0
  5 29  1  0
 29 30  1  0
 30  2  1  0
 22  9  2  0
 28 23  1  0
 21 13  1  0
M  END
>  <fragmenstein_outcome>  (504) 
nan

>  <exports>  (504) 
['/opt/xchem-fragalysis-2/maxwin/openbind-hippo/xx01zvns2b/cycle_01/syndirella/elabs/openbind_xx01zvns2b_c1_elab_chemspace_filtered.sdf']

>  <Energy>  (504) 
nan

>  <alias>  (504) 
None

>  <fragmenstein_runtime>  (504) 
nan

>  <scratch_subdir>  (504) 
nan

>  <HIPPO Compound ID>  (504) 
142617

>  <rmsd(smina/fragmenstein)>  (504) 
2.393

>  <distance_score>  (504) 
1.611576

>  <orig_smiles>  (504) 
nan

>  <fragmenstein_mode>  (504) 
nan

>  <inchikey>  (504) 
XISCUMUWLKWZKU-OAQYLSRUSA-N

>  <ref_pdb>  (504) 
Z0788a

>  <GNINA pK>  (504) 
nan

>  <gnina_score_min>  (504) 
5.351

>  <tags>  (504) 
openbind_xx01zvns2b_c1_elab_nonasap_filtered_scored_top80percent,openbind_xx01zvns2b_c1_elab_chemspace_filtered_scored_top80percent,openbind_xx01zvns2b_c1_elab_chemspace_filtered_scored,openbind_xx01zvns2b_c1_elab_chemspace_filtered_scored_top40percent,openbind_xx01zvns2b_c1_elab_chemspace_filtered_scored_top20percent,openbind_xx01zvns2b_c1_elab_chemspace_filtered_scored_top60percent,openbind_xx01zvns2b_c1_elabs_filtered

>  <smiles>  (504) 
O=C1CC[C@](C(=O)Nc2ccn(-c3ccnc(C(F)F)c3)n2)(c2ccccc2)CN1

>  <subsites>  (504) 
1 - Z4590/B/203/1

>  <gnina_score>  (504) 
5.694

>  <HIPPO Pose ID>  (504) 
70552

>  <ref_mols>  (504) 
Z0969a,Z0788a

>  <energy_score>  (504) 
-43.468066

>  <inspiration_score>  (504) 
None

>  <smina_score_min>  (504) 
-7.795

>  <fragmenstein_error>  (504) 
nan

>  <name>  (504) 
P70552

$$$$
P70553
     RDKit          3D

 30 33  0  0  0  0  0  0  0  0999 V2000
   -8.7765    3.5378   -6.8701 C   0  0  0  0  0  0  0  0  0  0  0  0
   -8.6286    3.6256   -8.3619 C   0  0  0  0  0  0  0  0  0  0  0  0
   -9.2299    2.6341   -9.0492 N   0  0  0  0  0  0  0  0  0  0  0  0
   -9.1502    2.6821  -10.3914 C   0  0  0  0  0  0  0  0  0  0  0  0
   -8.4563    3.6353  -11.1083 C   0  0  0  0  0  0  0  0  0  0  0  0
   -7.7890    4.6318  -10.4056 C   0  0  0  0  0  0  0  0  0  0  0  0
   -6.8612    5.4238  -11.1491 N   0  0  0  0  0  0  0  0  0  0  0  0
   -5.6243    5.8423  -10.7054 C   0  0  0  0  0  0  0  0  0  0  0  0
   -4.9068    6.2235  -11.8115 C   0  0  0  0  0  0  0  0  0  0  0  0
   -5.7952    6.1089  -12.8978 C   0  0  0  0  0  0  0  0  0  0  0  0
   -5.4776    6.4470  -14.1903 N   0  0  0  0  0  0  0  0  0  0  0  0
   -4.0940    6.7243  -14.8530 C   0  0  0  0  0  0  0  0  0  0  0  0
   -3.0103    6.6307  -14.4155 O   0  0  0  0  0  0  0  0  0  0  0  0
   -4.2386    7.3176  -16.3032 C   0  0  1  0  0  0  0  0  0  0  0  0
   -2.8943    7.2163  -17.0616 C   0  0  0  0  0  0  0  0  0  0  0  0
   -2.6565    5.8049  -17.5538 C   0  0  0  0  0  0  0  0  0  0  0  0
   -3.7669    5.3469  -18.4613 C   0  0  0  0  0  0  0  0  0  0  0  0
   -3.5228    4.6537  -19.4463 O   0  0  0  0  0  0  0  0  0  0  0  0
   -5.0496    5.6714  -18.0433 N   0  0  0  0  0  0  0  0  0  0  0  0
   -6.1553    5.0971  -18.8164 C   0  0  0  0  0  0  0  0  0  0  0  0
   -7.3106    4.6977  -17.9398 C   0  0  0  0  0  0  0  0  0  0  0  0
   -8.6011    4.6212  -18.4729 C   0  0  0  0  0  0  0  0  0  0  0  0
   -9.6731    4.3098  -17.6551 C   0  0  0  0  0  0  0  0  0  0  0  0
   -9.4405    4.0610  -16.3096 C   0  0  0  0  0  0  0  0  0  0  0  0
   -8.1720    4.0928  -15.7643 C   0  0  0  0  0  0  0  0  0  0  0  0
   -7.1050    4.3712  -16.5904 C   0  0  0  0  0  0  0  0  0  0  0  0
   -5.3189    6.8994  -17.2951 C   0  0  0  0  0  0  0  0  0  0  0  0
   -6.9923    5.6560  -12.5055 N   0  0  0  0  0  0  0  0  0  0  0  0
   -7.9422    4.6772   -9.0050 C   0  0  0  0  0  0  0  0  0  0  0  0
   -7.4941    6.0560   -8.0627 Cl  0  0  0  0  0  0  0  0  0  0  0  0
  1  2  1  0
  2  3  2  0
  3  4  1  0
  4  5  2  0
  5  6  1  0
  6  7  1  0
  7  8  1  0
  8  9  2  0
  9 10  1  0
 10 11  1  0
 11 12  1  0
 12 13  2  0
 14 12  1  1
 14 15  1  0
 15 16  1  0
 16 17  1  0
 17 18  2  0
 17 19  1  0
 19 20  1  0
 20 21  1  0
 21 22  2  0
 22 23  1  0
 23 24  2  0
 24 25  1  0
 25 26  2  0
 19 27  1  0
 10 28  2  0
  6 29  2  0
 29 30  1  0
 29  2  1  0
 28  7  1  0
 27 14  1  0
 26 21  1  0
M  END
>  <fragmenstein_outcome>  (505) 
nan

>  <exports>  (505) 
['/opt/xchem-fragalysis-2/maxwin/openbind-hippo/xx01zvns2b/cycle_01/syndirella/elabs/openbind_xx01zvns2b_c1_elab_chemspace_filtered.sdf']

>  <Energy>  (505) 
nan

>  <alias>  (505) 
None

>  <fragmenstein_runtime>  (505) 
nan

>  <scratch_subdir>  (505) 
nan

>  <HIPPO Compound ID>  (505) 
142623

>  <rmsd(smina/fragmenstein)>  (505) 
1.367

>  <distance_score>  (505) 
1.859805

>  <orig_smiles>  (505) 
nan

>  <fragmenstein_mode>  (505) 
nan

>  <inchikey>  (505) 
WCYZXADICTVMNK-KRWDZBQOSA-N

>  <ref_pdb>  (505) 
Z0788a

>  <GNINA pK>  (505) 
nan

>  <gnina_score_min>  (505) 
5.659

>  <tags>  (505) 
openbind_xx01zvns2b_c1_elab_nonasap_filtered_scored_top80percent,openbind_xx01zvns2b_c1_elab_chemspace_filtered_scored_top80percent,openbind_xx01zvns2b_c1_elab_chemspace_filtered_scored,openbind_xx01zvns2b_c1_elab_chemspace_filtered_scored_top40percent,openbind_xx01zvns2b_c1_elab_chemspace_filtered_scored_top20percent,openbind_xx01zvns2b_c1_elab_chemspace_filtered_scored_top60percent,openbind_xx01zvns2b_c1_elabs_filtered

>  <smiles>  (505) 
Cc1nccc(-n2ccc(NC(=O)[C@H]3CCC(=O)N(Cc4ccccc4)C3)n2)c1Cl

>  <subsites>  (505) 
1 - Z4590/B/203/1

>  <gnina_score>  (505) 
6.01

>  <HIPPO Pose ID>  (505) 
70553

>  <ref_mols>  (505) 
Z0788a,Z0969a

>  <energy_score>  (505) 
-10.720117

>  <inspiration_score>  (505) 
None

>  <smina_score_min>  (505) 
-6.545

>  <fragmenstein_error>  (505) 
nan

>  <name>  (505) 
P70553

$$$$
P70554
     RDKit          3D

 26 28  0  0  0  0  0  0  0  0999 V2000
   -4.5986    4.3751  -22.0963 C   0  0  0  0  0  0  0  0  0  0  0  0
   -5.0788    4.8279  -20.8496 O   0  0  0  0  0  0  0  0  0  0  0  0
   -6.1275    4.1402  -20.2895 C   0  0  0  0  0  0  0  0  0  0  0  0
   -6.6620    3.1593  -20.7996 O   0  0  0  0  0  0  0  0  0  0  0  0
   -6.4175    4.7022  -18.9697 C   0  0  0  0  0  0  0  0  0  0  0  0
   -5.8183    5.8828  -18.5783 C   0  0  0  0  0  0  0  0  0  0  0  0
   -6.1329    6.2093  -16.9763 S   0  0  0  0  0  0  0  0  0  0  0  0
   -7.1183    4.8026  -16.8570 C   0  0  0  0  0  0  0  0  0  0  0  0
   -7.6713    4.4538  -15.4948 C   0  0  0  0  0  0  0  0  0  0  0  0
   -6.5530    4.3802  -14.5715 N   0  0  0  0  0  0  0  0  0  0  0  0
   -5.8005    5.5040  -13.8071 C   0  0  0  0  0  0  0  0  0  0  0  0
   -6.0148    6.6511  -13.7438 O   0  0  0  0  0  0  0  0  0  0  0  0
   -4.5544    4.8702  -13.1622 C   0  0  2  0  0  0  0  0  0  0  0  0
   -4.8103    4.7561  -11.6601 C   0  0  0  0  0  0  0  0  0  0  0  0
   -3.2913    5.7357  -13.4496 C   0  0  0  0  0  0  0  0  0  0  0  0
   -2.7138    5.8180  -14.8636 C   0  0  0  0  0  0  0  0  0  0  0  0
   -3.2564    5.1119  -15.9294 C   0  0  0  0  0  0  0  0  0  0  0  0
   -2.8282    5.1549  -17.2121 N   0  0  0  0  0  0  0  0  0  0  0  0
   -1.7601    5.9289  -17.4652 C   0  0  0  0  0  0  0  0  0  0  0  0
   -1.0914    6.6646  -16.4921 C   0  0  0  0  0  0  0  0  0  0  0  0
    0.0355    7.4398  -16.8173 C   0  0  0  0  0  0  0  0  0  0  0  0
    0.6940    8.1809  -15.8391 C   0  0  0  0  0  0  0  0  0  0  0  0
    0.2324    8.1557  -14.5289 C   0  0  0  0  0  0  0  0  0  0  0  0
   -0.8867    7.3872  -14.1937 C   0  0  0  0  0  0  0  0  0  0  0  0
   -1.5781    6.6201  -15.1590 C   0  0  0  0  0  0  0  0  0  0  0  0
   -7.2187    4.1086  -17.9782 N   0  0  0  0  0  0  0  0  0  0  0  0
  1  2  1  0
  2  3  1  0
  3  4  2  0
  3  5  1  0
  5  6  2  0
  6  7  1  0
  7  8  1  0
  8  9  1  0
  9 10  1  0
 10 11  1  0
 11 12  2  0
 11 13  1  0
 13 14  1  1
 13 15  1  0
 15 16  1  0
 16 17  2  0
 17 18  1  0
 18 19  2  0
 19 20  1  0
 20 21  2  0
 21 22  1  0
 22 23  2  0
 23 24  1  0
 24 25  2  0
  8 26  2  0
 26  5  1  0
 25 16  1  0
 25 20  1  0
M  END
>  <fragmenstein_outcome>  (506) 
nan

>  <exports>  (506) 
['/opt/xchem-fragalysis-2/maxwin/openbind-hippo/xx01zvns2b/cycle_01/syndirella/elabs/openbind_xx01zvns2b_c1_elab_chemspace_filtered.sdf']

>  <Energy>  (506) 
nan

>  <alias>  (506) 
None

>  <fragmenstein_runtime>  (506) 
nan

>  <scratch_subdir>  (506) 
nan

>  <HIPPO Compound ID>  (506) 
142643

>  <rmsd(smina/fragmenstein)>  (506) 
2.919

>  <distance_score>  (506) 
1.978371

>  <orig_smiles>  (506) 
nan

>  <fragmenstein_mode>  (506) 
nan

>  <inchikey>  (506) 
HQEUDGAIYXAAFD-GFCCVEGCSA-N

>  <ref_pdb>  (506) 
Z1274a

>  <GNINA pK>  (506) 
nan

>  <gnina_score_min>  (506) 
5.574

>  <tags>  (506) 
openbind_xx01zvns2b_c1_elab_nonasap_filtered_scored_top80percent,openbind_xx01zvns2b_c1_elab_chemspace_filtered_scored_top80percent,openbind_xx01zvns2b_c1_elab_chemspace_filtered_scored,openbind_xx01zvns2b_c1_elab_chemspace_filtered_scored_top40percent,openbind_xx01zvns2b_c1_elab_chemspace_filtered_scored_top20percent,openbind_xx01zvns2b_c1_elab_chemspace_filtered_scored_top60percent,openbind_xx01zvns2b_c1_elabs_filtered

>  <smiles>  (506) 
COC(=O)c1csc(CNC(=O)[C@H](C)Cc2cncc3ccccc23)n1

>  <subsites>  (506) 
1 - Z4590/B/203/1

>  <gnina_score>  (506) 
5.605

>  <HIPPO Pose ID>  (506) 
70554

>  <ref_mols>  (506) 
Z0673a,Z1274a

>  <energy_score>  (506) 
-26.778594

>  <inspiration_score>  (506) 
None

>  <smina_score_min>  (506) 
-4.334

>  <fragmenstein_error>  (506) 
nan

>  <name>  (506) 
P70554

$$$$
P70555
     RDKit          3D

 28 30  0  0  0  0  0  0  0  0999 V2000
   -3.4739    5.3015  -21.4677 C   0  0  0  0  0  0  0  0  0  0  0  0
   -4.3498    6.3395  -20.7977 C   0  0  0  0  0  0  0  0  0  0  0  0
   -5.2866    5.6083  -20.0175 O   0  0  0  0  0  0  0  0  0  0  0  0
   -6.0250    6.3065  -19.1175 C   0  0  0  0  0  0  0  0  0  0  0  0
   -5.9728    7.5290  -18.9869 O   0  0  0  0  0  0  0  0  0  0  0  0
   -6.8647    5.4375  -18.2885 C   0  0  0  0  0  0  0  0  0  0  0  0
   -7.1576    5.7831  -16.9812 N   0  0  0  0  0  0  0  0  0  0  0  0
   -7.9098    4.8672  -16.3922 C   0  0  0  0  0  0  0  0  0  0  0  0
   -8.1407    4.9065  -14.9116 C   0  0  0  0  0  0  0  0  0  0  0  0
   -6.9617    5.5902  -14.4342 N   0  0  0  0  0  0  0  0  0  0  0  0
   -6.3639    5.6822  -13.0215 C   0  0  0  0  0  0  0  0  0  0  0  0
   -6.7674    5.2863  -12.0045 O   0  0  0  0  0  0  0  0  0  0  0  0
   -4.9811    6.3467  -13.1866 C   0  0  2  0  0  0  0  0  0  0  0  0
   -5.0573    7.7490  -13.7840 C   0  0  0  0  0  0  0  0  0  0  0  0
   -4.0442    5.3329  -13.8922 C   0  0  0  0  0  0  0  0  0  0  0  0
   -3.3909    5.6599  -15.2179 C   0  0  0  0  0  0  0  0  0  0  0  0
   -3.9458    5.1493  -16.3882 C   0  0  0  0  0  0  0  0  0  0  0  0
   -3.4004    5.2432  -17.6187 N   0  0  0  0  0  0  0  0  0  0  0  0
   -2.2141    5.8744  -17.7001 C   0  0  0  0  0  0  0  0  0  0  0  0
   -1.5525    6.4444  -16.6141 C   0  0  0  0  0  0  0  0  0  0  0  0
   -0.3148    7.0921  -16.7730 C   0  0  0  0  0  0  0  0  0  0  0  0
    0.3379    7.6541  -15.6784 C   0  0  0  0  0  0  0  0  0  0  0  0
   -0.2378    7.5724  -14.4164 C   0  0  0  0  0  0  0  0  0  0  0  0
   -1.4658    6.9262  -14.2463 C   0  0  0  0  0  0  0  0  0  0  0  0
   -2.1563    6.3477  -15.3357 C   0  0  0  0  0  0  0  0  0  0  0  0
   -8.4375    3.6171  -17.4077 S   0  0  0  0  0  0  0  0  0  0  0  0
   -7.4038    4.2197  -18.6173 C   0  0  0  0  0  0  0  0  0  0  0  0
   -7.1092    3.3126  -20.2446 Br  0  0  0  0  0  0  0  0  0  0  0  0
  1  2  1  0
  2  3  1  0
  3  4  1  0
  4  5  2  0
  4  6  1  0
  6  7  1  0
  7  8  2  0
  8  9  1  0
  9 10  1  0
 10 11  1  0
 11 12  2  0
 11 13  1  0
 13 14  1  6
 13 15  1  0
 15 16  1  0
 16 17  2  0
 17 18  1  0
 18 19  2  0
 19 20  1  0
 20 21  2  0
 21 22  1  0
 22 23  2  0
 23 24  1  0
 24 25  2  0
  8 26  1  0
 26 27  1  0
 27 28  1  0
 27  6  2  0
 25 16  1  0
 25 20  1  0
M  END
>  <fragmenstein_outcome>  (507) 
nan

>  <exports>  (507) 
['/opt/xchem-fragalysis-2/maxwin/openbind-hippo/xx01zvns2b/cycle_01/syndirella/elabs/openbind_xx01zvns2b_c1_elab_chemspace_filtered.sdf']

>  <Energy>  (507) 
nan

>  <alias>  (507) 
None

>  <fragmenstein_runtime>  (507) 
nan

>  <scratch_subdir>  (507) 
nan

>  <HIPPO Compound ID>  (507) 
142648

>  <rmsd(smina/fragmenstein)>  (507) 
3.647

>  <distance_score>  (507) 
1.84002

>  <orig_smiles>  (507) 
nan

>  <fragmenstein_mode>  (507) 
nan

>  <inchikey>  (507) 
GSGZYFUTUVOXOK-GFCCVEGCSA-N

>  <ref_pdb>  (507) 
Z1274a

>  <GNINA pK>  (507) 
nan

>  <gnina_score_min>  (507) 
5.45

>  <tags>  (507) 
openbind_xx01zvns2b_c1_elab_nonasap_filtered_scored_top80percent,openbind_xx01zvns2b_c1_elab_chemspace_filtered_scored_top80percent,openbind_xx01zvns2b_c1_elab_chemspace_filtered_scored,openbind_xx01zvns2b_c1_elab_chemspace_filtered_scored_top40percent,openbind_xx01zvns2b_c1_elab_chemspace_filtered_scored_top20percent,openbind_xx01zvns2b_c1_elab_chemspace_filtered_scored_top60percent,openbind_xx01zvns2b_c1_elabs_filtered

>  <smiles>  (507) 
CCOC(=O)c1nc(CNC(=O)[C@H](C)Cc2cncc3ccccc23)sc1Br

>  <subsites>  (507) 
1 - Z4590/B/203/1

>  <gnina_score>  (507) 
5.841

>  <HIPPO Pose ID>  (507) 
70555

>  <ref_mols>  (507) 
Z0673a,Z1274a

>  <energy_score>  (507) 
-49.09299

>  <inspiration_score>  (507) 
None

>  <smina_score_min>  (507) 
-5.083

>  <fragmenstein_error>  (507) 
nan

>  <name>  (507) 
P70555

$$$$
P70579
     RDKit          3D

 21 23  0  0  0  0  0  0  0  0999 V2000
   -9.7413    3.1049   -5.6393 C   0  0  0  0  0  0  0  0  0  0  0  0
   -8.9770    4.3136   -5.9614 N   0  0  0  0  0  0  0  0  0  0  0  0
   -9.1019    5.4122   -5.0161 C   0  0  0  0  0  0  0  0  0  0  0  0
   -8.7119    4.5676   -7.3150 C   0  0  0  0  0  0  0  0  0  0  0  0
   -8.4571    5.8742   -7.7978 C   0  0  0  0  0  0  0  0  0  0  0  0
   -8.1982    6.1436   -9.1454 C   0  0  0  0  0  0  0  0  0  0  0  0
   -8.1855    5.0902  -10.0276 C   0  0  0  0  0  0  0  0  0  0  0  0
   -8.4097    3.7961   -9.5982 C   0  0  0  0  0  0  0  0  0  0  0  0
   -8.6572    3.5198   -8.2594 C   0  0  0  0  0  0  0  0  0  0  0  0
   -8.2969    2.8709  -10.7734 C   0  0  0  0  0  0  0  0  0  0  0  0
   -8.2552    3.7659  -11.9816 N   0  0  0  0  0  0  0  0  0  0  0  0
   -7.3310    3.3214  -13.0479 C   0  0  0  0  0  0  0  0  0  0  0  0
   -7.3918    4.0630  -14.4152 C   0  0  0  0  0  0  0  0  0  0  0  0
   -8.5753    4.0839  -15.1483 C   0  0  0  0  0  0  0  0  0  0  0  0
   -8.5450    4.4112  -16.5046 C   0  0  0  0  0  0  0  0  0  0  0  0
   -9.9306    4.2126  -17.5033 Cl  0  0  0  0  0  0  0  0  0  0  0  0
   -7.3753    4.8235  -17.1006 C   0  0  0  0  0  0  0  0  0  0  0  0
   -6.2669    4.8665  -16.2917 C   0  0  0  0  0  0  0  0  0  0  0  0
   -4.7759    5.3793  -16.9692 Cl  0  0  0  0  0  0  0  0  0  0  0  0
   -6.2298    4.4977  -14.9819 N   0  0  0  0  0  0  0  0  0  0  0  0
   -7.8955    5.1031  -11.4857 C   0  0  0  0  0  0  0  0  0  0  0  0
  1  2  1  0
  2  3  1  0
  2  4  1  0
  4  5  2  0
  5  6  1  0
  6  7  2  0
  7  8  1  0
  8  9  2  0
  8 10  1  0
 10 11  1  0
 11 12  1  0
 12 13  1  0
 13 14  2  0
 14 15  1  0
 15 16  1  0
 15 17  2  0
 17 18  1  0
 18 19  1  0
 18 20  2  0
 11 21  1  0
  9  4  1  0
 20 13  1  0
 21  7  1  0
M  END
>  <fragmenstein_outcome>  (508) 
nan

>  <exports>  (508) 
['/opt/xchem-fragalysis-2/maxwin/openbind-hippo/xx01zvns2b/cycle_01/syndirella/elabs/openbind_xx01zvns2b_c1_elab_chemspace_filtered.sdf']

>  <Energy>  (508) 
nan

>  <alias>  (508) 
None

>  <fragmenstein_runtime>  (508) 
nan

>  <scratch_subdir>  (508) 
nan

>  <HIPPO Compound ID>  (508) 
142742

>  <rmsd(smina/fragmenstein)>  (508) 
1.299

>  <distance_score>  (508) 
1.978292

>  <orig_smiles>  (508) 
nan

>  <fragmenstein_mode>  (508) 
nan

>  <inchikey>  (508) 
QSVXDEKNCYVSOW-UHFFFAOYSA-N

>  <ref_pdb>  (508) 
Z0945a

>  <GNINA pK>  (508) 
nan

>  <gnina_score_min>  (508) 
5.372

>  <tags>  (508) 
openbind_xx01zvns2b_c1_elab_nonasap_filtered_scored_top80percent,openbind_xx01zvns2b_c1_elab_chemspace_filtered_scored_top80percent,openbind_xx01zvns2b_c1_elab_chemspace_filtered_scored,openbind_xx01zvns2b_c1_elab_chemspace_filtered_scored_top40percent,openbind_xx01zvns2b_c1_elab_chemspace_filtered_scored_top20percent,openbind_xx01zvns2b_c1_elab_chemspace_filtered_scored_top60percent,openbind_xx01zvns2b_c1_elabs_filtered

>  <smiles>  (508) 
CN(C)c1ccc2c(c1)CN(Cc1cc(Cl)cc(Cl)n1)C2

>  <subsites>  (508) 
1 - Z4590/B/203/1

>  <gnina_score>  (508) 
4.937

>  <HIPPO Pose ID>  (508) 
70579

>  <ref_mols>  (508) 
Z0945a,Z0969a

>  <energy_score>  (508) 
-17.169368

>  <inspiration_score>  (508) 
None

>  <smina_score_min>  (508) 
-7.184

>  <fragmenstein_error>  (508) 
nan

>  <name>  (508) 
P70579

$$$$
P70589
     RDKit          3D

 25 28  0  0  0  0  0  0  0  0999 V2000
   -4.4302    7.0850  -17.2351 C   0  0  0  0  0  0  0  0  0  0  0  0
   -5.2607    6.2429  -16.3094 C   0  0  0  0  0  0  0  0  0  0  0  0
   -4.8695    6.1529  -14.9760 C   0  0  0  0  0  0  0  0  0  0  0  0
   -5.6377    5.4445  -14.0645 C   0  0  0  0  0  0  0  0  0  0  0  0
   -6.8579    4.8498  -14.4115 C   0  0  0  0  0  0  0  0  0  0  0  0
   -7.5995    4.1520  -13.3340 C   0  0  0  0  0  0  0  0  0  0  0  0
   -7.9742    3.0569  -13.4825 O   0  0  0  0  0  0  0  0  0  0  0  0
   -7.6480    5.0702  -12.0852 N   0  0  0  0  0  0  0  0  0  0  0  0
   -8.0654    4.8058  -10.7862 C   0  0  0  0  0  0  0  0  0  0  0  0
   -7.9141    5.8653   -9.8663 C   0  0  0  0  0  0  0  0  0  0  0  0
   -8.1686    5.6841   -8.5089 C   0  0  0  0  0  0  0  0  0  0  0  0
   -8.5736    4.4322   -8.0939 C   0  0  0  0  0  0  0  0  0  0  0  0
   -8.7427    3.3880   -9.0020 C   0  0  0  0  0  0  0  0  0  0  0  0
   -8.4964    3.5535  -10.3594 C   0  0  0  0  0  0  0  0  0  0  0  0
   -9.2116    2.1689   -8.2711 C   0  0  0  0  0  0  0  0  0  0  0  0
   -9.2125    2.5406   -6.8372 N   0  0  0  0  0  0  0  0  0  0  0  0
  -10.3996    2.1231   -6.1208 C   0  0  0  0  0  0  0  0  0  0  0  0
   -8.9201    3.9716   -6.7168 C   0  0  0  0  0  0  0  0  0  0  0  0
   -7.2024    4.8527  -15.7644 C   0  0  0  0  0  0  0  0  0  0  0  0
   -8.2690    4.2974  -16.4497 N   0  0  0  0  0  0  0  0  0  0  0  0
   -8.0729    4.4287  -17.8033 C   0  0  0  0  0  0  0  0  0  0  0  0
   -6.8742    5.0809  -17.9880 C   0  0  0  0  0  0  0  0  0  0  0  0
   -6.1334    5.2570  -19.1974 C   0  0  0  0  0  0  0  0  0  0  0  0
   -5.3839    5.4370  -20.0668 N   0  0  0  0  0  0  0  0  0  0  0  0
   -6.3861    5.4785  -16.7153 C   0  0  0  0  0  0  0  0  0  0  0  0
  1  2  1  0
  2  3  2  0
  3  4  1  0
  4  5  2  0
  5  6  1  0
  6  7  2  0
  6  8  1  0
  8  9  1  0
  9 10  2  0
 10 11  1  0
 11 12  2  0
 12 13  1  0
 13 14  2  0
 13 15  1  0
 15 16  1  0
 16 17  1  0
 16 18  1  0
  5 19  1  0
 19 20  1  0
 20 21  1  0
 21 22  2  0
 22 23  1  0
 23 24  3  0
 22 25  1  0
 25  2  1  0
 14  9  1  0
 25 19  2  0
 18 12  1  0
M  END
>  <fragmenstein_outcome>  (509) 
nan

>  <exports>  (509) 
['/opt/xchem-fragalysis-2/maxwin/openbind-hippo/xx01zvns2b/cycle_01/syndirella/elabs/openbind_xx01zvns2b_c1_elab_chemspace_filtered.sdf']

>  <Energy>  (509) 
nan

>  <alias>  (509) 
None

>  <fragmenstein_runtime>  (509) 
nan

>  <scratch_subdir>  (509) 
nan

>  <HIPPO Compound ID>  (509) 
142775

>  <rmsd(smina/fragmenstein)>  (509) 
0.994

>  <distance_score>  (509) 
1.737767

>  <orig_smiles>  (509) 
nan

>  <fragmenstein_mode>  (509) 
nan

>  <inchikey>  (509) 
KVRFXEPKYXPRMR-UHFFFAOYSA-N

>  <ref_pdb>  (509) 
Z3842a

>  <GNINA pK>  (509) 
nan

>  <gnina_score_min>  (509) 
5.188

>  <tags>  (509) 
openbind_xx01zvns2b_c1_elab_chemspace_filtered_scored_top80percent,openbind_xx01zvns2b_c1_elab_chemspace_filtered_scored,openbind_xx01zvns2b_c1_elab_chemspace_filtered_scored_top40percent,openbind_xx01zvns2b_c1_elab_chemspace_filtered_scored_top20percent,openbind_xx01zvns2b_c1_elab_chemspace_filtered_scored_top60percent,openbind_xx01zvns2b_c1_elabs_filtered

>  <smiles>  (509) 
Cc1ccc(C(=O)Nc2ccc3c(c2)CN(C)C3)c2[nH]cc(C#N)c12

>  <subsites>  (509) 
1 - Z4590/B/203/1

>  <gnina_score>  (509) 
5.504

>  <HIPPO Pose ID>  (509) 
70589

>  <ref_mols>  (509) 
Z4983a,Z3842a

>  <energy_score>  (509) 
-17.634948

>  <inspiration_score>  (509) 
None

>  <smina_score_min>  (509) 
-7.723

>  <fragmenstein_error>  (509) 
nan

>  <name>  (509) 
P70589

$$$$
P70590
     RDKit          3D

 25 28  0  0  0  0  0  0  0  0999 V2000
   -4.4431    7.1085  -17.2320 C   0  0  0  0  0  0  0  0  0  0  0  0
   -5.2868    6.2779  -16.3078 C   0  0  0  0  0  0  0  0  0  0  0  0
   -4.9236    6.2175  -14.9645 C   0  0  0  0  0  0  0  0  0  0  0  0
   -5.7016    5.5163  -14.0550 C   0  0  0  0  0  0  0  0  0  0  0  0
   -6.9029    4.8938  -14.4172 C   0  0  0  0  0  0  0  0  0  0  0  0
   -7.6542    4.1814  -13.3548 C   0  0  0  0  0  0  0  0  0  0  0  0
   -8.0573    3.1020  -13.5367 O   0  0  0  0  0  0  0  0  0  0  0  0
   -7.6706    5.0575  -12.0764 N   0  0  0  0  0  0  0  0  0  0  0  0
   -8.0850    4.7603  -10.7844 C   0  0  0  0  0  0  0  0  0  0  0  0
   -7.9651    5.8077   -9.8418 C   0  0  0  0  0  0  0  0  0  0  0  0
   -8.1998    5.5854   -8.4873 C   0  0  0  0  0  0  0  0  0  0  0  0
   -8.5599    4.3073   -8.1194 C   0  0  0  0  0  0  0  0  0  0  0  0
   -8.7073    3.2683   -9.0374 C   0  0  0  0  0  0  0  0  0  0  0  0
   -8.4718    3.4789  -10.3883 C   0  0  0  0  0  0  0  0  0  0  0  0
   -9.0798    2.0178   -8.3134 C   0  0  0  0  0  0  0  0  0  0  0  0
   -9.2283    2.4742   -6.9428 N   0  0  0  0  0  0  0  0  0  0  0  0
   -8.8359    3.7825   -6.7794 C   0  0  0  0  0  0  0  0  0  0  0  0
   -8.7124    4.4081   -5.7428 O   0  0  0  0  0  0  0  0  0  0  0  0
   -7.2238    4.8776  -15.7765 C   0  0  0  0  0  0  0  0  0  0  0  0
   -8.2741    4.3021  -16.4707 N   0  0  0  0  0  0  0  0  0  0  0  0
   -8.0629    4.4247  -17.8222 C   0  0  0  0  0  0  0  0  0  0  0  0
   -6.8678    5.0858  -17.9977 C   0  0  0  0  0  0  0  0  0  0  0  0
   -6.1182    5.2593  -19.2020 C   0  0  0  0  0  0  0  0  0  0  0  0
   -5.3655    5.4380  -20.0687 N   0  0  0  0  0  0  0  0  0  0  0  0
   -6.3993    5.4996  -16.7224 C   0  0  0  0  0  0  0  0  0  0  0  0
  1  2  1  0
  2  3  2  0
  3  4  1  0
  4  5  2  0
  5  6  1  0
  6  7  2  0
  6  8  1  0
  8  9  1  0
  9 10  2  0
 10 11  1  0
 11 12  2  0
 12 13  1  0
 13 14  2  0
 13 15  1  0
 15 16  1  0
 16 17  1  0
 17 18  2  0
  5 19  1  0
 19 20  1  0
 20 21  1  0
 21 22  2  0
 22 23  1  0
 23 24  3  0
 22 25  1  0
 25  2  1  0
 14  9  1  0
 25 19  2  0
 17 12  1  0
M  END
>  <fragmenstein_outcome>  (510) 
nan

>  <exports>  (510) 
['/opt/xchem-fragalysis-2/maxwin/openbind-hippo/xx01zvns2b/cycle_01/syndirella/elabs/openbind_xx01zvns2b_c1_elab_chemspace_filtered.sdf']

>  <Energy>  (510) 
nan

>  <alias>  (510) 
None

>  <fragmenstein_runtime>  (510) 
nan

>  <scratch_subdir>  (510) 
nan

>  <HIPPO Compound ID>  (510) 
142776

>  <rmsd(smina/fragmenstein)>  (510) 
0.89

>  <distance_score>  (510) 
1.738635

>  <orig_smiles>  (510) 
nan

>  <fragmenstein_mode>  (510) 
nan

>  <inchikey>  (510) 
FGLZBOIZXZCTGP-UHFFFAOYSA-N

>  <ref_pdb>  (510) 
Z3842a

>  <GNINA pK>  (510) 
nan

>  <gnina_score_min>  (510) 
5.271

>  <tags>  (510) 
openbind_xx01zvns2b_c1_elab_chemspace_filtered_scored_top80percent,openbind_xx01zvns2b_c1_elab_chemspace_filtered_scored,openbind_xx01zvns2b_c1_elab_chemspace_filtered_scored_top40percent,openbind_xx01zvns2b_c1_elab_chemspace_filtered_scored_top20percent,openbind_xx01zvns2b_c1_elab_chemspace_filtered_scored_top60percent,openbind_xx01zvns2b_c1_elabs_filtered

>  <smiles>  (510) 
Cc1ccc(C(=O)Nc2ccc3c(c2)CNC3=O)c2[nH]cc(C#N)c12

>  <subsites>  (510) 
1 - Z4590/B/203/1

>  <gnina_score>  (510) 
5.462

>  <HIPPO Pose ID>  (510) 
70590

>  <ref_mols>  (510) 
Z4983a,Z3842a

>  <energy_score>  (510) 
-31.31566

>  <inspiration_score>  (510) 
None

>  <smina_score_min>  (510) 
-7.78

>  <fragmenstein_error>  (510) 
nan

>  <name>  (510) 
P70590

$$$$
P70595
     RDKit          3D

 26 29  0  0  0  0  0  0  0  0999 V2000
   -4.4012    7.0894  -17.2628 C   0  0  0  0  0  0  0  0  0  0  0  0
   -5.2142    6.2240  -16.3430 C   0  0  0  0  0  0  0  0  0  0  0  0
   -4.8000    6.1035  -15.0192 C   0  0  0  0  0  0  0  0  0  0  0  0
   -5.5545    5.3763  -14.1121 C   0  0  0  0  0  0  0  0  0  0  0  0
   -6.7825    4.7944  -14.4534 C   0  0  0  0  0  0  0  0  0  0  0  0
   -7.5185    4.0998  -13.3726 C   0  0  0  0  0  0  0  0  0  0  0  0
   -7.8939    3.0037  -13.5086 O   0  0  0  0  0  0  0  0  0  0  0  0
   -7.5605    5.0295  -12.1329 N   0  0  0  0  0  0  0  0  0  0  0  0
   -7.9707    4.7779  -10.8313 C   0  0  0  0  0  0  0  0  0  0  0  0
   -7.7990    5.8469   -9.9209 C   0  0  0  0  0  0  0  0  0  0  0  0
   -8.0837    5.6915   -8.5688 C   0  0  0  0  0  0  0  0  0  0  0  0
   -8.5337    4.4531   -8.1688 C   0  0  0  0  0  0  0  0  0  0  0  0
   -8.7211    3.3906   -9.0538 C   0  0  0  0  0  0  0  0  0  0  0  0
   -8.4383    3.5355  -10.4037 C   0  0  0  0  0  0  0  0  0  0  0  0
   -9.2828    2.2212   -8.3154 C   0  0  0  0  0  0  0  0  0  0  0  0
   -9.4345    2.7483   -6.9636 N   0  0  0  0  0  0  0  0  0  0  0  0
  -10.2630    2.0943   -5.9866 C   0  0  0  0  0  0  0  0  0  0  0  0
   -9.0047    4.0512   -6.8414 C   0  0  0  0  0  0  0  0  0  0  0  0
   -9.0581    4.7968   -5.8794 O   0  0  0  0  0  0  0  0  0  0  0  0
   -7.1505    4.8257  -15.7986 C   0  0  0  0  0  0  0  0  0  0  0  0
   -8.2313    4.2922  -16.4788 N   0  0  0  0  0  0  0  0  0  0  0  0
   -8.0490    4.4424  -17.8325 C   0  0  0  0  0  0  0  0  0  0  0  0
   -6.8497    5.0923  -18.0201 C   0  0  0  0  0  0  0  0  0  0  0  0
   -6.1176    5.2828  -19.2321 C   0  0  0  0  0  0  0  0  0  0  0  0
   -5.3715    5.4741  -20.1019 N   0  0  0  0  0  0  0  0  0  0  0  0
   -6.3459    5.4681  -16.7476 C   0  0  0  0  0  0  0  0  0  0  0  0
  1  2  1  0
  2  3  2  0
  3  4  1  0
  4  5  2  0
  5  6  1  0
  6  7  2  0
  6  8  1  0
  8  9  1  0
  9 10  2  0
 10 11  1  0
 11 12  2  0
 12 13  1  0
 13 14  2  0
 13 15  1  0
 15 16  1  0
 16 17  1  0
 16 18  1  0
 18 19  2  0
  5 20  1  0
 20 21  1  0
 21 22  1  0
 22 23  2  0
 23 24  1  0
 24 25  3  0
 23 26  1  0
 26  2  1  0
 14  9  1  0
 26 20  2  0
 18 12  1  0
M  END
>  <fragmenstein_outcome>  (511) 
nan

>  <exports>  (511) 
['/opt/xchem-fragalysis-2/maxwin/openbind-hippo/xx01zvns2b/cycle_01/syndirella/elabs/openbind_xx01zvns2b_c1_elab_chemspace_filtered.sdf']

>  <Energy>  (511) 
nan

>  <alias>  (511) 
None

>  <fragmenstein_runtime>  (511) 
nan

>  <scratch_subdir>  (511) 
nan

>  <HIPPO Compound ID>  (511) 
142782

>  <rmsd(smina/fragmenstein)>  (511) 
0.85

>  <distance_score>  (511) 
1.738688

>  <orig_smiles>  (511) 
nan

>  <fragmenstein_mode>  (511) 
nan

>  <inchikey>  (511) 
OXUNGLHHHLRIFN-UHFFFAOYSA-N

>  <ref_pdb>  (511) 
Z3842a

>  <GNINA pK>  (511) 
nan

>  <gnina_score_min>  (511) 
5.298

>  <tags>  (511) 
openbind_xx01zvns2b_c1_elab_chemspace_filtered_scored_top80percent,openbind_xx01zvns2b_c1_elab_chemspace_filtered_scored,openbind_xx01zvns2b_c1_elab_chemspace_filtered_scored_top40percent,openbind_xx01zvns2b_c1_elab_chemspace_filtered_scored_top20percent,openbind_xx01zvns2b_c1_elab_chemspace_filtered_scored_top60percent,openbind_xx01zvns2b_c1_elabs_filtered

>  <smiles>  (511) 
Cc1ccc(C(=O)Nc2ccc3c(c2)CN(C)C3=O)c2[nH]cc(C#N)c12

>  <subsites>  (511) 
1 - Z4590/B/203/1

>  <gnina_score>  (511) 
5.544

>  <HIPPO Pose ID>  (511) 
70595

>  <ref_mols>  (511) 
Z4983a,Z3842a

>  <energy_score>  (511) 
-24.206856

>  <inspiration_score>  (511) 
None

>  <smina_score_min>  (511) 
-8.007

>  <fragmenstein_error>  (511) 
nan

>  <name>  (511) 
P70595

$$$$
P70597
     RDKit          3D

 27 30  0  0  0  0  0  0  0  0999 V2000
   -4.4031    7.0397  -17.1795 C   0  0  0  0  0  0  0  0  0  0  0  0
   -5.2299    6.1769  -16.2690 C   0  0  0  0  0  0  0  0  0  0  0  0
   -4.8240    6.0404  -14.9440 C   0  0  0  0  0  0  0  0  0  0  0  0
   -5.5932    5.3186  -14.0427 C   0  0  0  0  0  0  0  0  0  0  0  0
   -6.8281    4.7553  -14.3902 C   0  0  0  0  0  0  0  0  0  0  0  0
   -7.6043    4.0749  -13.3210 C   0  0  0  0  0  0  0  0  0  0  0  0
   -8.0801    3.0259  -13.5011 O   0  0  0  0  0  0  0  0  0  0  0  0
   -7.5366    4.9396  -12.0372 N   0  0  0  0  0  0  0  0  0  0  0  0
   -7.9420    4.6594  -10.7379 C   0  0  0  0  0  0  0  0  0  0  0  0
   -7.6847    5.6913   -9.8003 C   0  0  0  0  0  0  0  0  0  0  0  0
   -7.9680    5.5297   -8.4476 C   0  0  0  0  0  0  0  0  0  0  0  0
   -8.5143    4.3233   -8.0724 C   0  0  0  0  0  0  0  0  0  0  0  0
   -8.7885    3.3150   -8.9821 C   0  0  0  0  0  0  0  0  0  0  0  0
   -8.5038    3.4475  -10.3339 C   0  0  0  0  0  0  0  0  0  0  0  0
   -9.5024    2.2714   -8.2416 C   0  0  0  0  0  0  0  0  0  0  0  0
  -10.0258    1.3029   -8.7513 O   0  0  0  0  0  0  0  0  0  0  0  0
   -9.5662    2.6839   -6.9352 N   0  0  0  0  0  0  0  0  0  0  0  0
  -10.3963    2.0414   -5.9501 C   0  0  0  0  0  0  0  0  0  0  0  0
   -9.0221    3.9200   -6.7662 C   0  0  0  0  0  0  0  0  0  0  0  0
   -9.0086    4.6476   -5.7884 O   0  0  0  0  0  0  0  0  0  0  0  0
   -7.1845    4.7993  -15.7407 C   0  0  0  0  0  0  0  0  0  0  0  0
   -8.2676    4.2811  -16.4306 N   0  0  0  0  0  0  0  0  0  0  0  0
   -8.0800    4.4414  -17.7825 C   0  0  0  0  0  0  0  0  0  0  0  0
   -6.8752    5.0834  -17.9619 C   0  0  0  0  0  0  0  0  0  0  0  0
   -6.1439    5.2869  -19.1731 C   0  0  0  0  0  0  0  0  0  0  0  0
   -5.3986    5.4896  -20.0410 N   0  0  0  0  0  0  0  0  0  0  0  0
   -6.3687    5.4380  -16.6834 C   0  0  0  0  0  0  0  0  0  0  0  0
  1  2  1  0
  2  3  2  0
  3  4  1  0
  4  5  2  0
  5  6  1  0
  6  7  2  0
  6  8  1  0
  8  9  1  0
  9 10  2  0
 10 11  1  0
 11 12  2  0
 12 13  1  0
 13 14  2  0
 13 15  1  0
 15 16  2  0
 15 17  1  0
 17 18  1  0
 17 19  1  0
 19 20  2  0
  5 21  1  0
 21 22  1  0
 22 23  1  0
 23 24  2  0
 24 25  1  0
 25 26  3  0
 24 27  1  0
 27  2  1  0
 14  9  1  0
 27 21  2  0
 19 12  1  0
M  END
>  <fragmenstein_outcome>  (512) 
nan

>  <exports>  (512) 
['/opt/xchem-fragalysis-2/maxwin/openbind-hippo/xx01zvns2b/cycle_01/syndirella/elabs/openbind_xx01zvns2b_c1_elab_chemspace_filtered.sdf']

>  <Energy>  (512) 
nan

>  <alias>  (512) 
None

>  <fragmenstein_runtime>  (512) 
nan

>  <scratch_subdir>  (512) 
nan

>  <HIPPO Compound ID>  (512) 
142784

>  <rmsd(smina/fragmenstein)>  (512) 
0.942

>  <distance_score>  (512) 
1.743905

>  <orig_smiles>  (512) 
nan

>  <fragmenstein_mode>  (512) 
nan

>  <inchikey>  (512) 
OZSVJNHREJSTTK-UHFFFAOYSA-N

>  <ref_pdb>  (512) 
Z3842a

>  <GNINA pK>  (512) 
nan

>  <gnina_score_min>  (512) 
5.168

>  <tags>  (512) 
openbind_xx01zvns2b_c1_elab_chemspace_filtered_scored_top80percent,openbind_xx01zvns2b_c1_elab_chemspace_filtered_scored,openbind_xx01zvns2b_c1_elab_chemspace_filtered_scored_top40percent,openbind_xx01zvns2b_c1_elab_chemspace_filtered_scored_top20percent,openbind_xx01zvns2b_c1_elab_chemspace_filtered_scored_top60percent,openbind_xx01zvns2b_c1_elabs_filtered

>  <smiles>  (512) 
Cc1ccc(C(=O)Nc2ccc3c(c2)C(=O)N(C)C3=O)c2[nH]cc(C#N)c12

>  <subsites>  (512) 
1 - Z4590/B/203/1

>  <gnina_score>  (512) 
5.571

>  <HIPPO Pose ID>  (512) 
70597

>  <ref_mols>  (512) 
Z4983a,Z3842a

>  <energy_score>  (512) 
-21.721632

>  <inspiration_score>  (512) 
None

>  <smina_score_min>  (512) 
-7.956

>  <fragmenstein_error>  (512) 
nan

>  <name>  (512) 
P70597

$$$$
P70601
     RDKit          3D

 28 31  0  0  0  0  0  0  0  0999 V2000
   -4.2979    7.0390  -17.4269 C   0  0  0  0  0  0  0  0  0  0  0  0
   -5.1258    6.1755  -16.5202 C   0  0  0  0  0  0  0  0  0  0  0  0
   -4.7022    6.0135  -15.2052 C   0  0  0  0  0  0  0  0  0  0  0  0
   -5.4824    5.3063  -14.3079 C   0  0  0  0  0  0  0  0  0  0  0  0
   -6.7434    4.7982  -14.6516 C   0  0  0  0  0  0  0  0  0  0  0  0
   -7.5365    4.2040  -13.5600 C   0  0  0  0  0  0  0  0  0  0  0  0
   -8.0234    3.1497  -13.6474 O   0  0  0  0  0  0  0  0  0  0  0  0
   -7.4687    5.1797  -12.3642 N   0  0  0  0  0  0  0  0  0  0  0  0
   -7.8856    5.0264  -11.0565 C   0  0  0  0  0  0  0  0  0  0  0  0
   -7.6054    6.1260  -10.2149 C   0  0  0  0  0  0  0  0  0  0  0  0
   -7.7697    6.0370   -8.8421 C   0  0  0  0  0  0  0  0  0  0  0  0
   -8.2424    4.8446   -8.3499 C   0  0  0  0  0  0  0  0  0  0  0  0
   -8.5855    3.7717   -9.1870 C   0  0  0  0  0  0  0  0  0  0  0  0
   -8.3960    3.8351  -10.5533 C   0  0  0  0  0  0  0  0  0  0  0  0
   -9.1464    2.6671   -8.3442 C   0  0  0  0  0  0  0  0  0  0  0  0
   -9.4426    3.3745   -7.0717 N   0  0  0  0  0  0  0  0  0  0  0  0
   -9.5241    2.5076   -5.9116 C   0  0  0  0  0  0  0  0  0  0  0  0
  -10.9078    1.8943   -5.8160 C   0  0  0  0  0  0  0  0  0  0  0  0
  -11.2641    1.7495   -4.5216 F   0  0  0  0  0  0  0  0  0  0  0  0
  -10.9214    0.6766   -6.3953 F   0  0  0  0  0  0  0  0  0  0  0  0
   -8.4835    4.4597   -6.9350 C   0  0  0  0  0  0  0  0  0  0  0  0
   -7.1120    4.8434  -15.9901 C   0  0  0  0  0  0  0  0  0  0  0  0
   -8.2141    4.3566  -16.6687 N   0  0  0  0  0  0  0  0  0  0  0  0
   -8.0171    4.4940  -18.0210 C   0  0  0  0  0  0  0  0  0  0  0  0
   -6.7966    5.1063  -18.2020 C   0  0  0  0  0  0  0  0  0  0  0  0
   -6.0514    5.2820  -19.4064 C   0  0  0  0  0  0  0  0  0  0  0  0
   -5.2973    5.4644  -20.2711 N   0  0  0  0  0  0  0  0  0  0  0  0
   -6.2816    5.4597  -16.9309 C   0  0  0  0  0  0  0  0  0  0  0  0
  1  2  1  0
  2  3  2  0
  3  4  1  0
  4  5  2  0
  5  6  1  0
  6  7  2  0
  6  8  1  0
  8  9  1  0
  9 10  2  0
 10 11  1  0
 11 12  2  0
 12 13  1  0
 13 14  2  0
 13 15  1  0
 15 16  1  0
 16 17  1  0
 17 18  1  0
 18 19  1  0
 18 20  1  0
 16 21  1  0
  5 22  1  0
 22 23  1  0
 23 24  1  0
 24 25  2  0
 25 26  1  0
 26 27  3  0
 25 28  1  0
 28  2  1  0
 14  9  1  0
 28 22  2  0
 21 12  1  0
M  END
>  <fragmenstein_outcome>  (513) 
nan

>  <exports>  (513) 
['/opt/xchem-fragalysis-2/maxwin/openbind-hippo/xx01zvns2b/cycle_01/syndirella/elabs/openbind_xx01zvns2b_c1_elab_chemspace_filtered.sdf']

>  <Energy>  (513) 
nan

>  <alias>  (513) 
None

>  <fragmenstein_runtime>  (513) 
nan

>  <scratch_subdir>  (513) 
nan

>  <HIPPO Compound ID>  (513) 
142791

>  <rmsd(smina/fragmenstein)>  (513) 
0.87

>  <distance_score>  (513) 
1.760693

>  <orig_smiles>  (513) 
nan

>  <fragmenstein_mode>  (513) 
nan

>  <inchikey>  (513) 
WZMLJFYNWRLSBW-UHFFFAOYSA-N

>  <ref_pdb>  (513) 
Z3842a

>  <GNINA pK>  (513) 
nan

>  <gnina_score_min>  (513) 
5.466

>  <tags>  (513) 
openbind_xx01zvns2b_c1_elab_chemspace_filtered_scored_top80percent,openbind_xx01zvns2b_c1_elab_chemspace_filtered_scored,openbind_xx01zvns2b_c1_elab_chemspace_filtered_scored_top40percent,openbind_xx01zvns2b_c1_elab_chemspace_filtered_scored_top20percent,openbind_xx01zvns2b_c1_elab_chemspace_filtered_scored_top60percent,openbind_xx01zvns2b_c1_elabs_filtered

>  <smiles>  (513) 
Cc1ccc(C(=O)Nc2ccc3c(c2)CN(CC(F)F)C3)c2[nH]cc(C#N)c12

>  <subsites>  (513) 
1 - Z4590/B/203/1

>  <gnina_score>  (513) 
5.362

>  <HIPPO Pose ID>  (513) 
70601

>  <ref_mols>  (513) 
Z4983a,Z3842a

>  <energy_score>  (513) 
-9.200433

>  <inspiration_score>  (513) 
None

>  <smina_score_min>  (513) 
-7.583

>  <fragmenstein_error>  (513) 
nan

>  <name>  (513) 
P70601

$$$$
P70602
     RDKit          3D

 29 32  0  0  0  0  0  0  0  0999 V2000
   -4.3781    7.1204  -17.3640 C   0  0  0  0  0  0  0  0  0  0  0  0
   -5.2125    6.2594  -16.4604 C   0  0  0  0  0  0  0  0  0  0  0  0
   -4.8313    6.1510  -15.1260 C   0  0  0  0  0  0  0  0  0  0  0  0
   -5.6067    5.4274  -14.2360 C   0  0  0  0  0  0  0  0  0  0  0  0
   -6.8217    4.8371  -14.6099 C   0  0  0  0  0  0  0  0  0  0  0  0
   -7.5798    4.1493  -13.5470 C   0  0  0  0  0  0  0  0  0  0  0  0
   -7.9687    3.0591  -13.6795 O   0  0  0  0  0  0  0  0  0  0  0  0
   -7.6235    5.0861  -12.3186 N   0  0  0  0  0  0  0  0  0  0  0  0
   -8.0516    4.8514  -11.0248 C   0  0  0  0  0  0  0  0  0  0  0  0
   -7.9547    5.9500  -10.1469 C   0  0  0  0  0  0  0  0  0  0  0  0
   -8.1381    5.7849   -8.7821 C   0  0  0  0  0  0  0  0  0  0  0  0
   -8.4202    4.5127   -8.3302 C   0  0  0  0  0  0  0  0  0  0  0  0
   -8.5611    3.4325   -9.1972 C   0  0  0  0  0  0  0  0  0  0  0  0
   -8.3842    3.5817  -10.5612 C   0  0  0  0  0  0  0  0  0  0  0  0
   -8.8708    2.1972   -8.4134 C   0  0  0  0  0  0  0  0  0  0  0  0
   -8.9573    2.6444   -6.9962 N   0  0  0  0  0  0  0  0  0  0  0  0
  -10.2161    2.2461   -6.3607 C   0  0  0  0  0  0  0  0  0  0  0  0
  -10.6731    2.9633   -5.0895 C   0  0  0  0  0  0  0  0  0  0  0  0
  -11.7450    2.3422   -4.5473 F   0  0  0  0  0  0  0  0  0  0  0  0
   -9.7250    3.0839   -4.1382 F   0  0  0  0  0  0  0  0  0  0  0  0
  -11.0687    4.2312   -5.3808 F   0  0  0  0  0  0  0  0  0  0  0  0
   -8.6113    4.0668   -6.9270 C   0  0  0  0  0  0  0  0  0  0  0  0
   -7.1580    4.8585  -15.9590 C   0  0  0  0  0  0  0  0  0  0  0  0
   -8.2215    4.3167  -16.6572 N   0  0  0  0  0  0  0  0  0  0  0  0
   -8.0075    4.4586  -18.0057 C   0  0  0  0  0  0  0  0  0  0  0  0
   -6.8056    5.1112  -18.1680 C   0  0  0  0  0  0  0  0  0  0  0  0
   -6.0482    5.2980  -19.3635 C   0  0  0  0  0  0  0  0  0  0  0  0
   -5.2913    5.4903  -20.2236 N   0  0  0  0  0  0  0  0  0  0  0  0
   -6.3319    5.4978  -16.8891 C   0  0  0  0  0  0  0  0  0  0  0  0
  1  2  1  0
  2  3  2  0
  3  4  1  0
  4  5  2  0
  5  6  1  0
  6  7  2  0
  6  8  1  0
  8  9  1  0
  9 10  2  0
 10 11  1  0
 11 12  2  0
 12 13  1  0
 13 14  2  0
 13 15  1  0
 15 16  1  0
 16 17  1  0
 17 18  1  0
 18 19  1  0
 18 20  1  0
 18 21  1  0
 16 22  1  0
  5 23  1  0
 23 24  1  0
 24 25  1  0
 25 26  2  0
 26 27  1  0
 27 28  3  0
 26 29  1  0
 29  2  1  0
 14  9  1  0
 29 23  2  0
 22 12  1  0
M  END
>  <fragmenstein_outcome>  (514) 
nan

>  <exports>  (514) 
['/opt/xchem-fragalysis-2/maxwin/openbind-hippo/xx01zvns2b/cycle_01/syndirella/elabs/openbind_xx01zvns2b_c1_elab_chemspace_filtered.sdf']

>  <Energy>  (514) 
nan

>  <alias>  (514) 
None

>  <fragmenstein_runtime>  (514) 
nan

>  <scratch_subdir>  (514) 
nan

>  <HIPPO Compound ID>  (514) 
142793

>  <rmsd(smina/fragmenstein)>  (514) 
0.727

>  <distance_score>  (514) 
1.725243

>  <orig_smiles>  (514) 
nan

>  <fragmenstein_mode>  (514) 
nan

>  <inchikey>  (514) 
SJLIOIFTJMJPDV-UHFFFAOYSA-N

>  <ref_pdb>  (514) 
Z3842a

>  <GNINA pK>  (514) 
nan

>  <gnina_score_min>  (514) 
5.624

>  <tags>  (514) 
openbind_xx01zvns2b_c1_elab_chemspace_filtered_scored_top80percent,openbind_xx01zvns2b_c1_elab_chemspace_filtered_scored,openbind_xx01zvns2b_c1_elab_chemspace_filtered_scored_top40percent,openbind_xx01zvns2b_c1_elab_chemspace_filtered_scored_top20percent,openbind_xx01zvns2b_c1_elab_chemspace_filtered_scored_top60percent,openbind_xx01zvns2b_c1_elabs_filtered

>  <smiles>  (514) 
Cc1ccc(C(=O)Nc2ccc3c(c2)CN(CC(F)(F)F)C3)c2[nH]cc(C#N)c12

>  <subsites>  (514) 
1 - Z4590/B/203/1

>  <gnina_score>  (514) 
5.695

>  <HIPPO Pose ID>  (514) 
70602

>  <ref_mols>  (514) 
Z4983a,Z3842a

>  <energy_score>  (514) 
-19.990066

>  <inspiration_score>  (514) 
None

>  <smina_score_min>  (514) 
-7.684

>  <fragmenstein_error>  (514) 
nan

>  <name>  (514) 
P70602

$$$$
P70603
     RDKit          3D

 29 32  0  0  0  0  0  0  0  0999 V2000
   -8.7515    3.9586   -3.6495 C   0  0  0  0  0  0  0  0  0  0  0  0
   -8.1069    3.3876   -4.7786 O   0  0  0  0  0  0  0  0  0  0  0  0
   -9.0576    2.8671   -5.7294 C   0  0  0  0  0  0  0  0  0  0  0  0
   -8.8291    3.5599   -6.9551 N   0  0  0  0  0  0  0  0  0  0  0  0
   -8.9340    4.9067   -7.0680 C   0  0  0  0  0  0  0  0  0  0  0  0
   -9.3564    5.7407   -6.2875 O   0  0  0  0  0  0  0  0  0  0  0  0
   -8.4463    5.2332   -8.3962 C   0  0  0  0  0  0  0  0  0  0  0  0
   -8.2999    6.4694   -8.9849 C   0  0  0  0  0  0  0  0  0  0  0  0
   -7.7745    6.4901  -10.2717 C   0  0  0  0  0  0  0  0  0  0  0  0
   -7.3507    5.2972  -10.8905 C   0  0  0  0  0  0  0  0  0  0  0  0
   -6.8243    5.4014  -12.1647 N   0  0  0  0  0  0  0  0  0  0  0  0
   -5.8517    4.4787  -12.9243 C   0  0  0  0  0  0  0  0  0  0  0  0
   -5.2813    3.5283  -12.5699 O   0  0  0  0  0  0  0  0  0  0  0  0
   -5.7955    4.9275  -14.3264 C   0  0  0  0  0  0  0  0  0  0  0  0
   -4.6798    5.4437  -14.9531 C   0  0  0  0  0  0  0  0  0  0  0  0
   -4.7336    5.8125  -16.2988 C   0  0  0  0  0  0  0  0  0  0  0  0
   -5.8944    5.6121  -17.0785 C   0  0  0  0  0  0  0  0  0  0  0  0
   -5.8333    5.9283  -18.5474 C   0  0  0  0  0  0  0  0  0  0  0  0
   -7.0324    5.0466  -16.4410 C   0  0  0  0  0  0  0  0  0  0  0  0
   -8.3198    4.5827  -16.8382 C   0  0  0  0  0  0  0  0  0  0  0  0
   -8.9208    4.4474  -18.1175 C   0  0  0  0  0  0  0  0  0  0  0  0
   -9.5285    4.2405  -19.0810 N   0  0  0  0  0  0  0  0  0  0  0  0
   -8.9997    4.1702  -15.7155 C   0  0  0  0  0  0  0  0  0  0  0  0
   -8.1643    4.2589  -14.6551 N   0  0  0  0  0  0  0  0  0  0  0  0
   -6.9570    4.7657  -15.0750 C   0  0  0  0  0  0  0  0  0  0  0  0
   -7.5337    4.0492  -10.2838 C   0  0  0  0  0  0  0  0  0  0  0  0
   -8.1239    4.0529   -9.0378 C   0  0  0  0  0  0  0  0  0  0  0  0
   -8.5089    2.9663   -8.1427 C   0  0  0  0  0  0  0  0  0  0  0  0
   -8.5736    1.8070   -8.4878 O   0  0  0  0  0  0  0  0  0  0  0  0
  1  2  1  0
  2  3  1  0
  3  4  1  0
  4  5  1  0
  5  6  2  0
  5  7  1  0
  7  8  2  0
  8  9  1  0
  9 10  2  0
 10 11  1  0
 11 12  1  0
 12 13  2  0
 12 14  1  0
 14 15  2  0
 15 16  1  0
 16 17  2  0
 17 18  1  0
 17 19  1  0
 19 20  1  0
 20 21  1  0
 21 22  3  0
 20 23  2  0
 23 24  1  0
 24 25  1  0
 10 26  1  0
 26 27  2  0
 27 28  1  0
 28 29  2  0
 28  4  1  0
 27  7  1  0
 25 14  1  0
 25 19  2  0
M  END
>  <fragmenstein_outcome>  (515) 
nan

>  <exports>  (515) 
['/opt/xchem-fragalysis-2/maxwin/openbind-hippo/xx01zvns2b/cycle_01/syndirella/elabs/openbind_xx01zvns2b_c1_elab_chemspace_filtered.sdf']

>  <Energy>  (515) 
nan

>  <alias>  (515) 
None

>  <fragmenstein_runtime>  (515) 
nan

>  <scratch_subdir>  (515) 
nan

>  <HIPPO Compound ID>  (515) 
142794

>  <rmsd(smina/fragmenstein)>  (515) 
0.638

>  <distance_score>  (515) 
1.924129

>  <orig_smiles>  (515) 
nan

>  <fragmenstein_mode>  (515) 
nan

>  <inchikey>  (515) 
MLQMRDHLFFSKQR-UHFFFAOYSA-N

>  <ref_pdb>  (515) 
Z3842a

>  <GNINA pK>  (515) 
nan

>  <gnina_score_min>  (515) 
5.398

>  <tags>  (515) 
openbind_xx01zvns2b_c1_elab_chemspace_filtered_scored_top80percent,openbind_xx01zvns2b_c1_elab_chemspace_filtered_scored,openbind_xx01zvns2b_c1_elab_chemspace_filtered_scored_top40percent,openbind_xx01zvns2b_c1_elab_chemspace_filtered_scored_top20percent,openbind_xx01zvns2b_c1_elab_chemspace_filtered_scored_top60percent,openbind_xx01zvns2b_c1_elabs_filtered

>  <smiles>  (515) 
COCN1C(=O)c2ccc(NC(=O)c3ccc(C)c4c(C#N)c[nH]c34)cc2C1=O

>  <subsites>  (515) 
1 - Z4590/B/203/1

>  <gnina_score>  (515) 
5.614

>  <HIPPO Pose ID>  (515) 
70603

>  <ref_mols>  (515) 
Z4983a,Z3842a

>  <energy_score>  (515) 
-6.243834

>  <inspiration_score>  (515) 
None

>  <smina_score_min>  (515) 
-7.229

>  <fragmenstein_error>  (515) 
nan

>  <name>  (515) 
P70603

$$$$
P70605
     RDKit          3D

 28 32  0  0  0  0  0  0  0  0999 V2000
   -7.5045    6.4749  -13.6860 O   0  0  0  0  0  0  0  0  0  0  0  0
   -7.7339    5.3451  -13.8804 C   0  0  0  0  0  0  0  0  0  0  0  0
   -8.1155    4.2135  -12.8931 N   0  0  0  0  0  0  0  0  0  0  0  0
   -8.1983    4.2157  -11.5000 C   0  0  0  0  0  0  0  0  0  0  0  0
   -7.9570    5.3895  -10.7619 C   0  0  0  0  0  0  0  0  0  0  0  0
   -8.0424    5.3901   -9.3660 C   0  0  0  0  0  0  0  0  0  0  0  0
   -8.3748    4.2017   -8.7479 C   0  0  0  0  0  0  0  0  0  0  0  0
   -8.6182    3.0297   -9.4581 C   0  0  0  0  0  0  0  0  0  0  0  0
   -8.5283    3.0213  -10.8421 C   0  0  0  0  0  0  0  0  0  0  0  0
   -8.9409    1.9252   -8.5074 C   0  0  0  0  0  0  0  0  0  0  0  0
   -8.9705    2.6053   -7.2283 N   0  0  0  0  0  0  0  0  0  0  0  0
   -8.5319    3.9083   -7.3185 C   0  0  0  0  0  0  0  0  0  0  0  0
   -8.2920    4.6769   -6.4065 O   0  0  0  0  0  0  0  0  0  0  0  0
   -7.7060    4.8743  -15.2955 C   0  0  0  0  0  0  0  0  0  0  0  0
   -8.7554    4.1092  -15.8313 C   0  0  0  0  0  0  0  0  0  0  0  0
   -8.7715    3.7708  -17.1847 C   0  0  0  0  0  0  0  0  0  0  0  0
   -7.7134    4.1961  -17.9574 C   0  0  0  0  0  0  0  0  0  0  0  0
   -6.6685    4.9753  -17.4603 C   0  0  0  0  0  0  0  0  0  0  0  0
   -6.6582    5.3192  -16.1176 C   0  0  0  0  0  0  0  0  0  0  0  0
   -5.7013    5.2959  -18.5889 C   0  0  0  0  0  0  0  0  0  0  0  0
   -4.2519    4.9407  -18.2640 C   0  0  0  0  0  0  0  0  0  0  0  0
   -3.5262    6.0083  -17.4609 C   0  0  0  0  0  0  0  0  0  0  0  0
   -3.6256    7.2761  -18.1000 O   0  0  0  0  0  0  0  0  0  0  0  0
   -4.9768    7.7091  -18.1984 C   0  0  0  0  0  0  0  0  0  0  0  0
   -5.7843    6.7545  -19.0624 C   0  0  0  0  0  0  0  0  0  0  0  0
   -6.2940    4.4102  -19.7365 C   0  0  0  0  0  0  0  0  0  0  0  0
   -5.8229    4.2048  -20.8449 O   0  0  0  0  0  0  0  0  0  0  0  0
   -7.5037    3.8981  -19.2883 N   0  0  0  0  0  0  0  0  0  0  0  0
  1  2  2  0
  2  3  1  0
  3  4  1  0
  4  5  2  0
  5  6  1  0
  6  7  2  0
  7  8  1  0
  8  9  2  0
  8 10  1  0
 10 11  1  0
 11 12  1  0
 12 13  2  0
  2 14  1  0
 14 15  2  0
 15 16  1  0
 16 17  2  0
 17 18  1  0
 18 19  2  0
 18 20  1  0
 20 21  1  0
 21 22  1  0
 22 23  1  0
 23 24  1  0
 24 25  1  0
 20 26  1  0
 26 27  2  0
 26 28  1  0
  9  4  1  0
 19 14  1  0
 25 20  1  0
 12  7  1  0
 28 17  1  0
M  END
>  <fragmenstein_outcome>  (516) 
nan

>  <exports>  (516) 
['/opt/xchem-fragalysis-2/maxwin/openbind-hippo/xx01zvns2b/cycle_01/syndirella/elabs/openbind_xx01zvns2b_c1_elab_chemspace_filtered.sdf']

>  <Energy>  (516) 
nan

>  <alias>  (516) 
None

>  <fragmenstein_runtime>  (516) 
nan

>  <scratch_subdir>  (516) 
nan

>  <HIPPO Compound ID>  (516) 
142804

>  <rmsd(smina/fragmenstein)>  (516) 
0.361

>  <distance_score>  (516) 
0.732567

>  <orig_smiles>  (516) 
nan

>  <fragmenstein_mode>  (516) 
nan

>  <inchikey>  (516) 
XBAJILXTQMKMJB-UHFFFAOYSA-N

>  <ref_pdb>  (516) 
Z3677a

>  <GNINA pK>  (516) 
nan

>  <gnina_score_min>  (516) 
5.81

>  <tags>  (516) 
openbind_xx01zvns2b_c1_elab_chemspace_filtered_scored_top80percent,openbind_xx01zvns2b_c1_elab_chemspace_filtered_scored,openbind_xx01zvns2b_c1_elab_chemspace_filtered_scored_top40percent,openbind_xx01zvns2b_c1_elab_chemspace_filtered_scored_top20percent,openbind_xx01zvns2b_c1_elab_chemspace_filtered_scored_top60percent,openbind_xx01zvns2b_c1_elabs_filtered

>  <smiles>  (516) 
O=C(Nc1ccc2c(c1)CNC2=O)c1ccc2c(c1)C1(CCOCC1)C(=O)N2

>  <subsites>  (516) 
1 - Z4590/B/203/1

>  <gnina_score>  (516) 
5.732

>  <HIPPO Pose ID>  (516) 
70605

>  <ref_mols>  (516) 
Z4590a,Z3677a

>  <energy_score>  (516) 
-34.552836

>  <inspiration_score>  (516) 
None

>  <smina_score_min>  (516) 
-9.726

>  <fragmenstein_error>  (516) 
nan

>  <name>  (516) 
P70605

$$$$
P70606
     RDKit          3D

 28 32  0  0  0  0  0  0  0  0999 V2000
   -7.4022    6.3928  -13.5667 O   0  0  0  0  0  0  0  0  0  0  0  0
   -7.7191    5.2835  -13.7621 C   0  0  0  0  0  0  0  0  0  0  0  0
   -8.1712    4.1774  -12.7717 N   0  0  0  0  0  0  0  0  0  0  0  0
   -8.2331    4.1795  -11.3758 C   0  0  0  0  0  0  0  0  0  0  0  0
   -7.8451    5.3227  -10.6498 C   0  0  0  0  0  0  0  0  0  0  0  0
   -7.9012    5.3550   -9.2507 C   0  0  0  0  0  0  0  0  0  0  0  0
   -8.3630    4.2333   -8.5922 C   0  0  0  0  0  0  0  0  0  0  0  0
   -8.7602    3.1094   -9.3160 C   0  0  0  0  0  0  0  0  0  0  0  0
   -8.6914    3.0449  -10.6993 C   0  0  0  0  0  0  0  0  0  0  0  0
   -9.2675    2.1260   -8.3477 C   0  0  0  0  0  0  0  0  0  0  0  0
   -9.7359    1.0361   -8.5946 O   0  0  0  0  0  0  0  0  0  0  0  0
   -9.1625    2.6983   -7.0963 N   0  0  0  0  0  0  0  0  0  0  0  0
   -8.5342    3.9887   -7.1317 C   0  0  0  0  0  0  0  0  0  0  0  0
   -7.7241    4.8312  -15.1851 C   0  0  0  0  0  0  0  0  0  0  0  0
   -8.7859    4.0912  -15.7321 C   0  0  0  0  0  0  0  0  0  0  0  0
   -8.8193    3.7742  -17.0946 C   0  0  0  0  0  0  0  0  0  0  0  0
   -7.7644    4.1952  -17.8704 C   0  0  0  0  0  0  0  0  0  0  0  0
   -6.7162    4.9526  -17.3589 C   0  0  0  0  0  0  0  0  0  0  0  0
   -6.6816    5.2757  -16.0113 C   0  0  0  0  0  0  0  0  0  0  0  0
   -5.7355    5.2764  -18.4672 C   0  0  0  0  0  0  0  0  0  0  0  0
   -5.8104    6.7600  -18.8727 C   0  0  0  0  0  0  0  0  0  0  0  0
   -4.5085    7.1798  -19.5383 C   0  0  0  0  0  0  0  0  0  0  0  0
   -3.3977    7.1014  -18.6435 O   0  0  0  0  0  0  0  0  0  0  0  0
   -3.5186    6.1112  -17.6220 C   0  0  0  0  0  0  0  0  0  0  0  0
   -4.3034    4.8941  -18.0828 C   0  0  0  0  0  0  0  0  0  0  0  0
   -6.3249    4.4208  -19.6359 C   0  0  0  0  0  0  0  0  0  0  0  0
   -5.8396    4.2359  -20.7417 O   0  0  0  0  0  0  0  0  0  0  0  0
   -7.5483    3.9176  -19.2068 N   0  0  0  0  0  0  0  0  0  0  0  0
  1  2  2  0
  2  3  1  0
  3  4  1  0
  4  5  2  0
  5  6  1  0
  6  7  2  0
  7  8  1  0
  8  9  2  0
  8 10  1  0
 10 11  2  0
 10 12  1  0
 12 13  1  0
  2 14  1  0
 14 15  2  0
 15 16  1  0
 16 17  2  0
 17 18  1  0
 18 19  2  0
 18 20  1  0
 20 21  1  0
 21 22  1  0
 22 23  1  0
 23 24  1  0
 24 25  1  0
 20 26  1  0
 26 27  2  0
 26 28  1  0
  9  4  1  0
 19 14  1  0
 25 20  1  0
 13  7  1  0
 28 17  1  0
M  END
>  <fragmenstein_outcome>  (517) 
nan

>  <exports>  (517) 
['/opt/xchem-fragalysis-2/maxwin/openbind-hippo/xx01zvns2b/cycle_01/syndirella/elabs/openbind_xx01zvns2b_c1_elab_chemspace_filtered.sdf']

>  <Energy>  (517) 
nan

>  <alias>  (517) 
None

>  <fragmenstein_runtime>  (517) 
nan

>  <scratch_subdir>  (517) 
nan

>  <HIPPO Compound ID>  (517) 
142805

>  <rmsd(smina/fragmenstein)>  (517) 
0.636

>  <distance_score>  (517) 
0.749073

>  <orig_smiles>  (517) 
nan

>  <fragmenstein_mode>  (517) 
nan

>  <inchikey>  (517) 
OVXNEPPPLHIOPF-UHFFFAOYSA-N

>  <ref_pdb>  (517) 
Z3677a

>  <GNINA pK>  (517) 
nan

>  <gnina_score_min>  (517) 
5.749

>  <tags>  (517) 
openbind_xx01zvns2b_c1_elab_chemspace_filtered_scored_top80percent,openbind_xx01zvns2b_c1_elab_chemspace_filtered_scored,openbind_xx01zvns2b_c1_elab_chemspace_filtered_scored_top40percent,openbind_xx01zvns2b_c1_elab_chemspace_filtered_scored_top20percent,openbind_xx01zvns2b_c1_elab_chemspace_filtered_scored_top60percent,openbind_xx01zvns2b_c1_elabs_filtered

>  <smiles>  (517) 
O=C(Nc1ccc2c(c1)C(=O)NC2)c1ccc2c(c1)C1(CCOCC1)C(=O)N2

>  <subsites>  (517) 
1 - Z4590/B/203/1

>  <gnina_score>  (517) 
5.757

>  <HIPPO Pose ID>  (517) 
70606

>  <ref_mols>  (517) 
Z4590a,Z3677a

>  <energy_score>  (517) 
-27.806

>  <inspiration_score>  (517) 
None

>  <smina_score_min>  (517) 
-9.334

>  <fragmenstein_error>  (517) 
nan

>  <name>  (517) 
P70606

$$$$
P70608
     RDKit          3D

 29 33  0  0  0  0  0  0  0  0999 V2000
   -7.1861    6.3797  -13.6182 O   0  0  0  0  0  0  0  0  0  0  0  0
   -7.6090    5.3047  -13.8038 C   0  0  0  0  0  0  0  0  0  0  0  0
   -8.1642    4.2543  -12.8023 N   0  0  0  0  0  0  0  0  0  0  0  0
   -8.2230    4.2740  -11.3968 C   0  0  0  0  0  0  0  0  0  0  0  0
   -8.6657    3.1168  -10.7361 C   0  0  0  0  0  0  0  0  0  0  0  0
   -8.7480    3.1465   -9.3493 C   0  0  0  0  0  0  0  0  0  0  0  0
   -8.3765    4.2579   -8.5954 C   0  0  0  0  0  0  0  0  0  0  0  0
   -7.9385    5.4020   -9.2272 C   0  0  0  0  0  0  0  0  0  0  0  0
   -7.8764    5.4050  -10.6250 C   0  0  0  0  0  0  0  0  0  0  0  0
   -7.4792    6.5493  -11.1936 F   0  0  0  0  0  0  0  0  0  0  0  0
   -8.5534    3.9798   -7.1421 C   0  0  0  0  0  0  0  0  0  0  0  0
   -9.1629    2.6809   -7.1429 N   0  0  0  0  0  0  0  0  0  0  0  0
   -9.2536    2.1368   -8.4071 C   0  0  0  0  0  0  0  0  0  0  0  0
   -9.7140    1.0520   -8.6856 O   0  0  0  0  0  0  0  0  0  0  0  0
   -7.6444    4.8414  -15.2257 C   0  0  0  0  0  0  0  0  0  0  0  0
   -8.7223    4.1094  -15.7492 C   0  0  0  0  0  0  0  0  0  0  0  0
   -8.7735    3.7860  -17.1083 C   0  0  0  0  0  0  0  0  0  0  0  0
   -7.7253    4.1965  -17.9032 C   0  0  0  0  0  0  0  0  0  0  0  0
   -6.6573    4.9517  -17.4223 C   0  0  0  0  0  0  0  0  0  0  0  0
   -6.6095    5.2744  -16.0753 C   0  0  0  0  0  0  0  0  0  0  0  0
   -5.7125    5.2752  -18.5686 C   0  0  0  0  0  0  0  0  0  0  0  0
   -4.2538    4.9298  -18.2786 C   0  0  0  0  0  0  0  0  0  0  0  0
   -3.5144    6.0006  -17.4919 C   0  0  0  0  0  0  0  0  0  0  0  0
   -3.6383    7.2697  -18.1239 O   0  0  0  0  0  0  0  0  0  0  0  0
   -4.9952    7.6916  -18.1856 C   0  0  0  0  0  0  0  0  0  0  0  0
   -5.8134    6.7347  -19.0366 C   0  0  0  0  0  0  0  0  0  0  0  0
   -6.3303    4.3930  -19.7055 C   0  0  0  0  0  0  0  0  0  0  0  0
   -5.8735    4.1752  -20.8177 O   0  0  0  0  0  0  0  0  0  0  0  0
   -7.5450    3.9044  -19.2409 N   0  0  0  0  0  0  0  0  0  0  0  0
  1  2  2  0
  2  3  1  0
  3  4  1  0
  4  5  2  0
  5  6  1  0
  6  7  2  0
  7  8  1  0
  8  9  2  0
  9 10  1  0
  7 11  1  0
 11 12  1  0
 12 13  1  0
 13 14  2  0
  2 15  1  0
 15 16  2  0
 16 17  1  0
 17 18  2  0
 18 19  1  0
 19 20  2  0
 19 21  1  0
 21 22  1  0
 22 23  1  0
 23 24  1  0
 24 25  1  0
 25 26  1  0
 21 27  1  0
 27 28  2  0
 27 29  1  0
  9  4  1  0
 20 15  1  0
 26 21  1  0
 13  6  1  0
 29 18  1  0
M  END
>  <fragmenstein_outcome>  (518) 
nan

>  <exports>  (518) 
['/opt/xchem-fragalysis-2/maxwin/openbind-hippo/xx01zvns2b/cycle_01/syndirella/elabs/openbind_xx01zvns2b_c1_elab_chemspace_filtered.sdf']

>  <Energy>  (518) 
nan

>  <alias>  (518) 
None

>  <fragmenstein_runtime>  (518) 
nan

>  <scratch_subdir>  (518) 
nan

>  <HIPPO Compound ID>  (518) 
142808

>  <rmsd(smina/fragmenstein)>  (518) 
0.621

>  <distance_score>  (518) 
0.737458

>  <orig_smiles>  (518) 
nan

>  <fragmenstein_mode>  (518) 
nan

>  <inchikey>  (518) 
GJJQUEDMQNGDBW-UHFFFAOYSA-N

>  <ref_pdb>  (518) 
Z3677a

>  <GNINA pK>  (518) 
nan

>  <gnina_score_min>  (518) 
5.884

>  <tags>  (518) 
openbind_xx01zvns2b_c1_elab_chemspace_filtered_scored_top80percent,openbind_xx01zvns2b_c1_elab_chemspace_filtered_scored,openbind_xx01zvns2b_c1_elab_chemspace_filtered_scored_top40percent,openbind_xx01zvns2b_c1_elab_chemspace_filtered_scored_top20percent,openbind_xx01zvns2b_c1_elab_chemspace_filtered_scored_top60percent,openbind_xx01zvns2b_c1_elabs_filtered

>  <smiles>  (518) 
O=C(Nc1cc2c(cc1F)CNC2=O)c1ccc2c(c1)C1(CCOCC1)C(=O)N2

>  <subsites>  (518) 
1 - Z4590/B/203/1

>  <gnina_score>  (518) 
5.99

>  <HIPPO Pose ID>  (518) 
70608

>  <ref_mols>  (518) 
Z4590a,Z3677a

>  <energy_score>  (518) 
-30.086452

>  <inspiration_score>  (518) 
None

>  <smina_score_min>  (518) 
-9.381

>  <fragmenstein_error>  (518) 
nan

>  <name>  (518) 
P70608

$$$$
P70618
     RDKit          3D

 34 38  0  0  0  0  0  0  0  0999 V2000
  -11.9844    2.3921   -4.6300 C   0  0  0  0  0  0  0  0  0  0  0  0
  -10.7476    3.0419   -5.1818 C   0  0  0  0  0  0  0  0  0  0  0  0
   -9.8407    3.6500   -4.1169 C   0  0  0  0  0  0  0  0  0  0  0  0
  -11.1706    4.1372   -5.9750 O   0  0  0  0  0  0  0  0  0  0  0  0
  -10.1627    1.9485   -6.0550 C   0  0  0  0  0  0  0  0  0  0  0  0
   -8.7625    2.1793   -6.5110 C   0  0  0  0  0  0  0  0  0  0  0  0
   -8.7285    3.0174   -7.6646 N   0  0  0  0  0  0  0  0  0  0  0  0
   -8.2345    4.3709   -7.6551 C   0  0  0  0  0  0  0  0  0  0  0  0
   -8.1501    4.6641   -9.1111 C   0  0  0  0  0  0  0  0  0  0  0  0
   -7.7097    5.7941   -9.7610 C   0  0  0  0  0  0  0  0  0  0  0  0
   -7.6391    5.7505  -11.1562 C   0  0  0  0  0  0  0  0  0  0  0  0
   -7.9979    4.5897  -11.8687 C   0  0  0  0  0  0  0  0  0  0  0  0
   -7.8329    4.5083  -13.2394 N   0  0  0  0  0  0  0  0  0  0  0  0
   -7.4389    5.5865  -14.2652 C   0  0  0  0  0  0  0  0  0  0  0  0
   -7.1160    6.6963  -14.1096 O   0  0  0  0  0  0  0  0  0  0  0  0
   -7.4905    5.0428  -15.6427 C   0  0  0  0  0  0  0  0  0  0  0  0
   -8.5933    4.2833  -16.0877 C   0  0  0  0  0  0  0  0  0  0  0  0
   -8.6563    3.8437  -17.4066 C   0  0  0  0  0  0  0  0  0  0  0  0
   -7.6057    4.1853  -18.2295 C   0  0  0  0  0  0  0  0  0  0  0  0
   -6.5209    4.9579  -17.8132 C   0  0  0  0  0  0  0  0  0  0  0  0
   -6.4434    5.3864  -16.5051 C   0  0  0  0  0  0  0  0  0  0  0  0
   -5.6008    5.2327  -18.9862 C   0  0  0  0  0  0  0  0  0  0  0  0
   -4.1418    4.8754  -18.6895 C   0  0  0  0  0  0  0  0  0  0  0  0
   -3.2061    5.5860  -19.6518 C   0  0  0  0  0  0  0  0  0  0  0  0
   -3.2685    7.0092  -19.5142 O   0  0  0  0  0  0  0  0  0  0  0  0
   -4.4948    7.5109  -18.9908 C   0  0  0  0  0  0  0  0  0  0  0  0
   -5.6978    6.6999  -19.4464 C   0  0  0  0  0  0  0  0  0  0  0  0
   -6.2631    4.3238  -20.0737 C   0  0  0  0  0  0  0  0  0  0  0  0
   -5.8677    4.0993  -21.2074 O   0  0  0  0  0  0  0  0  0  0  0  0
   -7.4485    3.8232  -19.5499 N   0  0  0  0  0  0  0  0  0  0  0  0
   -8.4870    3.4696  -11.2133 C   0  0  0  0  0  0  0  0  0  0  0  0
   -8.5599    3.5507   -9.8454 C   0  0  0  0  0  0  0  0  0  0  0  0
   -9.0021    2.5265   -8.9192 C   0  0  0  0  0  0  0  0  0  0  0  0
   -9.5194    1.4773   -9.2357 O   0  0  0  0  0  0  0  0  0  0  0  0
  1  2  1  0
  2  3  1  0
  2  4  1  0
  2  5  1  0
  5  6  1  0
  6  7  1  0
  7  8  1  0
  8  9  1  0
  9 10  2  0
 10 11  1  0
 11 12  2  0
 12 13  1  0
 13 14  1  0
 14 15  2  0
 14 16  1  0
 16 17  2  0
 17 18  1  0
 18 19  2  0
 19 20  1  0
 20 21  2  0
 20 22  1  0
 22 23  1  0
 23 24  1  0
 24 25  1  0
 25 26  1  0
 26 27  1  0
 22 28  1  0
 28 29  2  0
 28 30  1  0
 12 31  1  0
 31 32  2  0
 32 33  1  0
 33 34  2  0
 33  7  1  0
 32  9  1  0
 21 16  1  0
 27 22  1  0
 30 19  1  0
M  END
>  <fragmenstein_outcome>  (519) 
nan

>  <exports>  (519) 
['/opt/xchem-fragalysis-2/maxwin/openbind-hippo/xx01zvns2b/cycle_01/syndirella/elabs/openbind_xx01zvns2b_c1_elab_chemspace_filtered.sdf']

>  <Energy>  (519) 
nan

>  <alias>  (519) 
None

>  <fragmenstein_runtime>  (519) 
nan

>  <scratch_subdir>  (519) 
nan

>  <HIPPO Compound ID>  (519) 
142819

>  <rmsd(smina/fragmenstein)>  (519) 
1.155

>  <distance_score>  (519) 
0.865863

>  <orig_smiles>  (519) 
nan

>  <fragmenstein_mode>  (519) 
nan

>  <inchikey>  (519) 
QVIQCDJAVBMKGB-UHFFFAOYSA-N

>  <ref_pdb>  (519) 
Z3677a

>  <GNINA pK>  (519) 
nan

>  <gnina_score_min>  (519) 
6.062

>  <tags>  (519) 
openbind_xx01zvns2b_c1_elab_chemspace_filtered_scored_top80percent,openbind_xx01zvns2b_c1_elab_chemspace_filtered_scored,openbind_xx01zvns2b_c1_elab_chemspace_filtered_scored_top40percent,openbind_xx01zvns2b_c1_elab_chemspace_filtered_scored_top20percent,openbind_xx01zvns2b_c1_elab_chemspace_filtered_scored_top60percent,openbind_xx01zvns2b_c1_elabs_filtered

>  <smiles>  (519) 
CC(C)(O)CCN1Cc2ccc(NC(=O)c3ccc4c(c3)C3(CCOCC3)C(=O)N4)cc2C1=O

>  <subsites>  (519) 
1 - Z4590/B/203/1

>  <gnina_score>  (519) 
6.254

>  <HIPPO Pose ID>  (519) 
70618

>  <ref_mols>  (519) 
Z4590a,Z3677a

>  <energy_score>  (519) 
-42.759014

>  <inspiration_score>  (519) 
None

>  <smina_score_min>  (519) 
-9.317

>  <fragmenstein_error>  (519) 
nan

>  <name>  (519) 
P70618

$$$$
P70619
     RDKit          3D

 36 41  0  0  0  0  0  0  0  0999 V2000
   -9.8772    5.4196   -1.1434 C   0  0  0  0  0  0  0  0  0  0  0  0
   -9.0876    6.0669   -2.2832 C   0  0  0  0  0  0  0  0  0  0  0  0
   -9.5464    7.5079   -2.5207 C   0  0  0  0  0  0  0  0  0  0  0  0
   -9.0953    5.1773   -3.5125 C   0  0  0  0  0  0  0  0  0  0  0  0
   -9.9300    5.3556   -4.6208 C   0  0  0  0  0  0  0  0  0  0  0  0
   -9.8601    4.5420   -5.7542 C   0  0  0  0  0  0  0  0  0  0  0  0
   -8.8409    3.6169   -5.8756 C   0  0  0  0  0  0  0  0  0  0  0  0
   -8.2833    3.3125   -7.1123 N   0  0  0  0  0  0  0  0  0  0  0  0
   -7.4411    4.4516   -7.5084 C   0  0  0  0  0  0  0  0  0  0  0  0
   -7.7057    4.6090   -8.9537 C   0  0  0  0  0  0  0  0  0  0  0  0
   -7.2254    5.6276   -9.7446 C   0  0  0  0  0  0  0  0  0  0  0  0
   -7.4418    5.5356  -11.1044 C   0  0  0  0  0  0  0  0  0  0  0  0
   -8.0870    4.4203  -11.6616 C   0  0  0  0  0  0  0  0  0  0  0  0
   -8.0924    4.3283  -13.0536 N   0  0  0  0  0  0  0  0  0  0  0  0
   -7.6056    5.3354  -14.1336 C   0  0  0  0  0  0  0  0  0  0  0  0
   -7.1970    6.4274  -14.0237 O   0  0  0  0  0  0  0  0  0  0  0  0
   -7.6180    4.7955  -15.5157 C   0  0  0  0  0  0  0  0  0  0  0  0
   -8.7131    4.0774  -16.0212 C   0  0  0  0  0  0  0  0  0  0  0  0
   -8.7578    3.7269  -17.3707 C   0  0  0  0  0  0  0  0  0  0  0  0
   -7.6931    4.1047  -18.1639 C   0  0  0  0  0  0  0  0  0  0  0  0
   -6.6009    4.8294  -17.6909 C   0  0  0  0  0  0  0  0  0  0  0  0
   -6.5470    5.1697  -16.3540 C   0  0  0  0  0  0  0  0  0  0  0  0
   -5.6597    5.1566  -18.8390 C   0  0  0  0  0  0  0  0  0  0  0  0
   -4.1925    4.7623  -18.6126 C   0  0  0  0  0  0  0  0  0  0  0  0
   -3.2418    5.9464  -18.5241 C   0  0  0  0  0  0  0  0  0  0  0  0
   -3.8204    6.9374  -17.6932 O   0  0  0  0  0  0  0  0  0  0  0  0
   -4.9417    7.5618  -18.3095 C   0  0  0  0  0  0  0  0  0  0  0  0
   -5.7470    6.6398  -19.2234 C   0  0  0  0  0  0  0  0  0  0  0  0
   -6.3258    4.3222  -19.9845 C   0  0  0  0  0  0  0  0  0  0  0  0
   -5.9135    4.1462  -21.1219 O   0  0  0  0  0  0  0  0  0  0  0  0
   -7.5294    3.8208  -19.5037 N   0  0  0  0  0  0  0  0  0  0  0  0
   -8.6265    3.4208  -10.8303 C   0  0  0  0  0  0  0  0  0  0  0  0
   -8.4649    3.5522   -9.4515 C   0  0  0  0  0  0  0  0  0  0  0  0
   -8.9705    2.7219   -8.2910 C   0  0  0  0  0  0  0  0  0  0  0  0
   -8.0564    3.3800   -4.7429 C   0  0  0  0  0  0  0  0  0  0  0  0
   -8.1844    4.1298   -3.5747 C   0  0  0  0  0  0  0  0  0  0  0  0
  1  2  1  0
  2  3  1  0
  2  4  1  0
  4  5  2  0
  5  6  1  0
  6  7  2  0
  7  8  1  0
  8  9  1  0
  9 10  1  0
 10 11  2  0
 11 12  1  0
 12 13  2  0
 13 14  1  0
 14 15  1  0
 15 16  2  0
 15 17  1  0
 17 18  2  0
 18 19  1  0
 19 20  2  0
 20 21  1  0
 21 22  2  0
 21 23  1  0
 23 24  1  0
 24 25  1  0
 25 26  1  0
 26 27  1  0
 27 28  1  0
 23 29  1  0
 29 30  2  0
 29 31  1  0
 13 32  1  0
 32 33  2  0
 33 34  1  0
  7 35  1  0
 35 36  2  0
 36  4  1  0
 34  8  1  0
 33 10  1  0
 22 17  1  0
 28 23  1  0
 31 20  1  0
M  END
>  <fragmenstein_outcome>  (520) 
nan

>  <exports>  (520) 
['/opt/xchem-fragalysis-2/maxwin/openbind-hippo/xx01zvns2b/cycle_01/syndirella/elabs/openbind_xx01zvns2b_c1_elab_chemspace_filtered.sdf']

>  <Energy>  (520) 
nan

>  <alias>  (520) 
None

>  <fragmenstein_runtime>  (520) 
nan

>  <scratch_subdir>  (520) 
nan

>  <HIPPO Compound ID>  (520) 
142821

>  <rmsd(smina/fragmenstein)>  (520) 
1.074

>  <distance_score>  (520) 
1.047516

>  <orig_smiles>  (520) 
nan

>  <fragmenstein_mode>  (520) 
nan

>  <inchikey>  (520) 
MAQIHWDHJDWCME-UHFFFAOYSA-N

>  <ref_pdb>  (520) 
Z3677a

>  <GNINA pK>  (520) 
nan

>  <gnina_score_min>  (520) 
6.075

>  <tags>  (520) 
openbind_xx01zvns2b_c1_elab_chemspace_filtered_scored_top80percent,openbind_xx01zvns2b_c1_elab_chemspace_filtered_scored,openbind_xx01zvns2b_c1_elab_chemspace_filtered_scored_top40percent,openbind_xx01zvns2b_c1_elab_chemspace_filtered_scored_top20percent,openbind_xx01zvns2b_c1_elab_chemspace_filtered_scored_top60percent,openbind_xx01zvns2b_c1_elabs_filtered

>  <smiles>  (520) 
CC(C)c1ccc(N2Cc3ccc(NC(=O)c4ccc5c(c4)C4(CCOCC4)C(=O)N5)cc3C2)cc1

>  <subsites>  (520) 
1 - Z4590/B/203/1

>  <gnina_score>  (520) 
6.172

>  <HIPPO Pose ID>  (520) 
70619

>  <ref_mols>  (520) 
Z4590a,Z3677a

>  <energy_score>  (520) 
-22.441957

>  <inspiration_score>  (520) 
None

>  <smina_score_min>  (520) 
-10.327

>  <fragmenstein_error>  (520) 
nan

>  <name>  (520) 
P70619

$$$$
P70623
     RDKit          3D

 36 41  0  0  0  0  0  0  0  0999 V2000
   -7.1876    6.5209  -14.0106 O   0  0  0  0  0  0  0  0  0  0  0  0
   -7.4456    5.3914  -14.1601 C   0  0  0  0  0  0  0  0  0  0  0  0
   -7.8315    4.3056  -13.1276 N   0  0  0  0  0  0  0  0  0  0  0  0
   -8.0639    4.4019  -11.7603 C   0  0  0  0  0  0  0  0  0  0  0  0
   -8.0315    5.6689  -11.1463 C   0  0  0  0  0  0  0  0  0  0  0  0
   -8.2489    5.8066   -9.7826 C   0  0  0  0  0  0  0  0  0  0  0  0
   -8.4856    4.6516   -9.0739 C   0  0  0  0  0  0  0  0  0  0  0  0
   -8.5257    3.3825   -9.6490 C   0  0  0  0  0  0  0  0  0  0  0  0
   -8.3254    3.2422  -11.0122 C   0  0  0  0  0  0  0  0  0  0  0  0
   -8.7933    2.3633   -8.5861 C   0  0  0  0  0  0  0  0  0  0  0  0
   -8.7242    3.1805   -7.3718 N   0  0  0  0  0  0  0  0  0  0  0  0
   -8.8553    2.6123   -6.0373 C   0  0  1  0  0  0  0  0  0  0  0  0
   -7.9382    3.3124   -5.0089 C   0  0  0  0  0  0  0  0  0  0  0  0
   -8.6217    3.8434   -3.7649 C   0  0  1  0  0  0  0  0  0  0  0  0
   -7.8641    4.8372   -3.2257 F   0  0  0  0  0  0  0  0  0  0  0  0
  -10.0126    4.3425   -4.0541 C   0  0  0  0  0  0  0  0  0  0  0  0
  -10.8021    3.3056   -4.6637 N   0  0  0  0  0  0  0  0  0  0  0  0
  -10.3438    2.5455   -5.6966 C   0  0  0  0  0  0  0  0  0  0  0  0
  -11.1399    1.8754   -6.3468 O   0  0  0  0  0  0  0  0  0  0  0  0
   -8.6916    4.5267   -7.6394 C   0  0  0  0  0  0  0  0  0  0  0  0
   -8.7852    5.4685   -6.8748 O   0  0  0  0  0  0  0  0  0  0  0  0
   -7.4565    4.8631  -15.5434 C   0  0  0  0  0  0  0  0  0  0  0  0
   -8.5770    4.1483  -16.0122 C   0  0  0  0  0  0  0  0  0  0  0  0
   -8.6619    3.7808  -17.3522 C   0  0  0  0  0  0  0  0  0  0  0  0
   -7.6131    4.1430  -18.1712 C   0  0  0  0  0  0  0  0  0  0  0  0
   -6.5036    4.8688  -17.7316 C   0  0  0  0  0  0  0  0  0  0  0  0
   -6.4082    5.2290  -16.4011 C   0  0  0  0  0  0  0  0  0  0  0  0
   -5.5972    5.1821  -18.9112 C   0  0  0  0  0  0  0  0  0  0  0  0
   -4.1238    4.7872  -18.7319 C   0  0  0  0  0  0  0  0  0  0  0  0
   -3.1814    5.9743  -18.5939 C   0  0  0  0  0  0  0  0  0  0  0  0
   -3.7797    6.9470  -17.7540 O   0  0  0  0  0  0  0  0  0  0  0  0
   -4.8856    7.5859  -18.3854 C   0  0  0  0  0  0  0  0  0  0  0  0
   -5.6944    6.6643  -19.2967 C   0  0  0  0  0  0  0  0  0  0  0  0
   -6.2958    4.3400  -20.0292 C   0  0  0  0  0  0  0  0  0  0  0  0
   -5.9154    4.1531  -21.1759 O   0  0  0  0  0  0  0  0  0  0  0  0
   -7.4855    3.8446  -19.5116 N   0  0  0  0  0  0  0  0  0  0  0  0
  1  2  2  0
  2  3  1  0
  3  4  1  0
  4  5  2  0
  5  6  1  0
  6  7  2  0
  7  8  1  0
  8  9  2  0
  8 10  1  0
 10 11  1  0
 12 11  1  6
 12 13  1  0
 13 14  1  0
 14 15  1  6
 14 16  1  0
 16 17  1  0
 17 18  1  0
 18 19  2  0
 11 20  1  0
 20 21  2  0
  2 22  1  0
 22 23  2  0
 23 24  1  0
 24 25  2  0
 25 26  1  0
 26 27  2  0
 26 28  1  0
 28 29  1  0
 29 30  1  0
 30 31  1  0
 31 32  1  0
 32 33  1  0
 28 34  1  0
 34 35  2  0
 34 36  1  0
  9  4  1  0
 18 12  1  0
 27 22  1  0
 33 28  1  0
 20  7  1  0
 36 25  1  0
M  END
>  <fragmenstein_outcome>  (521) 
nan

>  <exports>  (521) 
['/opt/xchem-fragalysis-2/maxwin/openbind-hippo/xx01zvns2b/cycle_01/syndirella/elabs/openbind_xx01zvns2b_c1_elab_chemspace_filtered.sdf']

>  <Energy>  (521) 
nan

>  <alias>  (521) 
None

>  <fragmenstein_runtime>  (521) 
nan

>  <scratch_subdir>  (521) 
nan

>  <HIPPO Compound ID>  (521) 
142822

>  <rmsd(smina/fragmenstein)>  (521) 
0.791

>  <distance_score>  (521) 
0.759831

>  <orig_smiles>  (521) 
nan

>  <fragmenstein_mode>  (521) 
nan

>  <inchikey>  (521) 
JISOPDQVHKEDJH-IERDGZPVSA-N

>  <ref_pdb>  (521) 
Z3677a

>  <GNINA pK>  (521) 
nan

>  <gnina_score_min>  (521) 
6.094

>  <tags>  (521) 
openbind_xx01zvns2b_c1_elab_chemspace_filtered_scored_top80percent,openbind_xx01zvns2b_c1_elab_chemspace_filtered_scored,openbind_xx01zvns2b_c1_elab_chemspace_filtered_scored_top40percent,openbind_xx01zvns2b_c1_elab_chemspace_filtered_scored_top20percent,openbind_xx01zvns2b_c1_elab_chemspace_filtered_scored_top60percent,openbind_xx01zvns2b_c1_elabs_filtered

>  <smiles>  (521) 
O=C(Nc1ccc2c(c1)CN([C@H]1C[C@@H](F)CNC1=O)C2=O)c1ccc2c(c1)C1(CCOCC1)C(=O)N2

>  <subsites>  (521) 
1 - Z4590/B/203/1

>  <gnina_score>  (521) 
6.189

>  <HIPPO Pose ID>  (521) 
70623

>  <ref_mols>  (521) 
Z4590a,Z3677a

>  <energy_score>  (521) 
-47.540105

>  <inspiration_score>  (521) 
None

>  <smina_score_min>  (521) 
-9.765

>  <fragmenstein_error>  (521) 
nan

>  <name>  (521) 
P70623

$$$$
P70717
     RDKit          3D

 28 30  0  0  0  0  0  0  0  0999 V2000
   -1.7521    4.6363  -14.6033 C   0  0  0  0  0  0  0  0  0  0  0  0
   -3.0790    3.9013  -14.8362 C   0  0  1  0  0  0  0  0  0  0  0  0
   -3.7116    3.5141  -13.4500 C   0  0  0  0  0  0  0  0  0  0  0  0
   -3.0453    3.3206  -12.5087 O   0  0  0  0  0  0  0  0  0  0  0  0
   -5.2419    3.3598  -13.6463 N   0  0  0  0  0  0  0  0  0  0  0  0
   -6.2572    2.8439  -12.7523 C   0  0  0  0  0  0  0  0  0  0  0  0
   -6.7229    3.7933  -11.6134 C   0  0  1  0  0  0  0  0  0  0  0  0
   -7.3476    5.0653  -12.2119 C   0  0  0  0  0  0  0  0  0  0  0  0
   -7.7504    3.0349  -10.7522 C   0  0  0  0  0  0  0  0  0  0  0  0
   -8.2350    3.8469   -9.5631 C   0  0  0  0  0  0  0  0  0  0  0  0
   -7.1522    4.5750   -8.7906 C   0  0  0  0  0  0  0  0  0  0  0  0
   -7.3837    4.9808   -7.6484 O   0  0  0  0  0  0  0  0  0  0  0  0
   -5.9733    4.8716   -9.4659 N   0  0  0  0  0  0  0  0  0  0  0  0
   -4.9073    5.4990   -8.7071 C   0  0  0  0  0  0  0  0  0  0  0  0
   -5.5634    4.1548  -10.6747 C   0  0  0  0  0  0  0  0  0  0  0  0
   -4.0251    4.5669  -15.7603 N   0  0  0  0  0  0  0  0  0  0  0  0
   -4.3898    5.9360  -15.3556 C   0  0  0  0  0  0  0  0  0  0  0  0
   -5.1712    6.7291  -16.4306 C   0  0  0  0  0  0  0  0  0  0  0  0
   -5.6772    5.8998  -17.5304 N   0  0  0  0  0  0  0  0  0  0  0  0
   -6.9366    5.2944  -17.4274 C   0  0  0  0  0  0  0  0  0  0  0  0
   -7.5589    4.8575  -18.6038 C   0  0  0  0  0  0  0  0  0  0  0  0
   -8.8586    4.3518  -18.6114 C   0  0  0  0  0  0  0  0  0  0  0  0
   -9.5629    4.2258  -17.4267 C   0  0  0  0  0  0  0  0  0  0  0  0
   -8.9494    4.5806  -16.2337 C   0  0  0  0  0  0  0  0  0  0  0  0
   -7.6713    5.1332  -16.2455 C   0  0  0  0  0  0  0  0  0  0  0  0
   -7.1793    5.5432  -15.0706 F   0  0  0  0  0  0  0  0  0  0  0  0
   -4.6607    5.0458  -18.1734 C   0  0  0  0  0  0  0  0  0  0  0  0
   -3.5669    4.6115  -17.1695 C   0  0  0  0  0  0  0  0  0  0  0  0
  2  1  1  1
  2  3  1  0
  3  4  2  0
  3  5  1  0
  5  6  1  0
  7  6  1  0
  7  8  1  6
  7  9  1  0
  9 10  1  0
 10 11  1  0
 11 12  2  0
 11 13  1  0
 13 14  1  0
 13 15  1  0
  2 16  1  0
 16 17  1  0
 17 18  1  0
 18 19  1  0
 19 20  1  0
 20 21  2  0
 21 22  1  0
 22 23  2  0
 23 24  1  0
 24 25  2  0
 25 26  1  0
 19 27  1  0
 27 28  1  0
 15  7  1  0
 28 16  1  0
 25 20  1  0
M  END
>  <fragmenstein_outcome>  (522) 
nan

>  <exports>  (522) 
['/opt/xchem-fragalysis-2/maxwin/openbind-hippo/xx01zvns2b/cycle_01/syndirella/elabs/openbind_xx01zvns2b_c1_elab_chemspace_filtered.sdf']

>  <Energy>  (522) 
nan

>  <alias>  (522) 
None

>  <fragmenstein_runtime>  (522) 
nan

>  <scratch_subdir>  (522) 
nan

>  <HIPPO Compound ID>  (522) 
143169

>  <rmsd(smina/fragmenstein)>  (522) 
1.101

>  <distance_score>  (522) 
1.994992

>  <orig_smiles>  (522) 
nan

>  <fragmenstein_mode>  (522) 
nan

>  <inchikey>  (522) 
UOWKJTULNLVHJB-HRAATJIYSA-N

>  <ref_pdb>  (522) 
Z0719a

>  <GNINA pK>  (522) 
nan

>  <gnina_score_min>  (522) 
5.363

>  <tags>  (522) 
openbind_xx01zvns2b_c1_elab_nonasap_filtered_scored_top80percent,openbind_xx01zvns2b_c1_elab_chemspace_filtered_scored_top80percent,openbind_xx01zvns2b_c1_elab_chemspace_filtered_scored,openbind_xx01zvns2b_c1_elab_chemspace_filtered_scored_top40percent,openbind_xx01zvns2b_c1_elab_chemspace_filtered_scored_top20percent,openbind_xx01zvns2b_c1_elab_chemspace_filtered_scored_top60percent,openbind_xx01zvns2b_c1_elabs_filtered

>  <smiles>  (522) 
C[C@@H](C(=O)NC[C@@]1(C)CCC(=O)N(C)C1)N1CCN(c2ccccc2F)CC1

>  <subsites>  (522) 
1 - Z4590/B/203/1

>  <gnina_score>  (522) 
5.403

>  <HIPPO Pose ID>  (522) 
70717

>  <ref_mols>  (522) 
Z0701a,Z0719a

>  <energy_score>  (522) 
-41.531708

>  <inspiration_score>  (522) 
None

>  <smina_score_min>  (522) 
-5.84

>  <fragmenstein_error>  (522) 
nan

>  <name>  (522) 
P70717

$$$$
P70733
     RDKit          3D

 29 32  0  0  0  0  0  0  0  0999 V2000
   -0.2970    1.3631   -8.5028 C   0  0  0  0  0  0  0  0  0  0  0  0
   -1.2266    0.7312   -9.5327 C   0  0  0  0  0  0  0  0  0  0  0  0
   -1.6798    1.6747  -10.5651 N   0  0  0  0  0  0  0  0  0  0  0  0
   -2.5445    2.7392  -10.0191 C   0  0  0  0  0  0  0  0  0  0  0  0
   -3.0273    3.6963  -11.1334 C   0  0  0  0  0  0  0  0  0  0  0  0
   -3.7340    3.0590  -12.2625 N   0  0  0  0  0  0  0  0  0  0  0  0
   -5.1040    2.6478  -11.8716 C   0  0  0  0  0  0  0  0  0  0  0  0
   -6.0126    2.5841  -13.1200 C   0  0  0  0  0  0  0  0  0  0  0  0
   -6.6228    1.6328  -13.4235 O   0  0  0  0  0  0  0  0  0  0  0  0
   -5.9930    4.0134  -13.7442 N   0  0  0  0  0  0  0  0  0  0  0  0
   -6.7934    4.5864  -14.8101 C   0  0  0  0  0  0  0  0  0  0  0  0
   -6.2525    4.2849  -16.2291 C   0  0  1  0  0  0  0  0  0  0  0  0
   -7.4054    3.9670  -17.2497 C   0  0  0  0  0  0  0  0  0  0  0  0
   -8.1339    5.1429  -17.8575 C   0  0  0  0  0  0  0  0  0  0  0  0
   -7.3221    6.2714  -17.3477 C   0  0  0  0  0  0  0  0  0  0  0  0
   -7.6706    6.8198  -16.3048 O   0  0  0  0  0  0  0  0  0  0  0  0
   -5.9948    6.2361  -17.7676 N   0  0  0  0  0  0  0  0  0  0  0  0
   -5.6684    6.1602  -19.1744 C   0  0  0  0  0  0  0  0  0  0  0  0
   -5.6757    7.4082  -20.0168 C   0  0  0  0  0  0  0  0  0  0  0  0
   -4.3729    6.7609  -19.6636 C   0  0  0  0  0  0  0  0  0  0  0  0
   -5.2758    5.3116  -16.8874 C   0  0  1  0  0  0  0  0  0  0  0  0
   -4.4188    6.0700  -15.9114 C   0  0  0  0  0  0  0  0  0  0  0  0
   -4.5627    7.3299  -15.5320 N   0  0  0  0  0  0  0  0  0  0  0  0
   -3.5918    7.5687  -14.6007 C   0  0  0  0  0  0  0  0  0  0  0  0
   -2.8171    6.4524  -14.4175 C   0  0  0  0  0  0  0  0  0  0  0  0
   -3.3380    5.5148  -15.2661 N   0  0  0  0  0  0  0  0  0  0  0  0
   -2.8041    4.1951  -15.4591 C   0  0  0  0  0  0  0  0  0  0  0  0
   -2.9545    1.8827  -12.7162 C   0  0  0  0  0  0  0  0  0  0  0  0
   -2.4427    0.9394  -11.6001 C   0  0  0  0  0  0  0  0  0  0  0  0
  1  2  1  0
  2  3  1  0
  3  4  1  0
  4  5  1  0
  5  6  1  0
  6  7  1  0
  7  8  1  0
  8  9  2  0
  8 10  1  0
 10 11  1  0
 12 11  1  1
 12 13  1  0
 13 14  1  0
 14 15  1  0
 15 16  2  0
 15 17  1  0
 17 18  1  0
 18 19  1  0
 19 20  1  0
 17 21  1  0
 21 22  1  1
 22 23  2  0
 23 24  1  0
 24 25  2  0
 25 26  1  0
 26 27  1  0
  6 28  1  0
 28 29  1  0
 29  3  1  0
 21 12  1  0
 26 22  1  0
 20 18  1  0
M  END
>  <fragmenstein_outcome>  (523) 
nan

>  <exports>  (523) 
['/opt/xchem-fragalysis-2/maxwin/openbind-hippo/xx01zvns2b/cycle_01/syndirella/elabs/openbind_xx01zvns2b_c1_elab_chemspace_filtered.sdf']

>  <Energy>  (523) 
nan

>  <alias>  (523) 
None

>  <fragmenstein_runtime>  (523) 
nan

>  <scratch_subdir>  (523) 
nan

>  <HIPPO Compound ID>  (523) 
143329

>  <rmsd(smina/fragmenstein)>  (523) 
1.052

>  <distance_score>  (523) 
1.590919

>  <orig_smiles>  (523) 
nan

>  <fragmenstein_mode>  (523) 
nan

>  <inchikey>  (523) 
VYYSPQPPUQVWMT-OXQOHEQNSA-N

>  <ref_pdb>  (523) 
Z0719a

>  <GNINA pK>  (523) 
nan

>  <gnina_score_min>  (523) 
5.439

>  <tags>  (523) 
openbind_xx01zvns2b_c1_elab_nonasap_filtered_scored_top80percent,openbind_xx01zvns2b_c1_elab_chemspace_filtered_scored_top80percent,openbind_xx01zvns2b_c1_elab_chemspace_filtered_scored,openbind_xx01zvns2b_c1_elab_chemspace_filtered_scored_top40percent,openbind_xx01zvns2b_c1_elab_chemspace_filtered_scored_top20percent,openbind_xx01zvns2b_c1_elab_chemspace_filtered_scored_top60percent,openbind_xx01zvns2b_c1_elabs_filtered

>  <smiles>  (523) 
CCN1CCN(CC(=O)NC[C@H]2CCC(=O)N(C3CC3)[C@H]2c2nccn2C)CC1

>  <subsites>  (523) 
1 - Z4590/B/203/1

>  <gnina_score>  (523) 
5.721

>  <HIPPO Pose ID>  (523) 
70733

>  <ref_mols>  (523) 
Z0701a,Z0719a

>  <energy_score>  (523) 
-20.164948

>  <inspiration_score>  (523) 
None

>  <smina_score_min>  (523) 
-4.534

>  <fragmenstein_error>  (523) 
nan

>  <name>  (523) 
P70733

$$$$
P70735
     RDKit          3D

 29 33  0  0  0  0  0  0  0  0999 V2000
   -2.6722    6.0325  -19.2437 C   0  0  0  0  0  0  0  0  0  0  0  0
   -3.4278    6.7079  -18.1291 C   0  0  1  0  0  0  0  0  0  0  0  0
   -2.4775    7.2265  -16.9834 C   0  0  0  0  0  0  0  0  0  0  0  0
   -3.1799    8.2988  -16.1804 N   0  0  0  0  0  0  0  0  0  0  0  0
   -3.1652    9.4880  -17.0864 C   0  0  0  0  0  0  0  0  0  0  0  0
   -3.5752    9.1012  -18.5499 C   0  0  0  0  0  0  0  0  0  0  0  0
   -4.3495    7.8152  -18.5876 N   0  0  0  0  0  0  0  0  0  0  0  0
   -5.3392    7.9774  -17.4688 C   0  0  0  0  0  0  0  0  0  0  0  0
   -4.6103    7.7984  -16.1142 C   0  0  2  0  0  0  0  0  0  0  0  0
   -5.4721    8.1777  -14.9044 C   0  0  0  0  0  0  0  0  0  0  0  0
   -5.4015    9.1557  -14.2664 O   0  0  0  0  0  0  0  0  0  0  0  0
   -6.3591    6.8984  -14.7073 N   0  0  0  0  0  0  0  0  0  0  0  0
   -7.2489    6.5412  -13.6470 C   0  0  0  0  0  0  0  0  0  0  0  0
   -8.0119    5.2104  -13.8584 C   0  0  2  0  0  0  0  0  0  0  0  0
   -8.2345    4.5002  -12.4914 C   0  0  0  0  0  0  0  0  0  0  0  0
   -7.0775    3.5834  -12.0549 C   0  0  0  0  0  0  0  0  0  0  0  0
   -6.6330    2.6929  -13.1942 C   0  0  0  0  0  0  0  0  0  0  0  0
   -6.6083    1.4703  -13.1482 O   0  0  0  0  0  0  0  0  0  0  0  0
   -6.2786    3.4334  -14.3249 N   0  0  0  0  0  0  0  0  0  0  0  0
   -4.9885    4.0952  -14.2261 C   0  0  0  0  0  0  0  0  0  0  0  0
   -3.7595    3.2271  -14.0294 C   0  0  0  0  0  0  0  0  0  0  0  0
   -3.9250    4.0240  -15.2805 C   0  0  0  0  0  0  0  0  0  0  0  0
   -7.4574    4.1421  -14.8400 C   0  0  2  0  0  0  0  0  0  0  0  0
   -7.3807    4.5022  -16.3055 C   0  0  0  0  0  0  0  0  0  0  0  0
   -6.3008    4.9008  -16.9566 N   0  0  0  0  0  0  0  0  0  0  0  0
   -6.6189    4.8488  -18.2946 C   0  0  0  0  0  0  0  0  0  0  0  0
   -7.9419    4.5628  -18.4595 C   0  0  0  0  0  0  0  0  0  0  0  0
   -8.4290    4.4184  -17.1974 N   0  0  0  0  0  0  0  0  0  0  0  0
   -9.8308    4.2577  -16.9575 C   0  0  0  0  0  0  0  0  0  0  0  0
  2  1  1  6
  2  3  1  0
  4  3  1  0
  4  5  1  0
  5  6  1  0
  7  6  1  0
  7  8  1  0
  8  9  1  0
  9 10  1  1
 10 11  2  0
 10 12  1  0
 12 13  1  0
 14 13  1  1
 14 15  1  0
 15 16  1  0
 16 17  1  0
 17 18  2  0
 17 19  1  0
 19 20  1  0
 20 21  1  0
 21 22  1  0
 19 23  1  0
 23 24  1  6
 24 25  2  0
 25 26  1  0
 26 27  2  0
 27 28  1  0
 28 29  1  0
  7  2  1  0
 23 14  1  0
 28 24  1  0
  9  4  1  0
 22 20  1  0
M  END
>  <fragmenstein_outcome>  (524) 
nan

>  <exports>  (524) 
['/opt/xchem-fragalysis-2/maxwin/openbind-hippo/xx01zvns2b/cycle_01/syndirella/elabs/openbind_xx01zvns2b_c1_elab_chemspace_filtered.sdf']

>  <Energy>  (524) 
nan

>  <alias>  (524) 
None

>  <fragmenstein_runtime>  (524) 
nan

>  <scratch_subdir>  (524) 
nan

>  <HIPPO Compound ID>  (524) 
143331

>  <rmsd(smina/fragmenstein)>  (524) 
1.031

>  <distance_score>  (524) 
1.724774

>  <orig_smiles>  (524) 
nan

>  <fragmenstein_mode>  (524) 
nan

>  <inchikey>  (524) 
BGNBWXCVHADXIM-BVYOLEPJSA-N

>  <ref_pdb>  (524) 
Z0719a

>  <GNINA pK>  (524) 
nan

>  <gnina_score_min>  (524) 
5.143

>  <tags>  (524) 
openbind_xx01zvns2b_c1_elab_nonasap_filtered_scored_top80percent,openbind_xx01zvns2b_c1_elab_chemspace_filtered_scored_top80percent,openbind_xx01zvns2b_c1_elab_chemspace_filtered_scored,openbind_xx01zvns2b_c1_elab_chemspace_filtered_scored_top40percent,openbind_xx01zvns2b_c1_elab_chemspace_filtered_scored_top20percent,openbind_xx01zvns2b_c1_elab_chemspace_filtered_scored_top60percent,openbind_xx01zvns2b_c1_elabs_filtered

>  <smiles>  (524) 
C[C@H]1CN2CCN1C[C@@H]2C(=O)NC[C@@H]1CCC(=O)N(C2CC2)[C@@H]1c1nccn1C

>  <subsites>  (524) 
1 - Z4590/B/203/1

>  <gnina_score>  (524) 
5.254

>  <HIPPO Pose ID>  (524) 
70735

>  <ref_mols>  (524) 
Z0701a,Z0719a

>  <energy_score>  (524) 
-22.637717

>  <inspiration_score>  (524) 
None

>  <smina_score_min>  (524) 
-5.853

>  <fragmenstein_error>  (524) 
nan

>  <name>  (524) 
P70735

$$$$
P70742
     RDKit          3D

 30 33  0  0  0  0  0  0  0  0999 V2000
   -3.5430    6.5415   -8.2484 C   0  0  0  0  0  0  0  0  0  0  0  0
   -3.2709    5.2253   -8.8163 N   0  0  0  0  0  0  0  0  0  0  0  0
   -2.5773    5.3458  -10.1127 C   0  0  0  0  0  0  0  0  0  0  0  0
   -2.7968    4.1191  -11.0265 C   0  0  0  0  0  0  0  0  0  0  0  0
   -4.2083    3.9753  -11.4420 N   0  0  0  0  0  0  0  0  0  0  0  0
   -4.5480    2.6137  -12.0038 C   0  0  0  0  0  0  0  0  0  0  0  0
   -3.5041    2.1722  -13.0527 C   0  0  0  0  0  0  0  0  0  0  0  0
   -4.6628    1.5258  -10.9167 C   0  0  0  0  0  0  0  0  0  0  0  0
   -5.9115    2.6919  -12.8129 C   0  0  0  0  0  0  0  0  0  0  0  0
   -6.6265    1.7783  -12.9678 O   0  0  0  0  0  0  0  0  0  0  0  0
   -6.0211    4.1579  -13.3289 N   0  0  0  0  0  0  0  0  0  0  0  0
   -7.0716    4.8142  -14.0536 C   0  0  0  0  0  0  0  0  0  0  0  0
   -7.1084    4.5220  -15.5604 C   0  0  1  0  0  0  0  0  0  0  0  0
   -8.5590    4.6946  -16.0187 C   0  0  0  0  0  0  0  0  0  0  0  0
   -8.7671    4.3316  -17.4615 C   0  0  0  0  0  0  0  0  0  0  0  0
   -7.5556    4.4664  -18.3340 C   0  0  0  0  0  0  0  0  0  0  0  0
   -7.6092    3.9702  -19.4549 O   0  0  0  0  0  0  0  0  0  0  0  0
   -6.4456    5.1622  -17.8683 N   0  0  0  0  0  0  0  0  0  0  0  0
   -5.4616    5.5779  -18.8455 C   0  0  0  0  0  0  0  0  0  0  0  0
   -4.7054    6.8878  -18.7909 C   0  0  0  0  0  0  0  0  0  0  0  0
   -5.7890    6.7078  -19.7952 C   0  0  0  0  0  0  0  0  0  0  0  0
   -6.2561    5.4620  -16.4385 C   0  0  2  0  0  0  0  0  0  0  0  0
   -4.7913    5.4653  -16.0337 C   0  0  0  0  0  0  0  0  0  0  0  0
   -3.8874    4.5331  -16.2958 N   0  0  0  0  0  0  0  0  0  0  0  0
   -2.7077    4.9852  -15.7765 C   0  0  0  0  0  0  0  0  0  0  0  0
   -2.8759    6.1971  -15.1612 C   0  0  0  0  0  0  0  0  0  0  0  0
   -4.1967    6.5017  -15.3346 N   0  0  0  0  0  0  0  0  0  0  0  0
   -4.8081    7.7252  -14.8756 C   0  0  0  0  0  0  0  0  0  0  0  0
   -5.1253    4.4141  -10.3553 C   0  0  0  0  0  0  0  0  0  0  0  0
   -4.5029    4.4148   -8.9387 C   0  0  0  0  0  0  0  0  0  0  0  0
  1  2  1  0
  2  3  1  0
  3  4  1  0
  4  5  1  0
  5  6  1  0
  6  7  1  0
  6  8  1  0
  6  9  1  0
  9 10  2  0
  9 11  1  0
 11 12  1  0
 13 12  1  1
 13 14  1  0
 14 15  1  0
 15 16  1  0
 16 17  2  0
 16 18  1  0
 18 19  1  0
 19 20  1  0
 20 21  1  0
 18 22  1  0
 22 23  1  1
 23 24  2  0
 24 25  1  0
 25 26  2  0
 26 27  1  0
 27 28  1  0
  5 29  1  0
 29 30  1  0
 30  2  1  0
 22 13  1  0
 27 23  1  0
 21 19  1  0
M  END
>  <fragmenstein_outcome>  (525) 
nan

>  <exports>  (525) 
['/opt/xchem-fragalysis-2/maxwin/openbind-hippo/xx01zvns2b/cycle_01/syndirella/elabs/openbind_xx01zvns2b_c1_elab_chemspace_filtered.sdf']

>  <Energy>  (525) 
nan

>  <alias>  (525) 
None

>  <fragmenstein_runtime>  (525) 
nan

>  <scratch_subdir>  (525) 
nan

>  <HIPPO Compound ID>  (525) 
143373

>  <rmsd(smina/fragmenstein)>  (525) 
0.593

>  <distance_score>  (525) 
1.762843

>  <orig_smiles>  (525) 
nan

>  <fragmenstein_mode>  (525) 
nan

>  <inchikey>  (525) 
VJSSTNBRGQRSEQ-APWZRJJASA-N

>  <ref_pdb>  (525) 
Z0719a

>  <GNINA pK>  (525) 
nan

>  <gnina_score_min>  (525) 
5.346

>  <tags>  (525) 
openbind_xx01zvns2b_c1_elab_nonasap_filtered_scored_top80percent,openbind_xx01zvns2b_c1_elab_chemspace_filtered_scored_top80percent,openbind_xx01zvns2b_c1_elab_chemspace_filtered_scored,openbind_xx01zvns2b_c1_elab_chemspace_filtered_scored_top40percent,openbind_xx01zvns2b_c1_elab_chemspace_filtered_scored_top20percent,openbind_xx01zvns2b_c1_elab_chemspace_filtered_scored_top60percent,openbind_xx01zvns2b_c1_elabs_filtered

>  <smiles>  (525) 
CN1CCN(C(C)(C)C(=O)NC[C@H]2CCC(=O)N(C3CC3)[C@@H]2c2nccn2C)CC1

>  <subsites>  (525) 
1 - Z4590/B/203/1

>  <gnina_score>  (525) 
5.451

>  <HIPPO Pose ID>  (525) 
70742

>  <ref_mols>  (525) 
Z0701a,Z0719a

>  <energy_score>  (525) 
-55.843605

>  <inspiration_score>  (525) 
None

>  <smina_score_min>  (525) 
-5.358

>  <fragmenstein_error>  (525) 
nan

>  <name>  (525) 
P70742

$$$$
P70743
     RDKit          3D

 30 33  0  0  0  0  0  0  0  0999 V2000
   -0.9915    6.3229  -15.2387 C   0  0  0  0  0  0  0  0  0  0  0  0
   -2.1721    5.3460  -15.2709 C   0  0  1  0  0  0  0  0  0  0  0  0
   -2.9352    5.4360  -13.9142 C   0  0  0  0  0  0  0  0  0  0  0  0
   -3.2768    6.4708  -13.4603 O   0  0  0  0  0  0  0  0  0  0  0  0
   -3.1222    4.0124  -13.3836 N   0  0  0  0  0  0  0  0  0  0  0  0
   -1.9586    3.5994  -12.4987 C   0  0  0  0  0  0  0  0  0  0  0  0
   -1.5671    2.1236  -12.6095 C   0  0  0  0  0  0  0  0  0  0  0  0
   -2.7975    1.2625  -12.4947 C   0  0  0  0  0  0  0  0  0  0  0  0
   -3.7959    2.0146  -11.6552 C   0  0  0  0  0  0  0  0  0  0  0  0
   -3.9135    3.4839  -12.1349 C   0  0  2  0  0  0  0  0  0  0  0  0
   -5.4025    3.8564  -12.4429 C   0  0  2  0  0  0  0  0  0  0  0  0
   -6.2593    4.0681  -11.1920 C   0  0  0  0  0  0  0  0  0  0  0  0
   -7.4909    4.8715  -11.5957 C   0  0  0  0  0  0  0  0  0  0  0  0
   -8.1390    4.3991  -12.8846 C   0  0  0  0  0  0  0  0  0  0  0  0
   -9.2288    4.8556  -13.2283 O   0  0  0  0  0  0  0  0  0  0  0  0
   -7.4517    3.5012  -13.6590 N   0  0  0  0  0  0  0  0  0  0  0  0
   -6.2353    2.9473  -13.3350 C   0  0  0  0  0  0  0  0  0  0  0  0
   -5.9525    1.8078  -13.6738 O   0  0  0  0  0  0  0  0  0  0  0  0
   -2.9966    5.6377  -16.4750 N   0  0  0  0  0  0  0  0  0  0  0  0
   -3.9855    6.7251  -16.3111 C   0  0  0  0  0  0  0  0  0  0  0  0
   -4.8193    7.0107  -17.5896 C   0  0  0  0  0  0  0  0  0  0  0  0
   -5.3903    5.8051  -18.2034 N   0  0  0  0  0  0  0  0  0  0  0  0
   -6.6539    5.3420  -17.8309 C   0  0  0  0  0  0  0  0  0  0  0  0
   -7.2517    5.6268  -16.6049 C   0  0  0  0  0  0  0  0  0  0  0  0
   -8.5358    5.1694  -16.3023 C   0  0  0  0  0  0  0  0  0  0  0  0
   -9.2591    4.4173  -17.2120 C   0  0  0  0  0  0  0  0  0  0  0  0
   -8.6915    4.1291  -18.4367 C   0  0  0  0  0  0  0  0  0  0  0  0
   -7.4023    4.5762  -18.7343 C   0  0  0  0  0  0  0  0  0  0  0  0
   -4.3837    4.7441  -18.3553 C   0  0  0  0  0  0  0  0  0  0  0  0
   -3.6809    4.4415  -17.0051 C   0  0  0  0  0  0  0  0  0  0  0  0
  2  1  1  1
  2  3  1  0
  3  4  2  0
  3  5  1  0
  5  6  1  0
  6  7  1  0
  7  8  1  0
  8  9  1  0
 10  9  1  6
 10 11  1  0
 11 12  1  1
 12 13  1  0
 13 14  1  0
 14 15  2  0
 14 16  1  0
 16 17  1  0
 17 18  2  0
  2 19  1  0
 19 20  1  0
 20 21  1  0
 21 22  1  0
 22 23  1  0
 23 24  2  0
 24 25  1  0
 25 26  2  0
 26 27  1  0
 27 28  2  0
 22 29  1  0
 29 30  1  0
 10  5  1  0
 17 11  1  0
 30 19  1  0
 28 23  1  0
M  END
>  <fragmenstein_outcome>  (526) 
nan

>  <exports>  (526) 
['/opt/xchem-fragalysis-2/maxwin/openbind-hippo/xx01zvns2b/cycle_01/syndirella/elabs/openbind_xx01zvns2b_c1_elab_chemspace_filtered.sdf']

>  <Energy>  (526) 
nan

>  <alias>  (526) 
None

>  <fragmenstein_runtime>  (526) 
nan

>  <scratch_subdir>  (526) 
nan

>  <HIPPO Compound ID>  (526) 
143375

>  <rmsd(smina/fragmenstein)>  (526) 
0.408

>  <distance_score>  (526) 
1.833532

>  <orig_smiles>  (526) 
nan

>  <fragmenstein_mode>  (526) 
nan

>  <inchikey>  (526) 
DXXSCXGYSBNANI-YSIASYRMSA-N

>  <ref_pdb>  (526) 
Z0719a

>  <GNINA pK>  (526) 
nan

>  <gnina_score_min>  (526) 
5.495

>  <tags>  (526) 
openbind_xx01zvns2b_c1_elab_nonasap_filtered_scored_top80percent,openbind_xx01zvns2b_c1_elab_chemspace_filtered_scored_top80percent,openbind_xx01zvns2b_c1_elab_chemspace_filtered_scored,openbind_xx01zvns2b_c1_elab_chemspace_filtered_scored_top40percent,openbind_xx01zvns2b_c1_elab_chemspace_filtered_scored_top20percent,openbind_xx01zvns2b_c1_elab_chemspace_filtered_scored_top60percent,openbind_xx01zvns2b_c1_elabs_filtered

>  <smiles>  (526) 
C[C@@H](C(=O)N1CCCC[C@@H]1[C@@H]1CCC(=O)NC1=O)N1CCN(c2ccccc2)CC1

>  <subsites>  (526) 
1 - Z4590/B/203/1

>  <gnina_score>  (526) 
5.789

>  <HIPPO Pose ID>  (526) 
70743

>  <ref_mols>  (526) 
Z0701a,Z0719a

>  <energy_score>  (526) 
-9.19669

>  <inspiration_score>  (526) 
None

>  <smina_score_min>  (526) 
-6.666

>  <fragmenstein_error>  (526) 
nan

>  <name>  (526) 
P70743

$$$$
P70744
     RDKit          3D

 30 32  0  0  0  0  0  0  0  0999 V2000
   -4.0480    5.3278  -19.2673 C   0  0  0  0  0  0  0  0  0  0  0  0
   -4.5903    4.5353  -18.0808 C   0  0  0  0  0  0  0  0  0  0  0  0
   -5.4317    5.3141  -17.1788 N   0  0  0  0  0  0  0  0  0  0  0  0
   -4.7987    6.3801  -16.5823 C   0  0  0  0  0  0  0  0  0  0  0  0
   -3.5991    6.6122  -16.6697 O   0  0  0  0  0  0  0  0  0  0  0  0
   -5.7129    7.2572  -15.8060 C   0  0  0  0  0  0  0  0  0  0  0  0
   -6.1940    6.4530  -14.6341 C   0  0  0  0  0  0  0  0  0  0  0  0
   -7.0553    5.3034  -15.1314 C   0  0  2  0  0  0  0  0  0  0  0  0
   -7.3037    4.2883  -14.0014 C   0  0  0  0  0  0  0  0  0  0  0  0
   -6.1042    3.6849  -13.4828 N   0  0  0  0  0  0  0  0  0  0  0  0
   -5.8026    2.2225  -13.1057 C   0  0  0  0  0  0  0  0  0  0  0  0
   -6.4506    1.2632  -13.2271 O   0  0  0  0  0  0  0  0  0  0  0  0
   -4.3459    2.1817  -12.5895 C   0  0  0  0  0  0  0  0  0  0  0  0
   -3.9152    3.4953  -12.0419 N   0  0  0  0  0  0  0  0  0  0  0  0
   -4.3154    3.6239  -10.6143 C   0  0  0  0  0  0  0  0  0  0  0  0
   -3.5251    2.7467   -9.6118 C   0  0  0  0  0  0  0  0  0  0  0  0
   -2.0508    2.8974   -9.8106 N   0  0  0  0  0  0  0  0  0  0  0  0
   -1.0465    2.1822   -8.6526 S   0  0  0  0  0  0  0  0  0  0  0  0
   -1.1622    0.4483   -9.0406 C   0  0  0  0  0  0  0  0  0  0  0  0
   -1.6363    2.3904   -7.3477 O   0  0  0  0  0  0  0  0  0  0  0  0
    0.3136    2.5956   -8.9307 O   0  0  0  0  0  0  0  0  0  0  0  0
   -1.6304    2.7448  -11.2272 C   0  0  0  0  0  0  0  0  0  0  0  0
   -2.4523    3.6725  -12.1366 C   0  0  0  0  0  0  0  0  0  0  0  0
   -6.5451    4.6252  -16.4596 C   0  0  1  0  0  0  0  0  0  0  0  0
   -7.6952    4.4227  -17.3897 C   0  0  0  0  0  0  0  0  0  0  0  0
   -7.7321    4.3939  -18.7990 C   0  0  0  0  0  0  0  0  0  0  0  0
   -8.9641    4.2202  -19.2610 N   0  0  0  0  0  0  0  0  0  0  0  0
   -9.7167    4.3152  -18.1734 N   0  0  0  0  0  0  0  0  0  0  0  0
  -11.0841    4.7175  -18.2662 C   0  0  0  0  0  0  0  0  0  0  0  0
   -9.0129    4.2244  -17.0245 C   0  0  0  0  0  0  0  0  0  0  0  0
  1  2  1  0
  2  3  1  0
  3  4  1  0
  4  5  2  0
  4  6  1  0
  6  7  1  0
  7  8  1  0
  8  9  1  1
  9 10  1  0
 10 11  1  0
 11 12  2  0
 11 13  1  0
 13 14  1  0
 14 15  1  0
 15 16  1  0
 16 17  1  0
 17 18  1  0
 18 19  1  0
 18 20  2  0
 18 21  2  0
 17 22  1  0
 22 23  1  0
  8 24  1  0
 24 25  1  6
 25 26  1  0
 26 27  2  0
 27 28  1  0
 28 29  1  0
 28 30  1  0
 24  3  1  0
 30 25  2  0
 23 14  1  0
M  END
>  <fragmenstein_outcome>  (527) 
nan

>  <exports>  (527) 
['/opt/xchem-fragalysis-2/maxwin/openbind-hippo/xx01zvns2b/cycle_01/syndirella/elabs/openbind_xx01zvns2b_c1_elab_chemspace_filtered.sdf']

>  <Energy>  (527) 
nan

>  <alias>  (527) 
None

>  <fragmenstein_runtime>  (527) 
nan

>  <scratch_subdir>  (527) 
nan

>  <HIPPO Compound ID>  (527) 
143377

>  <rmsd(smina/fragmenstein)>  (527) 
1.673

>  <distance_score>  (527) 
1.9901

>  <orig_smiles>  (527) 
nan

>  <fragmenstein_mode>  (527) 
nan

>  <inchikey>  (527) 
KYGXGMAXBLWTFF-BEFAXECRSA-N

>  <ref_pdb>  (527) 
Z0719a

>  <GNINA pK>  (527) 
nan

>  <gnina_score_min>  (527) 
5.634

>  <tags>  (527) 
openbind_xx01zvns2b_c1_elab_nonasap_filtered_scored_top80percent,openbind_xx01zvns2b_c1_elab_chemspace_filtered_scored_top80percent,openbind_xx01zvns2b_c1_elab_chemspace_filtered_scored,openbind_xx01zvns2b_c1_elab_chemspace_filtered_scored_top40percent,openbind_xx01zvns2b_c1_elab_chemspace_filtered_scored_top20percent,openbind_xx01zvns2b_c1_elab_chemspace_filtered_scored_top60percent,openbind_xx01zvns2b_c1_elabs_filtered

>  <smiles>  (527) 
CCN1C(=O)CC[C@H](CNC(=O)CN2CCN(S(C)(=O)=O)CC2)[C@H]1c1cnn(C)c1

>  <subsites>  (527) 
1 - Z4590/B/203/1

>  <gnina_score>  (527) 
5.907

>  <HIPPO Pose ID>  (527) 
70744

>  <ref_mols>  (527) 
Z0701a,Z0719a

>  <energy_score>  (527) 
-68.58058

>  <inspiration_score>  (527) 
None

>  <smina_score_min>  (527) 
-6.23

>  <fragmenstein_error>  (527) 
nan

>  <name>  (527) 
P70744

$$$$
P70749
     RDKit          3D

 31 34  0  0  0  0  0  0  0  0999 V2000
   -0.6083    5.4187  -15.7230 C   0  0  0  0  0  0  0  0  0  0  0  0
   -2.1055    5.5624  -15.4898 C   0  0  2  0  0  0  0  0  0  0  0  0
   -2.9186    4.2469  -15.2222 C   0  0  0  0  0  0  0  0  0  0  0  0
   -3.3719    3.6410  -16.1230 O   0  0  0  0  0  0  0  0  0  0  0  0
   -3.0603    4.0324  -13.7194 N   0  0  0  0  0  0  0  0  0  0  0  0
   -1.9642    3.1204  -13.1893 C   0  0  0  0  0  0  0  0  0  0  0  0
   -1.5114    3.2308  -11.7362 C   0  0  0  0  0  0  0  0  0  0  0  0
   -2.4903    2.4447  -10.9125 C   0  0  0  0  0  0  0  0  0  0  0  0
   -3.8374    2.9423  -11.3605 C   0  0  0  0  0  0  0  0  0  0  0  0
   -3.9326    3.0123  -12.9146 C   0  0  1  0  0  0  0  0  0  0  0  0
   -5.3655    3.6259  -13.2550 C   0  0  2  0  0  0  0  0  0  0  0  0
   -5.7545    4.8133  -12.3579 C   0  0  0  0  0  0  0  0  0  0  0  0
   -6.9318    5.5560  -12.9454 C   0  0  0  0  0  0  0  0  0  0  0  0
   -8.0635    4.6275  -13.2944 C   0  0  0  0  0  0  0  0  0  0  0  0
   -9.2114    5.0619  -13.3873 O   0  0  0  0  0  0  0  0  0  0  0  0
   -7.7523    3.3122  -13.5327 N   0  0  0  0  0  0  0  0  0  0  0  0
   -6.5424    2.6770  -13.3244 C   0  0  0  0  0  0  0  0  0  0  0  0
   -6.4573    1.4581  -13.2541 O   0  0  0  0  0  0  0  0  0  0  0  0
   -2.7324    6.3553  -16.6062 N   0  0  0  0  0  0  0  0  0  0  0  0
   -4.0435    6.9129  -16.2165 C   0  0  0  0  0  0  0  0  0  0  0  0
   -4.9348    7.2895  -17.4203 C   0  0  0  0  0  0  0  0  0  0  0  0
   -5.3159    6.1077  -18.1945 N   0  0  0  0  0  0  0  0  0  0  0  0
   -6.5420    5.4756  -17.9501 C   0  0  0  0  0  0  0  0  0  0  0  0
   -7.2662    5.6353  -16.7644 C   0  0  0  0  0  0  0  0  0  0  0  0
   -8.5201    5.0450  -16.5819 C   0  0  0  0  0  0  0  0  0  0  0  0
   -9.0849    4.3052  -17.5955 C   0  0  0  0  0  0  0  0  0  0  0  0
  -10.3188    3.8122  -17.4635 F   0  0  0  0  0  0  0  0  0  0  0  0
   -8.3996    4.1226  -18.7727 C   0  0  0  0  0  0  0  0  0  0  0  0
   -7.1288    4.6784  -18.9374 C   0  0  0  0  0  0  0  0  0  0  0  0
   -4.1994    5.1762  -18.4688 C   0  0  0  0  0  0  0  0  0  0  0  0
   -2.8137    5.6850  -17.9350 C   0  0  0  0  0  0  0  0  0  0  0  0
  2  1  1  6
  2  3  1  0
  3  4  2  0
  3  5  1  0
  5  6  1  0
  6  7  1  0
  7  8  1  0
  8  9  1  0
 10  9  1  1
 10 11  1  0
 11 12  1  1
 12 13  1  0
 13 14  1  0
 14 15  2  0
 14 16  1  0
 16 17  1  0
 17 18  2  0
  2 19  1  0
 19 20  1  0
 20 21  1  0
 21 22  1  0
 22 23  1  0
 23 24  2  0
 24 25  1  0
 25 26  2  0
 26 27  1  0
 26 28  1  0
 28 29  2  0
 22 30  1  0
 30 31  1  0
 10  5  1  0
 17 11  1  0
 31 19  1  0
 29 23  1  0
M  END
>  <fragmenstein_outcome>  (528) 
nan

>  <exports>  (528) 
['/opt/xchem-fragalysis-2/maxwin/openbind-hippo/xx01zvns2b/cycle_01/syndirella/elabs/openbind_xx01zvns2b_c1_elab_chemspace_filtered.sdf']

>  <Energy>  (528) 
nan

>  <alias>  (528) 
None

>  <fragmenstein_runtime>  (528) 
nan

>  <scratch_subdir>  (528) 
nan

>  <HIPPO Compound ID>  (528) 
143426

>  <rmsd(smina/fragmenstein)>  (528) 
0.931

>  <distance_score>  (528) 
1.708198

>  <orig_smiles>  (528) 
nan

>  <fragmenstein_mode>  (528) 
nan

>  <inchikey>  (528) 
DVVNWINAMSKJNF-UXPWSPDFSA-N

>  <ref_pdb>  (528) 
Z0719a

>  <GNINA pK>  (528) 
nan

>  <gnina_score_min>  (528) 
5.826

>  <tags>  (528) 
openbind_xx01zvns2b_c1_elab_nonasap_filtered_scored_top80percent,openbind_xx01zvns2b_c1_elab_chemspace_filtered_scored_top80percent,openbind_xx01zvns2b_c1_elab_chemspace_filtered_scored,openbind_xx01zvns2b_c1_elab_chemspace_filtered_scored_top40percent,openbind_xx01zvns2b_c1_elab_chemspace_filtered_scored_top20percent,openbind_xx01zvns2b_c1_elab_chemspace_filtered_scored_top60percent,openbind_xx01zvns2b_c1_elabs_filtered

>  <smiles>  (528) 
C[C@H](C(=O)N1CCCC[C@H]1[C@@H]1CCC(=O)NC1=O)N1CCN(c2ccc(F)cc2)CC1

>  <subsites>  (528) 
1 - Z4590/B/203/1

>  <gnina_score>  (528) 
6.064

>  <HIPPO Pose ID>  (528) 
70749

>  <ref_mols>  (528) 
Z0701a,Z0719a

>  <energy_score>  (528) 
-9.924884

>  <inspiration_score>  (528) 
None

>  <smina_score_min>  (528) 
-6.811

>  <fragmenstein_error>  (528) 
nan

>  <name>  (528) 
P70749

$$$$
P70770
     RDKit          3D

 26 28  0  0  0  0  0  0  0  0999 V2000
   -3.1757    7.3627  -24.9297 C   0  0  0  0  0  0  0  0  0  0  0  0
   -4.5707    7.4704  -24.3405 C   0  0  0  0  0  0  0  0  0  0  0  0
   -4.7239    8.8270  -23.2145 S   0  0  0  0  0  0  0  0  0  0  0  0
   -6.0803    8.9371  -22.7273 O   0  0  0  0  0  0  0  0  0  0  0  0
   -4.1683    9.9891  -23.8966 O   0  0  0  0  0  0  0  0  0  0  0  0
   -3.6197    8.4896  -21.8699 C   0  0  0  0  0  0  0  0  0  0  0  0
   -2.3840    9.1538  -21.8811 C   0  0  0  0  0  0  0  0  0  0  0  0
   -1.5315    9.0839  -20.7775 C   0  0  0  0  0  0  0  0  0  0  0  0
   -1.9194    8.3517  -19.6840 C   0  0  0  0  0  0  0  0  0  0  0  0
   -3.0666    7.6693  -19.6554 N   0  0  0  0  0  0  0  0  0  0  0  0
   -3.9137    7.7378  -20.7439 C   0  0  0  0  0  0  0  0  0  0  0  0
   -5.1267    6.8898  -20.5076 C   0  0  0  0  0  0  0  0  0  0  0  0
   -5.9490    6.7648  -21.3211 O   0  0  0  0  0  0  0  0  0  0  0  0
   -5.0418    6.3175  -19.0677 N   0  0  0  0  0  0  0  0  0  0  0  0
   -5.9755    5.5718  -18.3245 C   0  0  0  0  0  0  0  0  0  0  0  0
   -7.0249    4.8502  -18.8739 C   0  0  0  0  0  0  0  0  0  0  0  0
   -6.8791    3.9755  -20.3172 Cl  0  0  0  0  0  0  0  0  0  0  0  0
   -8.1364    4.5230  -18.1250 C   0  0  0  0  0  0  0  0  0  0  0  0
   -8.1278    4.7706  -16.7635 C   0  0  0  0  0  0  0  0  0  0  0  0
   -9.3587    4.5392  -15.9699 C   0  0  0  0  0  0  0  0  0  0  0  0
   -6.9989    5.2527  -16.1277 C   0  0  0  0  0  0  0  0  0  0  0  0
   -7.0264    5.3508  -14.7850 N   0  0  0  0  0  0  0  0  0  0  0  0
   -5.9292    5.7690  -14.1435 C   0  0  0  0  0  0  0  0  0  0  0  0
   -4.7847    6.1570  -14.7983 C   0  0  0  0  0  0  0  0  0  0  0  0
   -4.7747    6.1144  -16.1910 C   0  0  0  0  0  0  0  0  0  0  0  0
   -5.8936    5.6448  -16.9072 C   0  0  0  0  0  0  0  0  0  0  0  0
  1  2  1  0
  2  3  1  0
  3  4  2  0
  3  5  2  0
  3  6  1  0
  6  7  2  0
  7  8  1  0
  8  9  2  0
  9 10  1  0
 10 11  2  0
 11 12  1  0
 12 13  2  0
 12 14  1  0
 14 15  1  0
 15 16  2  0
 16 17  1  0
 16 18  1  0
 18 19  2  0
 19 20  1  0
 19 21  1  0
 21 22  2  0
 22 23  1  0
 23 24  2  0
 24 25  1  0
 25 26  2  0
 11  6  1  0
 26 15  1  0
 26 21  1  0
M  END
>  <fragmenstein_outcome>  (529) 
nan

>  <exports>  (529) 
['/opt/xchem-fragalysis-2/maxwin/openbind-hippo/xx01zvns2b/cycle_01/syndirella/elabs/openbind_xx01zvns2b_c1_elab_chemspace_filtered.sdf']

>  <Energy>  (529) 
nan

>  <alias>  (529) 
None

>  <fragmenstein_runtime>  (529) 
nan

>  <scratch_subdir>  (529) 
nan

>  <HIPPO Compound ID>  (529) 
143623

>  <rmsd(smina/fragmenstein)>  (529) 
1.904

>  <distance_score>  (529) 
1.944462

>  <orig_smiles>  (529) 
nan

>  <fragmenstein_mode>  (529) 
nan

>  <inchikey>  (529) 
IFXWCPVHKUMWQW-UHFFFAOYSA-N

>  <ref_pdb>  (529) 
Z2971a

>  <GNINA pK>  (529) 
nan

>  <gnina_score_min>  (529) 
5.383

>  <tags>  (529) 
openbind_xx01zvns2b_c1_elab_nonasap_filtered_scored_top80percent,openbind_xx01zvns2b_c1_elab_chemspace_filtered_scored_top80percent,openbind_xx01zvns2b_c1_elab_chemspace_filtered_scored,openbind_xx01zvns2b_c1_elab_chemspace_filtered_scored_top40percent,openbind_xx01zvns2b_c1_elab_chemspace_filtered_scored_top20percent,openbind_xx01zvns2b_c1_elab_chemspace_filtered_scored_top60percent,openbind_xx01zvns2b_c1_elabs_filtered

>  <smiles>  (529) 
CCS(=O)(=O)c1cccnc1C(=O)Nc1c(Cl)cc(C)c2ncccc12

>  <subsites>  (529) 
1 - Z4590/B/203/1

>  <gnina_score>  (529) 
4.799

>  <HIPPO Pose ID>  (529) 
70770

>  <ref_mols>  (529) 
Z2971a,Z1719a

>  <energy_score>  (529) 
-27.063939

>  <inspiration_score>  (529) 
None

>  <smina_score_min>  (529) 
-5.679

>  <fragmenstein_error>  (529) 
nan

>  <name>  (529) 
P70770

$$$$
P70772
     RDKit          3D

 26 28  0  0  0  0  0  0  0  0999 V2000
   -7.8935    3.7325  -19.8796 C   0  0  0  0  0  0  0  0  0  0  0  0
   -6.8436    4.6983  -19.4310 C   0  0  0  0  0  0  0  0  0  0  0  0
   -7.1426    5.3166  -18.0946 C   0  0  0  0  0  0  0  0  0  0  0  0
   -8.2799    4.9317  -17.3834 C   0  0  0  0  0  0  0  0  0  0  0  0
   -8.2565    4.9591  -16.0074 C   0  0  0  0  0  0  0  0  0  0  0  0
   -7.1226    5.3585  -15.3413 C   0  0  0  0  0  0  0  0  0  0  0  0
   -7.1422    5.2306  -14.0117 N   0  0  0  0  0  0  0  0  0  0  0  0
   -6.0344    5.5782  -13.3372 C   0  0  0  0  0  0  0  0  0  0  0  0
   -4.8958    6.0854  -13.9344 C   0  0  0  0  0  0  0  0  0  0  0  0
   -4.8872    6.2492  -15.3142 C   0  0  0  0  0  0  0  0  0  0  0  0
   -6.0104    5.8729  -16.0622 C   0  0  0  0  0  0  0  0  0  0  0  0
   -6.0860    5.9701  -17.4554 C   0  0  0  0  0  0  0  0  0  0  0  0
   -5.0717    6.4279  -18.3001 N   0  0  0  0  0  0  0  0  0  0  0  0
   -5.1372    7.3702  -19.5434 C   0  0  0  0  0  0  0  0  0  0  0  0
   -6.0360    7.9633  -19.9967 O   0  0  0  0  0  0  0  0  0  0  0  0
   -3.7946    7.3534  -20.2310 C   0  0  0  0  0  0  0  0  0  0  0  0
   -2.8321    6.8283  -19.3924 N   0  0  0  0  0  0  0  0  0  0  0  0
   -1.5993    6.6394  -19.8671 C   0  0  0  0  0  0  0  0  0  0  0  0
   -1.2643    6.9228  -21.1686 C   0  0  0  0  0  0  0  0  0  0  0  0
   -2.2399    7.4226  -22.0355 C   0  0  0  0  0  0  0  0  0  0  0  0
   -3.5411    7.6560  -21.5731 C   0  0  0  0  0  0  0  0  0  0  0  0
   -4.7737    8.3073  -22.6765 S   0  0  0  0  0  0  0  0  0  0  0  0
   -5.8943    7.3953  -22.7140 O   0  0  0  0  0  0  0  0  0  0  0  0
   -4.9298    9.7079  -22.3305 O   0  0  0  0  0  0  0  0  0  0  0  0
   -4.1266    8.2392  -24.3361 C   0  0  0  0  0  0  0  0  0  0  0  0
   -3.1887    9.3695  -24.7011 C   0  0  0  0  0  0  0  0  0  0  0  0
  1  2  1  0
  2  3  1  0
  3  4  2  0
  4  5  1  0
  5  6  2  0
  6  7  1  0
  7  8  2  0
  8  9  1  0
  9 10  2  0
 10 11  1  0
 11 12  2  0
 12 13  1  0
 13 14  1  0
 14 15  2  0
 14 16  1  0
 16 17  2  0
 17 18  1  0
 18 19  2  0
 19 20  1  0
 20 21  2  0
 21 22  1  0
 22 23  2  0
 22 24  2  0
 22 25  1  0
 25 26  1  0
 12  3  1  0
 21 16  1  0
 11  6  1  0
M  END
>  <fragmenstein_outcome>  (530) 
nan

>  <exports>  (530) 
['/opt/xchem-fragalysis-2/maxwin/openbind-hippo/xx01zvns2b/cycle_01/syndirella/elabs/openbind_xx01zvns2b_c1_elab_chemspace_filtered.sdf']

>  <Energy>  (530) 
nan

>  <alias>  (530) 
None

>  <fragmenstein_runtime>  (530) 
nan

>  <scratch_subdir>  (530) 
nan

>  <HIPPO Compound ID>  (530) 
143628

>  <rmsd(smina/fragmenstein)>  (530) 
2.088

>  <distance_score>  (530) 
1.793417

>  <orig_smiles>  (530) 
nan

>  <fragmenstein_mode>  (530) 
nan

>  <inchikey>  (530) 
IIJXQQNTTXZHNB-UHFFFAOYSA-N

>  <ref_pdb>  (530) 
Z2971a

>  <GNINA pK>  (530) 
nan

>  <gnina_score_min>  (530) 
5.17

>  <tags>  (530) 
openbind_xx01zvns2b_c1_elab_nonasap_filtered_scored_top80percent,openbind_xx01zvns2b_c1_elab_chemspace_filtered_scored_top80percent,openbind_xx01zvns2b_c1_elab_chemspace_filtered_scored,openbind_xx01zvns2b_c1_elab_chemspace_filtered_scored_top40percent,openbind_xx01zvns2b_c1_elab_chemspace_filtered_scored_top20percent,openbind_xx01zvns2b_c1_elab_chemspace_filtered_scored_top60percent,openbind_xx01zvns2b_c1_elabs_filtered

>  <smiles>  (530) 
CCc1ccc2ncccc2c1NC(=O)c1ncccc1S(=O)(=O)CC

>  <subsites>  (530) 
1 - Z4590/B/203/1

>  <gnina_score>  (530) 
5.266

>  <HIPPO Pose ID>  (530) 
70772

>  <ref_mols>  (530) 
Z2971a,Z1719a

>  <energy_score>  (530) 
-16.683771

>  <inspiration_score>  (530) 
None

>  <smina_score_min>  (530) 
-5.234

>  <fragmenstein_error>  (530) 
nan

>  <name>  (530) 
P70772

$$$$
P70773
     RDKit          3D

 26 28  0  0  0  0  0  0  0  0999 V2000
   -2.3948    8.3446  -25.2631 C   0  0  0  0  0  0  0  0  0  0  0  0
   -3.6606    8.9913  -24.7420 C   0  0  0  0  0  0  0  0  0  0  0  0
   -4.4383    8.0967  -23.4291 S   0  0  0  0  0  0  0  0  0  0  0  0
   -5.7397    8.7254  -23.2988 O   0  0  0  0  0  0  0  0  0  0  0  0
   -4.2373    6.6991  -23.7507 O   0  0  0  0  0  0  0  0  0  0  0  0
   -3.5446    8.4034  -21.9276 C   0  0  0  0  0  0  0  0  0  0  0  0
   -2.3842    9.1754  -21.9082 C   0  0  0  0  0  0  0  0  0  0  0  0
   -1.7118    9.3871  -20.6971 C   0  0  0  0  0  0  0  0  0  0  0  0
   -2.2109    8.8433  -19.5343 C   0  0  0  0  0  0  0  0  0  0  0  0
   -3.3113    8.0898  -19.5150 N   0  0  0  0  0  0  0  0  0  0  0  0
   -3.9621    7.8726  -20.7083 C   0  0  0  0  0  0  0  0  0  0  0  0
   -5.1563    7.0057  -20.5218 C   0  0  0  0  0  0  0  0  0  0  0  0
   -5.9200    6.8900  -21.3906 O   0  0  0  0  0  0  0  0  0  0  0  0
   -5.1682    6.4160  -19.0922 N   0  0  0  0  0  0  0  0  0  0  0  0
   -6.0456    5.5174  -18.4933 C   0  0  0  0  0  0  0  0  0  0  0  0
   -6.8171    4.7584  -19.3482 C   0  0  0  0  0  0  0  0  0  0  0  0
   -7.9581    4.1493  -18.8881 C   0  0  0  0  0  0  0  0  0  0  0  0
   -8.3196    4.2848  -17.5577 C   0  0  0  0  0  0  0  0  0  0  0  0
   -9.5472    3.8008  -17.1821 O   0  0  0  0  0  0  0  0  0  0  0  0
  -10.5851    4.5320  -17.8429 C   0  0  0  0  0  0  0  0  0  0  0  0
   -7.4549    4.8484  -16.6176 C   0  0  0  0  0  0  0  0  0  0  0  0
   -7.7675    4.8458  -15.2997 N   0  0  0  0  0  0  0  0  0  0  0  0
   -6.8897    5.3618  -14.4232 C   0  0  0  0  0  0  0  0  0  0  0  0
   -5.7020    5.9536  -14.7963 C   0  0  0  0  0  0  0  0  0  0  0  0
   -5.4009    6.0234  -16.1535 C   0  0  0  0  0  0  0  0  0  0  0  0
   -6.2692    5.4581  -17.1011 C   0  0  0  0  0  0  0  0  0  0  0  0
  1  2  1  0
  2  3  1  0
  3  4  2  0
  3  5  2  0
  3  6  1  0
  6  7  2  0
  7  8  1  0
  8  9  2  0
  9 10  1  0
 10 11  2  0
 11 12  1  0
 12 13  2  0
 12 14  1  0
 14 15  1  0
 15 16  2  0
 16 17  1  0
 17 18  2  0
 18 19  1  0
 19 20  1  0
 18 21  1  0
 21 22  2  0
 22 23  1  0
 23 24  2  0
 24 25  1  0
 25 26  2  0
 11  6  1  0
 26 15  1  0
 26 21  1  0
M  END
>  <fragmenstein_outcome>  (531) 
nan

>  <exports>  (531) 
['/opt/xchem-fragalysis-2/maxwin/openbind-hippo/xx01zvns2b/cycle_01/syndirella/elabs/openbind_xx01zvns2b_c1_elab_chemspace_filtered.sdf']

>  <Energy>  (531) 
nan

>  <alias>  (531) 
None

>  <fragmenstein_runtime>  (531) 
nan

>  <scratch_subdir>  (531) 
nan

>  <HIPPO Compound ID>  (531) 
143630

>  <rmsd(smina/fragmenstein)>  (531) 
3.618

>  <distance_score>  (531) 
1.788075

>  <orig_smiles>  (531) 
nan

>  <fragmenstein_mode>  (531) 
nan

>  <inchikey>  (531) 
NZGADRBNHNQEIF-UHFFFAOYSA-N

>  <ref_pdb>  (531) 
Z2971a

>  <GNINA pK>  (531) 
nan

>  <gnina_score_min>  (531) 
5.156

>  <tags>  (531) 
openbind_xx01zvns2b_c1_elab_nonasap_filtered_scored_top80percent,openbind_xx01zvns2b_c1_elab_chemspace_filtered_scored_top80percent,openbind_xx01zvns2b_c1_elab_chemspace_filtered_scored,openbind_xx01zvns2b_c1_elab_chemspace_filtered_scored_top40percent,openbind_xx01zvns2b_c1_elab_chemspace_filtered_scored_top20percent,openbind_xx01zvns2b_c1_elab_chemspace_filtered_scored_top60percent,openbind_xx01zvns2b_c1_elabs_filtered

>  <smiles>  (531) 
CCS(=O)(=O)c1cccnc1C(=O)Nc1ccc(OC)c2ncccc12

>  <subsites>  (531) 
1 - Z4590/B/203/1

>  <gnina_score>  (531) 
4.569

>  <HIPPO Pose ID>  (531) 
70773

>  <ref_mols>  (531) 
Z2971a,Z1719a

>  <energy_score>  (531) 
-11.061662

>  <inspiration_score>  (531) 
None

>  <smina_score_min>  (531) 
-5.227

>  <fragmenstein_error>  (531) 
nan

>  <name>  (531) 
P70773

$$$$
P70777
     RDKit          3D

 27 29  0  0  0  0  0  0  0  0999 V2000
  -10.8971    5.0539  -18.5115 C   0  0  0  0  0  0  0  0  0  0  0  0
  -10.4268    3.9182  -17.6642 C   0  0  0  0  0  0  0  0  0  0  0  0
   -9.3296    4.2497  -16.6670 C   0  0  0  0  0  0  0  0  0  0  0  0
   -7.9813    4.5467  -17.2515 C   0  0  0  0  0  0  0  0  0  0  0  0
   -7.7579    4.4221  -18.6180 C   0  0  0  0  0  0  0  0  0  0  0  0
   -6.6238    4.9501  -19.1649 C   0  0  0  0  0  0  0  0  0  0  0  0
   -5.6718    5.5372  -18.3557 C   0  0  0  0  0  0  0  0  0  0  0  0
   -4.7208    6.2349  -19.0665 N   0  0  0  0  0  0  0  0  0  0  0  0
   -4.8605    7.1281  -20.3189 C   0  0  0  0  0  0  0  0  0  0  0  0
   -5.8092    7.4733  -20.8962 O   0  0  0  0  0  0  0  0  0  0  0  0
   -3.5016    7.4606  -20.8299 C   0  0  0  0  0  0  0  0  0  0  0  0
   -2.5212    7.0206  -19.9636 N   0  0  0  0  0  0  0  0  0  0  0  0
   -1.2546    7.3237  -20.2452 C   0  0  0  0  0  0  0  0  0  0  0  0
   -0.9083    8.0424  -21.3663 C   0  0  0  0  0  0  0  0  0  0  0  0
   -1.9004    8.4380  -22.2723 C   0  0  0  0  0  0  0  0  0  0  0  0
   -3.2362    8.1226  -22.0223 C   0  0  0  0  0  0  0  0  0  0  0  0
   -4.5240    8.5782  -23.1544 S   0  0  0  0  0  0  0  0  0  0  0  0
   -5.2804    7.3974  -23.5110 O   0  0  0  0  0  0  0  0  0  0  0  0
   -5.1376    9.7721  -22.5998 O   0  0  0  0  0  0  0  0  0  0  0  0
   -3.7629    9.0928  -24.6701 C   0  0  0  0  0  0  0  0  0  0  0  0
   -3.0484    7.9846  -25.4130 C   0  0  0  0  0  0  0  0  0  0  0  0
   -5.7609    5.4590  -16.9551 C   0  0  0  0  0  0  0  0  0  0  0  0
   -4.7678    5.9046  -16.0624 C   0  0  0  0  0  0  0  0  0  0  0  0
   -4.9804    5.8400  -14.6895 C   0  0  0  0  0  0  0  0  0  0  0  0
   -6.1938    5.3646  -14.2420 C   0  0  0  0  0  0  0  0  0  0  0  0
   -7.1769    4.9584  -15.0620 N   0  0  0  0  0  0  0  0  0  0  0  0
   -6.9646    4.9789  -16.3958 C   0  0  0  0  0  0  0  0  0  0  0  0
  1  2  1  0
  2  3  1  0
  3  4  1  0
  4  5  2  0
  5  6  1  0
  6  7  2  0
  7  8  1  0
  8  9  1  0
  9 10  2  0
  9 11  1  0
 11 12  2  0
 12 13  1  0
 13 14  2  0
 14 15  1  0
 15 16  2  0
 16 17  1  0
 17 18  2  0
 17 19  2  0
 17 20  1  0
 20 21  1  0
  7 22  1  0
 22 23  2  0
 23 24  1  0
 24 25  2  0
 25 26  1  0
 26 27  2  0
 27  4  1  0
 16 11  1  0
 27 22  1  0
M  END
>  <fragmenstein_outcome>  (532) 
nan

>  <exports>  (532) 
['/opt/xchem-fragalysis-2/maxwin/openbind-hippo/xx01zvns2b/cycle_01/syndirella/elabs/openbind_xx01zvns2b_c1_elab_chemspace_filtered.sdf']

>  <Energy>  (532) 
nan

>  <alias>  (532) 
None

>  <fragmenstein_runtime>  (532) 
nan

>  <scratch_subdir>  (532) 
nan

>  <HIPPO Compound ID>  (532) 
143637

>  <rmsd(smina/fragmenstein)>  (532) 
2.205

>  <distance_score>  (532) 
1.321597

>  <orig_smiles>  (532) 
nan

>  <fragmenstein_mode>  (532) 
nan

>  <inchikey>  (532) 
VCGMLZATAHQZJX-UHFFFAOYSA-N

>  <ref_pdb>  (532) 
Z2971a

>  <GNINA pK>  (532) 
nan

>  <gnina_score_min>  (532) 
5.223

>  <tags>  (532) 
openbind_xx01zvns2b_c1_elab_nonasap_filtered_scored_top80percent,openbind_xx01zvns2b_c1_elab_chemspace_filtered_scored_top80percent,openbind_xx01zvns2b_c1_elab_chemspace_filtered_scored,openbind_xx01zvns2b_c1_elab_chemspace_filtered_scored_top40percent,openbind_xx01zvns2b_c1_elab_chemspace_filtered_scored_top20percent,openbind_xx01zvns2b_c1_elab_chemspace_filtered_scored_top60percent,openbind_xx01zvns2b_c1_elabs_filtered

>  <smiles>  (532) 
CCCc1ccc(NC(=O)c2ncccc2S(=O)(=O)CC)c2cccnc12

>  <subsites>  (532) 
1 - Z4590/B/203/1

>  <gnina_score>  (532) 
5.356

>  <HIPPO Pose ID>  (532) 
70777

>  <ref_mols>  (532) 
Z2971a,Z1719a

>  <energy_score>  (532) 
-36.549617

>  <inspiration_score>  (532) 
None

>  <smina_score_min>  (532) 
-5.292

>  <fragmenstein_error>  (532) 
nan

>  <name>  (532) 
P70777

$$$$
P70778
     RDKit          3D

 28 30  0  0  0  0  0  0  0  0999 V2000
   -2.5375    8.7907  -25.1914 C   0  0  0  0  0  0  0  0  0  0  0  0
   -3.8878    8.7562  -24.5072 C   0  0  0  0  0  0  0  0  0  0  0  0
   -3.9446    7.6654  -23.1115 S   0  0  0  0  0  0  0  0  0  0  0  0
   -5.3464    7.6004  -22.7459 O   0  0  0  0  0  0  0  0  0  0  0  0
   -3.1451    6.5158  -23.4789 O   0  0  0  0  0  0  0  0  0  0  0  0
   -3.1253    8.4260  -21.7412 C   0  0  0  0  0  0  0  0  0  0  0  0
   -2.6263    9.7193  -21.8165 C   0  0  0  0  0  0  0  0  0  0  0  0
   -2.2040   10.3539  -20.6427 C   0  0  0  0  0  0  0  0  0  0  0  0
   -2.3055    9.7041  -19.4301 C   0  0  0  0  0  0  0  0  0  0  0  0
   -2.7590    8.4549  -19.3256 N   0  0  0  0  0  0  0  0  0  0  0  0
   -3.1110    7.8193  -20.4859 C   0  0  0  0  0  0  0  0  0  0  0  0
   -3.6521    6.4673  -20.2173 C   0  0  0  0  0  0  0  0  0  0  0  0
   -3.4239    5.5667  -20.9206 O   0  0  0  0  0  0  0  0  0  0  0  0
   -4.5768    6.5651  -18.9822 N   0  0  0  0  0  0  0  0  0  0  0  0
   -5.4520    5.6360  -18.4351 C   0  0  0  0  0  0  0  0  0  0  0  0
   -6.1175    4.8471  -19.3507 C   0  0  0  0  0  0  0  0  0  0  0  0
   -7.3576    4.3463  -19.0459 C   0  0  0  0  0  0  0  0  0  0  0  0
   -7.8928    4.5961  -17.7918 C   0  0  0  0  0  0  0  0  0  0  0  0
   -9.5265    4.0856  -17.5484 S   0  0  0  0  0  0  0  0  0  0  0  0
   -9.5823    2.7208  -18.0231 O   0  0  0  0  0  0  0  0  0  0  0  0
  -10.4203    5.0898  -18.0749 O   0  0  0  0  0  0  0  0  0  0  0  0
   -9.8033    3.9953  -15.9919 F   0  0  0  0  0  0  0  0  0  0  0  0
   -7.1778    5.1845  -16.7670 C   0  0  0  0  0  0  0  0  0  0  0  0
   -7.6580    5.2626  -15.5049 N   0  0  0  0  0  0  0  0  0  0  0  0
   -6.8872    5.8025  -14.5433 C   0  0  0  0  0  0  0  0  0  0  0  0
   -5.6464    6.3475  -14.7889 C   0  0  0  0  0  0  0  0  0  0  0  0
   -5.1723    6.3336  -16.0967 C   0  0  0  0  0  0  0  0  0  0  0  0
   -5.9228    5.7291  -17.1123 C   0  0  0  0  0  0  0  0  0  0  0  0
  1  2  1  0
  2  3  1  0
  3  4  2  0
  3  5  2  0
  3  6  1  0
  6  7  2  0
  7  8  1  0
  8  9  2  0
  9 10  1  0
 10 11  2  0
 11 12  1  0
 12 13  2  0
 12 14  1  0
 14 15  1  0
 15 16  2  0
 16 17  1  0
 17 18  2  0
 18 19  1  0
 19 20  2  0
 19 21  2  0
 19 22  1  0
 18 23  1  0
 23 24  2  0
 24 25  1  0
 25 26  2  0
 26 27  1  0
 27 28  2  0
 11  6  1  0
 28 15  1  0
 28 23  1  0
M  END
>  <fragmenstein_outcome>  (533) 
nan

>  <exports>  (533) 
['/opt/xchem-fragalysis-2/maxwin/openbind-hippo/xx01zvns2b/cycle_01/syndirella/elabs/openbind_xx01zvns2b_c1_elab_chemspace_filtered.sdf']

>  <Energy>  (533) 
nan

>  <alias>  (533) 
None

>  <fragmenstein_runtime>  (533) 
nan

>  <scratch_subdir>  (533) 
nan

>  <HIPPO Compound ID>  (533) 
143638

>  <rmsd(smina/fragmenstein)>  (533) 
1.629

>  <distance_score>  (533) 
1.882234

>  <orig_smiles>  (533) 
nan

>  <fragmenstein_mode>  (533) 
nan

>  <inchikey>  (533) 
XFPXHCYHVIRGPH-UHFFFAOYSA-N

>  <ref_pdb>  (533) 
Z2971a

>  <GNINA pK>  (533) 
nan

>  <gnina_score_min>  (533) 
5.496

>  <tags>  (533) 
openbind_xx01zvns2b_c1_elab_nonasap_filtered_scored_top80percent,openbind_xx01zvns2b_c1_elab_chemspace_filtered_scored_top80percent,openbind_xx01zvns2b_c1_elab_chemspace_filtered_scored,openbind_xx01zvns2b_c1_elab_chemspace_filtered_scored_top40percent,openbind_xx01zvns2b_c1_elab_chemspace_filtered_scored_top20percent,openbind_xx01zvns2b_c1_elab_chemspace_filtered_scored_top60percent,openbind_xx01zvns2b_c1_elabs_filtered

>  <smiles>  (533) 
CCS(=O)(=O)c1cccnc1C(=O)Nc1ccc(S(=O)(=O)F)c2ncccc12

>  <subsites>  (533) 
1 - Z4590/B/203/1

>  <gnina_score>  (533) 
5.483

>  <HIPPO Pose ID>  (533) 
70778

>  <ref_mols>  (533) 
Z2971a,Z1719a

>  <energy_score>  (533) 
-56.382594

>  <inspiration_score>  (533) 
None

>  <smina_score_min>  (533) 
-4.731

>  <fragmenstein_error>  (533) 
nan

>  <name>  (533) 
P70778

$$$$
P70781
     RDKit          3D

 31 34  0  0  0  0  0  0  0  0999 V2000
   -3.3264    9.0705  -25.0803 C   0  0  0  0  0  0  0  0  0  0  0  0
   -4.3178    7.9641  -24.7737 C   0  0  0  0  0  0  0  0  0  0  0  0
   -4.9397    7.9808  -23.1072 S   0  0  0  0  0  0  0  0  0  0  0  0
   -5.1259    9.3764  -22.7741 O   0  0  0  0  0  0  0  0  0  0  0  0
   -6.0439    7.0460  -23.1175 O   0  0  0  0  0  0  0  0  0  0  0  0
   -3.6797    7.3121  -22.0486 C   0  0  0  0  0  0  0  0  0  0  0  0
   -2.4277    6.9542  -22.5800 C   0  0  0  0  0  0  0  0  0  0  0  0
   -1.4716    6.3284  -21.7792 C   0  0  0  0  0  0  0  0  0  0  0  0
   -1.8067    6.0296  -20.4778 C   0  0  0  0  0  0  0  0  0  0  0  0
   -2.9912    6.3584  -19.9417 N   0  0  0  0  0  0  0  0  0  0  0  0
   -3.9108    7.0359  -20.6976 C   0  0  0  0  0  0  0  0  0  0  0  0
   -5.0883    7.5339  -19.8922 C   0  0  0  0  0  0  0  0  0  0  0  0
   -5.9394    8.2643  -20.3919 O   0  0  0  0  0  0  0  0  0  0  0  0
   -5.1586    7.2394  -18.5038 N   0  0  0  0  0  0  0  0  0  0  0  0
   -5.9248    6.0667  -18.0647 C   0  0  0  0  0  0  0  0  0  0  0  0
   -6.6110    5.3582  -19.0608 C   0  0  0  0  0  0  0  0  0  0  0  0
   -7.6749    4.5130  -18.7626 C   0  0  0  0  0  0  0  0  0  0  0  0
   -8.0736    4.3486  -17.4523 C   0  0  0  0  0  0  0  0  0  0  0  0
   -7.3298    4.8720  -16.4223 C   0  0  0  0  0  0  0  0  0  0  0  0
   -7.7522    4.5548  -15.1871 N   0  0  0  0  0  0  0  0  0  0  0  0
   -6.9987    4.9036  -14.1365 C   0  0  0  0  0  0  0  0  0  0  0  0
   -5.8080    5.5717  -14.2666 C   0  0  0  0  0  0  0  0  0  0  0  0
   -5.4083    5.9430  -15.5491 C   0  0  0  0  0  0  0  0  0  0  0  0
   -6.1848    5.6668  -16.7018 C   0  0  0  0  0  0  0  0  0  0  0  0
   -4.4456    8.1466  -17.5747 C   0  0  0  0  0  0  0  0  0  0  0  0
   -2.9901    7.7288  -17.3015 C   0  0  0  0  0  0  0  0  0  0  0  0
   -2.3226    8.3321  -16.0500 C   0  0  0  0  0  0  0  0  0  0  0  0
   -3.2019    9.1784  -15.1320 C   0  0  0  0  0  0  0  0  0  0  0  0
   -3.7198   10.4929  -15.7218 C   0  0  0  0  0  0  0  0  0  0  0  0
   -3.6695   10.6266  -17.2384 C   0  0  0  0  0  0  0  0  0  0  0  0
   -4.5256    9.6314  -18.0215 C   0  0  0  0  0  0  0  0  0  0  0  0
  1  2  1  0
  2  3  1  0
  3  4  2  0
  3  5  2  0
  3  6  1  0
  6  7  2  0
  7  8  1  0
  8  9  2  0
  9 10  1  0
 10 11  2  0
 11 12  1  0
 12 13  2  0
 12 14  1  0
 14 15  1  0
 15 16  2  0
 16 17  1  0
 17 18  2  0
 18 19  1  0
 19 20  2  0
 20 21  1  0
 21 22  2  0
 22 23  1  0
 23 24  2  0
 14 25  1  0
 25 26  1  0
 26 27  1  0
 27 28  1  0
 28 29  1  0
 29 30  1  0
 30 31  1  0
 11  6  1  0
 24 15  1  0
 31 25  1  0
 24 19  1  0
M  END
>  <fragmenstein_outcome>  (534) 
nan

>  <exports>  (534) 
['/opt/xchem-fragalysis-2/maxwin/openbind-hippo/xx01zvns2b/cycle_01/syndirella/elabs/openbind_xx01zvns2b_c1_elab_chemspace_filtered.sdf']

>  <Energy>  (534) 
nan

>  <alias>  (534) 
None

>  <fragmenstein_runtime>  (534) 
nan

>  <scratch_subdir>  (534) 
nan

>  <HIPPO Compound ID>  (534) 
143650

>  <rmsd(smina/fragmenstein)>  (534) 
1.928

>  <distance_score>  (534) 
1.001863

>  <orig_smiles>  (534) 
nan

>  <fragmenstein_mode>  (534) 
nan

>  <inchikey>  (534) 
KPMOORKBRFEZFB-UHFFFAOYSA-N

>  <ref_pdb>  (534) 
Z2971a

>  <GNINA pK>  (534) 
nan

>  <gnina_score_min>  (534) 
5.641

>  <tags>  (534) 
openbind_xx01zvns2b_c1_elab_nonasap_filtered_scored_top80percent,openbind_xx01zvns2b_c1_elab_chemspace_filtered_scored_top80percent,openbind_xx01zvns2b_c1_elab_chemspace_filtered_scored,openbind_xx01zvns2b_c1_elab_chemspace_filtered_scored_top40percent,openbind_xx01zvns2b_c1_elab_chemspace_filtered_scored_top20percent,openbind_xx01zvns2b_c1_elab_chemspace_filtered_scored_top60percent,openbind_xx01zvns2b_c1_elabs_filtered

>  <smiles>  (534) 
CCS(=O)(=O)c1cccnc1C(=O)N(c1cccc2ncccc12)C1CCCCCC1

>  <subsites>  (534) 
1 - Z4590/B/203/1

>  <gnina_score>  (534) 
5.86

>  <HIPPO Pose ID>  (534) 
70781

>  <ref_mols>  (534) 
Z2971a,Z1719a

>  <energy_score>  (534) 
-9.02841

>  <inspiration_score>  (534) 
None

>  <smina_score_min>  (534) 
-5.883

>  <fragmenstein_error>  (534) 
nan

>  <name>  (534) 
P70781

$$$$
P70785
     RDKit          3D

 25 28  0  0  0  0  0  0  0  0999 V2000
   -9.8003    5.6604  -13.7279 F   0  0  0  0  0  0  0  0  0  0  0  0
   -8.6254    6.1618  -13.3262 C   0  0  0  0  0  0  0  0  0  0  0  0
   -7.8843    6.8560  -14.2617 C   0  0  0  0  0  0  0  0  0  0  0  0
   -6.6743    7.3911  -13.8764 C   0  0  0  0  0  0  0  0  0  0  0  0
   -5.5335    8.3204  -15.0560 Br  0  0  0  0  0  0  0  0  0  0  0  0
   -6.2656    7.2191  -12.5598 C   0  0  0  0  0  0  0  0  0  0  0  0
   -6.9085    6.4319  -11.6668 N   0  0  0  0  0  0  0  0  0  0  0  0
   -8.0578    5.8390  -12.0805 C   0  0  0  0  0  0  0  0  0  0  0  0
   -8.4797    4.6361  -11.4272 N   0  0  0  0  0  0  0  0  0  0  0  0
   -7.5666    3.8371  -10.6159 C   0  0  0  0  0  0  0  0  0  0  0  0
   -7.2213    3.0565  -11.9303 C   0  0  0  0  0  0  0  0  0  0  0  0
   -6.1084    3.6868  -12.6370 N   0  0  0  0  0  0  0  0  0  0  0  0
   -5.9695    3.9908  -14.0139 C   0  0  0  0  0  0  0  0  0  0  0  0
   -4.7134    4.4067  -14.4385 C   0  0  0  0  0  0  0  0  0  0  0  0
   -4.5061    4.7505  -15.7711 C   0  0  0  0  0  0  0  0  0  0  0  0
   -5.5649    4.6868  -16.6741 C   0  0  0  0  0  0  0  0  0  0  0  0
   -5.3736    4.9760  -18.0369 C   0  0  0  0  0  0  0  0  0  0  0  0
   -6.4274    4.8414  -18.9322 C   0  0  0  0  0  0  0  0  0  0  0  0
   -7.6806    4.4823  -18.4526 C   0  0  0  0  0  0  0  0  0  0  0  0
   -8.9576    4.2091  -19.5664 Cl  0  0  0  0  0  0  0  0  0  0  0  0
   -7.8822    4.2844  -17.0857 C   0  0  0  0  0  0  0  0  0  0  0  0
   -9.4802    4.0508  -16.4901 Cl  0  0  0  0  0  0  0  0  0  0  0  0
   -6.8241    4.3010  -16.1769 C   0  0  0  0  0  0  0  0  0  0  0  0
   -6.9956    3.9540  -14.8714 N   0  0  0  0  0  0  0  0  0  0  0  0
   -8.6558    3.4568  -12.2771 C   0  0  0  0  0  0  0  0  0  0  0  0
  1  2  1  0
  2  3  2  0
  3  4  1  0
  4  5  1  0
  4  6  2  0
  6  7  1  0
  7  8  2  0
  8  9  1  0
  9 10  1  0
 10 11  1  0
 11 12  1  0
 12 13  1  0
 13 14  2  0
 14 15  1  0
 15 16  2  0
 16 17  1  0
 17 18  2  0
 18 19  1  0
 19 20  1  0
 19 21  2  0
 21 22  1  0
 21 23  1  0
 23 24  2  0
 11 25  1  0
  8  2  1  0
 25  9  1  0
 24 13  1  0
 23 16  1  0
M  END
>  <fragmenstein_outcome>  (535) 
nan

>  <exports>  (535) 
['/opt/xchem-fragalysis-2/maxwin/openbind-hippo/xx01zvns2b/cycle_01/syndirella/elabs/openbind_xx01zvns2b_c1_elab_chemspace_filtered.sdf']

>  <Energy>  (535) 
nan

>  <alias>  (535) 
None

>  <fragmenstein_runtime>  (535) 
nan

>  <scratch_subdir>  (535) 
nan

>  <HIPPO Compound ID>  (535) 
143740

>  <rmsd(smina/fragmenstein)>  (535) 
0.84

>  <distance_score>  (535) 
1.785971

>  <orig_smiles>  (535) 
nan

>  <fragmenstein_mode>  (535) 
nan

>  <inchikey>  (535) 
VFEGWTNIDSIERX-UHFFFAOYSA-N

>  <ref_pdb>  (535) 
Z0852a

>  <GNINA pK>  (535) 
nan

>  <gnina_score_min>  (535) 
5.823

>  <tags>  (535) 
openbind_xx01zvns2b_c1_elab_nonasap_filtered_scored_top80percent,openbind_xx01zvns2b_c1_elab_chemspace_filtered_scored_top80percent,openbind_xx01zvns2b_c1_elab_chemspace_filtered_scored,openbind_xx01zvns2b_c1_elab_chemspace_filtered_scored_top40percent,openbind_xx01zvns2b_c1_elab_chemspace_filtered_scored_top20percent,openbind_xx01zvns2b_c1_elab_chemspace_filtered_scored_top60percent,openbind_xx01zvns2b_c1_elabs_filtered

>  <smiles>  (535) 
Fc1cc(Br)cnc1N1CC(Nc2ccc3ccc(Cl)c(Cl)c3n2)C1

>  <subsites>  (535) 
1 - Z4590/B/203/1

>  <gnina_score>  (535) 
5.479

>  <HIPPO Pose ID>  (535) 
70785

>  <ref_mols>  (535) 
Z0852a,Z1719a

>  <energy_score>  (535) 
-7.806345

>  <inspiration_score>  (535) 
None

>  <smina_score_min>  (535) 
-5.744

>  <fragmenstein_error>  (535) 
nan

>  <name>  (535) 
P70785

$$$$
P70786
     RDKit          3D

 25 28  0  0  0  0  0  0  0  0999 V2000
   -9.7736    5.6570  -13.7668 F   0  0  0  0  0  0  0  0  0  0  0  0
   -8.5985    6.1658  -13.3714 C   0  0  0  0  0  0  0  0  0  0  0  0
   -7.8541    6.8419  -14.3170 C   0  0  0  0  0  0  0  0  0  0  0  0
   -6.6509    7.3914  -13.9312 C   0  0  0  0  0  0  0  0  0  0  0  0
   -5.4953    8.2872  -15.1234 Br  0  0  0  0  0  0  0  0  0  0  0  0
   -6.2677    7.2742  -12.6004 C   0  0  0  0  0  0  0  0  0  0  0  0
   -6.9337    6.5399  -11.6827 N   0  0  0  0  0  0  0  0  0  0  0  0
   -8.0435    5.8893  -12.1084 C   0  0  0  0  0  0  0  0  0  0  0  0
   -8.4524    4.7042  -11.4153 N   0  0  0  0  0  0  0  0  0  0  0  0
   -8.7091    3.5126  -12.2247 C   0  0  0  0  0  0  0  0  0  0  0  0
   -7.2754    3.0766  -11.9640 C   0  0  0  0  0  0  0  0  0  0  0  0
   -6.1964    3.6263  -12.7567 N   0  0  0  0  0  0  0  0  0  0  0  0
   -6.0608    3.9287  -14.1309 C   0  0  0  0  0  0  0  0  0  0  0  0
   -4.8007    4.3700  -14.5265 C   0  0  0  0  0  0  0  0  0  0  0  0
   -4.5702    4.7442  -15.8418 C   0  0  0  0  0  0  0  0  0  0  0  0
   -5.6141    4.7113  -16.7605 C   0  0  0  0  0  0  0  0  0  0  0  0
   -5.3910    5.0656  -18.1003 C   0  0  0  0  0  0  0  0  0  0  0  0
   -4.1682    5.4465  -18.5020 F   0  0  0  0  0  0  0  0  0  0  0  0
   -6.4080    5.0421  -19.0346 C   0  0  0  0  0  0  0  0  0  0  0  0
   -7.6828    4.7018  -18.6176 C   0  0  0  0  0  0  0  0  0  0  0  0
   -7.9112    4.3715  -17.2755 C   0  0  0  0  0  0  0  0  0  0  0  0
   -9.5452    4.0802  -16.8390 Cl  0  0  0  0  0  0  0  0  0  0  0  0
   -6.8886    4.3194  -16.3098 C   0  0  0  0  0  0  0  0  0  0  0  0
   -7.0847    3.9364  -15.0047 N   0  0  0  0  0  0  0  0  0  0  0  0
   -7.4779    3.9186  -10.6620 C   0  0  0  0  0  0  0  0  0  0  0  0
  1  2  1  0
  2  3  2  0
  3  4  1  0
  4  5  1  0
  4  6  2  0
  6  7  1  0
  7  8  2  0
  8  9  1  0
  9 10  1  0
 10 11  1  0
 11 12  1  0
 12 13  1  0
 13 14  2  0
 14 15  1  0
 15 16  2  0
 16 17  1  0
 17 18  1  0
 17 19  2  0
 19 20  1  0
 20 21  2  0
 21 22  1  0
 21 23  1  0
 23 24  2  0
 11 25  1  0
  8  2  1  0
 25  9  1  0
 24 13  1  0
 23 16  1  0
M  END
>  <fragmenstein_outcome>  (536) 
nan

>  <exports>  (536) 
['/opt/xchem-fragalysis-2/maxwin/openbind-hippo/xx01zvns2b/cycle_01/syndirella/elabs/openbind_xx01zvns2b_c1_elab_chemspace_filtered.sdf']

>  <Energy>  (536) 
nan

>  <alias>  (536) 
None

>  <fragmenstein_runtime>  (536) 
nan

>  <scratch_subdir>  (536) 
nan

>  <HIPPO Compound ID>  (536) 
143741

>  <rmsd(smina/fragmenstein)>  (536) 
0.807

>  <distance_score>  (536) 
1.74181

>  <orig_smiles>  (536) 
nan

>  <fragmenstein_mode>  (536) 
nan

>  <inchikey>  (536) 
BSJPXOHBDAUSKZ-UHFFFAOYSA-N

>  <ref_pdb>  (536) 
Z0852a

>  <GNINA pK>  (536) 
nan

>  <gnina_score_min>  (536) 
5.555

>  <tags>  (536) 
openbind_xx01zvns2b_c1_elab_nonasap_filtered_scored_top80percent,openbind_xx01zvns2b_c1_elab_chemspace_filtered_scored_top80percent,openbind_xx01zvns2b_c1_elab_chemspace_filtered_scored,openbind_xx01zvns2b_c1_elab_chemspace_filtered_scored_top40percent,openbind_xx01zvns2b_c1_elab_chemspace_filtered_scored_top20percent,openbind_xx01zvns2b_c1_elab_chemspace_filtered_scored_top60percent,openbind_xx01zvns2b_c1_elabs_filtered

>  <smiles>  (536) 
Fc1cc(Br)cnc1N1CC(Nc2ccc3c(F)ccc(Cl)c3n2)C1

>  <subsites>  (536) 
1 - Z4590/B/203/1

>  <gnina_score>  (536) 
5.763

>  <HIPPO Pose ID>  (536) 
70786

>  <ref_mols>  (536) 
Z0852a,Z1719a

>  <energy_score>  (536) 
-13.47488

>  <inspiration_score>  (536) 
None

>  <smina_score_min>  (536) 
-5.797

>  <fragmenstein_error>  (536) 
nan

>  <name>  (536) 
P70786

$$$$
P70789
     RDKit          3D

 24 28  0  0  0  0  0  0  0  0999 V2000
   -6.7305    3.6511  -12.3982 O   0  0  0  0  0  0  0  0  0  0  0  0
   -6.8719    4.6072  -13.0692 C   0  0  0  0  0  0  0  0  0  0  0  0
   -6.7905    4.5045  -14.5990 C   0  0  2  0  0  0  0  0  0  0  0  0
   -5.8205    5.4516  -15.3254 C   0  0  0  0  0  0  0  0  0  0  0  0
   -5.7106    5.1181  -16.8236 C   0  0  0  0  0  0  0  0  0  0  0  0
   -7.0437    4.8188  -17.4139 C   0  0  0  0  0  0  0  0  0  0  0  0
   -7.2096    4.6872  -18.7708 N   0  0  0  0  0  0  0  0  0  0  0  0
   -8.4632    4.3596  -19.0116 C   0  0  0  0  0  0  0  0  0  0  0  0
   -9.4972    4.2195  -17.6509 S   0  0  0  0  0  0  0  0  0  0  0  0
   -8.1722    4.5904  -16.6549 C   0  0  0  0  0  0  0  0  0  0  0  0
   -8.2226    4.6499  -15.1698 C   0  0  0  0  0  0  0  0  0  0  0  0
   -7.2413    6.0248  -12.6883 N   0  0  0  0  0  0  0  0  0  0  0  0
   -7.6328    6.6070  -11.3700 C   0  0  0  0  0  0  0  0  0  0  0  0
   -7.7041    8.1215  -11.4490 C   0  0  1  0  0  0  0  0  0  0  0  0
   -7.9219    8.7174  -10.1129 C   0  0  0  0  0  0  0  0  0  0  0  0
   -7.1178    8.6720   -8.9488 C   0  0  0  0  0  0  0  0  0  0  0  0
   -7.8869    9.2422   -7.9649 C   0  0  0  0  0  0  0  0  0  0  0  0
   -9.0812    9.5458   -8.5522 N   0  0  0  0  0  0  0  0  0  0  0  0
   -9.0909    9.3200   -9.8745 N   0  0  0  0  0  0  0  0  0  0  0  0
   -6.4082    8.3108  -12.1743 C   0  0  0  0  0  0  0  0  0  0  0  0
   -6.5064    9.1994  -13.4614 C   0  0  0  0  0  0  0  0  0  0  0  0
   -5.9247   10.3568  -12.6290 C   0  0  0  0  0  0  0  0  0  0  0  0
   -5.2724    9.2915  -11.7296 C   0  0  0  0  0  0  0  0  0  0  0  0
   -5.9937    6.8636  -12.3918 C   0  0  0  0  0  0  0  0  0  0  0  0
  1  2  2  0
  3  2  1  1
  3  4  1  0
  4  5  1  0
  5  6  1  0
  6  7  1  0
  7  8  2  0
  8  9  1  0
  9 10  1  0
 10 11  1  0
  2 12  1  0
 12 13  1  0
 13 14  1  0
 14 15  1  1
 15 16  1  0
 16 17  2  0
 17 18  1  0
 18 19  1  0
 14 20  1  0
 20 21  1  0
 21 22  1  0
 22 23  1  0
 20 24  1  0
 11  3  1  0
 24 12  1  0
 10  6  2  0
 19 15  2  0
 23 20  1  0
M  END
>  <fragmenstein_outcome>  (537) 
nan

>  <exports>  (537) 
['/opt/xchem-fragalysis-2/maxwin/openbind-hippo/xx01zvns2b/cycle_01/syndirella/elabs/openbind_xx01zvns2b_c1_elab_chemspace_filtered.sdf']

>  <Energy>  (537) 
nan

>  <alias>  (537) 
None

>  <fragmenstein_runtime>  (537) 
nan

>  <scratch_subdir>  (537) 
nan

>  <HIPPO Compound ID>  (537) 
143821

>  <rmsd(smina/fragmenstein)>  (537) 
0.423

>  <distance_score>  (537) 
0.629952

>  <orig_smiles>  (537) 
nan

>  <fragmenstein_mode>  (537) 
nan

>  <inchikey>  (537) 
PDAOJLYBPOXMGD-OLZOCXBDSA-N

>  <ref_pdb>  (537) 
Z0852a

>  <GNINA pK>  (537) 
nan

>  <gnina_score_min>  (537) 
5.72

>  <tags>  (537) 
openbind_xx01zvns2b_c1_elab_nonasap_filtered_scored_top80percent,openbind_xx01zvns2b_c1_elab_chemspace_filtered_scored_top80percent,openbind_xx01zvns2b_c1_elab_chemspace_filtered_scored,openbind_xx01zvns2b_c1_elab_chemspace_filtered_scored_top40percent,openbind_xx01zvns2b_c1_elab_chemspace_filtered_scored_top20percent,openbind_xx01zvns2b_c1_elab_chemspace_filtered_scored_top60percent,openbind_xx01zvns2b_c1_elabs_filtered

>  <smiles>  (537) 
O=C([C@@H]1CCc2ncsc2C1)N1C[C@@H](c2cc[nH]n2)C2(CCC2)C1

>  <subsites>  (537) 
1 - Z4590/B/203/1

>  <gnina_score>  (537) 
5.654

>  <HIPPO Pose ID>  (537) 
70789

>  <ref_mols>  (537) 
Z0852a,Z0772a

>  <energy_score>  (537) 
-8.591242

>  <inspiration_score>  (537) 
None

>  <smina_score_min>  (537) 
-4.768

>  <fragmenstein_error>  (537) 
nan

>  <name>  (537) 
P70789

$$$$
P70793
     RDKit          3D

 25 29  0  0  0  0  0  0  0  0999 V2000
   -8.6800    4.0301  -19.6194 C   0  0  0  0  0  0  0  0  0  0  0  0
   -8.2751    4.5286  -18.2952 C   0  0  0  0  0  0  0  0  0  0  0  0
   -7.1442    5.1450  -18.0219 N   0  0  0  0  0  0  0  0  0  0  0  0
   -7.0446    5.2862  -16.6583 C   0  0  0  0  0  0  0  0  0  0  0  0
   -8.1263    4.8316  -15.9330 C   0  0  0  0  0  0  0  0  0  0  0  0
   -9.3201    4.2318  -16.9672 S   0  0  0  0  0  0  0  0  0  0  0  0
   -8.2317    4.8398  -14.4486 C   0  0  0  0  0  0  0  0  0  0  0  0
   -7.2593    5.8956  -13.8887 C   0  0  1  0  0  0  0  0  0  0  0  0
   -7.1688    5.7890  -12.3650 C   0  0  0  0  0  0  0  0  0  0  0  0
   -7.0719    4.7689  -11.7891 O   0  0  0  0  0  0  0  0  0  0  0  0
   -7.1303    7.2150  -11.8485 N   0  0  0  0  0  0  0  0  0  0  0  0
   -6.8556    7.7522  -10.4637 C   0  0  0  0  0  0  0  0  0  0  0  0
   -7.2391    9.2191  -10.2851 C   0  0  1  0  0  0  0  0  0  0  0  0
   -6.1776   10.2097  -10.6264 C   0  0  0  0  0  0  0  0  0  0  0  0
   -5.9071   11.4280   -9.9539 C   0  0  0  0  0  0  0  0  0  0  0  0
   -4.8445   11.9811  -10.6248 C   0  0  0  0  0  0  0  0  0  0  0  0
   -4.5378   11.1065  -11.6230 N   0  0  0  0  0  0  0  0  0  0  0  0
   -5.3352   10.0290  -11.6515 N   0  0  0  0  0  0  0  0  0  0  0  0
   -8.4555    9.1827  -11.1599 C   0  0  0  0  0  0  0  0  0  0  0  0
   -9.7620    9.8032  -10.5743 C   0  0  0  0  0  0  0  0  0  0  0  0
   -9.4816   11.0568  -11.4241 C   0  0  0  0  0  0  0  0  0  0  0  0
   -8.6649   10.1575  -12.3707 C   0  0  0  0  0  0  0  0  0  0  0  0
   -8.5161    7.7028  -11.4819 C   0  0  0  0  0  0  0  0  0  0  0  0
   -5.8503    5.7292  -14.5045 C   0  0  0  0  0  0  0  0  0  0  0  0
   -5.8546    5.9207  -16.0310 C   0  0  0  0  0  0  0  0  0  0  0  0
  1  2  1  0
  2  3  2  0
  3  4  1  0
  4  5  2  0
  5  6  1  0
  5  7  1  0
  7  8  1  0
  8  9  1  1
  9 10  2  0
  9 11  1  0
 11 12  1  0
 12 13  1  0
 13 14  1  6
 14 15  1  0
 15 16  2  0
 16 17  1  0
 17 18  1  0
 13 19  1  0
 19 20  1  0
 20 21  1  0
 21 22  1  0
 19 23  1  0
  8 24  1  0
 24 25  1  0
  6  2  1  0
 23 11  1  0
 25  4  1  0
 18 14  2  0
 22 19  1  0
M  END
>  <fragmenstein_outcome>  (538) 
nan

>  <exports>  (538) 
['/opt/xchem-fragalysis-2/maxwin/openbind-hippo/xx01zvns2b/cycle_01/syndirella/elabs/openbind_xx01zvns2b_c1_elab_chemspace_filtered.sdf']

>  <Energy>  (538) 
nan

>  <alias>  (538) 
None

>  <fragmenstein_runtime>  (538) 
nan

>  <scratch_subdir>  (538) 
nan

>  <HIPPO Compound ID>  (538) 
143834

>  <rmsd(smina/fragmenstein)>  (538) 
2.392

>  <distance_score>  (538) 
1.0935

>  <orig_smiles>  (538) 
nan

>  <fragmenstein_mode>  (538) 
nan

>  <inchikey>  (538) 
AMFZKPFKLLDUCI-KBPBESRZSA-N

>  <ref_pdb>  (538) 
Z0852a

>  <GNINA pK>  (538) 
nan

>  <gnina_score_min>  (538) 
5.755

>  <tags>  (538) 
openbind_xx01zvns2b_c1_elab_nonasap_filtered_scored_top80percent,openbind_xx01zvns2b_c1_elab_chemspace_filtered_scored_top80percent,openbind_xx01zvns2b_c1_elab_chemspace_filtered_scored,openbind_xx01zvns2b_c1_elab_chemspace_filtered_scored_top40percent,openbind_xx01zvns2b_c1_elab_chemspace_filtered_scored_top20percent,openbind_xx01zvns2b_c1_elab_chemspace_filtered_scored_top60percent,openbind_xx01zvns2b_c1_elabs_filtered

>  <smiles>  (538) 
Cc1nc2c(s1)C[C@@H](C(=O)N1C[C@@H](c3cc[nH]n3)C3(CCC3)C1)CC2

>  <subsites>  (538) 
1 - Z4590/B/203/1

>  <gnina_score>  (538) 
5.566

>  <HIPPO Pose ID>  (538) 
70793

>  <ref_mols>  (538) 
Z0852a,Z0772a

>  <energy_score>  (538) 
-26.222397

>  <inspiration_score>  (538) 
None

>  <smina_score_min>  (538) 
-5.011

>  <fragmenstein_error>  (538) 
nan

>  <name>  (538) 
P70793

$$$$
P70794
     RDKit          3D

 27 30  0  0  0  0  0  0  0  0999 V2000
   -6.2788    3.8098  -12.2830 C   0  0  0  0  0  0  0  0  0  0  0  0
   -7.6201    4.3456  -12.7432 C   0  0  0  0  0  0  0  0  0  0  0  0
   -7.5568    4.5142  -14.1634 O   0  0  0  0  0  0  0  0  0  0  0  0
   -8.7471    4.8468  -14.7417 C   0  0  0  0  0  0  0  0  0  0  0  0
   -9.7431    5.1980  -14.1183 O   0  0  0  0  0  0  0  0  0  0  0  0
   -8.6904    4.7468  -16.1851 C   0  0  0  0  0  0  0  0  0  0  0  0
   -9.7049    4.3287  -17.0665 C   0  0  0  0  0  0  0  0  0  0  0  0
   -9.3124    4.2733  -18.3324 N   0  0  0  0  0  0  0  0  0  0  0  0
   -8.0400    4.6787  -18.2825 N   0  0  0  0  0  0  0  0  0  0  0  0
   -7.6377    5.0748  -17.0285 C   0  0  0  0  0  0  0  0  0  0  0  0
   -6.3287    5.7256  -16.7390 C   0  0  1  0  0  0  0  0  0  0  0  0
   -5.1910    4.7823  -16.6642 C   0  0  0  0  0  0  0  0  0  0  0  0
   -4.2075    5.5435  -17.5223 C   0  0  0  0  0  0  0  0  0  0  0  0
   -4.8135    6.0830  -18.8073 N   0  0  0  0  0  0  0  0  0  0  0  0
   -5.0129    4.9777  -19.8292 C   0  0  0  0  0  0  0  0  0  0  0  0
   -5.9383    4.2726  -20.0188 O   0  0  0  0  0  0  0  0  0  0  0  0
   -3.8138    4.8955  -20.7908 C   0  0  2  0  0  0  0  0  0  0  0  0
   -2.4850    4.4544  -20.2292 C   0  0  0  0  0  0  0  0  0  0  0  0
   -1.7157    5.7354  -20.0443 C   0  0  0  0  0  0  0  0  0  0  0  0
   -2.2183    6.6690  -20.9994 O   0  0  0  0  0  0  0  0  0  0  0  0
   -3.5206    6.2397  -21.4372 C   0  0  1  0  0  0  0  0  0  0  0  0
   -3.4977    6.2007  -22.9365 C   0  0  0  0  0  0  0  0  0  0  0  0
   -4.4830    6.6290  -23.8082 C   0  0  0  0  0  0  0  0  0  0  0  0
   -4.2059    6.4890  -25.1538 N   0  0  0  0  0  0  0  0  0  0  0  0
   -3.0057    5.9715  -25.2938 C   0  0  0  0  0  0  0  0  0  0  0  0
   -2.1668    5.6020  -23.8478 S   0  0  0  0  0  0  0  0  0  0  0  0
   -5.7715    6.6771  -17.8003 C   0  0  0  0  0  0  0  0  0  0  0  0
  1  2  1  0
  2  3  1  0
  3  4  1  0
  4  5  2  0
  4  6  1  0
  6  7  1  0
  7  8  2  0
  8  9  1  0
  9 10  1  0
 11 10  1  6
 11 12  1  0
 12 13  1  0
 13 14  1  0
 14 15  1  0
 15 16  2  0
 17 15  1  1
 17 18  1  0
 18 19  1  0
 19 20  1  0
 20 21  1  0
 21 22  1  6
 22 23  2  0
 23 24  1  0
 24 25  2  0
 25 26  1  0
 14 27  1  0
 10  6  2  0
 27 11  1  0
 21 17  1  0
 26 22  1  0
M  END
>  <fragmenstein_outcome>  (539) 
nan

>  <exports>  (539) 
['/opt/xchem-fragalysis-2/maxwin/openbind-hippo/xx01zvns2b/cycle_01/syndirella/elabs/openbind_xx01zvns2b_c1_elab_chemspace_filtered.sdf']

>  <Energy>  (539) 
nan

>  <alias>  (539) 
None

>  <fragmenstein_runtime>  (539) 
nan

>  <scratch_subdir>  (539) 
nan

>  <HIPPO Compound ID>  (539) 
143845

>  <rmsd(smina/fragmenstein)>  (539) 
0.742

>  <distance_score>  (539) 
1.648739

>  <orig_smiles>  (539) 
nan

>  <fragmenstein_mode>  (539) 
nan

>  <inchikey>  (539) 
NIMQLPIWQBJIJZ-HWWQOWPSSA-N

>  <ref_pdb>  (539) 
Z0852a

>  <GNINA pK>  (539) 
nan

>  <gnina_score_min>  (539) 
5.388

>  <tags>  (539) 
openbind_xx01zvns2b_c1_elab_nonasap_filtered_scored_top80percent,openbind_xx01zvns2b_c1_elab_chemspace_filtered_scored_top80percent,openbind_xx01zvns2b_c1_elab_chemspace_filtered_scored,openbind_xx01zvns2b_c1_elab_chemspace_filtered_scored_top40percent,openbind_xx01zvns2b_c1_elab_chemspace_filtered_scored_top20percent,openbind_xx01zvns2b_c1_elab_chemspace_filtered_scored_top60percent,openbind_xx01zvns2b_c1_elabs_filtered

>  <smiles>  (539) 
CCOC(=O)c1cn[nH]c1[C@H]1CCN(C(=O)[C@@H]2CCO[C@H]2c2cncs2)C1

>  <subsites>  (539) 
1 - Z4590/B/203/1

>  <gnina_score>  (539) 
5.11

>  <HIPPO Pose ID>  (539) 
70794

>  <ref_mols>  (539) 
Z0852a,Z0772a

>  <energy_score>  (539) 
-23.188146

>  <inspiration_score>  (539) 
None

>  <smina_score_min>  (539) 
-6.96

>  <fragmenstein_error>  (539) 
nan

>  <name>  (539) 
P70794

$$$$
P70802
     RDKit          3D

 32 36  0  0  0  0  0  0  0  0999 V2000
   -1.4504    2.5484  -27.1379 C   0  0  0  0  0  0  0  0  0  0  0  0
   -1.7233    4.0564  -27.1012 C   0  0  0  0  0  0  0  0  0  0  0  0
   -3.0020    4.3431  -27.9034 C   0  0  0  0  0  0  0  0  0  0  0  0
   -0.5751    4.8652  -27.7158 C   0  0  0  0  0  0  0  0  0  0  0  0
   -2.0269    4.4992  -25.7536 O   0  0  0  0  0  0  0  0  0  0  0  0
   -1.0954    4.4069  -24.7623 C   0  0  0  0  0  0  0  0  0  0  0  0
   -0.0058    4.0108  -24.9209 O   0  0  0  0  0  0  0  0  0  0  0  0
   -1.7785    4.8851  -23.5255 N   0  0  0  0  0  0  0  0  0  0  0  0
   -1.5958    6.3661  -23.3393 C   0  0  0  0  0  0  0  0  0  0  0  0
   -2.3959    6.8985  -22.1636 C   0  0  0  0  0  0  0  0  0  0  0  0
   -2.2362    5.7466  -21.2229 C   0  0  1  0  0  0  0  0  0  0  0  0
   -3.5532    5.1209  -20.9394 C   0  0  0  0  0  0  0  0  0  0  0  0
   -4.1474    4.2976  -21.8429 N   0  0  0  0  0  0  0  0  0  0  0  0
   -5.4016    3.9584  -21.5307 N   0  0  0  0  0  0  0  0  0  0  0  0
   -5.5864    4.5457  -20.3471 C   0  0  0  0  0  0  0  0  0  0  0  0
   -4.4481    5.2615  -19.9011 C   0  0  0  0  0  0  0  0  0  0  0  0
   -4.2290    6.0826  -18.6973 C   0  0  0  0  0  0  0  0  0  0  0  0
   -4.6888    5.4582  -17.4982 N   0  0  0  0  0  0  0  0  0  0  0  0
   -4.7194    5.9758  -16.0508 C   0  0  0  0  0  0  0  0  0  0  0  0
   -4.3033    6.9656  -15.5921 O   0  0  0  0  0  0  0  0  0  0  0  0
   -5.5523    4.9696  -15.1780 C   0  0  1  0  0  0  0  0  0  0  0  0
   -5.8772    5.4755  -13.7245 C   0  0  2  0  0  0  0  0  0  0  0  0
   -6.5481    4.2988  -13.0372 C   0  0  0  0  0  0  0  0  0  0  0  0
   -7.5299    3.9008  -14.1352 C   0  0  0  0  0  0  0  0  0  0  0  0
   -7.1391    4.9311  -15.1940 C   0  0  2  0  0  0  0  0  0  0  0  0
   -7.8735    4.9367  -16.5368 C   0  0  0  0  0  0  0  0  0  0  0  0
   -7.5659    5.7864  -17.5642 C   0  0  0  0  0  0  0  0  0  0  0  0
   -8.2269    5.5534  -18.7342 N   0  0  0  0  0  0  0  0  0  0  0  0
   -9.1102    4.5982  -18.5704 C   0  0  0  0  0  0  0  0  0  0  0  0
   -9.1905    3.9645  -16.9904 S   0  0  0  0  0  0  0  0  0  0  0  0
   -7.0568    6.2543  -14.3872 C   0  0  0  0  0  0  0  0  0  0  0  0
   -1.3134    4.9094  -22.0954 C   0  0  0  0  0  0  0  0  0  0  0  0
  1  2  1  0
  2  3  1  0
  2  4  1  0
  2  5  1  0
  5  6  1  0
  6  7  2  0
  6  8  1  0
  8  9  1  0
  9 10  1  0
 10 11  1  0
 11 12  1  6
 12 13  1  0
 13 14  1  0
 14 15  2  0
 15 16  1  0
 16 17  1  0
 17 18  1  0
 18 19  1  0
 19 20  2  0
 21 19  1  6
 21 22  1  0
 22 23  1  1
 23 24  1  0
 24 25  1  0
 25 26  1  6
 26 27  2  0
 27 28  1  0
 28 29  2  0
 29 30  1  0
 25 31  1  0
 11 32  1  0
 32  8  1  0
 16 12  2  0
 25 21  1  0
 30 26  1  0
 31 22  1  0
M  END
>  <fragmenstein_outcome>  (540) 
nan

>  <exports>  (540) 
['/opt/xchem-fragalysis-2/maxwin/openbind-hippo/xx01zvns2b/cycle_01/syndirella/elabs/openbind_xx01zvns2b_c1_elab_chemspace_filtered.sdf']

>  <Energy>  (540) 
nan

>  <alias>  (540) 
None

>  <fragmenstein_runtime>  (540) 
nan

>  <scratch_subdir>  (540) 
nan

>  <HIPPO Compound ID>  (540) 
143879

>  <rmsd(smina/fragmenstein)>  (540) 
1.629

>  <distance_score>  (540) 
1.861537

>  <orig_smiles>  (540) 
nan

>  <fragmenstein_mode>  (540) 
nan

>  <inchikey>  (540) 
UEYIFYIJGZRFCJ-WAAXPXDBSA-N

>  <ref_pdb>  (540) 
Z0852a

>  <GNINA pK>  (540) 
nan

>  <gnina_score_min>  (540) 
5.936

>  <tags>  (540) 
openbind_xx01zvns2b_c1_elab_nonasap_filtered_scored_top80percent,openbind_xx01zvns2b_c1_elab_chemspace_filtered_scored_top80percent,openbind_xx01zvns2b_c1_elab_chemspace_filtered_scored,openbind_xx01zvns2b_c1_elab_chemspace_filtered_scored_top40percent,openbind_xx01zvns2b_c1_elab_chemspace_filtered_scored_top20percent,openbind_xx01zvns2b_c1_elab_chemspace_filtered_scored_top60percent,openbind_xx01zvns2b_c1_elabs_filtered

>  <smiles>  (540) 
CC(C)(C)OC(=O)N1CC[C@@H](c2[nH]ncc2CNC(=O)[C@H]2[C@@H]3CC[C@@]2(c2cncs2)C3)C1

>  <subsites>  (540) 
1 - Z4590/B/203/1

>  <gnina_score>  (540) 
6.21

>  <HIPPO Pose ID>  (540) 
70802

>  <ref_mols>  (540) 
Z0852a,Z0772a

>  <energy_score>  (540) 
-12.598696

>  <inspiration_score>  (540) 
None

>  <smina_score_min>  (540) 
-5.174

>  <fragmenstein_error>  (540) 
nan

>  <name>  (540) 
P70802

$$$$
P70804
     RDKit          3D

 22 24  0  0  0  0  0  0  0  0999 V2000
   -9.4779    3.7849  -18.2183 C   0  0  0  0  0  0  0  0  0  0  0  0
   -8.4851    4.5202  -17.4429 N   0  0  0  0  0  0  0  0  0  0  0  0
   -8.5490    4.1788  -16.0195 C   0  0  0  0  0  0  0  0  0  0  0  0
   -8.1073    5.3330  -15.0908 C   0  0  0  0  0  0  0  0  0  0  0  0
   -6.6884    5.6716  -14.9163 N   0  0  0  0  0  0  0  0  0  0  0  0
   -5.9860    4.8136  -13.9565 C   0  0  0  0  0  0  0  0  0  0  0  0
   -6.2857    5.2733  -12.5168 C   0  0  0  0  0  0  0  0  0  0  0  0
   -5.8532    6.2602  -12.0575 O   0  0  0  0  0  0  0  0  0  0  0  0
   -7.1658    4.1594  -11.8710 N   0  0  0  0  0  0  0  0  0  0  0  0
   -7.7452    4.0857  -10.6119 C   0  0  0  0  0  0  0  0  0  0  0  0
   -7.5046    5.0492   -9.6369 C   0  0  0  0  0  0  0  0  0  0  0  0
   -8.0279    4.8717   -8.3569 C   0  0  0  0  0  0  0  0  0  0  0  0
   -8.7724    3.7311   -8.0639 C   0  0  0  0  0  0  0  0  0  0  0  0
   -9.2541    3.5742   -6.8241 F   0  0  0  0  0  0  0  0  0  0  0  0
   -9.0463    2.7795   -9.0365 C   0  0  0  0  0  0  0  0  0  0  0  0
   -8.5447    2.9787  -10.3142 C   0  0  0  0  0  0  0  0  0  0  0  0
   -8.8294    2.1025  -11.2894 F   0  0  0  0  0  0  0  0  0  0  0  0
   -5.9605    5.7997  -16.1711 C   0  0  0  0  0  0  0  0  0  0  0  0
   -5.9713    4.5739  -17.0676 C   0  0  0  0  0  0  0  0  0  0  0  0
   -7.1194    4.5814  -18.0290 C   0  0  0  0  0  0  0  0  0  0  0  0
   -6.8501    4.1466  -19.4542 C   0  0  0  0  0  0  0  0  0  0  0  0
   -6.9198    5.5968  -19.1178 C   0  0  0  0  0  0  0  0  0  0  0  0
  1  2  1  0
  2  3  1  0
  3  4  1  0
  4  5  1  0
  5  6  1  0
  6  7  1  0
  7  8  2  0
  7  9  1  0
  9 10  1  0
 10 11  2  0
 11 12  1  0
 12 13  2  0
 13 14  1  0
 13 15  1  0
 15 16  2  0
 16 17  1  0
  5 18  1  0
 18 19  1  0
 19 20  1  0
 20 21  1  0
 21 22  1  0
 20  2  1  0
 16 10  1  0
 22 20  1  0
M  END
>  <fragmenstein_outcome>  (541) 
nan

>  <exports>  (541) 
['/opt/xchem-fragalysis-2/maxwin/openbind-hippo/xx01zvns2b/cycle_01/syndirella/elabs/openbind_xx01zvns2b_c1_elab_chemspace_filtered.sdf']

>  <Energy>  (541) 
nan

>  <alias>  (541) 
None

>  <fragmenstein_runtime>  (541) 
nan

>  <scratch_subdir>  (541) 
nan

>  <HIPPO Compound ID>  (541) 
143910

>  <rmsd(smina/fragmenstein)>  (541) 
1.058

>  <distance_score>  (541) 
1.742807

>  <orig_smiles>  (541) 
nan

>  <fragmenstein_mode>  (541) 
nan

>  <inchikey>  (541) 
GDCNHPZERGDRDX-UHFFFAOYSA-N

>  <ref_pdb>  (541) 
Z3515a

>  <GNINA pK>  (541) 
nan

>  <gnina_score_min>  (541) 
5.291

>  <tags>  (541) 
openbind_xx01zvns2b_c1_elab_nonasap_filtered_scored_top80percent,openbind_xx01zvns2b_c1_elab_chemspace_filtered_scored_top80percent,openbind_xx01zvns2b_c1_elab_chemspace_filtered_scored,openbind_xx01zvns2b_c1_elab_chemspace_filtered_scored_top40percent,openbind_xx01zvns2b_c1_elab_chemspace_filtered_scored_top20percent,openbind_xx01zvns2b_c1_elab_chemspace_filtered_scored_top60percent,openbind_xx01zvns2b_c1_elabs_filtered

>  <smiles>  (541) 
CN1CCN(CC(=O)Nc2ccc(F)cc2F)CCC12CC2

>  <subsites>  (541) 
1 - Z4590/B/203/1

>  <gnina_score>  (541) 
5.408

>  <HIPPO Pose ID>  (541) 
70804

>  <ref_mols>  (541) 
Z0089a,Z3515a

>  <energy_score>  (541) 
-41.443495

>  <inspiration_score>  (541) 
None

>  <smina_score_min>  (541) 
-6.785

>  <fragmenstein_error>  (541) 
nan

>  <name>  (541) 
P70804

$$$$
P70809
     RDKit          3D

 24 27  0  0  0  0  0  0  0  0999 V2000
   -8.1580    3.6548  -14.0870 C   0  0  0  0  0  0  0  0  0  0  0  0
   -6.9169    4.5287  -13.9392 C   0  0  2  0  0  0  0  0  0  0  0  0
   -7.1785    5.3144  -12.6123 C   0  0  0  0  0  0  0  0  0  0  0  0
   -7.3682    6.4685  -12.5246 O   0  0  0  0  0  0  0  0  0  0  0  0
   -7.2241    4.1898  -11.5158 N   0  0  0  0  0  0  0  0  0  0  0  0
   -7.5870    4.2501  -10.1875 C   0  0  0  0  0  0  0  0  0  0  0  0
   -7.7547    5.4537   -9.4980 C   0  0  0  0  0  0  0  0  0  0  0  0
   -8.2784    5.4369   -8.2026 C   0  0  0  0  0  0  0  0  0  0  0  0
   -8.6568    4.2187   -7.6718 C   0  0  0  0  0  0  0  0  0  0  0  0
   -8.5213    3.0468   -8.3730 C   0  0  0  0  0  0  0  0  0  0  0  0
   -7.9594    3.0243   -9.6208 C   0  0  0  0  0  0  0  0  0  0  0  0
   -9.0222    1.9722   -7.7132 O   0  0  0  0  0  0  0  0  0  0  0  0
   -9.3304    2.5723   -6.4451 C   0  0  0  0  0  0  0  0  0  0  0  0
   -9.2282    4.0197   -6.4534 O   0  0  0  0  0  0  0  0  0  0  0  0
   -6.7588    5.4235  -15.0871 N   0  0  0  0  0  0  0  0  0  0  0  0
   -7.9425    5.6577  -15.9073 C   0  0  0  0  0  0  0  0  0  0  0  0
   -8.4708    4.6348  -16.9491 C   0  0  0  0  0  0  0  0  0  0  0  0
   -7.9129    4.8478  -18.2905 N   0  0  0  0  0  0  0  0  0  0  0  0
   -8.4095    3.8057  -19.1865 C   0  0  0  0  0  0  0  0  0  0  0  0
   -6.4451    5.0524  -18.2992 C   0  0  0  0  0  0  0  0  0  0  0  0
   -5.6632    4.4660  -17.1495 C   0  0  0  0  0  0  0  0  0  0  0  0
   -5.5422    5.3030  -15.8739 C   0  0  0  0  0  0  0  0  0  0  0  0
   -5.7202    5.1546  -19.6214 C   0  0  0  0  0  0  0  0  0  0  0  0
   -5.9580    6.3876  -18.8261 C   0  0  0  0  0  0  0  0  0  0  0  0
  2  1  1  6
  2  3  1  0
  3  4  2  0
  3  5  1  0
  5  6  1  0
  6  7  2  0
  7  8  1  0
  8  9  2  0
  9 10  1  0
 10 11  2  0
 10 12  1  0
 12 13  1  0
 13 14  1  0
  2 15  1  0
 15 16  1  0
 16 17  1  0
 17 18  1  0
 18 19  1  0
 18 20  1  0
 20 21  1  0
 21 22  1  0
 20 23  1  0
 23 24  1  0
 11  6  1  0
 22 15  1  0
 14  9  1  0
 24 20  1  0
M  END
>  <fragmenstein_outcome>  (542) 
nan

>  <exports>  (542) 
['/opt/xchem-fragalysis-2/maxwin/openbind-hippo/xx01zvns2b/cycle_01/syndirella/elabs/openbind_xx01zvns2b_c1_elab_chemspace_filtered.sdf']

>  <Energy>  (542) 
nan

>  <alias>  (542) 
None

>  <fragmenstein_runtime>  (542) 
nan

>  <scratch_subdir>  (542) 
nan

>  <HIPPO Compound ID>  (542) 
143917

>  <rmsd(smina/fragmenstein)>  (542) 
0.693

>  <distance_score>  (542) 
1.491718

>  <orig_smiles>  (542) 
nan

>  <fragmenstein_mode>  (542) 
nan

>  <inchikey>  (542) 
PZUZAJKXUGESKP-CYBMUJFWSA-N

>  <ref_pdb>  (542) 
Z3515a

>  <GNINA pK>  (542) 
nan

>  <gnina_score_min>  (542) 
5.179

>  <tags>  (542) 
openbind_xx01zvns2b_c1_elab_nonasap_filtered_scored_top80percent,openbind_xx01zvns2b_c1_elab_chemspace_filtered_scored_top80percent,openbind_xx01zvns2b_c1_elab_chemspace_filtered_scored,openbind_xx01zvns2b_c1_elab_chemspace_filtered_scored_top40percent,openbind_xx01zvns2b_c1_elab_chemspace_filtered_scored_top20percent,openbind_xx01zvns2b_c1_elab_chemspace_filtered_scored_top60percent,openbind_xx01zvns2b_c1_elabs_filtered

>  <smiles>  (542) 
C[C@H](C(=O)Nc1ccc2c(c1)OCO2)N1CCN(C)C2(CC1)CC2

>  <subsites>  (542) 
1 - Z4590/B/203/1

>  <gnina_score>  (542) 
5.492

>  <HIPPO Pose ID>  (542) 
70809

>  <ref_mols>  (542) 
Z3515a,Z0089a

>  <energy_score>  (542) 
-44.516046

>  <inspiration_score>  (542) 
None

>  <smina_score_min>  (542) 
-5.469

>  <fragmenstein_error>  (542) 
nan

>  <name>  (542) 
P70809

$$$$
P70811
     RDKit          3D

 25 28  0  0  0  0  0  0  0  0999 V2000
   -6.4762    5.8862  -18.8926 C   0  0  0  0  0  0  0  0  0  0  0  0
   -7.0186    5.4513  -17.6056 N   0  0  0  0  0  0  0  0  0  0  0  0
   -5.9668    4.7969  -16.8249 C   0  0  0  0  0  0  0  0  0  0  0  0
   -5.9988    5.0850  -15.3156 C   0  0  0  0  0  0  0  0  0  0  0  0
   -7.2533    4.9991  -14.5679 N   0  0  0  0  0  0  0  0  0  0  0  0
   -7.7491    6.2966  -14.0950 C   0  0  0  0  0  0  0  0  0  0  0  0
   -7.6168    6.4440  -12.5637 C   0  0  0  0  0  0  0  0  0  0  0  0
   -7.4371    7.4805  -12.0472 O   0  0  0  0  0  0  0  0  0  0  0  0
   -7.8693    5.0352  -11.9422 N   0  0  0  0  0  0  0  0  0  0  0  0
   -8.0393    4.6505  -10.6166 C   0  0  0  0  0  0  0  0  0  0  0  0
   -7.9059    5.5846   -9.5775 C   0  0  0  0  0  0  0  0  0  0  0  0
   -8.1410    5.2147   -8.2513 C   0  0  0  0  0  0  0  0  0  0  0  0
   -8.5315    3.9174   -8.0061 C   0  0  0  0  0  0  0  0  0  0  0  0
   -8.6737    2.9999   -9.0216 C   0  0  0  0  0  0  0  0  0  0  0  0
   -8.4132    3.3287  -10.3377 C   0  0  0  0  0  0  0  0  0  0  0  0
   -9.1175    1.7963   -8.5708 O   0  0  0  0  0  0  0  0  0  0  0  0
   -9.2551    2.0844   -7.1731 C   0  0  0  0  0  0  0  0  0  0  0  0
   -8.5668    1.1717   -6.4618 F   0  0  0  0  0  0  0  0  0  0  0  0
  -10.5602    1.9487   -6.8348 F   0  0  0  0  0  0  0  0  0  0  0  0
   -8.8387    3.4055   -6.7851 O   0  0  0  0  0  0  0  0  0  0  0  0
   -8.2797    4.1279  -15.1338 C   0  0  0  0  0  0  0  0  0  0  0  0
   -9.0363    4.5486  -16.3830 C   0  0  0  0  0  0  0  0  0  0  0  0
   -8.2286    4.5788  -17.6605 C   0  0  0  0  0  0  0  0  0  0  0  0
   -9.0884    4.4844  -18.8920 C   0  0  0  0  0  0  0  0  0  0  0  0
   -8.2127    3.3414  -18.5323 C   0  0  0  0  0  0  0  0  0  0  0  0
  1  2  1  0
  2  3  1  0
  3  4  1  0
  4  5  1  0
  5  6  1  0
  6  7  1  0
  7  8  2  0
  7  9  1  0
  9 10  1  0
 10 11  2  0
 11 12  1  0
 12 13  2  0
 13 14  1  0
 14 15  2  0
 14 16  1  0
 16 17  1  0
 17 18  1  0
 17 19  1  0
 17 20  1  0
  5 21  1  0
 21 22  1  0
 22 23  1  0
 23 24  1  0
 24 25  1  0
 23  2  1  0
 15 10  1  0
 25 23  1  0
 20 13  1  0
M  END
>  <fragmenstein_outcome>  (543) 
nan

>  <exports>  (543) 
['/opt/xchem-fragalysis-2/maxwin/openbind-hippo/xx01zvns2b/cycle_01/syndirella/elabs/openbind_xx01zvns2b_c1_elab_chemspace_filtered.sdf']

>  <Energy>  (543) 
nan

>  <alias>  (543) 
None

>  <fragmenstein_runtime>  (543) 
nan

>  <scratch_subdir>  (543) 
nan

>  <HIPPO Compound ID>  (543) 
143919

>  <rmsd(smina/fragmenstein)>  (543) 
0.525

>  <distance_score>  (543) 
1.794077

>  <orig_smiles>  (543) 
nan

>  <fragmenstein_mode>  (543) 
nan

>  <inchikey>  (543) 
OEWOPDUJAZOKMO-UHFFFAOYSA-N

>  <ref_pdb>  (543) 
Z3515a

>  <GNINA pK>  (543) 
nan

>  <gnina_score_min>  (543) 
5.184

>  <tags>  (543) 
openbind_xx01zvns2b_c1_elab_nonasap_filtered_scored_top80percent,openbind_xx01zvns2b_c1_elab_chemspace_filtered_scored_top80percent,openbind_xx01zvns2b_c1_elab_chemspace_filtered_scored,openbind_xx01zvns2b_c1_elab_chemspace_filtered_scored_top40percent,openbind_xx01zvns2b_c1_elab_chemspace_filtered_scored_top20percent,openbind_xx01zvns2b_c1_elab_chemspace_filtered_scored_top60percent,openbind_xx01zvns2b_c1_elabs_filtered

>  <smiles>  (543) 
CN1CCN(CC(=O)Nc2ccc3c(c2)OC(F)(F)O3)CCC12CC2

>  <subsites>  (543) 
1 - Z4590/B/203/1

>  <gnina_score>  (543) 
5.398

>  <HIPPO Pose ID>  (543) 
70811

>  <ref_mols>  (543) 
Z3515a,Z0089a

>  <energy_score>  (543) 
-74.051693

>  <inspiration_score>  (543) 
None

>  <smina_score_min>  (543) 
-6.453

>  <fragmenstein_error>  (543) 
nan

>  <name>  (543) 
P70811

$$$$
P72332
     RDKit          3D

 20 22  0  0  0  0  0  0  0  0999 V2000
   -9.5955    1.3186   -7.7718 C   0  0  0  0  0  0  0  0  0  0  0  0
   -8.5702    2.1905   -8.2870 N   0  0  0  0  0  0  0  0  0  0  0  0
   -8.5990    3.4875   -7.6294 C   0  0  0  0  0  0  0  0  0  0  0  0
   -8.2583    4.4617   -8.7029 C   0  0  0  0  0  0  0  0  0  0  0  0
   -8.0102    5.8035   -8.5381 C   0  0  0  0  0  0  0  0  0  0  0  0
   -7.7274    6.5390   -9.6753 C   0  0  0  0  0  0  0  0  0  0  0  0
   -7.6739    5.9205  -10.9393 C   0  0  0  0  0  0  0  0  0  0  0  0
   -7.9017    4.5477  -11.1289 C   0  0  0  0  0  0  0  0  0  0  0  0
   -7.9006    3.9726  -12.4094 N   0  0  0  0  0  0  0  0  0  0  0  0
   -6.9384    4.4260  -13.4452 C   0  0  0  0  0  0  0  0  0  0  0  0
   -7.6200    4.9380  -14.7348 C   0  0  1  0  0  0  0  0  0  0  0  0
   -8.5174    6.1081  -14.3586 C   0  0  0  0  0  0  0  0  0  0  0  0
   -6.6542    5.4150  -15.8171 C   0  0  0  0  0  0  0  0  0  0  0  0
   -7.5033    5.5884  -16.9704 O   0  0  0  0  0  0  0  0  0  0  0  0
   -8.3665    4.4307  -17.0203 C   0  0  0  0  0  0  0  0  0  0  0  0
   -7.7356    3.5404  -18.0652 C   0  0  0  0  0  0  0  0  0  0  0  0
   -9.7742    4.6608  -17.5640 C   0  0  0  0  0  0  0  0  0  0  0  0
   -8.4237    3.9279  -15.5613 C   0  0  0  0  0  0  0  0  0  0  0  0
   -8.2395    3.8465   -9.9665 C   0  0  0  0  0  0  0  0  0  0  0  0
   -8.6225    2.4163   -9.7451 C   0  0  0  0  0  0  0  0  0  0  0  0
  1  2  1  0
  2  3  1  0
  3  4  1  0
  4  5  2  0
  5  6  1  0
  6  7  2  0
  7  8  1  0
  8  9  1  0
  9 10  1  0
 11 10  1  0
 11 12  1  1
 11 13  1  0
 13 14  1  0
 14 15  1  0
 15 16  1  0
 15 17  1  0
 15 18  1  0
  8 19  2  0
 19 20  1  0
 20  2  1  0
 19  4  1  0
 18 11  1  0
M  END
>  <fragmenstein_outcome>  (544) 
nan

>  <exports>  (544) 
['/opt/xchem-fragalysis-2/maxwin/openbind-hippo/xx01zvns2b/cycle_01/syndirella/elabs/openbind_xx01zvns2b_c1_elab_chemspace_filtered.sdf']

>  <Energy>  (544) 
nan

>  <alias>  (544) 
None

>  <fragmenstein_runtime>  (544) 
nan

>  <scratch_subdir>  (544) 
nan

>  <HIPPO Compound ID>  (544) 
145100

>  <rmsd(smina/fragmenstein)>  (544) 
0.875

>  <distance_score>  (544) 
1.612174

>  <orig_smiles>  (544) 
nan

>  <fragmenstein_mode>  (544) 
nan

>  <inchikey>  (544) 
ROKVYEKJWFHPKQ-KRWDZBQOSA-N

>  <ref_pdb>  (544) 
Z3515a

>  <GNINA pK>  (544) 
nan

>  <gnina_score_min>  (544) 
5.219

>  <tags>  (544) 
openbind_xx01zvns2b_c1_elab_nonasap_filtered_scored_top80percent,openbind_xx01zvns2b_c1_elab_chemspace_filtered_scored_top80percent,openbind_xx01zvns2b_c1_elab_chemspace_filtered_scored,openbind_xx01zvns2b_c1_elab_chemspace_filtered_scored_top40percent,openbind_xx01zvns2b_c1_elab_chemspace_filtered_scored_top20percent,openbind_xx01zvns2b_c1_elab_chemspace_filtered_scored_top60percent,openbind_xx01zvns2b_c1_elabs_filtered

>  <smiles>  (544) 
CN1Cc2cccc(NC[C@@]3(C)COC(C)(C)C3)c2C1

>  <subsites>  (544) 
1 - Z4590/B/203/1

>  <gnina_score>  (544) 
5.033

>  <HIPPO Pose ID>  (544) 
72332

>  <ref_mols>  (544) 
Z0089a,Z3515a

>  <energy_score>  (544) 
-24.649732

>  <inspiration_score>  (544) 
None

>  <smina_score_min>  (544) 
-5.757

>  <fragmenstein_error>  (544) 
nan

>  <name>  (544) 
P72332

$$$$
P72376
     RDKit          3D

 26 29  0  0  0  0  0  0  0  0999 V2000
   -5.9271    4.5473  -20.4026 C   0  0  0  0  0  0  0  0  0  0  0  0
   -6.1658    4.8514  -18.9563 C   0  0  0  0  0  0  0  0  0  0  0  0
   -7.4409    4.6649  -18.3963 C   0  0  0  0  0  0  0  0  0  0  0  0
   -7.6419    4.7816  -17.0139 C   0  0  0  0  0  0  0  0  0  0  0  0
   -9.0440    4.5203  -16.4846 C   0  0  0  0  0  0  0  0  0  0  0  0
   -9.9977    4.8995  -17.3756 F   0  0  0  0  0  0  0  0  0  0  0  0
   -9.2816    3.2043  -16.2598 F   0  0  0  0  0  0  0  0  0  0  0  0
   -9.3127    5.1743  -15.3164 F   0  0  0  0  0  0  0  0  0  0  0  0
   -6.6437    5.0566  -16.1236 N   0  0  0  0  0  0  0  0  0  0  0  0
   -5.4501    5.2358  -16.7136 C   0  0  0  0  0  0  0  0  0  0  0  0
   -4.2620    5.4082  -16.0712 N   0  0  0  0  0  0  0  0  0  0  0  0
   -3.2023    5.5339  -16.8971 N   0  0  0  0  0  0  0  0  0  0  0  0
   -3.7650    5.5809  -18.1088 C   0  0  0  0  0  0  0  0  0  0  0  0
   -3.0017    5.9322  -19.1818 N   0  0  0  0  0  0  0  0  0  0  0  0
   -3.3917    6.6442  -20.5085 C   0  0  0  0  0  0  0  0  0  0  0  0
   -4.4100    7.1056  -20.8490 O   0  0  0  0  0  0  0  0  0  0  0  0
   -2.1626    6.5874  -21.4314 C   0  0  2  0  0  0  0  0  0  0  0  0
   -2.3474    7.5431  -22.6358 C   0  0  0  0  0  0  0  0  0  0  0  0
   -1.4505    7.1967  -23.8354 C   0  0  1  0  0  0  0  0  0  0  0  0
    0.0302    7.1661  -23.4508 C   0  0  0  0  0  0  0  0  0  0  0  0
    0.2795    5.7268  -23.0050 C   0  0  0  0  0  0  0  0  0  0  0  0
   -1.0752    5.0297  -23.1688 C   0  0  1  0  0  0  0  0  0  0  0  0
   -1.9299    5.1319  -21.8928 C   0  0  0  0  0  0  0  0  0  0  0  0
   -1.7779    5.8079  -24.2022 N   0  0  0  0  0  0  0  0  0  0  0  0
   -1.3468    5.4677  -25.5563 C   0  0  0  0  0  0  0  0  0  0  0  0
   -5.1467    5.2323  -18.0649 C   0  0  0  0  0  0  0  0  0  0  0  0
  1  2  1  0
  2  3  2  0
  3  4  1  0
  4  5  1  0
  5  6  1  0
  5  7  1  0
  5  8  1  0
  4  9  2  0
  9 10  1  0
 10 11  1  0
 11 12  1  0
 12 13  2  0
 13 14  1  0
 14 15  1  0
 15 16  2  0
 17 15  1  1
 17 18  1  0
 19 18  1  1
 19 20  1  0
 20 21  1  0
 22 21  1  1
 22 23  1  0
 22 24  1  0
 24 25  1  0
 13 26  1  0
 26  2  1  0
 26 10  2  0
 23 17  1  0
 24 19  1  0
M  END
>  <fragmenstein_outcome>  (545) 
nan

>  <exports>  (545) 
['/opt/xchem-fragalysis-2/maxwin/openbind-hippo/xx01zvns2b/cycle_01/syndirella/elabs/openbind_xx01zvns2b_c1_elab_chemspace_filtered.sdf']

>  <Energy>  (545) 
nan

>  <alias>  (545) 
None

>  <fragmenstein_runtime>  (545) 
nan

>  <scratch_subdir>  (545) 
nan

>  <HIPPO Compound ID>  (545) 
145344

>  <rmsd(smina/fragmenstein)>  (545) 
1.002

>  <distance_score>  (545) 
1.041418

>  <orig_smiles>  (545) 
nan

>  <fragmenstein_mode>  (545) 
nan

>  <inchikey>  (545) 
JHRVTYBYJSMEOG-RTCCRHLQSA-N

>  <ref_pdb>  (545) 
Z0709a

>  <GNINA pK>  (545) 
nan

>  <gnina_score_min>  (545) 
5.369

>  <tags>  (545) 
openbind_xx01zvns2b_c1_elab_nonasap_filtered_scored_top80percent,openbind_xx01zvns2b_c1_elab_chemspace_filtered_scored_top80percent,openbind_xx01zvns2b_c1_elab_chemspace_filtered_scored,openbind_xx01zvns2b_c1_elab_chemspace_filtered_scored_top40percent,openbind_xx01zvns2b_c1_elab_chemspace_filtered_scored_top20percent,openbind_xx01zvns2b_c1_elab_chemspace_filtered_scored_top60percent,openbind_xx01zvns2b_c1_elabs_filtered

>  <smiles>  (545) 
Cc1cc(C(F)(F)F)nc2[nH]nc(NC(=O)[C@@H]3C[C@H]4CC[C@@H](C3)N4C)c12

>  <subsites>  (545) 
1 - Z4590/B/203/1

>  <gnina_score>  (545) 
5.281

>  <HIPPO Pose ID>  (545) 
72376

>  <ref_mols>  (545) 
Z0827a,Z0709a

>  <energy_score>  (545) 
-41.10101

>  <inspiration_score>  (545) 
None

>  <smina_score_min>  (545) 
-6.334

>  <fragmenstein_error>  (545) 
nan

>  <name>  (545) 
P72376

$$$$
P72379
     RDKit          3D

 26 29  0  0  0  0  0  0  0  0999 V2000
   -6.2700    4.4008  -20.2313 C   0  0  0  0  0  0  0  0  0  0  0  0
   -6.2295    4.7406  -18.7818 C   0  0  0  0  0  0  0  0  0  0  0  0
   -7.4359    4.6151  -18.0539 C   0  0  0  0  0  0  0  0  0  0  0  0
   -7.4700    4.8370  -16.6800 C   0  0  0  0  0  0  0  0  0  0  0  0
   -8.7552    4.5924  -15.9143 C   0  0  0  0  0  0  0  0  0  0  0  0
   -9.3699    5.7573  -15.5567 F   0  0  0  0  0  0  0  0  0  0  0  0
   -9.6631    3.8601  -16.6152 F   0  0  0  0  0  0  0  0  0  0  0  0
   -8.5472    3.9362  -14.7394 F   0  0  0  0  0  0  0  0  0  0  0  0
   -6.3917    5.2564  -15.9767 N   0  0  0  0  0  0  0  0  0  0  0  0
   -5.2735    5.3566  -16.7100 C   0  0  0  0  0  0  0  0  0  0  0  0
   -4.0729    5.6914  -16.1872 N   0  0  0  0  0  0  0  0  0  0  0  0
   -3.0854    5.7310  -17.0796 N   0  0  0  0  0  0  0  0  0  0  0  0
   -3.6676    5.4138  -18.2484 C   0  0  0  0  0  0  0  0  0  0  0  0
   -2.7564    5.4579  -19.2719 N   0  0  0  0  0  0  0  0  0  0  0  0
   -2.9350    5.1994  -20.7958 C   0  0  0  0  0  0  0  0  0  0  0  0
   -3.8675    4.8352  -21.3973 O   0  0  0  0  0  0  0  0  0  0  0  0
   -1.5644    5.4835  -21.4422 C   0  0  1  0  0  0  0  0  0  0  0  0
   -1.5493    5.0222  -22.9105 C   0  0  0  0  0  0  0  0  0  0  0  0
   -2.3122    5.9645  -23.8567 C   0  0  0  0  0  0  0  0  0  0  0  0
   -2.2412    7.3616  -23.4411 N   0  0  0  0  0  0  0  0  0  0  0  0
   -2.2641    8.3223  -24.5367 C   0  0  0  0  0  0  0  0  0  0  0  0
   -1.8012    9.6163  -23.8738 C   0  0  0  0  0  0  0  0  0  0  0  0
   -1.1058    9.1924  -22.5793 C   0  0  0  0  0  0  0  0  0  0  0  0
   -1.0581    7.6715  -22.6517 C   0  0  1  0  0  0  0  0  0  0  0  0
   -1.1571    6.9688  -21.2999 C   0  0  0  0  0  0  0  0  0  0  0  0
   -5.0730    5.1379  -18.0719 C   0  0  0  0  0  0  0  0  0  0  0  0
  1  2  1  0
  2  3  2  0
  3  4  1  0
  4  5  1  0
  5  6  1  0
  5  7  1  0
  5  8  1  0
  4  9  2  0
  9 10  1  0
 10 11  1  0
 11 12  1  0
 12 13  2  0
 13 14  1  0
 14 15  1  0
 15 16  2  0
 17 15  1  6
 17 18  1  0
 18 19  1  0
 19 20  1  0
 20 21  1  0
 21 22  1  0
 22 23  1  0
 24 23  1  1
 24 25  1  0
 13 26  1  0
 26  2  1  0
 26 10  2  0
 25 17  1  0
 24 20  1  0
M  END
>  <fragmenstein_outcome>  (546) 
nan

>  <exports>  (546) 
['/opt/xchem-fragalysis-2/maxwin/openbind-hippo/xx01zvns2b/cycle_01/syndirella/elabs/openbind_xx01zvns2b_c1_elab_chemspace_filtered.sdf']

>  <Energy>  (546) 
nan

>  <alias>  (546) 
None

>  <fragmenstein_runtime>  (546) 
nan

>  <scratch_subdir>  (546) 
nan

>  <HIPPO Compound ID>  (546) 
145345

>  <rmsd(smina/fragmenstein)>  (546) 
1.416

>  <distance_score>  (546) 
0.961729

>  <orig_smiles>  (546) 
nan

>  <fragmenstein_mode>  (546) 
nan

>  <inchikey>  (546) 
QEBNGOZSZSNNAQ-QWRGUYRKSA-N

>  <ref_pdb>  (546) 
Z0709a

>  <GNINA pK>  (546) 
nan

>  <gnina_score_min>  (546) 
5.163

>  <tags>  (546) 
openbind_xx01zvns2b_c1_elab_nonasap_filtered_scored_top80percent,openbind_xx01zvns2b_c1_elab_chemspace_filtered_scored_top80percent,openbind_xx01zvns2b_c1_elab_chemspace_filtered_scored,openbind_xx01zvns2b_c1_elab_chemspace_filtered_scored_top40percent,openbind_xx01zvns2b_c1_elab_chemspace_filtered_scored_top20percent,openbind_xx01zvns2b_c1_elab_chemspace_filtered_scored_top60percent,openbind_xx01zvns2b_c1_elabs_filtered

>  <smiles>  (546) 
Cc1cc(C(F)(F)F)nc2[nH]nc(NC(=O)[C@H]3CCN4CCC[C@H]4C3)c12

>  <subsites>  (546) 
1 - Z4590/B/203/1

>  <gnina_score>  (546) 
4.939

>  <HIPPO Pose ID>  (546) 
72379

>  <ref_mols>  (546) 
Z0827a,Z0709a

>  <energy_score>  (546) 
-51.268793

>  <inspiration_score>  (546) 
None

>  <smina_score_min>  (546) 
-5.879

>  <fragmenstein_error>  (546) 
nan

>  <name>  (546) 
P72379

$$$$
P72381
     RDKit          3D

 26 29  0  0  0  0  0  0  0  0999 V2000
   -6.1464    4.4305  -20.2371 C   0  0  0  0  0  0  0  0  0  0  0  0
   -6.1732    4.7649  -18.7836 C   0  0  0  0  0  0  0  0  0  0  0  0
   -7.4070    4.6624  -18.1005 C   0  0  0  0  0  0  0  0  0  0  0  0
   -7.4782    4.8563  -16.7207 C   0  0  0  0  0  0  0  0  0  0  0  0
   -8.7852    4.6126  -15.9919 C   0  0  0  0  0  0  0  0  0  0  0  0
   -8.6105    3.9240  -14.8303 F   0  0  0  0  0  0  0  0  0  0  0  0
   -9.3890    5.7764  -15.6159 F   0  0  0  0  0  0  0  0  0  0  0  0
   -9.6871    3.9090  -16.7283 F   0  0  0  0  0  0  0  0  0  0  0  0
   -6.4127    5.2311  -15.9699 N   0  0  0  0  0  0  0  0  0  0  0  0
   -5.2688    5.3115  -16.6626 C   0  0  0  0  0  0  0  0  0  0  0  0
   -4.0660    5.5636  -16.0955 N   0  0  0  0  0  0  0  0  0  0  0  0
   -3.0430    5.5217  -16.9525 N   0  0  0  0  0  0  0  0  0  0  0  0
   -3.6211    5.3312  -18.1484 C   0  0  0  0  0  0  0  0  0  0  0  0
   -2.7171    5.3504  -19.1751 N   0  0  0  0  0  0  0  0  0  0  0  0
   -2.9293    5.5369  -20.7030 C   0  0  0  0  0  0  0  0  0  0  0  0
   -3.9135    5.6251  -21.3249 O   0  0  0  0  0  0  0  0  0  0  0  0
   -1.5207    5.5705  -21.3413 C   0  0  1  0  0  0  0  0  0  0  0  0
   -1.6066    5.3267  -22.8691 C   0  0  0  0  0  0  0  0  0  0  0  0
   -1.6461    6.6139  -23.7042 C   0  0  2  0  0  0  0  0  0  0  0  0
   -0.4236    7.4562  -23.3740 C   0  0  0  0  0  0  0  0  0  0  0  0
   -0.8400    7.9863  -22.0020 C   0  0  2  0  0  0  0  0  0  0  0  0
   -0.7446    6.8598  -20.9612 C   0  0  0  0  0  0  0  0  0  0  0  0
   -2.2998    8.3139  -22.2549 C   0  0  0  0  0  0  0  0  0  0  0  0
   -3.0016    9.0696  -21.6096 O   0  0  0  0  0  0  0  0  0  0  0  0
   -2.7084    7.4975  -23.3001 N   0  0  0  0  0  0  0  0  0  0  0  0
   -5.0390    5.1251  -18.0218 C   0  0  0  0  0  0  0  0  0  0  0  0
  1  2  1  0
  2  3  2  0
  3  4  1  0
  4  5  1  0
  5  6  1  0
  5  7  1  0
  5  8  1  0
  4  9  2  0
  9 10  1  0
 10 11  1  0
 11 12  1  0
 12 13  2  0
 13 14  1  0
 14 15  1  0
 15 16  2  0
 17 15  1  6
 17 18  1  0
 19 18  1  1
 19 20  1  0
 20 21  1  0
 21 22  1  1
 21 23  1  0
 23 24  2  0
 23 25  1  0
 13 26  1  0
 26  2  1  0
 26 10  2  0
 22 17  1  0
 25 19  1  0
M  END
>  <fragmenstein_outcome>  (547) 
nan

>  <exports>  (547) 
['/opt/xchem-fragalysis-2/maxwin/openbind-hippo/xx01zvns2b/cycle_01/syndirella/elabs/openbind_xx01zvns2b_c1_elab_chemspace_filtered.sdf']

>  <Energy>  (547) 
nan

>  <alias>  (547) 
None

>  <fragmenstein_runtime>  (547) 
nan

>  <scratch_subdir>  (547) 
nan

>  <HIPPO Compound ID>  (547) 
145346

>  <rmsd(smina/fragmenstein)>  (547) 
0.942

>  <distance_score>  (547) 
0.993188

>  <orig_smiles>  (547) 
nan

>  <fragmenstein_mode>  (547) 
nan

>  <inchikey>  (547) 
RAXNMTYYBLLMRM-YIZRAAEISA-N

>  <ref_pdb>  (547) 
Z0709a

>  <GNINA pK>  (547) 
nan

>  <gnina_score_min>  (547) 
5.33

>  <tags>  (547) 
openbind_xx01zvns2b_c1_elab_nonasap_filtered_scored_top80percent,openbind_xx01zvns2b_c1_elab_chemspace_filtered_scored_top80percent,openbind_xx01zvns2b_c1_elab_chemspace_filtered_scored,openbind_xx01zvns2b_c1_elab_chemspace_filtered_scored_top40percent,openbind_xx01zvns2b_c1_elab_chemspace_filtered_scored_top20percent,openbind_xx01zvns2b_c1_elab_chemspace_filtered_scored_top60percent,openbind_xx01zvns2b_c1_elabs_filtered

>  <smiles>  (547) 
Cc1cc(C(F)(F)F)nc2[nH]nc(NC(=O)[C@H]3C[C@@H]4C[C@H](C3)C(=O)N4)c12

>  <subsites>  (547) 
1 - Z4590/B/203/1

>  <gnina_score>  (547) 
5.197

>  <HIPPO Pose ID>  (547) 
72381

>  <ref_mols>  (547) 
Z0827a,Z0709a

>  <energy_score>  (547) 
-47.726721

>  <inspiration_score>  (547) 
None

>  <smina_score_min>  (547) 
-5.661

>  <fragmenstein_error>  (547) 
nan

>  <name>  (547) 
P72381

$$$$
P72386
     RDKit          3D

 27 30  0  0  0  0  0  0  0  0999 V2000
   -6.0075    4.5493  -20.2633 C   0  0  0  0  0  0  0  0  0  0  0  0
   -6.0761    4.8436  -18.8016 C   0  0  0  0  0  0  0  0  0  0  0  0
   -7.3172    4.6374  -18.1472 C   0  0  0  0  0  0  0  0  0  0  0  0
   -7.4409    4.8142  -16.7700 C   0  0  0  0  0  0  0  0  0  0  0  0
   -8.7577    4.5336  -16.0742 C   0  0  0  0  0  0  0  0  0  0  0  0
   -9.3742    5.6830  -15.6724 F   0  0  0  0  0  0  0  0  0  0  0  0
   -9.6474    3.8514  -16.8444 F   0  0  0  0  0  0  0  0  0  0  0  0
   -8.5938    3.8114  -14.9332 F   0  0  0  0  0  0  0  0  0  0  0  0
   -6.4175    5.2341  -15.9907 N   0  0  0  0  0  0  0  0  0  0  0  0
   -5.2694    5.4190  -16.6538 C   0  0  0  0  0  0  0  0  0  0  0  0
   -4.1188    5.7809  -16.0451 N   0  0  0  0  0  0  0  0  0  0  0  0
   -3.1035    5.9724  -16.8832 N   0  0  0  0  0  0  0  0  0  0  0  0
   -3.6083    5.7056  -18.0980 C   0  0  0  0  0  0  0  0  0  0  0  0
   -2.6745    5.9639  -19.0663 N   0  0  0  0  0  0  0  0  0  0  0  0
   -2.7427    5.7831  -20.6088 C   0  0  0  0  0  0  0  0  0  0  0  0
   -3.6312    5.4593  -21.2943 O   0  0  0  0  0  0  0  0  0  0  0  0
   -1.3612    6.2365  -21.1397 C   0  0  2  0  0  0  0  0  0  0  0  0
   -1.1431    5.9263  -22.6140 C   0  0  0  0  0  0  0  0  0  0  0  0
    0.1420    6.6435  -22.9844 C   0  0  2  0  0  0  0  0  0  0  0  0
    0.7100    6.2940  -24.3570 C   0  0  0  0  0  0  0  0  0  0  0  0
    2.1815    6.6722  -24.1955 C   0  0  0  0  0  0  0  0  0  0  0  0
    2.4943    6.2243  -22.7722 C   0  0  0  0  0  0  0  0  0  0  0  0
    1.2280    6.3291  -22.0719 N   0  0  0  0  0  0  0  0  0  0  0  0
    1.0625    5.8342  -20.8051 C   0  0  0  0  0  0  0  0  0  0  0  0
    1.9803    5.4085  -20.1106 O   0  0  0  0  0  0  0  0  0  0  0  0
   -0.2263    5.7818  -20.3504 N   0  0  0  0  0  0  0  0  0  0  0  0
   -4.9873    5.2860  -18.0121 C   0  0  0  0  0  0  0  0  0  0  0  0
  1  2  1  0
  2  3  2  0
  3  4  1  0
  4  5  1  0
  5  6  1  0
  5  7  1  0
  5  8  1  0
  4  9  2  0
  9 10  1  0
 10 11  1  0
 11 12  1  0
 12 13  2  0
 13 14  1  0
 14 15  1  0
 15 16  2  0
 17 15  1  1
 17 18  1  0
 19 18  1  1
 19 20  1  0
 20 21  1  0
 21 22  1  0
 22 23  1  0
 23 24  1  0
 24 25  2  0
 24 26  1  0
 13 27  1  0
 27  2  1  0
 27 10  2  0
 26 17  1  0
 23 19  1  0
M  END
>  <fragmenstein_outcome>  (548) 
nan

>  <exports>  (548) 
['/opt/xchem-fragalysis-2/maxwin/openbind-hippo/xx01zvns2b/cycle_01/syndirella/elabs/openbind_xx01zvns2b_c1_elab_chemspace_filtered.sdf']

>  <Energy>  (548) 
nan

>  <alias>  (548) 
None

>  <fragmenstein_runtime>  (548) 
nan

>  <scratch_subdir>  (548) 
nan

>  <HIPPO Compound ID>  (548) 
145348

>  <rmsd(smina/fragmenstein)>  (548) 
0.934

>  <distance_score>  (548) 
1.064641

>  <orig_smiles>  (548) 
nan

>  <fragmenstein_mode>  (548) 
nan

>  <inchikey>  (548) 
OHJGAQGIROKOTJ-IUCAKERBSA-N

>  <ref_pdb>  (548) 
Z0709a

>  <GNINA pK>  (548) 
nan

>  <gnina_score_min>  (548) 
5.315

>  <tags>  (548) 
openbind_xx01zvns2b_c1_elab_nonasap_filtered_scored_top80percent,openbind_xx01zvns2b_c1_elab_chemspace_filtered_scored_top80percent,openbind_xx01zvns2b_c1_elab_chemspace_filtered_scored,openbind_xx01zvns2b_c1_elab_chemspace_filtered_scored_top40percent,openbind_xx01zvns2b_c1_elab_chemspace_filtered_scored_top20percent,openbind_xx01zvns2b_c1_elab_chemspace_filtered_scored_top60percent,openbind_xx01zvns2b_c1_elabs_filtered

>  <smiles>  (548) 
Cc1cc(C(F)(F)F)nc2[nH]nc(NC(=O)[C@@H]3C[C@@H]4CCCN4C(=O)N3)c12

>  <subsites>  (548) 
1 - Z4590/B/203/1

>  <gnina_score>  (548) 
5.365

>  <HIPPO Pose ID>  (548) 
72386

>  <ref_mols>  (548) 
Z0827a,Z0709a

>  <energy_score>  (548) 
-49.136795

>  <inspiration_score>  (548) 
None

>  <smina_score_min>  (548) 
-6.224

>  <fragmenstein_error>  (548) 
nan

>  <name>  (548) 
P72386

$$$$
P72398
     RDKit          3D

 28 31  0  0  0  0  0  0  0  0999 V2000
   -6.3490    4.3530  -20.2212 C   0  0  0  0  0  0  0  0  0  0  0  0
   -6.2707    4.7025  -18.7765 C   0  0  0  0  0  0  0  0  0  0  0  0
   -7.4579    4.5769  -18.0196 C   0  0  0  0  0  0  0  0  0  0  0  0
   -7.4649    4.8276  -16.6509 C   0  0  0  0  0  0  0  0  0  0  0  0
   -8.7352    4.5859  -15.8593 C   0  0  0  0  0  0  0  0  0  0  0  0
   -9.6506    3.8408  -16.5372 F   0  0  0  0  0  0  0  0  0  0  0  0
   -9.3524    5.7516  -15.5071 F   0  0  0  0  0  0  0  0  0  0  0  0
   -8.5047    3.9452  -14.6798 F   0  0  0  0  0  0  0  0  0  0  0  0
   -6.3769    5.2768  -15.9804 N   0  0  0  0  0  0  0  0  0  0  0  0
   -5.2771    5.3797  -16.7422 C   0  0  0  0  0  0  0  0  0  0  0  0
   -4.0738    5.7651  -16.2611 N   0  0  0  0  0  0  0  0  0  0  0  0
   -3.1135    5.8233  -17.1831 N   0  0  0  0  0  0  0  0  0  0  0  0
   -3.7089    5.4288  -18.3215 C   0  0  0  0  0  0  0  0  0  0  0  0
   -2.8268    5.4513  -19.3726 N   0  0  0  0  0  0  0  0  0  0  0  0
   -3.0410    5.1247  -20.8790 C   0  0  0  0  0  0  0  0  0  0  0  0
   -3.9805    4.7135  -21.4379 O   0  0  0  0  0  0  0  0  0  0  0  0
   -1.7163    5.4892  -21.5986 C   0  0  2  0  0  0  0  0  0  0  0  0
   -1.4769    7.0175  -21.5870 C   0  0  0  0  0  0  0  0  0  0  0  0
   -1.9976    7.7403  -22.8480 C   0  0  1  0  0  0  0  0  0  0  0  0
   -0.9514    7.7781  -23.9711 C   0  0  0  0  0  0  0  0  0  0  0  0
   -1.3062    6.6039  -24.8715 C   0  0  0  0  0  0  0  0  0  0  0  0
   -2.3735    5.8516  -24.0790 C   0  0  1  0  0  0  0  0  0  0  0  0
   -1.7148    4.9165  -23.0312 C   0  0  0  0  0  0  0  0  0  0  0  0
   -3.1049    6.9279  -23.3805 N   0  0  0  0  0  0  0  0  0  0  0  0
   -4.0832    7.6865  -24.1849 C   0  0  0  0  0  0  0  0  0  0  0  0
   -5.0832    6.7749  -24.9136 C   0  0  0  0  0  0  0  0  0  0  0  0
   -4.9035    8.6122  -23.2685 C   0  0  0  0  0  0  0  0  0  0  0  0
   -5.1032    5.1267  -18.1019 C   0  0  0  0  0  0  0  0  0  0  0  0
  1  2  1  0
  2  3  2  0
  3  4  1  0
  4  5  1  0
  5  6  1  0
  5  7  1  0
  5  8  1  0
  4  9  2  0
  9 10  1  0
 10 11  1  0
 11 12  1  0
 12 13  2  0
 13 14  1  0
 14 15  1  0
 15 16  2  0
 17 15  1  6
 17 18  1  0
 19 18  1  1
 19 20  1  0
 20 21  1  0
 22 21  1  6
 22 23  1  0
 22 24  1  0
 24 25  1  0
 25 26  1  0
 25 27  1  0
 13 28  1  0
 28  2  1  0
 28 10  2  0
 23 17  1  0
 24 19  1  0
M  END
>  <fragmenstein_outcome>  (549) 
nan

>  <exports>  (549) 
['/opt/xchem-fragalysis-2/maxwin/openbind-hippo/xx01zvns2b/cycle_01/syndirella/elabs/openbind_xx01zvns2b_c1_elab_chemspace_filtered.sdf']

>  <Energy>  (549) 
nan

>  <alias>  (549) 
None

>  <fragmenstein_runtime>  (549) 
nan

>  <scratch_subdir>  (549) 
nan

>  <HIPPO Compound ID>  (549) 
145353

>  <rmsd(smina/fragmenstein)>  (549) 
0.848

>  <distance_score>  (549) 
0.94106

>  <orig_smiles>  (549) 
nan

>  <fragmenstein_mode>  (549) 
nan

>  <inchikey>  (549) 
OXOUXIVCFSHUBX-XYYAHUGASA-N

>  <ref_pdb>  (549) 
Z0709a

>  <GNINA pK>  (549) 
nan

>  <gnina_score_min>  (549) 
5.359

>  <tags>  (549) 
openbind_xx01zvns2b_c1_elab_nonasap_filtered_scored_top80percent,openbind_xx01zvns2b_c1_elab_chemspace_filtered_scored_top80percent,openbind_xx01zvns2b_c1_elab_chemspace_filtered_scored,openbind_xx01zvns2b_c1_elab_chemspace_filtered_scored_top40percent,openbind_xx01zvns2b_c1_elab_chemspace_filtered_scored_top20percent,openbind_xx01zvns2b_c1_elab_chemspace_filtered_scored_top60percent,openbind_xx01zvns2b_c1_elabs_filtered

>  <smiles>  (549) 
Cc1cc(C(F)(F)F)nc2[nH]nc(NC(=O)[C@@H]3C[C@H]4CC[C@@H](C3)N4C(C)C)c12

>  <subsites>  (549) 
1 - Z4590/B/203/1

>  <gnina_score>  (549) 
5.37

>  <HIPPO Pose ID>  (549) 
72398

>  <ref_mols>  (549) 
Z0827a,Z0709a

>  <energy_score>  (549) 
-45.358278

>  <inspiration_score>  (549) 
None

>  <smina_score_min>  (549) 
-6.168

>  <fragmenstein_error>  (549) 
nan

>  <name>  (549) 
P72398

$$$$
P72400
     RDKit          3D

 28 31  0  0  0  0  0  0  0  0999 V2000
   -4.5520    7.0545  -26.4224 C   0  0  0  0  0  0  0  0  0  0  0  0
   -3.1109    6.7787  -26.0172 C   0  0  0  0  0  0  0  0  0  0  0  0
   -2.8131    7.3291  -24.6173 C   0  0  0  0  0  0  0  0  0  0  0  0
   -1.4159    7.1378  -24.2261 N   0  0  0  0  0  0  0  0  0  0  0  0
   -1.0458    7.7351  -22.9375 C   0  0  2  0  0  0  0  0  0  0  0  0
    0.4265    7.3206  -22.8496 C   0  0  0  0  0  0  0  0  0  0  0  0
    0.4984    6.0005  -23.6197 C   0  0  0  0  0  0  0  0  0  0  0  0
   -0.9343    5.7565  -24.1065 C   0  0  1  0  0  0  0  0  0  0  0  0
   -1.7593    4.9565  -23.0885 C   0  0  0  0  0  0  0  0  0  0  0  0
   -1.8181    5.6114  -21.6893 C   0  0  2  0  0  0  0  0  0  0  0  0
   -3.0520    5.1139  -20.9147 C   0  0  0  0  0  0  0  0  0  0  0  0
   -3.9468    4.5727  -21.4337 O   0  0  0  0  0  0  0  0  0  0  0  0
   -2.8551    5.5395  -19.4335 N   0  0  0  0  0  0  0  0  0  0  0  0
   -3.7146    5.4738  -18.3650 C   0  0  0  0  0  0  0  0  0  0  0  0
   -3.1096    5.8611  -17.2299 N   0  0  0  0  0  0  0  0  0  0  0  0
   -4.0567    5.7778  -16.2951 N   0  0  0  0  0  0  0  0  0  0  0  0
   -5.2627    5.3867  -16.7660 C   0  0  0  0  0  0  0  0  0  0  0  0
   -6.3549    5.2713  -15.9945 N   0  0  0  0  0  0  0  0  0  0  0  0
   -7.4476    4.8212  -16.6570 C   0  0  0  0  0  0  0  0  0  0  0  0
   -8.7130    4.5743  -15.8572 C   0  0  0  0  0  0  0  0  0  0  0  0
   -9.6319    3.8306  -16.5323 F   0  0  0  0  0  0  0  0  0  0  0  0
   -8.4738    3.9296  -14.6819 F   0  0  0  0  0  0  0  0  0  0  0  0
   -9.3307    5.7378  -15.4981 F   0  0  0  0  0  0  0  0  0  0  0  0
   -7.4498    4.5743  -18.0264 C   0  0  0  0  0  0  0  0  0  0  0  0
   -6.2706    4.7128  -18.7941 C   0  0  0  0  0  0  0  0  0  0  0  0
   -6.3571    4.3577  -20.2367 C   0  0  0  0  0  0  0  0  0  0  0  0
   -5.1007    5.1454  -18.1294 C   0  0  0  0  0  0  0  0  0  0  0  0
   -1.8555    7.1541  -21.7650 C   0  0  0  0  0  0  0  0  0  0  0  0
  1  2  1  0
  2  3  1  0
  3  4  1  0
  4  5  1  0
  5  6  1  1
  6  7  1  0
  8  7  1  1
  8  9  1  0
  9 10  1  0
 10 11  1  6
 11 12  2  0
 11 13  1  0
 13 14  1  0
 14 15  2  0
 15 16  1  0
 16 17  1  0
 17 18  2  0
 18 19  1  0
 19 20  1  0
 20 21  1  0
 20 22  1  0
 20 23  1  0
 19 24  2  0
 24 25  1  0
 25 26  1  0
 25 27  2  0
 10 28  1  0
  8  4  1  0
 27 14  1  0
 28  5  1  0
 27 17  1  0
M  END
>  <fragmenstein_outcome>  (550) 
nan

>  <exports>  (550) 
['/opt/xchem-fragalysis-2/maxwin/openbind-hippo/xx01zvns2b/cycle_01/syndirella/elabs/openbind_xx01zvns2b_c1_elab_chemspace_filtered.sdf']

>  <Energy>  (550) 
nan

>  <alias>  (550) 
None

>  <fragmenstein_runtime>  (550) 
nan

>  <scratch_subdir>  (550) 
nan

>  <HIPPO Compound ID>  (550) 
145354

>  <rmsd(smina/fragmenstein)>  (550) 
1.633

>  <distance_score>  (550) 
0.948067

>  <orig_smiles>  (550) 
nan

>  <fragmenstein_mode>  (550) 
nan

>  <inchikey>  (550) 
YJIOWLPEMZCYRH-XYYAHUGASA-N

>  <ref_pdb>  (550) 
Z0709a

>  <GNINA pK>  (550) 
nan

>  <gnina_score_min>  (550) 
5.643

>  <tags>  (550) 
openbind_xx01zvns2b_c1_elab_nonasap_filtered_scored_top80percent,openbind_xx01zvns2b_c1_elab_chemspace_filtered_scored_top80percent,openbind_xx01zvns2b_c1_elab_chemspace_filtered_scored,openbind_xx01zvns2b_c1_elab_chemspace_filtered_scored_top40percent,openbind_xx01zvns2b_c1_elab_chemspace_filtered_scored_top20percent,openbind_xx01zvns2b_c1_elab_chemspace_filtered_scored_top60percent,openbind_xx01zvns2b_c1_elabs_filtered

>  <smiles>  (550) 
CCCN1[C@@H]2CC[C@H]1C[C@H](C(=O)Nc1n[nH]c3nc(C(F)(F)F)cc(C)c13)C2

>  <subsites>  (550) 
1 - Z4590/B/203/1

>  <gnina_score>  (550) 
5.389

>  <HIPPO Pose ID>  (550) 
72400

>  <ref_mols>  (550) 
Z0827a,Z0709a

>  <energy_score>  (550) 
-50.401677

>  <inspiration_score>  (550) 
None

>  <smina_score_min>  (550) 
-5.852

>  <fragmenstein_error>  (550) 
nan

>  <name>  (550) 
P72400

$$$$
P72401
     RDKit          3D

 28 32  0  0  0  0  0  0  0  0999 V2000
   -6.0770    4.5967  -20.1581 C   0  0  0  0  0  0  0  0  0  0  0  0
   -6.1753    4.8280  -18.6900 C   0  0  0  0  0  0  0  0  0  0  0  0
   -7.4003    4.6620  -18.0173 C   0  0  0  0  0  0  0  0  0  0  0  0
   -7.4707    4.8092  -16.6261 C   0  0  0  0  0  0  0  0  0  0  0  0
   -8.7915    4.5808  -15.9190 C   0  0  0  0  0  0  0  0  0  0  0  0
   -8.6461    3.9428  -14.7267 F   0  0  0  0  0  0  0  0  0  0  0  0
   -9.4089    5.7571  -15.6102 F   0  0  0  0  0  0  0  0  0  0  0  0
   -9.6692    3.8479  -16.6561 F   0  0  0  0  0  0  0  0  0  0  0  0
   -6.4093    5.1611  -15.8498 N   0  0  0  0  0  0  0  0  0  0  0  0
   -5.2711    5.3081  -16.5392 C   0  0  0  0  0  0  0  0  0  0  0  0
   -4.0566    5.5877  -16.0006 N   0  0  0  0  0  0  0  0  0  0  0  0
   -3.0795    5.7136  -16.9073 N   0  0  0  0  0  0  0  0  0  0  0  0
   -3.6886    5.5223  -18.0790 C   0  0  0  0  0  0  0  0  0  0  0  0
   -3.0179    5.6967  -19.2593 N   0  0  0  0  0  0  0  0  0  0  0  0
   -1.5054    5.9326  -19.5358 C   0  0  0  0  0  0  0  0  0  0  0  0
   -0.5924    5.9367  -18.8038 O   0  0  0  0  0  0  0  0  0  0  0  0
   -1.3146    6.3034  -21.0190 C   0  0  1  0  0  0  0  0  0  0  0  0
   -1.8109    5.2710  -22.0492 C   0  0  0  0  0  0  0  0  0  0  0  0
   -2.5788    5.8451  -23.2533 C   0  0  1  0  0  0  0  0  0  0  0  0
   -4.0317    6.1519  -22.9017 C   0  0  0  0  0  0  0  0  0  0  0  0
   -4.0037    7.5634  -22.3232 C   0  0  0  0  0  0  0  0  0  0  0  0
   -2.5553    8.0265  -22.5159 C   0  0  1  0  0  0  0  0  0  0  0  0
   -1.7213    7.7730  -21.2562 C   0  0  0  0  0  0  0  0  0  0  0  0
   -2.1394    7.1837  -23.6369 N   0  0  0  0  0  0  0  0  0  0  0  0
   -0.7600    7.3186  -24.1012 C   0  0  0  0  0  0  0  0  0  0  0  0
   -0.4154    8.4506  -25.0298 C   0  0  0  0  0  0  0  0  0  0  0  0
   -0.4578    7.0439  -25.5492 C   0  0  0  0  0  0  0  0  0  0  0  0
   -5.0691    5.1967  -17.9038 C   0  0  0  0  0  0  0  0  0  0  0  0
  1  2  1  0
  2  3  2  0
  3  4  1  0
  4  5  1  0
  5  6  1  0
  5  7  1  0
  5  8  1  0
  4  9  2  0
  9 10  1  0
 10 11  1  0
 11 12  1  0
 12 13  2  0
 13 14  1  0
 14 15  1  0
 15 16  2  0
 17 15  1  1
 17 18  1  0
 19 18  1  1
 19 20  1  0
 20 21  1  0
 22 21  1  1
 22 23  1  0
 22 24  1  0
 24 25  1  0
 25 26  1  0
 26 27  1  0
 13 28  1  0
 28  2  1  0
 28 10  2  0
 23 17  1  0
 27 25  1  0
 24 19  1  0
M  END
>  <fragmenstein_outcome>  (551) 
nan

>  <exports>  (551) 
['/opt/xchem-fragalysis-2/maxwin/openbind-hippo/xx01zvns2b/cycle_01/syndirella/elabs/openbind_xx01zvns2b_c1_elab_chemspace_filtered.sdf']

>  <Energy>  (551) 
nan

>  <alias>  (551) 
None

>  <fragmenstein_runtime>  (551) 
nan

>  <scratch_subdir>  (551) 
nan

>  <HIPPO Compound ID>  (551) 
145355

>  <rmsd(smina/fragmenstein)>  (551) 
0.703

>  <distance_score>  (551) 
1.017972

>  <orig_smiles>  (551) 
nan

>  <fragmenstein_mode>  (551) 
nan

>  <inchikey>  (551) 
WJBUDHAHBVTGEN-LMKPVCQUSA-N

>  <ref_pdb>  (551) 
Z0709a

>  <GNINA pK>  (551) 
nan

>  <gnina_score_min>  (551) 
5.538

>  <tags>  (551) 
openbind_xx01zvns2b_c1_elab_nonasap_filtered_scored_top80percent,openbind_xx01zvns2b_c1_elab_chemspace_filtered_scored_top80percent,openbind_xx01zvns2b_c1_elab_chemspace_filtered_scored,openbind_xx01zvns2b_c1_elab_chemspace_filtered_scored_top40percent,openbind_xx01zvns2b_c1_elab_chemspace_filtered_scored_top20percent,openbind_xx01zvns2b_c1_elab_chemspace_filtered_scored_top60percent,openbind_xx01zvns2b_c1_elabs_filtered

>  <smiles>  (551) 
Cc1cc(C(F)(F)F)nc2[nH]nc(NC(=O)[C@H]3C[C@H]4CC[C@@H](C3)N4C3CC3)c12

>  <subsites>  (551) 
1 - Z4590/B/203/1

>  <gnina_score>  (551) 
5.484

>  <HIPPO Pose ID>  (551) 
72401

>  <ref_mols>  (551) 
Z0827a,Z0709a

>  <energy_score>  (551) 
-51.021936

>  <inspiration_score>  (551) 
None

>  <smina_score_min>  (551) 
-6.027

>  <fragmenstein_error>  (551) 
nan

>  <name>  (551) 
P72401

$$$$
P72404
     RDKit          3D

 29 32  0  0  0  0  0  0  0  0999 V2000
    1.0446    5.2192  -15.3451 C   0  0  0  0  0  0  0  0  0  0  0  0
    1.4389    5.8744  -16.6266 C   0  0  0  0  0  0  0  0  0  0  0  0
    0.5742    6.1899  -17.6038 C   0  0  0  0  0  0  0  0  0  0  0  0
    1.0519    6.8791  -18.8398 C   0  0  0  0  0  0  0  0  0  0  0  0
    2.1590    7.2549  -18.9639 O   0  0  0  0  0  0  0  0  0  0  0  0
   -0.1442    7.0322  -19.7579 N   0  0  0  0  0  0  0  0  0  0  0  0
   -0.2992    7.7944  -21.0499 C   0  0  1  0  0  0  0  0  0  0  0  0
    0.8650    7.4492  -21.9771 C   0  0  0  0  0  0  0  0  0  0  0  0
    0.9176    5.9720  -21.7380 C   0  0  0  0  0  0  0  0  0  0  0  0
   -0.2433    5.8607  -20.7447 C   0  0  2  0  0  0  0  0  0  0  0  0
   -1.5999    5.9588  -21.4564 C   0  0  1  0  0  0  0  0  0  0  0  0
   -2.8047    5.3872  -20.6979 C   0  0  0  0  0  0  0  0  0  0  0  0
   -3.5576    4.6677  -21.2263 O   0  0  0  0  0  0  0  0  0  0  0  0
   -2.8362    6.0076  -19.2786 N   0  0  0  0  0  0  0  0  0  0  0  0
   -3.7056    5.8064  -18.2374 C   0  0  0  0  0  0  0  0  0  0  0  0
   -3.1851    6.2253  -17.0730 N   0  0  0  0  0  0  0  0  0  0  0  0
   -4.1470    6.0090  -16.1772 N   0  0  0  0  0  0  0  0  0  0  0  0
   -5.2938    5.5298  -16.7085 C   0  0  0  0  0  0  0  0  0  0  0  0
   -6.4055    5.3235  -15.9895 N   0  0  0  0  0  0  0  0  0  0  0  0
   -7.4374    4.8213  -16.7087 C   0  0  0  0  0  0  0  0  0  0  0  0
   -8.7205    4.5194  -15.9598 C   0  0  0  0  0  0  0  0  0  0  0  0
   -8.4979    3.8214  -14.8129 F   0  0  0  0  0  0  0  0  0  0  0  0
   -9.3551    5.6596  -15.5569 F   0  0  0  0  0  0  0  0  0  0  0  0
   -9.6188    3.8030  -16.6885 F   0  0  0  0  0  0  0  0  0  0  0  0
   -7.3590    4.5873  -18.0799 C   0  0  0  0  0  0  0  0  0  0  0  0
   -6.1584    4.8214  -18.7938 C   0  0  0  0  0  0  0  0  0  0  0  0
   -6.1458    4.4933  -20.2482 C   0  0  0  0  0  0  0  0  0  0  0  0
   -5.0570    5.3298  -18.0668 C   0  0  0  0  0  0  0  0  0  0  0  0
   -1.6583    7.4489  -21.6447 C   0  0  0  0  0  0  0  0  0  0  0  0
  1  2  1  0
  2  3  2  0
  3  4  1  0
  4  5  2  0
  4  6  1  0
  6  7  1  0
  7  8  1  6
  8  9  1  0
 10  9  1  6
 10 11  1  0
 11 12  1  1
 12 13  2  0
 12 14  1  0
 14 15  1  0
 15 16  2  0
 16 17  1  0
 17 18  1  0
 18 19  2  0
 19 20  1  0
 20 21  1  0
 21 22  1  0
 21 23  1  0
 21 24  1  0
 20 25  2  0
 25 26  1  0
 26 27  1  0
 26 28  2  0
 11 29  1  0
 10  6  1  0
 28 15  1  0
 29  7  1  0
 28 18  1  0
M  END
>  <fragmenstein_outcome>  (552) 
nan

>  <exports>  (552) 
['/opt/xchem-fragalysis-2/maxwin/openbind-hippo/xx01zvns2b/cycle_01/syndirella/elabs/openbind_xx01zvns2b_c1_elab_chemspace_filtered.sdf']

>  <Energy>  (552) 
nan

>  <alias>  (552) 
None

>  <fragmenstein_runtime>  (552) 
nan

>  <scratch_subdir>  (552) 
nan

>  <HIPPO Compound ID>  (552) 
145357

>  <rmsd(smina/fragmenstein)>  (552) 
1.714

>  <distance_score>  (552) 
1.029612

>  <orig_smiles>  (552) 
nan

>  <fragmenstein_mode>  (552) 
nan

>  <inchikey>  (552) 
PAVABILVEILPQX-JJVHAXESSA-N

>  <ref_pdb>  (552) 
Z0709a

>  <GNINA pK>  (552) 
nan

>  <gnina_score_min>  (552) 
5.521

>  <tags>  (552) 
openbind_xx01zvns2b_c1_elab_nonasap_filtered_scored_top80percent,openbind_xx01zvns2b_c1_elab_chemspace_filtered_scored_top80percent,openbind_xx01zvns2b_c1_elab_chemspace_filtered_scored,openbind_xx01zvns2b_c1_elab_chemspace_filtered_scored_top40percent,openbind_xx01zvns2b_c1_elab_chemspace_filtered_scored_top20percent,openbind_xx01zvns2b_c1_elab_chemspace_filtered_scored_top60percent,openbind_xx01zvns2b_c1_elabs_filtered

>  <smiles>  (552) 
C/C=C/C(=O)N1[C@H]2CC[C@@H]1[C@@H](C(=O)Nc1n[nH]c3nc(C(F)(F)F)cc(C)c13)C2

>  <subsites>  (552) 
1 - Z4590/B/203/1

>  <gnina_score>  (552) 
5.579

>  <HIPPO Pose ID>  (552) 
72404

>  <ref_mols>  (552) 
Z0827a,Z0709a

>  <energy_score>  (552) 
-33.872273

>  <inspiration_score>  (552) 
None

>  <smina_score_min>  (552) 
-6.273

>  <fragmenstein_error>  (552) 
nan

>  <name>  (552) 
P72404

$$$$
P72414
     RDKit          3D

 32 36  0  0  0  0  0  0  0  0999 V2000
   -6.1016    4.5487  -20.1863 C   0  0  0  0  0  0  0  0  0  0  0  0
   -6.1686    4.8920  -18.7357 C   0  0  0  0  0  0  0  0  0  0  0  0
   -7.3652    4.5933  -18.0415 C   0  0  0  0  0  0  0  0  0  0  0  0
   -7.4854    4.8482  -16.6766 C   0  0  0  0  0  0  0  0  0  0  0  0
   -8.7562    4.4870  -15.9402 C   0  0  0  0  0  0  0  0  0  0  0  0
   -9.6425    3.7821  -16.6930 F   0  0  0  0  0  0  0  0  0  0  0  0
   -9.4106    5.5958  -15.4845 F   0  0  0  0  0  0  0  0  0  0  0  0
   -8.5060    3.7477  -14.8261 F   0  0  0  0  0  0  0  0  0  0  0  0
   -6.5026    5.4218  -15.9430 N   0  0  0  0  0  0  0  0  0  0  0  0
   -5.3942    5.6877  -16.6430 C   0  0  0  0  0  0  0  0  0  0  0  0
   -4.2938    6.2500  -16.0965 N   0  0  0  0  0  0  0  0  0  0  0  0
   -3.3385    6.5307  -16.9796 N   0  0  0  0  0  0  0  0  0  0  0  0
   -3.8027    6.0430  -18.1407 C   0  0  0  0  0  0  0  0  0  0  0  0
   -2.9195    6.2601  -19.1600 N   0  0  0  0  0  0  0  0  0  0  0  0
   -2.7854    5.5685  -20.5406 C   0  0  0  0  0  0  0  0  0  0  0  0
   -3.4563    4.7602  -21.0504 O   0  0  0  0  0  0  0  0  0  0  0  0
   -1.5465    6.1476  -21.2397 C   0  0  2  0  0  0  0  0  0  0  0  0
   -0.2352    5.9262  -20.4464 C   0  0  0  0  0  0  0  0  0  0  0  0
    0.9159    6.8164  -20.9508 C   0  0  1  0  0  0  0  0  0  0  0  0
    1.1746    6.6040  -22.4441 C   0  0  0  0  0  0  0  0  0  0  0  0
    0.2701    7.6158  -23.1443 C   0  0  0  0  0  0  0  0  0  0  0  0
   -0.4574    8.3419  -22.0094 C   0  0  1  0  0  0  0  0  0  0  0  0
   -1.7712    7.6235  -21.6419 C   0  0  0  0  0  0  0  0  0  0  0  0
    0.3979    8.1814  -20.8326 N   0  0  0  0  0  0  0  0  0  0  0  0
    1.3611    9.2444  -20.5487 C   0  0  0  0  0  0  0  0  0  0  0  0
    2.4538    9.5358  -21.5494 C   0  0  0  0  0  0  0  0  0  0  0  0
    2.2605   10.4862  -22.5632 C   0  0  0  0  0  0  0  0  0  0  0  0
    3.2756   10.7652  -23.4801 C   0  0  0  0  0  0  0  0  0  0  0  0
    4.4982   10.1034  -23.3900 C   0  0  0  0  0  0  0  0  0  0  0  0
    4.7088    9.1659  -22.3813 C   0  0  0  0  0  0  0  0  0  0  0  0
    3.6945    8.8864  -21.4639 C   0  0  0  0  0  0  0  0  0  0  0  0
   -5.1198    5.4816  -17.9922 C   0  0  0  0  0  0  0  0  0  0  0  0
  1  2  1  0
  2  3  2  0
  3  4  1  0
  4  5  1  0
  5  6  1  0
  5  7  1  0
  5  8  1  0
  4  9  2  0
  9 10  1  0
 10 11  1  0
 11 12  1  0
 12 13  2  0
 13 14  1  0
 14 15  1  0
 15 16  2  0
 17 15  1  1
 17 18  1  0
 19 18  1  6
 19 20  1  0
 20 21  1  0
 22 21  1  6
 22 23  1  0
 22 24  1  0
 24 25  1  0
 25 26  1  0
 26 27  2  0
 27 28  1  0
 28 29  2  0
 29 30  1  0
 30 31  2  0
 13 32  1  0
 32  2  1  0
 32 10  2  0
 23 17  1  0
 31 26  1  0
 24 19  1  0
M  END
>  <fragmenstein_outcome>  (553) 
nan

>  <exports>  (553) 
['/opt/xchem-fragalysis-2/maxwin/openbind-hippo/xx01zvns2b/cycle_01/syndirella/elabs/openbind_xx01zvns2b_c1_elab_chemspace_filtered.sdf']

>  <Energy>  (553) 
nan

>  <alias>  (553) 
None

>  <fragmenstein_runtime>  (553) 
nan

>  <scratch_subdir>  (553) 
nan

>  <HIPPO Compound ID>  (553) 
145363

>  <rmsd(smina/fragmenstein)>  (553) 
2.906

>  <distance_score>  (553) 
1.068596

>  <orig_smiles>  (553) 
nan

>  <fragmenstein_mode>  (553) 
nan

>  <inchikey>  (553) 
QQCFMOUZUGGWOW-OSYLJGHBSA-N

>  <ref_pdb>  (553) 
Z0709a

>  <GNINA pK>  (553) 
nan

>  <gnina_score_min>  (553) 
5.699

>  <tags>  (553) 
openbind_xx01zvns2b_c1_elab_nonasap_filtered_scored_top80percent,openbind_xx01zvns2b_c1_elab_chemspace_filtered_scored_top80percent,openbind_xx01zvns2b_c1_elab_chemspace_filtered_scored,openbind_xx01zvns2b_c1_elab_chemspace_filtered_scored_top40percent,openbind_xx01zvns2b_c1_elab_chemspace_filtered_scored_top20percent,openbind_xx01zvns2b_c1_elab_chemspace_filtered_scored_top60percent,openbind_xx01zvns2b_c1_elabs_filtered

>  <smiles>  (553) 
Cc1cc(C(F)(F)F)nc2[nH]nc(NC(=O)[C@@H]3C[C@H]4CC[C@@H](C3)N4Cc3ccccc3)c12

>  <subsites>  (553) 
1 - Z4590/B/203/1

>  <gnina_score>  (553) 
5.449

>  <HIPPO Pose ID>  (553) 
72414

>  <ref_mols>  (553) 
Z0827a,Z0709a

>  <energy_score>  (553) 
-47.874674

>  <inspiration_score>  (553) 
None

>  <smina_score_min>  (553) 
-5.371

>  <fragmenstein_error>  (553) 
nan

>  <name>  (553) 
P72414

$$$$
P72415
     RDKit          3D

 32 35  0  0  0  0  0  0  0  0999 V2000
   -6.2229    4.4006  -20.2395 C   0  0  0  0  0  0  0  0  0  0  0  0
   -6.2047    4.7310  -18.7862 C   0  0  0  0  0  0  0  0  0  0  0  0
   -7.4284    4.6523  -18.0816 C   0  0  0  0  0  0  0  0  0  0  0  0
   -7.4716    4.8390  -16.7011 C   0  0  0  0  0  0  0  0  0  0  0  0
   -8.7732    4.6171  -15.9552 C   0  0  0  0  0  0  0  0  0  0  0  0
   -8.5956    3.9572  -14.7774 F   0  0  0  0  0  0  0  0  0  0  0  0
   -9.6825    3.9009  -16.6700 F   0  0  0  0  0  0  0  0  0  0  0  0
   -9.3709    5.7924  -15.6048 F   0  0  0  0  0  0  0  0  0  0  0  0
   -6.3856    5.1902  -15.9705 N   0  0  0  0  0  0  0  0  0  0  0  0
   -5.2510    5.2419  -16.6823 C   0  0  0  0  0  0  0  0  0  0  0  0
   -4.0352    5.4587  -16.1310 N   0  0  0  0  0  0  0  0  0  0  0  0
   -3.0301    5.4292  -17.0068 N   0  0  0  0  0  0  0  0  0  0  0  0
   -3.6237    5.2356  -18.1956 C   0  0  0  0  0  0  0  0  0  0  0  0
   -2.7186    5.2743  -19.2229 N   0  0  0  0  0  0  0  0  0  0  0  0
   -2.9361    5.3395  -20.7520 C   0  0  0  0  0  0  0  0  0  0  0  0
   -3.9221    5.2927  -21.3806 O   0  0  0  0  0  0  0  0  0  0  0  0
   -1.5682    5.5115  -21.4770 C   0  0  1  0  0  0  0  0  0  0  0  0
   -1.5480    6.5238  -22.6539 C   0  0  0  0  0  0  0  0  0  0  0  0
   -0.7642    7.5386  -21.7646 C   0  0  1  0  0  0  0  0  0  0  0  0
    0.3044    8.2538  -22.5720 C   0  0  0  0  0  0  0  0  0  0  0  0
    0.4658    9.5131  -21.7979 C   0  0  0  0  0  0  0  0  0  0  0  0
   -0.4119    9.1942  -20.6180 C   0  0  0  0  0  0  0  0  0  0  0  0
   -1.7780    8.5732  -21.0528 N   0  0  0  0  0  0  0  0  0  0  0  0
   -2.6880    9.6143  -21.6413 C   0  0  0  0  0  0  0  0  0  0  0  0
   -2.8150    9.9721  -22.7530 O   0  0  0  0  0  0  0  0  0  0  0  0
   -3.3827   10.2633  -20.6551 O   0  0  0  0  0  0  0  0  0  0  0  0
   -4.1231    9.5844  -19.6046 C   0  0  0  0  0  0  0  0  0  0  0  0
   -5.0712   10.6618  -19.0501 C   0  0  0  0  0  0  0  0  0  0  0  0
   -3.2193    9.1123  -18.4633 C   0  0  0  0  0  0  0  0  0  0  0  0
   -4.9744    8.4515  -20.1773 C   0  0  0  0  0  0  0  0  0  0  0  0
   -0.3881    6.3093  -20.8717 C   0  0  0  0  0  0  0  0  0  0  0  0
   -5.0451    5.0551  -18.0465 C   0  0  0  0  0  0  0  0  0  0  0  0
  1  2  1  0
  2  3  2  0
  3  4  1  0
  4  5  1  0
  5  6  1  0
  5  7  1  0
  5  8  1  0
  4  9  2  0
  9 10  1  0
 10 11  1  0
 11 12  1  0
 12 13  2  0
 13 14  1  0
 14 15  1  0
 15 16  2  0
 17 15  1  1
 17 18  1  0
 19 18  1  6
 19 20  1  0
 20 21  1  0
 21 22  1  0
 22 23  1  0
 23 24  1  0
 24 25  2  0
 24 26  1  0
 26 27  1  0
 27 28  1  0
 27 29  1  0
 27 30  1  0
 19 31  1  0
 13 32  1  0
 32  2  1  0
 32 10  2  0
 31 17  1  0
 19 23  1  0
M  END
>  <fragmenstein_outcome>  (554) 
nan

>  <exports>  (554) 
['/opt/xchem-fragalysis-2/maxwin/openbind-hippo/xx01zvns2b/cycle_01/syndirella/elabs/openbind_xx01zvns2b_c1_elab_chemspace_filtered.sdf']

>  <Energy>  (554) 
nan

>  <alias>  (554) 
None

>  <fragmenstein_runtime>  (554) 
nan

>  <scratch_subdir>  (554) 
nan

>  <HIPPO Compound ID>  (554) 
145364

>  <rmsd(smina/fragmenstein)>  (554) 
0.708

>  <distance_score>  (554) 
0.986628

>  <orig_smiles>  (554) 
nan

>  <fragmenstein_mode>  (554) 
nan

>  <inchikey>  (554) 
YIBYPNCIKVSVMP-KWUMSVIQSA-N

>  <ref_pdb>  (554) 
Z0709a

>  <GNINA pK>  (554) 
nan

>  <gnina_score_min>  (554) 
5.609

>  <tags>  (554) 
openbind_xx01zvns2b_c1_elab_nonasap_filtered_scored_top80percent,openbind_xx01zvns2b_c1_elab_chemspace_filtered_scored_top80percent,openbind_xx01zvns2b_c1_elab_chemspace_filtered_scored,openbind_xx01zvns2b_c1_elab_chemspace_filtered_scored_top40percent,openbind_xx01zvns2b_c1_elab_chemspace_filtered_scored_top20percent,openbind_xx01zvns2b_c1_elab_chemspace_filtered_scored_top60percent,openbind_xx01zvns2b_c1_elabs_filtered

>  <smiles>  (554) 
Cc1cc(C(F)(F)F)nc2[nH]nc(NC(=O)[C@H]3C[C@]4(CCCN4C(=O)OC(C)(C)C)C3)c12

>  <subsites>  (554) 
1 - Z4590/B/203/1

>  <gnina_score>  (554) 
5.81

>  <HIPPO Pose ID>  (554) 
72415

>  <ref_mols>  (554) 
Z0827a,Z0709a

>  <energy_score>  (554) 
-1.294652

>  <inspiration_score>  (554) 
None

>  <smina_score_min>  (554) 
-5.899

>  <fragmenstein_error>  (554) 
nan

>  <name>  (554) 
P72415

$$$$
P72419
     RDKit          3D

 25 28  0  0  0  0  0  0  0  0999 V2000
   -0.9829    7.3707  -15.1579 C   0  0  0  0  0  0  0  0  0  0  0  0
   -1.9655    6.5775  -14.3529 C   0  0  0  0  0  0  0  0  0  0  0  0
   -1.8578    6.5021  -12.9737 C   0  0  0  0  0  0  0  0  0  0  0  0
   -3.0046    5.4719  -12.2634 S   0  0  0  0  0  0  0  0  0  0  0  0
   -3.7025    5.1274  -13.7790 C   0  0  0  0  0  0  0  0  0  0  0  0
   -4.9380    4.3651  -13.7783 C   0  0  0  0  0  0  0  0  0  0  0  0
   -4.9585    3.2065  -13.8791 O   0  0  0  0  0  0  0  0  0  0  0  0
   -6.0879    5.3800  -13.7287 N   0  0  0  0  0  0  0  0  0  0  0  0
   -7.5032    5.1950  -13.8879 C   0  0  0  0  0  0  0  0  0  0  0  0
   -7.7794    5.2606  -15.3782 C   0  0  0  0  0  0  0  0  0  0  0  0
   -6.9405    6.0487  -16.2098 C   0  0  0  0  0  0  0  0  0  0  0  0
   -6.9322    5.9001  -17.5837 C   0  0  0  0  0  0  0  0  0  0  0  0
   -7.7820    4.9676  -18.0855 C   0  0  0  0  0  0  0  0  0  0  0  0
   -8.7915    4.3809  -17.3371 C   0  0  0  0  0  0  0  0  0  0  0  0
   -8.7900    4.4941  -15.9636 C   0  0  0  0  0  0  0  0  0  0  0  0
   -9.6923    3.6646  -18.2626 C   0  0  0  0  0  0  0  0  0  0  0  0
   -8.9876    3.7485  -19.5127 N   0  0  0  0  0  0  0  0  0  0  0  0
   -7.7649    4.3421  -19.3877 C   0  0  0  0  0  0  0  0  0  0  0  0
   -6.8085    4.2469  -20.1290 O   0  0  0  0  0  0  0  0  0  0  0  0
   -3.0561    5.7566  -14.8433 C   0  0  0  0  0  0  0  0  0  0  0  0
   -3.4087    5.6135  -16.2449 N   0  0  0  0  0  0  0  0  0  0  0  0
   -4.0533    4.5436  -16.8128 C   0  0  0  0  0  0  0  0  0  0  0  0
   -4.1729    4.7299  -18.1721 C   0  0  0  0  0  0  0  0  0  0  0  0
   -3.6114    5.9761  -18.4741 C   0  0  0  0  0  0  0  0  0  0  0  0
   -3.1600    6.4993  -17.2826 C   0  0  0  0  0  0  0  0  0  0  0  0
  1  2  1  0
  2  3  2  0
  3  4  1  0
  4  5  1  0
  5  6  1  0
  6  7  2  0
  6  8  1  0
  8  9  1  0
  9 10  1  0
 10 11  2  0
 11 12  1  0
 12 13  2  0
 13 14  1  0
 14 15  2  0
 14 16  1  0
 16 17  1  0
 17 18  1  0
 18 19  2  0
  5 20  2  0
 20 21  1  0
 21 22  1  0
 22 23  2  0
 23 24  1  0
 24 25  2  0
 20  2  1  0
 25 21  1  0
 15 10  1  0
 18 13  1  0
M  END
>  <fragmenstein_outcome>  (555) 
nan

>  <exports>  (555) 
['/opt/xchem-fragalysis-2/maxwin/openbind-hippo/xx01zvns2b/cycle_01/syndirella/elabs/openbind_xx01zvns2b_c1_elab_chemspace_filtered.sdf']

>  <Energy>  (555) 
nan

>  <alias>  (555) 
None

>  <fragmenstein_runtime>  (555) 
nan

>  <scratch_subdir>  (555) 
nan

>  <HIPPO Compound ID>  (555) 
145415

>  <rmsd(smina/fragmenstein)>  (555) 
3.229

>  <distance_score>  (555) 
1.988866

>  <orig_smiles>  (555) 
nan

>  <fragmenstein_mode>  (555) 
nan

>  <inchikey>  (555) 
LMBWVKHGOVOLJL-UHFFFAOYSA-N

>  <ref_pdb>  (555) 
Z0727a

>  <GNINA pK>  (555) 
nan

>  <gnina_score_min>  (555) 
5.248

>  <tags>  (555) 
openbind_xx01zvns2b_c1_elab_nonasap_filtered_scored_top80percent,openbind_xx01zvns2b_c1_elab_chemspace_filtered_scored_top80percent,openbind_xx01zvns2b_c1_elab_chemspace_filtered_scored,openbind_xx01zvns2b_c1_elab_chemspace_filtered_scored_top40percent,openbind_xx01zvns2b_c1_elab_chemspace_filtered_scored_top20percent,openbind_xx01zvns2b_c1_elab_chemspace_filtered_scored_top60percent,openbind_xx01zvns2b_c1_elabs_filtered

>  <smiles>  (555) 
Cc1csc(C(=O)NCc2ccc3c(c2)CNC3=O)c1-n1cccc1

>  <subsites>  (555) 
1 - Z4590/B/203/1

>  <gnina_score>  (555) 
5.364

>  <HIPPO Pose ID>  (555) 
72419

>  <ref_mols>  (555) 
Z0719a,Z0727a

>  <energy_score>  (555) 
-6.269972

>  <inspiration_score>  (555) 
None

>  <smina_score_min>  (555) 
-6.82

>  <fragmenstein_error>  (555) 
nan

>  <name>  (555) 
P72419

$$$$
P72430
     RDKit          3D

 24 26  0  0  0  0  0  0  0  0999 V2000
   -4.6806    7.6813  -11.7433 C   0  0  0  0  0  0  0  0  0  0  0  0
   -4.3881    6.4264  -10.9172 C   0  0  0  0  0  0  0  0  0  0  0  0
   -4.8926    6.5451   -9.5596 O   0  0  0  0  0  0  0  0  0  0  0  0
   -5.7055    5.5872   -9.0127 C   0  0  0  0  0  0  0  0  0  0  0  0
   -5.5988    5.2006   -7.8605 O   0  0  0  0  0  0  0  0  0  0  0  0
   -6.7800    5.1318   -9.9070 C   0  0  0  0  0  0  0  0  0  0  0  0
   -6.9166    3.7932  -10.2625 C   0  0  0  0  0  0  0  0  0  0  0  0
   -7.5956    3.3864  -11.3711 N   0  0  0  0  0  0  0  0  0  0  0  0
   -8.1680    4.3505  -12.1093 C   0  0  0  0  0  0  0  0  0  0  0  0
   -8.5927    4.0716  -13.4367 N   0  0  0  0  0  0  0  0  0  0  0  0
   -7.4010    4.0503  -14.3341 C   0  0  0  0  0  0  0  0  0  0  0  0
   -7.6992    4.4214  -15.8142 C   0  0  0  0  0  0  0  0  0  0  0  0
   -6.3296    4.7770  -16.6776 C   0  0  0  0  0  0  0  0  0  0  0  0
   -5.1417    5.2621  -16.1059 C   0  0  0  0  0  0  0  0  0  0  0  0
   -4.0487    5.5776  -16.9074 C   0  0  0  0  0  0  0  0  0  0  0  0
   -4.0336    5.4703  -18.2490 N   0  0  0  0  0  0  0  0  0  0  0  0
   -5.1689    5.0286  -18.8156 C   0  0  0  0  0  0  0  0  0  0  0  0
   -6.2948    4.6737  -18.0882 C   0  0  0  0  0  0  0  0  0  0  0  0
   -8.7867    3.6112  -16.5948 C   0  0  0  0  0  0  0  0  0  0  0  0
   -9.3734    4.9018  -17.0925 C   0  0  0  0  0  0  0  0  0  0  0  0
   -8.7453    5.5509  -15.8341 C   0  0  0  0  0  0  0  0  0  0  0  0
   -8.1879    5.6944  -11.7054 C   0  0  0  0  0  0  0  0  0  0  0  0
   -8.7645    6.6498  -12.4953 O   0  0  0  0  0  0  0  0  0  0  0  0
   -7.5307    6.0901  -10.5678 C   0  0  0  0  0  0  0  0  0  0  0  0
  1  2  1  0
  2  3  1  0
  3  4  1  0
  4  5  2  0
  4  6  1  0
  6  7  2  0
  7  8  1  0
  8  9  2  0
  9 10  1  0
 10 11  1  0
 11 12  1  0
 12 13  1  0
 13 14  2  0
 14 15  1  0
 15 16  2  0
 16 17  1  0
 17 18  2  0
 12 19  1  0
 19 20  1  0
 20 21  1  0
  9 22  1  0
 22 23  1  0
 22 24  2  0
 24  6  1  0
 21 12  1  0
 18 13  1  0
M  END
>  <fragmenstein_outcome>  (556) 
nan

>  <exports>  (556) 
['/opt/xchem-fragalysis-2/maxwin/openbind-hippo/xx01zvns2b/cycle_01/syndirella/elabs/openbind_xx01zvns2b_c1_elab_chemspace_filtered.sdf']

>  <Energy>  (556) 
nan

>  <alias>  (556) 
None

>  <fragmenstein_runtime>  (556) 
nan

>  <scratch_subdir>  (556) 
nan

>  <HIPPO Compound ID>  (556) 
145681

>  <rmsd(smina/fragmenstein)>  (556) 
1.285

>  <distance_score>  (556) 
1.888809

>  <orig_smiles>  (556) 
nan

>  <fragmenstein_mode>  (556) 
nan

>  <inchikey>  (556) 
DONAAMKFPAGUAM-UHFFFAOYSA-N

>  <ref_pdb>  (556) 
Z1716a

>  <GNINA pK>  (556) 
nan

>  <gnina_score_min>  (556) 
5.506

>  <tags>  (556) 
openbind_xx01zvns2b_c1_elab_nonasap_filtered_scored_top80percent,openbind_xx01zvns2b_c1_elab_chemspace_filtered_scored_top80percent,openbind_xx01zvns2b_c1_elab_chemspace_filtered_scored,openbind_xx01zvns2b_c1_elab_chemspace_filtered_scored_top40percent,openbind_xx01zvns2b_c1_elab_chemspace_filtered_scored_top20percent,openbind_xx01zvns2b_c1_elab_chemspace_filtered_scored_top60percent,openbind_xx01zvns2b_c1_elabs_filtered

>  <smiles>  (556) 
CCOC(=O)c1cnc(NCC2(c3ccncc3)CCC2)c(O)c1

>  <subsites>  (556) 
1 - Z4590/B/203/1

>  <gnina_score>  (556) 
5.518

>  <HIPPO Pose ID>  (556) 
72430

>  <ref_mols>  (556) 
Z1342a,Z1716a

>  <energy_score>  (556) 
-27.099927

>  <inspiration_score>  (556) 
None

>  <smina_score_min>  (556) 
-4.314

>  <fragmenstein_error>  (556) 
nan

>  <name>  (556) 
P72430

$$$$
P72431
     RDKit          3D

 24 26  0  0  0  0  0  0  0  0999 V2000
   -4.2499    8.3598  -11.9464 C   0  0  0  0  0  0  0  0  0  0  0  0
   -4.1081    7.6176  -10.6162 C   0  0  0  0  0  0  0  0  0  0  0  0
   -4.9733    6.4807  -10.6919 O   0  0  0  0  0  0  0  0  0  0  0  0
   -5.6119    6.0716   -9.5625 C   0  0  0  0  0  0  0  0  0  0  0  0
   -5.3383    6.3202   -8.4078 O   0  0  0  0  0  0  0  0  0  0  0  0
   -6.7722    5.3367  -10.0912 C   0  0  0  0  0  0  0  0  0  0  0  0
   -7.7354    6.1317  -10.7023 C   0  0  0  0  0  0  0  0  0  0  0  0
   -8.4167    5.6044  -11.7785 C   0  0  0  0  0  0  0  0  0  0  0  0
   -8.1757    4.2882  -12.1541 C   0  0  0  0  0  0  0  0  0  0  0  0
   -8.5344    3.9301  -13.4671 N   0  0  0  0  0  0  0  0  0  0  0  0
   -7.3465    4.0166  -14.3506 C   0  0  0  0  0  0  0  0  0  0  0  0
   -7.6728    4.4243  -15.8104 C   0  0  0  0  0  0  0  0  0  0  0  0
   -6.3214    4.7979  -16.6874 C   0  0  0  0  0  0  0  0  0  0  0  0
   -5.1306    5.2835  -16.1225 C   0  0  0  0  0  0  0  0  0  0  0  0
   -4.0460    5.6068  -16.9314 C   0  0  0  0  0  0  0  0  0  0  0  0
   -4.0419    5.5072  -18.2742 N   0  0  0  0  0  0  0  0  0  0  0  0
   -5.1806    5.0624  -18.8327 C   0  0  0  0  0  0  0  0  0  0  0  0
   -6.3000    4.7019  -18.0981 C   0  0  0  0  0  0  0  0  0  0  0  0
   -8.7678    3.6182  -16.5837 C   0  0  0  0  0  0  0  0  0  0  0  0
   -9.3783    4.9123  -17.0363 C   0  0  0  0  0  0  0  0  0  0  0  0
   -8.7269    5.5512  -15.7796 C   0  0  0  0  0  0  0  0  0  0  0  0
   -7.4039    3.4505  -11.4369 N   0  0  0  0  0  0  0  0  0  0  0  0
   -6.7015    3.9798  -10.3998 C   0  0  0  0  0  0  0  0  0  0  0  0
   -5.6983    3.0800   -9.7463 C   0  0  0  0  0  0  0  0  0  0  0  0
  1  2  1  0
  2  3  1  0
  3  4  1  0
  4  5  2  0
  4  6  1  0
  6  7  2  0
  7  8  1  0
  8  9  2  0
  9 10  1  0
 10 11  1  0
 11 12  1  0
 12 13  1  0
 13 14  2  0
 14 15  1  0
 15 16  2  0
 16 17  1  0
 17 18  2  0
 12 19  1  0
 19 20  1  0
 20 21  1  0
  9 22  1  0
 22 23  2  0
 23 24  1  0
 23  6  1  0
 21 12  1  0
 18 13  1  0
M  END
>  <fragmenstein_outcome>  (557) 
nan

>  <exports>  (557) 
['/opt/xchem-fragalysis-2/maxwin/openbind-hippo/xx01zvns2b/cycle_01/syndirella/elabs/openbind_xx01zvns2b_c1_elab_chemspace_filtered.sdf']

>  <Energy>  (557) 
nan

>  <alias>  (557) 
None

>  <fragmenstein_runtime>  (557) 
nan

>  <scratch_subdir>  (557) 
nan

>  <HIPPO Compound ID>  (557) 
145682

>  <rmsd(smina/fragmenstein)>  (557) 
2.79

>  <distance_score>  (557) 
1.713675

>  <orig_smiles>  (557) 
nan

>  <fragmenstein_mode>  (557) 
nan

>  <inchikey>  (557) 
BCECJXPSZMUPEG-UHFFFAOYSA-N

>  <ref_pdb>  (557) 
Z1716a

>  <GNINA pK>  (557) 
nan

>  <gnina_score_min>  (557) 
5.403

>  <tags>  (557) 
openbind_xx01zvns2b_c1_elab_nonasap_filtered_scored_top80percent,openbind_xx01zvns2b_c1_elab_chemspace_filtered_scored_top80percent,openbind_xx01zvns2b_c1_elab_chemspace_filtered_scored,openbind_xx01zvns2b_c1_elab_chemspace_filtered_scored_top40percent,openbind_xx01zvns2b_c1_elab_chemspace_filtered_scored_top20percent,openbind_xx01zvns2b_c1_elab_chemspace_filtered_scored_top60percent,openbind_xx01zvns2b_c1_elabs_filtered

>  <smiles>  (557) 
CCOC(=O)c1ccc(NCC2(c3ccncc3)CCC2)nc1C

>  <subsites>  (557) 
1 - Z4590/B/203/1

>  <gnina_score>  (557) 
5.564

>  <HIPPO Pose ID>  (557) 
72431

>  <ref_mols>  (557) 
Z1342a,Z1716a

>  <energy_score>  (557) 
-38.144503

>  <inspiration_score>  (557) 
None

>  <smina_score_min>  (557) 
-5.389

>  <fragmenstein_error>  (557) 
nan

>  <name>  (557) 
P72431

$$$$
P72432
     RDKit          3D

 24 26  0  0  0  0  0  0  0  0999 V2000
   -9.2877    3.0723   -5.7579 C   0  0  0  0  0  0  0  0  0  0  0  0
   -9.1005    3.0905   -7.1705 O   0  0  0  0  0  0  0  0  0  0  0  0
   -8.3142    4.0988   -7.6144 C   0  0  0  0  0  0  0  0  0  0  0  0
   -7.8126    4.9778   -6.9284 O   0  0  0  0  0  0  0  0  0  0  0  0
   -8.2181    4.0607   -9.0880 C   0  0  0  0  0  0  0  0  0  0  0  0
   -7.7126    5.1632   -9.7737 C   0  0  0  0  0  0  0  0  0  0  0  0
   -7.7110    5.1633  -11.1682 C   0  0  0  0  0  0  0  0  0  0  0  0
   -8.2184    4.0626  -11.8418 C   0  0  0  0  0  0  0  0  0  0  0  0
   -8.3821    4.0546  -13.2227 N   0  0  0  0  0  0  0  0  0  0  0  0
   -7.1492    3.8625  -14.0051 C   0  0  0  0  0  0  0  0  0  0  0  0
   -6.7800    5.1044  -14.8932 C   0  0  0  0  0  0  0  0  0  0  0  0
   -5.8303    6.0437  -14.1046 C   0  0  0  0  0  0  0  0  0  0  0  0
   -5.9840    7.4262  -14.0790 C   0  0  0  0  0  0  0  0  0  0  0  0
   -4.9711    8.1845  -13.5272 C   0  0  0  0  0  0  0  0  0  0  0  0
   -3.8531    7.6815  -12.9662 N   0  0  0  0  0  0  0  0  0  0  0  0
   -3.7260    6.3488  -12.9567 C   0  0  0  0  0  0  0  0  0  0  0  0
   -4.6611    5.5089  -13.5185 C   0  0  0  0  0  0  0  0  0  0  0  0
   -5.9358    4.7093  -16.1592 C   0  0  0  0  0  0  0  0  0  0  0  0
   -6.5786    4.9295  -17.5366 C   0  0  0  0  0  0  0  0  0  0  0  0
   -8.0334    4.5046  -17.6587 C   0  0  0  0  0  0  0  0  0  0  0  0
   -8.8299    4.7254  -16.3823 C   0  0  0  0  0  0  0  0  0  0  0  0
   -8.1103    5.6923  -15.4248 C   0  0  0  0  0  0  0  0  0  0  0  0
   -8.6710    2.9749  -11.2009 N   0  0  0  0  0  0  0  0  0  0  0  0
   -8.6621    2.9886   -9.8432 C   0  0  0  0  0  0  0  0  0  0  0  0
  1  2  1  0
  2  3  1  0
  3  4  2  0
  3  5  1  0
  5  6  2  0
  6  7  1  0
  7  8  2  0
  8  9  1  0
  9 10  1  0
 10 11  1  0
 11 12  1  0
 12 13  2  0
 13 14  1  0
 14 15  2  0
 15 16  1  0
 16 17  2  0
 11 18  1  0
 18 19  1  0
 19 20  1  0
 20 21  1  0
 21 22  1  0
  8 23  1  0
 23 24  2  0
 24  5  1  0
 22 11  1  0
 17 12  1  0
M  END
>  <fragmenstein_outcome>  (558) 
nan

>  <exports>  (558) 
['/opt/xchem-fragalysis-2/maxwin/openbind-hippo/xx01zvns2b/cycle_01/syndirella/elabs/openbind_xx01zvns2b_c1_elab_chemspace_filtered.sdf']

>  <Energy>  (558) 
nan

>  <alias>  (558) 
None

>  <fragmenstein_runtime>  (558) 
nan

>  <scratch_subdir>  (558) 
nan

>  <HIPPO Compound ID>  (558) 
145690

>  <rmsd(smina/fragmenstein)>  (558) 
0.477

>  <distance_score>  (558) 
1.675873

>  <orig_smiles>  (558) 
nan

>  <fragmenstein_mode>  (558) 
nan

>  <inchikey>  (558) 
XSKZETDLZLPFKL-UHFFFAOYSA-N

>  <ref_pdb>  (558) 
Z1716a

>  <GNINA pK>  (558) 
nan

>  <gnina_score_min>  (558) 
5.284

>  <tags>  (558) 
openbind_xx01zvns2b_c1_elab_nonasap_filtered_scored_top80percent,openbind_xx01zvns2b_c1_elab_chemspace_filtered_scored_top80percent,openbind_xx01zvns2b_c1_elab_chemspace_filtered_scored,openbind_xx01zvns2b_c1_elab_chemspace_filtered_scored_top40percent,openbind_xx01zvns2b_c1_elab_chemspace_filtered_scored_top20percent,openbind_xx01zvns2b_c1_elab_chemspace_filtered_scored_top60percent,openbind_xx01zvns2b_c1_elabs_filtered

>  <smiles>  (558) 
COC(=O)c1ccc(NCC2(c3ccncc3)CCCCC2)nc1

>  <subsites>  (558) 
1 - Z4590/B/203/1

>  <gnina_score>  (558) 
5.398

>  <HIPPO Pose ID>  (558) 
72432

>  <ref_mols>  (558) 
Z1342a,Z1716a

>  <energy_score>  (558) 
-14.772718

>  <inspiration_score>  (558) 
None

>  <smina_score_min>  (558) 
-5.625

>  <fragmenstein_error>  (558) 
nan

>  <name>  (558) 
P72432

$$$$
P72435
     RDKit          3D

 25 27  0  0  0  0  0  0  0  0999 V2000
   -9.4698    2.3780   -7.1981 C   0  0  0  0  0  0  0  0  0  0  0  0
   -8.4684    3.3037   -6.7441 O   0  0  0  0  0  0  0  0  0  0  0  0
   -7.7852    4.1687   -7.5279 C   0  0  0  0  0  0  0  0  0  0  0  0
   -7.0895    5.0543   -7.0347 O   0  0  0  0  0  0  0  0  0  0  0  0
   -7.9289    4.1314   -8.9966 C   0  0  0  0  0  0  0  0  0  0  0  0
   -7.8945    2.9667   -9.7419 C   0  0  0  0  0  0  0  0  0  0  0  0
   -8.0434    2.9312  -11.0904 N   0  0  0  0  0  0  0  0  0  0  0  0
   -8.1977    4.1005  -11.7411 C   0  0  0  0  0  0  0  0  0  0  0  0
   -8.4430    4.0192  -13.1148 N   0  0  0  0  0  0  0  0  0  0  0  0
   -7.2249    3.8463  -13.9322 C   0  0  0  0  0  0  0  0  0  0  0  0
   -6.8482    5.1029  -14.7960 C   0  0  0  0  0  0  0  0  0  0  0  0
   -5.9126    6.1101  -14.0627 C   0  0  0  0  0  0  0  0  0  0  0  0
   -5.1873    5.7604  -12.9132 C   0  0  0  0  0  0  0  0  0  0  0  0
   -4.1448    6.5607  -12.4897 C   0  0  0  0  0  0  0  0  0  0  0  0
   -3.7589    7.6739  -13.1327 N   0  0  0  0  0  0  0  0  0  0  0  0
   -4.4722    8.0232  -14.2183 C   0  0  0  0  0  0  0  0  0  0  0  0
   -5.5529    7.3093  -14.6932 C   0  0  0  0  0  0  0  0  0  0  0  0
   -5.9854    4.6527  -16.0325 C   0  0  0  0  0  0  0  0  0  0  0  0
   -6.5244    5.0247  -17.4186 C   0  0  0  0  0  0  0  0  0  0  0  0
   -7.9707    4.6039  -17.6440 C   0  0  0  0  0  0  0  0  0  0  0  0
   -8.8268    4.7307  -16.3891 C   0  0  0  0  0  0  0  0  0  0  0  0
   -8.1813    5.6704  -15.3519 C   0  0  0  0  0  0  0  0  0  0  0  0
   -8.1681    5.3284  -11.0717 C   0  0  0  0  0  0  0  0  0  0  0  0
   -8.3194    6.5048  -11.7551 O   0  0  0  0  0  0  0  0  0  0  0  0
   -8.0354    5.3413   -9.6866 C   0  0  0  0  0  0  0  0  0  0  0  0
  1  2  1  0
  2  3  1  0
  3  4  2  0
  3  5  1  0
  5  6  2  0
  6  7  1  0
  7  8  2  0
  8  9  1  0
  9 10  1  0
 10 11  1  0
 11 12  1  0
 12 13  2  0
 13 14  1  0
 14 15  2  0
 15 16  1  0
 16 17  2  0
 11 18  1  0
 18 19  1  0
 19 20  1  0
 20 21  1  0
 21 22  1  0
  8 23  1  0
 23 24  1  0
 23 25  2  0
 25  5  1  0
 22 11  1  0
 17 12  1  0
M  END
>  <fragmenstein_outcome>  (559) 
nan

>  <exports>  (559) 
['/opt/xchem-fragalysis-2/maxwin/openbind-hippo/xx01zvns2b/cycle_01/syndirella/elabs/openbind_xx01zvns2b_c1_elab_chemspace_filtered.sdf']

>  <Energy>  (559) 
nan

>  <alias>  (559) 
None

>  <fragmenstein_runtime>  (559) 
nan

>  <scratch_subdir>  (559) 
nan

>  <HIPPO Compound ID>  (559) 
145737

>  <rmsd(smina/fragmenstein)>  (559) 
0.413

>  <distance_score>  (559) 
1.808284

>  <orig_smiles>  (559) 
nan

>  <fragmenstein_mode>  (559) 
nan

>  <inchikey>  (559) 
NGOZYPWMAPFPAC-UHFFFAOYSA-N

>  <ref_pdb>  (559) 
Z1716a

>  <GNINA pK>  (559) 
nan

>  <gnina_score_min>  (559) 
5.265

>  <tags>  (559) 
openbind_xx01zvns2b_c1_elab_nonasap_filtered_scored_top80percent,openbind_xx01zvns2b_c1_elab_chemspace_filtered_scored_top80percent,openbind_xx01zvns2b_c1_elab_chemspace_filtered_scored,openbind_xx01zvns2b_c1_elab_chemspace_filtered_scored_top40percent,openbind_xx01zvns2b_c1_elab_chemspace_filtered_scored_top20percent,openbind_xx01zvns2b_c1_elab_chemspace_filtered_scored_top60percent,openbind_xx01zvns2b_c1_elabs_filtered

>  <smiles>  (559) 
COC(=O)c1cnc(NCC2(c3ccncc3)CCCCC2)c(O)c1

>  <subsites>  (559) 
1 - Z4590/B/203/1

>  <gnina_score>  (559) 
5.393

>  <HIPPO Pose ID>  (559) 
72435

>  <ref_mols>  (559) 
Z1342a,Z1716a

>  <energy_score>  (559) 
-14.910323

>  <inspiration_score>  (559) 
None

>  <smina_score_min>  (559) 
-5.621

>  <fragmenstein_error>  (559) 
nan

>  <name>  (559) 
P72435

$$$$
P72436
     RDKit          3D

 25 27  0  0  0  0  0  0  0  0999 V2000
   -8.4864    3.9985   -5.3336 C   0  0  0  0  0  0  0  0  0  0  0  0
   -8.6787    3.9967   -6.7473 O   0  0  0  0  0  0  0  0  0  0  0  0
   -7.6414    4.4961   -7.4574 C   0  0  0  0  0  0  0  0  0  0  0  0
   -6.6682    5.0669   -6.9833 O   0  0  0  0  0  0  0  0  0  0  0  0
   -7.8722    4.3637   -8.9182 C   0  0  0  0  0  0  0  0  0  0  0  0
   -7.3351    5.3593   -9.7348 C   0  0  0  0  0  0  0  0  0  0  0  0
   -7.4977    5.2971  -11.1174 C   0  0  0  0  0  0  0  0  0  0  0  0
   -8.1636    4.2221  -11.6752 C   0  0  0  0  0  0  0  0  0  0  0  0
   -8.3919    4.1173  -13.0464 N   0  0  0  0  0  0  0  0  0  0  0  0
   -7.2021    3.8843  -13.8894 C   0  0  0  0  0  0  0  0  0  0  0  0
   -6.8242    5.1047  -14.8130 C   0  0  0  0  0  0  0  0  0  0  0  0
   -5.8404    6.0520  -14.0766 C   0  0  0  0  0  0  0  0  0  0  0  0
   -5.9486    7.4388  -14.1231 C   0  0  0  0  0  0  0  0  0  0  0  0
   -4.9032    8.1928  -13.6280 C   0  0  0  0  0  0  0  0  0  0  0  0
   -3.7944    7.6843  -13.0545 N   0  0  0  0  0  0  0  0  0  0  0  0
   -3.7111    6.3505  -12.9719 C   0  0  0  0  0  0  0  0  0  0  0  0
   -4.6809    5.5123  -13.4748 C   0  0  0  0  0  0  0  0  0  0  0  0
   -6.0001    4.6637  -16.0772 C   0  0  0  0  0  0  0  0  0  0  0  0
   -6.6220    4.9287  -17.4544 C   0  0  0  0  0  0  0  0  0  0  0  0
   -8.0773    4.5120  -17.5864 C   0  0  0  0  0  0  0  0  0  0  0  0
   -8.8732    4.7330  -16.3085 C   0  0  0  0  0  0  0  0  0  0  0  0
   -8.1545    5.6940  -15.3445 C   0  0  0  0  0  0  0  0  0  0  0  0
   -8.6885    3.2536  -10.9086 N   0  0  0  0  0  0  0  0  0  0  0  0
   -8.5611    3.3268   -9.5458 C   0  0  0  0  0  0  0  0  0  0  0  0
   -9.2157    2.2105   -8.7900 C   0  0  0  0  0  0  0  0  0  0  0  0
  1  2  1  0
  2  3  1  0
  3  4  2  0
  3  5  1  0
  5  6  2  0
  6  7  1  0
  7  8  2  0
  8  9  1  0
  9 10  1  0
 10 11  1  0
 11 12  1  0
 12 13  2  0
 13 14  1  0
 14 15  2  0
 15 16  1  0
 16 17  2  0
 11 18  1  0
 18 19  1  0
 19 20  1  0
 20 21  1  0
 21 22  1  0
  8 23  1  0
 23 24  2  0
 24 25  1  0
 24  5  1  0
 22 11  1  0
 17 12  1  0
M  END
>  <fragmenstein_outcome>  (560) 
nan

>  <exports>  (560) 
['/opt/xchem-fragalysis-2/maxwin/openbind-hippo/xx01zvns2b/cycle_01/syndirella/elabs/openbind_xx01zvns2b_c1_elab_chemspace_filtered.sdf']

>  <Energy>  (560) 
nan

>  <alias>  (560) 
None

>  <fragmenstein_runtime>  (560) 
nan

>  <scratch_subdir>  (560) 
nan

>  <HIPPO Compound ID>  (560) 
145738

>  <rmsd(smina/fragmenstein)>  (560) 
0.801

>  <distance_score>  (560) 
1.916888

>  <orig_smiles>  (560) 
nan

>  <fragmenstein_mode>  (560) 
nan

>  <inchikey>  (560) 
QRGZGLDATDYFPK-UHFFFAOYSA-N

>  <ref_pdb>  (560) 
Z1716a

>  <GNINA pK>  (560) 
nan

>  <gnina_score_min>  (560) 
5.287

>  <tags>  (560) 
openbind_xx01zvns2b_c1_elab_nonasap_filtered_scored_top80percent,openbind_xx01zvns2b_c1_elab_chemspace_filtered_scored_top80percent,openbind_xx01zvns2b_c1_elab_chemspace_filtered_scored,openbind_xx01zvns2b_c1_elab_chemspace_filtered_scored_top40percent,openbind_xx01zvns2b_c1_elab_chemspace_filtered_scored_top20percent,openbind_xx01zvns2b_c1_elab_chemspace_filtered_scored_top60percent,openbind_xx01zvns2b_c1_elabs_filtered

>  <smiles>  (560) 
COC(=O)c1ccc(NCC2(c3ccncc3)CCCCC2)nc1C

>  <subsites>  (560) 
1 - Z4590/B/203/1

>  <gnina_score>  (560) 
5.547

>  <HIPPO Pose ID>  (560) 
72436

>  <ref_mols>  (560) 
Z1342a,Z1716a

>  <energy_score>  (560) 
-40.151214

>  <inspiration_score>  (560) 
None

>  <smina_score_min>  (560) 
-5.626

>  <fragmenstein_error>  (560) 
nan

>  <name>  (560) 
P72436

$$$$
P72438
     RDKit          3D

 26 28  0  0  0  0  0  0  0  0999 V2000
  -10.1446    2.2127   -5.8719 C   0  0  0  0  0  0  0  0  0  0  0  0
   -9.5474    2.5740   -7.1184 O   0  0  0  0  0  0  0  0  0  0  0  0
   -8.7102    3.6359   -7.1039 C   0  0  0  0  0  0  0  0  0  0  0  0
   -8.3666    4.3012   -6.1406 O   0  0  0  0  0  0  0  0  0  0  0  0
   -8.3404    3.9412   -8.5027 C   0  0  0  0  0  0  0  0  0  0  0  0
   -8.0666    2.9110   -9.3902 C   0  0  0  0  0  0  0  0  0  0  0  0
   -7.7541    3.1086  -10.6953 N   0  0  0  0  0  0  0  0  0  0  0  0
   -7.8290    4.3713  -11.1566 C   0  0  0  0  0  0  0  0  0  0  0  0
   -7.4815    4.5112  -12.4739 N   0  0  0  0  0  0  0  0  0  0  0  0
   -7.6423    5.7302  -13.4437 C   0  0  0  0  0  0  0  0  0  0  0  0
   -8.1657    6.7667  -13.2802 O   0  0  0  0  0  0  0  0  0  0  0  0
   -6.8344    5.3535  -14.7423 C   0  0  0  0  0  0  0  0  0  0  0  0
   -5.3523    5.4825  -14.3034 C   0  0  0  0  0  0  0  0  0  0  0  0
   -4.5060    4.3838  -14.1843 C   0  0  0  0  0  0  0  0  0  0  0  0
   -3.1980    4.5790  -13.7852 C   0  0  0  0  0  0  0  0  0  0  0  0
   -2.6734    5.7829  -13.5102 N   0  0  0  0  0  0  0  0  0  0  0  0
   -3.4997    6.8384  -13.5990 C   0  0  0  0  0  0  0  0  0  0  0  0
   -4.8290    6.7429  -13.9513 C   0  0  0  0  0  0  0  0  0  0  0  0
   -7.0339    6.3517  -15.9013 C   0  0  0  0  0  0  0  0  0  0  0  0
   -6.8293    5.7653  -17.3091 C   0  0  0  0  0  0  0  0  0  0  0  0
   -7.8928    4.7217  -17.6382 C   0  0  0  0  0  0  0  0  0  0  0  0
   -8.4814    4.1402  -16.3597 C   0  0  0  0  0  0  0  0  0  0  0  0
   -7.3749    3.9959  -15.2982 C   0  0  0  0  0  0  0  0  0  0  0  0
   -8.0929    5.4643  -10.3583 C   0  0  0  0  0  0  0  0  0  0  0  0
   -8.2932    5.2576   -8.9881 C   0  0  0  0  0  0  0  0  0  0  0  0
   -8.3787    6.4501   -8.0872 C   0  0  0  0  0  0  0  0  0  0  0  0
  1  2  1  0
  2  3  1  0
  3  4  2  0
  3  5  1  0
  5  6  2  0
  6  7  1  0
  7  8  2  0
  8  9  1  0
  9 10  1  0
 10 11  2  0
 10 12  1  0
 12 13  1  0
 13 14  2  0
 14 15  1  0
 15 16  2  0
 16 17  1  0
 17 18  2  0
 12 19  1  0
 19 20  1  0
 20 21  1  0
 21 22  1  0
 22 23  1  0
  8 24  1  0
 24 25  2  0
 25 26  1  0
 25  5  1  0
 23 12  1  0
 18 13  1  0
M  END
>  <fragmenstein_outcome>  (561) 
nan

>  <exports>  (561) 
['/opt/xchem-fragalysis-2/maxwin/openbind-hippo/xx01zvns2b/cycle_01/syndirella/elabs/openbind_xx01zvns2b_c1_elab_chemspace_filtered.sdf']

>  <Energy>  (561) 
nan

>  <alias>  (561) 
None

>  <fragmenstein_runtime>  (561) 
nan

>  <scratch_subdir>  (561) 
nan

>  <HIPPO Compound ID>  (561) 
145766

>  <rmsd(smina/fragmenstein)>  (561) 
1.045

>  <distance_score>  (561) 
1.883724

>  <orig_smiles>  (561) 
nan

>  <fragmenstein_mode>  (561) 
nan

>  <inchikey>  (561) 
GNOGAXQDWPMMCE-UHFFFAOYSA-N

>  <ref_pdb>  (561) 
Z1716a

>  <GNINA pK>  (561) 
nan

>  <gnina_score_min>  (561) 
5.261

>  <tags>  (561) 
openbind_xx01zvns2b_c1_elab_nonasap_filtered_scored_top80percent,openbind_xx01zvns2b_c1_elab_chemspace_filtered_scored_top80percent,openbind_xx01zvns2b_c1_elab_chemspace_filtered_scored,openbind_xx01zvns2b_c1_elab_chemspace_filtered_scored_top40percent,openbind_xx01zvns2b_c1_elab_chemspace_filtered_scored_top20percent,openbind_xx01zvns2b_c1_elab_chemspace_filtered_scored_top60percent,openbind_xx01zvns2b_c1_elabs_filtered

>  <smiles>  (561) 
COC(=O)c1cnc(NC(=O)C2(c3ccncc3)CCCCC2)cc1C

>  <subsites>  (561) 
1 - Z4590/B/203/1

>  <gnina_score>  (561) 
5.729

>  <HIPPO Pose ID>  (561) 
72438

>  <ref_mols>  (561) 
Z1342a,Z1716a

>  <energy_score>  (561) 
-16.034805

>  <inspiration_score>  (561) 
None

>  <smina_score_min>  (561) 
-5.811

>  <fragmenstein_error>  (561) 
nan

>  <name>  (561) 
P72438

$$$$
P72440
     RDKit          3D

 26 28  0  0  0  0  0  0  0  0999 V2000
   -9.8098    3.4422   -5.2193 C   0  0  0  0  0  0  0  0  0  0  0  0
   -9.5256    3.5714   -6.6109 O   0  0  0  0  0  0  0  0  0  0  0  0
   -8.7131    4.6062   -6.9230 C   0  0  0  0  0  0  0  0  0  0  0  0
   -8.3249    5.4726   -6.1533 O   0  0  0  0  0  0  0  0  0  0  0  0
   -8.4261    4.6224   -8.3738 C   0  0  0  0  0  0  0  0  0  0  0  0
   -8.4223    5.8695   -9.0120 C   0  0  0  0  0  0  0  0  0  0  0  0
   -8.2109    5.9596  -10.3840 C   0  0  0  0  0  0  0  0  0  0  0  0
   -7.9237    4.7972  -11.0601 C   0  0  0  0  0  0  0  0  0  0  0  0
   -7.5560    4.7934  -12.3786 N   0  0  0  0  0  0  0  0  0  0  0  0
   -7.7061    5.8973  -13.4789 C   0  0  0  0  0  0  0  0  0  0  0  0
   -8.2360    6.9425  -13.4385 O   0  0  0  0  0  0  0  0  0  0  0  0
   -6.8753    5.3870  -14.7200 C   0  0  0  0  0  0  0  0  0  0  0  0
   -5.4007    5.4712  -14.2512 C   0  0  0  0  0  0  0  0  0  0  0  0
   -4.8115    6.7256  -13.9966 C   0  0  0  0  0  0  0  0  0  0  0  0
   -3.4812    6.7764  -13.6380 C   0  0  0  0  0  0  0  0  0  0  0  0
   -2.7172    5.6878  -13.4477 N   0  0  0  0  0  0  0  0  0  0  0  0
   -3.3105    4.4952  -13.6155 C   0  0  0  0  0  0  0  0  0  0  0  0
   -4.6238    4.3399  -14.0153 C   0  0  0  0  0  0  0  0  0  0  0  0
   -6.9945    6.3111  -15.9534 C   0  0  0  0  0  0  0  0  0  0  0  0
   -6.7912    5.6236  -17.3099 C   0  0  0  0  0  0  0  0  0  0  0  0
   -7.9145    4.6341  -17.5936 C   0  0  0  0  0  0  0  0  0  0  0  0
   -8.5387    4.1386  -16.2948 C   0  0  0  0  0  0  0  0  0  0  0  0
   -7.4734    4.0178  -15.1883 C   0  0  0  0  0  0  0  0  0  0  0  0
   -7.8665    3.5879  -10.4699 N   0  0  0  0  0  0  0  0  0  0  0  0
   -8.1504    3.4936   -9.1415 C   0  0  0  0  0  0  0  0  0  0  0  0
   -8.1608    2.0980   -8.5983 C   0  0  0  0  0  0  0  0  0  0  0  0
  1  2  1  0
  2  3  1  0
  3  4  2  0
  3  5  1  0
  5  6  2  0
  6  7  1  0
  7  8  2  0
  8  9  1  0
  9 10  1  0
 10 11  2  0
 10 12  1  0
 12 13  1  0
 13 14  2  0
 14 15  1  0
 15 16  2  0
 16 17  1  0
 17 18  2  0
 12 19  1  0
 19 20  1  0
 20 21  1  0
 21 22  1  0
 22 23  1  0
  8 24  1  0
 24 25  2  0
 25 26  1  0
 25  5  1  0
 23 12  1  0
 18 13  1  0
M  END
>  <fragmenstein_outcome>  (562) 
nan

>  <exports>  (562) 
['/opt/xchem-fragalysis-2/maxwin/openbind-hippo/xx01zvns2b/cycle_01/syndirella/elabs/openbind_xx01zvns2b_c1_elab_chemspace_filtered.sdf']

>  <Energy>  (562) 
nan

>  <alias>  (562) 
None

>  <fragmenstein_runtime>  (562) 
nan

>  <scratch_subdir>  (562) 
nan

>  <HIPPO Compound ID>  (562) 
145768

>  <rmsd(smina/fragmenstein)>  (562) 
1.66

>  <distance_score>  (562) 
1.835755

>  <orig_smiles>  (562) 
nan

>  <fragmenstein_mode>  (562) 
nan

>  <inchikey>  (562) 
BRWNBRGSNBBQKJ-UHFFFAOYSA-N

>  <ref_pdb>  (562) 
Z1716a

>  <GNINA pK>  (562) 
nan

>  <gnina_score_min>  (562) 
5.356

>  <tags>  (562) 
openbind_xx01zvns2b_c1_elab_nonasap_filtered_scored_top80percent,openbind_xx01zvns2b_c1_elab_chemspace_filtered_scored_top80percent,openbind_xx01zvns2b_c1_elab_chemspace_filtered_scored,openbind_xx01zvns2b_c1_elab_chemspace_filtered_scored_top40percent,openbind_xx01zvns2b_c1_elab_chemspace_filtered_scored_top20percent,openbind_xx01zvns2b_c1_elab_chemspace_filtered_scored_top60percent,openbind_xx01zvns2b_c1_elabs_filtered

>  <smiles>  (562) 
COC(=O)c1ccc(NC(=O)C2(c3ccncc3)CCCCC2)nc1C

>  <subsites>  (562) 
1 - Z4590/B/203/1

>  <gnina_score>  (562) 
5.683

>  <HIPPO Pose ID>  (562) 
72440

>  <ref_mols>  (562) 
Z1342a,Z1716a

>  <energy_score>  (562) 
-30.185407

>  <inspiration_score>  (562) 
None

>  <smina_score_min>  (562) 
-6.079

>  <fragmenstein_error>  (562) 
nan

>  <name>  (562) 
P72440

$$$$
P72441
     RDKit          3D

 27 30  0  0  0  0  0  0  0  0999 V2000
   -8.7023    5.4783   -4.6663 C   0  0  0  0  0  0  0  0  0  0  0  0
   -8.7130    5.1063   -6.0424 O   0  0  0  0  0  0  0  0  0  0  0  0
   -7.6508    5.5632   -6.7546 C   0  0  0  0  0  0  0  0  0  0  0  0
   -6.7764    6.2997   -6.3149 O   0  0  0  0  0  0  0  0  0  0  0  0
   -7.7151    5.0929   -8.1661 C   0  0  0  0  0  0  0  0  0  0  0  0
   -7.1374    5.8660   -9.1065 C   0  0  0  0  0  0  0  0  0  0  0  0
   -7.1171    5.4942  -10.5091 C   0  0  0  0  0  0  0  0  0  0  0  0
   -7.6756    4.3405  -10.9327 C   0  0  0  0  0  0  0  0  0  0  0  0
   -7.5973    3.9149  -12.2698 N   0  0  0  0  0  0  0  0  0  0  0  0
   -8.1682    4.7458  -13.3206 C   0  0  0  0  0  0  0  0  0  0  0  0
   -7.2535    5.1967  -14.4961 C   0  0  0  0  0  0  0  0  0  0  0  0
   -6.0579    6.0677  -14.0140 C   0  0  0  0  0  0  0  0  0  0  0  0
   -5.8376    7.3813  -14.4148 C   0  0  0  0  0  0  0  0  0  0  0  0
   -4.6069    7.9591  -14.1521 C   0  0  0  0  0  0  0  0  0  0  0  0
   -3.6120    7.3648  -13.4649 N   0  0  0  0  0  0  0  0  0  0  0  0
   -3.8525    6.1278  -13.0101 C   0  0  0  0  0  0  0  0  0  0  0  0
   -5.0308    5.4576  -13.2608 C   0  0  0  0  0  0  0  0  0  0  0  0
   -6.6115    4.0724  -15.3540 C   0  0  0  0  0  0  0  0  0  0  0  0
   -6.5122    4.4911  -16.8455 C   0  0  0  0  0  0  0  0  0  0  0  0
   -7.8966    4.5058  -17.4922 C   0  0  0  0  0  0  0  0  0  0  0  0
   -8.9396    4.8209  -16.4296 C   0  0  0  0  0  0  0  0  0  0  0  0
   -8.3150    5.8465  -15.4481 C   0  0  0  0  0  0  0  0  0  0  0  0
   -8.3405    3.5762   -9.9414 N   0  0  0  0  0  0  0  0  0  0  0  0
   -9.1279    2.4659  -10.0582 C   0  0  0  0  0  0  0  0  0  0  0  0
   -9.5626    2.0165   -8.9004 N   0  0  0  0  0  0  0  0  0  0  0  0
   -9.0488    2.8719   -7.9732 C   0  0  0  0  0  0  0  0  0  0  0  0
   -8.3632    3.8985   -8.5828 C   0  0  0  0  0  0  0  0  0  0  0  0
  1  2  1  0
  2  3  1  0
  3  4  2  0
  3  5  1  0
  5  6  2  0
  6  7  1  0
  7  8  2  0
  8  9  1  0
  9 10  1  0
 10 11  1  0
 11 12  1  0
 12 13  2  0
 13 14  1  0
 14 15  2  0
 15 16  1  0
 16 17  2  0
 11 18  1  0
 18 19  1  0
 19 20  1  0
 20 21  1  0
 21 22  1  0
  8 23  1  0
 23 24  1  0
 24 25  2  0
 25 26  1  0
 26 27  2  0
 27  5  1  0
 22 11  1  0
 27 23  1  0
 17 12  1  0
M  END
>  <fragmenstein_outcome>  (563) 
nan

>  <exports>  (563) 
['/opt/xchem-fragalysis-2/maxwin/openbind-hippo/xx01zvns2b/cycle_01/syndirella/elabs/openbind_xx01zvns2b_c1_elab_chemspace_filtered.sdf']

>  <Energy>  (563) 
nan

>  <alias>  (563) 
None

>  <fragmenstein_runtime>  (563) 
nan

>  <scratch_subdir>  (563) 
nan

>  <HIPPO Compound ID>  (563) 
145774

>  <rmsd(smina/fragmenstein)>  (563) 
1.263

>  <distance_score>  (563) 
1.852567

>  <orig_smiles>  (563) 
nan

>  <fragmenstein_mode>  (563) 
nan

>  <inchikey>  (563) 
BERNPEKHQDOGCD-UHFFFAOYSA-N

>  <ref_pdb>  (563) 
Z1716a

>  <GNINA pK>  (563) 
nan

>  <gnina_score_min>  (563) 
5.268

>  <tags>  (563) 
openbind_xx01zvns2b_c1_elab_nonasap_filtered_scored_top80percent,openbind_xx01zvns2b_c1_elab_chemspace_filtered_scored_top80percent,openbind_xx01zvns2b_c1_elab_chemspace_filtered_scored,openbind_xx01zvns2b_c1_elab_chemspace_filtered_scored_top40percent,openbind_xx01zvns2b_c1_elab_chemspace_filtered_scored_top20percent,openbind_xx01zvns2b_c1_elab_chemspace_filtered_scored_top60percent,openbind_xx01zvns2b_c1_elabs_filtered

>  <smiles>  (563) 
COC(=O)c1ccc(NCC2(c3ccncc3)CCCCC2)n2cncc12

>  <subsites>  (563) 
1 - Z4590/B/203/1

>  <gnina_score>  (563) 
5.898

>  <HIPPO Pose ID>  (563) 
72441

>  <ref_mols>  (563) 
Z1342a,Z1716a

>  <energy_score>  (563) 
-34.795886

>  <inspiration_score>  (563) 
None

>  <smina_score_min>  (563) 
-5.304

>  <fragmenstein_error>  (563) 
nan

>  <name>  (563) 
P72441

$$$$
P72445
     RDKit          3D

 28 30  0  0  0  0  0  0  0  0999 V2000
    0.3606    8.2336  -25.2508 C   0  0  0  0  0  0  0  0  0  0  0  0
   -0.2516    9.3120  -24.5399 O   0  0  0  0  0  0  0  0  0  0  0  0
   -1.2015    8.8186  -23.6842 C   0  0  0  0  0  0  0  0  0  0  0  0
   -0.8429    8.6801  -22.3431 C   0  0  0  0  0  0  0  0  0  0  0  0
   -1.7516    8.1454  -21.4289 C   0  0  0  0  0  0  0  0  0  0  0  0
   -3.0281    7.7440  -21.8463 C   0  0  0  0  0  0  0  0  0  0  0  0
   -4.0044    7.1448  -20.8585 C   0  0  0  0  0  0  0  0  0  0  0  0
   -3.9802    5.5962  -20.6876 C   0  0  2  0  0  0  0  0  0  0  0  0
   -2.6247    5.1151  -20.1484 C   0  0  0  0  0  0  0  0  0  0  0  0
   -4.2637    4.8657  -22.0216 C   0  0  0  0  0  0  0  0  0  0  0  0
   -5.4436    5.3386  -22.6603 O   0  0  0  0  0  0  0  0  0  0  0  0
   -4.9951    5.2283  -19.6793 N   0  0  0  0  0  0  0  0  0  0  0  0
   -5.2211    5.7541  -18.2474 C   0  0  0  0  0  0  0  0  0  0  0  0
   -4.5951    6.5055  -17.6098 O   0  0  0  0  0  0  0  0  0  0  0  0
   -6.4336    5.1682  -17.5712 C   0  0  0  0  0  0  0  0  0  0  0  0
   -7.5400    4.6135  -18.2279 C   0  0  0  0  0  0  0  0  0  0  0  0
   -8.6551    4.1784  -17.5113 C   0  0  0  0  0  0  0  0  0  0  0  0
  -10.0595    3.6813  -18.3667 Cl  0  0  0  0  0  0  0  0  0  0  0  0
   -8.7039    4.2374  -16.1196 C   0  0  0  0  0  0  0  0  0  0  0  0
   -7.6321    4.8218  -15.4328 C   0  0  0  0  0  0  0  0  0  0  0  0
   -7.3938    5.1303  -14.0652 C   0  0  0  0  0  0  0  0  0  0  0  0
   -6.1820    5.7767  -13.9892 C   0  0  0  0  0  0  0  0  0  0  0  0
   -5.6607    5.8317  -15.2535 N   0  0  0  0  0  0  0  0  0  0  0  0
   -6.5346    5.2711  -16.1647 C   0  0  0  0  0  0  0  0  0  0  0  0
   -3.3872    7.9202  -23.1914 C   0  0  0  0  0  0  0  0  0  0  0  0
   -2.4916    8.4824  -24.1053 C   0  0  0  0  0  0  0  0  0  0  0  0
   -2.9560    8.6108  -25.3876 O   0  0  0  0  0  0  0  0  0  0  0  0
   -2.7380    9.9083  -25.9389 C   0  0  0  0  0  0  0  0  0  0  0  0
  1  2  1  0
  2  3  1  0
  3  4  2  0
  4  5  1  0
  5  6  2  0
  6  7  1  0
  7  8  1  0
  8  9  1  1
  8 10  1  0
 10 11  1  0
  8 12  1  0
 12 13  1  0
 13 14  2  0
 13 15  1  0
 15 16  2  0
 16 17  1  0
 17 18  1  0
 17 19  2  0
 19 20  1  0
 20 21  1  0
 21 22  2  0
 22 23  1  0
 23 24  1  0
  6 25  1  0
 25 26  2  0
 26 27  1  0
 27 28  1  0
 26  3  1  0
 24 15  1  0
 24 20  2  0
M  END
>  <fragmenstein_outcome>  (564) 
nan

>  <exports>  (564) 
['/opt/xchem-fragalysis-2/maxwin/openbind-hippo/xx01zvns2b/cycle_01/syndirella/elabs/openbind_xx01zvns2b_c1_elab_chemspace_filtered.sdf']

>  <Energy>  (564) 
nan

>  <alias>  (564) 
None

>  <fragmenstein_runtime>  (564) 
nan

>  <scratch_subdir>  (564) 
nan

>  <HIPPO Compound ID>  (564) 
145824

>  <rmsd(smina/fragmenstein)>  (564) 
1.939

>  <distance_score>  (564) 
0.573569

>  <orig_smiles>  (564) 
nan

>  <fragmenstein_mode>  (564) 
nan

>  <inchikey>  (564) 
QGELXGVPRWMKBZ-OAQYLSRUSA-N

>  <ref_pdb>  (564) 
Z0101a

>  <GNINA pK>  (564) 
nan

>  <gnina_score_min>  (564) 
5.516

>  <tags>  (564) 
openbind_xx01zvns2b_c1_elab_nonasap_filtered_scored_top80percent,openbind_xx01zvns2b_c1_elab_chemspace_filtered_scored_top80percent,openbind_xx01zvns2b_c1_elab_chemspace_filtered_scored,openbind_xx01zvns2b_c1_elab_chemspace_filtered_scored_top40percent,openbind_xx01zvns2b_c1_elab_chemspace_filtered_scored_top20percent,openbind_xx01zvns2b_c1_elab_chemspace_filtered_scored_top60percent,openbind_xx01zvns2b_c1_elabs_filtered

>  <smiles>  (564) 
COc1ccc(C[C@](C)(CO)NC(=O)c2cc(Cl)cc3cc[nH]c23)cc1OC

>  <subsites>  (564) 
1 - Z4590/B/203/1

>  <gnina_score>  (564) 
5.408

>  <HIPPO Pose ID>  (564) 
72445

>  <ref_mols>  (564) 
Z0827a,Z0101a

>  <energy_score>  (564) 
-31.126609

>  <inspiration_score>  (564) 
None

>  <smina_score_min>  (564) 
-6.458

>  <fragmenstein_error>  (564) 
nan

>  <name>  (564) 
P72445

$$$$
P72450
     RDKit          3D

 28 30  0  0  0  0  0  0  0  0999 V2000
    0.0913    9.8469  -25.8278 C   0  0  0  0  0  0  0  0  0  0  0  0
    0.4230    9.4890  -24.4935 O   0  0  0  0  0  0  0  0  0  0  0  0
   -0.5853    8.9963  -23.7081 C   0  0  0  0  0  0  0  0  0  0  0  0
   -1.8738    8.6931  -24.1534 C   0  0  0  0  0  0  0  0  0  0  0  0
   -2.8354    8.1983  -23.2630 C   0  0  0  0  0  0  0  0  0  0  0  0
   -2.5305    8.0023  -21.9099 C   0  0  0  0  0  0  0  0  0  0  0  0
   -3.5684    7.4606  -20.9553 C   0  0  0  0  0  0  0  0  0  0  0  0
   -3.6242    5.9225  -20.7927 C   0  0  2  0  0  0  0  0  0  0  0  0
   -2.3203    5.3502  -20.2289 C   0  0  0  0  0  0  0  0  0  0  0  0
   -3.9332    5.1873  -22.1320 C   0  0  0  0  0  0  0  0  0  0  0  0
   -5.1254    5.6601  -22.7673 O   0  0  0  0  0  0  0  0  0  0  0  0
   -4.7380    5.6313  -19.8902 N   0  0  0  0  0  0  0  0  0  0  0  0
   -4.7407    5.1615  -18.4170 C   0  0  0  0  0  0  0  0  0  0  0  0
   -3.8576    5.0079  -17.6711 O   0  0  0  0  0  0  0  0  0  0  0  0
   -6.1227    4.7936  -18.0418 C   0  0  0  0  0  0  0  0  0  0  0  0
   -6.9283    4.2031  -19.0173 C   0  0  0  0  0  0  0  0  0  0  0  0
   -8.2578    3.9713  -18.8015 C   0  0  0  0  0  0  0  0  0  0  0  0
   -8.8054    4.2342  -17.5599 C   0  0  0  0  0  0  0  0  0  0  0  0
  -10.6540    4.0346  -17.5995 Br  0  0  0  0  0  0  0  0  0  0  0  0
   -8.0052    4.7008  -16.4864 C   0  0  0  0  0  0  0  0  0  0  0  0
   -8.2030    5.0334  -15.1130 C   0  0  0  0  0  0  0  0  0  0  0  0
   -7.0100    5.5053  -14.6052 C   0  0  0  0  0  0  0  0  0  0  0  0
   -6.0807    5.4621  -15.6121 N   0  0  0  0  0  0  0  0  0  0  0  0
   -6.6606    4.9879  -16.7657 C   0  0  0  0  0  0  0  0  0  0  0  0
   -1.2429    8.3129  -21.4612 C   0  0  0  0  0  0  0  0  0  0  0  0
   -0.2776    8.7783  -22.3577 C   0  0  0  0  0  0  0  0  0  0  0  0
    0.9638    9.0700  -21.8468 O   0  0  0  0  0  0  0  0  0  0  0  0
    1.8574    7.9854  -22.0992 C   0  0  0  0  0  0  0  0  0  0  0  0
  1  2  1  0
  2  3  1  0
  3  4  2  0
  4  5  1  0
  5  6  2  0
  6  7  1  0
  7  8  1  0
  8  9  1  1
  8 10  1  0
 10 11  1  0
  8 12  1  0
 12 13  1  0
 13 14  2  0
 13 15  1  0
 15 16  2  0
 16 17  1  0
 17 18  2  0
 18 19  1  0
 18 20  1  0
 20 21  1  0
 21 22  2  0
 22 23  1  0
 23 24  1  0
  6 25  1  0
 25 26  2  0
 26 27  1  0
 27 28  1  0
 26  3  1  0
 24 15  1  0
 24 20  2  0
M  END
>  <fragmenstein_outcome>  (565) 
nan

>  <exports>  (565) 
['/opt/xchem-fragalysis-2/maxwin/openbind-hippo/xx01zvns2b/cycle_01/syndirella/elabs/openbind_xx01zvns2b_c1_elab_chemspace_filtered.sdf']

>  <Energy>  (565) 
nan

>  <alias>  (565) 
None

>  <fragmenstein_runtime>  (565) 
nan

>  <scratch_subdir>  (565) 
nan

>  <HIPPO Compound ID>  (565) 
145827

>  <rmsd(smina/fragmenstein)>  (565) 
1.217

>  <distance_score>  (565) 
1.169019

>  <orig_smiles>  (565) 
nan

>  <fragmenstein_mode>  (565) 
nan

>  <inchikey>  (565) 
AOTDAKJAXOGFHB-OAQYLSRUSA-N

>  <ref_pdb>  (565) 
Z0101a

>  <GNINA pK>  (565) 
nan

>  <gnina_score_min>  (565) 
5.178

>  <tags>  (565) 
openbind_xx01zvns2b_c1_elab_nonasap_filtered_scored_top80percent,openbind_xx01zvns2b_c1_elab_chemspace_filtered_scored_top80percent,openbind_xx01zvns2b_c1_elab_chemspace_filtered_scored,openbind_xx01zvns2b_c1_elab_chemspace_filtered_scored_top40percent,openbind_xx01zvns2b_c1_elab_chemspace_filtered_scored_top20percent,openbind_xx01zvns2b_c1_elab_chemspace_filtered_scored_top60percent,openbind_xx01zvns2b_c1_elabs_filtered

>  <smiles>  (565) 
COc1ccc(C[C@](C)(CO)NC(=O)c2ccc(Br)c3cc[nH]c23)cc1OC

>  <subsites>  (565) 
1 - Z4590/B/203/1

>  <gnina_score>  (565) 
5.124

>  <HIPPO Pose ID>  (565) 
72450

>  <ref_mols>  (565) 
Z0827a,Z0101a

>  <energy_score>  (565) 
-12.818108

>  <inspiration_score>  (565) 
None

>  <smina_score_min>  (565) 
-5.137

>  <fragmenstein_error>  (565) 
nan

>  <name>  (565) 
P72450

$$$$
P72453
     RDKit          3D

 28 30  0  0  0  0  0  0  0  0999 V2000
    0.6330    9.5506  -24.6292 C   0  0  0  0  0  0  0  0  0  0  0  0
   -0.6847    9.1029  -24.9098 O   0  0  0  0  0  0  0  0  0  0  0  0
   -1.4325    8.6327  -23.8588 C   0  0  0  0  0  0  0  0  0  0  0  0
   -0.9546    8.4778  -22.5535 C   0  0  0  0  0  0  0  0  0  0  0  0
   -1.7876    7.9818  -21.5461 C   0  0  0  0  0  0  0  0  0  0  0  0
   -3.1133    7.6375  -21.8239 C   0  0  0  0  0  0  0  0  0  0  0  0
   -4.0190    7.1013  -20.7352 C   0  0  0  0  0  0  0  0  0  0  0  0
   -4.0453    5.5524  -20.5252 C   0  0  2  0  0  0  0  0  0  0  0  0
   -2.7009    5.0573  -19.9703 C   0  0  0  0  0  0  0  0  0  0  0  0
   -4.3328    4.8110  -21.8556 C   0  0  0  0  0  0  0  0  0  0  0  0
   -5.4840    5.3057  -22.5258 O   0  0  0  0  0  0  0  0  0  0  0  0
   -5.0724    5.2229  -19.5014 N   0  0  0  0  0  0  0  0  0  0  0  0
   -5.4794    5.9691  -18.2139 C   0  0  0  0  0  0  0  0  0  0  0  0
   -5.1272    6.9992  -17.7934 O   0  0  0  0  0  0  0  0  0  0  0  0
   -6.4630    5.2245  -17.3758 C   0  0  0  0  0  0  0  0  0  0  0  0
   -6.3388    5.3110  -15.9802 C   0  0  0  0  0  0  0  0  0  0  0  0
   -7.3505    4.8581  -15.1471 C   0  0  0  0  0  0  0  0  0  0  0  0
   -7.2606    5.0817  -13.8295 F   0  0  0  0  0  0  0  0  0  0  0  0
   -8.5083    4.2816  -15.6499 C   0  0  0  0  0  0  0  0  0  0  0  0
   -8.6707    4.1928  -17.0397 C   0  0  0  0  0  0  0  0  0  0  0  0
   -9.7760    3.8429  -17.8617 C   0  0  0  0  0  0  0  0  0  0  0  0
   -9.3970    4.0560  -19.1571 C   0  0  0  0  0  0  0  0  0  0  0  0
   -8.1102    4.5075  -19.1528 N   0  0  0  0  0  0  0  0  0  0  0  0
   -7.6390    4.6434  -17.8755 C   0  0  0  0  0  0  0  0  0  0  0  0
   -3.5943    7.8062  -23.1311 C   0  0  0  0  0  0  0  0  0  0  0  0
   -2.7623    8.2788  -24.1529 C   0  0  0  0  0  0  0  0  0  0  0  0
   -3.1707    8.4496  -25.4536 O   0  0  0  0  0  0  0  0  0  0  0  0
   -4.3467    7.7556  -25.8526 C   0  0  0  0  0  0  0  0  0  0  0  0
  1  2  1  0
  2  3  1  0
  3  4  2  0
  4  5  1  0
  5  6  2  0
  6  7  1  0
  7  8  1  0
  8  9  1  1
  8 10  1  0
 10 11  1  0
  8 12  1  0
 12 13  1  0
 13 14  2  0
 13 15  1  0
 15 16  2  0
 16 17  1  0
 17 18  1  0
 17 19  2  0
 19 20  1  0
 20 21  1  0
 21 22  2  0
 22 23  1  0
 23 24  1  0
  6 25  1  0
 25 26  2  0
 26 27  1  0
 27 28  1  0
 26  3  1  0
 24 15  1  0
 24 20  2  0
M  END
>  <fragmenstein_outcome>  (566) 
nan

>  <exports>  (566) 
['/opt/xchem-fragalysis-2/maxwin/openbind-hippo/xx01zvns2b/cycle_01/syndirella/elabs/openbind_xx01zvns2b_c1_elab_chemspace_filtered.sdf']

>  <Energy>  (566) 
nan

>  <alias>  (566) 
None

>  <fragmenstein_runtime>  (566) 
nan

>  <scratch_subdir>  (566) 
nan

>  <HIPPO Compound ID>  (566) 
145828

>  <rmsd(smina/fragmenstein)>  (566) 
1.298

>  <distance_score>  (566) 
0.682046

>  <orig_smiles>  (566) 
nan

>  <fragmenstein_mode>  (566) 
nan

>  <inchikey>  (566) 
NEGLHLWLBLEBBM-OAQYLSRUSA-N

>  <ref_pdb>  (566) 
Z0101a

>  <GNINA pK>  (566) 
nan

>  <gnina_score_min>  (566) 
5.4

>  <tags>  (566) 
openbind_xx01zvns2b_c1_elab_nonasap_filtered_scored_top80percent,openbind_xx01zvns2b_c1_elab_chemspace_filtered_scored_top80percent,openbind_xx01zvns2b_c1_elab_chemspace_filtered_scored,openbind_xx01zvns2b_c1_elab_chemspace_filtered_scored_top40percent,openbind_xx01zvns2b_c1_elab_chemspace_filtered_scored_top20percent,openbind_xx01zvns2b_c1_elab_chemspace_filtered_scored_top60percent,openbind_xx01zvns2b_c1_elabs_filtered

>  <smiles>  (566) 
COc1ccc(C[C@](C)(CO)NC(=O)c2cc(F)cc3cc[nH]c23)cc1OC

>  <subsites>  (566) 
1 - Z4590/B/203/1

>  <gnina_score>  (566) 
5.39

>  <HIPPO Pose ID>  (566) 
72453

>  <ref_mols>  (566) 
Z0101a,Z0827a

>  <energy_score>  (566) 
-10.030504

>  <inspiration_score>  (566) 
None

>  <smina_score_min>  (566) 
-6.963

>  <fragmenstein_error>  (566) 
nan

>  <name>  (566) 
P72453

$$$$
P72454
     RDKit          3D

 28 30  0  0  0  0  0  0  0  0999 V2000
    0.8062    9.7681  -24.2599 C   0  0  0  0  0  0  0  0  0  0  0  0
   -0.5214    9.3999  -24.6038 O   0  0  0  0  0  0  0  0  0  0  0  0
   -1.3139    8.8815  -23.6096 C   0  0  0  0  0  0  0  0  0  0  0  0
   -0.9017    8.6891  -22.2871 C   0  0  0  0  0  0  0  0  0  0  0  0
   -1.7777    8.1483  -21.3413 C   0  0  0  0  0  0  0  0  0  0  0  0
   -3.0815    7.7952  -21.6992 C   0  0  0  0  0  0  0  0  0  0  0  0
   -4.0308    7.2065  -20.6802 C   0  0  0  0  0  0  0  0  0  0  0  0
   -4.0601    5.6574  -20.5440 C   0  0  2  0  0  0  0  0  0  0  0  0
   -2.6965    5.1290  -20.0601 C   0  0  0  0  0  0  0  0  0  0  0  0
   -4.3659    4.9451  -21.8871 C   0  0  0  0  0  0  0  0  0  0  0  0
   -5.4913    5.4894  -22.5626 O   0  0  0  0  0  0  0  0  0  0  0  0
   -5.1075    5.3324  -19.5397 N   0  0  0  0  0  0  0  0  0  0  0  0
   -4.9836    4.7553  -18.1099 C   0  0  0  0  0  0  0  0  0  0  0  0
   -4.0468    4.3734  -17.5268 O   0  0  0  0  0  0  0  0  0  0  0  0
   -6.2787    4.7302  -17.3632 C   0  0  0  0  0  0  0  0  0  0  0  0
   -6.2386    4.9792  -15.9751 C   0  0  0  0  0  0  0  0  0  0  0  0
   -7.3767    4.8915  -15.1707 C   0  0  0  0  0  0  0  0  0  0  0  0
   -7.3157    5.1701  -13.7004 C   0  0  0  0  0  0  0  0  0  0  0  0
   -8.5839    4.4839  -15.7395 C   0  0  0  0  0  0  0  0  0  0  0  0
   -8.6790    4.2736  -17.1235 C   0  0  0  0  0  0  0  0  0  0  0  0
   -9.7763    3.9873  -17.9789 C   0  0  0  0  0  0  0  0  0  0  0  0
   -9.2808    3.9515  -19.2526 C   0  0  0  0  0  0  0  0  0  0  0  0
   -7.9226    4.0823  -19.1868 N   0  0  0  0  0  0  0  0  0  0  0  0
   -7.5290    4.4029  -17.9129 C   0  0  0  0  0  0  0  0  0  0  0  0
   -3.4969    7.9988  -23.0237 C   0  0  0  0  0  0  0  0  0  0  0  0
   -2.6222    8.5218  -23.9836 C   0  0  0  0  0  0  0  0  0  0  0  0
   -2.9644    8.7333  -25.2974 O   0  0  0  0  0  0  0  0  0  0  0  0
   -4.1275    8.0689  -25.7750 C   0  0  0  0  0  0  0  0  0  0  0  0
  1  2  1  0
  2  3  1  0
  3  4  2  0
  4  5  1  0
  5  6  2  0
  6  7  1  0
  7  8  1  0
  8  9  1  1
  8 10  1  0
 10 11  1  0
  8 12  1  0
 12 13  1  0
 13 14  2  0
 13 15  1  0
 15 16  2  0
 16 17  1  0
 17 18  1  0
 17 19  2  0
 19 20  1  0
 20 21  1  0
 21 22  2  0
 22 23  1  0
 23 24  1  0
  6 25  1  0
 25 26  2  0
 26 27  1  0
 27 28  1  0
 26  3  1  0
 24 15  1  0
 24 20  2  0
M  END
>  <fragmenstein_outcome>  (567) 
nan

>  <exports>  (567) 
['/opt/xchem-fragalysis-2/maxwin/openbind-hippo/xx01zvns2b/cycle_01/syndirella/elabs/openbind_xx01zvns2b_c1_elab_chemspace_filtered.sdf']

>  <Energy>  (567) 
nan

>  <alias>  (567) 
None

>  <fragmenstein_runtime>  (567) 
nan

>  <scratch_subdir>  (567) 
nan

>  <HIPPO Compound ID>  (567) 
145829

>  <rmsd(smina/fragmenstein)>  (567) 
1.98

>  <distance_score>  (567) 
0.770323

>  <orig_smiles>  (567) 
nan

>  <fragmenstein_mode>  (567) 
nan

>  <inchikey>  (567) 
JNVQTWJACMBWPL-JOCHJYFZSA-N

>  <ref_pdb>  (567) 
Z0101a

>  <GNINA pK>  (567) 
nan

>  <gnina_score_min>  (567) 
5.415

>  <tags>  (567) 
openbind_xx01zvns2b_c1_elab_nonasap_filtered_scored_top80percent,openbind_xx01zvns2b_c1_elab_chemspace_filtered_scored_top80percent,openbind_xx01zvns2b_c1_elab_chemspace_filtered_scored,openbind_xx01zvns2b_c1_elab_chemspace_filtered_scored_top40percent,openbind_xx01zvns2b_c1_elab_chemspace_filtered_scored_top20percent,openbind_xx01zvns2b_c1_elab_chemspace_filtered_scored_top60percent,openbind_xx01zvns2b_c1_elabs_filtered

>  <smiles>  (567) 
COc1ccc(C[C@](C)(CO)NC(=O)c2cc(C)cc3cc[nH]c23)cc1OC

>  <subsites>  (567) 
1 - Z4590/B/203/1

>  <gnina_score>  (567) 
5.3

>  <HIPPO Pose ID>  (567) 
72454

>  <ref_mols>  (567) 
Z0827a,Z0101a

>  <energy_score>  (567) 
-100.401497

>  <inspiration_score>  (567) 
None

>  <smina_score_min>  (567) 
-6.95

>  <fragmenstein_error>  (567) 
nan

>  <name>  (567) 
P72454

$$$$
P72459
     RDKit          3D

 28 30  0  0  0  0  0  0  0  0999 V2000
    0.3056    9.7313  -25.1442 C   0  0  0  0  0  0  0  0  0  0  0  0
   -0.9927    9.1967  -25.3549 O   0  0  0  0  0  0  0  0  0  0  0  0
   -1.6683    8.7209  -24.2584 C   0  0  0  0  0  0  0  0  0  0  0  0
   -1.1208    8.6175  -22.9751 C   0  0  0  0  0  0  0  0  0  0  0  0
   -1.8806    8.1101  -21.9170 C   0  0  0  0  0  0  0  0  0  0  0  0
   -3.2013    7.7036  -22.1223 C   0  0  0  0  0  0  0  0  0  0  0  0
   -4.0301    7.1512  -20.9827 C   0  0  0  0  0  0  0  0  0  0  0  0
   -3.9730    5.6108  -20.7450 C   0  0  2  0  0  0  0  0  0  0  0  0
   -2.6067    5.1896  -20.1878 C   0  0  0  0  0  0  0  0  0  0  0  0
   -4.2455    4.8184  -22.0431 C   0  0  0  0  0  0  0  0  0  0  0  0
   -5.4708    5.2007  -22.6557 O   0  0  0  0  0  0  0  0  0  0  0  0
   -4.9792    5.2567  -19.7250 N   0  0  0  0  0  0  0  0  0  0  0  0
   -5.3678    5.9659  -18.4152 C   0  0  0  0  0  0  0  0  0  0  0  0
   -4.9027    6.9008  -17.8946 O   0  0  0  0  0  0  0  0  0  0  0  0
   -6.4747    5.2691  -17.6847 C   0  0  0  0  0  0  0  0  0  0  0  0
   -7.5339    4.5938  -18.3049 C   0  0  0  0  0  0  0  0  0  0  0  0
   -8.5860    4.0623  -17.5585 C   0  0  0  0  0  0  0  0  0  0  0  0
   -8.6005    4.1678  -16.1641 C   0  0  0  0  0  0  0  0  0  0  0  0
   -7.5524    4.8379  -15.5069 C   0  0  0  0  0  0  0  0  0  0  0  0
   -7.2472    5.1622  -14.1619 C   0  0  0  0  0  0  0  0  0  0  0  0
   -8.2592    4.6572  -12.6727 Br  0  0  0  0  0  0  0  0  0  0  0  0
   -6.0932    5.9020  -14.1265 C   0  0  0  0  0  0  0  0  0  0  0  0
   -5.6500    6.0070  -15.4161 N   0  0  0  0  0  0  0  0  0  0  0  0
   -6.5216    5.3720  -16.2807 C   0  0  0  0  0  0  0  0  0  0  0  0
   -3.7525    7.8186  -23.4079 C   0  0  0  0  0  0  0  0  0  0  0  0
   -2.9941    8.3034  -24.4796 C   0  0  0  0  0  0  0  0  0  0  0  0
   -3.4691    8.4229  -25.7632 O   0  0  0  0  0  0  0  0  0  0  0  0
   -4.6688    7.7252  -26.0758 C   0  0  0  0  0  0  0  0  0  0  0  0
  1  2  1  0
  2  3  1  0
  3  4  2  0
  4  5  1  0
  5  6  2  0
  6  7  1  0
  7  8  1  0
  8  9  1  1
  8 10  1  0
 10 11  1  0
  8 12  1  0
 12 13  1  0
 13 14  2  0
 13 15  1  0
 15 16  2  0
 16 17  1  0
 17 18  2  0
 18 19  1  0
 19 20  1  0
 20 21  1  0
 20 22  2  0
 22 23  1  0
 23 24  1  0
  6 25  1  0
 25 26  2  0
 26 27  1  0
 27 28  1  0
 26  3  1  0
 24 15  1  0
 24 19  2  0
M  END
>  <fragmenstein_outcome>  (568) 
nan

>  <exports>  (568) 
['/opt/xchem-fragalysis-2/maxwin/openbind-hippo/xx01zvns2b/cycle_01/syndirella/elabs/openbind_xx01zvns2b_c1_elab_chemspace_filtered.sdf']

>  <Energy>  (568) 
nan

>  <alias>  (568) 
None

>  <fragmenstein_runtime>  (568) 
nan

>  <scratch_subdir>  (568) 
nan

>  <HIPPO Compound ID>  (568) 
145831

>  <rmsd(smina/fragmenstein)>  (568) 
1.183

>  <distance_score>  (568) 
0.668937

>  <orig_smiles>  (568) 
nan

>  <fragmenstein_mode>  (568) 
nan

>  <inchikey>  (568) 
KFLXQJXYKDSZKR-OAQYLSRUSA-N

>  <ref_pdb>  (568) 
Z0101a

>  <GNINA pK>  (568) 
nan

>  <gnina_score_min>  (568) 
5.238

>  <tags>  (568) 
openbind_xx01zvns2b_c1_elab_nonasap_filtered_scored_top80percent,openbind_xx01zvns2b_c1_elab_chemspace_filtered_scored_top80percent,openbind_xx01zvns2b_c1_elab_chemspace_filtered_scored,openbind_xx01zvns2b_c1_elab_chemspace_filtered_scored_top40percent,openbind_xx01zvns2b_c1_elab_chemspace_filtered_scored_top20percent,openbind_xx01zvns2b_c1_elab_chemspace_filtered_scored_top60percent,openbind_xx01zvns2b_c1_elabs_filtered

>  <smiles>  (568) 
COc1ccc(C[C@](C)(CO)NC(=O)c2cccc3c(Br)c[nH]c23)cc1OC

>  <subsites>  (568) 
1 - Z4590/B/203/1

>  <gnina_score>  (568) 
5.353

>  <HIPPO Pose ID>  (568) 
72459

>  <ref_mols>  (568) 
Z0827a,Z0101a

>  <energy_score>  (568) 
-16.416334

>  <inspiration_score>  (568) 
None

>  <smina_score_min>  (568) 
-5.996

>  <fragmenstein_error>  (568) 
nan

>  <name>  (568) 
P72459

$$$$
P72461
     RDKit          3D

 28 30  0  0  0  0  0  0  0  0999 V2000
    0.5812    9.4728  -24.7339 C   0  0  0  0  0  0  0  0  0  0  0  0
   -0.7634    9.0867  -24.9765 O   0  0  0  0  0  0  0  0  0  0  0  0
   -1.4913    8.6192  -23.9104 C   0  0  0  0  0  0  0  0  0  0  0  0
   -0.9834    8.4469  -22.6186 C   0  0  0  0  0  0  0  0  0  0  0  0
   -1.7980    7.9552  -21.5942 C   0  0  0  0  0  0  0  0  0  0  0  0
   -3.1349    7.6325  -21.8412 C   0  0  0  0  0  0  0  0  0  0  0  0
   -4.0207    7.0953  -20.7368 C   0  0  0  0  0  0  0  0  0  0  0  0
   -4.0439    5.5459  -20.5299 C   0  0  2  0  0  0  0  0  0  0  0  0
   -2.7005    5.0537  -19.9706 C   0  0  0  0  0  0  0  0  0  0  0  0
   -4.3250    4.8064  -21.8627 C   0  0  0  0  0  0  0  0  0  0  0  0
   -5.4830    5.2914  -22.5289 O   0  0  0  0  0  0  0  0  0  0  0  0
   -5.0748    5.2101  -19.5118 N   0  0  0  0  0  0  0  0  0  0  0  0
   -5.5115    5.9671  -18.2406 C   0  0  0  0  0  0  0  0  0  0  0  0
   -5.1861    7.0109  -17.8327 O   0  0  0  0  0  0  0  0  0  0  0  0
   -6.4909    5.2141  -17.4048 C   0  0  0  0  0  0  0  0  0  0  0  0
   -6.3807    5.3106  -16.0082 C   0  0  0  0  0  0  0  0  0  0  0  0
   -7.4013    4.8577  -15.1796 C   0  0  0  0  0  0  0  0  0  0  0  0
   -7.3304    5.2168  -13.3280 Br  0  0  0  0  0  0  0  0  0  0  0  0
   -8.5491    4.2664  -15.6975 C   0  0  0  0  0  0  0  0  0  0  0  0
   -8.6965    4.1748  -17.0881 C   0  0  0  0  0  0  0  0  0  0  0  0
   -9.7946    3.8226  -17.9187 C   0  0  0  0  0  0  0  0  0  0  0  0
   -9.4038    4.0407  -19.2093 C   0  0  0  0  0  0  0  0  0  0  0  0
   -8.1128    4.4784  -19.1929 N   0  0  0  0  0  0  0  0  0  0  0  0
   -7.6584    4.6261  -17.9124 C   0  0  0  0  0  0  0  0  0  0  0  0
   -3.6464    7.8200  -23.1343 C   0  0  0  0  0  0  0  0  0  0  0  0
   -2.8336    8.2887  -24.1731 C   0  0  0  0  0  0  0  0  0  0  0  0
   -3.2728    8.4756  -25.4616 O   0  0  0  0  0  0  0  0  0  0  0  0
   -4.4626    7.7921  -25.8375 C   0  0  0  0  0  0  0  0  0  0  0  0
  1  2  1  0
  2  3  1  0
  3  4  2  0
  4  5  1  0
  5  6  2  0
  6  7  1  0
  7  8  1  0
  8  9  1  1
  8 10  1  0
 10 11  1  0
  8 12  1  0
 12 13  1  0
 13 14  2  0
 13 15  1  0
 15 16  2  0
 16 17  1  0
 17 18  1  0
 17 19  2  0
 19 20  1  0
 20 21  1  0
 21 22  2  0
 22 23  1  0
 23 24  1  0
  6 25  1  0
 25 26  2  0
 26 27  1  0
 27 28  1  0
 26  3  1  0
 24 15  1  0
 24 20  2  0
M  END
>  <fragmenstein_outcome>  (569) 
nan

>  <exports>  (569) 
['/opt/xchem-fragalysis-2/maxwin/openbind-hippo/xx01zvns2b/cycle_01/syndirella/elabs/openbind_xx01zvns2b_c1_elab_chemspace_filtered.sdf']

>  <Energy>  (569) 
nan

>  <alias>  (569) 
None

>  <fragmenstein_runtime>  (569) 
nan

>  <scratch_subdir>  (569) 
nan

>  <HIPPO Compound ID>  (569) 
145832

>  <rmsd(smina/fragmenstein)>  (569) 
1.152

>  <distance_score>  (569) 
0.672651

>  <orig_smiles>  (569) 
nan

>  <fragmenstein_mode>  (569) 
nan

>  <inchikey>  (569) 
HYCNNPKMAVVGTJ-OAQYLSRUSA-N

>  <ref_pdb>  (569) 
Z0101a

>  <GNINA pK>  (569) 
nan

>  <gnina_score_min>  (569) 
5.508

>  <tags>  (569) 
openbind_xx01zvns2b_c1_elab_nonasap_filtered_scored_top80percent,openbind_xx01zvns2b_c1_elab_chemspace_filtered_scored_top80percent,openbind_xx01zvns2b_c1_elab_chemspace_filtered_scored,openbind_xx01zvns2b_c1_elab_chemspace_filtered_scored_top40percent,openbind_xx01zvns2b_c1_elab_chemspace_filtered_scored_top20percent,openbind_xx01zvns2b_c1_elab_chemspace_filtered_scored_top60percent,openbind_xx01zvns2b_c1_elabs_filtered

>  <smiles>  (569) 
COc1ccc(C[C@](C)(CO)NC(=O)c2cc(Br)cc3cc[nH]c23)cc1OC

>  <subsites>  (569) 
1 - Z4590/B/203/1

>  <gnina_score>  (569) 
5.517

>  <HIPPO Pose ID>  (569) 
72461

>  <ref_mols>  (569) 
Z0827a,Z0101a

>  <energy_score>  (569) 
-10.077055

>  <inspiration_score>  (569) 
None

>  <smina_score_min>  (569) 
-6.929

>  <fragmenstein_error>  (569) 
nan

>  <name>  (569) 
P72461

$$$$
P72473
     RDKit          3D

 29 31  0  0  0  0  0  0  0  0999 V2000
    0.2007   10.3042  -25.3690 C   0  0  0  0  0  0  0  0  0  0  0  0
   -1.0640    9.6759  -25.5164 O   0  0  0  0  0  0  0  0  0  0  0  0
   -1.6394    9.1338  -24.3940 C   0  0  0  0  0  0  0  0  0  0  0  0
   -1.0350    9.0983  -23.1326 C   0  0  0  0  0  0  0  0  0  0  0  0
   -1.6939    8.5179  -22.0449 C   0  0  0  0  0  0  0  0  0  0  0  0
   -2.9697    7.9701  -22.1984 C   0  0  0  0  0  0  0  0  0  0  0  0
   -3.6906    7.3415  -21.0268 C   0  0  0  0  0  0  0  0  0  0  0  0
   -3.4555    5.8220  -20.7973 C   0  0  2  0  0  0  0  0  0  0  0  0
   -2.0542    5.5283  -20.2746 C   0  0  0  0  0  0  0  0  0  0  0  0
   -3.7341    4.9901  -22.0837 C   0  0  0  0  0  0  0  0  0  0  0  0
   -5.0577    5.1881  -22.5989 O   0  0  0  0  0  0  0  0  0  0  0  0
   -4.3999    5.3553  -19.7866 N   0  0  0  0  0  0  0  0  0  0  0  0
   -4.8263    5.9878  -18.4442 C   0  0  0  0  0  0  0  0  0  0  0  0
   -4.4335    6.9414  -17.8993 O   0  0  0  0  0  0  0  0  0  0  0  0
   -5.9891    5.2520  -17.8748 C   0  0  0  0  0  0  0  0  0  0  0  0
   -6.8768    4.6115  -18.7398 C   0  0  0  0  0  0  0  0  0  0  0  0
   -8.0630    4.0816  -18.3058 C   0  0  0  0  0  0  0  0  0  0  0  0
   -8.4428    4.1851  -16.9725 C   0  0  0  0  0  0  0  0  0  0  0  0
   -9.6808    3.7538  -16.5779 O   0  0  0  0  0  0  0  0  0  0  0  0
  -10.6506    3.8958  -17.6200 C   0  0  0  0  0  0  0  0  0  0  0  0
   -7.5614    4.7908  -16.0465 C   0  0  0  0  0  0  0  0  0  0  0  0
   -7.6182    5.0824  -14.6516 C   0  0  0  0  0  0  0  0  0  0  0  0
   -6.4818    5.7869  -14.3193 C   0  0  0  0  0  0  0  0  0  0  0  0
   -5.7271    5.9255  -15.4560 N   0  0  0  0  0  0  0  0  0  0  0  0
   -6.3556    5.3229  -16.5228 C   0  0  0  0  0  0  0  0  0  0  0  0
   -3.5792    8.0149  -23.4621 C   0  0  0  0  0  0  0  0  0  0  0  0
   -2.9198    8.5740  -24.5627 C   0  0  0  0  0  0  0  0  0  0  0  0
   -3.4552    8.6360  -25.8263 O   0  0  0  0  0  0  0  0  0  0  0  0
   -4.5712    7.7963  -26.0968 C   0  0  0  0  0  0  0  0  0  0  0  0
  1  2  1  0
  2  3  1  0
  3  4  2  0
  4  5  1  0
  5  6  2  0
  6  7  1  0
  7  8  1  0
  8  9  1  1
  8 10  1  0
 10 11  1  0
  8 12  1  0
 12 13  1  0
 13 14  2  0
 13 15  1  0
 15 16  2  0
 16 17  1  0
 17 18  2  0
 18 19  1  0
 19 20  1  0
 18 21  1  0
 21 22  1  0
 22 23  2  0
 23 24  1  0
 24 25  1  0
  6 26  1  0
 26 27  2  0
 27 28  1  0
 28 29  1  0
 27  3  1  0
 25 15  1  0
 25 21  2  0
M  END
>  <fragmenstein_outcome>  (570) 
nan

>  <exports>  (570) 
['/opt/xchem-fragalysis-2/maxwin/openbind-hippo/xx01zvns2b/cycle_01/syndirella/elabs/openbind_xx01zvns2b_c1_elab_chemspace_filtered.sdf']

>  <Energy>  (570) 
nan

>  <alias>  (570) 
None

>  <fragmenstein_runtime>  (570) 
nan

>  <scratch_subdir>  (570) 
nan

>  <HIPPO Compound ID>  (570) 
145838

>  <rmsd(smina/fragmenstein)>  (570) 
1.516

>  <distance_score>  (570) 
1.036533

>  <orig_smiles>  (570) 
nan

>  <fragmenstein_mode>  (570) 
nan

>  <inchikey>  (570) 
OTCNYKTXKOKNDP-JOCHJYFZSA-N

>  <ref_pdb>  (570) 
Z0101a

>  <GNINA pK>  (570) 
nan

>  <gnina_score_min>  (570) 
5.391

>  <tags>  (570) 
openbind_xx01zvns2b_c1_elab_nonasap_filtered_scored_top80percent,openbind_xx01zvns2b_c1_elab_chemspace_filtered_scored_top80percent,openbind_xx01zvns2b_c1_elab_chemspace_filtered_scored,openbind_xx01zvns2b_c1_elab_chemspace_filtered_scored_top40percent,openbind_xx01zvns2b_c1_elab_chemspace_filtered_scored_top20percent,openbind_xx01zvns2b_c1_elab_chemspace_filtered_scored_top60percent,openbind_xx01zvns2b_c1_elabs_filtered

>  <smiles>  (570) 
COc1ccc(C[C@](C)(CO)NC(=O)c2ccc(OC)c3cc[nH]c23)cc1OC

>  <subsites>  (570) 
1 - Z4590/B/203/1

>  <gnina_score>  (570) 
5.292

>  <HIPPO Pose ID>  (570) 
72473

>  <ref_mols>  (570) 
Z0101a,Z0827a

>  <energy_score>  (570) 
-7.58991

>  <inspiration_score>  (570) 
None

>  <smina_score_min>  (570) 
-6.028

>  <fragmenstein_error>  (570) 
nan

>  <name>  (570) 
P72473

$$$$
P72474
     RDKit          3D

 30 32  0  0  0  0  0  0  0  0999 V2000
   -6.1471    5.6571  -11.4219 C   0  0  0  0  0  0  0  0  0  0  0  0
   -5.5822    6.1696  -12.7387 C   0  0  0  0  0  0  0  0  0  0  0  0
   -6.3126    5.6633  -13.9364 C   0  0  0  0  0  0  0  0  0  0  0  0
   -7.5128    4.9949  -14.0667 C   0  0  0  0  0  0  0  0  0  0  0  0
   -7.7324    4.7493  -15.4459 C   0  0  0  0  0  0  0  0  0  0  0  0
   -8.7836    4.1702  -16.1651 C   0  0  0  0  0  0  0  0  0  0  0  0
   -8.7217    4.1635  -17.5558 C   0  0  0  0  0  0  0  0  0  0  0  0
  -10.1064    3.6687  -18.4353 Cl  0  0  0  0  0  0  0  0  0  0  0  0
   -7.6136    4.6517  -18.2427 C   0  0  0  0  0  0  0  0  0  0  0  0
   -6.5393    5.2200  -17.5500 C   0  0  0  0  0  0  0  0  0  0  0  0
   -5.3747    5.8842  -18.2162 C   0  0  0  0  0  0  0  0  0  0  0  0
   -4.8473    6.7380  -17.6204 O   0  0  0  0  0  0  0  0  0  0  0  0
   -5.0190    5.2462  -19.5739 N   0  0  0  0  0  0  0  0  0  0  0  0
   -3.9713    5.5954  -20.5518 C   0  0  2  0  0  0  0  0  0  0  0  0
   -3.9467    7.1204  -20.7582 C   0  0  0  0  0  0  0  0  0  0  0  0
   -4.2903    4.9217  -21.9209 C   0  0  0  0  0  0  0  0  0  0  0  0
   -5.4521    5.4460  -22.5472 O   0  0  0  0  0  0  0  0  0  0  0  0
   -2.6117    5.0056  -20.0652 C   0  0  0  0  0  0  0  0  0  0  0  0
   -1.6314    5.9194  -19.3637 C   0  0  0  0  0  0  0  0  0  0  0  0
   -0.6000    6.5292  -20.0875 C   0  0  0  0  0  0  0  0  0  0  0  0
    0.3396    7.3425  -19.4490 C   0  0  0  0  0  0  0  0  0  0  0  0
    0.2633    7.5624  -18.0714 C   0  0  0  0  0  0  0  0  0  0  0  0
    1.1432    8.3383  -17.3579 O   0  0  0  0  0  0  0  0  0  0  0  0
    2.2077    8.9494  -18.0718 C   0  0  0  0  0  0  0  0  0  0  0  0
   -0.7777    6.9659  -17.3347 C   0  0  0  0  0  0  0  0  0  0  0  0
   -0.7810    7.2080  -15.9817 O   0  0  0  0  0  0  0  0  0  0  0  0
   -2.0045    6.9796  -15.2982 C   0  0  0  0  0  0  0  0  0  0  0  0
   -1.7103    6.1459  -17.9848 C   0  0  0  0  0  0  0  0  0  0  0  0
   -6.6450    5.2638  -16.1446 C   0  0  0  0  0  0  0  0  0  0  0  0
   -5.8027    5.8183  -15.2046 N   0  0  0  0  0  0  0  0  0  0  0  0
  1  2  1  0
  2  3  1  0
  3  4  2  0
  4  5  1  0
  5  6  2  0
  6  7  1  0
  7  8  1  0
  7  9  2  0
  9 10  1  0
 10 11  1  0
 11 12  2  0
 11 13  1  0
 14 13  1  0
 14 15  1  6
 14 16  1  0
 16 17  1  0
 14 18  1  0
 18 19  1  0
 19 20  2  0
 20 21  1  0
 21 22  2  0
 22 23  1  0
 23 24  1  0
 22 25  1  0
 25 26  1  0
 26 27  1  0
 25 28  2  0
 10 29  2  0
 29 30  1  0
 30  3  1  0
 29  5  1  0
 28 19  1  0
M  END
>  <fragmenstein_outcome>  (571) 
nan

>  <exports>  (571) 
['/opt/xchem-fragalysis-2/maxwin/openbind-hippo/xx01zvns2b/cycle_01/syndirella/elabs/openbind_xx01zvns2b_c1_elab_chemspace_filtered.sdf']

>  <Energy>  (571) 
nan

>  <alias>  (571) 
None

>  <fragmenstein_runtime>  (571) 
nan

>  <scratch_subdir>  (571) 
nan

>  <HIPPO Compound ID>  (571) 
145839

>  <rmsd(smina/fragmenstein)>  (571) 
0.736

>  <distance_score>  (571) 
0.692655

>  <orig_smiles>  (571) 
nan

>  <fragmenstein_mode>  (571) 
nan

>  <inchikey>  (571) 
RVGPGMDWGYYQBT-QHCPKHFHSA-N

>  <ref_pdb>  (571) 
Z0101a

>  <GNINA pK>  (571) 
nan

>  <gnina_score_min>  (571) 
6.076

>  <tags>  (571) 
openbind_xx01zvns2b_c1_elab_nonasap_filtered_scored_top80percent,openbind_xx01zvns2b_c1_elab_chemspace_filtered_scored_top80percent,openbind_xx01zvns2b_c1_elab_chemspace_filtered_scored,openbind_xx01zvns2b_c1_elab_chemspace_filtered_scored_top40percent,openbind_xx01zvns2b_c1_elab_chemspace_filtered_scored_top20percent,openbind_xx01zvns2b_c1_elab_chemspace_filtered_scored_top60percent,openbind_xx01zvns2b_c1_elabs_filtered

>  <smiles>  (571) 
CCc1cc2cc(Cl)cc(C(=O)N[C@](C)(CO)Cc3ccc(OC)c(OC)c3)c2[nH]1

>  <subsites>  (571) 
1 - Z4590/B/203/1

>  <gnina_score>  (571) 
5.91

>  <HIPPO Pose ID>  (571) 
72474

>  <ref_mols>  (571) 
Z0827a,Z0101a

>  <energy_score>  (571) 
-25.881055

>  <inspiration_score>  (571) 
None

>  <smina_score_min>  (571) 
-6.367

>  <fragmenstein_error>  (571) 
nan

>  <name>  (571) 
P72474

$$$$
P72479
     RDKit          3D

 30 33  0  0  0  0  0  0  0  0999 V2000
   -0.4095    9.7211  -25.6297 C   0  0  0  0  0  0  0  0  0  0  0  0
   -0.0624    9.3307  -24.3087 O   0  0  0  0  0  0  0  0  0  0  0  0
   -1.0561    8.8043  -23.5268 C   0  0  0  0  0  0  0  0  0  0  0  0
   -2.3694    8.5765  -23.9430 C   0  0  0  0  0  0  0  0  0  0  0  0
   -3.3132    8.0408  -23.0572 C   0  0  0  0  0  0  0  0  0  0  0  0
   -2.9670    7.7310  -21.7357 C   0  0  0  0  0  0  0  0  0  0  0  0
   -3.9845    7.1373  -20.7889 C   0  0  0  0  0  0  0  0  0  0  0  0
   -4.0472    5.5852  -20.7164 C   0  0  2  0  0  0  0  0  0  0  0  0
   -2.7186    5.0071  -20.1957 C   0  0  0  0  0  0  0  0  0  0  0  0
   -4.3282    4.9345  -22.0927 C   0  0  0  0  0  0  0  0  0  0  0  0
   -5.4484    5.5100  -22.7534 O   0  0  0  0  0  0  0  0  0  0  0  0
   -5.1269    5.2312  -19.7715 N   0  0  0  0  0  0  0  0  0  0  0  0
   -5.0968    5.0419  -18.2406 C   0  0  0  0  0  0  0  0  0  0  0  0
   -4.1996    5.0598  -17.4934 O   0  0  0  0  0  0  0  0  0  0  0  0
   -6.4609    4.8101  -17.6466 C   0  0  0  0  0  0  0  0  0  0  0  0
   -7.5787    4.3249  -18.3477 C   0  0  0  0  0  0  0  0  0  0  0  0
   -8.7898    4.0667  -17.7028 C   0  0  0  0  0  0  0  0  0  0  0  0
   -8.9252    4.2826  -16.3307 C   0  0  0  0  0  0  0  0  0  0  0  0
   -7.8488    4.8018  -15.5985 C   0  0  0  0  0  0  0  0  0  0  0  0
   -7.6380    5.1640  -14.2594 C   0  0  0  0  0  0  0  0  0  0  0  0
   -6.3297    5.5064  -14.1117 C   0  0  0  0  0  0  0  0  0  0  0  0
   -5.7100    5.4572  -15.3114 N   0  0  0  0  0  0  0  0  0  0  0  0
   -6.6347    5.0344  -16.2636 C   0  0  0  0  0  0  0  0  0  0  0  0
   -5.9111    5.8188  -12.7369 C   0  0  0  0  0  0  0  0  0  0  0  0
   -7.2963    5.9397  -12.0443 C   0  0  0  0  0  0  0  0  0  0  0  0
   -8.3457    5.2390  -12.9734 C   0  0  0  0  0  0  0  0  0  0  0  0
   -1.6552    7.9714  -21.3143 C   0  0  0  0  0  0  0  0  0  0  0  0
   -0.7072    8.4733  -22.2098 C   0  0  0  0  0  0  0  0  0  0  0  0
    0.5629    8.6760  -21.7267 O   0  0  0  0  0  0  0  0  0  0  0  0
    1.4097    7.5959  -22.1239 C   0  0  0  0  0  0  0  0  0  0  0  0
  1  2  1  0
  2  3  1  0
  3  4  2  0
  4  5  1  0
  5  6  2  0
  6  7  1  0
  7  8  1  0
  8  9  1  1
  8 10  1  0
 10 11  1  0
  8 12  1  0
 12 13  1  0
 13 14  2  0
 13 15  1  0
 15 16  2  0
 16 17  1  0
 17 18  2  0
 18 19  1  0
 19 20  1  0
 20 21  2  0
 21 22  1  0
 22 23  1  0
 21 24  1  0
 24 25  1  0
 25 26  1  0
  6 27  1  0
 27 28  2  0
 28 29  1  0
 29 30  1  0
 28  3  1  0
 23 15  1  0
 23 19  2  0
 26 20  1  0
M  END
>  <fragmenstein_outcome>  (572) 
nan

>  <exports>  (572) 
['/opt/xchem-fragalysis-2/maxwin/openbind-hippo/xx01zvns2b/cycle_01/syndirella/elabs/openbind_xx01zvns2b_c1_elab_chemspace_filtered.sdf']

>  <Energy>  (572) 
nan

>  <alias>  (572) 
None

>  <fragmenstein_runtime>  (572) 
nan

>  <scratch_subdir>  (572) 
nan

>  <HIPPO Compound ID>  (572) 
145842

>  <rmsd(smina/fragmenstein)>  (572) 
1.602

>  <distance_score>  (572) 
1.063467

>  <orig_smiles>  (572) 
nan

>  <fragmenstein_mode>  (572) 
nan

>  <inchikey>  (572) 
DVYAPWDQSGBZIJ-XMMPIXPASA-N

>  <ref_pdb>  (572) 
Z0101a

>  <GNINA pK>  (572) 
nan

>  <gnina_score_min>  (572) 
5.569

>  <tags>  (572) 
openbind_xx01zvns2b_c1_elab_nonasap_filtered_scored_top80percent,openbind_xx01zvns2b_c1_elab_chemspace_filtered_scored_top80percent,openbind_xx01zvns2b_c1_elab_chemspace_filtered_scored,openbind_xx01zvns2b_c1_elab_chemspace_filtered_scored_top40percent,openbind_xx01zvns2b_c1_elab_chemspace_filtered_scored_top20percent,openbind_xx01zvns2b_c1_elab_chemspace_filtered_scored_top60percent,openbind_xx01zvns2b_c1_elabs_filtered

>  <smiles>  (572) 
COc1ccc(C[C@](C)(CO)NC(=O)c2cccc3c4c([nH]c23)CCC4)cc1OC

>  <subsites>  (572) 
1 - Z4590/B/203/1

>  <gnina_score>  (572) 
5.411

>  <HIPPO Pose ID>  (572) 
72479

>  <ref_mols>  (572) 
Z0827a,Z0101a

>  <energy_score>  (572) 
-31.501496

>  <inspiration_score>  (572) 
None

>  <smina_score_min>  (572) 
-6.67

>  <fragmenstein_error>  (572) 
nan

>  <name>  (572) 
P72479

$$$$
P72481
     RDKit          3D

 30 32  0  0  0  0  0  0  0  0999 V2000
   -0.8646    9.0700  -26.9033 C   0  0  0  0  0  0  0  0  0  0  0  0
   -0.3211    8.8271  -25.6134 O   0  0  0  0  0  0  0  0  0  0  0  0
   -1.1923    8.4521  -24.6253 C   0  0  0  0  0  0  0  0  0  0  0  0
   -2.5531    8.1980  -24.8102 C   0  0  0  0  0  0  0  0  0  0  0  0
   -3.3607    7.8270  -23.7274 C   0  0  0  0  0  0  0  0  0  0  0  0
   -2.8270    7.7101  -22.4373 C   0  0  0  0  0  0  0  0  0  0  0  0
   -3.6999    7.2866  -21.2761 C   0  0  0  0  0  0  0  0  0  0  0  0
   -3.7198    5.7656  -20.9520 C   0  0  2  0  0  0  0  0  0  0  0  0
   -2.3767    5.2855  -20.3980 C   0  0  0  0  0  0  0  0  0  0  0  0
   -4.0989    4.9148  -22.1874 C   0  0  0  0  0  0  0  0  0  0  0  0
   -5.3519    5.3079  -22.7422 O   0  0  0  0  0  0  0  0  0  0  0  0
   -4.7147    5.5223  -19.9047 N   0  0  0  0  0  0  0  0  0  0  0  0
   -4.9665    6.2550  -18.5762 C   0  0  0  0  0  0  0  0  0  0  0  0
   -4.4736    7.2160  -18.1381 O   0  0  0  0  0  0  0  0  0  0  0  0
   -6.0211    5.5815  -17.7732 C   0  0  0  0  0  0  0  0  0  0  0  0
   -7.0778    4.8727  -18.3598 C   0  0  0  0  0  0  0  0  0  0  0  0
   -8.0776    4.3099  -17.5914 C   0  0  0  0  0  0  0  0  0  0  0  0
   -8.0510    4.4435  -16.2015 C   0  0  0  0  0  0  0  0  0  0  0  0
   -9.1058    3.8007  -15.3964 C   0  0  0  0  0  0  0  0  0  0  0  0
   -7.0069    5.1470  -15.5723 C   0  0  0  0  0  0  0  0  0  0  0  0
   -6.6951    5.4604  -14.2146 C   0  0  0  0  0  0  0  0  0  0  0  0
   -7.4142    5.0451  -13.0455 C   0  0  0  0  0  0  0  0  0  0  0  0
   -8.0103    4.6932  -12.1141 N   0  0  0  0  0  0  0  0  0  0  0  0
   -5.5625    6.2447  -14.2258 C   0  0  0  0  0  0  0  0  0  0  0  0
   -5.1571    6.3771  -15.5313 N   0  0  0  0  0  0  0  0  0  0  0  0
   -6.0191    5.7068  -16.3731 C   0  0  0  0  0  0  0  0  0  0  0  0
   -1.4675    7.9789  -22.2489 C   0  0  0  0  0  0  0  0  0  0  0  0
   -0.6569    8.3144  -23.3367 C   0  0  0  0  0  0  0  0  0  0  0  0
    0.6696    8.5571  -23.0741 O   0  0  0  0  0  0  0  0  0  0  0  0
    1.4538    7.4178  -23.4324 C   0  0  0  0  0  0  0  0  0  0  0  0
  1  2  1  0
  2  3  1  0
  3  4  2  0
  4  5  1  0
  5  6  2  0
  6  7  1  0
  7  8  1  0
  8  9  1  1
  8 10  1  0
 10 11  1  0
  8 12  1  0
 12 13  1  0
 13 14  2  0
 13 15  1  0
 15 16  2  0
 16 17  1  0
 17 18  2  0
 18 19  1  0
 18 20  1  0
 20 21  1  0
 21 22  1  0
 22 23  3  0
 21 24  2  0
 24 25  1  0
 25 26  1  0
  6 27  1  0
 27 28  2  0
 28 29  1  0
 29 30  1  0
 28  3  1  0
 26 15  1  0
 26 20  2  0
M  END
>  <fragmenstein_outcome>  (573) 
nan

>  <exports>  (573) 
['/opt/xchem-fragalysis-2/maxwin/openbind-hippo/xx01zvns2b/cycle_01/syndirella/elabs/openbind_xx01zvns2b_c1_elab_chemspace_filtered.sdf']

>  <Energy>  (573) 
nan

>  <alias>  (573) 
None

>  <fragmenstein_runtime>  (573) 
nan

>  <scratch_subdir>  (573) 
nan

>  <HIPPO Compound ID>  (573) 
145843

>  <rmsd(smina/fragmenstein)>  (573) 
2.435

>  <distance_score>  (573) 
1.042593

>  <orig_smiles>  (573) 
nan

>  <fragmenstein_mode>  (573) 
nan

>  <inchikey>  (573) 
BCASLVJRBZBEEO-HSZRJFAPSA-N

>  <ref_pdb>  (573) 
Z0101a

>  <GNINA pK>  (573) 
nan

>  <gnina_score_min>  (573) 
5.362

>  <tags>  (573) 
openbind_xx01zvns2b_c1_elab_nonasap_filtered_scored_top80percent,openbind_xx01zvns2b_c1_elab_chemspace_filtered_scored_top80percent,openbind_xx01zvns2b_c1_elab_chemspace_filtered_scored,openbind_xx01zvns2b_c1_elab_chemspace_filtered_scored_top40percent,openbind_xx01zvns2b_c1_elab_chemspace_filtered_scored_top20percent,openbind_xx01zvns2b_c1_elab_chemspace_filtered_scored_top60percent,openbind_xx01zvns2b_c1_elabs_filtered

>  <smiles>  (573) 
COc1ccc(C[C@](C)(CO)NC(=O)c2ccc(C)c3c(C#N)c[nH]c23)cc1OC

>  <subsites>  (573) 
1 - Z4590/B/203/1

>  <gnina_score>  (573) 
5.436

>  <HIPPO Pose ID>  (573) 
72481

>  <ref_mols>  (573) 
Z0827a,Z0101a

>  <energy_score>  (573) 
-14.537467

>  <inspiration_score>  (573) 
None

>  <smina_score_min>  (573) 
-5.553

>  <fragmenstein_error>  (573) 
nan

>  <name>  (573) 
P72481

$$$$
P72483
     RDKit          3D

 30 32  0  0  0  0  0  0  0  0999 V2000
    1.1143   10.1117  -24.8559 C   0  0  0  0  0  0  0  0  0  0  0  0
   -0.1298    9.5120  -25.1849 O   0  0  0  0  0  0  0  0  0  0  0  0
   -0.9054    9.0489  -24.1508 C   0  0  0  0  0  0  0  0  0  0  0  0
   -0.5117    9.0420  -22.8086 C   0  0  0  0  0  0  0  0  0  0  0  0
   -1.3659    8.5437  -21.8210 C   0  0  0  0  0  0  0  0  0  0  0  0
   -2.6287    8.0483  -22.1572 C   0  0  0  0  0  0  0  0  0  0  0  0
   -3.5566    7.5108  -21.0916 C   0  0  0  0  0  0  0  0  0  0  0  0
   -3.4946    5.9894  -20.8103 C   0  0  2  0  0  0  0  0  0  0  0  0
   -2.1278    5.5539  -20.2812 C   0  0  0  0  0  0  0  0  0  0  0  0
   -3.8299    5.1339  -22.0719 C   0  0  0  0  0  0  0  0  0  0  0  0
   -5.0696    5.5037  -22.6892 O   0  0  0  0  0  0  0  0  0  0  0  0
   -4.5408    5.7081  -19.8265 N   0  0  0  0  0  0  0  0  0  0  0  0
   -4.4541    5.0543  -18.4243 C   0  0  0  0  0  0  0  0  0  0  0  0
   -3.5263    4.7103  -17.8068 O   0  0  0  0  0  0  0  0  0  0  0  0
   -5.8248    4.7970  -17.9444 C   0  0  0  0  0  0  0  0  0  0  0  0
   -6.7207    4.2948  -18.8922 C   0  0  0  0  0  0  0  0  0  0  0  0
   -8.0350    4.1075  -18.5932 C   0  0  0  0  0  0  0  0  0  0  0  0
   -8.4825    4.3534  -17.3059 C   0  0  0  0  0  0  0  0  0  0  0  0
  -10.3101    4.0487  -17.2331 Br  0  0  0  0  0  0  0  0  0  0  0  0
   -7.6068    4.7871  -16.2706 C   0  0  0  0  0  0  0  0  0  0  0  0
   -7.6949    5.1541  -14.8830 C   0  0  0  0  0  0  0  0  0  0  0  0
   -8.8883    5.2744  -14.0362 C   0  0  0  0  0  0  0  0  0  0  0  0
   -6.4157    5.3568  -14.4048 C   0  0  0  0  0  0  0  0  0  0  0  0
   -5.9737    5.5987  -13.0001 C   0  0  0  0  0  0  0  0  0  0  0  0
   -5.5644    5.3060  -15.4822 N   0  0  0  0  0  0  0  0  0  0  0  0
   -6.2603    4.9732  -16.6243 C   0  0  0  0  0  0  0  0  0  0  0  0
   -3.0252    8.0617  -23.5032 C   0  0  0  0  0  0  0  0  0  0  0  0
   -2.1711    8.5426  -24.5029 C   0  0  0  0  0  0  0  0  0  0  0  0
   -2.4902    8.5742  -25.8388 O   0  0  0  0  0  0  0  0  0  0  0  0
   -3.6422    7.8495  -26.2498 C   0  0  0  0  0  0  0  0  0  0  0  0
  1  2  1  0
  2  3  1  0
  3  4  2  0
  4  5  1  0
  5  6  2  0
  6  7  1  0
  7  8  1  0
  8  9  1  1
  8 10  1  0
 10 11  1  0
  8 12  1  0
 12 13  1  0
 13 14  2  0
 13 15  1  0
 15 16  2  0
 16 17  1  0
 17 18  2  0
 18 19  1  0
 18 20  1  0
 20 21  1  0
 21 22  1  0
 21 23  2  0
 23 24  1  0
 23 25  1  0
 25 26  1  0
  6 27  1  0
 27 28  2  0
 28 29  1  0
 29 30  1  0
 28  3  1  0
 26 15  1  0
 26 20  2  0
M  END
>  <fragmenstein_outcome>  (574) 
nan

>  <exports>  (574) 
['/opt/xchem-fragalysis-2/maxwin/openbind-hippo/xx01zvns2b/cycle_01/syndirella/elabs/openbind_xx01zvns2b_c1_elab_chemspace_filtered.sdf']

>  <Energy>  (574) 
nan

>  <alias>  (574) 
None

>  <fragmenstein_runtime>  (574) 
nan

>  <scratch_subdir>  (574) 
nan

>  <HIPPO Compound ID>  (574) 
145844

>  <rmsd(smina/fragmenstein)>  (574) 
2.14

>  <distance_score>  (574) 
1.661798

>  <orig_smiles>  (574) 
nan

>  <fragmenstein_mode>  (574) 
nan

>  <inchikey>  (574) 
OFKGKQDFGVGXIS-HSZRJFAPSA-N

>  <ref_pdb>  (574) 
Z0101a

>  <GNINA pK>  (574) 
nan

>  <gnina_score_min>  (574) 
5.628

>  <tags>  (574) 
openbind_xx01zvns2b_c1_elab_nonasap_filtered_scored_top80percent,openbind_xx01zvns2b_c1_elab_chemspace_filtered_scored_top80percent,openbind_xx01zvns2b_c1_elab_chemspace_filtered_scored,openbind_xx01zvns2b_c1_elab_chemspace_filtered_scored_top40percent,openbind_xx01zvns2b_c1_elab_chemspace_filtered_scored_top20percent,openbind_xx01zvns2b_c1_elab_chemspace_filtered_scored_top60percent,openbind_xx01zvns2b_c1_elabs_filtered

>  <smiles>  (574) 
COc1ccc(C[C@](C)(CO)NC(=O)c2ccc(Br)c3c(C)c(C)[nH]c23)cc1OC

>  <subsites>  (574) 
1 - Z4590/B/203/1

>  <gnina_score>  (574) 
5.605

>  <HIPPO Pose ID>  (574) 
72483

>  <ref_mols>  (574) 
Z0827a,Z0101a

>  <energy_score>  (574) 
-22.085448

>  <inspiration_score>  (574) 
None

>  <smina_score_min>  (574) 
-5.621

>  <fragmenstein_error>  (574) 
nan

>  <name>  (574) 
P72483

$$$$
P72485
     RDKit          3D

 31 34  0  0  0  0  0  0  0  0999 V2000
    0.7455    9.7038  -24.5944 C   0  0  0  0  0  0  0  0  0  0  0  0
   -0.5388    9.2001  -24.9300 O   0  0  0  0  0  0  0  0  0  0  0  0
   -1.3181    8.7193  -23.9067 C   0  0  0  0  0  0  0  0  0  0  0  0
   -0.8904    8.5867  -22.5816 C   0  0  0  0  0  0  0  0  0  0  0  0
   -1.7515    8.0782  -21.6049 C   0  0  0  0  0  0  0  0  0  0  0  0
   -3.0555    7.6993  -21.9343 C   0  0  0  0  0  0  0  0  0  0  0  0
   -3.9914    7.1503  -20.8793 C   0  0  0  0  0  0  0  0  0  0  0  0
   -4.0020    5.6045  -20.6760 C   0  0  2  0  0  0  0  0  0  0  0  0
   -2.6710    5.1150  -20.0883 C   0  0  0  0  0  0  0  0  0  0  0  0
   -4.2659    4.8524  -22.0024 C   0  0  0  0  0  0  0  0  0  0  0  0
   -5.4474    5.3073  -22.6541 O   0  0  0  0  0  0  0  0  0  0  0  0
   -5.0596    5.2755  -19.7001 N   0  0  0  0  0  0  0  0  0  0  0  0
   -5.3582    5.8686  -18.3091 C   0  0  0  0  0  0  0  0  0  0  0  0
   -4.8635    6.7633  -17.7463 O   0  0  0  0  0  0  0  0  0  0  0  0
   -6.4819    5.1682  -17.6090 C   0  0  0  0  0  0  0  0  0  0  0  0
   -7.6031    4.6346  -18.2621 C   0  0  0  0  0  0  0  0  0  0  0  0
   -8.6758    4.1035  -17.5480 C   0  0  0  0  0  0  0  0  0  0  0  0
   -8.6526    4.0747  -16.1529 C   0  0  0  0  0  0  0  0  0  0  0  0
   -7.5332    4.5704  -15.4631 C   0  0  0  0  0  0  0  0  0  0  0  0
   -7.1799    4.6697  -14.0897 C   0  0  0  0  0  0  0  0  0  0  0  0
   -5.9511    5.2916  -14.0239 C   0  0  0  0  0  0  0  0  0  0  0  0
   -5.5386    5.5621  -15.2952 N   0  0  0  0  0  0  0  0  0  0  0  0
   -6.4812    5.1153  -16.2016 C   0  0  0  0  0  0  0  0  0  0  0  0
   -5.1818    5.5867  -12.7873 C   0  0  0  0  0  0  0  0  0  0  0  0
   -6.1112    5.4788  -11.5636 C   0  0  0  0  0  0  0  0  0  0  0  0
   -7.0162    4.2339  -11.6292 C   0  0  0  0  0  0  0  0  0  0  0  0
   -7.9260    4.2343  -12.8727 C   0  0  0  0  0  0  0  0  0  0  0  0
   -3.4861    7.8418  -23.2621 C   0  0  0  0  0  0  0  0  0  0  0  0
   -2.6253    8.3288  -24.2529 C   0  0  0  0  0  0  0  0  0  0  0  0
   -2.9805    8.4773  -25.5719 O   0  0  0  0  0  0  0  0  0  0  0  0
   -4.1512    7.7952  -26.0045 C   0  0  0  0  0  0  0  0  0  0  0  0
  1  2  1  0
  2  3  1  0
  3  4  2  0
  4  5  1  0
  5  6  2  0
  6  7  1  0
  7  8  1  0
  8  9  1  1
  8 10  1  0
 10 11  1  0
  8 12  1  0
 12 13  1  0
 13 14  2  0
 13 15  1  0
 15 16  2  0
 16 17  1  0
 17 18  2  0
 18 19  1  0
 19 20  1  0
 20 21  2  0
 21 22  1  0
 22 23  1  0
 21 24  1  0
 24 25  1  0
 25 26  1  0
 26 27  1  0
  6 28  1  0
 28 29  2  0
 29 30  1  0
 30 31  1  0
 29  3  1  0
 23 15  1  0
 23 19  2  0
 27 20  1  0
M  END
>  <fragmenstein_outcome>  (575) 
nan

>  <exports>  (575) 
['/opt/xchem-fragalysis-2/maxwin/openbind-hippo/xx01zvns2b/cycle_01/syndirella/elabs/openbind_xx01zvns2b_c1_elab_chemspace_filtered.sdf']

>  <Energy>  (575) 
nan

>  <alias>  (575) 
None

>  <fragmenstein_runtime>  (575) 
nan

>  <scratch_subdir>  (575) 
nan

>  <HIPPO Compound ID>  (575) 
145845

>  <rmsd(smina/fragmenstein)>  (575) 
1.666

>  <distance_score>  (575) 
0.746297

>  <orig_smiles>  (575) 
nan

>  <fragmenstein_mode>  (575) 
nan

>  <inchikey>  (575) 
KOOJOQRSNFGRFR-RUZDIDTESA-N

>  <ref_pdb>  (575) 
Z0101a

>  <GNINA pK>  (575) 
nan

>  <gnina_score_min>  (575) 
5.6

>  <tags>  (575) 
openbind_xx01zvns2b_c1_elab_nonasap_filtered_scored_top80percent,openbind_xx01zvns2b_c1_elab_chemspace_filtered_scored_top80percent,openbind_xx01zvns2b_c1_elab_chemspace_filtered_scored,openbind_xx01zvns2b_c1_elab_chemspace_filtered_scored_top40percent,openbind_xx01zvns2b_c1_elab_chemspace_filtered_scored_top20percent,openbind_xx01zvns2b_c1_elab_chemspace_filtered_scored_top60percent,openbind_xx01zvns2b_c1_elabs_filtered

>  <smiles>  (575) 
COc1ccc(C[C@](C)(CO)NC(=O)c2cccc3c4c([nH]c23)CCCC4)cc1OC

>  <subsites>  (575) 
1 - Z4590/B/203/1

>  <gnina_score>  (575) 
5.615

>  <HIPPO Pose ID>  (575) 
72485

>  <ref_mols>  (575) 
Z0101a,Z0827a

>  <energy_score>  (575) 
-43.234485

>  <inspiration_score>  (575) 
None

>  <smina_score_min>  (575) 
-6.643

>  <fragmenstein_error>  (575) 
nan

>  <name>  (575) 
P72485

$$$$
P72489
     RDKit          3D

 32 35  0  0  0  0  0  0  0  0999 V2000
    0.8434    9.8226  -24.4162 C   0  0  0  0  0  0  0  0  0  0  0  0
   -0.1689    8.8930  -24.7895 O   0  0  0  0  0  0  0  0  0  0  0  0
   -0.9898    8.4867  -23.7717 C   0  0  0  0  0  0  0  0  0  0  0  0
   -2.3191    8.2739  -24.1450 C   0  0  0  0  0  0  0  0  0  0  0  0
   -3.2637    7.8421  -23.2098 C   0  0  0  0  0  0  0  0  0  0  0  0
   -2.8930    7.6113  -21.8797 C   0  0  0  0  0  0  0  0  0  0  0  0
   -3.9038    7.1163  -20.8686 C   0  0  0  0  0  0  0  0  0  0  0  0
   -3.9910    5.5707  -20.6746 C   0  0  2  0  0  0  0  0  0  0  0  0
   -2.6934    5.0120  -20.0735 C   0  0  0  0  0  0  0  0  0  0  0  0
   -4.2783    4.8476  -22.0118 C   0  0  0  0  0  0  0  0  0  0  0  0
   -5.4387    5.3594  -22.6574 O   0  0  0  0  0  0  0  0  0  0  0  0
   -5.0713    5.2802  -19.7129 N   0  0  0  0  0  0  0  0  0  0  0  0
   -5.3520    5.8661  -18.3169 C   0  0  0  0  0  0  0  0  0  0  0  0
   -4.8189    6.7264  -17.7369 O   0  0  0  0  0  0  0  0  0  0  0  0
   -6.4818    5.1737  -17.6184 C   0  0  0  0  0  0  0  0  0  0  0  0
   -7.5967    4.6303  -18.2718 C   0  0  0  0  0  0  0  0  0  0  0  0
   -8.6694    4.1024  -17.5559 C   0  0  0  0  0  0  0  0  0  0  0  0
   -8.6502    4.0883  -16.1597 C   0  0  0  0  0  0  0  0  0  0  0  0
   -7.5350    4.5961  -15.4679 C   0  0  0  0  0  0  0  0  0  0  0  0
   -7.1932    4.7234  -14.0836 C   0  0  0  0  0  0  0  0  0  0  0  0
   -5.9481    5.3277  -14.0254 C   0  0  0  0  0  0  0  0  0  0  0  0
   -5.5506    5.5852  -15.3097 N   0  0  0  0  0  0  0  0  0  0  0  0
   -6.4862    5.1297  -16.2112 C   0  0  0  0  0  0  0  0  0  0  0  0
   -5.0990    5.7016  -12.8553 C   0  0  0  0  0  0  0  0  0  0  0  0
   -5.3010    4.7617  -11.6687 C   0  0  0  0  0  0  0  0  0  0  0  0
   -6.5973    4.9942  -10.8862 C   0  0  0  0  0  0  0  0  0  0  0  0
   -7.8789    5.1984  -11.7003 C   0  0  0  0  0  0  0  0  0  0  0  0
   -8.0216    4.2804  -12.9149 C   0  0  0  0  0  0  0  0  0  0  0  0
   -1.5595    7.8228  -21.5073 C   0  0  0  0  0  0  0  0  0  0  0  0
   -0.6070    8.2167  -22.4542 C   0  0  0  0  0  0  0  0  0  0  0  0
    0.6976    8.3332  -22.0486 O   0  0  0  0  0  0  0  0  0  0  0  0
    1.2917    7.0358  -21.9566 C   0  0  0  0  0  0  0  0  0  0  0  0
  1  2  1  0
  2  3  1  0
  3  4  2  0
  4  5  1  0
  5  6  2  0
  6  7  1  0
  7  8  1  0
  8  9  1  1
  8 10  1  0
 10 11  1  0
  8 12  1  0
 12 13  1  0
 13 14  2  0
 13 15  1  0
 15 16  2  0
 16 17  1  0
 17 18  2  0
 18 19  1  0
 19 20  1  0
 20 21  2  0
 21 22  1  0
 22 23  1  0
 21 24  1  0
 24 25  1  0
 25 26  1  0
 26 27  1  0
 27 28  1  0
  6 29  1  0
 29 30  2  0
 30 31  1  0
 31 32  1  0
 30  3  1  0
 23 15  1  0
 23 19  2  0
 28 20  1  0
M  END
>  <fragmenstein_outcome>  (576) 
nan

>  <exports>  (576) 
['/opt/xchem-fragalysis-2/maxwin/openbind-hippo/xx01zvns2b/cycle_01/syndirella/elabs/openbind_xx01zvns2b_c1_elab_chemspace_filtered.sdf']

>  <Energy>  (576) 
nan

>  <alias>  (576) 
None

>  <fragmenstein_runtime>  (576) 
nan

>  <scratch_subdir>  (576) 
nan

>  <HIPPO Compound ID>  (576) 
145847

>  <rmsd(smina/fragmenstein)>  (576) 
1.481

>  <distance_score>  (576) 
0.698257

>  <orig_smiles>  (576) 
nan

>  <fragmenstein_mode>  (576) 
nan

>  <inchikey>  (576) 
NNSIHUPWOKSFID-AREMUKBSSA-N

>  <ref_pdb>  (576) 
Z0101a

>  <GNINA pK>  (576) 
nan

>  <gnina_score_min>  (576) 
5.808

>  <tags>  (576) 
openbind_xx01zvns2b_c1_elab_nonasap_filtered_scored_top80percent,openbind_xx01zvns2b_c1_elab_chemspace_filtered_scored_top80percent,openbind_xx01zvns2b_c1_elab_chemspace_filtered_scored,openbind_xx01zvns2b_c1_elab_chemspace_filtered_scored_top40percent,openbind_xx01zvns2b_c1_elab_chemspace_filtered_scored_top20percent,openbind_xx01zvns2b_c1_elab_chemspace_filtered_scored_top60percent,openbind_xx01zvns2b_c1_elabs_filtered

>  <smiles>  (576) 
COc1ccc(C[C@](C)(CO)NC(=O)c2cccc3c4c([nH]c23)CCCCC4)cc1OC

>  <subsites>  (576) 
1 - Z4590/B/203/1

>  <gnina_score>  (576) 
5.589

>  <HIPPO Pose ID>  (576) 
72489

>  <ref_mols>  (576) 
Z0827a,Z0101a

>  <energy_score>  (576) 
-41.248032

>  <inspiration_score>  (576) 
None

>  <smina_score_min>  (576) 
-7.05

>  <fragmenstein_error>  (576) 
nan

>  <name>  (576) 
P72489

$$$$
P72492
     RDKit          3D

 32 35  0  0  0  0  0  0  0  0999 V2000
   -0.3689    9.2802  -25.9135 C   0  0  0  0  0  0  0  0  0  0  0  0
   -0.0087    9.0037  -24.5680 O   0  0  0  0  0  0  0  0  0  0  0  0
   -0.9987    8.5625  -23.7243 C   0  0  0  0  0  0  0  0  0  0  0  0
   -2.3208    8.3249  -24.1127 C   0  0  0  0  0  0  0  0  0  0  0  0
   -3.2606    7.8665  -23.1858 C   0  0  0  0  0  0  0  0  0  0  0  0
   -2.8972    7.6392  -21.8552 C   0  0  0  0  0  0  0  0  0  0  0  0
   -3.9118    7.1265  -20.8548 C   0  0  0  0  0  0  0  0  0  0  0  0
   -3.9903    5.5805  -20.6682 C   0  0  2  0  0  0  0  0  0  0  0  0
   -2.6863    5.0262  -20.0760 C   0  0  0  0  0  0  0  0  0  0  0  0
   -4.2770    4.8597  -22.0076 C   0  0  0  0  0  0  0  0  0  0  0  0
   -5.4282    5.3818  -22.6634 O   0  0  0  0  0  0  0  0  0  0  0  0
   -5.0637    5.2797  -19.7018 N   0  0  0  0  0  0  0  0  0  0  0  0
   -5.3261    5.8402  -18.2899 C   0  0  0  0  0  0  0  0  0  0  0  0
   -4.7795    6.6844  -17.6977 O   0  0  0  0  0  0  0  0  0  0  0  0
   -6.4736    5.1645  -17.5985 C   0  0  0  0  0  0  0  0  0  0  0  0
   -7.5980    4.6400  -18.2545 C   0  0  0  0  0  0  0  0  0  0  0  0
   -8.6762    4.1130  -17.5447 C   0  0  0  0  0  0  0  0  0  0  0  0
   -8.6571    4.0792  -16.1501 C   0  0  0  0  0  0  0  0  0  0  0  0
   -7.5374    4.5676  -15.4561 C   0  0  0  0  0  0  0  0  0  0  0  0
   -7.1876    4.6597  -14.0812 C   0  0  0  0  0  0  0  0  0  0  0  0
   -5.9590    5.2801  -14.0087 C   0  0  0  0  0  0  0  0  0  0  0  0
   -5.5430    5.5555  -15.2776 N   0  0  0  0  0  0  0  0  0  0  0  0
   -6.4811    5.1101  -16.1901 C   0  0  0  0  0  0  0  0  0  0  0  0
   -5.1960    5.5737  -12.7683 C   0  0  0  0  0  0  0  0  0  0  0  0
   -6.1256    5.4523  -11.5452 C   0  0  0  0  0  0  0  0  0  0  0  0
   -7.0278    4.1949  -11.6171 C   0  0  1  0  0  0  0  0  0  0  0  0
   -7.8681    4.0553  -10.3494 C   0  0  0  0  0  0  0  0  0  0  0  0
   -7.9405    4.2208  -12.8684 C   0  0  0  0  0  0  0  0  0  0  0  0
   -1.5735    7.8897  -21.4634 C   0  0  0  0  0  0  0  0  0  0  0  0
   -0.6193    8.3357  -22.3871 C   0  0  0  0  0  0  0  0  0  0  0  0
    0.6965    8.5861  -22.0791 O   0  0  0  0  0  0  0  0  0  0  0  0
    1.1525    8.1815  -20.7961 C   0  0  0  0  0  0  0  0  0  0  0  0
  1  2  1  0
  2  3  1  0
  3  4  2  0
  4  5  1  0
  5  6  2  0
  6  7  1  0
  7  8  1  0
  8  9  1  1
  8 10  1  0
 10 11  1  0
  8 12  1  0
 12 13  1  0
 13 14  2  0
 13 15  1  0
 15 16  2  0
 16 17  1  0
 17 18  2  0
 18 19  1  0
 19 20  1  0
 20 21  2  0
 21 22  1  0
 22 23  1  0
 21 24  1  0
 24 25  1  0
 25 26  1  0
 26 27  1  1
 26 28  1  0
  6 29  1  0
 29 30  2  0
 30 31  1  0
 31 32  1  0
 30  3  1  0
 23 15  1  0
 23 19  2  0
 28 20  1  0
M  END
>  <fragmenstein_outcome>  (577) 
nan

>  <exports>  (577) 
['/opt/xchem-fragalysis-2/maxwin/openbind-hippo/xx01zvns2b/cycle_01/syndirella/elabs/openbind_xx01zvns2b_c1_elab_chemspace_filtered.sdf']

>  <Energy>  (577) 
nan

>  <alias>  (577) 
None

>  <fragmenstein_runtime>  (577) 
nan

>  <scratch_subdir>  (577) 
nan

>  <HIPPO Compound ID>  (577) 
145848

>  <rmsd(smina/fragmenstein)>  (577) 
1.714

>  <distance_score>  (577) 
0.74093

>  <orig_smiles>  (577) 
nan

>  <fragmenstein_mode>  (577) 
nan

>  <inchikey>  (577) 
CGWAWJKJZCVSKI-AKJBCIBTSA-N

>  <ref_pdb>  (577) 
Z0101a

>  <GNINA pK>  (577) 
nan

>  <gnina_score_min>  (577) 
5.857

>  <tags>  (577) 
openbind_xx01zvns2b_c1_elab_nonasap_filtered_scored_top80percent,openbind_xx01zvns2b_c1_elab_chemspace_filtered_scored_top80percent,openbind_xx01zvns2b_c1_elab_chemspace_filtered_scored,openbind_xx01zvns2b_c1_elab_chemspace_filtered_scored_top40percent,openbind_xx01zvns2b_c1_elab_chemspace_filtered_scored_top20percent,openbind_xx01zvns2b_c1_elab_chemspace_filtered_scored_top60percent,openbind_xx01zvns2b_c1_elabs_filtered

>  <smiles>  (577) 
COc1ccc(C[C@](C)(CO)NC(=O)c2cccc3c4c([nH]c23)CC[C@@H](C)C4)cc1OC

>  <subsites>  (577) 
1 - Z4590/B/203/1

>  <gnina_score>  (577) 
5.586

>  <HIPPO Pose ID>  (577) 
72492

>  <ref_mols>  (577) 
Z0101a,Z0827a

>  <energy_score>  (577) 
-56.828636

>  <inspiration_score>  (577) 
None

>  <smina_score_min>  (577) 
-7.203

>  <fragmenstein_error>  (577) 
nan

>  <name>  (577) 
P72492

$$$$
P72494
     RDKit          3D

 34 37  0  0  0  0  0  0  0  0999 V2000
   -0.7034    9.3545  -25.9028 C   0  0  0  0  0  0  0  0  0  0  0  0
   -0.3609    9.3449  -24.5235 O   0  0  0  0  0  0  0  0  0  0  0  0
   -1.2840    8.8473  -23.6422 C   0  0  0  0  0  0  0  0  0  0  0  0
   -2.5897    8.4910  -23.9993 C   0  0  0  0  0  0  0  0  0  0  0  0
   -3.4678    7.9448  -23.0567 C   0  0  0  0  0  0  0  0  0  0  0  0
   -3.0576    7.7289  -21.7381 C   0  0  0  0  0  0  0  0  0  0  0  0
   -4.0000    7.1223  -20.7221 C   0  0  0  0  0  0  0  0  0  0  0  0
   -3.9836    5.5696  -20.5697 C   0  0  2  0  0  0  0  0  0  0  0  0
   -2.6463    5.0828  -19.9959 C   0  0  0  0  0  0  0  0  0  0  0  0
   -4.2311    4.8668  -21.9287 C   0  0  0  0  0  0  0  0  0  0  0  0
   -5.4205    5.3190  -22.5690 O   0  0  0  0  0  0  0  0  0  0  0  0
   -5.0352    5.1763  -19.6066 N   0  0  0  0  0  0  0  0  0  0  0  0
   -5.4307    5.7914  -18.2476 C   0  0  0  0  0  0  0  0  0  0  0  0
   -5.0410    6.7508  -17.7098 O   0  0  0  0  0  0  0  0  0  0  0  0
   -6.5299    5.0359  -17.5701 C   0  0  0  0  0  0  0  0  0  0  0  0
   -7.6327    4.5715  -18.3089 C   0  0  0  0  0  0  0  0  0  0  0  0
   -8.7751    4.0789  -17.6914 C   0  0  0  0  0  0  0  0  0  0  0  0
   -8.8618    4.0686  -16.3039 C   0  0  0  0  0  0  0  0  0  0  0  0
   -7.7790    4.5121  -15.5247 C   0  0  0  0  0  0  0  0  0  0  0  0
   -7.6086    4.6744  -14.1265 C   0  0  0  0  0  0  0  0  0  0  0  0
   -6.3456    5.1684  -13.9210 C   0  0  0  0  0  0  0  0  0  0  0  0
   -5.6923    5.1759  -15.1339 N   0  0  0  0  0  0  0  0  0  0  0  0
   -4.2394    5.3132  -15.2752 C   0  0  0  0  0  0  0  0  0  0  0  0
   -3.4465    4.5385  -14.2368 C   0  0  0  0  0  0  0  0  0  0  0  0
   -2.3374    5.1332  -13.6179 C   0  0  0  0  0  0  0  0  0  0  0  0
   -1.5899    4.4288  -12.6706 C   0  0  0  0  0  0  0  0  0  0  0  0
   -1.9365    3.1206  -12.3341 C   0  0  0  0  0  0  0  0  0  0  0  0
   -3.0250    2.5098  -12.9513 C   0  0  0  0  0  0  0  0  0  0  0  0
   -3.7655    3.2098  -13.9053 C   0  0  0  0  0  0  0  0  0  0  0  0
   -6.6023    4.9411  -16.1571 C   0  0  0  0  0  0  0  0  0  0  0  0
   -1.7572    8.0984  -21.3764 C   0  0  0  0  0  0  0  0  0  0  0  0
   -0.8818    8.6742  -22.3071 C   0  0  0  0  0  0  0  0  0  0  0  0
    0.3586    8.9684  -21.7967 O   0  0  0  0  0  0  0  0  0  0  0  0
    0.8993   10.2169  -22.2172 C   0  0  0  0  0  0  0  0  0  0  0  0
  1  2  1  0
  2  3  1  0
  3  4  2  0
  4  5  1  0
  5  6  2  0
  6  7  1  0
  7  8  1  0
  8  9  1  1
  8 10  1  0
 10 11  1  0
  8 12  1  0
 12 13  1  0
 13 14  2  0
 13 15  1  0
 15 16  2  0
 16 17  1  0
 17 18  2  0
 18 19  1  0
 19 20  1  0
 20 21  2  0
 21 22  1  0
 22 23  1  0
 23 24  1  0
 24 25  2  0
 25 26  1  0
 26 27  2  0
 27 28  1  0
 28 29  2  0
 22 30  1  0
  6 31  1  0
 31 32  2  0
 32 33  1  0
 33 34  1  0
 32  3  1  0
 30 15  1  0
 30 19  2  0
 29 24  1  0
M  END
>  <fragmenstein_outcome>  (578) 
nan

>  <exports>  (578) 
['/opt/xchem-fragalysis-2/maxwin/openbind-hippo/xx01zvns2b/cycle_01/syndirella/elabs/openbind_xx01zvns2b_c1_elab_chemspace_filtered.sdf']

>  <Energy>  (578) 
nan

>  <alias>  (578) 
None

>  <fragmenstein_runtime>  (578) 
nan

>  <scratch_subdir>  (578) 
nan

>  <HIPPO Compound ID>  (578) 
145849

>  <rmsd(smina/fragmenstein)>  (578) 
1.17

>  <distance_score>  (578) 
0.700299

>  <orig_smiles>  (578) 
nan

>  <fragmenstein_mode>  (578) 
nan

>  <inchikey>  (578) 
JHRHXVXMZMLTTQ-MUUNZHRXSA-N

>  <ref_pdb>  (578) 
Z0101a

>  <GNINA pK>  (578) 
nan

>  <gnina_score_min>  (578) 
6.009

>  <tags>  (578) 
openbind_xx01zvns2b_c1_elab_nonasap_filtered_scored_top80percent,openbind_xx01zvns2b_c1_elab_chemspace_filtered_scored_top80percent,openbind_xx01zvns2b_c1_elab_chemspace_filtered_scored,openbind_xx01zvns2b_c1_elab_chemspace_filtered_scored_top40percent,openbind_xx01zvns2b_c1_elab_chemspace_filtered_scored_top20percent,openbind_xx01zvns2b_c1_elab_chemspace_filtered_scored_top60percent,openbind_xx01zvns2b_c1_elabs_filtered

>  <smiles>  (578) 
COc1ccc(C[C@](C)(CO)NC(=O)c2cccc3ccn(Cc4ccccc4)c23)cc1OC

>  <subsites>  (578) 
1 - Z4590/B/203/1

>  <gnina_score>  (578) 
5.699

>  <HIPPO Pose ID>  (578) 
72494

>  <ref_mols>  (578) 
Z0827a,Z0101a

>  <energy_score>  (578) 
-30.306776

>  <inspiration_score>  (578) 
None

>  <smina_score_min>  (578) 
-7.108

>  <fragmenstein_error>  (578) 
nan

>  <name>  (578) 
P72494

$$$$
P72497
     RDKit          3D

 26 29  0  0  0  0  0  0  0  0999 V2000
   -7.2032    5.1581  -13.7005 C   0  0  0  0  0  0  0  0  0  0  0  0
   -7.3139    4.8791  -15.1681 C   0  0  0  0  0  0  0  0  0  0  0  0
   -6.2077    4.9901  -16.0159 C   0  0  0  0  0  0  0  0  0  0  0  0
   -6.3148    4.7645  -17.3996 C   0  0  0  0  0  0  0  0  0  0  0  0
   -5.0867    4.8733  -18.2434 C   0  0  0  0  0  0  0  0  0  0  0  0
   -4.0841    4.4654  -17.8092 O   0  0  0  0  0  0  0  0  0  0  0  0
   -5.3919    5.5336  -19.6049 N   0  0  0  0  0  0  0  0  0  0  0  0
   -4.4904    5.9244  -20.7021 C   0  0  0  0  0  0  0  0  0  0  0  0
   -4.2422    7.4328  -20.7398 C   0  0  0  0  0  0  0  0  0  0  0  0
   -3.8277    7.9829  -19.3937 C   0  0  0  0  0  0  0  0  0  0  0  0
   -2.5076    7.8544  -18.9374 C   0  0  0  0  0  0  0  0  0  0  0  0
   -2.1496    8.3305  -17.6743 C   0  0  0  0  0  0  0  0  0  0  0  0
   -3.1066    8.9376  -16.8691 C   0  0  0  0  0  0  0  0  0  0  0  0
   -2.7579    9.3955  -15.6598 F   0  0  0  0  0  0  0  0  0  0  0  0
   -4.4163    9.0831  -17.3004 C   0  0  0  0  0  0  0  0  0  0  0  0
   -4.7657    8.6057  -18.5575 C   0  0  0  0  0  0  0  0  0  0  0  0
   -6.0357    8.7547  -18.9672 F   0  0  0  0  0  0  0  0  0  0  0  0
   -3.2456    5.0369  -20.9497 C   0  0  0  0  0  0  0  0  0  0  0  0
   -3.6155    4.8714  -22.3542 O   0  0  0  0  0  0  0  0  0  0  0  0
   -4.9450    5.3411  -22.0585 C   0  0  0  0  0  0  0  0  0  0  0  0
   -7.5818    4.4151  -17.8993 C   0  0  0  0  0  0  0  0  0  0  0  0
   -8.0200    4.1196  -19.1668 N   0  0  0  0  0  0  0  0  0  0  0  0
   -9.3777    3.9789  -19.1827 C   0  0  0  0  0  0  0  0  0  0  0  0
   -9.8230    3.9877  -17.8897 C   0  0  0  0  0  0  0  0  0  0  0  0
   -8.6964    4.2638  -17.0687 C   0  0  0  0  0  0  0  0  0  0  0  0
   -8.5455    4.4677  -15.6887 C   0  0  0  0  0  0  0  0  0  0  0  0
  1  2  1  0
  2  3  2  0
  3  4  1  0
  4  5  1  0
  5  6  2  0
  5  7  1  0
  7  8  1  0
  8  9  1  0
  9 10  1  0
 10 11  2  0
 11 12  1  0
 12 13  2  0
 13 14  1  0
 13 15  1  0
 15 16  2  0
 16 17  1  0
  8 18  1  0
 18 19  1  0
 19 20  1  0
  4 21  2  0
 21 22  1  0
 22 23  1  0
 23 24  2  0
 24 25  1  0
 25 26  2  0
 26  2  1  0
 20  8  1  0
 25 21  1  0
 16 10  1  0
M  END
>  <fragmenstein_outcome>  (579) 
nan

>  <exports>  (579) 
['/opt/xchem-fragalysis-2/maxwin/openbind-hippo/xx01zvns2b/cycle_01/syndirella/elabs/openbind_xx01zvns2b_c1_elab_chemspace_filtered.sdf']

>  <Energy>  (579) 
nan

>  <alias>  (579) 
None

>  <fragmenstein_runtime>  (579) 
nan

>  <scratch_subdir>  (579) 
nan

>  <HIPPO Compound ID>  (579) 
145853

>  <rmsd(smina/fragmenstein)>  (579) 
0.36

>  <distance_score>  (579) 
0.921519

>  <orig_smiles>  (579) 
nan

>  <fragmenstein_mode>  (579) 
nan

>  <inchikey>  (579) 
XMNGIBRWXUVGDW-UHFFFAOYSA-N

>  <ref_pdb>  (579) 
Z0101a

>  <GNINA pK>  (579) 
nan

>  <gnina_score_min>  (579) 
5.432

>  <tags>  (579) 
openbind_xx01zvns2b_c1_elab_nonasap_filtered_scored_top80percent,openbind_xx01zvns2b_c1_elab_chemspace_filtered_scored_top80percent,openbind_xx01zvns2b_c1_elab_chemspace_filtered_scored,openbind_xx01zvns2b_c1_elab_chemspace_filtered_scored_top40percent,openbind_xx01zvns2b_c1_elab_chemspace_filtered_scored_top20percent,openbind_xx01zvns2b_c1_elab_chemspace_filtered_scored_top60percent,openbind_xx01zvns2b_c1_elabs_filtered

>  <smiles>  (579) 
Cc1cc(C(=O)NC2(Cc3ccc(F)cc3F)COC2)c2[nH]ccc2c1

>  <subsites>  (579) 
1 - Z4590/B/203/1

>  <gnina_score>  (579) 
5.403

>  <HIPPO Pose ID>  (579) 
72497

>  <ref_mols>  (579) 
Z0101a,Z0827a

>  <energy_score>  (579) 
-42.324665

>  <inspiration_score>  (579) 
None

>  <smina_score_min>  (579) 
-6.967

>  <fragmenstein_error>  (579) 
nan

>  <name>  (579) 
P72497

$$$$
P72499
     RDKit          3D

 26 29  0  0  0  0  0  0  0  0999 V2000
   -4.0913    5.2802  -17.7801 O   0  0  0  0  0  0  0  0  0  0  0  0
   -5.0578    5.3058  -18.4365 C   0  0  0  0  0  0  0  0  0  0  0  0
   -5.2525    5.7047  -19.9186 N   0  0  0  0  0  0  0  0  0  0  0  0
   -4.2596    6.0733  -20.9538 C   0  0  0  0  0  0  0  0  0  0  0  0
   -3.4201    7.2738  -20.5373 C   0  0  0  0  0  0  0  0  0  0  0  0
   -4.2455    8.5071  -20.2567 C   0  0  0  0  0  0  0  0  0  0  0  0
   -4.6294    8.8244  -18.9437 C   0  0  0  0  0  0  0  0  0  0  0  0
   -5.3688    9.9788  -18.6844 C   0  0  0  0  0  0  0  0  0  0  0  0
   -5.7209   10.8171  -19.7364 C   0  0  0  0  0  0  0  0  0  0  0  0
   -6.4542   11.9095  -19.4879 F   0  0  0  0  0  0  0  0  0  0  0  0
   -5.3471   10.5277  -21.0409 C   0  0  0  0  0  0  0  0  0  0  0  0
   -4.6170    9.3723  -21.2908 C   0  0  0  0  0  0  0  0  0  0  0  0
   -4.2667    9.0935  -22.5535 F   0  0  0  0  0  0  0  0  0  0  0  0
   -3.3900    4.8701  -21.3991 C   0  0  0  0  0  0  0  0  0  0  0  0
   -4.3040    4.6154  -22.5155 O   0  0  0  0  0  0  0  0  0  0  0  0
   -4.7510    5.9958  -22.4151 C   0  0  0  0  0  0  0  0  0  0  0  0
   -6.3420    4.9727  -17.7311 C   0  0  0  0  0  0  0  0  0  0  0  0
   -7.4830    4.4471  -18.3484 C   0  0  0  0  0  0  0  0  0  0  0  0
   -8.6305    4.1721  -17.6043 C   0  0  0  0  0  0  0  0  0  0  0  0
  -10.0622    3.6735  -18.4081 Cl  0  0  0  0  0  0  0  0  0  0  0  0
   -8.6754    4.3563  -16.2221 C   0  0  0  0  0  0  0  0  0  0  0  0
   -7.5584    4.9024  -15.5775 C   0  0  0  0  0  0  0  0  0  0  0  0
   -7.2900    5.2883  -14.2352 C   0  0  0  0  0  0  0  0  0  0  0  0
   -6.0115    5.7941  -14.1966 C   0  0  0  0  0  0  0  0  0  0  0  0
   -5.4838    5.6871  -15.4565 N   0  0  0  0  0  0  0  0  0  0  0  0
   -6.4246    5.1898  -16.3360 C   0  0  0  0  0  0  0  0  0  0  0  0
  1  2  2  0
  2  3  1  0
  3  4  1  0
  4  5  1  0
  5  6  1  0
  6  7  2  0
  7  8  1  0
  8  9  2  0
  9 10  1  0
  9 11  1  0
 11 12  2  0
 12 13  1  0
  4 14  1  0
 14 15  1  0
 15 16  1  0
  2 17  1  0
 17 18  2  0
 18 19  1  0
 19 20  1  0
 19 21  2  0
 21 22  1  0
 22 23  1  0
 23 24  2  0
 24 25  1  0
 25 26  1  0
 16  4  1  0
 26 17  1  0
 12  6  1  0
 26 22  2  0
M  END
>  <fragmenstein_outcome>  (580) 
nan

>  <exports>  (580) 
['/opt/xchem-fragalysis-2/maxwin/openbind-hippo/xx01zvns2b/cycle_01/syndirella/elabs/openbind_xx01zvns2b_c1_elab_chemspace_filtered.sdf']

>  <Energy>  (580) 
nan

>  <alias>  (580) 
None

>  <fragmenstein_runtime>  (580) 
nan

>  <scratch_subdir>  (580) 
nan

>  <HIPPO Compound ID>  (580) 
145855

>  <rmsd(smina/fragmenstein)>  (580) 
0.514

>  <distance_score>  (580) 
0.81658

>  <orig_smiles>  (580) 
nan

>  <fragmenstein_mode>  (580) 
nan

>  <inchikey>  (580) 
CHFVTBQVTYZENW-UHFFFAOYSA-N

>  <ref_pdb>  (580) 
Z0101a

>  <GNINA pK>  (580) 
nan

>  <gnina_score_min>  (580) 
5.634

>  <tags>  (580) 
openbind_xx01zvns2b_c1_elab_nonasap_filtered_scored_top80percent,openbind_xx01zvns2b_c1_elab_chemspace_filtered_scored_top80percent,openbind_xx01zvns2b_c1_elab_chemspace_filtered_scored,openbind_xx01zvns2b_c1_elab_chemspace_filtered_scored_top40percent,openbind_xx01zvns2b_c1_elab_chemspace_filtered_scored_top20percent,openbind_xx01zvns2b_c1_elab_chemspace_filtered_scored_top60percent,openbind_xx01zvns2b_c1_elabs_filtered

>  <smiles>  (580) 
O=C(NC1(Cc2ccc(F)cc2F)COC1)c1cc(Cl)cc2cc[nH]c12

>  <subsites>  (580) 
1 - Z4590/B/203/1

>  <gnina_score>  (580) 
5.544

>  <HIPPO Pose ID>  (580) 
72499

>  <ref_mols>  (580) 
Z0101a,Z0827a

>  <energy_score>  (580) 
-25.355575

>  <inspiration_score>  (580) 
None

>  <smina_score_min>  (580) 
-7.136

>  <fragmenstein_error>  (580) 
nan

>  <name>  (580) 
P72499

$$$$
P72502
     RDKit          3D

 26 29  0  0  0  0  0  0  0  0999 V2000
   -5.4631    7.2045  -17.9569 O   0  0  0  0  0  0  0  0  0  0  0  0
   -5.6371    6.0805  -18.2183 C   0  0  0  0  0  0  0  0  0  0  0  0
   -5.1540    5.2477  -19.4245 N   0  0  0  0  0  0  0  0  0  0  0  0
   -4.4082    5.6607  -20.6554 C   0  0  0  0  0  0  0  0  0  0  0  0
   -4.2247    7.1854  -20.6921 C   0  0  0  0  0  0  0  0  0  0  0  0
   -3.6159    7.7371  -21.9628 C   0  0  0  0  0  0  0  0  0  0  0  0
   -2.2261    7.8759  -22.0970 C   0  0  0  0  0  0  0  0  0  0  0  0
   -1.6781    8.3843  -23.2767 C   0  0  0  0  0  0  0  0  0  0  0  0
   -2.5164    8.7642  -24.3191 C   0  0  0  0  0  0  0  0  0  0  0  0
   -1.9850    9.2525  -25.4473 F   0  0  0  0  0  0  0  0  0  0  0  0
   -3.8936    8.6528  -24.2055 C   0  0  0  0  0  0  0  0  0  0  0  0
   -4.4302    8.1460  -23.0283 C   0  0  0  0  0  0  0  0  0  0  0  0
   -5.7635    8.0539  -22.9208 F   0  0  0  0  0  0  0  0  0  0  0  0
   -3.1581    4.7974  -20.9455 C   0  0  0  0  0  0  0  0  0  0  0  0
   -3.6999    4.3731  -22.2275 O   0  0  0  0  0  0  0  0  0  0  0  0
   -4.9779    4.9557  -21.9096 C   0  0  0  0  0  0  0  0  0  0  0  0
   -6.5427    5.3036  -17.3293 C   0  0  0  0  0  0  0  0  0  0  0  0
   -6.4163    5.4342  -15.9430 C   0  0  0  0  0  0  0  0  0  0  0  0
   -7.4163    4.9658  -15.1028 C   0  0  0  0  0  0  0  0  0  0  0  0
   -7.3292    5.2088  -13.7886 F   0  0  0  0  0  0  0  0  0  0  0  0
   -8.5605    4.3437  -15.5916 C   0  0  0  0  0  0  0  0  0  0  0  0
   -8.7277    4.2262  -16.9796 C   0  0  0  0  0  0  0  0  0  0  0  0
   -9.8242    3.8498  -17.8021 C   0  0  0  0  0  0  0  0  0  0  0  0
   -9.4497    4.0591  -19.1005 C   0  0  0  0  0  0  0  0  0  0  0  0
   -8.1713    4.5338  -19.1025 N   0  0  0  0  0  0  0  0  0  0  0  0
   -7.7066    4.6845  -17.8211 C   0  0  0  0  0  0  0  0  0  0  0  0
  1  2  2  0
  2  3  1  0
  3  4  1  0
  4  5  1  0
  5  6  1  0
  6  7  2  0
  7  8  1  0
  8  9  2  0
  9 10  1  0
  9 11  1  0
 11 12  2  0
 12 13  1  0
  4 14  1  0
 14 15  1  0
 15 16  1  0
  2 17  1  0
 17 18  2  0
 18 19  1  0
 19 20  1  0
 19 21  2  0
 21 22  1  0
 22 23  1  0
 23 24  2  0
 24 25  1  0
 25 26  1  0
 16  4  1  0
 26 17  1  0
 12  6  1  0
 26 22  2  0
M  END
>  <fragmenstein_outcome>  (581) 
nan

>  <exports>  (581) 
['/opt/xchem-fragalysis-2/maxwin/openbind-hippo/xx01zvns2b/cycle_01/syndirella/elabs/openbind_xx01zvns2b_c1_elab_chemspace_filtered.sdf']

>  <Energy>  (581) 
nan

>  <alias>  (581) 
None

>  <fragmenstein_runtime>  (581) 
nan

>  <scratch_subdir>  (581) 
nan

>  <HIPPO Compound ID>  (581) 
145858

>  <rmsd(smina/fragmenstein)>  (581) 
0.773

>  <distance_score>  (581) 
0.907412

>  <orig_smiles>  (581) 
nan

>  <fragmenstein_mode>  (581) 
nan

>  <inchikey>  (581) 
LLNDMDFMMVOLFW-UHFFFAOYSA-N

>  <ref_pdb>  (581) 
Z0101a

>  <GNINA pK>  (581) 
nan

>  <gnina_score_min>  (581) 
5.683

>  <tags>  (581) 
openbind_xx01zvns2b_c1_elab_nonasap_filtered_scored_top80percent,openbind_xx01zvns2b_c1_elab_chemspace_filtered_scored_top80percent,openbind_xx01zvns2b_c1_elab_chemspace_filtered_scored,openbind_xx01zvns2b_c1_elab_chemspace_filtered_scored_top40percent,openbind_xx01zvns2b_c1_elab_chemspace_filtered_scored_top20percent,openbind_xx01zvns2b_c1_elab_chemspace_filtered_scored_top60percent,openbind_xx01zvns2b_c1_elabs_filtered

>  <smiles>  (581) 
O=C(NC1(Cc2ccc(F)cc2F)COC1)c1cc(F)cc2cc[nH]c12

>  <subsites>  (581) 
1 - Z4590/B/203/1

>  <gnina_score>  (581) 
5.395

>  <HIPPO Pose ID>  (581) 
72502

>  <ref_mols>  (581) 
Z0827a,Z0101a

>  <energy_score>  (581) 
-16.397879

>  <inspiration_score>  (581) 
None

>  <smina_score_min>  (581) 
-7.4

>  <fragmenstein_error>  (581) 
nan

>  <name>  (581) 
P72502

$$$$
P72515
     RDKit          3D

 27 29  0  0  0  0  0  0  0  0999 V2000
   -4.9551    6.4065  -23.9102 C   0  0  0  0  0  0  0  0  0  0  0  0
   -4.4501    6.5500  -22.5871 O   0  0  0  0  0  0  0  0  0  0  0  0
   -4.6566    5.5298  -21.7031 C   0  0  0  0  0  0  0  0  0  0  0  0
   -5.1634    4.4491  -21.9866 O   0  0  0  0  0  0  0  0  0  0  0  0
   -4.0977    5.9042  -20.3026 C   0  0  2  0  0  0  0  0  0  0  0  0
   -3.9477    7.4394  -20.2245 C   0  0  0  0  0  0  0  0  0  0  0  0
   -2.7314    5.1751  -20.1629 C   0  0  0  0  0  0  0  0  0  0  0  0
   -1.7225    5.7898  -19.2092 C   0  0  0  0  0  0  0  0  0  0  0  0
   -1.9947    5.9295  -17.8409 C   0  0  0  0  0  0  0  0  0  0  0  0
   -1.0608    6.5199  -16.9863 C   0  0  0  0  0  0  0  0  0  0  0  0
    0.1559    6.9540  -17.4942 C   0  0  0  0  0  0  0  0  0  0  0  0
    1.0550    7.5112  -16.6725 F   0  0  0  0  0  0  0  0  0  0  0  0
    0.4558    6.8132  -18.8420 C   0  0  0  0  0  0  0  0  0  0  0  0
   -0.4818    6.2335  -19.6979 C   0  0  0  0  0  0  0  0  0  0  0  0
   -5.0444    5.4288  -19.2731 N   0  0  0  0  0  0  0  0  0  0  0  0
   -5.5975    6.1327  -18.0238 C   0  0  0  0  0  0  0  0  0  0  0  0
   -5.3368    7.1717  -17.5643 O   0  0  0  0  0  0  0  0  0  0  0  0
   -6.5723    5.3123  -17.2569 C   0  0  0  0  0  0  0  0  0  0  0  0
   -6.5249    5.3983  -15.8573 C   0  0  0  0  0  0  0  0  0  0  0  0
   -7.5597    4.9064  -15.0824 C   0  0  0  0  0  0  0  0  0  0  0  0
   -7.5411    5.1189  -13.7605 F   0  0  0  0  0  0  0  0  0  0  0  0
   -8.6651    4.2917  -15.6520 C   0  0  0  0  0  0  0  0  0  0  0  0
   -8.7492    4.1948  -17.0494 C   0  0  0  0  0  0  0  0  0  0  0  0
   -9.7911    3.8055  -17.9328 C   0  0  0  0  0  0  0  0  0  0  0  0
   -9.3415    4.0225  -19.2052 C   0  0  0  0  0  0  0  0  0  0  0  0
   -8.0701    4.5158  -19.1334 N   0  0  0  0  0  0  0  0  0  0  0  0
   -7.6880    4.6797  -17.8284 C   0  0  0  0  0  0  0  0  0  0  0  0
  1  2  1  0
  2  3  1  0
  3  4  2  0
  3  5  1  0
  5  6  1  6
  5  7  1  0
  7  8  1  0
  8  9  2  0
  9 10  1  0
 10 11  2  0
 11 12  1  0
 11 13  1  0
 13 14  2  0
  5 15  1  0
 15 16  1  0
 16 17  2  0
 16 18  1  0
 18 19  2  0
 19 20  1  0
 20 21  1  0
 20 22  2  0
 22 23  1  0
 23 24  1  0
 24 25  2  0
 25 26  1  0
 26 27  1  0
 14  8  1  0
 27 18  1  0
 27 23  2  0
M  END
>  <fragmenstein_outcome>  (582) 
nan

>  <exports>  (582) 
['/opt/xchem-fragalysis-2/maxwin/openbind-hippo/xx01zvns2b/cycle_01/syndirella/elabs/openbind_xx01zvns2b_c1_elab_chemspace_filtered.sdf']

>  <Energy>  (582) 
nan

>  <alias>  (582) 
None

>  <fragmenstein_runtime>  (582) 
nan

>  <scratch_subdir>  (582) 
nan

>  <HIPPO Compound ID>  (582) 
145869

>  <rmsd(smina/fragmenstein)>  (582) 
0.605

>  <distance_score>  (582) 
0.83554

>  <orig_smiles>  (582) 
nan

>  <fragmenstein_mode>  (582) 
nan

>  <inchikey>  (582) 
XVPTWONDKPHDFQ-FQEVSTJZSA-N

>  <ref_pdb>  (582) 
Z0101a

>  <GNINA pK>  (582) 
nan

>  <gnina_score_min>  (582) 
5.693

>  <tags>  (582) 
openbind_xx01zvns2b_c1_elab_nonasap_filtered_scored_top80percent,openbind_xx01zvns2b_c1_elab_chemspace_filtered_scored_top80percent,openbind_xx01zvns2b_c1_elab_chemspace_filtered_scored,openbind_xx01zvns2b_c1_elab_chemspace_filtered_scored_top40percent,openbind_xx01zvns2b_c1_elab_chemspace_filtered_scored_top20percent,openbind_xx01zvns2b_c1_elab_chemspace_filtered_scored_top60percent,openbind_xx01zvns2b_c1_elabs_filtered

>  <smiles>  (582) 
COC(=O)[C@](C)(Cc1ccc(F)cc1)NC(=O)c1cc(F)cc2cc[nH]c12

>  <subsites>  (582) 
1 - Z4590/B/203/1

>  <gnina_score>  (582) 
5.548

>  <HIPPO Pose ID>  (582) 
72515

>  <ref_mols>  (582) 
Z0101a,Z0827a

>  <energy_score>  (582) 
-0.273798

>  <inspiration_score>  (582) 
None

>  <smina_score_min>  (582) 
-6.906

>  <fragmenstein_error>  (582) 
nan

>  <name>  (582) 
P72515

$$$$
P72521
     RDKit          3D

 27 30  0  0  0  0  0  0  0  0999 V2000
   -5.6460    5.8971  -12.8640 C   0  0  0  0  0  0  0  0  0  0  0  0
   -6.3236    5.5453  -14.1370 C   0  0  0  0  0  0  0  0  0  0  0  0
   -5.7030    5.4912  -15.3639 N   0  0  0  0  0  0  0  0  0  0  0  0
   -6.5907    5.0708  -16.3386 C   0  0  0  0  0  0  0  0  0  0  0  0
   -6.4208    4.8865  -17.7300 C   0  0  0  0  0  0  0  0  0  0  0  0
   -5.1161    5.2531  -18.3783 C   0  0  0  0  0  0  0  0  0  0  0  0
   -4.1739    5.2990  -17.6881 O   0  0  0  0  0  0  0  0  0  0  0  0
   -5.2772    5.5947  -19.8823 N   0  0  0  0  0  0  0  0  0  0  0  0
   -4.2631    5.9829  -20.8981 C   0  0  0  0  0  0  0  0  0  0  0  0
   -3.8126    7.4042  -20.5719 C   0  0  0  0  0  0  0  0  0  0  0  0
   -2.8142    7.9926  -21.5393 C   0  0  0  0  0  0  0  0  0  0  0  0
   -3.2378    8.7303  -22.6556 C   0  0  0  0  0  0  0  0  0  0  0  0
   -2.2994    9.2636  -23.5417 C   0  0  0  0  0  0  0  0  0  0  0  0
   -0.9413    9.0671  -23.3104 C   0  0  0  0  0  0  0  0  0  0  0  0
   -0.0483    9.5824  -24.1653 F   0  0  0  0  0  0  0  0  0  0  0  0
   -0.4992    8.3520  -22.2081 C   0  0  0  0  0  0  0  0  0  0  0  0
   -1.4384    7.8255  -21.3306 C   0  0  0  0  0  0  0  0  0  0  0  0
   -1.0076    7.1460  -20.2592 F   0  0  0  0  0  0  0  0  0  0  0  0
   -3.2241    4.8549  -21.1503 C   0  0  0  0  0  0  0  0  0  0  0  0
   -4.0325    4.3498  -22.2661 O   0  0  0  0  0  0  0  0  0  0  0  0
   -4.6946    5.6353  -22.3460 C   0  0  0  0  0  0  0  0  0  0  0  0
   -7.5106    4.3437  -18.4319 C   0  0  0  0  0  0  0  0  0  0  0  0
   -8.7147    4.0502  -17.7975 C   0  0  0  0  0  0  0  0  0  0  0  0
   -8.8633    4.2773  -16.4305 C   0  0  0  0  0  0  0  0  0  0  0  0
   -7.7956    4.8111  -15.6871 C   0  0  0  0  0  0  0  0  0  0  0  0
   -7.6424    5.2075  -14.3268 C   0  0  0  0  0  0  0  0  0  0  0  0
   -8.6698    5.2336  -13.2759 C   0  0  0  0  0  0  0  0  0  0  0  0
  1  2  1  0
  2  3  1  0
  3  4  1  0
  4  5  2  0
  5  6  1  0
  6  7  2  0
  6  8  1  0
  8  9  1  0
  9 10  1  0
 10 11  1  0
 11 12  2  0
 12 13  1  0
 13 14  2  0
 14 15  1  0
 14 16  1  0
 16 17  2  0
 17 18  1  0
  9 19  1  0
 19 20  1  0
 20 21  1  0
  5 22  1  0
 22 23  2  0
 23 24  1  0
 24 25  2  0
 25 26  1  0
 26 27  1  0
 26  2  2  0
 25  4  1  0
 21  9  1  0
 17 11  1  0
M  END
>  <fragmenstein_outcome>  (583) 
nan

>  <exports>  (583) 
['/opt/xchem-fragalysis-2/maxwin/openbind-hippo/xx01zvns2b/cycle_01/syndirella/elabs/openbind_xx01zvns2b_c1_elab_chemspace_filtered.sdf']

>  <Energy>  (583) 
nan

>  <alias>  (583) 
None

>  <fragmenstein_runtime>  (583) 
nan

>  <scratch_subdir>  (583) 
nan

>  <HIPPO Compound ID>  (583) 
145872

>  <rmsd(smina/fragmenstein)>  (583) 
1.815

>  <distance_score>  (583) 
1.381789

>  <orig_smiles>  (583) 
nan

>  <fragmenstein_mode>  (583) 
nan

>  <inchikey>  (583) 
QXUIIDAKYJYLAO-UHFFFAOYSA-N

>  <ref_pdb>  (583) 
Z0101a

>  <GNINA pK>  (583) 
nan

>  <gnina_score_min>  (583) 
5.395

>  <tags>  (583) 
openbind_xx01zvns2b_c1_elab_nonasap_filtered_scored_top80percent,openbind_xx01zvns2b_c1_elab_chemspace_filtered_scored_top80percent,openbind_xx01zvns2b_c1_elab_chemspace_filtered_scored,openbind_xx01zvns2b_c1_elab_chemspace_filtered_scored_top40percent,openbind_xx01zvns2b_c1_elab_chemspace_filtered_scored_top20percent,openbind_xx01zvns2b_c1_elab_chemspace_filtered_scored_top60percent,openbind_xx01zvns2b_c1_elabs_filtered

>  <smiles>  (583) 
Cc1[nH]c2c(C(=O)NC3(Cc4ccc(F)cc4F)COC3)cccc2c1C

>  <subsites>  (583) 
1 - Z4590/B/203/1

>  <gnina_score>  (583) 
5.193

>  <HIPPO Pose ID>  (583) 
72521

>  <ref_mols>  (583) 
Z0827a,Z0101a

>  <energy_score>  (583) 
-38.067055

>  <inspiration_score>  (583) 
None

>  <smina_score_min>  (583) 
-7.037

>  <fragmenstein_error>  (583) 
nan

>  <name>  (583) 
P72521

$$$$
P72523
     RDKit          3D

 27 30  0  0  0  0  0  0  0  0999 V2000
   -7.9046    5.3621  -11.8869 O   0  0  0  0  0  0  0  0  0  0  0  0
   -8.1224    4.8449  -12.9794 C   0  0  0  0  0  0  0  0  0  0  0  0
   -7.3344    5.1223  -14.1671 C   0  0  0  0  0  0  0  0  0  0  0  0
   -6.1056    5.7557  -14.1721 C   0  0  0  0  0  0  0  0  0  0  0  0
   -5.6145    5.7225  -15.4477 N   0  0  0  0  0  0  0  0  0  0  0  0
   -6.5398    5.1656  -16.3056 C   0  0  0  0  0  0  0  0  0  0  0  0
   -6.4674    4.9557  -17.6991 C   0  0  0  0  0  0  0  0  0  0  0  0
   -5.2024    5.3294  -18.4279 C   0  0  0  0  0  0  0  0  0  0  0  0
   -4.2307    5.4363  -17.7912 O   0  0  0  0  0  0  0  0  0  0  0  0
   -5.4276    5.5004  -19.9434 N   0  0  0  0  0  0  0  0  0  0  0  0
   -4.5027    5.9421  -21.0073 C   0  0  0  0  0  0  0  0  0  0  0  0
   -4.2861    7.4487  -20.8636 C   0  0  0  0  0  0  0  0  0  0  0  0
   -3.6123    8.1130  -22.0403 C   0  0  0  0  0  0  0  0  0  0  0  0
   -4.3634    8.5763  -23.1326 C   0  0  0  0  0  0  0  0  0  0  0  0
   -3.7268    9.1812  -24.2181 C   0  0  0  0  0  0  0  0  0  0  0  0
   -2.3438    9.3323  -24.2100 C   0  0  0  0  0  0  0  0  0  0  0  0
   -1.7408    9.9169  -25.2534 F   0  0  0  0  0  0  0  0  0  0  0  0
   -1.5828    8.8964  -23.1364 C   0  0  0  0  0  0  0  0  0  0  0  0
   -2.2232    8.2946  -22.0603 C   0  0  0  0  0  0  0  0  0  0  0  0
   -1.4852    7.9009  -21.0133 F   0  0  0  0  0  0  0  0  0  0  0  0
   -3.2366    5.0632  -21.1745 C   0  0  0  0  0  0  0  0  0  0  0  0
   -3.5620    4.8171  -22.5768 O   0  0  0  0  0  0  0  0  0  0  0  0
   -4.8971    5.3121  -22.3632 C   0  0  0  0  0  0  0  0  0  0  0  0
   -7.5899    4.3609  -18.2990 C   0  0  0  0  0  0  0  0  0  0  0  0
   -8.7158    4.0140  -17.5535 C   0  0  0  0  0  0  0  0  0  0  0  0
   -8.7392    4.2029  -16.1707 C   0  0  0  0  0  0  0  0  0  0  0  0
   -7.6362    4.7921  -15.5263 C   0  0  0  0  0  0  0  0  0  0  0  0
  1  2  2  0
  2  3  1  0
  3  4  2  0
  4  5  1  0
  5  6  1  0
  6  7  2  0
  7  8  1  0
  8  9  2  0
  8 10  1  0
 10 11  1  0
 11 12  1  0
 12 13  1  0
 13 14  2  0
 14 15  1  0
 15 16  2  0
 16 17  1  0
 16 18  1  0
 18 19  2  0
 19 20  1  0
 11 21  1  0
 21 22  1  0
 22 23  1  0
  7 24  1  0
 24 25  2  0
 25 26  1  0
 26 27  2  0
 27  3  1  0
 27  6  1  0
 23 11  1  0
 19 13  1  0
M  END
>  <fragmenstein_outcome>  (584) 
nan

>  <exports>  (584) 
['/opt/xchem-fragalysis-2/maxwin/openbind-hippo/xx01zvns2b/cycle_01/syndirella/elabs/openbind_xx01zvns2b_c1_elab_chemspace_filtered.sdf']

>  <Energy>  (584) 
nan

>  <alias>  (584) 
None

>  <fragmenstein_runtime>  (584) 
nan

>  <scratch_subdir>  (584) 
nan

>  <HIPPO Compound ID>  (584) 
145874

>  <rmsd(smina/fragmenstein)>  (584) 
1.113

>  <distance_score>  (584) 
0.765837

>  <orig_smiles>  (584) 
nan

>  <fragmenstein_mode>  (584) 
nan

>  <inchikey>  (584) 
ZKHRABWFWUIIGU-UHFFFAOYSA-N

>  <ref_pdb>  (584) 
Z0101a

>  <GNINA pK>  (584) 
nan

>  <gnina_score_min>  (584) 
5.329

>  <tags>  (584) 
openbind_xx01zvns2b_c1_elab_nonasap_filtered_scored_top80percent,openbind_xx01zvns2b_c1_elab_chemspace_filtered_scored_top80percent,openbind_xx01zvns2b_c1_elab_chemspace_filtered_scored,openbind_xx01zvns2b_c1_elab_chemspace_filtered_scored_top40percent,openbind_xx01zvns2b_c1_elab_chemspace_filtered_scored_top20percent,openbind_xx01zvns2b_c1_elab_chemspace_filtered_scored_top60percent,openbind_xx01zvns2b_c1_elabs_filtered

>  <smiles>  (584) 
O=Cc1c[nH]c2c(C(=O)NC3(Cc4ccc(F)cc4F)COC3)cccc12

>  <subsites>  (584) 
1 - Z4590/B/203/1

>  <gnina_score>  (584) 
5.126

>  <HIPPO Pose ID>  (584) 
72523

>  <ref_mols>  (584) 
Z0827a,Z0101a

>  <energy_score>  (584) 
-26.636869

>  <inspiration_score>  (584) 
None

>  <smina_score_min>  (584) 
-7.003

>  <fragmenstein_error>  (584) 
nan

>  <name>  (584) 
P72523

$$$$
P72525
     RDKit          3D

 27 30  0  0  0  0  0  0  0  0999 V2000
   -4.0203    5.1678  -17.7262 O   0  0  0  0  0  0  0  0  0  0  0  0
   -4.9813    5.1564  -18.3918 C   0  0  0  0  0  0  0  0  0  0  0  0
   -5.1623    5.4671  -19.8971 N   0  0  0  0  0  0  0  0  0  0  0  0
   -4.1903    5.9615  -20.9021 C   0  0  0  0  0  0  0  0  0  0  0  0
   -3.3527    7.1278  -20.3888 C   0  0  0  0  0  0  0  0  0  0  0  0
   -4.1774    8.3344  -19.9996 C   0  0  0  0  0  0  0  0  0  0  0  0
   -4.5154    8.5661  -18.6569 C   0  0  0  0  0  0  0  0  0  0  0  0
   -5.2636    9.6883  -18.2983 C   0  0  0  0  0  0  0  0  0  0  0  0
   -5.6679   10.5849  -19.2805 C   0  0  0  0  0  0  0  0  0  0  0  0
   -6.4131   11.6430  -18.9376 F   0  0  0  0  0  0  0  0  0  0  0  0
   -5.3311   10.3887  -20.6112 C   0  0  0  0  0  0  0  0  0  0  0  0
   -4.5910    9.2649  -20.9594 C   0  0  0  0  0  0  0  0  0  0  0  0
   -4.2706    9.0856  -22.2476 F   0  0  0  0  0  0  0  0  0  0  0  0
   -4.7313    6.0753  -22.3390 C   0  0  0  0  0  0  0  0  0  0  0  0
   -4.3187    4.7128  -22.6344 O   0  0  0  0  0  0  0  0  0  0  0  0
   -3.3533    4.8235  -21.5425 C   0  0  0  0  0  0  0  0  0  0  0  0
   -6.2687    4.8685  -17.6844 C   0  0  0  0  0  0  0  0  0  0  0  0
   -7.4047    4.3439  -18.3010 C   0  0  0  0  0  0  0  0  0  0  0  0
   -7.3495    4.0064  -19.5969 F   0  0  0  0  0  0  0  0  0  0  0  0
   -8.5852    4.1363  -17.5903 C   0  0  0  0  0  0  0  0  0  0  0  0
  -10.0247    3.6663  -18.4012 Cl  0  0  0  0  0  0  0  0  0  0  0  0
   -8.6537    4.3727  -16.2157 C   0  0  0  0  0  0  0  0  0  0  0  0
   -7.5358    4.9115  -15.5632 C   0  0  0  0  0  0  0  0  0  0  0  0
   -7.2880    5.3364  -14.2293 C   0  0  0  0  0  0  0  0  0  0  0  0
   -6.0001    5.8172  -14.1795 C   0  0  0  0  0  0  0  0  0  0  0  0
   -5.4463    5.6591  -15.4228 N   0  0  0  0  0  0  0  0  0  0  0  0
   -6.3767    5.1453  -16.3031 C   0  0  0  0  0  0  0  0  0  0  0  0
  1  2  2  0
  2  3  1  0
  3  4  1  0
  4  5  1  0
  5  6  1  0
  6  7  2  0
  7  8  1  0
  8  9  2  0
  9 10  1  0
  9 11  1  0
 11 12  2  0
 12 13  1  0
  4 14  1  0
 14 15  1  0
 15 16  1  0
  2 17  1  0
 17 18  2  0
 18 19  1  0
 18 20  1  0
 20 21  1  0
 20 22  2  0
 22 23  1  0
 23 24  1  0
 24 25  2  0
 25 26  1  0
 26 27  1  0
 16  4  1  0
 27 17  1  0
 12  6  1  0
 27 23  2  0
M  END
>  <fragmenstein_outcome>  (585) 
nan

>  <exports>  (585) 
['/opt/xchem-fragalysis-2/maxwin/openbind-hippo/xx01zvns2b/cycle_01/syndirella/elabs/openbind_xx01zvns2b_c1_elab_chemspace_filtered.sdf']

>  <Energy>  (585) 
nan

>  <alias>  (585) 
None

>  <fragmenstein_runtime>  (585) 
nan

>  <scratch_subdir>  (585) 
nan

>  <HIPPO Compound ID>  (585) 
145876

>  <rmsd(smina/fragmenstein)>  (585) 
0.366

>  <distance_score>  (585) 
1.034212

>  <orig_smiles>  (585) 
nan

>  <fragmenstein_mode>  (585) 
nan

>  <inchikey>  (585) 
APJJTQKATZMACK-UHFFFAOYSA-N

>  <ref_pdb>  (585) 
Z0101a

>  <GNINA pK>  (585) 
nan

>  <gnina_score_min>  (585) 
5.757

>  <tags>  (585) 
openbind_xx01zvns2b_c1_elab_nonasap_filtered_scored_top80percent,openbind_xx01zvns2b_c1_elab_chemspace_filtered_scored_top80percent,openbind_xx01zvns2b_c1_elab_chemspace_filtered_scored,openbind_xx01zvns2b_c1_elab_chemspace_filtered_scored_top40percent,openbind_xx01zvns2b_c1_elab_chemspace_filtered_scored_top20percent,openbind_xx01zvns2b_c1_elab_chemspace_filtered_scored_top60percent,openbind_xx01zvns2b_c1_elabs_filtered

>  <smiles>  (585) 
O=C(NC1(Cc2ccc(F)cc2F)COC1)c1c(F)c(Cl)cc2cc[nH]c12

>  <subsites>  (585) 
1 - Z4590/B/203/1

>  <gnina_score>  (585) 
5.834

>  <HIPPO Pose ID>  (585) 
72525

>  <ref_mols>  (585) 
Z0827a,Z0101a

>  <energy_score>  (585) 
-53.02848

>  <inspiration_score>  (585) 
None

>  <smina_score_min>  (585) 
-6.841

>  <fragmenstein_error>  (585) 
nan

>  <name>  (585) 
P72525

$$$$
P72534
     RDKit          3D

 28 30  0  0  0  0  0  0  0  0999 V2000
   -3.4106    6.4989  -24.4534 C   0  0  0  0  0  0  0  0  0  0  0  0
   -3.1335    6.7597  -23.0777 O   0  0  0  0  0  0  0  0  0  0  0  0
   -3.8582    6.0069  -22.1990 C   0  0  0  0  0  0  0  0  0  0  0  0
   -4.6846    5.1626  -22.5339 O   0  0  0  0  0  0  0  0  0  0  0  0
   -3.4625    6.3236  -20.7338 C   0  0  2  0  0  0  0  0  0  0  0  0
   -3.4396    7.8374  -20.5259 C   0  0  0  0  0  0  0  0  0  0  0  0
   -2.1545    5.5527  -20.4364 C   0  0  0  0  0  0  0  0  0  0  0  0
   -0.9235    6.3906  -20.1636 C   0  0  0  0  0  0  0  0  0  0  0  0
   -0.0804    6.7843  -21.2140 C   0  0  0  0  0  0  0  0  0  0  0  0
    1.0536    7.5549  -20.9563 C   0  0  0  0  0  0  0  0  0  0  0  0
    1.3425    7.9333  -19.6509 C   0  0  0  0  0  0  0  0  0  0  0  0
    2.4321    8.6727  -19.4042 F   0  0  0  0  0  0  0  0  0  0  0  0
    0.5205    7.5541  -18.5968 C   0  0  0  0  0  0  0  0  0  0  0  0
   -0.6125    6.7816  -18.8520 C   0  0  0  0  0  0  0  0  0  0  0  0
   -4.5243    5.8025  -19.8804 N   0  0  0  0  0  0  0  0  0  0  0  0
   -4.5873    5.6351  -18.3464 C   0  0  0  0  0  0  0  0  0  0  0  0
   -3.7713    5.8159  -17.5318 O   0  0  0  0  0  0  0  0  0  0  0  0
   -5.9108    5.1105  -17.9072 C   0  0  0  0  0  0  0  0  0  0  0  0
   -6.7574    4.4361  -18.7842 C   0  0  0  0  0  0  0  0  0  0  0  0
   -8.0206    4.0443  -18.4010 C   0  0  0  0  0  0  0  0  0  0  0  0
   -8.4709    4.2273  -17.0938 C   0  0  0  0  0  0  0  0  0  0  0  0
   -9.7322    3.8511  -16.7220 O   0  0  0  0  0  0  0  0  0  0  0  0
  -10.6622    3.9174  -17.8014 C   0  0  0  0  0  0  0  0  0  0  0  0
   -7.6029    4.8120  -16.1452 C   0  0  0  0  0  0  0  0  0  0  0  0
   -7.7027    5.1378  -14.7595 C   0  0  0  0  0  0  0  0  0  0  0  0
   -6.5297    5.7544  -14.3832 C   0  0  0  0  0  0  0  0  0  0  0  0
   -5.7137    5.8006  -15.4835 N   0  0  0  0  0  0  0  0  0  0  0  0
   -6.3471    5.2493  -16.5766 C   0  0  0  0  0  0  0  0  0  0  0  0
  1  2  1  0
  2  3  1  0
  3  4  2  0
  3  5  1  0
  5  6  1  6
  5  7  1  0
  7  8  1  0
  8  9  2  0
  9 10  1  0
 10 11  2  0
 11 12  1  0
 11 13  1  0
 13 14  2  0
  5 15  1  0
 15 16  1  0
 16 17  2  0
 16 18  1  0
 18 19  2  0
 19 20  1  0
 20 21  2  0
 21 22  1  0
 22 23  1  0
 21 24  1  0
 24 25  1  0
 25 26  2  0
 26 27  1  0
 27 28  1  0
 14  8  1  0
 28 18  1  0
 28 24  2  0
M  END
>  <fragmenstein_outcome>  (586) 
nan

>  <exports>  (586) 
['/opt/xchem-fragalysis-2/maxwin/openbind-hippo/xx01zvns2b/cycle_01/syndirella/elabs/openbind_xx01zvns2b_c1_elab_chemspace_filtered.sdf']

>  <Energy>  (586) 
nan

>  <alias>  (586) 
None

>  <fragmenstein_runtime>  (586) 
nan

>  <scratch_subdir>  (586) 
nan

>  <HIPPO Compound ID>  (586) 
145881

>  <rmsd(smina/fragmenstein)>  (586) 
1.62

>  <distance_score>  (586) 
1.259035

>  <orig_smiles>  (586) 
nan

>  <fragmenstein_mode>  (586) 
nan

>  <inchikey>  (586) 
FPJPDQICLXOTGM-NRFANRHFSA-N

>  <ref_pdb>  (586) 
Z0101a

>  <GNINA pK>  (586) 
nan

>  <gnina_score_min>  (586) 
5.276

>  <tags>  (586) 
openbind_xx01zvns2b_c1_elab_nonasap_filtered_scored_top80percent,openbind_xx01zvns2b_c1_elab_chemspace_filtered_scored_top80percent,openbind_xx01zvns2b_c1_elab_chemspace_filtered_scored,openbind_xx01zvns2b_c1_elab_chemspace_filtered_scored_top40percent,openbind_xx01zvns2b_c1_elab_chemspace_filtered_scored_top20percent,openbind_xx01zvns2b_c1_elab_chemspace_filtered_scored_top60percent,openbind_xx01zvns2b_c1_elabs_filtered

>  <smiles>  (586) 
COC(=O)[C@](C)(Cc1ccc(F)cc1)NC(=O)c1ccc(OC)c2cc[nH]c12

>  <subsites>  (586) 
1 - Z4590/B/203/1

>  <gnina_score>  (586) 
5.425

>  <HIPPO Pose ID>  (586) 
72534

>  <ref_mols>  (586) 
Z0827a,Z0101a

>  <energy_score>  (586) 
-17.481596

>  <inspiration_score>  (586) 
None

>  <smina_score_min>  (586) 
-6.381

>  <fragmenstein_error>  (586) 
nan

>  <name>  (586) 
P72534

$$$$
P72537
     RDKit          3D

 28 31  0  0  0  0  0  0  0  0999 V2000
   -3.9897    5.4523  -15.6423 C   0  0  0  0  0  0  0  0  0  0  0  0
   -5.3837    5.1146  -15.4459 N   0  0  0  0  0  0  0  0  0  0  0  0
   -5.9546    5.0978  -14.1945 C   0  0  0  0  0  0  0  0  0  0  0  0
   -7.2998    4.8527  -14.3386 C   0  0  0  0  0  0  0  0  0  0  0  0
   -8.2793    4.8569  -13.2750 C   0  0  0  0  0  0  0  0  0  0  0  0
   -9.4348    5.2330  -13.4553 O   0  0  0  0  0  0  0  0  0  0  0  0
   -7.5368    4.6271  -15.7240 C   0  0  0  0  0  0  0  0  0  0  0  0
   -8.7053    4.2767  -16.4323 C   0  0  0  0  0  0  0  0  0  0  0  0
   -8.6688    4.0994  -17.8073 C   0  0  0  0  0  0  0  0  0  0  0  0
   -7.4694    4.2580  -18.4827 C   0  0  0  0  0  0  0  0  0  0  0  0
   -6.2746    4.6219  -17.8231 C   0  0  0  0  0  0  0  0  0  0  0  0
   -5.0167    4.7541  -18.6278 C   0  0  0  0  0  0  0  0  0  0  0  0
   -4.0100    4.3753  -18.1816 O   0  0  0  0  0  0  0  0  0  0  0  0
   -5.3166    5.4413  -19.9757 N   0  0  0  0  0  0  0  0  0  0  0  0
   -4.4047    5.9021  -21.0405 C   0  0  0  0  0  0  0  0  0  0  0  0
   -4.1776    7.4024  -20.8468 C   0  0  0  0  0  0  0  0  0  0  0  0
   -3.3705    8.0771  -21.9299 C   0  0  0  0  0  0  0  0  0  0  0  0
   -3.9862    8.5737  -23.0893 C   0  0  0  0  0  0  0  0  0  0  0  0
   -3.2219    9.1877  -24.0838 C   0  0  0  0  0  0  0  0  0  0  0  0
   -1.8464    9.3143  -23.9178 C   0  0  0  0  0  0  0  0  0  0  0  0
   -1.1210    9.9082  -24.8744 F   0  0  0  0  0  0  0  0  0  0  0  0
   -1.2177    8.8454  -22.7749 C   0  0  0  0  0  0  0  0  0  0  0  0
   -1.9848    8.2352  -21.7904 C   0  0  0  0  0  0  0  0  0  0  0  0
   -1.3760    7.8057  -20.6761 F   0  0  0  0  0  0  0  0  0  0  0  0
   -3.1697    5.0034  -21.3082 C   0  0  0  0  0  0  0  0  0  0  0  0
   -3.5422    4.8799  -22.7177 O   0  0  0  0  0  0  0  0  0  0  0  0
   -4.8669    5.3584  -22.4109 C   0  0  0  0  0  0  0  0  0  0  0  0
   -6.3227    4.7936  -16.4149 C   0  0  0  0  0  0  0  0  0  0  0  0
  1  2  1  0
  2  3  1  0
  3  4  2  0
  4  5  1  0
  5  6  2  0
  4  7  1  0
  7  8  2  0
  8  9  1  0
  9 10  2  0
 10 11  1  0
 11 12  1  0
 12 13  2  0
 12 14  1  0
 14 15  1  0
 15 16  1  0
 16 17  1  0
 17 18  2  0
 18 19  1  0
 19 20  2  0
 20 21  1  0
 20 22  1  0
 22 23  2  0
 23 24  1  0
 15 25  1  0
 25 26  1  0
 26 27  1  0
 11 28  2  0
 28  2  1  0
 28  7  1  0
 27 15  1  0
 23 17  1  0
M  END
>  <fragmenstein_outcome>  (587) 
nan

>  <exports>  (587) 
['/opt/xchem-fragalysis-2/maxwin/openbind-hippo/xx01zvns2b/cycle_01/syndirella/elabs/openbind_xx01zvns2b_c1_elab_chemspace_filtered.sdf']

>  <Energy>  (587) 
nan

>  <alias>  (587) 
None

>  <fragmenstein_runtime>  (587) 
nan

>  <scratch_subdir>  (587) 
nan

>  <HIPPO Compound ID>  (587) 
145883

>  <rmsd(smina/fragmenstein)>  (587) 
1.313

>  <distance_score>  (587) 
0.97584

>  <orig_smiles>  (587) 
nan

>  <fragmenstein_mode>  (587) 
nan

>  <inchikey>  (587) 
SKFJNIBLOSGDNE-UHFFFAOYSA-N

>  <ref_pdb>  (587) 
Z0101a

>  <GNINA pK>  (587) 
nan

>  <gnina_score_min>  (587) 
5.345

>  <tags>  (587) 
openbind_xx01zvns2b_c1_elab_nonasap_filtered_scored_top80percent,openbind_xx01zvns2b_c1_elab_chemspace_filtered_scored_top80percent,openbind_xx01zvns2b_c1_elab_chemspace_filtered_scored,openbind_xx01zvns2b_c1_elab_chemspace_filtered_scored_top40percent,openbind_xx01zvns2b_c1_elab_chemspace_filtered_scored_top20percent,openbind_xx01zvns2b_c1_elab_chemspace_filtered_scored_top60percent,openbind_xx01zvns2b_c1_elabs_filtered

>  <smiles>  (587) 
Cn1cc(C=O)c2cccc(C(=O)NC3(Cc4ccc(F)cc4F)COC3)c21

>  <subsites>  (587) 
1 - Z4590/B/203/1

>  <gnina_score>  (587) 
5.227

>  <HIPPO Pose ID>  (587) 
72537

>  <ref_mols>  (587) 
Z0101a,Z0827a

>  <energy_score>  (587) 
-21.106011

>  <inspiration_score>  (587) 
None

>  <smina_score_min>  (587) 
-7.139

>  <fragmenstein_error>  (587) 
nan

>  <name>  (587) 
P72537

$$$$
P72539
     RDKit          3D

 28 31  0  0  0  0  0  0  0  0999 V2000
   -4.1278    4.8366  -15.0773 C   0  0  0  0  0  0  0  0  0  0  0  0
   -4.9466    5.7341  -15.8316 O   0  0  0  0  0  0  0  0  0  0  0  0
   -6.1695    5.1640  -16.1050 C   0  0  0  0  0  0  0  0  0  0  0  0
   -7.0862    5.0689  -15.0616 C   0  0  0  0  0  0  0  0  0  0  0  0
   -8.3702    4.6134  -15.3103 C   0  0  0  0  0  0  0  0  0  0  0  0
   -8.7636    4.3697  -16.6342 C   0  0  0  0  0  0  0  0  0  0  0  0
  -10.0198    4.0401  -17.1829 C   0  0  0  0  0  0  0  0  0  0  0  0
   -9.9120    4.1228  -18.5288 C   0  0  0  0  0  0  0  0  0  0  0  0
   -8.5755    4.1404  -18.8024 N   0  0  0  0  0  0  0  0  0  0  0  0
   -8.1701    3.5785  -20.0443 C   0  0  0  0  0  0  0  0  0  0  0  0
   -7.8359    4.4765  -17.6948 C   0  0  0  0  0  0  0  0  0  0  0  0
   -6.4833    4.8095  -17.4386 C   0  0  0  0  0  0  0  0  0  0  0  0
   -5.3404    4.7687  -18.4063 C   0  0  0  0  0  0  0  0  0  0  0  0
   -4.3920    4.1783  -18.0730 O   0  0  0  0  0  0  0  0  0  0  0  0
   -5.5954    5.6179  -19.6635 N   0  0  0  0  0  0  0  0  0  0  0  0
   -4.6785    6.0112  -20.7657 C   0  0  0  0  0  0  0  0  0  0  0  0
   -4.3689    7.5037  -20.6193 C   0  0  0  0  0  0  0  0  0  0  0  0
   -3.7056    8.1458  -21.8150 C   0  0  0  0  0  0  0  0  0  0  0  0
   -2.3081    8.1946  -21.9269 C   0  0  0  0  0  0  0  0  0  0  0  0
   -1.7099    8.7845  -23.0425 C   0  0  0  0  0  0  0  0  0  0  0  0
   -2.5054    9.3317  -24.0431 C   0  0  0  0  0  0  0  0  0  0  0  0
   -1.9265    9.8994  -25.1092 F   0  0  0  0  0  0  0  0  0  0  0  0
   -3.8885    9.3052  -23.9514 C   0  0  0  0  0  0  0  0  0  0  0  0
   -4.4752    8.7155  -22.8386 C   0  0  0  0  0  0  0  0  0  0  0  0
   -5.8133    8.7024  -22.7510 F   0  0  0  0  0  0  0  0  0  0  0  0
   -3.4268    5.1060  -20.9586 C   0  0  0  0  0  0  0  0  0  0  0  0
   -3.7233    4.9742  -22.3848 O   0  0  0  0  0  0  0  0  0  0  0  0
   -5.0814    5.3950  -22.1271 C   0  0  0  0  0  0  0  0  0  0  0  0
  1  2  1  0
  2  3  1  0
  3  4  2  0
  4  5  1  0
  5  6  2  0
  6  7  1  0
  7  8  2  0
  8  9  1  0
  9 10  1  0
  9 11  1  0
 11 12  2  0
 12 13  1  0
 13 14  2  0
 13 15  1  0
 15 16  1  0
 16 17  1  0
 17 18  1  0
 18 19  2  0
 19 20  1  0
 20 21  2  0
 21 22  1  0
 21 23  1  0
 23 24  2  0
 24 25  1  0
 16 26  1  0
 26 27  1  0
 27 28  1  0
 12  3  1  0
 28 16  1  0
 11  6  1  0
 24 18  1  0
M  END
>  <fragmenstein_outcome>  (588) 
nan

>  <exports>  (588) 
['/opt/xchem-fragalysis-2/maxwin/openbind-hippo/xx01zvns2b/cycle_01/syndirella/elabs/openbind_xx01zvns2b_c1_elab_chemspace_filtered.sdf']

>  <Energy>  (588) 
nan

>  <alias>  (588) 
None

>  <fragmenstein_runtime>  (588) 
nan

>  <scratch_subdir>  (588) 
nan

>  <HIPPO Compound ID>  (588) 
145885

>  <rmsd(smina/fragmenstein)>  (588) 
1.578

>  <distance_score>  (588) 
1.185189

>  <orig_smiles>  (588) 
nan

>  <fragmenstein_mode>  (588) 
nan

>  <inchikey>  (588) 
KRSPNHLWKWLJKH-UHFFFAOYSA-N

>  <ref_pdb>  (588) 
Z0101a

>  <GNINA pK>  (588) 
nan

>  <gnina_score_min>  (588) 
5.316

>  <tags>  (588) 
openbind_xx01zvns2b_c1_elab_nonasap_filtered_scored_top80percent,openbind_xx01zvns2b_c1_elab_chemspace_filtered_scored_top80percent,openbind_xx01zvns2b_c1_elab_chemspace_filtered_scored,openbind_xx01zvns2b_c1_elab_chemspace_filtered_scored_top40percent,openbind_xx01zvns2b_c1_elab_chemspace_filtered_scored_top20percent,openbind_xx01zvns2b_c1_elab_chemspace_filtered_scored_top60percent,openbind_xx01zvns2b_c1_elabs_filtered

>  <smiles>  (588) 
COc1ccc2ccn(C)c2c1C(=O)NC1(Cc2ccc(F)cc2F)COC1

>  <subsites>  (588) 
1 - Z4590/B/203/1

>  <gnina_score>  (588) 
5.155

>  <HIPPO Pose ID>  (588) 
72539

>  <ref_mols>  (588) 
Z0827a,Z0101a

>  <energy_score>  (588) 
-8.40534

>  <inspiration_score>  (588) 
None

>  <smina_score_min>  (588) 
-5.433

>  <fragmenstein_error>  (588) 
nan

>  <name>  (588) 
P72539

$$$$
P72540
     RDKit          3D

 28 31  0  0  0  0  0  0  0  0999 V2000
   -9.1225    3.9273  -15.2891 C   0  0  0  0  0  0  0  0  0  0  0  0
   -8.1014    4.5271  -16.1715 C   0  0  0  0  0  0  0  0  0  0  0  0
   -8.1374    4.2550  -17.5453 C   0  0  0  0  0  0  0  0  0  0  0  0
   -7.0895    4.6376  -18.3701 C   0  0  0  0  0  0  0  0  0  0  0  0
   -5.9872    5.3399  -17.8617 C   0  0  0  0  0  0  0  0  0  0  0  0
   -4.7819    5.7230  -18.6669 C   0  0  0  0  0  0  0  0  0  0  0  0
   -3.8034    5.9378  -18.0678 O   0  0  0  0  0  0  0  0  0  0  0  0
   -5.0448    5.7279  -20.1871 N   0  0  0  0  0  0  0  0  0  0  0  0
   -4.1598    6.1004  -21.3156 C   0  0  0  0  0  0  0  0  0  0  0  0
   -3.6698    7.5239  -21.0709 C   0  0  0  0  0  0  0  0  0  0  0  0
   -2.8704    8.1182  -22.2055 C   0  0  0  0  0  0  0  0  0  0  0  0
   -3.5007    8.8466  -23.2268 C   0  0  0  0  0  0  0  0  0  0  0  0
   -2.7476    9.3871  -24.2711 C   0  0  0  0  0  0  0  0  0  0  0  0
   -1.3679    9.2074  -24.2923 C   0  0  0  0  0  0  0  0  0  0  0  0
   -0.6529    9.7296  -25.2971 F   0  0  0  0  0  0  0  0  0  0  0  0
   -0.7227    8.5011  -23.2889 C   0  0  0  0  0  0  0  0  0  0  0  0
   -1.4784    7.9663  -22.2533 C   0  0  0  0  0  0  0  0  0  0  0  0
   -0.8500    7.2950  -21.2790 F   0  0  0  0  0  0  0  0  0  0  0  0
   -3.1570    4.9515  -21.6256 C   0  0  0  0  0  0  0  0  0  0  0  0
   -4.0841    4.4121  -22.6274 O   0  0  0  0  0  0  0  0  0  0  0  0
   -4.7370    5.7041  -22.6941 C   0  0  0  0  0  0  0  0  0  0  0  0
   -5.9957    5.6255  -16.4777 C   0  0  0  0  0  0  0  0  0  0  0  0
   -5.0477    6.2523  -15.6942 N   0  0  0  0  0  0  0  0  0  0  0  0
   -5.4607    6.3147  -14.3890 C   0  0  0  0  0  0  0  0  0  0  0  0
   -6.6707    5.6624  -14.3000 C   0  0  0  0  0  0  0  0  0  0  0  0
   -7.3949    5.4674  -13.0767 C   0  0  0  0  0  0  0  0  0  0  0  0
   -7.9633    5.3730  -12.0686 N   0  0  0  0  0  0  0  0  0  0  0  0
   -7.0226    5.2417  -15.6213 C   0  0  0  0  0  0  0  0  0  0  0  0
  1  2  1  0
  2  3  2  0
  3  4  1  0
  4  5  2  0
  5  6  1  0
  6  7  2  0
  6  8  1  0
  8  9  1  0
  9 10  1  0
 10 11  1  0
 11 12  2  0
 12 13  1  0
 13 14  2  0
 14 15  1  0
 14 16  1  0
 16 17  2  0
 17 18  1  0
  9 19  1  0
 19 20  1  0
 20 21  1  0
  5 22  1  0
 22 23  1  0
 23 24  1  0
 24 25  2  0
 25 26  1  0
 26 27  3  0
 25 28  1  0
 28  2  1  0
 21  9  1  0
 28 22  2  0
 17 11  1  0
M  END
>  <fragmenstein_outcome>  (589) 
nan

>  <exports>  (589) 
['/opt/xchem-fragalysis-2/maxwin/openbind-hippo/xx01zvns2b/cycle_01/syndirella/elabs/openbind_xx01zvns2b_c1_elab_chemspace_filtered.sdf']

>  <Energy>  (589) 
nan

>  <alias>  (589) 
None

>  <fragmenstein_runtime>  (589) 
nan

>  <scratch_subdir>  (589) 
nan

>  <HIPPO Compound ID>  (589) 
145886

>  <rmsd(smina/fragmenstein)>  (589) 
2.031

>  <distance_score>  (589) 
1.143642

>  <orig_smiles>  (589) 
nan

>  <fragmenstein_mode>  (589) 
nan

>  <inchikey>  (589) 
DMTPQVYUNGHOBH-UHFFFAOYSA-N

>  <ref_pdb>  (589) 
Z0101a

>  <GNINA pK>  (589) 
nan

>  <gnina_score_min>  (589) 
5.332

>  <tags>  (589) 
openbind_xx01zvns2b_c1_elab_nonasap_filtered_scored_top80percent,openbind_xx01zvns2b_c1_elab_chemspace_filtered_scored_top80percent,openbind_xx01zvns2b_c1_elab_chemspace_filtered_scored,openbind_xx01zvns2b_c1_elab_chemspace_filtered_scored_top40percent,openbind_xx01zvns2b_c1_elab_chemspace_filtered_scored_top20percent,openbind_xx01zvns2b_c1_elab_chemspace_filtered_scored_top60percent,openbind_xx01zvns2b_c1_elabs_filtered

>  <smiles>  (589) 
Cc1ccc(C(=O)NC2(Cc3ccc(F)cc3F)COC2)c2[nH]cc(C#N)c12

>  <subsites>  (589) 
1 - Z4590/B/203/1

>  <gnina_score>  (589) 
5.38

>  <HIPPO Pose ID>  (589) 
72540

>  <ref_mols>  (589) 
Z0101a,Z0827a

>  <energy_score>  (589) 
-45.282616

>  <inspiration_score>  (589) 
None

>  <smina_score_min>  (589) 
-6.641

>  <fragmenstein_error>  (589) 
nan

>  <name>  (589) 
P72540

$$$$
P72546
     RDKit          3D

 29 31  0  0  0  0  0  0  0  0999 V2000
   -4.9436    6.7769  -23.5503 C   0  0  0  0  0  0  0  0  0  0  0  0
   -4.5987    7.1305  -22.2110 O   0  0  0  0  0  0  0  0  0  0  0  0
   -4.2527    6.0728  -21.4167 C   0  0  0  0  0  0  0  0  0  0  0  0
   -4.2839    4.9066  -21.7999 O   0  0  0  0  0  0  0  0  0  0  0  0
   -3.8549    6.5334  -19.9828 C   0  0  2  0  0  0  0  0  0  0  0  0
   -3.8445    8.0611  -19.8667 C   0  0  0  0  0  0  0  0  0  0  0  0
   -2.4546    5.9188  -19.6904 C   0  0  0  0  0  0  0  0  0  0  0  0
   -1.2894    6.6238  -20.3653 C   0  0  0  0  0  0  0  0  0  0  0  0
   -0.9946    6.4019  -21.7180 C   0  0  0  0  0  0  0  0  0  0  0  0
    0.0668    7.0700  -22.3310 C   0  0  0  0  0  0  0  0  0  0  0  0
    0.8327    7.9629  -21.5934 C   0  0  0  0  0  0  0  0  0  0  0  0
    1.8507    8.6046  -22.1819 F   0  0  0  0  0  0  0  0  0  0  0  0
    0.5620    8.1967  -20.2514 C   0  0  0  0  0  0  0  0  0  0  0  0
   -0.4960    7.5264  -19.6363 C   0  0  0  0  0  0  0  0  0  0  0  0
   -4.8758    6.0639  -19.0160 N   0  0  0  0  0  0  0  0  0  0  0  0
   -4.7655    5.0586  -17.8509 C   0  0  0  0  0  0  0  0  0  0  0  0
   -3.8746    4.3844  -17.5161 O   0  0  0  0  0  0  0  0  0  0  0  0
   -6.0585    4.9505  -17.1097 C   0  0  0  0  0  0  0  0  0  0  0  0
   -6.0864    5.2138  -15.7361 C   0  0  0  0  0  0  0  0  0  0  0  0
   -4.9820    5.7733  -15.1480 O   0  0  0  0  0  0  0  0  0  0  0  0
   -4.3188    4.8088  -14.3269 C   0  0  0  0  0  0  0  0  0  0  0  0
   -7.2380    5.0246  -14.9746 C   0  0  0  0  0  0  0  0  0  0  0  0
   -8.4127    4.5727  -15.5742 C   0  0  0  0  0  0  0  0  0  0  0  0
   -8.4426    4.3534  -16.9613 C   0  0  0  0  0  0  0  0  0  0  0  0
   -9.4863    4.0081  -17.8627 C   0  0  0  0  0  0  0  0  0  0  0  0
   -8.9242    3.9254  -19.1096 C   0  0  0  0  0  0  0  0  0  0  0  0
   -7.5777    4.1352  -18.9835 N   0  0  0  0  0  0  0  0  0  0  0  0
   -6.6149    3.8950  -20.0221 C   0  0  0  0  0  0  0  0  0  0  0  0
   -7.2650    4.5256  -17.7041 C   0  0  0  0  0  0  0  0  0  0  0  0
  1  2  1  0
  2  3  1  0
  3  4  2  0
  3  5  1  0
  5  6  1  6
  5  7  1  0
  7  8  1  0
  8  9  2  0
  9 10  1  0
 10 11  2  0
 11 12  1  0
 11 13  1  0
 13 14  2  0
  5 15  1  0
 15 16  1  0
 16 17  2  0
 16 18  1  0
 18 19  2  0
 19 20  1  0
 20 21  1  0
 19 22  1  0
 22 23  2  0
 23 24  1  0
 24 25  1  0
 25 26  2  0
 26 27  1  0
 27 28  1  0
 27 29  1  0
 14  8  1  0
 29 18  1  0
 29 24  2  0
M  END
>  <fragmenstein_outcome>  (590) 
nan

>  <exports>  (590) 
['/opt/xchem-fragalysis-2/maxwin/openbind-hippo/xx01zvns2b/cycle_01/syndirella/elabs/openbind_xx01zvns2b_c1_elab_chemspace_filtered.sdf']

>  <Energy>  (590) 
nan

>  <alias>  (590) 
None

>  <fragmenstein_runtime>  (590) 
nan

>  <scratch_subdir>  (590) 
nan

>  <HIPPO Compound ID>  (590) 
145890

>  <rmsd(smina/fragmenstein)>  (590) 
1.687

>  <distance_score>  (590) 
1.229683

>  <orig_smiles>  (590) 
nan

>  <fragmenstein_mode>  (590) 
nan

>  <inchikey>  (590) 
NYMZZSOQSFAJEA-QFIPXVFZSA-N

>  <ref_pdb>  (590) 
Z0101a

>  <GNINA pK>  (590) 
nan

>  <gnina_score_min>  (590) 
5.198

>  <tags>  (590) 
openbind_xx01zvns2b_c1_elab_nonasap_filtered_scored_top80percent,openbind_xx01zvns2b_c1_elab_chemspace_filtered_scored_top80percent,openbind_xx01zvns2b_c1_elab_chemspace_filtered_scored,openbind_xx01zvns2b_c1_elab_chemspace_filtered_scored_top40percent,openbind_xx01zvns2b_c1_elab_chemspace_filtered_scored_top20percent,openbind_xx01zvns2b_c1_elab_chemspace_filtered_scored_top60percent,openbind_xx01zvns2b_c1_elabs_filtered

>  <smiles>  (590) 
COC(=O)[C@](C)(Cc1ccc(F)cc1)NC(=O)c1c(OC)ccc2ccn(C)c12

>  <subsites>  (590) 
1 - Z4590/B/203/1

>  <gnina_score>  (590) 
5.234

>  <HIPPO Pose ID>  (590) 
72546

>  <ref_mols>  (590) 
Z0827a,Z0101a

>  <energy_score>  (590) 
-24.055627

>  <inspiration_score>  (590) 
None

>  <smina_score_min>  (590) 
-4.659

>  <fragmenstein_error>  (590) 
nan

>  <name>  (590) 
P72546

$$$$
P72553
     RDKit          3D

 29 33  0  0  0  0  0  0  0  0999 V2000
   -4.2502    4.9595  -17.8298 O   0  0  0  0  0  0  0  0  0  0  0  0
   -5.2405    5.0773  -18.4357 C   0  0  0  0  0  0  0  0  0  0  0  0
   -5.4701    5.4763  -19.9084 N   0  0  0  0  0  0  0  0  0  0  0  0
   -4.5128    5.9168  -20.9438 C   0  0  0  0  0  0  0  0  0  0  0  0
   -4.2936    7.4213  -20.7808 C   0  0  0  0  0  0  0  0  0  0  0  0
   -3.5490    8.0885  -21.9124 C   0  0  0  0  0  0  0  0  0  0  0  0
   -4.2315    8.5608  -23.0449 C   0  0  0  0  0  0  0  0  0  0  0  0
   -3.5289    9.1688  -24.0872 C   0  0  0  0  0  0  0  0  0  0  0  0
   -2.1483    9.3141  -23.9957 C   0  0  0  0  0  0  0  0  0  0  0  0
   -1.4819    9.9020  -24.9979 F   0  0  0  0  0  0  0  0  0  0  0  0
   -1.4545    8.8700  -22.8808 C   0  0  0  0  0  0  0  0  0  0  0  0
   -2.1605    8.2655  -21.8482 C   0  0  0  0  0  0  0  0  0  0  0  0
   -1.4881    7.8639  -20.7606 F   0  0  0  0  0  0  0  0  0  0  0  0
   -3.2489    5.0336  -21.1007 C   0  0  0  0  0  0  0  0  0  0  0  0
   -3.5508    4.8074  -22.5118 O   0  0  0  0  0  0  0  0  0  0  0  0
   -4.8860    5.3091  -22.3163 C   0  0  0  0  0  0  0  0  0  0  0  0
   -6.5351    4.8123  -17.7196 C   0  0  0  0  0  0  0  0  0  0  0  0
   -7.6954    4.3120  -18.3390 C   0  0  0  0  0  0  0  0  0  0  0  0
   -8.8562    4.0541  -17.6117 C   0  0  0  0  0  0  0  0  0  0  0  0
   -8.8915    4.2871  -16.2372 C   0  0  0  0  0  0  0  0  0  0  0  0
   -7.7631    4.8076  -15.5835 C   0  0  0  0  0  0  0  0  0  0  0  0
   -7.4797    5.1773  -14.2424 C   0  0  0  0  0  0  0  0  0  0  0  0
   -6.1462    5.5024  -14.1777 C   0  0  0  0  0  0  0  0  0  0  0  0
   -5.6265    5.4382  -15.4407 N   0  0  0  0  0  0  0  0  0  0  0  0
   -6.6044    5.0311  -16.3294 C   0  0  0  0  0  0  0  0  0  0  0  0
   -5.3919    5.8646  -12.9483 C   0  0  0  0  0  0  0  0  0  0  0  0
   -6.1925    5.4715  -11.7004 C   0  0  0  0  0  0  0  0  0  0  0  0
   -7.6652    5.8695  -11.8450 C   0  0  0  0  0  0  0  0  0  0  0  0
   -8.3443    5.1720  -13.0376 C   0  0  0  0  0  0  0  0  0  0  0  0
  1  2  2  0
  2  3  1  0
  3  4  1  0
  4  5  1  0
  5  6  1  0
  6  7  2  0
  7  8  1  0
  8  9  2  0
  9 10  1  0
  9 11  1  0
 11 12  2  0
 12 13  1  0
  4 14  1  0
 14 15  1  0
 15 16  1  0
  2 17  1  0
 17 18  2  0
 18 19  1  0
 19 20  2  0
 20 21  1  0
 21 22  1  0
 22 23  2  0
 23 24  1  0
 24 25  1  0
 23 26  1  0
 26 27  1  0
 27 28  1  0
 28 29  1  0
 16  4  1  0
 25 17  1  0
 12  6  1  0
 25 21  2  0
 29 22  1  0
M  END
>  <fragmenstein_outcome>  (591) 
nan

>  <exports>  (591) 
['/opt/xchem-fragalysis-2/maxwin/openbind-hippo/xx01zvns2b/cycle_01/syndirella/elabs/openbind_xx01zvns2b_c1_elab_chemspace_filtered.sdf']

>  <Energy>  (591) 
nan

>  <alias>  (591) 
None

>  <fragmenstein_runtime>  (591) 
nan

>  <scratch_subdir>  (591) 
nan

>  <HIPPO Compound ID>  (591) 
145894

>  <rmsd(smina/fragmenstein)>  (591) 
1.163

>  <distance_score>  (591) 
1.25571

>  <orig_smiles>  (591) 
nan

>  <fragmenstein_mode>  (591) 
nan

>  <inchikey>  (591) 
CVGDDDWUQQIUNA-UHFFFAOYSA-N

>  <ref_pdb>  (591) 
Z0101a

>  <GNINA pK>  (591) 
nan

>  <gnina_score_min>  (591) 
5.797

>  <tags>  (591) 
openbind_xx01zvns2b_c1_elab_nonasap_filtered_scored_top80percent,openbind_xx01zvns2b_c1_elab_chemspace_filtered_scored_top80percent,openbind_xx01zvns2b_c1_elab_chemspace_filtered_scored,openbind_xx01zvns2b_c1_elab_chemspace_filtered_scored_top40percent,openbind_xx01zvns2b_c1_elab_chemspace_filtered_scored_top20percent,openbind_xx01zvns2b_c1_elab_chemspace_filtered_scored_top60percent,openbind_xx01zvns2b_c1_elabs_filtered

>  <smiles>  (591) 
O=C(NC1(Cc2ccc(F)cc2F)COC1)c1cccc2c3c([nH]c12)CCCC3

>  <subsites>  (591) 
1 - Z4590/B/203/1

>  <gnina_score>  (591) 
5.49

>  <HIPPO Pose ID>  (591) 
72553

>  <ref_mols>  (591) 
Z0827a,Z0101a

>  <energy_score>  (591) 
-37.532849

>  <inspiration_score>  (591) 
None

>  <smina_score_min>  (591) 
-7.612

>  <fragmenstein_error>  (591) 
nan

>  <name>  (591) 
P72553

$$$$
P72556
     RDKit          3D

 30 34  0  0  0  0  0  0  0  0999 V2000
   -4.1221    4.7720  -17.8599 O   0  0  0  0  0  0  0  0  0  0  0  0
   -5.0996    4.9480  -18.4751 C   0  0  0  0  0  0  0  0  0  0  0  0
   -5.2986    5.5172  -19.9004 N   0  0  0  0  0  0  0  0  0  0  0  0
   -4.3085    5.9081  -20.9236 C   0  0  0  0  0  0  0  0  0  0  0  0
   -3.9282    7.3826  -20.7869 C   0  0  0  0  0  0  0  0  0  0  0  0
   -3.3491    7.7147  -19.4312 C   0  0  0  0  0  0  0  0  0  0  0  0
   -4.1729    8.1694  -18.3884 C   0  0  0  0  0  0  0  0  0  0  0  0
   -3.6355    8.4217  -17.1250 C   0  0  0  0  0  0  0  0  0  0  0  0
   -2.2755    8.2279  -16.9052 C   0  0  0  0  0  0  0  0  0  0  0  0
   -1.7663    8.4717  -15.6904 F   0  0  0  0  0  0  0  0  0  0  0  0
   -1.4398    7.7931  -17.9229 C   0  0  0  0  0  0  0  0  0  0  0  0
   -1.9835    7.5412  -19.1764 C   0  0  0  0  0  0  0  0  0  0  0  0
   -1.1697    7.1389  -20.1620 F   0  0  0  0  0  0  0  0  0  0  0  0
   -3.1827    4.8779  -21.1801 C   0  0  0  0  0  0  0  0  0  0  0  0
   -3.8776    4.3742  -22.3624 O   0  0  0  0  0  0  0  0  0  0  0  0
   -4.7269    5.5387  -22.3610 C   0  0  0  0  0  0  0  0  0  0  0  0
   -6.4032    4.6897  -17.7867 C   0  0  0  0  0  0  0  0  0  0  0  0
   -7.5756    4.2997  -18.4490 C   0  0  0  0  0  0  0  0  0  0  0  0
   -8.7639    4.0984  -17.7509 C   0  0  0  0  0  0  0  0  0  0  0  0
   -8.8136    4.2885  -16.3671 C   0  0  0  0  0  0  0  0  0  0  0  0
   -7.6589    4.6841  -15.6670 C   0  0  0  0  0  0  0  0  0  0  0  0
   -7.3688    4.9719  -14.2974 C   0  0  0  0  0  0  0  0  0  0  0  0
   -6.0035    5.1225  -14.1954 C   0  0  0  0  0  0  0  0  0  0  0  0
   -5.4887    5.1250  -15.4683 N   0  0  0  0  0  0  0  0  0  0  0  0
   -6.4780    4.8442  -16.3872 C   0  0  0  0  0  0  0  0  0  0  0  0
   -5.1524    5.2079  -12.9763 C   0  0  0  0  0  0  0  0  0  0  0  0
   -5.5448    6.3379  -12.0346 C   0  0  0  0  0  0  0  0  0  0  0  0
   -6.8728    6.1187  -11.3193 C   0  0  0  0  0  0  0  0  0  0  0  0
   -8.0884    6.2179  -12.2364 C   0  0  0  0  0  0  0  0  0  0  0  0
   -8.3052    5.0090  -13.1483 C   0  0  0  0  0  0  0  0  0  0  0  0
  1  2  2  0
  2  3  1  0
  3  4  1  0
  4  5  1  0
  5  6  1  0
  6  7  2  0
  7  8  1  0
  8  9  2  0
  9 10  1  0
  9 11  1  0
 11 12  2  0
 12 13  1  0
  4 14  1  0
 14 15  1  0
 15 16  1  0
  2 17  1  0
 17 18  2  0
 18 19  1  0
 19 20  2  0
 20 21  1  0
 21 22  1  0
 22 23  2  0
 23 24  1  0
 24 25  1  0
 23 26  1  0
 26 27  1  0
 27 28  1  0
 28 29  1  0
 29 30  1  0
 16  4  1  0
 25 17  1  0
 12  6  1  0
 25 21  2  0
 30 22  1  0
M  END
>  <fragmenstein_outcome>  (592) 
nan

>  <exports>  (592) 
['/opt/xchem-fragalysis-2/maxwin/openbind-hippo/xx01zvns2b/cycle_01/syndirella/elabs/openbind_xx01zvns2b_c1_elab_chemspace_filtered.sdf']

>  <Energy>  (592) 
nan

>  <alias>  (592) 
None

>  <fragmenstein_runtime>  (592) 
nan

>  <scratch_subdir>  (592) 
nan

>  <HIPPO Compound ID>  (592) 
145896

>  <rmsd(smina/fragmenstein)>  (592) 
1.006

>  <distance_score>  (592) 
1.367038

>  <orig_smiles>  (592) 
nan

>  <fragmenstein_mode>  (592) 
nan

>  <inchikey>  (592) 
PIPDARMZYJWNKT-UHFFFAOYSA-N

>  <ref_pdb>  (592) 
Z0101a

>  <GNINA pK>  (592) 
nan

>  <gnina_score_min>  (592) 
5.972

>  <tags>  (592) 
openbind_xx01zvns2b_c1_elab_nonasap_filtered_scored_top80percent,openbind_xx01zvns2b_c1_elab_chemspace_filtered_scored_top80percent,openbind_xx01zvns2b_c1_elab_chemspace_filtered_scored,openbind_xx01zvns2b_c1_elab_chemspace_filtered_scored_top40percent,openbind_xx01zvns2b_c1_elab_chemspace_filtered_scored_top20percent,openbind_xx01zvns2b_c1_elab_chemspace_filtered_scored_top60percent,openbind_xx01zvns2b_c1_elabs_filtered

>  <smiles>  (592) 
O=C(NC1(Cc2ccc(F)cc2F)COC1)c1cccc2c3c([nH]c12)CCCCC3

>  <subsites>  (592) 
1 - Z4590/B/203/1

>  <gnina_score>  (592) 
5.924

>  <HIPPO Pose ID>  (592) 
72556

>  <ref_mols>  (592) 
Z0101a,Z0827a

>  <energy_score>  (592) 
-49.048838

>  <inspiration_score>  (592) 
None

>  <smina_score_min>  (592) 
-7.527

>  <fragmenstein_error>  (592) 
nan

>  <name>  (592) 
P72556

$$$$
P72559
     RDKit          3D

 30 34  0  0  0  0  0  0  0  0999 V2000
   -7.9268    4.6160  -10.4234 C   0  0  0  0  0  0  0  0  0  0  0  0
   -7.4584    5.3455  -11.6812 C   0  0  1  0  0  0  0  0  0  0  0  0
   -5.9107    5.3419  -11.7321 C   0  0  0  0  0  0  0  0  0  0  0  0
   -5.3586    6.0843  -12.9595 C   0  0  0  0  0  0  0  0  0  0  0  0
   -6.0958    5.6451  -14.1686 C   0  0  0  0  0  0  0  0  0  0  0  0
   -5.6084    5.6659  -15.4443 N   0  0  0  0  0  0  0  0  0  0  0  0
   -6.5428    5.1346  -16.3116 C   0  0  0  0  0  0  0  0  0  0  0  0
   -6.4674    4.9192  -17.7007 C   0  0  0  0  0  0  0  0  0  0  0  0
   -5.1914    5.2371  -18.4172 C   0  0  0  0  0  0  0  0  0  0  0  0
   -4.2000    5.1945  -17.8033 O   0  0  0  0  0  0  0  0  0  0  0  0
   -5.4433    5.6515  -19.8809 N   0  0  0  0  0  0  0  0  0  0  0  0
   -4.5004    6.0163  -20.9437 C   0  0  0  0  0  0  0  0  0  0  0  0
   -4.2371    7.5222  -20.9914 C   0  0  0  0  0  0  0  0  0  0  0  0
   -3.7919    8.0837  -19.6594 C   0  0  0  0  0  0  0  0  0  0  0  0
   -2.4513    7.9949  -19.2550 C   0  0  0  0  0  0  0  0  0  0  0  0
   -2.0603    8.4688  -18.0008 C   0  0  0  0  0  0  0  0  0  0  0  0
   -3.0049    9.0345  -17.1521 C   0  0  0  0  0  0  0  0  0  0  0  0
   -2.6255    9.4846  -15.9489 F   0  0  0  0  0  0  0  0  0  0  0  0
   -4.3333    9.1459  -17.5328 C   0  0  0  0  0  0  0  0  0  0  0  0
   -4.7153    8.6731  -18.7825 C   0  0  0  0  0  0  0  0  0  0  0  0
   -6.0037    8.7928  -19.1403 F   0  0  0  0  0  0  0  0  0  0  0  0
   -3.2651    5.0991  -21.1126 C   0  0  0  0  0  0  0  0  0  0  0  0
   -3.5802    4.8949  -22.5239 O   0  0  0  0  0  0  0  0  0  0  0  0
   -4.9051    5.4172  -22.3062 C   0  0  0  0  0  0  0  0  0  0  0  0
   -7.5945    4.3586  -18.3218 C   0  0  0  0  0  0  0  0  0  0  0  0
   -8.7340    4.0309  -17.5892 C   0  0  0  0  0  0  0  0  0  0  0  0
   -8.7635    4.2123  -16.2043 C   0  0  0  0  0  0  0  0  0  0  0  0
   -7.6572    4.7802  -15.5493 C   0  0  0  0  0  0  0  0  0  0  0  0
   -7.3439    5.0610  -14.1898 C   0  0  0  0  0  0  0  0  0  0  0  0
   -8.0977    4.7174  -12.9472 C   0  0  0  0  0  0  0  0  0  0  0  0
  2  1  1  1
  2  3  1  0
  3  4  1  0
  4  5  1  0
  5  6  1  0
  6  7  1  0
  7  8  2  0
  8  9  1  0
  9 10  2  0
  9 11  1  0
 11 12  1  0
 12 13  1  0
 13 14  1  0
 14 15  2  0
 15 16  1  0
 16 17  2  0
 17 18  1  0
 17 19  1  0
 19 20  2  0
 20 21  1  0
 12 22  1  0
 22 23  1  0
 23 24  1  0
  8 25  1  0
 25 26  2  0
 26 27  1  0
 27 28  2  0
 28 29  1  0
 29 30  1  0
 30  2  1  0
 29  5  2  0
 28  7  1  0
 24 12  1  0
 20 14  1  0
M  END
>  <fragmenstein_outcome>  (593) 
nan

>  <exports>  (593) 
['/opt/xchem-fragalysis-2/maxwin/openbind-hippo/xx01zvns2b/cycle_01/syndirella/elabs/openbind_xx01zvns2b_c1_elab_chemspace_filtered.sdf']

>  <Energy>  (593) 
nan

>  <alias>  (593) 
None

>  <fragmenstein_runtime>  (593) 
nan

>  <scratch_subdir>  (593) 
nan

>  <HIPPO Compound ID>  (593) 
145898

>  <rmsd(smina/fragmenstein)>  (593) 
0.53

>  <distance_score>  (593) 
0.773772

>  <orig_smiles>  (593) 
nan

>  <fragmenstein_mode>  (593) 
nan

>  <inchikey>  (593) 
JTVACIALKYSGGL-AWEZNQCLSA-N

>  <ref_pdb>  (593) 
Z0101a

>  <GNINA pK>  (593) 
nan

>  <gnina_score_min>  (593) 
5.938

>  <tags>  (593) 
openbind_xx01zvns2b_c1_elab_nonasap_filtered_scored_top80percent,openbind_xx01zvns2b_c1_elab_chemspace_filtered_scored_top80percent,openbind_xx01zvns2b_c1_elab_chemspace_filtered_scored,openbind_xx01zvns2b_c1_elab_chemspace_filtered_scored_top40percent,openbind_xx01zvns2b_c1_elab_chemspace_filtered_scored_top20percent,openbind_xx01zvns2b_c1_elab_chemspace_filtered_scored_top60percent,openbind_xx01zvns2b_c1_elabs_filtered

>  <smiles>  (593) 
C[C@H]1CCc2[nH]c3c(C(=O)NC4(Cc5ccc(F)cc5F)COC4)cccc3c2C1

>  <subsites>  (593) 
1 - Z4590/B/203/1

>  <gnina_score>  (593) 
5.901

>  <HIPPO Pose ID>  (593) 
72559

>  <ref_mols>  (593) 
Z0827a,Z0101a

>  <energy_score>  (593) 
-1200.081113

>  <inspiration_score>  (593) 
None

>  <smina_score_min>  (593) 
-7.535

>  <fragmenstein_error>  (593) 
nan

>  <name>  (593) 
P72559

$$$$
P73930
     RDKit          3D

 24 25  0  0  0  0  0  0  0  0999 V2000
  -10.6335    4.5328  -18.2126 C   0  0  0  0  0  0  0  0  0  0  0  0
   -9.4198    4.5328  -19.1237 C   0  0  0  0  0  0  0  0  0  0  0  0
   -8.3763    3.4857  -18.7920 C   0  0  0  0  0  0  0  0  0  0  0  0
   -7.3635    4.0526  -17.9556 N   0  0  0  0  0  0  0  0  0  0  0  0
   -6.1063    4.5015  -18.3968 C   0  0  0  0  0  0  0  0  0  0  0  0
   -5.6321    4.3301  -19.5087 O   0  0  0  0  0  0  0  0  0  0  0  0
   -5.4970    5.1356  -17.2811 N   0  0  0  0  0  0  0  0  0  0  0  0
   -4.0849    5.4234  -17.1458 C   0  0  0  0  0  0  0  0  0  0  0  0
   -3.6396    6.5009  -18.1379 C   0  0  0  0  0  0  0  0  0  0  0  0
   -3.7305    7.6472  -17.9304 O   0  0  0  0  0  0  0  0  0  0  0  0
   -3.1834    5.7429  -19.4134 N   0  0  0  0  0  0  0  0  0  0  0  0
   -2.8380    6.2370  -20.7220 C   0  0  1  0  0  0  0  0  0  0  0  0
   -1.6760    5.4260  -21.2727 C   0  0  0  0  0  0  0  0  0  0  0  0
   -4.1266    6.1740  -21.5687 C   0  0  1  0  0  0  0  0  0  0  0  0
   -5.0864    7.2843  -21.1149 C   0  0  0  0  0  0  0  0  0  0  0  0
   -3.8963    6.2772  -23.0707 C   0  0  0  0  0  0  0  0  0  0  0  0
   -5.1545    6.1650  -23.7413 O   0  0  0  0  0  0  0  0  0  0  0  0
   -5.0849    6.6149  -25.0883 C   0  0  0  0  0  0  0  0  0  0  0  0
   -6.3587    4.9930  -16.1815 C   0  0  0  0  0  0  0  0  0  0  0  0
   -6.1960    5.3674  -14.8667 C   0  0  0  0  0  0  0  0  0  0  0  0
   -7.2211    5.0489  -13.9722 C   0  0  0  0  0  0  0  0  0  0  0  0
   -8.3683    4.3637  -14.3994 C   0  0  0  0  0  0  0  0  0  0  0  0
   -8.5161    3.9912  -15.7313 C   0  0  0  0  0  0  0  0  0  0  0  0
   -7.5048    4.3292  -16.6017 C   0  0  0  0  0  0  0  0  0  0  0  0
  1  2  1  0
  2  3  1  0
  3  4  1  0
  4  5  1  0
  5  6  2  0
  5  7  1  0
  7  8  1  0
  8  9  1  0
  9 10  2  0
  9 11  1  0
 11 12  1  0
 12 13  1  6
 12 14  1  0
 14 15  1  1
 14 16  1  0
 16 17  1  0
 17 18  1  0
  7 19  1  0
 19 20  2  0
 20 21  1  0
 21 22  2  0
 22 23  1  0
 23 24  2  0
 24  4  1  0
 24 19  1  0
M  END
>  <fragmenstein_outcome>  (594) 
nan

>  <exports>  (594) 
['/opt/xchem-fragalysis-2/maxwin/openbind-hippo/xx01zvns2b/cycle_01/syndirella/elabs/openbind_xx01zvns2b_c1_elab_chemspace_filtered.sdf']

>  <Energy>  (594) 
nan

>  <alias>  (594) 
None

>  <fragmenstein_runtime>  (594) 
nan

>  <scratch_subdir>  (594) 
nan

>  <HIPPO Compound ID>  (594) 
146897

>  <rmsd(smina/fragmenstein)>  (594) 
0.646

>  <distance_score>  (594) 
1.527102

>  <orig_smiles>  (594) 
nan

>  <fragmenstein_mode>  (594) 
nan

>  <inchikey>  (594) 
NGZNFXJGBXQLGO-KBPBESRZSA-N

>  <ref_pdb>  (594) 
Z4245a

>  <GNINA pK>  (594) 
nan

>  <gnina_score_min>  (594) 
5.235

>  <tags>  (594) 
openbind_xx01zvns2b_c1_elab_nonasap_filtered_scored_top80percent,openbind_xx01zvns2b_c1_elab_chemspace_filtered_scored_top80percent,openbind_xx01zvns2b_c1_elab_chemspace_filtered_scored,openbind_xx01zvns2b_c1_elab_chemspace_filtered_scored_top40percent,openbind_xx01zvns2b_c1_elab_chemspace_filtered_scored_top20percent,openbind_xx01zvns2b_c1_elab_chemspace_filtered_scored_top60percent,openbind_xx01zvns2b_c1_elabs_filtered

>  <smiles>  (594) 
CCCn1c(=O)n(CC(=O)N[C@@H](C)[C@@H](C)COC)c2ccccc21

>  <subsites>  (594) 
1 - Z4590/B/203/1

>  <gnina_score>  (594) 
5.352

>  <HIPPO Pose ID>  (594) 
73930

>  <ref_mols>  (594) 
Z0101a,Z4245a

>  <energy_score>  (594) 
-10.240162

>  <inspiration_score>  (594) 
None

>  <smina_score_min>  (594) 
-4.896

>  <fragmenstein_error>  (594) 
nan

>  <name>  (594) 
P73930

$$$$
P73939
     RDKit          3D

 24 27  0  0  0  0  0  0  0  0999 V2000
  -10.6705    4.5607  -18.1622 C   0  0  0  0  0  0  0  0  0  0  0  0
   -9.4863    4.5347  -19.1073 C   0  0  0  0  0  0  0  0  0  0  0  0
   -8.5006    3.4203  -18.8227 C   0  0  0  0  0  0  0  0  0  0  0  0
   -7.4153    3.9213  -18.0471 N   0  0  0  0  0  0  0  0  0  0  0  0
   -6.3131    4.5707  -18.6111 C   0  0  0  0  0  0  0  0  0  0  0  0
   -6.0301    4.6449  -19.7972 O   0  0  0  0  0  0  0  0  0  0  0  0
   -5.6081    5.1742  -17.5489 N   0  0  0  0  0  0  0  0  0  0  0  0
   -4.6459    6.2329  -17.7151 C   0  0  0  0  0  0  0  0  0  0  0  0
   -3.2904    5.8307  -18.3147 C   0  0  0  0  0  0  0  0  0  0  0  0
   -2.2844    5.9429  -17.7298 O   0  0  0  0  0  0  0  0  0  0  0  0
   -3.5589    5.3905  -19.7799 N   0  0  0  0  0  0  0  0  0  0  0  0
   -2.6666    5.0994  -20.8207 C   0  0  2  0  0  0  0  0  0  0  0  0
   -2.3587    6.1710  -21.8284 C   0  0  2  0  0  0  0  0  0  0  0  0
   -2.9932    7.5305  -21.7895 C   0  0  0  0  0  0  0  0  0  0  0  0
   -4.5058    7.5287  -21.9925 C   0  0  0  0  0  0  0  0  0  0  0  0
   -4.9124    6.4532  -22.9835 C   0  0  0  0  0  0  0  0  0  0  0  0
   -4.5835    5.1726  -22.4526 O   0  0  0  0  0  0  0  0  0  0  0  0
   -3.1647    4.9755  -22.2487 C   0  0  2  0  0  0  0  0  0  0  0  0
   -6.3526    4.9738  -16.3733 C   0  0  0  0  0  0  0  0  0  0  0  0
   -6.1484    5.4302  -15.0910 C   0  0  0  0  0  0  0  0  0  0  0  0
   -7.1050    5.0953  -14.1263 C   0  0  0  0  0  0  0  0  0  0  0  0
   -8.2329    4.3254  -14.4553 C   0  0  0  0  0  0  0  0  0  0  0  0
   -8.4220    3.8699  -15.7554 C   0  0  0  0  0  0  0  0  0  0  0  0
   -7.4686    4.2067  -16.6890 C   0  0  0  0  0  0  0  0  0  0  0  0
  1  2  1  0
  2  3  1  0
  3  4  1  0
  4  5  1  0
  5  6  2  0
  5  7  1  0
  7  8  1  0
  8  9  1  0
  9 10  2  0
  9 11  1  0
 12 11  1  1
 12 13  1  0
 13 14  1  1
 14 15  1  0
 15 16  1  0
 16 17  1  0
 18 17  1  1
  7 19  1  0
 19 20  2  0
 20 21  1  0
 21 22  2  0
 22 23  1  0
 23 24  2  0
 24  4  1  0
 18 12  1  0
 24 19  1  0
 18 13  1  0
M  END
>  <fragmenstein_outcome>  (595) 
nan

>  <exports>  (595) 
['/opt/xchem-fragalysis-2/maxwin/openbind-hippo/xx01zvns2b/cycle_01/syndirella/elabs/openbind_xx01zvns2b_c1_elab_chemspace_filtered.sdf']

>  <Energy>  (595) 
nan

>  <alias>  (595) 
None

>  <fragmenstein_runtime>  (595) 
nan

>  <scratch_subdir>  (595) 
nan

>  <HIPPO Compound ID>  (595) 
146911

>  <rmsd(smina/fragmenstein)>  (595) 
0.821

>  <distance_score>  (595) 
1.448797

>  <orig_smiles>  (595) 
nan

>  <fragmenstein_mode>  (595) 
nan

>  <inchikey>  (595) 
PAZKPNRBVRPPMS-VUCTXSBTSA-N

>  <ref_pdb>  (595) 
Z4245a

>  <GNINA pK>  (595) 
nan

>  <gnina_score_min>  (595) 
5.154

>  <tags>  (595) 
openbind_xx01zvns2b_c1_elab_nonasap_filtered_scored_top80percent,openbind_xx01zvns2b_c1_elab_chemspace_filtered_scored_top80percent,openbind_xx01zvns2b_c1_elab_chemspace_filtered_scored,openbind_xx01zvns2b_c1_elab_chemspace_filtered_scored_top40percent,openbind_xx01zvns2b_c1_elab_chemspace_filtered_scored_top20percent,openbind_xx01zvns2b_c1_elab_chemspace_filtered_scored_top60percent,openbind_xx01zvns2b_c1_elabs_filtered

>  <smiles>  (595) 
CCCn1c(=O)n(CC(=O)N[C@@H]2[C@@H]3CCCO[C@@H]32)c2ccccc21

>  <subsites>  (595) 
1 - Z4590/B/203/1

>  <gnina_score>  (595) 
5.155

>  <HIPPO Pose ID>  (595) 
73939

>  <ref_mols>  (595) 
Z0101a,Z4245a

>  <energy_score>  (595) 
-17.934615

>  <inspiration_score>  (595) 
None

>  <smina_score_min>  (595) 
-5.375

>  <fragmenstein_error>  (595) 
nan

>  <name>  (595) 
P73939

$$$$
P73946
     RDKit          3D

 24 27  0  0  0  0  0  0  0  0999 V2000
  -10.6129    4.5104  -18.2243 C   0  0  0  0  0  0  0  0  0  0  0  0
   -9.4150    4.5481  -19.1561 C   0  0  0  0  0  0  0  0  0  0  0  0
   -8.3360    3.5201  -18.8769 C   0  0  0  0  0  0  0  0  0  0  0  0
   -7.3250    4.0815  -18.0315 N   0  0  0  0  0  0  0  0  0  0  0  0
   -6.0718    4.5605  -18.4551 C   0  0  0  0  0  0  0  0  0  0  0  0
   -5.5579    4.4050  -19.5549 O   0  0  0  0  0  0  0  0  0  0  0  0
   -5.4910    5.2041  -17.3261 N   0  0  0  0  0  0  0  0  0  0  0  0
   -4.0773    5.4413  -17.1268 C   0  0  0  0  0  0  0  0  0  0  0  0
   -3.4551    6.5058  -18.0325 C   0  0  0  0  0  0  0  0  0  0  0  0
   -3.1119    7.5568  -17.6571 O   0  0  0  0  0  0  0  0  0  0  0  0
   -3.3124    5.8410  -19.4254 N   0  0  0  0  0  0  0  0  0  0  0  0
   -2.6347    6.2948  -20.6143 C   0  0  1  0  0  0  0  0  0  0  0  0
   -2.6890    5.2533  -21.7452 C   0  0  0  0  0  0  0  0  0  0  0  0
   -3.5608    6.2104  -22.5693 C   0  0  1  0  0  0  0  0  0  0  0  0
   -5.0555    6.0094  -22.6721 C   0  0  0  0  0  0  0  0  0  0  0  0
   -5.6157    7.2709  -22.3192 O   0  0  0  0  0  0  0  0  0  0  0  0
   -4.8432    7.7165  -21.2006 C   0  0  0  0  0  0  0  0  0  0  0  0
   -3.4150    7.2930  -21.4932 C   0  0  1  0  0  0  0  0  0  0  0  0
   -6.3671    5.0328  -16.2381 C   0  0  0  0  0  0  0  0  0  0  0  0
   -6.2311    5.4056  -14.9180 C   0  0  0  0  0  0  0  0  0  0  0  0
   -7.2564    5.0574  -14.0357 C   0  0  0  0  0  0  0  0  0  0  0  0
   -8.3763    4.3410  -14.4791 C   0  0  0  0  0  0  0  0  0  0  0  0
   -8.4946    3.9672  -15.8139 C   0  0  0  0  0  0  0  0  0  0  0  0
   -7.4871    4.3413  -16.6751 C   0  0  0  0  0  0  0  0  0  0  0  0
  1  2  1  0
  2  3  1  0
  3  4  1  0
  4  5  1  0
  5  6  2  0
  5  7  1  0
  7  8  1  0
  8  9  1  0
  9 10  2  0
  9 11  1  0
 12 11  1  1
 12 13  1  0
 14 13  1  1
 14 15  1  0
 15 16  1  0
 16 17  1  0
 18 17  1  1
  7 19  1  0
 19 20  2  0
 20 21  1  0
 21 22  2  0
 22 23  1  0
 23 24  2  0
 24  4  1  0
 18 12  1  0
 24 19  1  0
 18 14  1  0
M  END
>  <fragmenstein_outcome>  (596) 
nan

>  <exports>  (596) 
['/opt/xchem-fragalysis-2/maxwin/openbind-hippo/xx01zvns2b/cycle_01/syndirella/elabs/openbind_xx01zvns2b_c1_elab_chemspace_filtered.sdf']

>  <Energy>  (596) 
nan

>  <alias>  (596) 
None

>  <fragmenstein_runtime>  (596) 
nan

>  <scratch_subdir>  (596) 
nan

>  <HIPPO Compound ID>  (596) 
146912

>  <rmsd(smina/fragmenstein)>  (596) 
0.478

>  <distance_score>  (596) 
1.5865

>  <orig_smiles>  (596) 
nan

>  <fragmenstein_mode>  (596) 
nan

>  <inchikey>  (596) 
XWJUXANWZLIRET-MJBXVCDLSA-N

>  <ref_pdb>  (596) 
Z4245a

>  <GNINA pK>  (596) 
nan

>  <gnina_score_min>  (596) 
5.143

>  <tags>  (596) 
openbind_xx01zvns2b_c1_elab_nonasap_filtered_scored_top80percent,openbind_xx01zvns2b_c1_elab_chemspace_filtered_scored_top80percent,openbind_xx01zvns2b_c1_elab_chemspace_filtered_scored,openbind_xx01zvns2b_c1_elab_chemspace_filtered_scored_top40percent,openbind_xx01zvns2b_c1_elab_chemspace_filtered_scored_top20percent,openbind_xx01zvns2b_c1_elab_chemspace_filtered_scored_top60percent,openbind_xx01zvns2b_c1_elabs_filtered

>  <smiles>  (596) 
CCCn1c(=O)n(CC(=O)N[C@H]2C[C@H]3COC[C@H]32)c2ccccc21

>  <subsites>  (596) 
1 - Z4590/B/203/1

>  <gnina_score>  (596) 
5.221

>  <HIPPO Pose ID>  (596) 
73946

>  <ref_mols>  (596) 
Z0101a,Z4245a

>  <energy_score>  (596) 
-21.651133

>  <inspiration_score>  (596) 
None

>  <smina_score_min>  (596) 
-5.299

>  <fragmenstein_error>  (596) 
nan

>  <name>  (596) 
P73946

$$$$
P73955
     RDKit          3D

 26 29  0  0  0  0  0  0  0  0999 V2000
   -5.7753    6.2841  -20.7371 O   0  0  0  0  0  0  0  0  0  0  0  0
   -5.6403    5.1206  -20.8180 C   0  0  0  0  0  0  0  0  0  0  0  0
   -6.5305    4.1173  -20.0281 C   0  0  0  0  0  0  0  0  0  0  0  0
   -6.3361    4.4667  -18.6604 N   0  0  0  0  0  0  0  0  0  0  0  0
   -5.0612    4.7229  -18.1500 C   0  0  0  0  0  0  0  0  0  0  0  0
   -4.0521    4.6343  -18.8328 O   0  0  0  0  0  0  0  0  0  0  0  0
   -5.2020    5.0770  -16.7783 N   0  0  0  0  0  0  0  0  0  0  0  0
   -4.1761    5.6047  -15.9870 C   0  0  0  0  0  0  0  0  0  0  0  0
   -2.8845    5.6459  -16.3795 C   0  0  0  0  0  0  0  0  0  0  0  0
   -1.7481    6.2405  -15.5954 C   0  0  0  0  0  0  0  0  0  0  0  0
   -2.1037    6.5676  -14.1515 C   0  0  0  0  0  0  0  0  0  0  0  0
   -3.4858    7.1925  -14.0826 C   0  0  0  0  0  0  0  0  0  0  0  0
   -4.5369    6.2346  -14.6529 C   0  0  0  0  0  0  0  0  0  0  0  0
   -6.5642    4.8063  -16.4547 C   0  0  0  0  0  0  0  0  0  0  0  0
   -7.2176    4.7731  -15.2404 C   0  0  0  0  0  0  0  0  0  0  0  0
   -8.5624    4.4068  -15.2288 C   0  0  0  0  0  0  0  0  0  0  0  0
   -9.2297    4.0887  -16.4212 C   0  0  0  0  0  0  0  0  0  0  0  0
   -8.5748    4.0950  -17.6444 C   0  0  0  0  0  0  0  0  0  0  0  0
   -7.2462    4.4435  -17.6235 C   0  0  0  0  0  0  0  0  0  0  0  0
   -4.5592    4.2736  -21.5787 N   0  0  0  0  0  0  0  0  0  0  0  0
   -3.3684    4.6961  -22.3149 C   0  0  2  0  0  0  0  0  0  0  0  0
   -2.2443    5.3172  -21.4519 C   0  0  0  0  0  0  0  0  0  0  0  0
   -2.8349    6.7066  -21.7674 C   0  0  0  0  0  0  0  0  0  0  0  0
   -3.4678    6.0591  -23.0355 C   0  0  2  0  0  0  0  0  0  0  0  0
   -4.8222    6.4407  -23.5964 C   0  0  0  0  0  0  0  0  0  0  0  0
   -5.3565    7.5762  -22.9455 O   0  0  0  0  0  0  0  0  0  0  0  0
  1  2  2  0
  2  3  1  0
  3  4  1  0
  4  5  1  0
  5  6  2  0
  5  7  1  0
  7  8  1  0
  8  9  2  0
  9 10  1  0
 10 11  1  0
 11 12  1  0
 12 13  1  0
  7 14  1  0
 14 15  2  0
 15 16  1  0
 16 17  2  0
 17 18  1  0
 18 19  2  0
  2 20  1  0
 21 20  1  1
 21 22  1  0
 22 23  1  0
 23 24  1  0
 24 25  1  1
 25 26  1  0
 19  4  1  0
 24 21  1  0
 13  8  1  0
 19 14  1  0
M  END
>  <fragmenstein_outcome>  (597) 
nan

>  <exports>  (597) 
['/opt/xchem-fragalysis-2/maxwin/openbind-hippo/xx01zvns2b/cycle_01/syndirella/elabs/openbind_xx01zvns2b_c1_elab_chemspace_filtered.sdf']

>  <Energy>  (597) 
nan

>  <alias>  (597) 
None

>  <fragmenstein_runtime>  (597) 
nan

>  <scratch_subdir>  (597) 
nan

>  <HIPPO Compound ID>  (597) 
146932

>  <rmsd(smina/fragmenstein)>  (597) 
2.571

>  <distance_score>  (597) 
1.73298

>  <orig_smiles>  (597) 
nan

>  <fragmenstein_mode>  (597) 
nan

>  <inchikey>  (597) 
KSKAQLDDFGEHBL-GDBMZVCRSA-N

>  <ref_pdb>  (597) 
Z4245a

>  <GNINA pK>  (597) 
nan

>  <gnina_score_min>  (597) 
5.36

>  <tags>  (597) 
openbind_xx01zvns2b_c1_elab_nonasap_filtered_scored_top80percent,openbind_xx01zvns2b_c1_elab_chemspace_filtered_scored_top80percent,openbind_xx01zvns2b_c1_elab_chemspace_filtered_scored,openbind_xx01zvns2b_c1_elab_chemspace_filtered_scored_top40percent,openbind_xx01zvns2b_c1_elab_chemspace_filtered_scored_top20percent,openbind_xx01zvns2b_c1_elab_chemspace_filtered_scored_top60percent,openbind_xx01zvns2b_c1_elabs_filtered

>  <smiles>  (597) 
O=C(Cn1c(=O)n(C2=CCCCC2)c2ccccc21)N[C@@H]1CC[C@@H]1CO

>  <subsites>  (597) 
1 - Z4590/B/203/1

>  <gnina_score>  (597) 
5.48

>  <HIPPO Pose ID>  (597) 
73955

>  <ref_mols>  (597) 
Z0101a,Z4245a

>  <energy_score>  (597) 
-17.553362

>  <inspiration_score>  (597) 
None

>  <smina_score_min>  (597) 
-5.824

>  <fragmenstein_error>  (597) 
nan

>  <name>  (597) 
P73955

$$$$
P73967
     RDKit          3D

 26 29  0  0  0  0  0  0  0  0999 V2000
   -4.3448   10.6691  -21.4002 C   0  0  0  0  0  0  0  0  0  0  0  0
   -4.5886    9.2943  -21.1341 O   0  0  0  0  0  0  0  0  0  0  0  0
   -3.4899    8.4835  -21.5615 C   0  0  0  0  0  0  0  0  0  0  0  0
   -3.7787    7.0772  -21.2181 C   0  0  2  0  0  0  0  0  0  0  0  0
   -3.2870    5.9305  -22.0540 C   0  0  0  0  0  0  0  0  0  0  0  0
   -4.7549    6.2882  -22.0475 C   0  0  1  0  0  0  0  0  0  0  0  0
   -5.6751    5.5186  -21.3235 N   0  0  0  0  0  0  0  0  0  0  0  0
   -5.8023    3.9876  -21.1723 C   0  0  0  0  0  0  0  0  0  0  0  0
   -5.2098    3.1255  -21.6877 O   0  0  0  0  0  0  0  0  0  0  0  0
   -6.8544    3.7222  -20.0600 C   0  0  0  0  0  0  0  0  0  0  0  0
   -6.5444    4.4505  -18.8499 N   0  0  0  0  0  0  0  0  0  0  0  0
   -5.2270    4.7451  -18.4536 C   0  0  0  0  0  0  0  0  0  0  0  0
   -4.2497    4.6256  -19.1754 O   0  0  0  0  0  0  0  0  0  0  0  0
   -5.2497    5.1500  -17.0833 N   0  0  0  0  0  0  0  0  0  0  0  0
   -4.1150    5.5826  -16.3853 C   0  0  0  0  0  0  0  0  0  0  0  0
   -3.0081    6.0386  -17.0107 C   0  0  0  0  0  0  0  0  0  0  0  0
   -1.7567    6.5285  -16.3402 C   0  0  0  0  0  0  0  0  0  0  0  0
   -1.9097    6.7392  -14.8397 C   0  0  0  0  0  0  0  0  0  0  0  0
   -2.7175    5.6082  -14.2279 C   0  0  0  0  0  0  0  0  0  0  0  0
   -4.1065    5.5254  -14.8702 C   0  0  0  0  0  0  0  0  0  0  0  0
   -6.5686    4.8844  -16.6260 C   0  0  0  0  0  0  0  0  0  0  0  0
   -7.1287    4.9661  -15.3665 C   0  0  0  0  0  0  0  0  0  0  0  0
   -8.4443    4.5387  -15.2024 C   0  0  0  0  0  0  0  0  0  0  0  0
   -9.1842    4.0756  -16.2980 C   0  0  0  0  0  0  0  0  0  0  0  0
   -8.6435    4.0254  -17.5758 C   0  0  0  0  0  0  0  0  0  0  0  0
   -7.3385    4.4383  -17.7080 C   0  0  0  0  0  0  0  0  0  0  0  0
  1  2  1  0
  2  3  1  0
  4  3  1  6
  4  5  1  0
  5  6  1  0
  6  7  1  1
  7  8  1  0
  8  9  2  0
  8 10  1  0
 10 11  1  0
 11 12  1  0
 12 13  2  0
 12 14  1  0
 14 15  1  0
 15 16  2  0
 16 17  1  0
 17 18  1  0
 18 19  1  0
 19 20  1  0
 14 21  1  0
 21 22  2  0
 22 23  1  0
 23 24  2  0
 24 25  1  0
 25 26  2  0
  6  4  1  0
 26 11  1  0
 20 15  1  0
 26 21  1  0
M  END
>  <fragmenstein_outcome>  (598) 
nan

>  <exports>  (598) 
['/opt/xchem-fragalysis-2/maxwin/openbind-hippo/xx01zvns2b/cycle_01/syndirella/elabs/openbind_xx01zvns2b_c1_elab_chemspace_filtered.sdf']

>  <Energy>  (598) 
nan

>  <alias>  (598) 
None

>  <fragmenstein_runtime>  (598) 
nan

>  <scratch_subdir>  (598) 
nan

>  <HIPPO Compound ID>  (598) 
146946

>  <rmsd(smina/fragmenstein)>  (598) 
2.366

>  <distance_score>  (598) 
1.506725

>  <orig_smiles>  (598) 
nan

>  <fragmenstein_mode>  (598) 
nan

>  <inchikey>  (598) 
DBGVSPLYANDAHC-GOEBONIOSA-N

>  <ref_pdb>  (598) 
Z4245a

>  <GNINA pK>  (598) 
nan

>  <gnina_score_min>  (598) 
5.321

>  <tags>  (598) 
openbind_xx01zvns2b_c1_elab_nonasap_filtered_scored_top80percent,openbind_xx01zvns2b_c1_elab_chemspace_filtered_scored_top80percent,openbind_xx01zvns2b_c1_elab_chemspace_filtered_scored,openbind_xx01zvns2b_c1_elab_chemspace_filtered_scored_top40percent,openbind_xx01zvns2b_c1_elab_chemspace_filtered_scored_top20percent,openbind_xx01zvns2b_c1_elab_chemspace_filtered_scored_top60percent,openbind_xx01zvns2b_c1_elabs_filtered

>  <smiles>  (598) 
COC[C@@H]1C[C@H]1NC(=O)Cn1c(=O)n(C2=CCCCC2)c2ccccc21

>  <subsites>  (598) 
1 - Z4590/B/203/1

>  <gnina_score>  (598) 
5.729

>  <HIPPO Pose ID>  (598) 
73967

>  <ref_mols>  (598) 
Z0101a,Z4245a

>  <energy_score>  (598) 
-13.173967

>  <inspiration_score>  (598) 
None

>  <smina_score_min>  (598) 
-6.02

>  <fragmenstein_error>  (598) 
nan

>  <name>  (598) 
P73967

$$$$
P73975
     RDKit          3D

 26 29  0  0  0  0  0  0  0  0999 V2000
   -2.5061    7.8709  -22.2154 C   0  0  0  0  0  0  0  0  0  0  0  0
   -3.8188    7.1093  -22.0815 C   0  0  0  0  0  0  0  0  0  0  0  0
   -4.0602    6.1767  -23.2693 C   0  0  0  0  0  0  0  0  0  0  0  0
   -5.4202    5.7697  -23.3853 O   0  0  0  0  0  0  0  0  0  0  0  0
   -4.9812    7.9329  -21.5535 C   0  0  0  0  0  0  0  0  0  0  0  0
   -5.5227    6.6779  -20.9018 N   0  0  0  0  0  0  0  0  0  0  0  0
   -6.2483    6.4810  -19.5764 C   0  0  0  0  0  0  0  0  0  0  0  0
   -6.4864    7.2528  -18.7140 O   0  0  0  0  0  0  0  0  0  0  0  0
   -6.6448    4.9534  -19.5170 C   0  0  0  0  0  0  0  0  0  0  0  0
   -6.2411    4.4564  -18.2524 N   0  0  0  0  0  0  0  0  0  0  0  0
   -4.9054    4.6592  -17.9154 C   0  0  0  0  0  0  0  0  0  0  0  0
   -4.0182    4.6038  -18.7542 O   0  0  0  0  0  0  0  0  0  0  0  0
   -4.8561    4.9993  -16.5303 N   0  0  0  0  0  0  0  0  0  0  0  0
   -3.7357    5.5426  -15.8938 C   0  0  0  0  0  0  0  0  0  0  0  0
   -2.5162    5.6061  -16.4707 C   0  0  0  0  0  0  0  0  0  0  0  0
   -1.2926    6.2336  -15.8626 C   0  0  0  0  0  0  0  0  0  0  0  0
   -1.4319    6.5172  -14.3737 C   0  0  0  0  0  0  0  0  0  0  0  0
   -2.7939    7.1228  -14.0870 C   0  0  0  0  0  0  0  0  0  0  0  0
   -3.9136    6.1715  -14.5223 C   0  0  0  0  0  0  0  0  0  0  0  0
   -6.1841    4.7998  -16.0369 C   0  0  0  0  0  0  0  0  0  0  0  0
   -6.7055    4.8071  -14.7597 C   0  0  0  0  0  0  0  0  0  0  0  0
   -8.0594    4.4977  -14.5915 C   0  0  0  0  0  0  0  0  0  0  0  0
   -8.8733    4.2034  -15.6945 C   0  0  0  0  0  0  0  0  0  0  0  0
   -8.3653    4.2214  -16.9850 C   0  0  0  0  0  0  0  0  0  0  0  0
   -7.0212    4.5001  -17.1110 C   0  0  0  0  0  0  0  0  0  0  0  0
   -3.9897    6.4222  -20.7574 C   0  0  0  0  0  0  0  0  0  0  0  0
  1  2  1  0
  2  3  1  0
  3  4  1  0
  2  5  1  0
  5  6  1  0
  6  7  1  0
  7  8  2  0
  7  9  1  0
  9 10  1  0
 10 11  1  0
 11 12  2  0
 11 13  1  0
 13 14  1  0
 14 15  2  0
 15 16  1  0
 16 17  1  0
 17 18  1  0
 18 19  1  0
 13 20  1  0
 20 21  2  0
 21 22  1  0
 22 23  2  0
 23 24  1  0
 24 25  2  0
  6 26  1  0
 26  2  1  0
 25 10  1  0
 19 14  1  0
 25 20  1  0
M  END
>  <fragmenstein_outcome>  (599) 
nan

>  <exports>  (599) 
['/opt/xchem-fragalysis-2/maxwin/openbind-hippo/xx01zvns2b/cycle_01/syndirella/elabs/openbind_xx01zvns2b_c1_elab_chemspace_filtered.sdf']

>  <Energy>  (599) 
nan

>  <alias>  (599) 
None

>  <fragmenstein_runtime>  (599) 
nan

>  <scratch_subdir>  (599) 
nan

>  <HIPPO Compound ID>  (599) 
146956

>  <rmsd(smina/fragmenstein)>  (599) 
2.125

>  <distance_score>  (599) 
1.68269

>  <orig_smiles>  (599) 
nan

>  <fragmenstein_mode>  (599) 
nan

>  <inchikey>  (599) 
WFPNSHNAMHUFAQ-UHFFFAOYSA-N

>  <ref_pdb>  (599) 
Z4245a

>  <GNINA pK>  (599) 
nan

>  <gnina_score_min>  (599) 
5.272

>  <tags>  (599) 
openbind_xx01zvns2b_c1_elab_nonasap_filtered_scored_top80percent,openbind_xx01zvns2b_c1_elab_chemspace_filtered_scored_top80percent,openbind_xx01zvns2b_c1_elab_chemspace_filtered_scored,openbind_xx01zvns2b_c1_elab_chemspace_filtered_scored_top40percent,openbind_xx01zvns2b_c1_elab_chemspace_filtered_scored_top20percent,openbind_xx01zvns2b_c1_elab_chemspace_filtered_scored_top60percent,openbind_xx01zvns2b_c1_elabs_filtered

>  <smiles>  (599) 
CC1(CO)CN(C(=O)Cn2c(=O)n(C3=CCCCC3)c3ccccc32)C1

>  <subsites>  (599) 
1 - Z4590/B/203/1

>  <gnina_score>  (599) 
5.614

>  <HIPPO Pose ID>  (599) 
73975

>  <ref_mols>  (599) 
Z0101a,Z4245a

>  <energy_score>  (599) 
-7.408821

>  <inspiration_score>  (599) 
None

>  <smina_score_min>  (599) 
-5.957

>  <fragmenstein_error>  (599) 
nan

>  <name>  (599) 
P73975

$$$$
P73979
     RDKit          3D

 27 30  0  0  0  0  0  0  0  0999 V2000
   -4.6388    4.2299  -18.6142 O   0  0  0  0  0  0  0  0  0  0  0  0
   -5.3230    4.2019  -19.5594 C   0  0  0  0  0  0  0  0  0  0  0  0
   -6.8722    4.0554  -19.4574 C   0  0  0  0  0  0  0  0  0  0  0  0
   -7.3215    5.1318  -18.5978 N   0  0  0  0  0  0  0  0  0  0  0  0
   -6.4761    6.2852  -18.7219 C   0  0  0  0  0  0  0  0  0  0  0  0
   -6.1988    6.8129  -19.7914 O   0  0  0  0  0  0  0  0  0  0  0  0
   -5.8828    6.5084  -17.4242 N   0  0  0  0  0  0  0  0  0  0  0  0
   -4.7461    7.2924  -17.2184 C   0  0  0  0  0  0  0  0  0  0  0  0
   -4.3896    8.2854  -18.0598 C   0  0  0  0  0  0  0  0  0  0  0  0
   -3.1387    9.1090  -17.9509 C   0  0  0  0  0  0  0  0  0  0  0  0
   -2.3754    8.9044  -16.6469 C   0  0  0  0  0  0  0  0  0  0  0  0
   -2.3887    7.4386  -16.2414 C   0  0  0  0  0  0  0  0  0  0  0  0
   -3.8288    6.9484  -16.0601 C   0  0  0  0  0  0  0  0  0  0  0  0
   -6.5466    5.6344  -16.5219 C   0  0  0  0  0  0  0  0  0  0  0  0
   -6.5019    5.5466  -15.1458 C   0  0  0  0  0  0  0  0  0  0  0  0
   -7.4068    4.6929  -14.5149 C   0  0  0  0  0  0  0  0  0  0  0  0
   -8.3284    3.9468  -15.2629 C   0  0  0  0  0  0  0  0  0  0  0  0
   -8.3446    3.9943  -16.6498 C   0  0  0  0  0  0  0  0  0  0  0  0
   -7.4389    4.8461  -17.2389 C   0  0  0  0  0  0  0  0  0  0  0  0
   -4.9757    4.3922  -21.0518 N   0  0  0  0  0  0  0  0  0  0  0  0
   -3.7408    4.7483  -21.6801 C   0  0  0  0  0  0  0  0  0  0  0  0
   -3.6255    6.2701  -21.6650 C   0  0  2  0  0  0  0  0  0  0  0  0
   -4.6906    6.9205  -22.5532 C   0  0  0  0  0  0  0  0  0  0  0  0
   -4.1119    6.8944  -23.9603 C   0  0  0  0  0  0  0  0  0  0  0  0
   -2.6004    6.6893  -23.8018 C   0  0  0  0  0  0  0  0  0  0  0  0
   -2.3311    6.7545  -22.2986 C   0  0  1  0  0  0  0  0  0  0  0  0
   -2.0920    8.1114  -21.9307 O   0  0  0  0  0  0  0  0  0  0  0  0
  1  2  2  0
  2  3  1  0
  3  4  1  0
  4  5  1  0
  5  6  2  0
  5  7  1  0
  7  8  1  0
  8  9  2  0
  9 10  1  0
 10 11  1  0
 11 12  1  0
 12 13  1  0
  7 14  1  0
 14 15  2  0
 15 16  1  0
 16 17  2  0
 17 18  1  0
 18 19  2  0
  2 20  1  0
 20 21  1  0
 22 21  1  6
 22 23  1  0
 23 24  1  0
 24 25  1  0
 25 26  1  0
 26 27  1  1
 19  4  1  0
 26 22  1  0
 13  8  1  0
 19 14  1  0
M  END
>  <fragmenstein_outcome>  (600) 
nan

>  <exports>  (600) 
['/opt/xchem-fragalysis-2/maxwin/openbind-hippo/xx01zvns2b/cycle_01/syndirella/elabs/openbind_xx01zvns2b_c1_elab_chemspace_filtered.sdf']

>  <Energy>  (600) 
nan

>  <alias>  (600) 
None

>  <fragmenstein_runtime>  (600) 
nan

>  <scratch_subdir>  (600) 
nan

>  <HIPPO Compound ID>  (600) 
146961

>  <rmsd(smina/fragmenstein)>  (600) 
2.073

>  <distance_score>  (600) 
1.717901

>  <orig_smiles>  (600) 
nan

>  <fragmenstein_mode>  (600) 
nan

>  <inchikey>  (600) 
NTSXVOKAVVFULB-HNAYVOBHSA-N

>  <ref_pdb>  (600) 
Z4245a

>  <GNINA pK>  (600) 
nan

>  <gnina_score_min>  (600) 
5.201

>  <tags>  (600) 
openbind_xx01zvns2b_c1_elab_nonasap_filtered_scored_top80percent,openbind_xx01zvns2b_c1_elab_chemspace_filtered_scored_top80percent,openbind_xx01zvns2b_c1_elab_chemspace_filtered_scored,openbind_xx01zvns2b_c1_elab_chemspace_filtered_scored_top40percent,openbind_xx01zvns2b_c1_elab_chemspace_filtered_scored_top20percent,openbind_xx01zvns2b_c1_elab_chemspace_filtered_scored_top60percent,openbind_xx01zvns2b_c1_elabs_filtered

>  <smiles>  (600) 
O=C(Cn1c(=O)n(C2=CCCCC2)c2ccccc21)NC[C@@H]1CCC[C@H]1O

>  <subsites>  (600) 
1 - Z4590/B/203/1

>  <gnina_score>  (600) 
5.352

>  <HIPPO Pose ID>  (600) 
73979

>  <ref_mols>  (600) 
Z0101a,Z4245a

>  <energy_score>  (600) 
-5.5548

>  <inspiration_score>  (600) 
None

>  <smina_score_min>  (600) 
-4.571

>  <fragmenstein_error>  (600) 
nan

>  <name>  (600) 
P73979

$$$$
P73985
     RDKit          3D

 27 30  0  0  0  0  0  0  0  0999 V2000
   -2.4046    5.4774  -21.2842 C   0  0  0  0  0  0  0  0  0  0  0  0
   -3.4720    6.5765  -21.3417 C   0  0  1  0  0  0  0  0  0  0  0  0
   -2.8703    7.8913  -21.8211 C   0  0  0  0  0  0  0  0  0  0  0  0
   -3.8040    8.9747  -21.8290 O   0  0  0  0  0  0  0  0  0  0  0  0
   -5.1583    8.6095  -22.0787 C   0  0  0  0  0  0  0  0  0  0  0  0
   -5.2885    7.3708  -22.9468 C   0  0  0  0  0  0  0  0  0  0  0  0
   -4.6595    6.1801  -22.2413 C   0  0  2  0  0  0  0  0  0  0  0  0
   -5.6193    5.4579  -21.4401 N   0  0  0  0  0  0  0  0  0  0  0  0
   -5.7844    3.9484  -21.1986 C   0  0  0  0  0  0  0  0  0  0  0  0
   -5.2217    3.0434  -21.6675 O   0  0  0  0  0  0  0  0  0  0  0  0
   -6.8416    3.7381  -20.0654 C   0  0  0  0  0  0  0  0  0  0  0  0
   -6.5630    4.4903  -18.8681 N   0  0  0  0  0  0  0  0  0  0  0  0
   -5.2545    4.7831  -18.4614 C   0  0  0  0  0  0  0  0  0  0  0  0
   -4.2726    4.6592  -19.1709 O   0  0  0  0  0  0  0  0  0  0  0  0
   -5.2758    5.1625  -17.0944 N   0  0  0  0  0  0  0  0  0  0  0  0
   -4.1410    5.5736  -16.3945 C   0  0  0  0  0  0  0  0  0  0  0  0
   -3.9665    5.3315  -15.0798 C   0  0  0  0  0  0  0  0  0  0  0  0
   -2.8236    5.8458  -14.2556 C   0  0  0  0  0  0  0  0  0  0  0  0
   -2.0909    7.0024  -14.9234 C   0  0  0  0  0  0  0  0  0  0  0  0
   -1.7955    6.6646  -16.3740 C   0  0  0  0  0  0  0  0  0  0  0  0
   -3.0745    6.3499  -17.1601 C   0  0  0  0  0  0  0  0  0  0  0  0
   -6.5896    4.8974  -16.6392 C   0  0  0  0  0  0  0  0  0  0  0  0
   -7.1428    5.0061  -15.3797 C   0  0  0  0  0  0  0  0  0  0  0  0
   -8.4518    4.5675  -15.2077 C   0  0  0  0  0  0  0  0  0  0  0  0
   -9.1884    4.0814  -16.2985 C   0  0  0  0  0  0  0  0  0  0  0  0
   -8.6558    4.0290  -17.5818 C   0  0  0  0  0  0  0  0  0  0  0  0
   -7.3569    4.4530  -17.7229 C   0  0  0  0  0  0  0  0  0  0  0  0
  2  1  1  6
  2  3  1  0
  3  4  1  0
  4  5  1  0
  5  6  1  0
  6  7  1  0
  7  8  1  1
  8  9  1  0
  9 10  2  0
  9 11  1  0
 11 12  1  0
 12 13  1  0
 13 14  2  0
 13 15  1  0
 15 16  1  0
 16 17  2  0
 17 18  1  0
 18 19  1  0
 19 20  1  0
 20 21  1  0
 15 22  1  0
 22 23  2  0
 23 24  1  0
 24 25  2  0
 25 26  1  0
 26 27  2  0
  7  2  1  0
 27 12  1  0
 21 16  1  0
 27 22  1  0
M  END
>  <fragmenstein_outcome>  (601) 
nan

>  <exports>  (601) 
['/opt/xchem-fragalysis-2/maxwin/openbind-hippo/xx01zvns2b/cycle_01/syndirella/elabs/openbind_xx01zvns2b_c1_elab_chemspace_filtered.sdf']

>  <Energy>  (601) 
nan

>  <alias>  (601) 
None

>  <fragmenstein_runtime>  (601) 
nan

>  <scratch_subdir>  (601) 
nan

>  <HIPPO Compound ID>  (601) 
146963

>  <rmsd(smina/fragmenstein)>  (601) 
1.209

>  <distance_score>  (601) 
1.433934

>  <orig_smiles>  (601) 
nan

>  <fragmenstein_mode>  (601) 
nan

>  <inchikey>  (601) 
AXXVOCWDLNOQPT-RDJZCZTQSA-N

>  <ref_pdb>  (601) 
Z4245a

>  <GNINA pK>  (601) 
nan

>  <gnina_score_min>  (601) 
5.412

>  <tags>  (601) 
openbind_xx01zvns2b_c1_elab_nonasap_filtered_scored_top80percent,openbind_xx01zvns2b_c1_elab_chemspace_filtered_scored_top80percent,openbind_xx01zvns2b_c1_elab_chemspace_filtered_scored,openbind_xx01zvns2b_c1_elab_chemspace_filtered_scored_top40percent,openbind_xx01zvns2b_c1_elab_chemspace_filtered_scored_top20percent,openbind_xx01zvns2b_c1_elab_chemspace_filtered_scored_top60percent,openbind_xx01zvns2b_c1_elabs_filtered

>  <smiles>  (601) 
C[C@H]1COCC[C@@H]1NC(=O)Cn1c(=O)n(C2=CCCCC2)c2ccccc21

>  <subsites>  (601) 
1 - Z4590/B/203/1

>  <gnina_score>  (601) 
5.842

>  <HIPPO Pose ID>  (601) 
73985

>  <ref_mols>  (601) 
Z0101a,Z4245a

>  <energy_score>  (601) 
-34.599944

>  <inspiration_score>  (601) 
None

>  <smina_score_min>  (601) 
-6.506

>  <fragmenstein_error>  (601) 
nan

>  <name>  (601) 
P73985

$$$$
P73988
     RDKit          3D

 27 31  0  0  0  0  0  0  0  0999 V2000
   -6.9680    2.4137  -21.0327 O   0  0  0  0  0  0  0  0  0  0  0  0
   -6.6860    3.4393  -20.5648 C   0  0  0  0  0  0  0  0  0  0  0  0
   -7.5377    3.9886  -19.3733 C   0  0  0  0  0  0  0  0  0  0  0  0
   -6.8385    4.4816  -18.2108 N   0  0  0  0  0  0  0  0  0  0  0  0
   -5.7725    5.3761  -18.1557 C   0  0  0  0  0  0  0  0  0  0  0  0
   -5.3029    5.9800  -19.1097 O   0  0  0  0  0  0  0  0  0  0  0  0
   -5.3939    5.5374  -16.7953 N   0  0  0  0  0  0  0  0  0  0  0  0
   -4.2289    6.1819  -16.3904 C   0  0  0  0  0  0  0  0  0  0  0  0
   -3.1245    6.1889  -17.1649 C   0  0  0  0  0  0  0  0  0  0  0  0
   -1.8230    6.8524  -16.8205 C   0  0  0  0  0  0  0  0  0  0  0  0
   -1.7421    7.3271  -15.3734 C   0  0  0  0  0  0  0  0  0  0  0  0
   -3.0693    7.9223  -14.9265 C   0  0  0  0  0  0  0  0  0  0  0  0
   -4.1918    6.8865  -15.0519 C   0  0  0  0  0  0  0  0  0  0  0  0
   -6.4727    5.0221  -16.0446 C   0  0  0  0  0  0  0  0  0  0  0  0
   -6.7304    5.0497  -14.6923 C   0  0  0  0  0  0  0  0  0  0  0  0
   -7.9642    4.5750  -14.2595 C   0  0  0  0  0  0  0  0  0  0  0  0
   -8.8931    4.0718  -15.1779 C   0  0  0  0  0  0  0  0  0  0  0  0
   -8.6047    3.9570  -16.5288 C   0  0  0  0  0  0  0  0  0  0  0  0
   -7.3785    4.4274  -16.9288 C   0  0  0  0  0  0  0  0  0  0  0  0
   -5.5051    4.3691  -20.8521 N   0  0  0  0  0  0  0  0  0  0  0  0
   -4.3768    4.1956  -21.7003 C   0  0  0  0  0  0  0  0  0  0  0  0
   -3.8950    5.5043  -22.2133 C   0  0  1  0  0  0  0  0  0  0  0  0
   -4.8319    6.3309  -23.0444 C   0  0  0  0  0  0  0  0  0  0  0  0
   -4.4853    7.7122  -22.8078 O   0  0  0  0  0  0  0  0  0  0  0  0
   -3.8423    7.7849  -21.5215 C   0  0  0  0  0  0  0  0  0  0  0  0
   -3.2324    6.4531  -21.2813 C   0  0  2  0  0  0  0  0  0  0  0  0
   -2.4002    5.7428  -22.3098 C   0  0  0  0  0  0  0  0  0  0  0  0
  1  2  2  0
  2  3  1  0
  3  4  1  0
  4  5  1  0
  5  6  2  0
  5  7  1  0
  7  8  1  0
  8  9  2  0
  9 10  1  0
 10 11  1  0
 11 12  1  0
 12 13  1  0
  7 14  1  0
 14 15  2  0
 15 16  1  0
 16 17  2  0
 17 18  1  0
 18 19  2  0
  2 20  1  0
 20 21  1  0
 22 21  1  1
 22 23  1  0
 23 24  1  0
 24 25  1  0
 26 25  1  6
 26 27  1  0
 19  4  1  0
 26 22  1  0
 13  8  1  0
 19 14  1  0
 27 22  1  0
M  END
>  <fragmenstein_outcome>  (602) 
nan

>  <exports>  (602) 
['/opt/xchem-fragalysis-2/maxwin/openbind-hippo/xx01zvns2b/cycle_01/syndirella/elabs/openbind_xx01zvns2b_c1_elab_chemspace_filtered.sdf']

>  <Energy>  (602) 
nan

>  <alias>  (602) 
None

>  <fragmenstein_runtime>  (602) 
nan

>  <scratch_subdir>  (602) 
nan

>  <HIPPO Compound ID>  (602) 
146964

>  <rmsd(smina/fragmenstein)>  (602) 
0.919

>  <distance_score>  (602) 
1.484657

>  <orig_smiles>  (602) 
nan

>  <fragmenstein_mode>  (602) 
nan

>  <inchikey>  (602) 
ODDKRKRPOLAISB-BTYIYWSLSA-N

>  <ref_pdb>  (602) 
Z4245a

>  <GNINA pK>  (602) 
nan

>  <gnina_score_min>  (602) 
5.536

>  <tags>  (602) 
openbind_xx01zvns2b_c1_elab_nonasap_filtered_scored_top80percent,openbind_xx01zvns2b_c1_elab_chemspace_filtered_scored_top80percent,openbind_xx01zvns2b_c1_elab_chemspace_filtered_scored,openbind_xx01zvns2b_c1_elab_chemspace_filtered_scored_top40percent,openbind_xx01zvns2b_c1_elab_chemspace_filtered_scored_top20percent,openbind_xx01zvns2b_c1_elab_chemspace_filtered_scored_top60percent,openbind_xx01zvns2b_c1_elabs_filtered

>  <smiles>  (602) 
O=C(Cn1c(=O)n(C2=CCCCC2)c2ccccc21)NC[C@@]12COC[C@@H]1C2

>  <subsites>  (602) 
1 - Z4590/B/203/1

>  <gnina_score>  (602) 
5.751

>  <HIPPO Pose ID>  (602) 
73988

>  <ref_mols>  (602) 
Z0101a,Z4245a

>  <energy_score>  (602) 
-25.865843

>  <inspiration_score>  (602) 
None

>  <smina_score_min>  (602) 
-5.058

>  <fragmenstein_error>  (602) 
nan

>  <name>  (602) 
P73988

$$$$
P73989
     RDKit          3D

 27 30  0  0  0  0  0  0  0  0999 V2000
   -6.6972    3.0481  -21.1213 O   0  0  0  0  0  0  0  0  0  0  0  0
   -6.3377    4.0269  -20.5750 C   0  0  0  0  0  0  0  0  0  0  0  0
   -7.0535    4.6371  -19.3731 C   0  0  0  0  0  0  0  0  0  0  0  0
   -6.4559    4.3374  -18.1082 N   0  0  0  0  0  0  0  0  0  0  0  0
   -5.1541    4.7784  -17.8004 C   0  0  0  0  0  0  0  0  0  0  0  0
   -4.2337    4.8868  -18.5944 O   0  0  0  0  0  0  0  0  0  0  0  0
   -5.1144    5.1176  -16.4144 N   0  0  0  0  0  0  0  0  0  0  0  0
   -4.0182    5.7196  -15.7887 C   0  0  0  0  0  0  0  0  0  0  0  0
   -2.7637    5.6645  -16.2850 C   0  0  0  0  0  0  0  0  0  0  0  0
   -1.5576    6.3399  -15.6948 C   0  0  0  0  0  0  0  0  0  0  0  0
   -1.7916    6.9196  -14.3055 C   0  0  0  0  0  0  0  0  0  0  0  0
   -3.1657    7.5631  -14.2232 C   0  0  0  0  0  0  0  0  0  0  0  0
   -4.2561    6.5307  -14.5274 C   0  0  0  0  0  0  0  0  0  0  0  0
   -6.4022    4.8248  -15.9017 C   0  0  0  0  0  0  0  0  0  0  0  0
   -6.8959    4.8693  -14.6156 C   0  0  0  0  0  0  0  0  0  0  0  0
   -8.2191    4.4879  -14.4072 C   0  0  0  0  0  0  0  0  0  0  0  0
   -9.0188    4.0799  -15.4814 C   0  0  0  0  0  0  0  0  0  0  0  0
   -8.5327    4.0321  -16.7766 C   0  0  0  0  0  0  0  0  0  0  0  0
   -7.2144    4.3849  -16.9454 C   0  0  0  0  0  0  0  0  0  0  0  0
   -5.1089    4.8745  -20.7984 N   0  0  0  0  0  0  0  0  0  0  0  0
   -5.3730    5.9924  -21.8350 C   0  0  0  0  0  0  0  0  0  0  0  0
   -3.8862    6.1547  -21.9619 C   0  0  0  0  0  0  0  0  0  0  0  0
   -3.2619    7.0449  -20.8930 C   0  0  0  0  0  0  0  0  0  0  0  0
   -1.8459    6.8843  -20.9056 O   0  0  0  0  0  0  0  0  0  0  0  0
   -3.4139    6.5179  -23.3495 C   0  0  0  0  0  0  0  0  0  0  0  0
   -4.3540    6.0915  -24.3280 O   0  0  0  0  0  0  0  0  0  0  0  0
   -3.9336    4.6726  -21.7078 C   0  0  0  0  0  0  0  0  0  0  0  0
  1  2  2  0
  2  3  1  0
  3  4  1  0
  4  5  1  0
  5  6  2  0
  5  7  1  0
  7  8  1  0
  8  9  2  0
  9 10  1  0
 10 11  1  0
 11 12  1  0
 12 13  1  0
  7 14  1  0
 14 15  2  0
 15 16  1  0
 16 17  2  0
 17 18  1  0
 18 19  2  0
  2 20  1  0
 20 21  1  0
 21 22  1  0
 22 23  1  0
 23 24  1  0
 22 25  1  0
 25 26  1  0
 22 27  1  0
 19  4  1  0
 27 20  1  0
 13  8  1  0
 19 14  1  0
M  END
>  <fragmenstein_outcome>  (603) 
nan

>  <exports>  (603) 
['/opt/xchem-fragalysis-2/maxwin/openbind-hippo/xx01zvns2b/cycle_01/syndirella/elabs/openbind_xx01zvns2b_c1_elab_chemspace_filtered.sdf']

>  <Energy>  (603) 
nan

>  <alias>  (603) 
None

>  <fragmenstein_runtime>  (603) 
nan

>  <scratch_subdir>  (603) 
nan

>  <HIPPO Compound ID>  (603) 
146966

>  <rmsd(smina/fragmenstein)>  (603) 
2.251

>  <distance_score>  (603) 
1.683592

>  <orig_smiles>  (603) 
nan

>  <fragmenstein_mode>  (603) 
nan

>  <inchikey>  (603) 
KJMVZMRPGIOHNA-UHFFFAOYSA-N

>  <ref_pdb>  (603) 
Z4245a

>  <GNINA pK>  (603) 
nan

>  <gnina_score_min>  (603) 
5.5

>  <tags>  (603) 
openbind_xx01zvns2b_c1_elab_nonasap_filtered_scored_top80percent,openbind_xx01zvns2b_c1_elab_chemspace_filtered_scored_top80percent,openbind_xx01zvns2b_c1_elab_chemspace_filtered_scored,openbind_xx01zvns2b_c1_elab_chemspace_filtered_scored_top40percent,openbind_xx01zvns2b_c1_elab_chemspace_filtered_scored_top20percent,openbind_xx01zvns2b_c1_elab_chemspace_filtered_scored_top60percent,openbind_xx01zvns2b_c1_elabs_filtered

>  <smiles>  (603) 
O=C(Cn1c(=O)n(C2=CCCCC2)c2ccccc21)N1CC(CO)(CO)C1

>  <subsites>  (603) 
1 - Z4590/B/203/1

>  <gnina_score>  (603) 
5.514

>  <HIPPO Pose ID>  (603) 
73989

>  <ref_mols>  (603) 
Z0101a,Z4245a

>  <energy_score>  (603) 
-29.075481

>  <inspiration_score>  (603) 
None

>  <smina_score_min>  (603) 
-6.339

>  <fragmenstein_error>  (603) 
nan

>  <name>  (603) 
P73989

$$$$
P73991
     RDKit          3D

 27 30  0  0  0  0  0  0  0  0999 V2000
   -5.9189    6.4955  -20.2307 O   0  0  0  0  0  0  0  0  0  0  0  0
   -5.7879    5.3506  -20.4529 C   0  0  0  0  0  0  0  0  0  0  0  0
   -6.6422    4.2475  -19.7686 C   0  0  0  0  0  0  0  0  0  0  0  0
   -6.3138    4.4378  -18.3955 N   0  0  0  0  0  0  0  0  0  0  0  0
   -5.0045    4.6983  -17.9744 C   0  0  0  0  0  0  0  0  0  0  0  0
   -4.0278    4.6238  -18.7073 O   0  0  0  0  0  0  0  0  0  0  0  0
   -5.0543    5.0079  -16.5883 N   0  0  0  0  0  0  0  0  0  0  0  0
   -3.9433    5.4113  -15.8504 C   0  0  0  0  0  0  0  0  0  0  0  0
   -3.8332    5.2015  -14.5235 C   0  0  0  0  0  0  0  0  0  0  0  0
   -2.7277    5.7336  -13.6613 C   0  0  0  0  0  0  0  0  0  0  0  0
   -1.9788    6.8856  -14.3192 C   0  0  0  0  0  0  0  0  0  0  0  0
   -1.6016    6.5148  -15.7423 C   0  0  0  0  0  0  0  0  0  0  0  0
   -2.8277    6.1445  -16.5877 C   0  0  0  0  0  0  0  0  0  0  0  0
   -6.4034    4.7912  -16.1849 C   0  0  0  0  0  0  0  0  0  0  0  0
   -7.0126    4.9124  -14.9544 C   0  0  0  0  0  0  0  0  0  0  0  0
   -8.3524    4.5400  -14.8505 C   0  0  0  0  0  0  0  0  0  0  0  0
   -9.0680    4.1137  -15.9799 C   0  0  0  0  0  0  0  0  0  0  0  0
   -8.4866    4.0767  -17.2391 C   0  0  0  0  0  0  0  0  0  0  0  0
   -7.1568    4.4161  -17.3037 C   0  0  0  0  0  0  0  0  0  0  0  0
   -4.7362    4.6038  -21.3408 N   0  0  0  0  0  0  0  0  0  0  0  0
   -3.5916    5.1030  -22.0469 C   0  0  0  0  0  0  0  0  0  0  0  0
   -3.6883    6.5024  -22.6049 C   0  0  2  0  0  0  0  0  0  0  0  0
   -3.4247    7.6456  -21.6472 C   0  0  0  0  0  0  0  0  0  0  0  0
   -3.9377    8.8232  -22.3063 O   0  0  0  0  0  0  0  0  0  0  0  0
   -4.8802    8.4041  -23.3098 C   0  0  0  0  0  0  0  0  0  0  0  0
   -5.0108    6.8885  -23.2130 C   0  0  1  0  0  0  0  0  0  0  0  0
   -5.2238    6.2266  -24.4445 O   0  0  0  0  0  0  0  0  0  0  0  0
  1  2  2  0
  2  3  1  0
  3  4  1  0
  4  5  1  0
  5  6  2  0
  5  7  1  0
  7  8  1  0
  8  9  2  0
  9 10  1  0
 10 11  1  0
 11 12  1  0
 12 13  1  0
  7 14  1  0
 14 15  2  0
 15 16  1  0
 16 17  2  0
 17 18  1  0
 18 19  2  0
  2 20  1  0
 20 21  1  0
 22 21  1  1
 22 23  1  0
 23 24  1  0
 24 25  1  0
 25 26  1  0
 26 27  1  6
 19  4  1  0
 26 22  1  0
 13  8  1  0
 19 14  1  0
M  END
>  <fragmenstein_outcome>  (604) 
nan

>  <exports>  (604) 
['/opt/xchem-fragalysis-2/maxwin/openbind-hippo/xx01zvns2b/cycle_01/syndirella/elabs/openbind_xx01zvns2b_c1_elab_chemspace_filtered.sdf']

>  <Energy>  (604) 
nan

>  <alias>  (604) 
None

>  <fragmenstein_runtime>  (604) 
nan

>  <scratch_subdir>  (604) 
nan

>  <HIPPO Compound ID>  (604) 
146967

>  <rmsd(smina/fragmenstein)>  (604) 
2.615

>  <distance_score>  (604) 
1.712938

>  <orig_smiles>  (604) 
nan

>  <fragmenstein_mode>  (604) 
nan

>  <inchikey>  (604) 
MEAVSBSNSLHPTP-RDTXWAMCSA-N

>  <ref_pdb>  (604) 
Z4245a

>  <GNINA pK>  (604) 
nan

>  <gnina_score_min>  (604) 
5.541

>  <tags>  (604) 
openbind_xx01zvns2b_c1_elab_nonasap_filtered_scored_top80percent,openbind_xx01zvns2b_c1_elab_chemspace_filtered_scored_top80percent,openbind_xx01zvns2b_c1_elab_chemspace_filtered_scored,openbind_xx01zvns2b_c1_elab_chemspace_filtered_scored_top40percent,openbind_xx01zvns2b_c1_elab_chemspace_filtered_scored_top20percent,openbind_xx01zvns2b_c1_elab_chemspace_filtered_scored_top60percent,openbind_xx01zvns2b_c1_elabs_filtered

>  <smiles>  (604) 
O=C(Cn1c(=O)n(C2=CCCCC2)c2ccccc21)NC[C@@H]1COC[C@H]1O

>  <subsites>  (604) 
1 - Z4590/B/203/1

>  <gnina_score>  (604) 
5.517

>  <HIPPO Pose ID>  (604) 
73991

>  <ref_mols>  (604) 
Z0101a,Z4245a

>  <energy_score>  (604) 
-4.471087

>  <inspiration_score>  (604) 
None

>  <smina_score_min>  (604) 
-6.803

>  <fragmenstein_error>  (604) 
nan

>  <name>  (604) 
P73991

$$$$
P73995
     RDKit          3D

 27 31  0  0  0  0  0  0  0  0999 V2000
   -6.0138    6.7433  -20.1711 O   0  0  0  0  0  0  0  0  0  0  0  0
   -5.7914    5.6651  -20.5809 C   0  0  0  0  0  0  0  0  0  0  0  0
   -6.4454    4.3581  -20.0052 C   0  0  0  0  0  0  0  0  0  0  0  0
   -6.1996    4.4460  -18.6142 N   0  0  0  0  0  0  0  0  0  0  0  0
   -4.9076    4.7129  -18.1622 C   0  0  0  0  0  0  0  0  0  0  0  0
   -3.9435    4.6703  -18.9161 O   0  0  0  0  0  0  0  0  0  0  0  0
   -5.0031    5.0467  -16.7771 N   0  0  0  0  0  0  0  0  0  0  0  0
   -3.9539    5.5790  -16.0217 C   0  0  0  0  0  0  0  0  0  0  0  0
   -2.6815    5.6438  -16.4696 C   0  0  0  0  0  0  0  0  0  0  0  0
   -1.5215    6.2459  -15.7270 C   0  0  0  0  0  0  0  0  0  0  0  0
   -1.8138    6.5200  -14.2584 C   0  0  0  0  0  0  0  0  0  0  0  0
   -3.1964    7.1288  -14.1083 C   0  0  0  0  0  0  0  0  0  0  0  0
   -4.2666    6.1832  -14.6640 C   0  0  0  0  0  0  0  0  0  0  0  0
   -6.3658    4.7966  -16.4122 C   0  0  0  0  0  0  0  0  0  0  0  0
   -6.9968    4.7823  -15.1840 C   0  0  0  0  0  0  0  0  0  0  0  0
   -8.3522    4.4452  -15.1370 C   0  0  0  0  0  0  0  0  0  0  0  0
   -9.0582    4.1401  -16.3100 C   0  0  0  0  0  0  0  0  0  0  0  0
   -8.4305    4.1445  -17.5495 C   0  0  0  0  0  0  0  0  0  0  0  0
   -7.0889    4.4553  -17.5607 C   0  0  0  0  0  0  0  0  0  0  0  0
   -4.7718    5.1832  -21.6719 N   0  0  0  0  0  0  0  0  0  0  0  0
   -3.7586    5.9199  -22.4047 C   0  0  2  0  0  0  0  0  0  0  0  0
   -3.3537    7.3367  -21.8771 C   0  0  0  0  0  0  0  0  0  0  0  0
   -4.5016    7.8803  -22.7630 C   0  0  1  0  0  0  0  0  0  0  0  0
   -4.6933    8.8758  -23.8758 C   0  0  0  0  0  0  0  0  0  0  0  0
   -5.5564    8.1907  -24.8171 O   0  0  0  0  0  0  0  0  0  0  0  0
   -5.5032    6.7823  -24.4732 C   0  0  0  0  0  0  0  0  0  0  0  0
   -4.2459    6.6515  -23.6629 C   0  0  2  0  0  0  0  0  0  0  0  0
  1  2  2  0
  2  3  1  0
  3  4  1  0
  4  5  1  0
  5  6  2  0
  5  7  1  0
  7  8  1  0
  8  9  2  0
  9 10  1  0
 10 11  1  0
 11 12  1  0
 12 13  1  0
  7 14  1  0
 14 15  2  0
 15 16  1  0
 16 17  2  0
 17 18  1  0
 18 19  2  0
  2 20  1  0
 21 20  1  1
 21 22  1  0
 23 22  1  1
 23 24  1  0
 24 25  1  0
 25 26  1  0
 27 26  1  1
 19  4  1  0
 27 21  1  0
 13  8  1  0
 19 14  1  0
 27 23  1  0
M  END
>  <fragmenstein_outcome>  (605) 
nan

>  <exports>  (605) 
['/opt/xchem-fragalysis-2/maxwin/openbind-hippo/xx01zvns2b/cycle_01/syndirella/elabs/openbind_xx01zvns2b_c1_elab_chemspace_filtered.sdf']

>  <Energy>  (605) 
nan

>  <alias>  (605) 
None

>  <fragmenstein_runtime>  (605) 
nan

>  <scratch_subdir>  (605) 
nan

>  <HIPPO Compound ID>  (605) 
146969

>  <rmsd(smina/fragmenstein)>  (605) 
2.319

>  <distance_score>  (605) 
1.658765

>  <orig_smiles>  (605) 
nan

>  <fragmenstein_mode>  (605) 
nan

>  <inchikey>  (605) 
GNCGXDGKPJXHMO-BHYGNILZSA-N

>  <ref_pdb>  (605) 
Z4245a

>  <GNINA pK>  (605) 
nan

>  <gnina_score_min>  (605) 
5.437

>  <tags>  (605) 
openbind_xx01zvns2b_c1_elab_nonasap_filtered_scored_top80percent,openbind_xx01zvns2b_c1_elab_chemspace_filtered_scored_top80percent,openbind_xx01zvns2b_c1_elab_chemspace_filtered_scored,openbind_xx01zvns2b_c1_elab_chemspace_filtered_scored_top40percent,openbind_xx01zvns2b_c1_elab_chemspace_filtered_scored_top20percent,openbind_xx01zvns2b_c1_elab_chemspace_filtered_scored_top60percent,openbind_xx01zvns2b_c1_elabs_filtered

>  <smiles>  (605) 
O=C(Cn1c(=O)n(C2=CCCCC2)c2ccccc21)N[C@@H]1C[C@H]2COC[C@@H]21

>  <subsites>  (605) 
1 - Z4590/B/203/1

>  <gnina_score>  (605) 
5.641

>  <HIPPO Pose ID>  (605) 
73995

>  <ref_mols>  (605) 
Z0101a,Z4245a

>  <energy_score>  (605) 
-4.607498

>  <inspiration_score>  (605) 
None

>  <smina_score_min>  (605) 
-6.064

>  <fragmenstein_error>  (605) 
nan

>  <name>  (605) 
P73995

$$$$
P73997
     RDKit          3D

 27 31  0  0  0  0  0  0  0  0999 V2000
   -5.3290    3.1278  -21.6524 O   0  0  0  0  0  0  0  0  0  0  0  0
   -5.8521    4.0231  -21.1157 C   0  0  0  0  0  0  0  0  0  0  0  0
   -6.8643    3.7888  -19.9633 C   0  0  0  0  0  0  0  0  0  0  0  0
   -6.5461    4.5579  -18.7906 N   0  0  0  0  0  0  0  0  0  0  0  0
   -5.2146    4.8386  -18.4285 C   0  0  0  0  0  0  0  0  0  0  0  0
   -4.2594    4.7071  -19.1759 O   0  0  0  0  0  0  0  0  0  0  0  0
   -5.2128    5.2953  -17.0804 N   0  0  0  0  0  0  0  0  0  0  0  0
   -4.0970    5.8349  -16.4349 C   0  0  0  0  0  0  0  0  0  0  0  0
   -4.1928    6.5519  -15.3008 C   0  0  0  0  0  0  0  0  0  0  0  0
   -3.0266    7.0667  -14.5076 C   0  0  0  0  0  0  0  0  0  0  0  0
   -1.7127    6.3975  -14.8908 C   0  0  0  0  0  0  0  0  0  0  0  0
   -1.5647    6.3838  -16.4012 C   0  0  0  0  0  0  0  0  0  0  0  0
   -2.7289    5.6511  -17.0789 C   0  0  0  0  0  0  0  0  0  0  0  0
   -6.5037    4.9908  -16.5729 C   0  0  0  0  0  0  0  0  0  0  0  0
   -6.9637    4.9408  -15.2709 C   0  0  0  0  0  0  0  0  0  0  0  0
   -8.2613    4.4825  -15.0508 C   0  0  0  0  0  0  0  0  0  0  0  0
   -9.0646    4.0750  -16.1256 C   0  0  0  0  0  0  0  0  0  0  0  0
   -8.5956    4.0916  -17.4354 C   0  0  0  0  0  0  0  0  0  0  0  0
   -7.3095    4.5445  -17.6252 C   0  0  0  0  0  0  0  0  0  0  0  0
   -5.6949    5.5495  -21.3262 N   0  0  0  0  0  0  0  0  0  0  0  0
   -4.8150    6.2718  -22.1526 C   0  0  1  0  0  0  0  0  0  0  0  0
   -3.4118    6.6146  -21.6711 C   0  0  1  0  0  0  0  0  0  0  0  0
   -2.1421    6.0497  -21.1289 C   0  0  0  0  0  0  0  0  0  0  0  0
   -1.0666    6.2459  -22.2351 C   0  0  0  0  0  0  0  0  0  0  0  0
   -1.5261    5.7940  -23.6468 C   0  0  0  0  0  0  0  0  0  0  0  0
   -2.9127    6.1144  -23.9166 O   0  0  0  0  0  0  0  0  0  0  0  0
   -3.6847    5.6354  -22.8155 C   0  0  2  0  0  0  0  0  0  0  0  0
  1  2  2  0
  2  3  1  0
  3  4  1  0
  4  5  1  0
  5  6  2  0
  5  7  1  0
  7  8  1  0
  8  9  2  0
  9 10  1  0
 10 11  1  0
 11 12  1  0
 12 13  1  0
  7 14  1  0
 14 15  2  0
 15 16  1  0
 16 17  2  0
 17 18  1  0
 18 19  2  0
  2 20  1  0
 21 20  1  1
 21 22  1  0
 22 23  1  1
 23 24  1  0
 24 25  1  0
 25 26  1  0
 27 26  1  6
 19  4  1  0
 27 21  1  0
 13  8  1  0
 19 14  1  0
 27 22  1  0
M  END
>  <fragmenstein_outcome>  (606) 
nan

>  <exports>  (606) 
['/opt/xchem-fragalysis-2/maxwin/openbind-hippo/xx01zvns2b/cycle_01/syndirella/elabs/openbind_xx01zvns2b_c1_elab_chemspace_filtered.sdf']

>  <Energy>  (606) 
nan

>  <alias>  (606) 
None

>  <fragmenstein_runtime>  (606) 
nan

>  <scratch_subdir>  (606) 
nan

>  <HIPPO Compound ID>  (606) 
146970

>  <rmsd(smina/fragmenstein)>  (606) 
1.378

>  <distance_score>  (606) 
1.637145

>  <orig_smiles>  (606) 
nan

>  <fragmenstein_mode>  (606) 
nan

>  <inchikey>  (606) 
FTSKWFYZLWFLNO-XPGWFJOJSA-N

>  <ref_pdb>  (606) 
Z4245a

>  <GNINA pK>  (606) 
nan

>  <gnina_score_min>  (606) 
5.626

>  <tags>  (606) 
openbind_xx01zvns2b_c1_elab_nonasap_filtered_scored_top80percent,openbind_xx01zvns2b_c1_elab_chemspace_filtered_scored_top80percent,openbind_xx01zvns2b_c1_elab_chemspace_filtered_scored,openbind_xx01zvns2b_c1_elab_chemspace_filtered_scored_top40percent,openbind_xx01zvns2b_c1_elab_chemspace_filtered_scored_top20percent,openbind_xx01zvns2b_c1_elab_chemspace_filtered_scored_top60percent,openbind_xx01zvns2b_c1_elabs_filtered

>  <smiles>  (606) 
O=C(Cn1c(=O)n(C2=CCCCC2)c2ccccc21)N[C@H]1[C@H]2CCCO[C@@H]21

>  <subsites>  (606) 
1 - Z4590/B/203/1

>  <gnina_score>  (606) 
5.838

>  <HIPPO Pose ID>  (606) 
73997

>  <ref_mols>  (606) 
Z0101a,Z4245a

>  <energy_score>  (606) 
-2.234443

>  <inspiration_score>  (606) 
None

>  <smina_score_min>  (606) 
-6.438

>  <fragmenstein_error>  (606) 
nan

>  <name>  (606) 
P73997

$$$$
P74005
     RDKit          3D

 27 29  0  0  0  0  0  0  0  0999 V2000
   -5.3373    8.1002  -21.5153 C   0  0  0  0  0  0  0  0  0  0  0  0
   -4.6037    6.9656  -20.7996 C   0  0  1  0  0  0  0  0  0  0  0  0
   -5.5539    6.0476  -20.2207 N   0  0  0  0  0  0  0  0  0  0  0  0
   -6.0368    4.6476  -20.7100 C   0  0  0  0  0  0  0  0  0  0  0  0
   -5.7941    4.0632  -21.6959 O   0  0  0  0  0  0  0  0  0  0  0  0
   -6.9236    4.0235  -19.5959 C   0  0  0  0  0  0  0  0  0  0  0  0
   -6.5767    4.5302  -18.2972 N   0  0  0  0  0  0  0  0  0  0  0  0
   -5.2486    4.6524  -17.8632 C   0  0  0  0  0  0  0  0  0  0  0  0
   -4.2806    4.4411  -18.5735 O   0  0  0  0  0  0  0  0  0  0  0  0
   -5.2676    5.0604  -16.4980 N   0  0  0  0  0  0  0  0  0  0  0  0
   -4.1327    5.4668  -15.7927 C   0  0  0  0  0  0  0  0  0  0  0  0
   -3.0589    5.9753  -16.4326 C   0  0  0  0  0  0  0  0  0  0  0  0
   -1.7959    6.4485  -15.7727 C   0  0  0  0  0  0  0  0  0  0  0  0
   -1.9027    6.5637  -14.2564 C   0  0  0  0  0  0  0  0  0  0  0  0
   -2.6857    5.3928  -13.6846 C   0  0  0  0  0  0  0  0  0  0  0  0
   -4.0944    5.3395  -14.2855 C   0  0  0  0  0  0  0  0  0  0  0  0
   -6.5964    4.8396  -16.0626 C   0  0  0  0  0  0  0  0  0  0  0  0
   -7.1505    4.8856  -14.8038 C   0  0  0  0  0  0  0  0  0  0  0  0
   -8.4652    4.4601  -14.6650 C   0  0  0  0  0  0  0  0  0  0  0  0
   -9.2016    4.0480  -15.7841 C   0  0  0  0  0  0  0  0  0  0  0  0
   -8.6836    4.0803  -17.0672 C   0  0  0  0  0  0  0  0  0  0  0  0
   -7.3772    4.4772  -17.1701 C   0  0  0  0  0  0  0  0  0  0  0  0
   -3.3847    6.3332  -21.5364 C   0  0  0  0  0  0  0  0  0  0  0  0
   -2.5831    5.3444  -20.6597 C   0  0  0  0  0  0  0  0  0  0  0  0
   -2.4070    7.4877  -21.8424 C   0  0  0  0  0  0  0  0  0  0  0  0
   -3.6913    5.6081  -22.8575 C   0  0  0  0  0  0  0  0  0  0  0  0
   -4.9037    6.0231  -23.4640 O   0  0  0  0  0  0  0  0  0  0  0  0
  2  1  1  6
  2  3  1  0
  3  4  1  0
  4  5  2  0
  4  6  1  0
  6  7  1  0
  7  8  1  0
  8  9  2  0
  8 10  1  0
 10 11  1  0
 11 12  2  0
 12 13  1  0
 13 14  1  0
 14 15  1  0
 15 16  1  0
 10 17  1  0
 17 18  2  0
 18 19  1  0
 19 20  2  0
 20 21  1  0
 21 22  2  0
  2 23  1  0
 23 24  1  0
 23 25  1  0
 23 26  1  0
 26 27  1  0
 22  7  1  0
 16 11  1  0
 22 17  1  0
M  END
>  <fragmenstein_outcome>  (607) 
nan

>  <exports>  (607) 
['/opt/xchem-fragalysis-2/maxwin/openbind-hippo/xx01zvns2b/cycle_01/syndirella/elabs/openbind_xx01zvns2b_c1_elab_chemspace_filtered.sdf']

>  <Energy>  (607) 
nan

>  <alias>  (607) 
None

>  <fragmenstein_runtime>  (607) 
nan

>  <scratch_subdir>  (607) 
nan

>  <HIPPO Compound ID>  (607) 
146973

>  <rmsd(smina/fragmenstein)>  (607) 
2.084

>  <distance_score>  (607) 
1.514967

>  <orig_smiles>  (607) 
nan

>  <fragmenstein_mode>  (607) 
nan

>  <inchikey>  (607) 
XSKKYFRZZUMIDM-OAHLLOKOSA-N

>  <ref_pdb>  (607) 
Z4245a

>  <GNINA pK>  (607) 
nan

>  <gnina_score_min>  (607) 
5.148

>  <tags>  (607) 
openbind_xx01zvns2b_c1_elab_nonasap_filtered_scored_top80percent,openbind_xx01zvns2b_c1_elab_chemspace_filtered_scored_top80percent,openbind_xx01zvns2b_c1_elab_chemspace_filtered_scored,openbind_xx01zvns2b_c1_elab_chemspace_filtered_scored_top40percent,openbind_xx01zvns2b_c1_elab_chemspace_filtered_scored_top20percent,openbind_xx01zvns2b_c1_elab_chemspace_filtered_scored_top60percent,openbind_xx01zvns2b_c1_elabs_filtered

>  <smiles>  (607) 
C[C@@H](NC(=O)Cn1c(=O)n(C2=CCCCC2)c2ccccc21)C(C)(C)CO

>  <subsites>  (607) 
1 - Z4590/B/203/1

>  <gnina_score>  (607) 
5.778

>  <HIPPO Pose ID>  (607) 
74005

>  <ref_mols>  (607) 
Z0101a,Z4245a

>  <energy_score>  (607) 
-6.444393

>  <inspiration_score>  (607) 
None

>  <smina_score_min>  (607) 
-5.761

>  <fragmenstein_error>  (607) 
nan

>  <name>  (607) 
P74005

$$$$
P74008
     RDKit          3D

 27 29  0  0  0  0  0  0  0  0999 V2000
   -5.6105    6.6521  -23.6630 C   0  0  0  0  0  0  0  0  0  0  0  0
   -4.2994    6.1499  -23.8372 O   0  0  0  0  0  0  0  0  0  0  0  0
   -3.7516    5.4351  -22.7237 C   0  0  0  0  0  0  0  0  0  0  0  0
   -3.1622    6.3634  -21.6452 C   0  0  1  0  0  0  0  0  0  0  0  0
   -2.2179    5.5452  -20.7608 C   0  0  0  0  0  0  0  0  0  0  0  0
   -2.3456    7.3485  -22.3161 O   0  0  0  0  0  0  0  0  0  0  0  0
   -4.2126    7.1306  -20.8254 C   0  0  0  0  0  0  0  0  0  0  0  0
   -5.3104    6.3153  -20.3948 N   0  0  0  0  0  0  0  0  0  0  0  0
   -6.4081    6.5855  -19.3439 C   0  0  0  0  0  0  0  0  0  0  0  0
   -6.6364    7.5426  -18.7200 O   0  0  0  0  0  0  0  0  0  0  0  0
   -7.1695    5.1944  -19.1655 C   0  0  0  0  0  0  0  0  0  0  0  0
   -6.6100    4.5092  -18.0547 N   0  0  0  0  0  0  0  0  0  0  0  0
   -5.2101    4.5694  -17.9785 C   0  0  0  0  0  0  0  0  0  0  0  0
   -4.5085    4.4231  -18.9707 O   0  0  0  0  0  0  0  0  0  0  0  0
   -4.8774    4.9403  -16.6378 N   0  0  0  0  0  0  0  0  0  0  0  0
   -3.6436    5.4701  -16.2491 C   0  0  0  0  0  0  0  0  0  0  0  0
   -2.5483    5.4297  -17.0349 C   0  0  0  0  0  0  0  0  0  0  0  0
   -1.2322    6.0920  -16.7365 C   0  0  0  0  0  0  0  0  0  0  0  0
   -1.0873    6.5164  -15.2819 C   0  0  0  0  0  0  0  0  0  0  0  0
   -2.3677    7.1801  -14.8051 C   0  0  0  0  0  0  0  0  0  0  0  0
   -3.5585    6.2236  -14.9323 C   0  0  0  0  0  0  0  0  0  0  0  0
   -6.0945    4.8395  -15.8989 C   0  0  0  0  0  0  0  0  0  0  0  0
   -6.3549    4.8865  -14.5470 C   0  0  0  0  0  0  0  0  0  0  0  0
   -7.6671    4.6626  -14.1174 C   0  0  0  0  0  0  0  0  0  0  0  0
   -8.6960    4.4095  -15.0359 C   0  0  0  0  0  0  0  0  0  0  0  0
   -8.4494    4.3946  -16.4005 C   0  0  0  0  0  0  0  0  0  0  0  0
   -7.1410    4.5975  -16.7845 C   0  0  0  0  0  0  0  0  0  0  0  0
  1  2  1  0
  2  3  1  0
  3  4  1  0
  4  5  1  1
  4  6  1  0
  4  7  1  0
  7  8  1  0
  8  9  1  0
  9 10  2  0
  9 11  1  0
 11 12  1  0
 12 13  1  0
 13 14  2  0
 13 15  1  0
 15 16  1  0
 16 17  2  0
 17 18  1  0
 18 19  1  0
 19 20  1  0
 20 21  1  0
 15 22  1  0
 22 23  2  0
 23 24  1  0
 24 25  2  0
 25 26  1  0
 26 27  2  0
 27 12  1  0
 21 16  1  0
 27 22  1  0
M  END
>  <fragmenstein_outcome>  (608) 
nan

>  <exports>  (608) 
['/opt/xchem-fragalysis-2/maxwin/openbind-hippo/xx01zvns2b/cycle_01/syndirella/elabs/openbind_xx01zvns2b_c1_elab_chemspace_filtered.sdf']

>  <Energy>  (608) 
nan

>  <alias>  (608) 
None

>  <fragmenstein_runtime>  (608) 
nan

>  <scratch_subdir>  (608) 
nan

>  <HIPPO Compound ID>  (608) 
146976

>  <rmsd(smina/fragmenstein)>  (608) 
1.134

>  <distance_score>  (608) 
1.543593

>  <orig_smiles>  (608) 
nan

>  <fragmenstein_mode>  (608) 
nan

>  <inchikey>  (608) 
ZUHVGMIDMOAHBD-FQEVSTJZSA-N

>  <ref_pdb>  (608) 
Z4245a

>  <GNINA pK>  (608) 
nan

>  <gnina_score_min>  (608) 
5.17

>  <tags>  (608) 
openbind_xx01zvns2b_c1_elab_nonasap_filtered_scored_top80percent,openbind_xx01zvns2b_c1_elab_chemspace_filtered_scored_top80percent,openbind_xx01zvns2b_c1_elab_chemspace_filtered_scored,openbind_xx01zvns2b_c1_elab_chemspace_filtered_scored_top40percent,openbind_xx01zvns2b_c1_elab_chemspace_filtered_scored_top20percent,openbind_xx01zvns2b_c1_elab_chemspace_filtered_scored_top60percent,openbind_xx01zvns2b_c1_elabs_filtered

>  <smiles>  (608) 
COC[C@@](C)(O)CNC(=O)Cn1c(=O)n(C2=CCCCC2)c2ccccc21

>  <subsites>  (608) 
1 - Z4590/B/203/1

>  <gnina_score>  (608) 
5.41

>  <HIPPO Pose ID>  (608) 
74008

>  <ref_mols>  (608) 
Z0101a,Z4245a

>  <energy_score>  (608) 
-20.494167

>  <inspiration_score>  (608) 
None

>  <smina_score_min>  (608) 
-4.579

>  <fragmenstein_error>  (608) 
nan

>  <name>  (608) 
P74008

$$$$
P74011
     RDKit          3D

 27 29  0  0  0  0  0  0  0  0999 V2000
   -2.3848    7.0753  -19.4685 C   0  0  0  0  0  0  0  0  0  0  0  0
   -2.3987    6.3150  -20.7933 C   0  0  0  0  0  0  0  0  0  0  0  0
   -2.1403    4.8221  -20.6252 C   0  0  0  0  0  0  0  0  0  0  0  0
   -3.5942    6.6959  -21.7111 C   0  0  1  0  0  0  0  0  0  0  0  0
   -3.7507    5.7591  -22.9094 C   0  0  0  0  0  0  0  0  0  0  0  0
   -4.9515    6.0359  -23.6216 O   0  0  0  0  0  0  0  0  0  0  0  0
   -4.9222    7.1170  -21.0661 C   0  0  0  0  0  0  0  0  0  0  0  0
   -5.6802    6.1175  -20.3800 N   0  0  0  0  0  0  0  0  0  0  0  0
   -6.0263    4.6532  -20.7868 C   0  0  0  0  0  0  0  0  0  0  0  0
   -5.8085    4.0700  -21.7786 O   0  0  0  0  0  0  0  0  0  0  0  0
   -6.8727    4.0086  -19.6573 C   0  0  0  0  0  0  0  0  0  0  0  0
   -6.5376    4.5294  -18.3682 N   0  0  0  0  0  0  0  0  0  0  0  0
   -5.2101    4.6714  -17.9425 C   0  0  0  0  0  0  0  0  0  0  0  0
   -4.2587    4.5198  -18.6878 O   0  0  0  0  0  0  0  0  0  0  0  0
   -5.2326    5.0851  -16.5832 N   0  0  0  0  0  0  0  0  0  0  0  0
   -4.1473    5.6150  -15.8840 C   0  0  0  0  0  0  0  0  0  0  0  0
   -2.8696    5.5034  -16.3012 C   0  0  0  0  0  0  0  0  0  0  0  0
   -1.6785    6.1423  -15.6407 C   0  0  0  0  0  0  0  0  0  0  0  0
   -1.9746    6.7536  -14.2770 C   0  0  0  0  0  0  0  0  0  0  0  0
   -3.3256    7.4475  -14.2893 C   0  0  0  0  0  0  0  0  0  0  0  0
   -4.4293    6.4471  -14.6435 C   0  0  0  0  0  0  0  0  0  0  0  0
   -6.5637    4.8623  -16.1464 C   0  0  0  0  0  0  0  0  0  0  0  0
   -7.0888    4.8303  -14.8728 C   0  0  0  0  0  0  0  0  0  0  0  0
   -8.4072    4.4148  -14.7278 C   0  0  0  0  0  0  0  0  0  0  0  0
   -9.1660    4.0521  -15.8496 C   0  0  0  0  0  0  0  0  0  0  0  0
   -8.6539    4.1004  -17.1367 C   0  0  0  0  0  0  0  0  0  0  0  0
   -7.3460    4.4962  -17.2467 C   0  0  0  0  0  0  0  0  0  0  0  0
  1  2  1  0
  2  3  1  0
  2  4  1  0
  4  5  1  6
  5  6  1  0
  4  7  1  0
  7  8  1  0
  8  9  1  0
  9 10  2  0
  9 11  1  0
 11 12  1  0
 12 13  1  0
 13 14  2  0
 13 15  1  0
 15 16  1  0
 16 17  2  0
 17 18  1  0
 18 19  1  0
 19 20  1  0
 20 21  1  0
 15 22  1  0
 22 23  2  0
 23 24  1  0
 24 25  2  0
 25 26  1  0
 26 27  2  0
 27 12  1  0
 21 16  1  0
 27 22  1  0
M  END
>  <fragmenstein_outcome>  (609) 
nan

>  <exports>  (609) 
['/opt/xchem-fragalysis-2/maxwin/openbind-hippo/xx01zvns2b/cycle_01/syndirella/elabs/openbind_xx01zvns2b_c1_elab_chemspace_filtered.sdf']

>  <Energy>  (609) 
nan

>  <alias>  (609) 
None

>  <fragmenstein_runtime>  (609) 
nan

>  <scratch_subdir>  (609) 
nan

>  <HIPPO Compound ID>  (609) 
146980

>  <rmsd(smina/fragmenstein)>  (609) 
2.311

>  <distance_score>  (609) 
1.494982

>  <orig_smiles>  (609) 
nan

>  <fragmenstein_mode>  (609) 
nan

>  <inchikey>  (609) 
ZJPYQOFAJONAOG-MRXNPFEDSA-N

>  <ref_pdb>  (609) 
Z4245a

>  <GNINA pK>  (609) 
nan

>  <gnina_score_min>  (609) 
5.205

>  <tags>  (609) 
openbind_xx01zvns2b_c1_elab_nonasap_filtered_scored_top80percent,openbind_xx01zvns2b_c1_elab_chemspace_filtered_scored_top80percent,openbind_xx01zvns2b_c1_elab_chemspace_filtered_scored,openbind_xx01zvns2b_c1_elab_chemspace_filtered_scored_top40percent,openbind_xx01zvns2b_c1_elab_chemspace_filtered_scored_top20percent,openbind_xx01zvns2b_c1_elab_chemspace_filtered_scored_top60percent,openbind_xx01zvns2b_c1_elabs_filtered

>  <smiles>  (609) 
CC(C)[C@@H](CO)CNC(=O)Cn1c(=O)n(C2=CCCCC2)c2ccccc21

>  <subsites>  (609) 
1 - Z4590/B/203/1

>  <gnina_score>  (609) 
5.659

>  <HIPPO Pose ID>  (609) 
74011

>  <ref_mols>  (609) 
Z0101a,Z4245a

>  <energy_score>  (609) 
-7.065731

>  <inspiration_score>  (609) 
None

>  <smina_score_min>  (609) 
-5.422

>  <fragmenstein_error>  (609) 
nan

>  <name>  (609) 
P74011

$$$$
P74013
     RDKit          3D

 27 30  0  0  0  0  0  0  0  0999 V2000
   -3.0230    7.1391  -21.3811 C   0  0  0  0  0  0  0  0  0  0  0  0
   -3.5865    6.1192  -22.3722 C   0  0  1  0  0  0  0  0  0  0  0  0
   -4.5879    5.3188  -21.7131 N   0  0  0  0  0  0  0  0  0  0  0  0
   -5.7130    5.7272  -20.7102 C   0  0  0  0  0  0  0  0  0  0  0  0
   -6.0430    6.7856  -20.3299 O   0  0  0  0  0  0  0  0  0  0  0  0
   -6.3199    4.3825  -20.1617 C   0  0  0  0  0  0  0  0  0  0  0  0
   -6.1671    4.4820  -18.7585 N   0  0  0  0  0  0  0  0  0  0  0  0
   -4.9045    4.7359  -18.2384 C   0  0  0  0  0  0  0  0  0  0  0  0
   -3.8999    4.6837  -18.9364 O   0  0  0  0  0  0  0  0  0  0  0  0
   -5.0640    5.0588  -16.8587 N   0  0  0  0  0  0  0  0  0  0  0  0
   -4.0258    5.5565  -16.0670 C   0  0  0  0  0  0  0  0  0  0  0  0
   -4.1925    6.0197  -14.8120 C   0  0  0  0  0  0  0  0  0  0  0  0
   -3.0862    6.4733  -13.9031 C   0  0  0  0  0  0  0  0  0  0  0  0
   -1.7090    6.0326  -14.3794 C   0  0  0  0  0  0  0  0  0  0  0  0
   -1.5578    6.3350  -15.8582 C   0  0  0  0  0  0  0  0  0  0  0  0
   -2.6359    5.6322  -16.6908 C   0  0  0  0  0  0  0  0  0  0  0  0
   -6.4344    4.7785  -16.5554 C   0  0  0  0  0  0  0  0  0  0  0  0
   -7.1104    4.6994  -15.3540 C   0  0  0  0  0  0  0  0  0  0  0  0
   -8.4697    4.3756  -15.3767 C   0  0  0  0  0  0  0  0  0  0  0  0
   -9.1326    4.1348  -16.5898 C   0  0  0  0  0  0  0  0  0  0  0  0
   -8.4494    4.1711  -17.8009 C   0  0  0  0  0  0  0  0  0  0  0  0
   -7.1066    4.4725  -17.7466 C   0  0  0  0  0  0  0  0  0  0  0  0
   -4.1596    6.7082  -23.6567 C   0  0  2  0  0  0  0  0  0  0  0  0
   -3.2870    7.6989  -24.4024 C   0  0  0  0  0  0  0  0  0  0  0  0
   -4.2833    8.3196  -25.3606 C   0  0  0  0  0  0  0  0  0  0  0  0
   -5.5514    8.3245  -24.6906 O   0  0  0  0  0  0  0  0  0  0  0  0
   -5.4486    7.4989  -23.5139 C   0  0  0  0  0  0  0  0  0  0  0  0
  2  1  1  1
  2  3  1  0
  3  4  1  0
  4  5  2  0
  4  6  1  0
  6  7  1  0
  7  8  1  0
  8  9  2  0
  8 10  1  0
 10 11  1  0
 11 12  2  0
 12 13  1  0
 13 14  1  0
 14 15  1  0
 15 16  1  0
 10 17  1  0
 17 18  2  0
 18 19  1  0
 19 20  2  0
 20 21  1  0
 21 22  2  0
  2 23  1  0
 23 24  1  1
 24 25  1  0
 25 26  1  0
 26 27  1  0
 22  7  1  0
 27 23  1  0
 16 11  1  0
 22 17  1  0
M  END
>  <fragmenstein_outcome>  (610) 
nan

>  <exports>  (610) 
['/opt/xchem-fragalysis-2/maxwin/openbind-hippo/xx01zvns2b/cycle_01/syndirella/elabs/openbind_xx01zvns2b_c1_elab_chemspace_filtered.sdf']

>  <Energy>  (610) 
nan

>  <alias>  (610) 
None

>  <fragmenstein_runtime>  (610) 
nan

>  <scratch_subdir>  (610) 
nan

>  <HIPPO Compound ID>  (610) 
146992

>  <rmsd(smina/fragmenstein)>  (610) 
2.275

>  <distance_score>  (610) 
1.664131

>  <orig_smiles>  (610) 
nan

>  <fragmenstein_mode>  (610) 
nan

>  <inchikey>  (610) 
SRBXBKBCTIUWIU-HZPDHXFCSA-N

>  <ref_pdb>  (610) 
Z4245a

>  <GNINA pK>  (610) 
nan

>  <gnina_score_min>  (610) 
5.405

>  <tags>  (610) 
openbind_xx01zvns2b_c1_elab_nonasap_filtered_scored_top80percent,openbind_xx01zvns2b_c1_elab_chemspace_filtered_scored_top80percent,openbind_xx01zvns2b_c1_elab_chemspace_filtered_scored,openbind_xx01zvns2b_c1_elab_chemspace_filtered_scored_top40percent,openbind_xx01zvns2b_c1_elab_chemspace_filtered_scored_top20percent,openbind_xx01zvns2b_c1_elab_chemspace_filtered_scored_top60percent,openbind_xx01zvns2b_c1_elabs_filtered

>  <smiles>  (610) 
C[C@@H](NC(=O)Cn1c(=O)n(C2=CCCCC2)c2ccccc21)[C@@H]1CCOC1

>  <subsites>  (610) 
1 - Z4590/B/203/1

>  <gnina_score>  (610) 
5.685

>  <HIPPO Pose ID>  (610) 
74013

>  <ref_mols>  (610) 
Z0101a,Z4245a

>  <energy_score>  (610) 
-21.592127

>  <inspiration_score>  (610) 
None

>  <smina_score_min>  (610) 
-5.707

>  <fragmenstein_error>  (610) 
nan

>  <name>  (610) 
P74013

$$$$
P74019
     RDKit          3D

 27 30  0  0  0  0  0  0  0  0999 V2000
   -5.4225    7.0510  -23.8011 C   0  0  0  0  0  0  0  0  0  0  0  0
   -4.9643    5.8815  -23.1309 O   0  0  0  0  0  0  0  0  0  0  0  0
   -3.5377    5.7377  -23.1946 C   0  0  0  0  0  0  0  0  0  0  0  0
   -2.8519    6.5853  -22.1275 C   0  0  2  0  0  0  0  0  0  0  0  0
   -1.3593    6.2583  -21.9033 C   0  0  0  0  0  0  0  0  0  0  0  0
   -1.7876    5.3146  -20.7636 C   0  0  0  0  0  0  0  0  0  0  0  0
   -3.0653    6.1549  -20.6636 C   0  0  2  0  0  0  0  0  0  0  0  0
   -4.2902    5.4317  -20.4868 N   0  0  0  0  0  0  0  0  0  0  0  0
   -4.7737    4.5534  -19.3172 C   0  0  0  0  0  0  0  0  0  0  0  0
   -4.2229    4.2173  -18.3491 O   0  0  0  0  0  0  0  0  0  0  0  0
   -6.2922    4.2468  -19.6219 C   0  0  0  0  0  0  0  0  0  0  0  0
   -7.0998    5.1547  -18.8265 N   0  0  0  0  0  0  0  0  0  0  0  0
   -6.4331    6.4177  -18.7572 C   0  0  0  0  0  0  0  0  0  0  0  0
   -6.1897    7.1168  -19.7329 O   0  0  0  0  0  0  0  0  0  0  0  0
   -5.9429    6.5434  -17.4076 N   0  0  0  0  0  0  0  0  0  0  0  0
   -4.9425    7.4295  -17.0286 C   0  0  0  0  0  0  0  0  0  0  0  0
   -4.1195    7.1920  -15.9881 C   0  0  0  0  0  0  0  0  0  0  0  0
   -3.0079    8.1005  -15.5498 C   0  0  0  0  0  0  0  0  0  0  0  0
   -2.6899    9.2063  -16.5523 C   0  0  0  0  0  0  0  0  0  0  0  0
   -3.9681    9.7879  -17.1379 C   0  0  0  0  0  0  0  0  0  0  0  0
   -4.7825    8.6999  -17.8431 C   0  0  0  0  0  0  0  0  0  0  0  0
   -6.6156    5.5586  -16.6417 C   0  0  0  0  0  0  0  0  0  0  0  0
   -6.7442    5.4141  -15.2749 C   0  0  0  0  0  0  0  0  0  0  0  0
   -7.6873    4.4985  -14.8095 C   0  0  0  0  0  0  0  0  0  0  0  0
   -8.4683    3.7570  -15.7114 C   0  0  0  0  0  0  0  0  0  0  0  0
   -8.2947    3.8603  -17.0859 C   0  0  0  0  0  0  0  0  0  0  0  0
   -7.3519    4.7643  -17.5097 C   0  0  0  0  0  0  0  0  0  0  0  0
  1  2  1  0
  2  3  1  0
  4  3  1  6
  4  5  1  0
  5  6  1  0
  6  7  1  0
  7  8  1  6
  8  9  1  0
  9 10  2  0
  9 11  1  0
 11 12  1  0
 12 13  1  0
 13 14  2  0
 13 15  1  0
 15 16  1  0
 16 17  2  0
 17 18  1  0
 18 19  1  0
 19 20  1  0
 20 21  1  0
 15 22  1  0
 22 23  2  0
 23 24  1  0
 24 25  2  0
 25 26  1  0
 26 27  2  0
  7  4  1  0
 27 12  1  0
 21 16  1  0
 27 22  1  0
M  END
>  <fragmenstein_outcome>  (611) 
nan

>  <exports>  (611) 
['/opt/xchem-fragalysis-2/maxwin/openbind-hippo/xx01zvns2b/cycle_01/syndirella/elabs/openbind_xx01zvns2b_c1_elab_chemspace_filtered.sdf']

>  <Energy>  (611) 
nan

>  <alias>  (611) 
None

>  <fragmenstein_runtime>  (611) 
nan

>  <scratch_subdir>  (611) 
nan

>  <HIPPO Compound ID>  (611) 
146995

>  <rmsd(smina/fragmenstein)>  (611) 
0.835

>  <distance_score>  (611) 
1.671865

>  <orig_smiles>  (611) 
nan

>  <fragmenstein_mode>  (611) 
nan

>  <inchikey>  (611) 
FDLZRROYBVZGSA-RDJZCZTQSA-N

>  <ref_pdb>  (611) 
Z4245a

>  <GNINA pK>  (611) 
nan

>  <gnina_score_min>  (611) 
5.416

>  <tags>  (611) 
openbind_xx01zvns2b_c1_elab_nonasap_filtered_scored_top80percent,openbind_xx01zvns2b_c1_elab_chemspace_filtered_scored_top80percent,openbind_xx01zvns2b_c1_elab_chemspace_filtered_scored,openbind_xx01zvns2b_c1_elab_chemspace_filtered_scored_top40percent,openbind_xx01zvns2b_c1_elab_chemspace_filtered_scored_top20percent,openbind_xx01zvns2b_c1_elab_chemspace_filtered_scored_top60percent,openbind_xx01zvns2b_c1_elabs_filtered

>  <smiles>  (611) 
COC[C@@H]1CC[C@@H]1NC(=O)Cn1c(=O)n(C2=CCCCC2)c2ccccc21

>  <subsites>  (611) 
1 - Z4590/B/203/1

>  <gnina_score>  (611) 
5.397

>  <HIPPO Pose ID>  (611) 
74019

>  <ref_mols>  (611) 
Z0101a,Z4245a

>  <energy_score>  (611) 
-30.709291

>  <inspiration_score>  (611) 
None

>  <smina_score_min>  (611) 
-5.199

>  <fragmenstein_error>  (611) 
nan

>  <name>  (611) 
P74019

$$$$
P74116
     RDKit          3D

 22 25  0  0  0  0  0  0  0  0999 V2000
   -5.3555    6.3599  -11.6297 C   0  0  0  0  0  0  0  0  0  0  0  0
   -5.5300    6.3029  -13.1395 C   0  0  0  0  0  0  0  0  0  0  0  0
   -6.2389    7.5817  -13.6112 C   0  0  0  0  0  0  0  0  0  0  0  0
   -6.1880    4.9860  -13.6322 C   0  0  1  0  0  0  0  0  0  0  0  0
   -7.5374    4.8643  -12.8680 C   0  0  0  0  0  0  0  0  0  0  0  0
   -8.5144    5.4182  -13.2112 O   0  0  0  0  0  0  0  0  0  0  0  0
   -7.2567    3.9908  -11.5856 N   0  0  0  0  0  0  0  0  0  0  0  0
   -8.0797    3.7174  -10.4565 C   0  0  1  0  0  0  0  0  0  0  0  0
   -9.0829    2.6006  -10.5602 C   0  0  0  0  0  0  0  0  0  0  0  0
   -9.5501    2.3423   -9.2261 O   0  0  0  0  0  0  0  0  0  0  0  0
   -8.4009    2.5236   -8.3908 C   0  0  0  0  0  0  0  0  0  0  0  0
   -7.5944    3.6008   -9.0567 C   0  0  2  0  0  0  0  0  0  0  0  0
   -8.2720    4.8632   -9.4713 C   0  0  0  0  0  0  0  0  0  0  0  0
   -6.1687    4.9500  -15.1110 N   0  0  0  0  0  0  0  0  0  0  0  0
   -5.0180    5.1970  -15.8467 C   0  0  0  0  0  0  0  0  0  0  0  0
   -5.2244    5.1933  -17.1380 N   0  0  0  0  0  0  0  0  0  0  0  0
   -6.5346    4.8276  -17.2636 C   0  0  0  0  0  0  0  0  0  0  0  0
   -7.2579    4.6086  -18.4357 C   0  0  0  0  0  0  0  0  0  0  0  0
   -8.5984    4.2489  -18.3311 C   0  0  0  0  0  0  0  0  0  0  0  0
   -9.2054    4.0944  -17.0956 C   0  0  0  0  0  0  0  0  0  0  0  0
   -8.4868    4.2615  -15.9153 C   0  0  0  0  0  0  0  0  0  0  0  0
   -7.1519    4.6577  -16.0186 C   0  0  0  0  0  0  0  0  0  0  0  0
  1  2  1  0
  2  3  1  0
  4  2  1  6
  4  5  1  0
  5  6  2  0
  5  7  1  0
  8  7  1  6
  8  9  1  0
  9 10  1  0
 10 11  1  0
 12 11  1  1
 12 13  1  0
  4 14  1  0
 14 15  1  0
 15 16  2  0
 16 17  1  0
 17 18  2  0
 18 19  1  0
 19 20  2  0
 20 21  1  0
 21 22  2  0
 12  8  1  0
 22 14  1  0
 13  8  1  0
 22 17  1  0
M  END
>  <fragmenstein_outcome>  (612) 
nan

>  <exports>  (612) 
['/opt/xchem-fragalysis-2/maxwin/openbind-hippo/xx01zvns2b/cycle_01/syndirella/elabs/openbind_xx01zvns2b_c1_elab_chemspace_filtered.sdf']

>  <Energy>  (612) 
nan

>  <alias>  (612) 
None

>  <fragmenstein_runtime>  (612) 
nan

>  <scratch_subdir>  (612) 
nan

>  <HIPPO Compound ID>  (612) 
147183

>  <rmsd(smina/fragmenstein)>  (612) 
0.294

>  <distance_score>  (612) 
1.614088

>  <orig_smiles>  (612) 
nan

>  <fragmenstein_mode>  (612) 
nan

>  <inchikey>  (612) 
PEMGNADLINHTMB-NUTKFTJISA-N

>  <ref_pdb>  (612) 
Z3880a

>  <GNINA pK>  (612) 
nan

>  <gnina_score_min>  (612) 
5.292

>  <tags>  (612) 
openbind_xx01zvns2b_c1_elab_nonasap_filtered_scored_top80percent,openbind_xx01zvns2b_c1_elab_chemspace_filtered_scored_top80percent,openbind_xx01zvns2b_c1_elab_chemspace_filtered_scored,openbind_xx01zvns2b_c1_elab_chemspace_filtered_scored_top40percent,openbind_xx01zvns2b_c1_elab_chemspace_filtered_scored_top20percent,openbind_xx01zvns2b_c1_elab_chemspace_filtered_scored_top60percent,openbind_xx01zvns2b_c1_elabs_filtered

>  <smiles>  (612) 
CC(C)[C@@H](C(=O)N[C@@]12COC[C@@H]1C2)n1cnc2ccccc21

>  <subsites>  (612) 
1 - Z4590/B/203/1

>  <gnina_score>  (612) 
5.245

>  <HIPPO Pose ID>  (612) 
74116

>  <ref_mols>  (612) 
Z0101a,Z3880a

>  <energy_score>  (612) 
-7.180935

>  <inspiration_score>  (612) 
None

>  <smina_score_min>  (612) 
-5.687

>  <fragmenstein_error>  (612) 
nan

>  <name>  (612) 
P74116

$$$$
P74126
     RDKit          3D

 22 24  0  0  0  0  0  0  0  0999 V2000
   -5.8897    6.9445  -12.6513 C   0  0  0  0  0  0  0  0  0  0  0  0
   -5.3336    5.5207  -12.6809 C   0  0  0  0  0  0  0  0  0  0  0  0
   -4.9303    5.0795  -11.2717 C   0  0  0  0  0  0  0  0  0  0  0  0
   -6.2676    4.5328  -13.4315 C   0  0  1  0  0  0  0  0  0  0  0  0
   -7.6511    4.5815  -12.6980 C   0  0  0  0  0  0  0  0  0  0  0  0
   -8.4870    5.3496  -13.0026 O   0  0  0  0  0  0  0  0  0  0  0  0
   -7.6030    3.5429  -11.5129 N   0  0  0  0  0  0  0  0  0  0  0  0
   -8.5530    3.3125  -10.3953 C   0  0  1  0  0  0  0  0  0  0  0  0
   -8.0761    2.4210   -9.2031 C   0  0  2  0  0  0  0  0  0  0  0  0
   -9.1584    1.7653   -8.3440 C   0  0  0  0  0  0  0  0  0  0  0  0
   -7.5335    3.7077   -8.5337 C   0  0  0  0  0  0  0  0  0  0  0  0
   -8.5529    4.4968   -9.3662 C   0  0  1  0  0  0  0  0  0  0  0  0
   -8.1312    5.7908   -9.8317 O   0  0  0  0  0  0  0  0  0  0  0  0
   -6.2428    4.8136  -14.8999 N   0  0  0  0  0  0  0  0  0  0  0  0
   -5.1007    5.1571  -15.6125 C   0  0  0  0  0  0  0  0  0  0  0  0
   -5.2977    5.2550  -16.9036 N   0  0  0  0  0  0  0  0  0  0  0  0
   -6.5964    4.8783  -17.0724 C   0  0  0  0  0  0  0  0  0  0  0  0
   -7.3006    4.7269  -18.2696 C   0  0  0  0  0  0  0  0  0  0  0  0
   -8.6368    4.3449  -18.2104 C   0  0  0  0  0  0  0  0  0  0  0  0
   -9.2585    4.1231  -16.9918 C   0  0  0  0  0  0  0  0  0  0  0  0
   -8.5608    4.2288  -15.7894 C   0  0  0  0  0  0  0  0  0  0  0  0
   -7.2224    4.6182  -15.8476 C   0  0  0  0  0  0  0  0  0  0  0  0
  1  2  1  0
  2  3  1  0
  4  2  1  1
  4  5  1  0
  5  6  2  0
  5  7  1  0
  8  7  1  6
  8  9  1  0
  9 10  1  1
  9 11  1  0
 11 12  1  0
 12 13  1  6
  4 14  1  0
 14 15  1  0
 15 16  2  0
 16 17  1  0
 17 18  2  0
 18 19  1  0
 19 20  2  0
 20 21  1  0
 21 22  2  0
 12  8  1  0
 22 14  1  0
 22 17  1  0
M  END
>  <fragmenstein_outcome>  (613) 
nan

>  <exports>  (613) 
['/opt/xchem-fragalysis-2/maxwin/openbind-hippo/xx01zvns2b/cycle_01/syndirella/elabs/openbind_xx01zvns2b_c1_elab_chemspace_filtered.sdf']

>  <Energy>  (613) 
nan

>  <alias>  (613) 
None

>  <fragmenstein_runtime>  (613) 
nan

>  <scratch_subdir>  (613) 
nan

>  <HIPPO Compound ID>  (613) 
147189

>  <rmsd(smina/fragmenstein)>  (613) 
0.389

>  <distance_score>  (613) 
1.41546

>  <orig_smiles>  (613) 
nan

>  <fragmenstein_mode>  (613) 
nan

>  <inchikey>  (613) 
HAHFBBIETPGFOX-FWYOQMDTSA-N

>  <ref_pdb>  (613) 
Z3880a

>  <GNINA pK>  (613) 
nan

>  <gnina_score_min>  (613) 
5.223

>  <tags>  (613) 
openbind_xx01zvns2b_c1_elab_nonasap_filtered_scored_top80percent,openbind_xx01zvns2b_c1_elab_chemspace_filtered_scored_top80percent,openbind_xx01zvns2b_c1_elab_chemspace_filtered_scored,openbind_xx01zvns2b_c1_elab_chemspace_filtered_scored_top40percent,openbind_xx01zvns2b_c1_elab_chemspace_filtered_scored_top20percent,openbind_xx01zvns2b_c1_elab_chemspace_filtered_scored_top60percent,openbind_xx01zvns2b_c1_elabs_filtered

>  <smiles>  (613) 
CC(C)[C@@H](C(=O)N[C@H]1[C@H](C)C[C@H]1O)n1cnc2ccccc21

>  <subsites>  (613) 
1 - Z4590/B/203/1

>  <gnina_score>  (613) 
5.076

>  <HIPPO Pose ID>  (613) 
74126

>  <ref_mols>  (613) 
Z0101a,Z3880a

>  <energy_score>  (613) 
-5.664692

>  <inspiration_score>  (613) 
None

>  <smina_score_min>  (613) 
-6.028

>  <fragmenstein_error>  (613) 
nan

>  <name>  (613) 
P74126

$$$$
P74151
     RDKit          3D

 22 24  0  0  0  0  0  0  0  0999 V2000
   -3.1531    6.8534  -15.4646 C   0  0  0  0  0  0  0  0  0  0  0  0
   -3.7284    5.5127  -15.0312 C   0  0  0  0  0  0  0  0  0  0  0  0
   -5.0573    5.2515  -15.6713 C   0  0  0  0  0  0  0  0  0  0  0  0
   -5.2252    5.2105  -16.9761 N   0  0  0  0  0  0  0  0  0  0  0  0
   -6.5222    4.8370  -17.1655 C   0  0  0  0  0  0  0  0  0  0  0  0
   -7.1856    4.5993  -18.3722 C   0  0  0  0  0  0  0  0  0  0  0  0
   -8.5266    4.2278  -18.3333 C   0  0  0  0  0  0  0  0  0  0  0  0
   -9.1955    4.1000  -17.1285 C   0  0  0  0  0  0  0  0  0  0  0  0
   -8.5385    4.3025  -15.9174 C   0  0  0  0  0  0  0  0  0  0  0  0
   -7.1960    4.6882  -15.9517 C   0  0  0  0  0  0  0  0  0  0  0  0
   -6.2581    4.9927  -14.9927 N   0  0  0  0  0  0  0  0  0  0  0  0
   -6.4237    5.1377  -13.5326 C   0  0  1  0  0  0  0  0  0  0  0  0
   -6.3811    6.6215  -13.1718 C   0  0  0  0  0  0  0  0  0  0  0  0
   -7.7066    4.6372  -12.8150 C   0  0  0  0  0  0  0  0  0  0  0  0
   -8.7654    5.0840  -13.0465 O   0  0  0  0  0  0  0  0  0  0  0  0
   -7.2627    3.5858  -11.7443 N   0  0  0  0  0  0  0  0  0  0  0  0
   -8.0359    2.9312  -10.6569 C   0  0  1  0  0  0  0  0  0  0  0  0
   -7.1254    2.0336   -9.7816 C   0  0  0  0  0  0  0  0  0  0  0  0
   -6.8181    3.2021   -8.9431 O   0  0  0  0  0  0  0  0  0  0  0  0
   -8.1239    3.7589   -9.3095 C   0  0  0  0  0  0  0  0  0  0  0  0
   -9.1521    3.3163   -8.2618 C   0  0  0  0  0  0  0  0  0  0  0  0
   -8.0243    5.2747   -9.4098 C   0  0  0  0  0  0  0  0  0  0  0  0
  1  2  1  0
  2  3  1  0
  3  4  2  0
  4  5  1  0
  5  6  2  0
  6  7  1  0
  7  8  2  0
  8  9  1  0
  9 10  2  0
 10 11  1  0
 11 12  1  0
 12 13  1  6
 12 14  1  0
 14 15  2  0
 14 16  1  0
 17 16  1  6
 17 18  1  0
 18 19  1  0
 19 20  1  0
 20 21  1  0
 20 22  1  0
 11  3  1  0
 20 17  1  0
 10  5  1  0
M  END
>  <fragmenstein_outcome>  (614) 
nan

>  <exports>  (614) 
['/opt/xchem-fragalysis-2/maxwin/openbind-hippo/xx01zvns2b/cycle_01/syndirella/elabs/openbind_xx01zvns2b_c1_elab_chemspace_filtered.sdf']

>  <Energy>  (614) 
nan

>  <alias>  (614) 
None

>  <fragmenstein_runtime>  (614) 
nan

>  <scratch_subdir>  (614) 
nan

>  <HIPPO Compound ID>  (614) 
147214

>  <rmsd(smina/fragmenstein)>  (614) 
0.477

>  <distance_score>  (614) 
1.578719

>  <orig_smiles>  (614) 
nan

>  <fragmenstein_mode>  (614) 
nan

>  <inchikey>  (614) 
QAMQSBATQNJDDQ-FZMZJTMJSA-N

>  <ref_pdb>  (614) 
Z3880a

>  <GNINA pK>  (614) 
nan

>  <gnina_score_min>  (614) 
5.323

>  <tags>  (614) 
openbind_xx01zvns2b_c1_elab_nonasap_filtered_scored_top80percent,openbind_xx01zvns2b_c1_elab_chemspace_filtered_scored_top80percent,openbind_xx01zvns2b_c1_elab_chemspace_filtered_scored,openbind_xx01zvns2b_c1_elab_chemspace_filtered_scored_top40percent,openbind_xx01zvns2b_c1_elab_chemspace_filtered_scored_top20percent,openbind_xx01zvns2b_c1_elab_chemspace_filtered_scored_top60percent,openbind_xx01zvns2b_c1_elabs_filtered

>  <smiles>  (614) 
CCc1nc2ccccc2n1[C@@H](C)C(=O)N[C@H]1COC1(C)C

>  <subsites>  (614) 
1 - Z4590/B/203/1

>  <gnina_score>  (614) 
5.357

>  <HIPPO Pose ID>  (614) 
74151

>  <ref_mols>  (614) 
Z0101a,Z3880a

>  <energy_score>  (614) 
-10.976641

>  <inspiration_score>  (614) 
None

>  <smina_score_min>  (614) 
-6.204

>  <fragmenstein_error>  (614) 
nan

>  <name>  (614) 
P74151

$$$$
P74179
     RDKit          3D

 22 25  0  0  0  0  0  0  0  0999 V2000
   -3.7030    7.8156  -15.5781 C   0  0  0  0  0  0  0  0  0  0  0  0
   -4.1519    6.5831  -14.8051 C   0  0  0  0  0  0  0  0  0  0  0  0
   -5.2250    5.8296  -15.5224 C   0  0  0  0  0  0  0  0  0  0  0  0
   -5.3425    5.7518  -16.8368 N   0  0  0  0  0  0  0  0  0  0  0  0
   -6.5474    5.1446  -17.0646 C   0  0  0  0  0  0  0  0  0  0  0  0
   -7.1863    4.8464  -18.2707 C   0  0  0  0  0  0  0  0  0  0  0  0
   -8.4772    4.3145  -18.2218 C   0  0  0  0  0  0  0  0  0  0  0  0
   -9.1171    4.0886  -17.0083 C   0  0  0  0  0  0  0  0  0  0  0  0
   -8.4689    4.3118  -15.7967 C   0  0  0  0  0  0  0  0  0  0  0  0
   -7.1786    4.8378  -15.8660 C   0  0  0  0  0  0  0  0  0  0  0  0
   -6.2443    5.1277  -14.8946 N   0  0  0  0  0  0  0  0  0  0  0  0
   -6.2887    4.5129  -13.5564 C   0  0  1  0  0  0  0  0  0  0  0  0
   -4.9215    4.2094  -12.9761 C   0  0  0  0  0  0  0  0  0  0  0  0
   -7.1505    5.2519  -12.5218 C   0  0  0  0  0  0  0  0  0  0  0  0
   -7.5462    6.3480  -12.6764 O   0  0  0  0  0  0  0  0  0  0  0  0
   -7.2891    4.2785  -11.2814 N   0  0  0  0  0  0  0  0  0  0  0  0
   -8.0103    4.4343  -10.0569 C   0  0  1  0  0  0  0  0  0  0  0  0
   -8.8142    3.2390   -9.5551 C   0  0  0  0  0  0  0  0  0  0  0  0
   -9.0768    3.4528   -8.1543 O   0  0  0  0  0  0  0  0  0  0  0  0
   -8.0143    4.2618   -7.6388 C   0  0  0  0  0  0  0  0  0  0  0  0
   -7.4139    4.9708   -8.8062 C   0  0  2  0  0  0  0  0  0  0  0  0
   -8.2873    5.8637   -9.6121 C   0  0  0  0  0  0  0  0  0  0  0  0
  1  2  1  0
  2  3  1  0
  3  4  2  0
  4  5  1  0
  5  6  2  0
  6  7  1  0
  7  8  2  0
  8  9  1  0
  9 10  2  0
 10 11  1  0
 11 12  1  0
 12 13  1  1
 12 14  1  0
 14 15  2  0
 14 16  1  0
 17 16  1  6
 17 18  1  0
 18 19  1  0
 19 20  1  0
 21 20  1  1
 21 22  1  0
 11  3  1  0
 21 17  1  0
 10  5  1  0
 22 17  1  0
M  END
>  <fragmenstein_outcome>  (615) 
nan

>  <exports>  (615) 
['/opt/xchem-fragalysis-2/maxwin/openbind-hippo/xx01zvns2b/cycle_01/syndirella/elabs/openbind_xx01zvns2b_c1_elab_chemspace_filtered.sdf']

>  <Energy>  (615) 
nan

>  <alias>  (615) 
None

>  <fragmenstein_runtime>  (615) 
nan

>  <scratch_subdir>  (615) 
nan

>  <HIPPO Compound ID>  (615) 
147250

>  <rmsd(smina/fragmenstein)>  (615) 
0.888

>  <distance_score>  (615) 
1.653602

>  <orig_smiles>  (615) 
nan

>  <fragmenstein_mode>  (615) 
nan

>  <inchikey>  (615) 
CVWZDKRFBOIFNO-PRXAMGSTSA-N

>  <ref_pdb>  (615) 
Z3880a

>  <GNINA pK>  (615) 
nan

>  <gnina_score_min>  (615) 
5.177

>  <tags>  (615) 
openbind_xx01zvns2b_c1_elab_nonasap_filtered_scored_top80percent,openbind_xx01zvns2b_c1_elab_chemspace_filtered_scored_top80percent,openbind_xx01zvns2b_c1_elab_chemspace_filtered_scored,openbind_xx01zvns2b_c1_elab_chemspace_filtered_scored_top40percent,openbind_xx01zvns2b_c1_elab_chemspace_filtered_scored_top20percent,openbind_xx01zvns2b_c1_elab_chemspace_filtered_scored_top60percent,openbind_xx01zvns2b_c1_elabs_filtered

>  <smiles>  (615) 
CCc1nc2ccccc2n1[C@@H](C)C(=O)N[C@@]12COC[C@@H]1C2

>  <subsites>  (615) 
1 - Z4590/B/203/1

>  <gnina_score>  (615) 
5.215

>  <HIPPO Pose ID>  (615) 
74179

>  <ref_mols>  (615) 
Z0101a,Z3880a

>  <energy_score>  (615) 
-0.803294

>  <inspiration_score>  (615) 
None

>  <smina_score_min>  (615) 
-5.841

>  <fragmenstein_error>  (615) 
nan

>  <name>  (615) 
P74179

$$$$
P74192
     RDKit          3D

 22 24  0  0  0  0  0  0  0  0999 V2000
   -8.2220    5.8516   -9.0548 C   0  0  0  0  0  0  0  0  0  0  0  0
   -8.4166    4.5299   -9.1530 C   0  0  0  0  0  0  0  0  0  0  0  0
   -8.4695    3.5855   -7.9837 C   0  0  0  0  0  0  0  0  0  0  0  0
   -8.3736    2.2717   -8.5540 O   0  0  0  0  0  0  0  0  0  0  0  0
   -7.7903    2.4450   -9.8605 C   0  0  0  0  0  0  0  0  0  0  0  0
   -8.5036    3.6708  -10.3759 C   0  0  2  0  0  0  0  0  0  0  0  0
   -8.0917    4.3469  -11.5757 N   0  0  0  0  0  0  0  0  0  0  0  0
   -6.7794    4.2080  -12.4223 C   0  0  0  0  0  0  0  0  0  0  0  0
   -5.8792    3.4687  -12.3085 O   0  0  0  0  0  0  0  0  0  0  0  0
   -6.8554    5.3270  -13.4841 C   0  0  1  0  0  0  0  0  0  0  0  0
   -6.3387    6.6273  -12.9049 C   0  0  0  0  0  0  0  0  0  0  0  0
   -6.3470    5.0082  -14.8240 N   0  0  0  0  0  0  0  0  0  0  0  0
   -5.0999    5.2206  -15.3873 C   0  0  0  0  0  0  0  0  0  0  0  0
   -3.8300    5.3835  -14.6194 C   0  0  0  0  0  0  0  0  0  0  0  0
   -3.2528    6.7815  -14.7708 C   0  0  0  0  0  0  0  0  0  0  0  0
   -5.1671    5.2055  -16.7084 N   0  0  0  0  0  0  0  0  0  0  0  0
   -6.4497    4.8369  -17.0145 C   0  0  0  0  0  0  0  0  0  0  0  0
   -7.0482    4.6065  -18.2579 C   0  0  0  0  0  0  0  0  0  0  0  0
   -8.3937    4.2271  -18.2897 C   0  0  0  0  0  0  0  0  0  0  0  0
   -9.1360    4.0985  -17.1229 C   0  0  0  0  0  0  0  0  0  0  0  0
   -8.5527    4.3109  -15.8782 C   0  0  0  0  0  0  0  0  0  0  0  0
   -7.2057    4.6860  -15.8595 C   0  0  0  0  0  0  0  0  0  0  0  0
  1  2  2  0
  2  3  1  0
  3  4  1  0
  4  5  1  0
  5  6  1  0
  6  7  1  6
  7  8  1  0
  8  9  2  0
  8 10  1  0
 10 11  1  1
 10 12  1  0
 12 13  1  0
 13 14  1  0
 14 15  1  0
 13 16  2  0
 16 17  1  0
 17 18  2  0
 18 19  1  0
 19 20  2  0
 20 21  1  0
 21 22  2  0
  6  2  1  0
 22 12  1  0
 22 17  1  0
M  END
>  <fragmenstein_outcome>  (616) 
nan

>  <exports>  (616) 
['/opt/xchem-fragalysis-2/maxwin/openbind-hippo/xx01zvns2b/cycle_01/syndirella/elabs/openbind_xx01zvns2b_c1_elab_chemspace_filtered.sdf']

>  <Energy>  (616) 
nan

>  <alias>  (616) 
None

>  <fragmenstein_runtime>  (616) 
nan

>  <scratch_subdir>  (616) 
nan

>  <HIPPO Compound ID>  (616) 
147255

>  <rmsd(smina/fragmenstein)>  (616) 
0.657

>  <distance_score>  (616) 
1.585477

>  <orig_smiles>  (616) 
nan

>  <fragmenstein_mode>  (616) 
nan

>  <inchikey>  (616) 
FHFVICBOUABSGB-OCCSQVGLSA-N

>  <ref_pdb>  (616) 
Z3880a

>  <GNINA pK>  (616) 
nan

>  <gnina_score_min>  (616) 
5.141

>  <tags>  (616) 
openbind_xx01zvns2b_c1_elab_nonasap_filtered_scored_top80percent,openbind_xx01zvns2b_c1_elab_chemspace_filtered_scored_top80percent,openbind_xx01zvns2b_c1_elab_chemspace_filtered_scored,openbind_xx01zvns2b_c1_elab_chemspace_filtered_scored_top40percent,openbind_xx01zvns2b_c1_elab_chemspace_filtered_scored_top20percent,openbind_xx01zvns2b_c1_elab_chemspace_filtered_scored_top60percent,openbind_xx01zvns2b_c1_elabs_filtered

>  <smiles>  (616) 
C=C1COC[C@@H]1NC(=O)[C@@H](C)n1c(CC)nc2ccccc21

>  <subsites>  (616) 
1 - Z4590/B/203/1

>  <gnina_score>  (616) 
5.169

>  <HIPPO Pose ID>  (616) 
74192

>  <ref_mols>  (616) 
Z0101a,Z3880a

>  <energy_score>  (616) 
-8.972145

>  <inspiration_score>  (616) 
None

>  <smina_score_min>  (616) 
-6.534

>  <fragmenstein_error>  (616) 
nan

>  <name>  (616) 
P74192

$$$$
P74208
     RDKit          3D

 22 24  0  0  0  0  0  0  0  0999 V2000
   -5.6196    6.2956  -11.4592 C   0  0  0  0  0  0  0  0  0  0  0  0
   -5.7665    6.2990  -12.9735 C   0  0  0  0  0  0  0  0  0  0  0  0
   -6.4559    7.5986  -13.4128 C   0  0  0  0  0  0  0  0  0  0  0  0
   -6.4299    5.0101  -13.5271 C   0  0  1  0  0  0  0  0  0  0  0  0
   -7.8337    4.9109  -12.8528 C   0  0  0  0  0  0  0  0  0  0  0  0
   -8.7836    5.4523  -13.2811 O   0  0  0  0  0  0  0  0  0  0  0  0
   -7.6445    4.0803  -11.5278 N   0  0  0  0  0  0  0  0  0  0  0  0
   -8.5767    3.8339  -10.4121 C   0  0  1  0  0  0  0  0  0  0  0  0
   -9.0928    2.3925  -10.3120 C   0  0  0  0  0  0  0  0  0  0  0  0
   -8.0007    2.0980   -9.2753 C   0  0  0  0  0  0  0  0  0  0  0  0
   -7.9120    3.6224   -9.0054 C   0  0  2  0  0  0  0  0  0  0  0  0
   -8.7061    4.0413   -7.7725 C   0  0  0  0  0  0  0  0  0  0  0  0
   -6.5751    4.1575   -8.8945 O   0  0  0  0  0  0  0  0  0  0  0  0
   -6.3236    4.9887  -15.0072 N   0  0  0  0  0  0  0  0  0  0  0  0
   -5.1381    5.2480  -15.6818 C   0  0  0  0  0  0  0  0  0  0  0  0
   -5.2728    5.2389  -16.9834 N   0  0  0  0  0  0  0  0  0  0  0  0
   -6.5668    4.8494  -17.1812 C   0  0  0  0  0  0  0  0  0  0  0  0
   -7.2214    4.6127  -18.3911 C   0  0  0  0  0  0  0  0  0  0  0  0
   -8.5570    4.2220  -18.3572 C   0  0  0  0  0  0  0  0  0  0  0  0
   -9.2274    4.0645  -17.1562 C   0  0  0  0  0  0  0  0  0  0  0  0
   -8.5764    4.2489  -15.9402 C   0  0  0  0  0  0  0  0  0  0  0  0
   -7.2467    4.6716  -15.9702 C   0  0  0  0  0  0  0  0  0  0  0  0
  1  2  1  0
  2  3  1  0
  4  2  1  6
  4  5  1  0
  5  6  2  0
  5  7  1  0
  8  7  1  6
  8  9  1  0
  9 10  1  0
 10 11  1  0
 11 12  1  1
 11 13  1  0
  4 14  1  0
 14 15  1  0
 15 16  2  0
 16 17  1  0
 17 18  2  0
 18 19  1  0
 19 20  2  0
 20 21  1  0
 21 22  2  0
 11  8  1  0
 22 14  1  0
 22 17  1  0
M  END
>  <fragmenstein_outcome>  (617) 
nan

>  <exports>  (617) 
['/opt/xchem-fragalysis-2/maxwin/openbind-hippo/xx01zvns2b/cycle_01/syndirella/elabs/openbind_xx01zvns2b_c1_elab_chemspace_filtered.sdf']

>  <Energy>  (617) 
nan

>  <alias>  (617) 
None

>  <fragmenstein_runtime>  (617) 
nan

>  <scratch_subdir>  (617) 
nan

>  <HIPPO Compound ID>  (617) 
147266

>  <rmsd(smina/fragmenstein)>  (617) 
0.399

>  <distance_score>  (617) 
1.609944

>  <orig_smiles>  (617) 
nan

>  <fragmenstein_mode>  (617) 
nan

>  <inchikey>  (617) 
RMWYBYCGHLVYDO-YQQAZPJKSA-N

>  <ref_pdb>  (617) 
Z3880a

>  <GNINA pK>  (617) 
nan

>  <gnina_score_min>  (617) 
5.157

>  <tags>  (617) 
openbind_xx01zvns2b_c1_elab_nonasap_filtered_scored_top80percent,openbind_xx01zvns2b_c1_elab_chemspace_filtered_scored_top80percent,openbind_xx01zvns2b_c1_elab_chemspace_filtered_scored,openbind_xx01zvns2b_c1_elab_chemspace_filtered_scored_top40percent,openbind_xx01zvns2b_c1_elab_chemspace_filtered_scored_top20percent,openbind_xx01zvns2b_c1_elab_chemspace_filtered_scored_top60percent,openbind_xx01zvns2b_c1_elabs_filtered

>  <smiles>  (617) 
CC(C)[C@@H](C(=O)N[C@H]1CC[C@@]1(C)O)n1cnc2ccccc21

>  <subsites>  (617) 
1 - Z4590/B/203/1

>  <gnina_score>  (617) 
5.189

>  <HIPPO Pose ID>  (617) 
74208

>  <ref_mols>  (617) 
Z0101a,Z3880a

>  <energy_score>  (617) 
-29.639752

>  <inspiration_score>  (617) 
None

>  <smina_score_min>  (617) 
-5.922

>  <fragmenstein_error>  (617) 
nan

>  <name>  (617) 
P74208

$$$$
P74240
     RDKit          3D

 23 25  0  0  0  0  0  0  0  0999 V2000
   -5.5747    6.2899  -11.5512 C   0  0  0  0  0  0  0  0  0  0  0  0
   -5.6652    6.2849  -13.0688 C   0  0  0  0  0  0  0  0  0  0  0  0
   -6.2923    7.6054  -13.5399 C   0  0  0  0  0  0  0  0  0  0  0  0
   -6.3542    5.0158  -13.6288 C   0  0  1  0  0  0  0  0  0  0  0  0
   -7.7584    4.9235  -12.9527 C   0  0  0  0  0  0  0  0  0  0  0  0
   -8.6836    5.5330  -13.3353 O   0  0  0  0  0  0  0  0  0  0  0  0
   -7.6026    3.9962  -11.6986 N   0  0  0  0  0  0  0  0  0  0  0  0
   -8.5300    3.7122  -10.6131 C   0  0  1  0  0  0  0  0  0  0  0  0
   -8.6041    2.2648  -10.2202 C   0  0  0  0  0  0  0  0  0  0  0  0
   -8.5345    2.2380   -8.7082 C   0  0  2  0  0  0  0  0  0  0  0  0
   -9.7937    1.7906   -8.0057 C   0  0  0  0  0  0  0  0  0  0  0  0
   -8.2125    3.5564   -8.2657 O   0  0  0  0  0  0  0  0  0  0  0  0
   -8.1891    4.4178   -9.3150 C   0  0  0  0  0  0  0  0  0  0  0  0
   -7.9147    5.6033   -9.1979 O   0  0  0  0  0  0  0  0  0  0  0  0
   -6.2681    4.9975  -15.1058 N   0  0  0  0  0  0  0  0  0  0  0  0
   -5.0963    5.2576  -15.8004 C   0  0  0  0  0  0  0  0  0  0  0  0
   -5.2524    5.2273  -17.0993 N   0  0  0  0  0  0  0  0  0  0  0  0
   -6.5494    4.8338  -17.2690 C   0  0  0  0  0  0  0  0  0  0  0  0
   -7.2249    4.5813  -18.4624 C   0  0  0  0  0  0  0  0  0  0  0  0
   -8.5613    4.1962  -18.3984 C   0  0  0  0  0  0  0  0  0  0  0  0
   -9.2129    4.0549  -17.1849 C   0  0  0  0  0  0  0  0  0  0  0  0
   -8.5397    4.2503  -15.9839 C   0  0  0  0  0  0  0  0  0  0  0  0
   -7.2094    4.6701  -16.0463 C   0  0  0  0  0  0  0  0  0  0  0  0
  1  2  1  0
  2  3  1  0
  4  2  1  6
  4  5  1  0
  5  6  2  0
  5  7  1  0
  8  7  1  6
  8  9  1  0
  9 10  1  0
 10 11  1  1
 10 12  1  0
 12 13  1  0
 13 14  2  0
  4 15  1  0
 15 16  1  0
 16 17  2  0
 17 18  1  0
 18 19  2  0
 19 20  1  0
 20 21  2  0
 21 22  1  0
 22 23  2  0
 13  8  1  0
 23 15  1  0
 23 18  1  0
M  END
>  <fragmenstein_outcome>  (618) 
nan

>  <exports>  (618) 
['/opt/xchem-fragalysis-2/maxwin/openbind-hippo/xx01zvns2b/cycle_01/syndirella/elabs/openbind_xx01zvns2b_c1_elab_chemspace_filtered.sdf']

>  <Energy>  (618) 
nan

>  <alias>  (618) 
None

>  <fragmenstein_runtime>  (618) 
nan

>  <scratch_subdir>  (618) 
nan

>  <HIPPO Compound ID>  (618) 
147301

>  <rmsd(smina/fragmenstein)>  (618) 
0.396

>  <distance_score>  (618) 
1.538025

>  <orig_smiles>  (618) 
nan

>  <fragmenstein_mode>  (618) 
nan

>  <inchikey>  (618) 
KXMVAZCSUMEFAP-WHOFXGATSA-N

>  <ref_pdb>  (618) 
Z3880a

>  <GNINA pK>  (618) 
nan

>  <gnina_score_min>  (618) 
5.244

>  <tags>  (618) 
openbind_xx01zvns2b_c1_elab_nonasap_filtered_scored_top80percent,openbind_xx01zvns2b_c1_elab_chemspace_filtered_scored_top80percent,openbind_xx01zvns2b_c1_elab_chemspace_filtered_scored,openbind_xx01zvns2b_c1_elab_chemspace_filtered_scored_top40percent,openbind_xx01zvns2b_c1_elab_chemspace_filtered_scored_top20percent,openbind_xx01zvns2b_c1_elab_chemspace_filtered_scored_top60percent,openbind_xx01zvns2b_c1_elabs_filtered

>  <smiles>  (618) 
CC(C)[C@@H](C(=O)N[C@H]1C[C@H](C)OC1=O)n1cnc2ccccc21

>  <subsites>  (618) 
1 - Z4590/B/203/1

>  <gnina_score>  (618) 
5.294

>  <HIPPO Pose ID>  (618) 
74240

>  <ref_mols>  (618) 
Z0101a,Z3880a

>  <energy_score>  (618) 
-2.682802

>  <inspiration_score>  (618) 
None

>  <smina_score_min>  (618) 
-6.299

>  <fragmenstein_error>  (618) 
nan

>  <name>  (618) 
P74240

$$$$
P74245
     RDKit          3D

 23 25  0  0  0  0  0  0  0  0999 V2000
   -3.6416    5.1623  -15.1986 C   0  0  0  0  0  0  0  0  0  0  0  0
   -5.0156    5.1111  -15.7664 C   0  0  0  0  0  0  0  0  0  0  0  0
   -5.2478    5.1862  -17.0582 N   0  0  0  0  0  0  0  0  0  0  0  0
   -6.5595    4.8495  -17.2018 C   0  0  0  0  0  0  0  0  0  0  0  0
   -7.2740    4.6617  -18.3857 C   0  0  0  0  0  0  0  0  0  0  0  0
   -8.6140    4.2964  -18.3022 C   0  0  0  0  0  0  0  0  0  0  0  0
   -9.2284    4.1147  -17.0750 C   0  0  0  0  0  0  0  0  0  0  0  0
   -8.5188    4.2626  -15.8861 C   0  0  0  0  0  0  0  0  0  0  0  0
   -7.1823    4.6599  -15.9665 C   0  0  0  0  0  0  0  0  0  0  0  0
   -6.2038    4.9315  -15.0387 N   0  0  0  0  0  0  0  0  0  0  0  0
   -6.3024    5.0009  -13.5581 C   0  0  2  0  0  0  0  0  0  0  0  0
   -7.6882    4.8752  -12.8415 C   0  0  0  0  0  0  0  0  0  0  0  0
   -8.6433    5.4426  -13.2184 O   0  0  0  0  0  0  0  0  0  0  0  0
   -7.4715    3.9864  -11.5644 N   0  0  0  0  0  0  0  0  0  0  0  0
   -8.3618    3.7016  -10.4525 C   0  0  1  0  0  0  0  0  0  0  0  0
   -8.4445    2.2570  -10.0085 C   0  0  0  0  0  0  0  0  0  0  0  0
   -9.0344    2.3236   -8.5987 C   0  0  0  0  0  0  0  0  0  0  0  0
   -8.6008    3.6664   -8.0182 C   0  0  0  0  0  0  0  0  0  0  0  0
   -7.9084    4.4045   -9.1592 C   0  0  2  0  0  0  0  0  0  0  0  0
   -8.2254    5.7885   -9.1435 O   0  0  0  0  0  0  0  0  0  0  0  0
   -5.7244    6.3548  -13.0535 C   0  0  0  0  0  0  0  0  0  0  0  0
   -5.6730    6.4617  -11.5356 C   0  0  0  0  0  0  0  0  0  0  0  0
   -6.4171    7.5999  -13.6250 C   0  0  0  0  0  0  0  0  0  0  0  0
  1  2  1  0
  2  3  2  0
  3  4  1  0
  4  5  2  0
  5  6  1  0
  6  7  2  0
  7  8  1  0
  8  9  2  0
  9 10  1  0
 10 11  1  0
 11 12  1  0
 12 13  2  0
 12 14  1  0
 15 14  1  6
 15 16  1  0
 16 17  1  0
 17 18  1  0
 18 19  1  0
 19 20  1  6
 11 21  1  6
 21 22  1  0
 21 23  1  0
 10  2  1  0
 19 15  1  0
  9  4  1  0
M  END
>  <fragmenstein_outcome>  (619) 
nan

>  <exports>  (619) 
['/opt/xchem-fragalysis-2/maxwin/openbind-hippo/xx01zvns2b/cycle_01/syndirella/elabs/openbind_xx01zvns2b_c1_elab_chemspace_filtered.sdf']

>  <Energy>  (619) 
nan

>  <alias>  (619) 
None

>  <fragmenstein_runtime>  (619) 
nan

>  <scratch_subdir>  (619) 
nan

>  <HIPPO Compound ID>  (619) 
147307

>  <rmsd(smina/fragmenstein)>  (619) 
0.387

>  <distance_score>  (619) 
1.46468

>  <orig_smiles>  (619) 
nan

>  <fragmenstein_mode>  (619) 
nan

>  <inchikey>  (619) 
OGBWGDPMPBMDOE-XIRDDKMYSA-N

>  <ref_pdb>  (619) 
Z3880a

>  <GNINA pK>  (619) 
nan

>  <gnina_score_min>  (619) 
5.222

>  <tags>  (619) 
openbind_xx01zvns2b_c1_elab_nonasap_filtered_scored_top80percent,openbind_xx01zvns2b_c1_elab_chemspace_filtered_scored_top80percent,openbind_xx01zvns2b_c1_elab_chemspace_filtered_scored,openbind_xx01zvns2b_c1_elab_chemspace_filtered_scored_top40percent,openbind_xx01zvns2b_c1_elab_chemspace_filtered_scored_top20percent,openbind_xx01zvns2b_c1_elab_chemspace_filtered_scored_top60percent,openbind_xx01zvns2b_c1_elabs_filtered

>  <smiles>  (619) 
Cc1nc2ccccc2n1[C@H](C(=O)N[C@H]1CCC[C@@H]1O)C(C)C

>  <subsites>  (619) 
1 - Z4590/B/203/1

>  <gnina_score>  (619) 
5.366

>  <HIPPO Pose ID>  (619) 
74245

>  <ref_mols>  (619) 
Z0101a,Z3880a

>  <energy_score>  (619) 
-22.383769

>  <inspiration_score>  (619) 
None

>  <smina_score_min>  (619) 
-6.683

>  <fragmenstein_error>  (619) 
nan

>  <name>  (619) 
P74245

$$$$
P74249
     RDKit          3D

 23 26  0  0  0  0  0  0  0  0999 V2000
   -3.5557    5.2037  -15.2851 C   0  0  0  0  0  0  0  0  0  0  0  0
   -4.9366    5.1201  -15.8319 C   0  0  0  0  0  0  0  0  0  0  0  0
   -5.1911    5.1730  -17.1200 N   0  0  0  0  0  0  0  0  0  0  0  0
   -6.5076    4.8411  -17.2366 C   0  0  0  0  0  0  0  0  0  0  0  0
   -7.2464    4.6513  -18.4057 C   0  0  0  0  0  0  0  0  0  0  0  0
   -8.5862    4.2909  -18.2962 C   0  0  0  0  0  0  0  0  0  0  0  0
   -9.1761    4.1113  -17.0570 C   0  0  0  0  0  0  0  0  0  0  0  0
   -8.4425    4.2610  -15.8829 C   0  0  0  0  0  0  0  0  0  0  0  0
   -7.1071    4.6594  -15.9883 C   0  0  0  0  0  0  0  0  0  0  0  0
   -6.1106    4.9401  -15.0822 N   0  0  0  0  0  0  0  0  0  0  0  0
   -6.1774    5.0482  -13.6033 C   0  0  2  0  0  0  0  0  0  0  0  0
   -7.5306    4.8657  -12.8515 C   0  0  0  0  0  0  0  0  0  0  0  0
   -8.5263    5.3751  -13.2087 O   0  0  0  0  0  0  0  0  0  0  0  0
   -7.2284    4.0085  -11.5635 N   0  0  0  0  0  0  0  0  0  0  0  0
   -8.0534    3.7017  -10.4439 C   0  0  1  0  0  0  0  0  0  0  0  0
   -9.0644    2.5968  -10.5811 C   0  0  0  0  0  0  0  0  0  0  0  0
   -9.5421    2.3103   -9.2561 O   0  0  0  0  0  0  0  0  0  0  0  0
   -8.4009    2.4707   -8.4056 C   0  0  0  0  0  0  0  0  0  0  0  0
   -7.5834    3.5568   -9.0427 C   0  0  2  0  0  0  0  0  0  0  0  0
   -8.2526    4.8296   -9.4381 C   0  0  0  0  0  0  0  0  0  0  0  0
   -5.6506    6.4390  -13.1498 C   0  0  0  0  0  0  0  0  0  0  0  0
   -5.6108    6.6108  -11.6376 C   0  0  0  0  0  0  0  0  0  0  0  0
   -6.3850    7.6343  -13.7704 C   0  0  0  0  0  0  0  0  0  0  0  0
  1  2  1  0
  2  3  2  0
  3  4  1  0
  4  5  2  0
  5  6  1  0
  6  7  2  0
  7  8  1  0
  8  9  2  0
  9 10  1  0
 10 11  1  0
 11 12  1  0
 12 13  2  0
 12 14  1  0
 15 14  1  6
 15 16  1  0
 16 17  1  0
 17 18  1  0
 19 18  1  1
 19 20  1  0
 11 21  1  6
 21 22  1  0
 21 23  1  0
 10  2  1  0
 19 15  1  0
  9  4  1  0
 20 15  1  0
M  END
>  <fragmenstein_outcome>  (620) 
nan

>  <exports>  (620) 
['/opt/xchem-fragalysis-2/maxwin/openbind-hippo/xx01zvns2b/cycle_01/syndirella/elabs/openbind_xx01zvns2b_c1_elab_chemspace_filtered.sdf']

>  <Energy>  (620) 
nan

>  <alias>  (620) 
None

>  <fragmenstein_runtime>  (620) 
nan

>  <scratch_subdir>  (620) 
nan

>  <HIPPO Compound ID>  (620) 
147309

>  <rmsd(smina/fragmenstein)>  (620) 
0.372

>  <distance_score>  (620) 
1.585997

>  <orig_smiles>  (620) 
nan

>  <fragmenstein_mode>  (620) 
nan

>  <inchikey>  (620) 
ZBPASXZGIBBLLU-OWQGQXMQSA-N

>  <ref_pdb>  (620) 
Z3880a

>  <GNINA pK>  (620) 
nan

>  <gnina_score_min>  (620) 
5.338

>  <tags>  (620) 
openbind_xx01zvns2b_c1_elab_nonasap_filtered_scored_top80percent,openbind_xx01zvns2b_c1_elab_chemspace_filtered_scored_top80percent,openbind_xx01zvns2b_c1_elab_chemspace_filtered_scored,openbind_xx01zvns2b_c1_elab_chemspace_filtered_scored_top40percent,openbind_xx01zvns2b_c1_elab_chemspace_filtered_scored_top20percent,openbind_xx01zvns2b_c1_elab_chemspace_filtered_scored_top60percent,openbind_xx01zvns2b_c1_elabs_filtered

>  <smiles>  (620) 
Cc1nc2ccccc2n1[C@H](C(=O)N[C@@]12COC[C@@H]1C2)C(C)C

>  <subsites>  (620) 
1 - Z4590/B/203/1

>  <gnina_score>  (620) 
5.355

>  <HIPPO Pose ID>  (620) 
74249

>  <ref_mols>  (620) 
Z0101a,Z3880a

>  <energy_score>  (620) 
-14.247802

>  <inspiration_score>  (620) 
None

>  <smina_score_min>  (620) 
-5.803

>  <fragmenstein_error>  (620) 
nan

>  <name>  (620) 
P74249

$$$$
P74255
     RDKit          3D

 23 25  0  0  0  0  0  0  0  0999 V2000
   -3.9618    5.3930  -14.6731 C   0  0  0  0  0  0  0  0  0  0  0  0
   -5.1933    5.1695  -15.4661 C   0  0  0  0  0  0  0  0  0  0  0  0
   -5.2274    5.1635  -16.7874 N   0  0  0  0  0  0  0  0  0  0  0  0
   -6.4949    4.7750  -17.1242 C   0  0  0  0  0  0  0  0  0  0  0  0
   -7.0577    4.5398  -18.3809 C   0  0  0  0  0  0  0  0  0  0  0  0
   -8.3972    4.1443  -18.4440 C   0  0  0  0  0  0  0  0  0  0  0  0
   -9.1737    4.0168  -17.3023 C   0  0  0  0  0  0  0  0  0  0  0  0
   -8.6228    4.2263  -16.0461 C   0  0  0  0  0  0  0  0  0  0  0  0
   -7.2777    4.6064  -15.9904 C   0  0  0  0  0  0  0  0  0  0  0  0
   -6.4447    4.9173  -14.9306 N   0  0  0  0  0  0  0  0  0  0  0  0
   -6.9936    5.1939  -13.5893 C   0  0  1  0  0  0  0  0  0  0  0  0
   -6.8111    4.0960  -12.5140 C   0  0  0  0  0  0  0  0  0  0  0  0
   -5.8264    3.4825  -12.3629 O   0  0  0  0  0  0  0  0  0  0  0  0
   -8.1405    4.1025  -11.6826 N   0  0  0  0  0  0  0  0  0  0  0  0
   -8.4794    3.4270  -10.4512 C   0  0  1  0  0  0  0  0  0  0  0  0
   -7.5920    2.3482   -9.8831 C   0  0  0  0  0  0  0  0  0  0  0  0
   -8.2050    2.0906   -8.6054 O   0  0  0  0  0  0  0  0  0  0  0  0
   -8.6329    3.3606   -8.0838 C   0  0  0  0  0  0  0  0  0  0  0  0
   -8.5489    4.3407   -9.2391 C   0  0  1  0  0  0  0  0  0  0  0  0
   -7.4064    5.0761   -9.1415 F   0  0  0  0  0  0  0  0  0  0  0  0
   -6.6922    6.6138  -13.0738 C   0  0  0  0  0  0  0  0  0  0  0  0
   -5.6554    6.6484  -11.9570 C   0  0  0  0  0  0  0  0  0  0  0  0
   -7.9579    7.3301  -12.5728 C   0  0  0  0  0  0  0  0  0  0  0  0
  1  2  1  0
  2  3  2  0
  3  4  1  0
  4  5  2  0
  5  6  1  0
  6  7  2  0
  7  8  1  0
  8  9  2  0
  9 10  1  0
 10 11  1  0
 11 12  1  0
 12 13  2  0
 12 14  1  0
 15 14  1  6
 15 16  1  0
 16 17  1  0
 17 18  1  0
 18 19  1  0
 19 20  1  1
 11 21  1  1
 21 22  1  0
 21 23  1  0
 10  2  1  0
 19 15  1  0
  9  4  1  0
M  END
>  <fragmenstein_outcome>  (621) 
nan

>  <exports>  (621) 
['/opt/xchem-fragalysis-2/maxwin/openbind-hippo/xx01zvns2b/cycle_01/syndirella/elabs/openbind_xx01zvns2b_c1_elab_chemspace_filtered.sdf']

>  <Energy>  (621) 
nan

>  <alias>  (621) 
None

>  <fragmenstein_runtime>  (621) 
nan

>  <scratch_subdir>  (621) 
nan

>  <HIPPO Compound ID>  (621) 
147310

>  <rmsd(smina/fragmenstein)>  (621) 
0.502

>  <distance_score>  (621) 
1.577234

>  <orig_smiles>  (621) 
nan

>  <fragmenstein_mode>  (621) 
nan

>  <inchikey>  (621) 
IOYOBMILWSOYTH-IVMMDQJWSA-N

>  <ref_pdb>  (621) 
Z3880a

>  <GNINA pK>  (621) 
nan

>  <gnina_score_min>  (621) 
5.174

>  <tags>  (621) 
openbind_xx01zvns2b_c1_elab_nonasap_filtered_scored_top80percent,openbind_xx01zvns2b_c1_elab_chemspace_filtered_scored_top80percent,openbind_xx01zvns2b_c1_elab_chemspace_filtered_scored,openbind_xx01zvns2b_c1_elab_chemspace_filtered_scored_top40percent,openbind_xx01zvns2b_c1_elab_chemspace_filtered_scored_top20percent,openbind_xx01zvns2b_c1_elab_chemspace_filtered_scored_top60percent,openbind_xx01zvns2b_c1_elabs_filtered

>  <smiles>  (621) 
Cc1nc2ccccc2n1[C@@H](C(=O)N[C@H]1COC[C@H]1F)C(C)C

>  <subsites>  (621) 
1 - Z4590/B/203/1

>  <gnina_score>  (621) 
5.361

>  <HIPPO Pose ID>  (621) 
74255

>  <ref_mols>  (621) 
Z0101a,Z3880a

>  <energy_score>  (621) 
-24.074359

>  <inspiration_score>  (621) 
None

>  <smina_score_min>  (621) 
-6.343

>  <fragmenstein_error>  (621) 
nan

>  <name>  (621) 
P74255

$$$$
P74257
     RDKit          3D

 23 25  0  0  0  0  0  0  0  0999 V2000
   -3.6458    5.0629  -15.0634 C   0  0  0  0  0  0  0  0  0  0  0  0
   -5.0232    5.0839  -15.6307 C   0  0  0  0  0  0  0  0  0  0  0  0
   -5.2444    5.2389  -16.9184 N   0  0  0  0  0  0  0  0  0  0  0  0
   -6.5488    4.8975  -17.0983 C   0  0  0  0  0  0  0  0  0  0  0  0
   -7.2424    4.7514  -18.3036 C   0  0  0  0  0  0  0  0  0  0  0  0
   -8.5751    4.3527  -18.2634 C   0  0  0  0  0  0  0  0  0  0  0  0
   -9.2046    4.1089  -17.0566 C   0  0  0  0  0  0  0  0  0  0  0  0
   -8.5154    4.2172  -15.8512 C   0  0  0  0  0  0  0  0  0  0  0  0
   -7.1837    4.6404  -15.8809 C   0  0  0  0  0  0  0  0  0  0  0  0
   -6.2194    4.8700  -14.9186 N   0  0  0  0  0  0  0  0  0  0  0  0
   -6.3203    4.7542  -13.4282 C   0  0  2  0  0  0  0  0  0  0  0  0
   -7.7365    4.6684  -12.7558 C   0  0  0  0  0  0  0  0  0  0  0  0
   -8.6632    5.2393  -13.1898 O   0  0  0  0  0  0  0  0  0  0  0  0
   -7.5900    3.8203  -11.4470 N   0  0  0  0  0  0  0  0  0  0  0  0
   -8.5319    3.5870  -10.3636 C   0  0  1  0  0  0  0  0  0  0  0  0
   -8.4928    2.2355   -9.7075 C   0  0  0  0  0  0  0  0  0  0  0  0
   -9.0466    2.5053   -8.3283 C   0  0  0  0  0  0  0  0  0  0  0  0
   -8.6514    3.8385   -8.0053 O   0  0  0  0  0  0  0  0  0  0  0  0
   -8.3380    4.4992   -9.1612 C   0  0  0  0  0  0  0  0  0  0  0  0
   -7.9775    5.6665   -9.1920 O   0  0  0  0  0  0  0  0  0  0  0  0
   -5.6326    5.9752  -12.7503 C   0  0  0  0  0  0  0  0  0  0  0  0
   -6.5191    7.2154  -12.6687 C   0  0  0  0  0  0  0  0  0  0  0  0
   -5.0297    5.6510  -11.3796 C   0  0  0  0  0  0  0  0  0  0  0  0
  1  2  1  0
  2  3  2  0
  3  4  1  0
  4  5  2  0
  5  6  1  0
  6  7  2  0
  7  8  1  0
  8  9  2  0
  9 10  1  0
 10 11  1  0
 11 12  1  0
 12 13  2  0
 12 14  1  0
 15 14  1  6
 15 16  1  0
 16 17  1  0
 17 18  1  0
 18 19  1  0
 19 20  2  0
 11 21  1  1
 21 22  1  0
 21 23  1  0
 10  2  1  0
 19 15  1  0
  9  4  1  0
M  END
>  <fragmenstein_outcome>  (622) 
nan

>  <exports>  (622) 
['/opt/xchem-fragalysis-2/maxwin/openbind-hippo/xx01zvns2b/cycle_01/syndirella/elabs/openbind_xx01zvns2b_c1_elab_chemspace_filtered.sdf']

>  <Energy>  (622) 
nan

>  <alias>  (622) 
None

>  <fragmenstein_runtime>  (622) 
nan

>  <scratch_subdir>  (622) 
nan

>  <HIPPO Compound ID>  (622) 
147317

>  <rmsd(smina/fragmenstein)>  (622) 
0.605

>  <distance_score>  (622) 
1.398188

>  <orig_smiles>  (622) 
nan

>  <fragmenstein_mode>  (622) 
nan

>  <inchikey>  (622) 
FTIVQYSEEBSFIW-ZFWWWQNUSA-N

>  <ref_pdb>  (622) 
Z3880a

>  <GNINA pK>  (622) 
nan

>  <gnina_score_min>  (622) 
5.236

>  <tags>  (622) 
openbind_xx01zvns2b_c1_elab_nonasap_filtered_scored_top80percent,openbind_xx01zvns2b_c1_elab_chemspace_filtered_scored_top80percent,openbind_xx01zvns2b_c1_elab_chemspace_filtered_scored,openbind_xx01zvns2b_c1_elab_chemspace_filtered_scored_top40percent,openbind_xx01zvns2b_c1_elab_chemspace_filtered_scored_top20percent,openbind_xx01zvns2b_c1_elab_chemspace_filtered_scored_top60percent,openbind_xx01zvns2b_c1_elabs_filtered

>  <smiles>  (622) 
Cc1nc2ccccc2n1[C@H](C(=O)N[C@H]1CCOC1=O)C(C)C

>  <subsites>  (622) 
1 - Z4590/B/203/1

>  <gnina_score>  (622) 
5.308

>  <HIPPO Pose ID>  (622) 
74257

>  <ref_mols>  (622) 
Z0101a,Z3880a

>  <energy_score>  (622) 
-5.899702

>  <inspiration_score>  (622) 
None

>  <smina_score_min>  (622) 
-6.471

>  <fragmenstein_error>  (622) 
nan

>  <name>  (622) 
P74257

$$$$
P74262
     RDKit          3D

 23 25  0  0  0  0  0  0  0  0999 V2000
   -3.5658    5.1464  -15.2301 C   0  0  0  0  0  0  0  0  0  0  0  0
   -4.9625    5.1274  -15.7489 C   0  0  0  0  0  0  0  0  0  0  0  0
   -5.2381    5.2559  -17.0277 N   0  0  0  0  0  0  0  0  0  0  0  0
   -6.5488    4.9116  -17.1435 C   0  0  0  0  0  0  0  0  0  0  0  0
   -7.2902    4.7493  -18.3165 C   0  0  0  0  0  0  0  0  0  0  0  0
   -8.6223    4.3631  -18.2165 C   0  0  0  0  0  0  0  0  0  0  0  0
   -9.2021    4.1428  -16.9789 C   0  0  0  0  0  0  0  0  0  0  0  0
   -8.4675    4.2722  -15.8007 C   0  0  0  0  0  0  0  0  0  0  0  0
   -7.1350    4.6813  -15.8959 C   0  0  0  0  0  0  0  0  0  0  0  0
   -6.1272    4.9168  -14.9860 N   0  0  0  0  0  0  0  0  0  0  0  0
   -6.1430    4.8479  -13.4953 C   0  0  2  0  0  0  0  0  0  0  0  0
   -7.4855    4.6188  -12.7195 C   0  0  0  0  0  0  0  0  0  0  0  0
   -8.4925    5.1429  -13.0130 O   0  0  0  0  0  0  0  0  0  0  0  0
   -7.1415    3.6893  -11.5032 N   0  0  0  0  0  0  0  0  0  0  0  0
   -7.9592    3.2935  -10.3375 C   0  0  1  0  0  0  0  0  0  0  0  0
   -9.0380    2.3246  -10.7494 C   0  0  0  0  0  0  0  0  0  0  0  0
   -7.1051    2.7645   -9.1761 C   0  0  0  0  0  0  0  0  0  0  0  0
   -7.9206    3.6215   -8.1938 C   0  0  0  0  0  0  0  0  0  0  0  0
   -8.4446    4.4220   -9.3914 C   0  0  1  0  0  0  0  0  0  0  0  0
   -7.8928    5.7380   -9.5814 O   0  0  0  0  0  0  0  0  0  0  0  0
   -5.5450    6.1526  -12.9025 C   0  0  0  0  0  0  0  0  0  0  0  0
   -6.5297    7.3173  -12.8665 C   0  0  0  0  0  0  0  0  0  0  0  0
   -4.8933    5.9485  -11.5311 C   0  0  0  0  0  0  0  0  0  0  0  0
  1  2  1  0
  2  3  2  0
  3  4  1  0
  4  5  2  0
  5  6  1  0
  6  7  2  0
  7  8  1  0
  8  9  2  0
  9 10  1  0
 10 11  1  0
 11 12  1  0
 12 13  2  0
 12 14  1  0
 15 14  1  0
 15 16  1  6
 15 17  1  0
 17 18  1  0
 18 19  1  0
 19 20  1  6
 11 21  1  1
 21 22  1  0
 21 23  1  0
 10  2  1  0
 19 15  1  0
  9  4  1  0
M  END
>  <fragmenstein_outcome>  (623) 
nan

>  <exports>  (623) 
['/opt/xchem-fragalysis-2/maxwin/openbind-hippo/xx01zvns2b/cycle_01/syndirella/elabs/openbind_xx01zvns2b_c1_elab_chemspace_filtered.sdf']

>  <Energy>  (623) 
nan

>  <alias>  (623) 
None

>  <fragmenstein_runtime>  (623) 
nan

>  <scratch_subdir>  (623) 
nan

>  <HIPPO Compound ID>  (623) 
147320

>  <rmsd(smina/fragmenstein)>  (623) 
0.777

>  <distance_score>  (623) 
1.550407

>  <orig_smiles>  (623) 
nan

>  <fragmenstein_mode>  (623) 
nan

>  <inchikey>  (623) 
TVKDKIUTIQJLLO-RYRKJORJSA-N

>  <ref_pdb>  (623) 
Z3880a

>  <GNINA pK>  (623) 
nan

>  <gnina_score_min>  (623) 
5.309

>  <tags>  (623) 
openbind_xx01zvns2b_c1_elab_nonasap_filtered_scored_top80percent,openbind_xx01zvns2b_c1_elab_chemspace_filtered_scored_top80percent,openbind_xx01zvns2b_c1_elab_chemspace_filtered_scored,openbind_xx01zvns2b_c1_elab_chemspace_filtered_scored_top40percent,openbind_xx01zvns2b_c1_elab_chemspace_filtered_scored_top20percent,openbind_xx01zvns2b_c1_elab_chemspace_filtered_scored_top60percent,openbind_xx01zvns2b_c1_elabs_filtered

>  <smiles>  (623) 
Cc1nc2ccccc2n1[C@H](C(=O)N[C@@]1(C)CC[C@H]1O)C(C)C

>  <subsites>  (623) 
1 - Z4590/B/203/1

>  <gnina_score>  (623) 
5.069

>  <HIPPO Pose ID>  (623) 
74262

>  <ref_mols>  (623) 
Z0101a,Z3880a

>  <energy_score>  (623) 
-17.421929

>  <inspiration_score>  (623) 
None

>  <smina_score_min>  (623) 
-6.126

>  <fragmenstein_error>  (623) 
nan

>  <name>  (623) 
P74262

$$$$
P74271
     RDKit          3D

 23 25  0  0  0  0  0  0  0  0999 V2000
   -3.7686    5.0977  -15.0041 C   0  0  0  0  0  0  0  0  0  0  0  0
   -5.1151    5.0833  -15.6302 C   0  0  0  0  0  0  0  0  0  0  0  0
   -5.2883    5.1929  -16.9290 N   0  0  0  0  0  0  0  0  0  0  0  0
   -6.5891    4.8560  -17.1397 C   0  0  0  0  0  0  0  0  0  0  0  0
   -7.2433    4.6745  -18.3604 C   0  0  0  0  0  0  0  0  0  0  0  0
   -8.5797    4.2882  -18.3476 C   0  0  0  0  0  0  0  0  0  0  0  0
   -9.2529    4.0941  -17.1564 C   0  0  0  0  0  0  0  0  0  0  0  0
   -8.6028    4.2402  -15.9349 C   0  0  0  0  0  0  0  0  0  0  0  0
   -7.2678    4.6491  -15.9361 C   0  0  0  0  0  0  0  0  0  0  0  0
   -6.3360    4.9103  -14.9558 N   0  0  0  0  0  0  0  0  0  0  0  0
   -6.4859    4.9376  -13.4847 C   0  0  2  0  0  0  0  0  0  0  0  0
   -7.8579    4.7103  -12.7820 C   0  0  0  0  0  0  0  0  0  0  0  0
   -8.8707    5.1098  -13.2166 O   0  0  0  0  0  0  0  0  0  0  0  0
   -7.5509    3.9821  -11.4226 N   0  0  0  0  0  0  0  0  0  0  0  0
   -8.4150    3.6916  -10.2956 C   0  0  1  0  0  0  0  0  0  0  0  0
   -8.6589    2.2480   -9.8976 C   0  0  0  0  0  0  0  0  0  0  0  0
   -9.0986    2.2799   -8.5245 O   0  0  0  0  0  0  0  0  0  0  0  0
   -8.6699    3.5166   -7.9444 C   0  0  0  0  0  0  0  0  0  0  0  0
   -7.8452    4.2395   -8.9957 C   0  0  2  0  0  0  0  0  0  0  0  0
   -7.9031    5.7502   -8.8852 C   0  0  0  0  0  0  0  0  0  0  0  0
   -6.1204    6.3212  -12.8439 C   0  0  0  0  0  0  0  0  0  0  0  0
   -4.8600    6.2366  -12.0004 C   0  0  0  0  0  0  0  0  0  0  0  0
   -6.0981    7.5369  -13.7715 C   0  0  0  0  0  0  0  0  0  0  0  0
  1  2  1  0
  2  3  2  0
  3  4  1  0
  4  5  2  0
  5  6  1  0
  6  7  2  0
  7  8  1  0
  8  9  2  0
  9 10  1  0
 10 11  1  0
 11 12  1  0
 12 13  2  0
 12 14  1  0
 15 14  1  6
 15 16  1  0
 16 17  1  0
 17 18  1  0
 18 19  1  0
 19 20  1  6
 11 21  1  6
 21 22  1  0
 21 23  1  0
 10  2  1  0
 19 15  1  0
  9  4  1  0
M  END
>  <fragmenstein_outcome>  (624) 
nan

>  <exports>  (624) 
['/opt/xchem-fragalysis-2/maxwin/openbind-hippo/xx01zvns2b/cycle_01/syndirella/elabs/openbind_xx01zvns2b_c1_elab_chemspace_filtered.sdf']

>  <Energy>  (624) 
nan

>  <alias>  (624) 
None

>  <fragmenstein_runtime>  (624) 
nan

>  <scratch_subdir>  (624) 
nan

>  <HIPPO Compound ID>  (624) 
147326

>  <rmsd(smina/fragmenstein)>  (624) 
0.63

>  <distance_score>  (624) 
1.476859

>  <orig_smiles>  (624) 
nan

>  <fragmenstein_mode>  (624) 
nan

>  <inchikey>  (624) 
JDQOCCGMMWKUTK-NUTKFTJISA-N

>  <ref_pdb>  (624) 
Z3880a

>  <GNINA pK>  (624) 
nan

>  <gnina_score_min>  (624) 
5.188

>  <tags>  (624) 
openbind_xx01zvns2b_c1_elab_nonasap_filtered_scored_top80percent,openbind_xx01zvns2b_c1_elab_chemspace_filtered_scored_top80percent,openbind_xx01zvns2b_c1_elab_chemspace_filtered_scored,openbind_xx01zvns2b_c1_elab_chemspace_filtered_scored_top40percent,openbind_xx01zvns2b_c1_elab_chemspace_filtered_scored_top20percent,openbind_xx01zvns2b_c1_elab_chemspace_filtered_scored_top60percent,openbind_xx01zvns2b_c1_elabs_filtered

>  <smiles>  (624) 
Cc1nc2ccccc2n1[C@H](C(=O)N[C@H]1COC[C@@H]1C)C(C)C

>  <subsites>  (624) 
1 - Z4590/B/203/1

>  <gnina_score>  (624) 
5.397

>  <HIPPO Pose ID>  (624) 
74271

>  <ref_mols>  (624) 
Z0101a,Z3880a

>  <energy_score>  (624) 
-8.401584

>  <inspiration_score>  (624) 
None

>  <smina_score_min>  (624) 
-6.389

>  <fragmenstein_error>  (624) 
nan

>  <name>  (624) 
P74271

$$$$
P74290
     RDKit          3D

 23 25  0  0  0  0  0  0  0  0999 V2000
   -3.7769    5.1290  -15.0257 C   0  0  0  0  0  0  0  0  0  0  0  0
   -5.1263    5.0828  -15.6558 C   0  0  0  0  0  0  0  0  0  0  0  0
   -5.3054    5.1892  -16.9540 N   0  0  0  0  0  0  0  0  0  0  0  0
   -6.6056    4.8449  -17.1593 C   0  0  0  0  0  0  0  0  0  0  0  0
   -7.2643    4.6678  -18.3774 C   0  0  0  0  0  0  0  0  0  0  0  0
   -8.6018    4.2857  -18.3600 C   0  0  0  0  0  0  0  0  0  0  0  0
   -9.2721    4.0904  -17.1673 C   0  0  0  0  0  0  0  0  0  0  0  0
   -8.6170    4.2281  -15.9479 C   0  0  0  0  0  0  0  0  0  0  0  0
   -7.2806    4.6308  -15.9551 C   0  0  0  0  0  0  0  0  0  0  0  0
   -6.3445    4.8807  -14.9791 N   0  0  0  0  0  0  0  0  0  0  0  0
   -6.4809    4.8857  -13.4933 C   0  0  2  0  0  0  0  0  0  0  0  0
   -7.8659    4.6523  -12.8062 C   0  0  0  0  0  0  0  0  0  0  0  0
   -8.8537    5.1298  -13.2255 O   0  0  0  0  0  0  0  0  0  0  0  0
   -7.6159    3.8102  -11.4979 N   0  0  0  0  0  0  0  0  0  0  0  0
   -8.5329    3.4696  -10.3842 C   0  0  1  0  0  0  0  0  0  0  0  0
   -8.0243    2.5070   -9.2634 C   0  0  2  0  0  0  0  0  0  0  0  0
   -9.0931    1.7962   -8.4288 C   0  0  0  0  0  0  0  0  0  0  0  0
   -7.4766    3.7544   -8.5279 C   0  0  0  0  0  0  0  0  0  0  0  0
   -8.5373    4.5783   -9.2727 C   0  0  1  0  0  0  0  0  0  0  0  0
   -8.1436    5.9129   -9.6382 O   0  0  0  0  0  0  0  0  0  0  0  0
   -5.9660    6.2514  -12.9539 C   0  0  0  0  0  0  0  0  0  0  0  0
   -5.2862    6.0880  -11.6055 C   0  0  0  0  0  0  0  0  0  0  0  0
   -6.9992    7.3831  -12.9022 C   0  0  0  0  0  0  0  0  0  0  0  0
  1  2  1  0
  2  3  2  0
  3  4  1  0
  4  5  2  0
  5  6  1  0
  6  7  2  0
  7  8  1  0
  8  9  2  0
  9 10  1  0
 10 11  1  0
 11 12  1  0
 12 13  2  0
 12 14  1  0
 15 14  1  6
 15 16  1  0
 16 17  1  1
 16 18  1  0
 18 19  1  0
 19 20  1  6
 11 21  1  6
 21 22  1  0
 21 23  1  0
 10  2  1  0
 19 15  1  0
  9  4  1  0
M  END
>  <fragmenstein_outcome>  (625) 
nan

>  <exports>  (625) 
['/opt/xchem-fragalysis-2/maxwin/openbind-hippo/xx01zvns2b/cycle_01/syndirella/elabs/openbind_xx01zvns2b_c1_elab_chemspace_filtered.sdf']

>  <Energy>  (625) 
nan

>  <alias>  (625) 
None

>  <fragmenstein_runtime>  (625) 
nan

>  <scratch_subdir>  (625) 
nan

>  <HIPPO Compound ID>  (625) 
147353

>  <rmsd(smina/fragmenstein)>  (625) 
0.477

>  <distance_score>  (625) 
1.501155

>  <orig_smiles>  (625) 
nan

>  <fragmenstein_mode>  (625) 
nan

>  <inchikey>  (625) 
NLKYXJNUYAMFHO-JKEMJCCQSA-N

>  <ref_pdb>  (625) 
Z3880a

>  <GNINA pK>  (625) 
nan

>  <gnina_score_min>  (625) 
5.295

>  <tags>  (625) 
openbind_xx01zvns2b_c1_elab_nonasap_filtered_scored_top80percent,openbind_xx01zvns2b_c1_elab_chemspace_filtered_scored_top80percent,openbind_xx01zvns2b_c1_elab_chemspace_filtered_scored,openbind_xx01zvns2b_c1_elab_chemspace_filtered_scored_top40percent,openbind_xx01zvns2b_c1_elab_chemspace_filtered_scored_top20percent,openbind_xx01zvns2b_c1_elab_chemspace_filtered_scored_top60percent,openbind_xx01zvns2b_c1_elabs_filtered

>  <smiles>  (625) 
Cc1nc2ccccc2n1[C@H](C(=O)N[C@H]1[C@H](C)C[C@H]1O)C(C)C

>  <subsites>  (625) 
1 - Z4590/B/203/1

>  <gnina_score>  (625) 
5.231

>  <HIPPO Pose ID>  (625) 
74290

>  <ref_mols>  (625) 
Z0101a,Z3880a

>  <energy_score>  (625) 
-5.660418

>  <inspiration_score>  (625) 
None

>  <smina_score_min>  (625) 
-6.371

>  <fragmenstein_error>  (625) 
nan

>  <name>  (625) 
P74290

$$$$
P74297
     RDKit          3D

 23 25  0  0  0  0  0  0  0  0999 V2000
   -2.6445    7.0940  -16.2394 C   0  0  0  0  0  0  0  0  0  0  0  0
   -2.5949    5.6942  -15.6412 C   0  0  0  0  0  0  0  0  0  0  0  0
   -3.7763    5.3973  -14.7137 C   0  0  0  0  0  0  0  0  0  0  0  0
   -5.0715    5.1580  -15.4345 C   0  0  0  0  0  0  0  0  0  0  0  0
   -5.2122    5.1470  -16.7435 N   0  0  0  0  0  0  0  0  0  0  0  0
   -6.5130    4.8104  -16.9718 C   0  0  0  0  0  0  0  0  0  0  0  0
   -7.1550    4.6182  -18.2017 C   0  0  0  0  0  0  0  0  0  0  0  0
   -8.5061    4.2840  -18.2065 C   0  0  0  0  0  0  0  0  0  0  0  0
   -9.2080    4.1710  -17.0181 C   0  0  0  0  0  0  0  0  0  0  0  0
   -8.5806    4.3565  -15.7855 C   0  0  0  0  0  0  0  0  0  0  0  0
   -7.2191    4.6657  -15.7746 C   0  0  0  0  0  0  0  0  0  0  0  0
   -6.2889    4.8913  -14.7826 N   0  0  0  0  0  0  0  0  0  0  0  0
   -6.4819    5.0979  -13.3259 C   0  0  1  0  0  0  0  0  0  0  0  0
   -6.7857    6.5765  -13.0959 C   0  0  0  0  0  0  0  0  0  0  0  0
   -7.5808    4.3491  -12.5140 C   0  0  0  0  0  0  0  0  0  0  0  0
   -8.7149    4.4133  -12.8008 O   0  0  0  0  0  0  0  0  0  0  0  0
   -6.8801    3.6610  -11.2891 N   0  0  0  0  0  0  0  0  0  0  0  0
   -7.4628    2.9829  -10.0984 C   0  0  2  0  0  0  0  0  0  0  0  0
   -6.7465    1.6690   -9.8668 C   0  0  0  0  0  0  0  0  0  0  0  0
   -8.9949    2.8461   -9.9551 C   0  0  0  0  0  0  0  0  0  0  0  0
   -8.8423    3.2285   -8.4621 C   0  0  0  0  0  0  0  0  0  0  0  0
   -7.5527    3.9672   -8.8662 C   0  0  2  0  0  0  0  0  0  0  0  0
   -7.7172    5.3759   -9.1861 O   0  0  0  0  0  0  0  0  0  0  0  0
  1  2  1  0
  2  3  1  0
  3  4  1  0
  4  5  2  0
  5  6  1  0
  6  7  2  0
  7  8  1  0
  8  9  2  0
  9 10  1  0
 10 11  2  0
 11 12  1  0
 12 13  1  0
 13 14  1  6
 13 15  1  0
 15 16  2  0
 15 17  1  0
 18 17  1  0
 18 19  1  1
 18 20  1  0
 20 21  1  0
 21 22  1  0
 22 23  1  6
 12  4  1  0
 22 18  1  0
 11  6  1  0
M  END
>  <fragmenstein_outcome>  (626) 
nan

>  <exports>  (626) 
['/opt/xchem-fragalysis-2/maxwin/openbind-hippo/xx01zvns2b/cycle_01/syndirella/elabs/openbind_xx01zvns2b_c1_elab_chemspace_filtered.sdf']

>  <Energy>  (626) 
nan

>  <alias>  (626) 
None

>  <fragmenstein_runtime>  (626) 
nan

>  <scratch_subdir>  (626) 
nan

>  <HIPPO Compound ID>  (626) 
147360

>  <rmsd(smina/fragmenstein)>  (626) 
0.633

>  <distance_score>  (626) 
1.635507

>  <orig_smiles>  (626) 
nan

>  <fragmenstein_mode>  (626) 
nan

>  <inchikey>  (626) 
XIIXAYPILJDKGA-XLWVJDPXSA-N

>  <ref_pdb>  (626) 
Z3880a

>  <GNINA pK>  (626) 
nan

>  <gnina_score_min>  (626) 
5.24

>  <tags>  (626) 
openbind_xx01zvns2b_c1_elab_nonasap_filtered_scored_top80percent,openbind_xx01zvns2b_c1_elab_chemspace_filtered_scored_top80percent,openbind_xx01zvns2b_c1_elab_chemspace_filtered_scored,openbind_xx01zvns2b_c1_elab_chemspace_filtered_scored_top40percent,openbind_xx01zvns2b_c1_elab_chemspace_filtered_scored_top20percent,openbind_xx01zvns2b_c1_elab_chemspace_filtered_scored_top60percent,openbind_xx01zvns2b_c1_elabs_filtered

>  <smiles>  (626) 
CCCc1nc2ccccc2n1[C@@H](C)C(=O)N[C@]1(C)CC[C@@H]1O

>  <subsites>  (626) 
1 - Z4590/B/203/1

>  <gnina_score>  (626) 
5.242

>  <HIPPO Pose ID>  (626) 
74297

>  <ref_mols>  (626) 
Z0101a,Z3880a

>  <energy_score>  (626) 
-10.469138

>  <inspiration_score>  (626) 
None

>  <smina_score_min>  (626) 
-6.466

>  <fragmenstein_error>  (626) 
nan

>  <name>  (626) 
P74297

$$$$
P74303
     RDKit          3D

 23 25  0  0  0  0  0  0  0  0999 V2000
   -5.4279    6.2294  -11.4046 C   0  0  0  0  0  0  0  0  0  0  0  0
   -5.5281    6.2395  -12.9230 C   0  0  0  0  0  0  0  0  0  0  0  0
   -6.1356    7.5774  -13.3761 C   0  0  0  0  0  0  0  0  0  0  0  0
   -6.2423    4.9852  -13.4881 C   0  0  1  0  0  0  0  0  0  0  0  0
   -7.6379    4.9369  -12.7902 C   0  0  0  0  0  0  0  0  0  0  0  0
   -8.5425    5.5816  -13.1668 O   0  0  0  0  0  0  0  0  0  0  0  0
   -7.5080    4.0042  -11.5336 N   0  0  0  0  0  0  0  0  0  0  0  0
   -8.4350    3.7583  -10.4431 C   0  0  1  0  0  0  0  0  0  0  0  0
   -8.3694    2.4010   -9.7889 C   0  0  0  0  0  0  0  0  0  0  0  0
   -9.0070    2.6482   -8.4343 C   0  0  0  0  0  0  0  0  0  0  0  0
   -8.7158    4.0090   -8.0740 O   0  0  0  0  0  0  0  0  0  0  0  0
   -8.2205    4.6770   -9.2432 C   0  0  0  0  0  0  0  0  0  0  0  0
   -6.1727    4.9952  -14.9686 N   0  0  0  0  0  0  0  0  0  0  0  0
   -5.0101    5.2514  -15.6794 C   0  0  0  0  0  0  0  0  0  0  0  0
   -5.1878    5.2372  -16.9767 N   0  0  0  0  0  0  0  0  0  0  0  0
   -6.4890    4.8605  -17.1362 C   0  0  0  0  0  0  0  0  0  0  0  0
   -7.1726    4.6104  -18.3262 C   0  0  0  0  0  0  0  0  0  0  0  0
   -8.4961    4.2232  -18.2173 C   0  0  0  0  0  0  0  0  0  0  0  0
   -9.1957    3.9305  -19.3056 F   0  0  0  0  0  0  0  0  0  0  0  0
   -9.1310    4.1098  -17.0037 C   0  0  0  0  0  0  0  0  0  0  0  0
  -10.4303    3.8220  -16.9983 F   0  0  0  0  0  0  0  0  0  0  0  0
   -8.4654    4.3069  -15.8099 C   0  0  0  0  0  0  0  0  0  0  0  0
   -7.1327    4.7014  -15.9000 C   0  0  0  0  0  0  0  0  0  0  0  0
  1  2  1  0
  2  3  1  0
  4  2  1  1
  4  5  1  0
  5  6  2  0
  5  7  1  0
  8  7  1  6
  8  9  1  0
  9 10  1  0
 10 11  1  0
 11 12  1  0
  4 13  1  0
 13 14  1  0
 14 15  2  0
 15 16  1  0
 16 17  2  0
 17 18  1  0
 18 19  1  0
 18 20  2  0
 20 21  1  0
 20 22  1  0
 22 23  2  0
 12  8  1  0
 23 13  1  0
 23 16  1  0
M  END
>  <fragmenstein_outcome>  (627) 
nan

>  <exports>  (627) 
['/opt/xchem-fragalysis-2/maxwin/openbind-hippo/xx01zvns2b/cycle_01/syndirella/elabs/openbind_xx01zvns2b_c1_elab_chemspace_filtered.sdf']

>  <Energy>  (627) 
nan

>  <alias>  (627) 
None

>  <fragmenstein_runtime>  (627) 
nan

>  <scratch_subdir>  (627) 
nan

>  <HIPPO Compound ID>  (627) 
147363

>  <rmsd(smina/fragmenstein)>  (627) 
0.682

>  <distance_score>  (627) 
1.485386

>  <orig_smiles>  (627) 
nan

>  <fragmenstein_mode>  (627) 
nan

>  <inchikey>  (627) 
KPZZHYPDUISFJJ-BONVTDFDSA-N

>  <ref_pdb>  (627) 
Z3880a

>  <GNINA pK>  (627) 
nan

>  <gnina_score_min>  (627) 
5.444

>  <tags>  (627) 
openbind_xx01zvns2b_c1_elab_nonasap_filtered_scored_top80percent,openbind_xx01zvns2b_c1_elab_chemspace_filtered_scored_top80percent,openbind_xx01zvns2b_c1_elab_chemspace_filtered_scored,openbind_xx01zvns2b_c1_elab_chemspace_filtered_scored_top40percent,openbind_xx01zvns2b_c1_elab_chemspace_filtered_scored_top20percent,openbind_xx01zvns2b_c1_elab_chemspace_filtered_scored_top60percent,openbind_xx01zvns2b_c1_elabs_filtered

>  <smiles>  (627) 
CC(C)[C@@H](C(=O)N[C@H]1CCOC1)n1cnc2cc(F)c(F)cc21

>  <subsites>  (627) 
1 - Z4590/B/203/1

>  <gnina_score>  (627) 
5.267

>  <HIPPO Pose ID>  (627) 
74303

>  <ref_mols>  (627) 
Z0101a,Z3880a

>  <energy_score>  (627) 
-3.110096

>  <inspiration_score>  (627) 
None

>  <smina_score_min>  (627) 
-6.159

>  <fragmenstein_error>  (627) 
nan

>  <name>  (627) 
P74303

$$$$
P74304
     RDKit          3D

 23 25  0  0  0  0  0  0  0  0999 V2000
   -4.6681    4.2348  -13.2122 C   0  0  0  0  0  0  0  0  0  0  0  0
   -5.5703    5.3064  -13.7838 C   0  0  2  0  0  0  0  0  0  0  0  0
   -6.8508    5.5681  -12.8890 C   0  0  0  0  0  0  0  0  0  0  0  0
   -7.3758    6.6181  -12.9474 O   0  0  0  0  0  0  0  0  0  0  0  0
   -7.1710    4.3175  -11.9871 N   0  0  0  0  0  0  0  0  0  0  0  0
   -8.1432    4.1500  -10.9100 C   0  0  1  0  0  0  0  0  0  0  0  0
   -8.1937    2.7498  -10.3190 C   0  0  0  0  0  0  0  0  0  0  0  0
   -8.7965    2.9662   -8.9435 C   0  0  0  0  0  0  0  0  0  0  0  0
   -8.4347    4.2937   -8.5293 O   0  0  0  0  0  0  0  0  0  0  0  0
   -7.8747    4.9834   -9.6599 C   0  0  0  0  0  0  0  0  0  0  0  0
   -5.7836    5.1735  -15.2459 N   0  0  0  0  0  0  0  0  0  0  0  0
   -4.8509    5.4058  -16.2735 C   0  0  0  0  0  0  0  0  0  0  0  0
   -3.3983    5.7161  -16.1242 C   0  0  0  0  0  0  0  0  0  0  0  0
   -2.7952    5.9138  -17.3385 F   0  0  0  0  0  0  0  0  0  0  0  0
   -2.7112    4.7083  -15.5269 F   0  0  0  0  0  0  0  0  0  0  0  0
   -3.1855    6.8318  -15.3799 F   0  0  0  0  0  0  0  0  0  0  0  0
   -5.4168    5.2795  -17.4614 N   0  0  0  0  0  0  0  0  0  0  0  0
   -6.6836    4.8671  -17.2318 C   0  0  0  0  0  0  0  0  0  0  0  0
   -7.6546    4.5368  -18.1770 C   0  0  0  0  0  0  0  0  0  0  0  0
   -8.9118    4.1622  -17.7289 C   0  0  0  0  0  0  0  0  0  0  0  0
   -9.1713    4.0910  -16.3680 C   0  0  0  0  0  0  0  0  0  0  0  0
   -8.2049    4.3813  -15.4061 C   0  0  0  0  0  0  0  0  0  0  0  0
   -6.9551    4.7895  -15.8679 C   0  0  0  0  0  0  0  0  0  0  0  0
  2  1  1  1
  2  3  1  0
  3  4  2  0
  3  5  1  0
  6  5  1  6
  6  7  1  0
  7  8  1  0
  8  9  1  0
  9 10  1  0
  2 11  1  0
 11 12  1  0
 12 13  1  0
 13 14  1  0
 13 15  1  0
 13 16  1  0
 12 17  2  0
 17 18  1  0
 18 19  2  0
 19 20  1  0
 20 21  2  0
 21 22  1  0
 22 23  2  0
 10  6  1  0
 23 11  1  0
 23 18  1  0
M  END
>  <fragmenstein_outcome>  (628) 
nan

>  <exports>  (628) 
['/opt/xchem-fragalysis-2/maxwin/openbind-hippo/xx01zvns2b/cycle_01/syndirella/elabs/openbind_xx01zvns2b_c1_elab_chemspace_filtered.sdf']

>  <Energy>  (628) 
nan

>  <alias>  (628) 
None

>  <fragmenstein_runtime>  (628) 
nan

>  <scratch_subdir>  (628) 
nan

>  <HIPPO Compound ID>  (628) 
147368

>  <rmsd(smina/fragmenstein)>  (628) 
0.252

>  <distance_score>  (628) 
1.82634

>  <orig_smiles>  (628) 
nan

>  <fragmenstein_mode>  (628) 
nan

>  <inchikey>  (628) 
GIKXJDWKECCHHQ-ZJUUUORDSA-N

>  <ref_pdb>  (628) 
Z3880a

>  <GNINA pK>  (628) 
nan

>  <gnina_score_min>  (628) 
5.192

>  <tags>  (628) 
openbind_xx01zvns2b_c1_elab_nonasap_filtered_scored_top80percent,openbind_xx01zvns2b_c1_elab_chemspace_filtered_scored_top80percent,openbind_xx01zvns2b_c1_elab_chemspace_filtered_scored,openbind_xx01zvns2b_c1_elab_chemspace_filtered_scored_top40percent,openbind_xx01zvns2b_c1_elab_chemspace_filtered_scored_top20percent,openbind_xx01zvns2b_c1_elab_chemspace_filtered_scored_top60percent,openbind_xx01zvns2b_c1_elabs_filtered

>  <smiles>  (628) 
C[C@H](C(=O)N[C@H]1CCOC1)n1c(C(F)(F)F)nc2ccccc21

>  <subsites>  (628) 
1 - Z4590/B/203/1

>  <gnina_score>  (628) 
5.131

>  <HIPPO Pose ID>  (628) 
74304

>  <ref_mols>  (628) 
Z0101a,Z3880a

>  <energy_score>  (628) 
-13.518042

>  <inspiration_score>  (628) 
None

>  <smina_score_min>  (628) 
-6.421

>  <fragmenstein_error>  (628) 
nan

>  <name>  (628) 
P74304

$$$$
P74306
     RDKit          3D

 23 25  0  0  0  0  0  0  0  0999 V2000
   -2.2809    5.3800  -15.0057 C   0  0  0  0  0  0  0  0  0  0  0  0
   -2.9848    6.7172  -15.1764 C   0  0  0  0  0  0  0  0  0  0  0  0
   -4.4002    6.7412  -14.5940 C   0  0  0  0  0  0  0  0  0  0  0  0
   -5.3678    5.8844  -15.3491 C   0  0  0  0  0  0  0  0  0  0  0  0
   -5.4230    5.8248  -16.6704 N   0  0  0  0  0  0  0  0  0  0  0  0
   -6.5952    5.1870  -16.9663 C   0  0  0  0  0  0  0  0  0  0  0  0
   -7.1655    4.8837  -18.2061 C   0  0  0  0  0  0  0  0  0  0  0  0
   -8.4432    4.3189  -18.2257 C   0  0  0  0  0  0  0  0  0  0  0  0
   -9.1392    4.0751  -17.0479 C   0  0  0  0  0  0  0  0  0  0  0  0
   -8.5584    4.3061  -15.8043 C   0  0  0  0  0  0  0  0  0  0  0  0
   -7.2773    4.8574  -15.8031 C   0  0  0  0  0  0  0  0  0  0  0  0
   -6.3952    5.1444  -14.7780 N   0  0  0  0  0  0  0  0  0  0  0  0
   -6.4627    4.4225  -13.4929 C   0  0  1  0  0  0  0  0  0  0  0  0
   -5.1223    4.1014  -12.8662 C   0  0  0  0  0  0  0  0  0  0  0  0
   -7.4110    4.9904  -12.4209 C   0  0  0  0  0  0  0  0  0  0  0  0
   -7.7571    6.1101  -12.3969 O   0  0  0  0  0  0  0  0  0  0  0  0
   -7.7422    3.8011  -11.4451 N   0  0  0  0  0  0  0  0  0  0  0  0
   -8.4879    3.7853  -10.1963 C   0  0  1  0  0  0  0  0  0  0  0  0
   -8.7900    2.4243   -9.5826 C   0  0  0  0  0  0  0  0  0  0  0  0
   -9.1184    2.6698   -8.2045 O   0  0  0  0  0  0  0  0  0  0  0  0
   -8.5072    3.9118   -7.8235 C   0  0  0  0  0  0  0  0  0  0  0  0
   -7.7763    4.4668   -9.0412 C   0  0  2  0  0  0  0  0  0  0  0  0
   -7.8626    5.8835   -9.1119 O   0  0  0  0  0  0  0  0  0  0  0  0
  1  2  1  0
  2  3  1  0
  3  4  1  0
  4  5  2  0
  5  6  1  0
  6  7  2  0
  7  8  1  0
  8  9  2  0
  9 10  1  0
 10 11  2  0
 11 12  1  0
 12 13  1  0
 13 14  1  1
 13 15  1  0
 15 16  2  0
 15 17  1  0
 18 17  1  6
 18 19  1  0
 19 20  1  0
 20 21  1  0
 21 22  1  0
 22 23  1  6
 12  4  1  0
 22 18  1  0
 11  6  1  0
M  END
>  <fragmenstein_outcome>  (629) 
nan

>  <exports>  (629) 
['/opt/xchem-fragalysis-2/maxwin/openbind-hippo/xx01zvns2b/cycle_01/syndirella/elabs/openbind_xx01zvns2b_c1_elab_chemspace_filtered.sdf']

>  <Energy>  (629) 
nan

>  <alias>  (629) 
None

>  <fragmenstein_runtime>  (629) 
nan

>  <scratch_subdir>  (629) 
nan

>  <HIPPO Compound ID>  (629) 
147372

>  <rmsd(smina/fragmenstein)>  (629) 
0.464

>  <distance_score>  (629) 
1.505635

>  <orig_smiles>  (629) 
nan

>  <fragmenstein_mode>  (629) 
nan

>  <inchikey>  (629) 
XUFLIJUQFODOTI-WHOFXGATSA-N

>  <ref_pdb>  (629) 
Z3880a

>  <GNINA pK>  (629) 
nan

>  <gnina_score_min>  (629) 
5.145

>  <tags>  (629) 
openbind_xx01zvns2b_c1_elab_nonasap_filtered_scored_top80percent,openbind_xx01zvns2b_c1_elab_chemspace_filtered_scored_top80percent,openbind_xx01zvns2b_c1_elab_chemspace_filtered_scored,openbind_xx01zvns2b_c1_elab_chemspace_filtered_scored_top40percent,openbind_xx01zvns2b_c1_elab_chemspace_filtered_scored_top20percent,openbind_xx01zvns2b_c1_elab_chemspace_filtered_scored_top60percent,openbind_xx01zvns2b_c1_elabs_filtered

>  <smiles>  (629) 
CCCc1nc2ccccc2n1[C@@H](C)C(=O)N[C@H]1COC[C@@H]1O

>  <subsites>  (629) 
1 - Z4590/B/203/1

>  <gnina_score>  (629) 
5.156

>  <HIPPO Pose ID>  (629) 
74306

>  <ref_mols>  (629) 
Z0101a,Z3880a

>  <energy_score>  (629) 
-2.188793

>  <inspiration_score>  (629) 
None

>  <smina_score_min>  (629) 
-6.037

>  <fragmenstein_error>  (629) 
nan

>  <name>  (629) 
P74306

$$$$
P74313
     RDKit          3D

 23 25  0  0  0  0  0  0  0  0999 V2000
   -2.0521    5.7428  -16.3656 C   0  0  0  0  0  0  0  0  0  0  0  0
   -2.7949    7.0391  -16.0728 C   0  0  0  0  0  0  0  0  0  0  0  0
   -3.9455    6.8528  -15.0806 C   0  0  0  0  0  0  0  0  0  0  0  0
   -5.1065    6.0868  -15.6436 C   0  0  0  0  0  0  0  0  0  0  0  0
   -5.3406    5.9127  -16.9285 N   0  0  0  0  0  0  0  0  0  0  0  0
   -6.5299    5.2462  -17.0019 C   0  0  0  0  0  0  0  0  0  0  0  0
   -7.2376    4.8502  -18.1426 C   0  0  0  0  0  0  0  0  0  0  0  0
   -8.4947    4.2751  -17.9780 C   0  0  0  0  0  0  0  0  0  0  0  0
   -9.0143    4.0750  -16.7040 C   0  0  0  0  0  0  0  0  0  0  0  0
   -8.2904    4.3870  -15.5508 C   0  0  0  0  0  0  0  0  0  0  0  0
   -7.0501    4.9995  -15.7308 C   0  0  0  0  0  0  0  0  0  0  0  0
   -6.1048    5.4948  -14.8634 N   0  0  0  0  0  0  0  0  0  0  0  0
   -6.0224    5.3022  -13.3938 C   0  0  2  0  0  0  0  0  0  0  0  0
   -5.0806    4.1500  -13.1142 C   0  0  0  0  0  0  0  0  0  0  0  0
   -7.3748    5.3309  -12.5894 C   0  0  0  0  0  0  0  0  0  0  0  0
   -8.1452    6.1926  -12.7981 O   0  0  0  0  0  0  0  0  0  0  0  0
   -7.4007    4.1813  -11.5190 N   0  0  0  0  0  0  0  0  0  0  0  0
   -8.3334    3.9238  -10.4326 C   0  0  1  0  0  0  0  0  0  0  0  0
   -8.4114    2.4709   -9.9838 C   0  0  0  0  0  0  0  0  0  0  0  0
   -9.0299    2.5439   -8.5902 C   0  0  0  0  0  0  0  0  0  0  0  0
   -8.5430    3.8602   -7.9892 C   0  0  0  0  0  0  0  0  0  0  0  0
   -7.9115    4.6413   -9.1414 C   0  0  2  0  0  0  0  0  0  0  0  0
   -8.3269    5.9984   -9.1254 O   0  0  0  0  0  0  0  0  0  0  0  0
  1  2  1  0
  2  3  1  0
  3  4  1  0
  4  5  2  0
  5  6  1  0
  6  7  2  0
  7  8  1  0
  8  9  2  0
  9 10  1  0
 10 11  2  0
 11 12  1  0
 12 13  1  0
 13 14  1  6
 13 15  1  0
 15 16  2  0
 15 17  1  0
 18 17  1  6
 18 19  1  0
 19 20  1  0
 20 21  1  0
 21 22  1  0
 22 23  1  6
 12  4  1  0
 22 18  1  0
 11  6  1  0
M  END
>  <fragmenstein_outcome>  (630) 
nan

>  <exports>  (630) 
['/opt/xchem-fragalysis-2/maxwin/openbind-hippo/xx01zvns2b/cycle_01/syndirella/elabs/openbind_xx01zvns2b_c1_elab_chemspace_filtered.sdf']

>  <Energy>  (630) 
nan

>  <alias>  (630) 
None

>  <fragmenstein_runtime>  (630) 
nan

>  <scratch_subdir>  (630) 
nan

>  <HIPPO Compound ID>  (630) 
147385

>  <rmsd(smina/fragmenstein)>  (630) 
0.414

>  <distance_score>  (630) 
1.562464

>  <orig_smiles>  (630) 
nan

>  <fragmenstein_mode>  (630) 
nan

>  <inchikey>  (630) 
HKXNKPLNTMUIJL-INWMFGNUSA-N

>  <ref_pdb>  (630) 
Z3880a

>  <GNINA pK>  (630) 
nan

>  <gnina_score_min>  (630) 
5.213

>  <tags>  (630) 
openbind_xx01zvns2b_c1_elab_nonasap_filtered_scored_top80percent,openbind_xx01zvns2b_c1_elab_chemspace_filtered_scored_top80percent,openbind_xx01zvns2b_c1_elab_chemspace_filtered_scored,openbind_xx01zvns2b_c1_elab_chemspace_filtered_scored_top40percent,openbind_xx01zvns2b_c1_elab_chemspace_filtered_scored_top20percent,openbind_xx01zvns2b_c1_elab_chemspace_filtered_scored_top60percent,openbind_xx01zvns2b_c1_elabs_filtered

>  <smiles>  (630) 
CCCc1nc2ccccc2n1[C@H](C)C(=O)N[C@H]1CCC[C@@H]1O

>  <subsites>  (630) 
1 - Z4590/B/203/1

>  <gnina_score>  (630) 
5.207

>  <HIPPO Pose ID>  (630) 
74313

>  <ref_mols>  (630) 
Z0101a,Z3880a

>  <energy_score>  (630) 
-8.684006

>  <inspiration_score>  (630) 
None

>  <smina_score_min>  (630) 
-6.192

>  <fragmenstein_error>  (630) 
nan

>  <name>  (630) 
P74313

$$$$
P74318
     RDKit          3D

 23 26  0  0  0  0  0  0  0  0999 V2000
   -2.6006    7.2753  -16.5619 C   0  0  0  0  0  0  0  0  0  0  0  0
   -2.8478    6.6114  -15.2132 C   0  0  0  0  0  0  0  0  0  0  0  0
   -3.4423    5.2065  -15.3293 C   0  0  0  0  0  0  0  0  0  0  0  0
   -4.8712    5.1984  -15.7773 C   0  0  0  0  0  0  0  0  0  0  0  0
   -5.1893    5.3170  -17.0494 N   0  0  0  0  0  0  0  0  0  0  0  0
   -6.4961    4.9513  -17.1333 C   0  0  0  0  0  0  0  0  0  0  0  0
   -7.2725    4.7841  -18.2836 C   0  0  0  0  0  0  0  0  0  0  0  0
   -8.5953    4.3754  -18.1438 C   0  0  0  0  0  0  0  0  0  0  0  0
   -9.1286    4.1323  -16.8878 C   0  0  0  0  0  0  0  0  0  0  0  0
   -8.3564    4.2587  -15.7327 C   0  0  0  0  0  0  0  0  0  0  0  0
   -7.0360    4.6979  -15.8724 C   0  0  0  0  0  0  0  0  0  0  0  0
   -6.0052    4.9480  -14.9842 N   0  0  0  0  0  0  0  0  0  0  0  0
   -6.0243    4.7854  -13.5089 C   0  0  1  0  0  0  0  0  0  0  0  0
   -5.2322    5.9007  -12.8194 C   0  0  0  0  0  0  0  0  0  0  0  0
   -7.3638    4.9049  -12.7370 C   0  0  0  0  0  0  0  0  0  0  0  0
   -8.2703    5.5468  -13.1212 O   0  0  0  0  0  0  0  0  0  0  0  0
   -7.1724    4.1132  -11.3809 N   0  0  0  0  0  0  0  0  0  0  0  0
   -8.0064    4.0435  -10.2244 C   0  0  1  0  0  0  0  0  0  0  0  0
   -8.9087    2.8459  -10.0250 C   0  0  0  0  0  0  0  0  0  0  0  0
   -9.4347    2.9169   -8.6841 O   0  0  0  0  0  0  0  0  0  0  0  0
   -8.4842    3.6255   -7.8821 C   0  0  0  0  0  0  0  0  0  0  0  0
   -7.6240    4.3968   -8.8302 C   0  0  2  0  0  0  0  0  0  0  0  0
   -8.2940    5.4337   -9.6500 C   0  0  0  0  0  0  0  0  0  0  0  0
  1  2  1  0
  2  3  1  0
  3  4  1  0
  4  5  2  0
  5  6  1  0
  6  7  2  0
  7  8  1  0
  8  9  2  0
  9 10  1  0
 10 11  2  0
 11 12  1  0
 12 13  1  0
 13 14  1  1
 13 15  1  0
 15 16  2  0
 15 17  1  0
 18 17  1  6
 18 19  1  0
 19 20  1  0
 20 21  1  0
 22 21  1  1
 22 23  1  0
 12  4  1  0
 22 18  1  0
 11  6  1  0
 23 18  1  0
M  END
>  <fragmenstein_outcome>  (631) 
nan

>  <exports>  (631) 
['/opt/xchem-fragalysis-2/maxwin/openbind-hippo/xx01zvns2b/cycle_01/syndirella/elabs/openbind_xx01zvns2b_c1_elab_chemspace_filtered.sdf']

>  <Energy>  (631) 
nan

>  <alias>  (631) 
None

>  <fragmenstein_runtime>  (631) 
nan

>  <scratch_subdir>  (631) 
nan

>  <HIPPO Compound ID>  (631) 
147387

>  <rmsd(smina/fragmenstein)>  (631) 
0.904

>  <distance_score>  (631) 
1.492141

>  <orig_smiles>  (631) 
nan

>  <fragmenstein_mode>  (631) 
nan

>  <inchikey>  (631) 
HRJZYISTZOBOMU-LXIYXOSZSA-N

>  <ref_pdb>  (631) 
Z3880a

>  <GNINA pK>  (631) 
nan

>  <gnina_score_min>  (631) 
5.329

>  <tags>  (631) 
openbind_xx01zvns2b_c1_elab_nonasap_filtered_scored_top80percent,openbind_xx01zvns2b_c1_elab_chemspace_filtered_scored_top80percent,openbind_xx01zvns2b_c1_elab_chemspace_filtered_scored,openbind_xx01zvns2b_c1_elab_chemspace_filtered_scored_top40percent,openbind_xx01zvns2b_c1_elab_chemspace_filtered_scored_top20percent,openbind_xx01zvns2b_c1_elab_chemspace_filtered_scored_top60percent,openbind_xx01zvns2b_c1_elabs_filtered

>  <smiles>  (631) 
CCCc1nc2ccccc2n1[C@@H](C)C(=O)N[C@@]12COC[C@@H]1C2

>  <subsites>  (631) 
1 - Z4590/B/203/1

>  <gnina_score>  (631) 
5.318

>  <HIPPO Pose ID>  (631) 
74318

>  <ref_mols>  (631) 
Z0101a,Z3880a

>  <energy_score>  (631) 
-3.656157

>  <inspiration_score>  (631) 
None

>  <smina_score_min>  (631) 
-6.003

>  <fragmenstein_error>  (631) 
nan

>  <name>  (631) 
P74318

$$$$
P74330
     RDKit          3D

 23 25  0  0  0  0  0  0  0  0999 V2000
   -4.7219    8.9076  -15.0961 C   0  0  0  0  0  0  0  0  0  0  0  0
   -4.3649    7.7536  -14.1697 C   0  0  0  0  0  0  0  0  0  0  0  0
   -3.9707    6.4872  -14.9315 C   0  0  0  0  0  0  0  0  0  0  0  0
   -5.1400    5.7830  -15.5472 C   0  0  0  0  0  0  0  0  0  0  0  0
   -5.3115    5.7243  -16.8569 N   0  0  0  0  0  0  0  0  0  0  0  0
   -6.5325    5.1469  -17.0517 C   0  0  0  0  0  0  0  0  0  0  0  0
   -7.2005    4.8577  -18.2450 C   0  0  0  0  0  0  0  0  0  0  0  0
   -8.4940    4.3375  -18.1726 C   0  0  0  0  0  0  0  0  0  0  0  0
   -9.1067    4.1129  -16.9456 C   0  0  0  0  0  0  0  0  0  0  0  0
   -8.4321    4.3349  -15.7469 C   0  0  0  0  0  0  0  0  0  0  0  0
   -7.1390    4.8555  -15.8372 C   0  0  0  0  0  0  0  0  0  0  0  0
   -6.1824    5.1450  -14.8772 N   0  0  0  0  0  0  0  0  0  0  0  0
   -6.2397    4.5261  -13.5387 C   0  0  1  0  0  0  0  0  0  0  0  0
   -4.9474    4.4884  -12.7544 C   0  0  0  0  0  0  0  0  0  0  0  0
   -7.3706    5.0067  -12.6021 C   0  0  0  0  0  0  0  0  0  0  0  0
   -7.9022    6.0465  -12.7120 O   0  0  0  0  0  0  0  0  0  0  0  0
   -7.5769    3.8637  -11.5376 N   0  0  0  0  0  0  0  0  0  0  0  0
   -8.4091    3.8232  -10.3499 C   0  0  1  0  0  0  0  0  0  0  0  0
   -8.6664    2.4305   -9.8082 C   0  0  0  0  0  0  0  0  0  0  0  0
   -9.0686    2.6828   -8.3653 C   0  0  0  0  0  0  0  0  0  0  0  0
   -8.5348    3.9645   -7.9851 O   0  0  0  0  0  0  0  0  0  0  0  0
   -7.8090    4.4860   -9.1132 C   0  0  2  0  0  0  0  0  0  0  0  0
   -7.9063    5.9951   -9.1239 C   0  0  0  0  0  0  0  0  0  0  0  0
  1  2  1  0
  2  3  1  0
  3  4  1  0
  4  5  2  0
  5  6  1  0
  6  7  2  0
  7  8  1  0
  8  9  2  0
  9 10  1  0
 10 11  2  0
 11 12  1  0
 12 13  1  0
 13 14  1  1
 13 15  1  0
 15 16  2  0
 15 17  1  0
 18 17  1  6
 18 19  1  0
 19 20  1  0
 20 21  1  0
 21 22  1  0
 22 23  1  6
 12  4  1  0
 22 18  1  0
 11  6  1  0
M  END
>  <fragmenstein_outcome>  (632) 
nan

>  <exports>  (632) 
['/opt/xchem-fragalysis-2/maxwin/openbind-hippo/xx01zvns2b/cycle_01/syndirella/elabs/openbind_xx01zvns2b_c1_elab_chemspace_filtered.sdf']

>  <Energy>  (632) 
nan

>  <alias>  (632) 
None

>  <fragmenstein_runtime>  (632) 
nan

>  <scratch_subdir>  (632) 
nan

>  <HIPPO Compound ID>  (632) 
147392

>  <rmsd(smina/fragmenstein)>  (632) 
0.713

>  <distance_score>  (632) 
1.465593

>  <orig_smiles>  (632) 
nan

>  <fragmenstein_mode>  (632) 
nan

>  <inchikey>  (632) 
VORPRWCTMKDJFJ-MJBXVCDLSA-N

>  <ref_pdb>  (632) 
Z3880a

>  <GNINA pK>  (632) 
nan

>  <gnina_score_min>  (632) 
5.323

>  <tags>  (632) 
openbind_xx01zvns2b_c1_elab_nonasap_filtered_scored_top80percent,openbind_xx01zvns2b_c1_elab_chemspace_filtered_scored_top80percent,openbind_xx01zvns2b_c1_elab_chemspace_filtered_scored,openbind_xx01zvns2b_c1_elab_chemspace_filtered_scored_top40percent,openbind_xx01zvns2b_c1_elab_chemspace_filtered_scored_top20percent,openbind_xx01zvns2b_c1_elab_chemspace_filtered_scored_top60percent,openbind_xx01zvns2b_c1_elabs_filtered

>  <smiles>  (632) 
CCCc1nc2ccccc2n1[C@@H](C)C(=O)N[C@H]1CCO[C@@H]1C

>  <subsites>  (632) 
1 - Z4590/B/203/1

>  <gnina_score>  (632) 
5.341

>  <HIPPO Pose ID>  (632) 
74330

>  <ref_mols>  (632) 
Z0101a,Z3880a

>  <energy_score>  (632) 
-3.507434

>  <inspiration_score>  (632) 
None

>  <smina_score_min>  (632) 
-6.015

>  <fragmenstein_error>  (632) 
nan

>  <name>  (632) 
P74330

$$$$
P74333
     RDKit          3D

 23 25  0  0  0  0  0  0  0  0999 V2000
   -2.3397    5.3151  -14.5674 C   0  0  0  0  0  0  0  0  0  0  0  0
   -2.6222    6.5920  -15.3430 C   0  0  0  0  0  0  0  0  0  0  0  0
   -3.9945    7.1973  -15.0440 C   0  0  0  0  0  0  0  0  0  0  0  0
   -5.1281    6.3652  -15.5579 C   0  0  0  0  0  0  0  0  0  0  0  0
   -5.3484    6.1614  -16.8432 N   0  0  0  0  0  0  0  0  0  0  0  0
   -6.5040    5.4355  -16.9164 C   0  0  0  0  0  0  0  0  0  0  0  0
   -7.1838    4.9724  -18.0516 C   0  0  0  0  0  0  0  0  0  0  0  0
   -8.3996    4.3117  -17.8797 C   0  0  0  0  0  0  0  0  0  0  0  0
   -8.9068    4.0977  -16.6023 C   0  0  0  0  0  0  0  0  0  0  0  0
   -8.2136    4.4935  -15.4558 C   0  0  0  0  0  0  0  0  0  0  0  0
   -7.0170    5.1882  -15.6443 C   0  0  0  0  0  0  0  0  0  0  0  0
   -6.0991    5.7434  -14.7698 N   0  0  0  0  0  0  0  0  0  0  0  0
   -5.9704    5.4235  -13.3238 C   0  0  2  0  0  0  0  0  0  0  0  0
   -5.5916    3.9579  -13.2090 C   0  0  0  0  0  0  0  0  0  0  0  0
   -7.1924    5.7075  -12.4045 C   0  0  0  0  0  0  0  0  0  0  0  0
   -8.1935    6.1846  -12.7904 O   0  0  0  0  0  0  0  0  0  0  0  0
   -6.7965    5.1849  -10.9664 N   0  0  0  0  0  0  0  0  0  0  0  0
   -7.5971    5.0626   -9.7476 C   0  0  1  0  0  0  0  0  0  0  0  0
   -8.3734    6.3564   -9.5028 C   0  0  0  0  0  0  0  0  0  0  0  0
   -8.4557    3.7933   -9.7490 C   0  0  0  0  0  0  0  0  0  0  0  0
   -8.6292    3.4341   -8.2781 C   0  0  0  0  0  0  0  0  0  0  0  0
   -7.6617    4.2015   -7.5422 O   0  0  0  0  0  0  0  0  0  0  0  0
   -6.7575    4.7611   -8.5019 C   0  0  0  0  0  0  0  0  0  0  0  0
  1  2  1  0
  2  3  1  0
  3  4  1  0
  4  5  2  0
  5  6  1  0
  6  7  2  0
  7  8  1  0
  8  9  2  0
  9 10  1  0
 10 11  2  0
 11 12  1  0
 12 13  1  0
 13 14  1  6
 13 15  1  0
 15 16  2  0
 15 17  1  0
 18 17  1  0
 18 19  1  1
 18 20  1  0
 20 21  1  0
 21 22  1  0
 22 23  1  0
 12  4  1  0
 23 18  1  0
 11  6  1  0
M  END
>  <fragmenstein_outcome>  (633) 
nan

>  <exports>  (633) 
['/opt/xchem-fragalysis-2/maxwin/openbind-hippo/xx01zvns2b/cycle_01/syndirella/elabs/openbind_xx01zvns2b_c1_elab_chemspace_filtered.sdf']

>  <Energy>  (633) 
nan

>  <alias>  (633) 
None

>  <fragmenstein_runtime>  (633) 
nan

>  <scratch_subdir>  (633) 
nan

>  <HIPPO Compound ID>  (633) 
147393

>  <rmsd(smina/fragmenstein)>  (633) 
1.151

>  <distance_score>  (633) 
1.847676

>  <orig_smiles>  (633) 
nan

>  <fragmenstein_mode>  (633) 
nan

>  <inchikey>  (633) 
NSJFGRGBMWKVON-ACJLOTCBSA-N

>  <ref_pdb>  (633) 
Z3880a

>  <GNINA pK>  (633) 
nan

>  <gnina_score_min>  (633) 
5.223

>  <tags>  (633) 
openbind_xx01zvns2b_c1_elab_nonasap_filtered_scored_top80percent,openbind_xx01zvns2b_c1_elab_chemspace_filtered_scored_top80percent,openbind_xx01zvns2b_c1_elab_chemspace_filtered_scored,openbind_xx01zvns2b_c1_elab_chemspace_filtered_scored_top40percent,openbind_xx01zvns2b_c1_elab_chemspace_filtered_scored_top20percent,openbind_xx01zvns2b_c1_elab_chemspace_filtered_scored_top60percent,openbind_xx01zvns2b_c1_elabs_filtered

>  <smiles>  (633) 
CCCc1nc2ccccc2n1[C@H](C)C(=O)N[C@@]1(C)CCOC1

>  <subsites>  (633) 
1 - Z4590/B/203/1

>  <gnina_score>  (633) 
5.191

>  <HIPPO Pose ID>  (633) 
74333

>  <ref_mols>  (633) 
Z0101a,Z3880a

>  <energy_score>  (633) 
-5.706158

>  <inspiration_score>  (633) 
None

>  <smina_score_min>  (633) 
-5.493

>  <fragmenstein_error>  (633) 
nan

>  <name>  (633) 
P74333

$$$$
P74343
     RDKit          3D

 23 25  0  0  0  0  0  0  0  0999 V2000
   -2.1231    7.0072  -14.0016 C   0  0  0  0  0  0  0  0  0  0  0  0
   -3.2175    6.5581  -14.9572 C   0  0  0  0  0  0  0  0  0  0  0  0
   -4.2355    5.6548  -14.2562 C   0  0  0  0  0  0  0  0  0  0  0  0
   -5.3351    5.2197  -15.1726 C   0  0  0  0  0  0  0  0  0  0  0  0
   -5.2609    5.2248  -16.4964 N   0  0  0  0  0  0  0  0  0  0  0  0
   -6.4748    4.7881  -16.9502 C   0  0  0  0  0  0  0  0  0  0  0  0
   -6.9370    4.5828  -18.2545 C   0  0  0  0  0  0  0  0  0  0  0  0
   -8.2574    4.1549  -18.4326 C   0  0  0  0  0  0  0  0  0  0  0  0
   -9.1213    3.9988  -17.3600 C   0  0  0  0  0  0  0  0  0  0  0  0
   -8.6707    4.1852  -16.0620 C   0  0  0  0  0  0  0  0  0  0  0  0
   -7.3301    4.5460  -15.8873 C   0  0  0  0  0  0  0  0  0  0  0  0
   -6.5650    4.7485  -14.7462 N   0  0  0  0  0  0  0  0  0  0  0  0
   -7.2138    4.6931  -13.4193 C   0  0  2  0  0  0  0  0  0  0  0  0
   -7.7933    6.0685  -13.1012 C   0  0  0  0  0  0  0  0  0  0  0  0
   -6.4918    4.1527  -12.1712 C   0  0  0  0  0  0  0  0  0  0  0  0
   -5.3286    4.1440  -12.0317 O   0  0  0  0  0  0  0  0  0  0  0  0
   -7.6422    3.7525  -11.1701 N   0  0  0  0  0  0  0  0  0  0  0  0
   -7.5801    3.3555   -9.7700 C   0  0  2  0  0  0  0  0  0  0  0  0
   -8.4627    2.1609   -9.3725 C   0  0  0  0  0  0  0  0  0  0  0  0
   -9.2020    2.5182   -8.1829 O   0  0  0  0  0  0  0  0  0  0  0  0
   -8.6434    3.7328   -7.6845 C   0  0  0  0  0  0  0  0  0  0  0  0
   -8.1864    4.4682   -8.9221 C   0  0  1  0  0  0  0  0  0  0  0  0
   -7.2594    5.6288   -8.6513 C   0  0  0  0  0  0  0  0  0  0  0  0
  1  2  1  0
  2  3  1  0
  3  4  1  0
  4  5  2  0
  5  6  1  0
  6  7  2  0
  7  8  1  0
  8  9  2  0
  9 10  1  0
 10 11  2  0
 11 12  1  0
 12 13  1  0
 13 14  1  1
 13 15  1  0
 15 16  2  0
 15 17  1  0
 18 17  1  6
 18 19  1  0
 19 20  1  0
 20 21  1  0
 21 22  1  0
 22 23  1  1
 12  4  1  0
 22 18  1  0
 11  6  1  0
M  END
>  <fragmenstein_outcome>  (634) 
nan

>  <exports>  (634) 
['/opt/xchem-fragalysis-2/maxwin/openbind-hippo/xx01zvns2b/cycle_01/syndirella/elabs/openbind_xx01zvns2b_c1_elab_chemspace_filtered.sdf']

>  <Energy>  (634) 
nan

>  <alias>  (634) 
None

>  <fragmenstein_runtime>  (634) 
nan

>  <scratch_subdir>  (634) 
nan

>  <HIPPO Compound ID>  (634) 
147401

>  <rmsd(smina/fragmenstein)>  (634) 
0.726

>  <distance_score>  (634) 
1.572797

>  <orig_smiles>  (634) 
nan

>  <fragmenstein_mode>  (634) 
nan

>  <inchikey>  (634) 
LNPVPWRQVILELM-UMVBOHGHSA-N

>  <ref_pdb>  (634) 
Z3880a

>  <GNINA pK>  (634) 
nan

>  <gnina_score_min>  (634) 
5.16

>  <tags>  (634) 
openbind_xx01zvns2b_c1_elab_nonasap_filtered_scored_top80percent,openbind_xx01zvns2b_c1_elab_chemspace_filtered_scored_top80percent,openbind_xx01zvns2b_c1_elab_chemspace_filtered_scored,openbind_xx01zvns2b_c1_elab_chemspace_filtered_scored_top40percent,openbind_xx01zvns2b_c1_elab_chemspace_filtered_scored_top20percent,openbind_xx01zvns2b_c1_elab_chemspace_filtered_scored_top60percent,openbind_xx01zvns2b_c1_elabs_filtered

>  <smiles>  (634) 
CCCc1nc2ccccc2n1[C@H](C)C(=O)N[C@@H]1COC[C@H]1C

>  <subsites>  (634) 
1 - Z4590/B/203/1

>  <gnina_score>  (634) 
5.242

>  <HIPPO Pose ID>  (634) 
74343

>  <ref_mols>  (634) 
Z0101a,Z3880a

>  <energy_score>  (634) 
-8.295275

>  <inspiration_score>  (634) 
None

>  <smina_score_min>  (634) 
-6.325

>  <fragmenstein_error>  (634) 
nan

>  <name>  (634) 
P74343

$$$$
P74345
     RDKit          3D

 23 25  0  0  0  0  0  0  0  0999 V2000
   -8.2991    5.7510   -8.9632 C   0  0  0  0  0  0  0  0  0  0  0  0
   -8.4721    4.4344   -9.1440 C   0  0  0  0  0  0  0  0  0  0  0  0
   -8.5328    3.4201   -8.0374 C   0  0  0  0  0  0  0  0  0  0  0  0
   -8.2892    2.1554   -8.6716 O   0  0  0  0  0  0  0  0  0  0  0  0
   -7.6903    2.4470   -9.9511 C   0  0  0  0  0  0  0  0  0  0  0  0
   -8.4859    3.6423  -10.4161 C   0  0  2  0  0  0  0  0  0  0  0  0
   -8.1070    4.4317  -11.5539 N   0  0  0  0  0  0  0  0  0  0  0  0
   -6.8404    4.3483  -12.4732 C   0  0  0  0  0  0  0  0  0  0  0  0
   -5.8872    3.6757  -12.3895 O   0  0  0  0  0  0  0  0  0  0  0  0
   -7.0338    5.4584  -13.5272 C   0  0  1  0  0  0  0  0  0  0  0  0
   -6.7114    6.8043  -12.9096 C   0  0  0  0  0  0  0  0  0  0  0  0
   -6.4485    5.2194  -14.8539 N   0  0  0  0  0  0  0  0  0  0  0  0
   -5.2436    5.6476  -15.3966 C   0  0  0  0  0  0  0  0  0  0  0  0
   -4.1263    6.2331  -14.5885 C   0  0  0  0  0  0  0  0  0  0  0  0
   -2.8516    6.5114  -15.3852 C   0  0  0  0  0  0  0  0  0  0  0  0
   -2.1003    5.2495  -15.7621 C   0  0  0  0  0  0  0  0  0  0  0  0
   -5.2467    5.5238  -16.7139 N   0  0  0  0  0  0  0  0  0  0  0  0
   -6.4544    4.9715  -17.0414 C   0  0  0  0  0  0  0  0  0  0  0  0
   -6.9809    4.6443  -18.2956 C   0  0  0  0  0  0  0  0  0  0  0  0
   -8.2843    4.1441  -18.3612 C   0  0  0  0  0  0  0  0  0  0  0  0
   -9.0502    3.9768  -17.2159 C   0  0  0  0  0  0  0  0  0  0  0  0
   -8.5267    4.2559  -15.9582 C   0  0  0  0  0  0  0  0  0  0  0  0
   -7.2258    4.7672  -15.9060 C   0  0  0  0  0  0  0  0  0  0  0  0
  1  2  2  0
  2  3  1  0
  3  4  1  0
  4  5  1  0
  5  6  1  0
  6  7  1  6
  7  8  1  0
  8  9  2  0
  8 10  1  0
 10 11  1  1
 10 12  1  0
 12 13  1  0
 13 14  1  0
 14 15  1  0
 15 16  1  0
 13 17  2  0
 17 18  1  0
 18 19  2  0
 19 20  1  0
 20 21  2  0
 21 22  1  0
 22 23  2  0
  6  2  1  0
 23 12  1  0
 23 18  1  0
M  END
>  <fragmenstein_outcome>  (635) 
nan

>  <exports>  (635) 
['/opt/xchem-fragalysis-2/maxwin/openbind-hippo/xx01zvns2b/cycle_01/syndirella/elabs/openbind_xx01zvns2b_c1_elab_chemspace_filtered.sdf']

>  <Energy>  (635) 
nan

>  <alias>  (635) 
None

>  <fragmenstein_runtime>  (635) 
nan

>  <scratch_subdir>  (635) 
nan

>  <HIPPO Compound ID>  (635) 
147403

>  <rmsd(smina/fragmenstein)>  (635) 
0.588

>  <distance_score>  (635) 
1.615722

>  <orig_smiles>  (635) 
nan

>  <fragmenstein_mode>  (635) 
nan

>  <inchikey>  (635) 
ZCPLNLBXMOCNAQ-HIFRSBDPSA-N

>  <ref_pdb>  (635) 
Z3880a

>  <GNINA pK>  (635) 
nan

>  <gnina_score_min>  (635) 
5.249

>  <tags>  (635) 
openbind_xx01zvns2b_c1_elab_nonasap_filtered_scored_top80percent,openbind_xx01zvns2b_c1_elab_chemspace_filtered_scored_top80percent,openbind_xx01zvns2b_c1_elab_chemspace_filtered_scored,openbind_xx01zvns2b_c1_elab_chemspace_filtered_scored_top40percent,openbind_xx01zvns2b_c1_elab_chemspace_filtered_scored_top20percent,openbind_xx01zvns2b_c1_elab_chemspace_filtered_scored_top60percent,openbind_xx01zvns2b_c1_elabs_filtered

>  <smiles>  (635) 
C=C1COC[C@@H]1NC(=O)[C@@H](C)n1c(CCC)nc2ccccc21

>  <subsites>  (635) 
1 - Z4590/B/203/1

>  <gnina_score>  (635) 
5.354

>  <HIPPO Pose ID>  (635) 
74345

>  <ref_mols>  (635) 
Z0101a,Z3880a

>  <energy_score>  (635) 
-4.56639

>  <inspiration_score>  (635) 
None

>  <smina_score_min>  (635) 
-6.224

>  <fragmenstein_error>  (635) 
nan

>  <name>  (635) 
P74345

$$$$
P74352
     RDKit          3D

 24 26  0  0  0  0  0  0  0  0999 V2000
   -2.2924    4.9829  -14.8141 C   0  0  0  0  0  0  0  0  0  0  0  0
   -3.0195    6.3171  -14.8154 C   0  0  0  0  0  0  0  0  0  0  0  0
   -4.4377    6.2191  -14.2527 C   0  0  0  0  0  0  0  0  0  0  0  0
   -5.3940    5.4801  -15.1394 C   0  0  0  0  0  0  0  0  0  0  0  0
   -5.2938    5.4109  -16.4590 N   0  0  0  0  0  0  0  0  0  0  0  0
   -6.4709    4.8732  -16.9009 C   0  0  0  0  0  0  0  0  0  0  0  0
   -6.9148    4.6249  -18.2052 C   0  0  0  0  0  0  0  0  0  0  0  0
   -8.2151    4.1446  -18.3871 C   0  0  0  0  0  0  0  0  0  0  0  0
   -9.0708    3.9569  -17.3126 C   0  0  0  0  0  0  0  0  0  0  0  0
   -8.6327    4.1687  -16.0115 C   0  0  0  0  0  0  0  0  0  0  0  0
   -7.3155    4.6037  -15.8329 C   0  0  0  0  0  0  0  0  0  0  0  0
   -6.5723    4.8904  -14.6972 N   0  0  0  0  0  0  0  0  0  0  0  0
   -7.1894    4.8534  -13.3547 C   0  0  2  0  0  0  0  0  0  0  0  0
   -7.5648    6.2610  -12.9161 C   0  0  0  0  0  0  0  0  0  0  0  0
   -6.4667    4.0940  -12.2190 C   0  0  0  0  0  0  0  0  0  0  0  0
   -5.3152    3.8798  -12.2108 O   0  0  0  0  0  0  0  0  0  0  0  0
   -7.5624    3.8106  -11.1267 N   0  0  0  0  0  0  0  0  0  0  0  0
   -7.4330    3.2934   -9.7685 C   0  0  2  0  0  0  0  0  0  0  0  0
   -8.3357    2.1267   -9.4351 C   0  0  0  0  0  0  0  0  0  0  0  0
   -9.2909    2.6402   -8.3778 C   0  0  1  0  0  0  0  0  0  0  0  0
   -9.5738    1.6814   -7.2396 C   0  0  0  0  0  0  0  0  0  0  0  0
   -8.7552    3.8598   -7.8743 O   0  0  0  0  0  0  0  0  0  0  0  0
   -7.8999    4.3680   -8.8014 C   0  0  0  0  0  0  0  0  0  0  0  0
   -7.6060    5.5543   -8.8629 O   0  0  0  0  0  0  0  0  0  0  0  0
  1  2  1  0
  2  3  1  0
  3  4  1  0
  4  5  2  0
  5  6  1  0
  6  7  2  0
  7  8  1  0
  8  9  2  0
  9 10  1  0
 10 11  2  0
 11 12  1  0
 12 13  1  0
 13 14  1  1
 13 15  1  0
 15 16  2  0
 15 17  1  0
 18 17  1  6
 18 19  1  0
 19 20  1  0
 20 21  1  1
 20 22  1  0
 22 23  1  0
 23 24  2  0
 12  4  1  0
 23 18  1  0
 11  6  1  0
M  END
>  <fragmenstein_outcome>  (636) 
nan

>  <exports>  (636) 
['/opt/xchem-fragalysis-2/maxwin/openbind-hippo/xx01zvns2b/cycle_01/syndirella/elabs/openbind_xx01zvns2b_c1_elab_chemspace_filtered.sdf']

>  <Energy>  (636) 
nan

>  <alias>  (636) 
None

>  <fragmenstein_runtime>  (636) 
nan

>  <scratch_subdir>  (636) 
nan

>  <HIPPO Compound ID>  (636) 
147418

>  <rmsd(smina/fragmenstein)>  (636) 
0.812

>  <distance_score>  (636) 
1.626787

>  <orig_smiles>  (636) 
nan

>  <fragmenstein_mode>  (636) 
nan

>  <inchikey>  (636) 
DBPYHFZPIDTBQQ-YRGRVCCFSA-N

>  <ref_pdb>  (636) 
Z3880a

>  <GNINA pK>  (636) 
nan

>  <gnina_score_min>  (636) 
5.283

>  <tags>  (636) 
openbind_xx01zvns2b_c1_elab_nonasap_filtered_scored_top80percent,openbind_xx01zvns2b_c1_elab_chemspace_filtered_scored_top80percent,openbind_xx01zvns2b_c1_elab_chemspace_filtered_scored,openbind_xx01zvns2b_c1_elab_chemspace_filtered_scored_top40percent,openbind_xx01zvns2b_c1_elab_chemspace_filtered_scored_top20percent,openbind_xx01zvns2b_c1_elab_chemspace_filtered_scored_top60percent,openbind_xx01zvns2b_c1_elabs_filtered

>  <smiles>  (636) 
CCCc1nc2ccccc2n1[C@H](C)C(=O)N[C@@H]1C[C@@H](C)OC1=O

>  <subsites>  (636) 
1 - Z4590/B/203/1

>  <gnina_score>  (636) 
5.319

>  <HIPPO Pose ID>  (636) 
74352

>  <ref_mols>  (636) 
Z0101a,Z3880a

>  <energy_score>  (636) 
-10.935754

>  <inspiration_score>  (636) 
None

>  <smina_score_min>  (636) 
-6.806

>  <fragmenstein_error>  (636) 
nan

>  <name>  (636) 
P74352

$$$$
P74363
     RDKit          3D

 24 26  0  0  0  0  0  0  0  0999 V2000
   -7.6026    6.0058   -8.8583 C   0  0  0  0  0  0  0  0  0  0  0  0
   -8.3765    4.7869   -9.3046 C   0  0  2  0  0  0  0  0  0  0  0  0
   -9.0501    4.2463   -8.1489 O   0  0  0  0  0  0  0  0  0  0  0  0
   -9.0339    2.8129   -8.2397 C   0  0  0  0  0  0  0  0  0  0  0  0
   -8.3681    2.4533   -9.5512 C   0  0  0  0  0  0  0  0  0  0  0  0
   -7.5096    3.6698   -9.8538 C   0  0  1  0  0  0  0  0  0  0  0  0
   -7.0840    3.7231  -11.2471 N   0  0  0  0  0  0  0  0  0  0  0  0
   -7.0416    4.9351  -12.2598 C   0  0  0  0  0  0  0  0  0  0  0  0
   -7.4157    6.0407  -12.1370 O   0  0  0  0  0  0  0  0  0  0  0  0
   -6.2777    4.4221  -13.4968 C   0  0  2  0  0  0  0  0  0  0  0  0
   -4.8540    4.0783  -13.0953 C   0  0  0  0  0  0  0  0  0  0  0  0
   -6.3409    5.2187  -14.7446 N   0  0  0  0  0  0  0  0  0  0  0  0
   -5.3500    5.9958  -15.3411 C   0  0  0  0  0  0  0  0  0  0  0  0
   -4.3371    6.7797  -14.5678 C   0  0  0  0  0  0  0  0  0  0  0  0
   -3.1520    6.1207  -14.4640 F   0  0  0  0  0  0  0  0  0  0  0  0
   -4.0633    7.9818  -15.1414 F   0  0  0  0  0  0  0  0  0  0  0  0
   -4.7419    7.0476  -13.2990 F   0  0  0  0  0  0  0  0  0  0  0  0
   -5.4464    5.9365  -16.6661 N   0  0  0  0  0  0  0  0  0  0  0  0
   -6.6111    5.2726  -16.9273 C   0  0  0  0  0  0  0  0  0  0  0  0
   -7.2065    4.9592  -18.1529 C   0  0  0  0  0  0  0  0  0  0  0  0
   -8.4705    4.3668  -18.1407 C   0  0  0  0  0  0  0  0  0  0  0  0
   -9.1228    4.0993  -16.9423 C   0  0  0  0  0  0  0  0  0  0  0  0
   -8.5124    4.3345  -15.7120 C   0  0  0  0  0  0  0  0  0  0  0  0
   -7.2483    4.9207  -15.7441 C   0  0  0  0  0  0  0  0  0  0  0  0
  2  1  1  1
  2  3  1  0
  3  4  1  0
  4  5  1  0
  5  6  1  0
  6  7  1  6
  7  8  1  0
  8  9  2  0
  8 10  1  0
 10 11  1  1
 10 12  1  0
 12 13  1  0
 13 14  1  0
 14 15  1  0
 14 16  1  0
 14 17  1  0
 13 18  2  0
 18 19  1  0
 19 20  2  0
 20 21  1  0
 21 22  2  0
 22 23  1  0
 23 24  2  0
  6  2  1  0
 24 12  1  0
 24 19  1  0
M  END
>  <fragmenstein_outcome>  (637) 
nan

>  <exports>  (637) 
['/opt/xchem-fragalysis-2/maxwin/openbind-hippo/xx01zvns2b/cycle_01/syndirella/elabs/openbind_xx01zvns2b_c1_elab_chemspace_filtered.sdf']

>  <Energy>  (637) 
nan

>  <alias>  (637) 
None

>  <fragmenstein_runtime>  (637) 
nan

>  <scratch_subdir>  (637) 
nan

>  <HIPPO Compound ID>  (637) 
147445

>  <rmsd(smina/fragmenstein)>  (637) 
0.897

>  <distance_score>  (637) 
1.548339

>  <orig_smiles>  (637) 
nan

>  <fragmenstein_mode>  (637) 
nan

>  <inchikey>  (637) 
BONJOPIDBMZOBJ-GARJFASQSA-N

>  <ref_pdb>  (637) 
Z3880a

>  <GNINA pK>  (637) 
nan

>  <gnina_score_min>  (637) 
5.341

>  <tags>  (637) 
openbind_xx01zvns2b_c1_elab_nonasap_filtered_scored_top80percent,openbind_xx01zvns2b_c1_elab_chemspace_filtered_scored_top80percent,openbind_xx01zvns2b_c1_elab_chemspace_filtered_scored,openbind_xx01zvns2b_c1_elab_chemspace_filtered_scored_top40percent,openbind_xx01zvns2b_c1_elab_chemspace_filtered_scored_top20percent,openbind_xx01zvns2b_c1_elab_chemspace_filtered_scored_top60percent,openbind_xx01zvns2b_c1_elabs_filtered

>  <smiles>  (637) 
C[C@@H]1OCC[C@H]1NC(=O)[C@H](C)n1c(C(F)(F)F)nc2ccccc21

>  <subsites>  (637) 
1 - Z4590/B/203/1

>  <gnina_score>  (637) 
5.359

>  <HIPPO Pose ID>  (637) 
74363

>  <ref_mols>  (637) 
Z0101a,Z3880a

>  <energy_score>  (637) 
-1.781425

>  <inspiration_score>  (637) 
None

>  <smina_score_min>  (637) 
-6.061

>  <fragmenstein_error>  (637) 
nan

>  <name>  (637) 
P74363

$$$$
P74369
     RDKit          3D

 24 26  0  0  0  0  0  0  0  0999 V2000
   -5.0785    4.3554  -12.8021 C   0  0  0  0  0  0  0  0  0  0  0  0
   -6.4154    4.5088  -13.4961 C   0  0  1  0  0  0  0  0  0  0  0  0
   -7.4891    5.0377  -12.5164 C   0  0  0  0  0  0  0  0  0  0  0  0
   -8.0128    6.0793  -12.6436 O   0  0  0  0  0  0  0  0  0  0  0  0
   -7.6835    3.9276  -11.4185 N   0  0  0  0  0  0  0  0  0  0  0  0
   -8.4922    3.9276  -10.2107 C   0  0  1  0  0  0  0  0  0  0  0  0
   -8.8430    2.5548   -9.6382 C   0  0  0  0  0  0  0  0  0  0  0  0
   -9.1504    2.7429   -8.2443 O   0  0  0  0  0  0  0  0  0  0  0  0
   -8.6241    4.0130   -7.8294 C   0  0  0  0  0  0  0  0  0  0  0  0
   -7.8393    4.5843   -9.0039 C   0  0  1  0  0  0  0  0  0  0  0  0
   -6.4691    4.1924   -8.9057 O   0  0  0  0  0  0  0  0  0  0  0  0
   -6.3560    5.1636  -14.8224 N   0  0  0  0  0  0  0  0  0  0  0  0
   -5.3358    5.8901  -15.4307 C   0  0  0  0  0  0  0  0  0  0  0  0
   -4.3295    6.7067  -14.6851 C   0  0  0  0  0  0  0  0  0  0  0  0
   -4.8424    7.2324  -13.5409 F   0  0  0  0  0  0  0  0  0  0  0  0
   -3.8747    7.7634  -15.4112 F   0  0  0  0  0  0  0  0  0  0  0  0
   -3.2350    5.9843  -14.3294 F   0  0  0  0  0  0  0  0  0  0  0  0
   -5.4213    5.7936  -16.7541 N   0  0  0  0  0  0  0  0  0  0  0  0
   -6.6032    5.1614  -17.0078 C   0  0  0  0  0  0  0  0  0  0  0  0
   -7.2032    4.8502  -18.2304 C   0  0  0  0  0  0  0  0  0  0  0  0
   -8.4871    4.3035  -18.2143 C   0  0  0  0  0  0  0  0  0  0  0  0
   -9.1537    4.0745  -17.0165 C   0  0  0  0  0  0  0  0  0  0  0  0
   -8.5392    4.3051  -15.7883 C   0  0  0  0  0  0  0  0  0  0  0  0
   -7.2568    4.8511  -15.8230 C   0  0  0  0  0  0  0  0  0  0  0  0
  2  1  1  1
  2  3  1  0
  3  4  2  0
  3  5  1  0
  6  5  1  6
  6  7  1  0
  7  8  1  0
  8  9  1  0
  9 10  1  0
 10 11  1  1
  2 12  1  0
 12 13  1  0
 13 14  1  0
 14 15  1  0
 14 16  1  0
 14 17  1  0
 13 18  2  0
 18 19  1  0
 19 20  2  0
 20 21  1  0
 21 22  2  0
 22 23  1  0
 23 24  2  0
 10  6  1  0
 24 12  1  0
 24 19  1  0
M  END
>  <fragmenstein_outcome>  (638) 
nan

>  <exports>  (638) 
['/opt/xchem-fragalysis-2/maxwin/openbind-hippo/xx01zvns2b/cycle_01/syndirella/elabs/openbind_xx01zvns2b_c1_elab_chemspace_filtered.sdf']

>  <Energy>  (638) 
nan

>  <alias>  (638) 
None

>  <fragmenstein_runtime>  (638) 
nan

>  <scratch_subdir>  (638) 
nan

>  <HIPPO Compound ID>  (638) 
147450

>  <rmsd(smina/fragmenstein)>  (638) 
0.552

>  <distance_score>  (638) 
1.561285

>  <orig_smiles>  (638) 
nan

>  <fragmenstein_mode>  (638) 
nan

>  <inchikey>  (638) 
JDYAKPSCFQQXJC-PTOFAABTSA-N

>  <ref_pdb>  (638) 
Z3880a

>  <GNINA pK>  (638) 
nan

>  <gnina_score_min>  (638) 
5.185

>  <tags>  (638) 
openbind_xx01zvns2b_c1_elab_nonasap_filtered_scored_top80percent,openbind_xx01zvns2b_c1_elab_chemspace_filtered_scored_top80percent,openbind_xx01zvns2b_c1_elab_chemspace_filtered_scored,openbind_xx01zvns2b_c1_elab_chemspace_filtered_scored_top40percent,openbind_xx01zvns2b_c1_elab_chemspace_filtered_scored_top20percent,openbind_xx01zvns2b_c1_elab_chemspace_filtered_scored_top60percent,openbind_xx01zvns2b_c1_elabs_filtered

>  <smiles>  (638) 
C[C@@H](C(=O)N[C@H]1COC[C@H]1O)n1c(C(F)(F)F)nc2ccccc21

>  <subsites>  (638) 
1 - Z4590/B/203/1

>  <gnina_score>  (638) 
5.152

>  <HIPPO Pose ID>  (638) 
74369

>  <ref_mols>  (638) 
Z0101a,Z3880a

>  <energy_score>  (638) 
-1.976916

>  <inspiration_score>  (638) 
None

>  <smina_score_min>  (638) 
-6.372

>  <fragmenstein_error>  (638) 
nan

>  <name>  (638) 
P74369

$$$$
P74384
     RDKit          3D

 24 26  0  0  0  0  0  0  0  0999 V2000
   -8.2356    5.8622   -9.0494 C   0  0  0  0  0  0  0  0  0  0  0  0
   -8.4213    4.5409   -9.1712 C   0  0  0  0  0  0  0  0  0  0  0  0
   -8.4833    3.5783   -8.0174 C   0  0  0  0  0  0  0  0  0  0  0  0
   -8.3754    2.2745   -8.6059 O   0  0  0  0  0  0  0  0  0  0  0  0
   -7.7714    2.4685   -9.9006 C   0  0  0  0  0  0  0  0  0  0  0  0
   -8.4794    3.7023  -10.4110 C   0  0  2  0  0  0  0  0  0  0  0  0
   -8.0342    4.4077  -11.5832 N   0  0  0  0  0  0  0  0  0  0  0  0
   -6.7759    4.1851  -12.4846 C   0  0  0  0  0  0  0  0  0  0  0  0
   -5.9600    3.3495  -12.4515 O   0  0  0  0  0  0  0  0  0  0  0  0
   -6.7712    5.3435  -13.5070 C   0  0  1  0  0  0  0  0  0  0  0  0
   -6.1638    6.5813  -12.8833 C   0  0  0  0  0  0  0  0  0  0  0  0
   -6.2933    5.0213  -14.8627 N   0  0  0  0  0  0  0  0  0  0  0  0
   -5.0593    5.2315  -15.4650 C   0  0  0  0  0  0  0  0  0  0  0  0
   -3.7909    5.4714  -14.7125 C   0  0  0  0  0  0  0  0  0  0  0  0
   -3.6280    6.7928  -14.4268 F   0  0  0  0  0  0  0  0  0  0  0  0
   -2.6857    5.0904  -15.4087 F   0  0  0  0  0  0  0  0  0  0  0  0
   -3.7413    4.8147  -13.5274 F   0  0  0  0  0  0  0  0  0  0  0  0
   -5.1755    5.2008  -16.7898 N   0  0  0  0  0  0  0  0  0  0  0  0
   -6.4644    4.8302  -17.0504 C   0  0  0  0  0  0  0  0  0  0  0  0
   -7.0995    4.5981  -18.2741 C   0  0  0  0  0  0  0  0  0  0  0  0
   -8.4479    4.2325  -18.2638 C   0  0  0  0  0  0  0  0  0  0  0  0
   -9.1531    4.1108  -17.0732 C   0  0  0  0  0  0  0  0  0  0  0  0
   -8.5306    4.3206  -15.8462 C   0  0  0  0  0  0  0  0  0  0  0  0
   -7.1825    4.6904  -15.8708 C   0  0  0  0  0  0  0  0  0  0  0  0
  1  2  2  0
  2  3  1  0
  3  4  1  0
  4  5  1  0
  5  6  1  0
  6  7  1  6
  7  8  1  0
  8  9  2  0
  8 10  1  0
 10 11  1  1
 10 12  1  0
 12 13  1  0
 13 14  1  0
 14 15  1  0
 14 16  1  0
 14 17  1  0
 13 18  2  0
 18 19  1  0
 19 20  2  0
 20 21  1  0
 21 22  2  0
 22 23  1  0
 23 24  2  0
  6  2  1  0
 24 12  1  0
 24 19  1  0
M  END
>  <fragmenstein_outcome>  (639) 
nan

>  <exports>  (639) 
['/opt/xchem-fragalysis-2/maxwin/openbind-hippo/xx01zvns2b/cycle_01/syndirella/elabs/openbind_xx01zvns2b_c1_elab_chemspace_filtered.sdf']

>  <Energy>  (639) 
nan

>  <alias>  (639) 
None

>  <fragmenstein_runtime>  (639) 
nan

>  <scratch_subdir>  (639) 
nan

>  <HIPPO Compound ID>  (639) 
147455

>  <rmsd(smina/fragmenstein)>  (639) 
0.474

>  <distance_score>  (639) 
1.584702

>  <orig_smiles>  (639) 
nan

>  <fragmenstein_mode>  (639) 
nan

>  <inchikey>  (639) 
WROQGCYGHYDSAA-PWSUYJOCSA-N

>  <ref_pdb>  (639) 
Z3880a

>  <GNINA pK>  (639) 
nan

>  <gnina_score_min>  (639) 
5.28

>  <tags>  (639) 
openbind_xx01zvns2b_c1_elab_nonasap_filtered_scored_top80percent,openbind_xx01zvns2b_c1_elab_chemspace_filtered_scored_top80percent,openbind_xx01zvns2b_c1_elab_chemspace_filtered_scored,openbind_xx01zvns2b_c1_elab_chemspace_filtered_scored_top40percent,openbind_xx01zvns2b_c1_elab_chemspace_filtered_scored_top20percent,openbind_xx01zvns2b_c1_elab_chemspace_filtered_scored_top60percent,openbind_xx01zvns2b_c1_elabs_filtered

>  <smiles>  (639) 
C=C1COC[C@@H]1NC(=O)[C@@H](C)n1c(C(F)(F)F)nc2ccccc21

>  <subsites>  (639) 
1 - Z4590/B/203/1

>  <gnina_score>  (639) 
5.326

>  <HIPPO Pose ID>  (639) 
74384

>  <ref_mols>  (639) 
Z0101a,Z3880a

>  <energy_score>  (639) 
-4.190283

>  <inspiration_score>  (639) 
None

>  <smina_score_min>  (639) 
-6.551

>  <fragmenstein_error>  (639) 
nan

>  <name>  (639) 
P74384

$$$$
P74389
     RDKit          3D

 24 26  0  0  0  0  0  0  0  0999 V2000
   -5.9308    6.3264  -12.8435 C   0  0  0  0  0  0  0  0  0  0  0  0
   -6.2509    4.9244  -13.3616 C   0  0  1  0  0  0  0  0  0  0  0  0
   -7.5468    4.6019  -12.5628 C   0  0  0  0  0  0  0  0  0  0  0  0
   -8.6092    4.9872  -12.8829 O   0  0  0  0  0  0  0  0  0  0  0  0
   -7.0944    3.8007  -11.2785 N   0  0  0  0  0  0  0  0  0  0  0  0
   -7.8438    3.4082  -10.1064 C   0  0  0  0  0  0  0  0  0  0  0  0
   -7.8725    4.4692   -8.9983 C   0  0  2  0  0  0  0  0  0  0  0  0
   -8.5875    4.1223   -7.6976 C   0  0  0  0  0  0  0  0  0  0  0  0
   -8.4438    5.6682   -9.5238 O   0  0  0  0  0  0  0  0  0  0  0  0
   -9.0193    2.4757  -10.3019 C   0  0  0  0  0  0  0  0  0  0  0  0
   -7.7628    1.9661   -9.6685 C   0  0  0  0  0  0  0  0  0  0  0  0
   -6.1807    4.9288  -14.8511 N   0  0  0  0  0  0  0  0  0  0  0  0
   -4.9962    5.1800  -15.5809 C   0  0  0  0  0  0  0  0  0  0  0  0
   -3.6267    5.3191  -14.9854 C   0  0  0  0  0  0  0  0  0  0  0  0
   -3.4894    4.6645  -13.8005 F   0  0  0  0  0  0  0  0  0  0  0  0
   -2.6531    4.8228  -15.7959 F   0  0  0  0  0  0  0  0  0  0  0  0
   -3.3050    6.6179  -14.7458 F   0  0  0  0  0  0  0  0  0  0  0  0
   -5.2440    5.2597  -16.8778 N   0  0  0  0  0  0  0  0  0  0  0  0
   -6.5452    4.9008  -17.0270 C   0  0  0  0  0  0  0  0  0  0  0  0
   -7.2531    4.7287  -18.2214 C   0  0  0  0  0  0  0  0  0  0  0  0
   -8.5875    4.3466  -18.1567 C   0  0  0  0  0  0  0  0  0  0  0  0
   -9.1997    4.1442  -16.9316 C   0  0  0  0  0  0  0  0  0  0  0  0
   -8.4980    4.2861  -15.7329 C   0  0  0  0  0  0  0  0  0  0  0  0
   -7.1608    4.6838  -15.7910 C   0  0  0  0  0  0  0  0  0  0  0  0
  2  1  1  6
  2  3  1  0
  3  4  2  0
  3  5  1  0
  5  6  1  0
  6  7  1  0
  7  8  1  1
  7  9  1  0
  6 10  1  0
 10 11  1  0
  2 12  1  0
 12 13  1  0
 13 14  1  0
 14 15  1  0
 14 16  1  0
 14 17  1  0
 13 18  2  0
 18 19  1  0
 19 20  2  0
 20 21  1  0
 21 22  2  0
 22 23  1  0
 23 24  2  0
 11  6  1  0
 24 12  1  0
 24 19  1  0
M  END
>  <fragmenstein_outcome>  (640) 
nan

>  <exports>  (640) 
['/opt/xchem-fragalysis-2/maxwin/openbind-hippo/xx01zvns2b/cycle_01/syndirella/elabs/openbind_xx01zvns2b_c1_elab_chemspace_filtered.sdf']

>  <Energy>  (640) 
nan

>  <alias>  (640) 
None

>  <fragmenstein_runtime>  (640) 
nan

>  <scratch_subdir>  (640) 
nan

>  <HIPPO Compound ID>  (640) 
147458

>  <rmsd(smina/fragmenstein)>  (640) 
0.677

>  <distance_score>  (640) 
1.513475

>  <orig_smiles>  (640) 
nan

>  <fragmenstein_mode>  (640) 
nan

>  <inchikey>  (640) 
LRFRKMQDKABJGH-UWVGGRQHSA-N

>  <ref_pdb>  (640) 
Z3880a

>  <GNINA pK>  (640) 
nan

>  <gnina_score_min>  (640) 
5.205

>  <tags>  (640) 
openbind_xx01zvns2b_c1_elab_nonasap_filtered_scored_top80percent,openbind_xx01zvns2b_c1_elab_chemspace_filtered_scored_top80percent,openbind_xx01zvns2b_c1_elab_chemspace_filtered_scored,openbind_xx01zvns2b_c1_elab_chemspace_filtered_scored_top40percent,openbind_xx01zvns2b_c1_elab_chemspace_filtered_scored_top20percent,openbind_xx01zvns2b_c1_elab_chemspace_filtered_scored_top60percent,openbind_xx01zvns2b_c1_elabs_filtered

>  <smiles>  (640) 
C[C@H](O)C1(NC(=O)[C@H](C)n2c(C(F)(F)F)nc3ccccc32)CC1

>  <subsites>  (640) 
1 - Z4590/B/203/1

>  <gnina_score>  (640) 
5.279

>  <HIPPO Pose ID>  (640) 
74389

>  <ref_mols>  (640) 
Z0101a,Z3880a

>  <energy_score>  (640) 
-16.778733

>  <inspiration_score>  (640) 
None

>  <smina_score_min>  (640) 
-6.006

>  <fragmenstein_error>  (640) 
nan

>  <name>  (640) 
P74389

$$$$
P74394
     RDKit          3D

 24 27  0  0  0  0  0  0  0  0999 V2000
   -4.9213    4.2156  -12.9644 C   0  0  0  0  0  0  0  0  0  0  0  0
   -6.2772    4.5132  -13.5694 C   0  0  1  0  0  0  0  0  0  0  0  0
   -7.1835    5.2326  -12.5576 C   0  0  0  0  0  0  0  0  0  0  0  0
   -7.5976    6.3193  -12.7285 O   0  0  0  0  0  0  0  0  0  0  0  0
   -7.3873    4.2384  -11.3435 N   0  0  0  0  0  0  0  0  0  0  0  0
   -8.0494    4.4287  -10.0906 C   0  0  1  0  0  0  0  0  0  0  0  0
   -8.8281    3.2434   -9.5267 C   0  0  0  0  0  0  0  0  0  0  0  0
   -9.0246    3.4881   -8.1199 O   0  0  0  0  0  0  0  0  0  0  0  0
   -7.9327    4.2992   -7.6731 C   0  0  0  0  0  0  0  0  0  0  0  0
   -7.3912    4.9870   -8.8814 C   0  0  2  0  0  0  0  0  0  0  0  0
   -8.3047    5.8658   -9.6574 C   0  0  0  0  0  0  0  0  0  0  0  0
   -6.2250    5.1243  -14.9123 N   0  0  0  0  0  0  0  0  0  0  0  0
   -5.2096    5.8268  -15.5511 C   0  0  0  0  0  0  0  0  0  0  0  0
   -4.1390    6.5839  -14.8337 C   0  0  0  0  0  0  0  0  0  0  0  0
   -3.6908    7.6557  -15.5402 F   0  0  0  0  0  0  0  0  0  0  0  0
   -3.0514    5.8125  -14.5687 F   0  0  0  0  0  0  0  0  0  0  0  0
   -4.5666    7.0727  -13.6389 F   0  0  0  0  0  0  0  0  0  0  0  0
   -5.3525    5.7484  -16.8704 N   0  0  0  0  0  0  0  0  0  0  0  0
   -6.5572    5.1414  -17.0814 C   0  0  0  0  0  0  0  0  0  0  0  0
   -7.2102    4.8461  -18.2799 C   0  0  0  0  0  0  0  0  0  0  0  0
   -8.5016    4.3189  -18.2159 C   0  0  0  0  0  0  0  0  0  0  0  0
   -9.1260    4.0931  -16.9947 C   0  0  0  0  0  0  0  0  0  0  0  0
   -8.4621    4.3126  -15.7909 C   0  0  0  0  0  0  0  0  0  0  0  0
   -7.1714    4.8359  -15.8751 C   0  0  0  0  0  0  0  0  0  0  0  0
  2  1  1  1
  2  3  1  0
  3  4  2  0
  3  5  1  0
  6  5  1  6
  6  7  1  0
  7  8  1  0
  8  9  1  0
 10  9  1  1
 10 11  1  0
  2 12  1  0
 12 13  1  0
 13 14  1  0
 14 15  1  0
 14 16  1  0
 14 17  1  0
 13 18  2  0
 18 19  1  0
 19 20  2  0
 20 21  1  0
 21 22  2  0
 22 23  1  0
 23 24  2  0
 10  6  1  0
 24 12  1  0
 11  6  1  0
 24 19  1  0
M  END
>  <fragmenstein_outcome>  (641) 
nan

>  <exports>  (641) 
['/opt/xchem-fragalysis-2/maxwin/openbind-hippo/xx01zvns2b/cycle_01/syndirella/elabs/openbind_xx01zvns2b_c1_elab_chemspace_filtered.sdf']

>  <Energy>  (641) 
nan

>  <alias>  (641) 
None

>  <fragmenstein_runtime>  (641) 
nan

>  <scratch_subdir>  (641) 
nan

>  <HIPPO Compound ID>  (641) 
147470

>  <rmsd(smina/fragmenstein)>  (641) 
0.38

>  <distance_score>  (641) 
1.592995

>  <orig_smiles>  (641) 
nan

>  <fragmenstein_mode>  (641) 
nan

>  <inchikey>  (641) 
YVZSUDXTRBFKJO-YHAQOWFVSA-N

>  <ref_pdb>  (641) 
Z3880a

>  <GNINA pK>  (641) 
nan

>  <gnina_score_min>  (641) 
5.341

>  <tags>  (641) 
openbind_xx01zvns2b_c1_elab_nonasap_filtered_scored_top80percent,openbind_xx01zvns2b_c1_elab_chemspace_filtered_scored_top80percent,openbind_xx01zvns2b_c1_elab_chemspace_filtered_scored,openbind_xx01zvns2b_c1_elab_chemspace_filtered_scored_top40percent,openbind_xx01zvns2b_c1_elab_chemspace_filtered_scored_top20percent,openbind_xx01zvns2b_c1_elab_chemspace_filtered_scored_top60percent,openbind_xx01zvns2b_c1_elabs_filtered

>  <smiles>  (641) 
C[C@@H](C(=O)N[C@@]12COC[C@@H]1C2)n1c(C(F)(F)F)nc2ccccc21

>  <subsites>  (641) 
1 - Z4590/B/203/1

>  <gnina_score>  (641) 
5.384

>  <HIPPO Pose ID>  (641) 
74394

>  <ref_mols>  (641) 
Z0101a,Z3880a

>  <energy_score>  (641) 
-19.648485

>  <inspiration_score>  (641) 
None

>  <smina_score_min>  (641) 
-5.942

>  <fragmenstein_error>  (641) 
nan

>  <name>  (641) 
P74394

$$$$
P74408
     RDKit          3D

 24 26  0  0  0  0  0  0  0  0999 V2000
   -5.1488    4.3592  -12.8462 C   0  0  0  0  0  0  0  0  0  0  0  0
   -6.4717    4.5686  -13.5524 C   0  0  1  0  0  0  0  0  0  0  0  0
   -7.5246    5.1702  -12.5960 C   0  0  0  0  0  0  0  0  0  0  0  0
   -8.0161    6.2237  -12.7505 O   0  0  0  0  0  0  0  0  0  0  0  0
   -7.7625    4.0894  -11.4768 N   0  0  0  0  0  0  0  0  0  0  0  0
   -8.5970    4.1394  -10.2570 C   0  0  1  0  0  0  0  0  0  0  0  0
   -9.1092    2.7341   -9.8421 C   0  0  0  0  0  0  0  0  0  0  0  0
   -7.9829    2.5985   -8.9288 O   0  0  0  0  0  0  0  0  0  0  0  0
   -7.8628    4.0525   -8.8855 C   0  0  0  0  0  0  0  0  0  0  0  0
   -8.5719    4.5689   -7.6326 C   0  0  0  0  0  0  0  0  0  0  0  0
   -6.4235    4.5182   -8.9224 C   0  0  0  0  0  0  0  0  0  0  0  0
   -6.3775    5.1991  -14.8831 N   0  0  0  0  0  0  0  0  0  0  0  0
   -5.3419    5.9054  -15.4841 C   0  0  0  0  0  0  0  0  0  0  0  0
   -4.3267    6.7011  -14.7295 C   0  0  0  0  0  0  0  0  0  0  0  0
   -3.2471    5.9557  -14.3737 F   0  0  0  0  0  0  0  0  0  0  0  0
   -4.8346    7.2249  -13.5821 F   0  0  0  0  0  0  0  0  0  0  0  0
   -3.8493    7.7544  -15.4451 F   0  0  0  0  0  0  0  0  0  0  0  0
   -5.4140    5.7982  -16.8072 N   0  0  0  0  0  0  0  0  0  0  0  0
   -6.5949    5.1641  -17.0684 C   0  0  0  0  0  0  0  0  0  0  0  0
   -7.1783    4.8272  -18.2913 C   0  0  0  0  0  0  0  0  0  0  0  0
   -8.4595    4.2716  -18.2798 C   0  0  0  0  0  0  0  0  0  0  0  0
   -9.1439    4.0628  -17.0889 C   0  0  0  0  0  0  0  0  0  0  0  0
   -8.5474    4.3228  -15.8591 C   0  0  0  0  0  0  0  0  0  0  0  0
   -7.2658    4.8732  -15.8891 C   0  0  0  0  0  0  0  0  0  0  0  0
  2  1  1  1
  2  3  1  0
  3  4  2  0
  3  5  1  0
  6  5  1  6
  6  7  1  0
  7  8  1  0
  8  9  1  0
  9 10  1  0
  9 11  1  0
  2 12  1  0
 12 13  1  0
 13 14  1  0
 14 15  1  0
 14 16  1  0
 14 17  1  0
 13 18  2  0
 18 19  1  0
 19 20  2  0
 20 21  1  0
 21 22  2  0
 22 23  1  0
 23 24  2  0
  9  6  1  0
 24 12  1  0
 24 19  1  0
M  END
>  <fragmenstein_outcome>  (642) 
nan

>  <exports>  (642) 
['/opt/xchem-fragalysis-2/maxwin/openbind-hippo/xx01zvns2b/cycle_01/syndirella/elabs/openbind_xx01zvns2b_c1_elab_chemspace_filtered.sdf']

>  <Energy>  (642) 
nan

>  <alias>  (642) 
None

>  <fragmenstein_runtime>  (642) 
nan

>  <scratch_subdir>  (642) 
nan

>  <HIPPO Compound ID>  (642) 
147480

>  <rmsd(smina/fragmenstein)>  (642) 
0.653

>  <distance_score>  (642) 
1.641541

>  <orig_smiles>  (642) 
nan

>  <fragmenstein_mode>  (642) 
nan

>  <inchikey>  (642) 
WQTROGHRIBOREG-CABZTGNLSA-N

>  <ref_pdb>  (642) 
Z3880a

>  <GNINA pK>  (642) 
nan

>  <gnina_score_min>  (642) 
5.324

>  <tags>  (642) 
openbind_xx01zvns2b_c1_elab_nonasap_filtered_scored_top80percent,openbind_xx01zvns2b_c1_elab_chemspace_filtered_scored_top80percent,openbind_xx01zvns2b_c1_elab_chemspace_filtered_scored,openbind_xx01zvns2b_c1_elab_chemspace_filtered_scored_top40percent,openbind_xx01zvns2b_c1_elab_chemspace_filtered_scored_top20percent,openbind_xx01zvns2b_c1_elab_chemspace_filtered_scored_top60percent,openbind_xx01zvns2b_c1_elabs_filtered

>  <smiles>  (642) 
C[C@@H](C(=O)N[C@H]1COC1(C)C)n1c(C(F)(F)F)nc2ccccc21

>  <subsites>  (642) 
1 - Z4590/B/203/1

>  <gnina_score>  (642) 
5.399

>  <HIPPO Pose ID>  (642) 
74408

>  <ref_mols>  (642) 
Z0101a,Z3880a

>  <energy_score>  (642) 
-21.763617

>  <inspiration_score>  (642) 
None

>  <smina_score_min>  (642) 
-6.041

>  <fragmenstein_error>  (642) 
nan

>  <name>  (642) 
P74408

$$$$
P74413
     RDKit          3D

 24 26  0  0  0  0  0  0  0  0999 V2000
   -5.8375    6.3384  -12.8738 C   0  0  0  0  0  0  0  0  0  0  0  0
   -6.2120    4.9654  -13.4275 C   0  0  1  0  0  0  0  0  0  0  0  0
   -7.5420    4.6927  -12.6738 C   0  0  0  0  0  0  0  0  0  0  0  0
   -8.5566    5.2000  -12.9760 O   0  0  0  0  0  0  0  0  0  0  0  0
   -7.1952    3.7521  -11.4605 N   0  0  0  0  0  0  0  0  0  0  0  0
   -8.0239    3.3234  -10.3093 C   0  0  1  0  0  0  0  0  0  0  0  0
   -9.1310    2.4169  -10.7754 C   0  0  0  0  0  0  0  0  0  0  0  0
   -7.2459    2.6703   -9.1596 C   0  0  0  0  0  0  0  0  0  0  0  0
   -7.2964    3.9971   -8.3863 C   0  0  0  0  0  0  0  0  0  0  0  0
   -8.4253    4.4550   -9.3164 C   0  0  1  0  0  0  0  0  0  0  0  0
   -8.3183    5.8093   -9.7952 O   0  0  0  0  0  0  0  0  0  0  0  0
   -6.1445    4.9783  -14.9137 N   0  0  0  0  0  0  0  0  0  0  0  0
   -4.9704    5.2287  -15.6539 C   0  0  0  0  0  0  0  0  0  0  0  0
   -3.5987    5.3702  -15.0681 C   0  0  0  0  0  0  0  0  0  0  0  0
   -3.2902    6.6665  -14.7996 F   0  0  0  0  0  0  0  0  0  0  0  0
   -2.6263    4.9062  -15.8984 F   0  0  0  0  0  0  0  0  0  0  0  0
   -3.4467    4.6866  -13.9015 F   0  0  0  0  0  0  0  0  0  0  0  0
   -5.2312    5.2987  -16.9490 N   0  0  0  0  0  0  0  0  0  0  0  0
   -6.5303    4.9240  -17.0831 C   0  0  0  0  0  0  0  0  0  0  0  0
   -7.2506    4.7354  -18.2666 C   0  0  0  0  0  0  0  0  0  0  0  0
   -8.5804    4.3388  -18.1823 C   0  0  0  0  0  0  0  0  0  0  0  0
   -9.1753    4.1312  -16.9494 C   0  0  0  0  0  0  0  0  0  0  0  0
   -8.4592    4.2823  -15.7614 C   0  0  0  0  0  0  0  0  0  0  0  0
   -7.1299    4.7054  -15.8407 C   0  0  0  0  0  0  0  0  0  0  0  0
  2  1  1  6
  2  3  1  0
  3  4  2  0
  3  5  1  0
  6  5  1  0
  6  7  1  6
  6  8  1  0
  8  9  1  0
  9 10  1  0
 10 11  1  6
  2 12  1  0
 12 13  1  0
 13 14  1  0
 14 15  1  0
 14 16  1  0
 14 17  1  0
 13 18  2  0
 18 19  1  0
 19 20  2  0
 20 21  1  0
 21 22  2  0
 22 23  1  0
 23 24  2  0
 10  6  1  0
 24 12  1  0
 24 19  1  0
M  END
>  <fragmenstein_outcome>  (643) 
nan

>  <exports>  (643) 
['/opt/xchem-fragalysis-2/maxwin/openbind-hippo/xx01zvns2b/cycle_01/syndirella/elabs/openbind_xx01zvns2b_c1_elab_chemspace_filtered.sdf']

>  <Energy>  (643) 
nan

>  <alias>  (643) 
None

>  <fragmenstein_runtime>  (643) 
nan

>  <scratch_subdir>  (643) 
nan

>  <HIPPO Compound ID>  (643) 
147482

>  <rmsd(smina/fragmenstein)>  (643) 
0.673

>  <distance_score>  (643) 
1.558441

>  <orig_smiles>  (643) 
nan

>  <fragmenstein_mode>  (643) 
nan

>  <inchikey>  (643) 
FLWQMGNSDOCOJT-UAKXVISKSA-N

>  <ref_pdb>  (643) 
Z3880a

>  <GNINA pK>  (643) 
nan

>  <gnina_score_min>  (643) 
5.231

>  <tags>  (643) 
openbind_xx01zvns2b_c1_elab_nonasap_filtered_scored_top80percent,openbind_xx01zvns2b_c1_elab_chemspace_filtered_scored_top80percent,openbind_xx01zvns2b_c1_elab_chemspace_filtered_scored,openbind_xx01zvns2b_c1_elab_chemspace_filtered_scored_top40percent,openbind_xx01zvns2b_c1_elab_chemspace_filtered_scored_top20percent,openbind_xx01zvns2b_c1_elab_chemspace_filtered_scored_top60percent,openbind_xx01zvns2b_c1_elabs_filtered

>  <smiles>  (643) 
C[C@@H](C(=O)N[C@@]1(C)CC[C@H]1O)n1c(C(F)(F)F)nc2ccccc21

>  <subsites>  (643) 
1 - Z4590/B/203/1

>  <gnina_score>  (643) 
5.252

>  <HIPPO Pose ID>  (643) 
74413

>  <ref_mols>  (643) 
Z0101a,Z3880a

>  <energy_score>  (643) 
-16.288776

>  <inspiration_score>  (643) 
None

>  <smina_score_min>  (643) 
-6.139

>  <fragmenstein_error>  (643) 
nan

>  <name>  (643) 
P74413

$$$$
P74422
     RDKit          3D

 24 26  0  0  0  0  0  0  0  0999 V2000
   -3.8610    7.9678  -15.4236 C   0  0  0  0  0  0  0  0  0  0  0  0
   -3.2186    6.6939  -14.8720 C   0  0  0  0  0  0  0  0  0  0  0  0
   -2.3036    6.0403  -15.9093 C   0  0  0  0  0  0  0  0  0  0  0  0
   -4.2459    5.7168  -14.2659 C   0  0  0  0  0  0  0  0  0  0  0  0
   -5.3315    5.2473  -15.1858 C   0  0  0  0  0  0  0  0  0  0  0  0
   -5.2581    5.2259  -16.5086 N   0  0  0  0  0  0  0  0  0  0  0  0
   -6.4713    4.7851  -16.9576 C   0  0  0  0  0  0  0  0  0  0  0  0
   -6.9351    4.5724  -18.2600 C   0  0  0  0  0  0  0  0  0  0  0  0
   -8.2562    4.1456  -18.4339 C   0  0  0  0  0  0  0  0  0  0  0  0
   -9.1176    3.9935  -17.3586 C   0  0  0  0  0  0  0  0  0  0  0  0
   -8.6642    4.1852  -16.0620 C   0  0  0  0  0  0  0  0  0  0  0  0
   -7.3241    4.5500  -15.8918 C   0  0  0  0  0  0  0  0  0  0  0  0
   -6.5576    4.7662  -14.7538 N   0  0  0  0  0  0  0  0  0  0  0  0
   -7.2063    4.7221  -13.4263 C   0  0  2  0  0  0  0  0  0  0  0  0
   -7.7933    6.0982  -13.1241 C   0  0  0  0  0  0  0  0  0  0  0  0
   -6.4839    4.1969  -12.1715 C   0  0  0  0  0  0  0  0  0  0  0  0
   -5.3219    4.2115  -12.0240 O   0  0  0  0  0  0  0  0  0  0  0  0
   -7.6329    3.7748  -11.1781 N   0  0  0  0  0  0  0  0  0  0  0  0
   -7.5724    3.3787   -9.7711 C   0  0  2  0  0  0  0  0  0  0  0  0
   -8.4355    2.1722   -9.3771 C   0  0  0  0  0  0  0  0  0  0  0  0
   -9.1417    2.4871   -8.1541 O   0  0  0  0  0  0  0  0  0  0  0  0
   -8.6259    3.7287   -7.6725 C   0  0  0  0  0  0  0  0  0  0  0  0
   -8.1907    4.4675   -8.9078 C   0  0  1  0  0  0  0  0  0  0  0  0
   -7.3173    5.4579   -8.6405 F   0  0  0  0  0  0  0  0  0  0  0  0
  1  2  1  0
  2  3  1  0
  2  4  1  0
  4  5  1  0
  5  6  2  0
  6  7  1  0
  7  8  2  0
  8  9  1  0
  9 10  2  0
 10 11  1  0
 11 12  2  0
 12 13  1  0
 13 14  1  0
 14 15  1  1
 14 16  1  0
 16 17  2  0
 16 18  1  0
 19 18  1  6
 19 20  1  0
 20 21  1  0
 21 22  1  0
 22 23  1  0
 23 24  1  1
 13  5  1  0
 23 19  1  0
 12  7  1  0
M  END
>  <fragmenstein_outcome>  (644) 
nan

>  <exports>  (644) 
['/opt/xchem-fragalysis-2/maxwin/openbind-hippo/xx01zvns2b/cycle_01/syndirella/elabs/openbind_xx01zvns2b_c1_elab_chemspace_filtered.sdf']

>  <Energy>  (644) 
nan

>  <alias>  (644) 
None

>  <fragmenstein_runtime>  (644) 
nan

>  <scratch_subdir>  (644) 
nan

>  <HIPPO Compound ID>  (644) 
147506

>  <rmsd(smina/fragmenstein)>  (644) 
1.025

>  <distance_score>  (644) 
1.519691

>  <orig_smiles>  (644) 
nan

>  <fragmenstein_mode>  (644) 
nan

>  <inchikey>  (644) 
GPOZJWDVSGEMKZ-UMVBOHGHSA-N

>  <ref_pdb>  (644) 
Z3880a

>  <GNINA pK>  (644) 
nan

>  <gnina_score_min>  (644) 
5.232

>  <tags>  (644) 
openbind_xx01zvns2b_c1_elab_nonasap_filtered_scored_top80percent,openbind_xx01zvns2b_c1_elab_chemspace_filtered_scored_top80percent,openbind_xx01zvns2b_c1_elab_chemspace_filtered_scored,openbind_xx01zvns2b_c1_elab_chemspace_filtered_scored_top40percent,openbind_xx01zvns2b_c1_elab_chemspace_filtered_scored_top20percent,openbind_xx01zvns2b_c1_elab_chemspace_filtered_scored_top60percent,openbind_xx01zvns2b_c1_elabs_filtered

>  <smiles>  (644) 
CC(C)Cc1nc2ccccc2n1[C@H](C)C(=O)N[C@@H]1COC[C@H]1F

>  <subsites>  (644) 
1 - Z4590/B/203/1

>  <gnina_score>  (644) 
5.365

>  <HIPPO Pose ID>  (644) 
74422

>  <ref_mols>  (644) 
Z0101a,Z3880a

>  <energy_score>  (644) 
-50.451087

>  <inspiration_score>  (644) 
None

>  <smina_score_min>  (644) 
-6.415

>  <fragmenstein_error>  (644) 
nan

>  <name>  (644) 
P74422

$$$$
P74425
     RDKit          3D

 24 26  0  0  0  0  0  0  0  0999 V2000
   -5.9328    7.3335  -12.2627 C   0  0  0  0  0  0  0  0  0  0  0  0
   -6.7617    6.5340  -13.2599 C   0  0  0  0  0  0  0  0  0  0  0  0
   -8.2449    6.6680  -12.9044 C   0  0  0  0  0  0  0  0  0  0  0  0
   -6.2124    5.0865  -13.4103 C   0  0  1  0  0  0  0  0  0  0  0  0
   -7.0116    4.0777  -12.5269 C   0  0  0  0  0  0  0  0  0  0  0  0
   -7.8325    3.3592  -12.9436 O   0  0  0  0  0  0  0  0  0  0  0  0
   -6.5459    4.3386  -11.0557 N   0  0  0  0  0  0  0  0  0  0  0  0
   -7.0747    3.8273   -9.7831 C   0  0  2  0  0  0  0  0  0  0  0  0
   -5.9763    4.0277   -8.7266 C   0  0  0  0  0  0  0  0  0  0  0  0
   -7.6340    2.4069   -9.7662 C   0  0  0  0  0  0  0  0  0  0  0  0
   -8.7097    2.4295   -8.6777 C   0  0  0  0  0  0  0  0  0  0  0  0
   -8.9420    3.8079   -8.3282 O   0  0  0  0  0  0  0  0  0  0  0  0
   -8.3274    4.5938   -9.3510 C   0  0  0  0  0  0  0  0  0  0  0  0
   -6.0605    4.8272  -14.8633 N   0  0  0  0  0  0  0  0  0  0  0  0
   -4.9073    5.1431  -15.5627 C   0  0  0  0  0  0  0  0  0  0  0  0
   -5.0811    5.1277  -16.8634 N   0  0  0  0  0  0  0  0  0  0  0  0
   -6.3920    4.7717  -17.0374 C   0  0  0  0  0  0  0  0  0  0  0  0
   -7.0951    4.5607  -18.2291 C   0  0  0  0  0  0  0  0  0  0  0  0
   -8.4336    4.2139  -18.1209 C   0  0  0  0  0  0  0  0  0  0  0  0
   -9.1498    3.9404  -19.2077 F   0  0  0  0  0  0  0  0  0  0  0  0
   -9.0688    4.1326  -16.9026 C   0  0  0  0  0  0  0  0  0  0  0  0
  -10.3729    3.8683  -16.8881 F   0  0  0  0  0  0  0  0  0  0  0  0
   -8.3983    4.3320  -15.7107 C   0  0  0  0  0  0  0  0  0  0  0  0
   -7.0403    4.6253  -15.8042 C   0  0  0  0  0  0  0  0  0  0  0  0
  1  2  1  0
  2  3  1  0
  4  2  1  6
  4  5  1  0
  5  6  2  0
  5  7  1  0
  8  7  1  0
  8  9  1  1
  8 10  1  0
 10 11  1  0
 11 12  1  0
 12 13  1  0
  4 14  1  0
 14 15  1  0
 15 16  2  0
 16 17  1  0
 17 18  2  0
 18 19  1  0
 19 20  1  0
 19 21  2  0
 21 22  1  0
 21 23  1  0
 23 24  2  0
 13  8  1  0
 24 14  1  0
 24 17  1  0
M  END
>  <fragmenstein_outcome>  (645) 
nan

>  <exports>  (645) 
['/opt/xchem-fragalysis-2/maxwin/openbind-hippo/xx01zvns2b/cycle_01/syndirella/elabs/openbind_xx01zvns2b_c1_elab_chemspace_filtered.sdf']

>  <Energy>  (645) 
nan

>  <alias>  (645) 
None

>  <fragmenstein_runtime>  (645) 
nan

>  <scratch_subdir>  (645) 
nan

>  <HIPPO Compound ID>  (645) 
147507

>  <rmsd(smina/fragmenstein)>  (645) 
0.744

>  <distance_score>  (645) 
1.612968

>  <orig_smiles>  (645) 
nan

>  <fragmenstein_mode>  (645) 
nan

>  <inchikey>  (645) 
OKCLNAONUJXQEQ-DOTOQJQBSA-N

>  <ref_pdb>  (645) 
Z3880a

>  <GNINA pK>  (645) 
nan

>  <gnina_score_min>  (645) 
5.39

>  <tags>  (645) 
openbind_xx01zvns2b_c1_elab_nonasap_filtered_scored_top80percent,openbind_xx01zvns2b_c1_elab_chemspace_filtered_scored_top80percent,openbind_xx01zvns2b_c1_elab_chemspace_filtered_scored,openbind_xx01zvns2b_c1_elab_chemspace_filtered_scored_top40percent,openbind_xx01zvns2b_c1_elab_chemspace_filtered_scored_top20percent,openbind_xx01zvns2b_c1_elab_chemspace_filtered_scored_top60percent,openbind_xx01zvns2b_c1_elabs_filtered

>  <smiles>  (645) 
CC(C)[C@@H](C(=O)N[C@]1(C)CCOC1)n1cnc2cc(F)c(F)cc21

>  <subsites>  (645) 
1 - Z4590/B/203/1

>  <gnina_score>  (645) 
5.39

>  <HIPPO Pose ID>  (645) 
74425

>  <ref_mols>  (645) 
Z0101a,Z3880a

>  <energy_score>  (645) 
-3.850442

>  <inspiration_score>  (645) 
None

>  <smina_score_min>  (645) 
-6.082

>  <fragmenstein_error>  (645) 
nan

>  <name>  (645) 
P74425

$$$$
P74429
     RDKit          3D

 24 26  0  0  0  0  0  0  0  0999 V2000
   -5.4063    6.9239  -12.5879 C   0  0  0  0  0  0  0  0  0  0  0  0
   -5.0123    5.4492  -12.6842 C   0  0  0  0  0  0  0  0  0  0  0  0
   -4.6347    4.9137  -11.2990 C   0  0  0  0  0  0  0  0  0  0  0  0
   -6.0675    4.6126  -13.4444 C   0  0  1  0  0  0  0  0  0  0  0  0
   -7.4252    4.8082  -12.6932 C   0  0  0  0  0  0  0  0  0  0  0  0
   -8.1894    5.6416  -13.0038 O   0  0  0  0  0  0  0  0  0  0  0  0
   -7.4527    3.8034  -11.4893 N   0  0  0  0  0  0  0  0  0  0  0  0
   -8.3801    3.6913  -10.3754 C   0  0  1  0  0  0  0  0  0  0  0  0
   -8.6137    2.2966   -9.8433 C   0  0  0  0  0  0  0  0  0  0  0  0
   -9.1222    2.5362   -8.4294 C   0  0  0  0  0  0  0  0  0  0  0  0
   -8.6802    3.8434   -8.0223 O   0  0  0  0  0  0  0  0  0  0  0  0
   -7.8998    4.3856   -9.0989 C   0  0  2  0  0  0  0  0  0  0  0  0
   -8.0365    5.8918   -9.1282 C   0  0  0  0  0  0  0  0  0  0  0  0
   -6.0618    4.9303  -14.9023 N   0  0  0  0  0  0  0  0  0  0  0  0
   -4.9623    5.3201  -15.6487 C   0  0  0  0  0  0  0  0  0  0  0  0
   -5.1944    5.3546  -16.9391 N   0  0  0  0  0  0  0  0  0  0  0  0
   -6.4826    4.9307  -17.0675 C   0  0  0  0  0  0  0  0  0  0  0  0
   -7.2106    4.7137  -18.2401 C   0  0  0  0  0  0  0  0  0  0  0  0
   -8.5209    4.2938  -18.0953 C   0  0  0  0  0  0  0  0  0  0  0  0
   -9.2742    4.0518  -19.1633 F   0  0  0  0  0  0  0  0  0  0  0  0
   -9.0938    4.1177  -16.8568 C   0  0  0  0  0  0  0  0  0  0  0  0
  -10.3848    3.8104  -16.8041 F   0  0  0  0  0  0  0  0  0  0  0  0
   -8.3834    4.2737  -15.6820 C   0  0  0  0  0  0  0  0  0  0  0  0
   -7.0628    4.6905  -15.8149 C   0  0  0  0  0  0  0  0  0  0  0  0
  1  2  1  0
  2  3  1  0
  4  2  1  1
  4  5  1  0
  5  6  2  0
  5  7  1  0
  8  7  1  6
  8  9  1  0
  9 10  1  0
 10 11  1  0
 11 12  1  0
 12 13  1  6
  4 14  1  0
 14 15  1  0
 15 16  2  0
 16 17  1  0
 17 18  2  0
 18 19  1  0
 19 20  1  0
 19 21  2  0
 21 22  1  0
 21 23  1  0
 23 24  2  0
 12  8  1  0
 24 14  1  0
 24 17  1  0
M  END
>  <fragmenstein_outcome>  (646) 
nan

>  <exports>  (646) 
['/opt/xchem-fragalysis-2/maxwin/openbind-hippo/xx01zvns2b/cycle_01/syndirella/elabs/openbind_xx01zvns2b_c1_elab_chemspace_filtered.sdf']

>  <Energy>  (646) 
nan

>  <alias>  (646) 
None

>  <fragmenstein_runtime>  (646) 
nan

>  <scratch_subdir>  (646) 
nan

>  <HIPPO Compound ID>  (646) 
147508

>  <rmsd(smina/fragmenstein)>  (646) 
0.677

>  <distance_score>  (646) 
1.426806

>  <orig_smiles>  (646) 
nan

>  <fragmenstein_mode>  (646) 
nan

>  <inchikey>  (646) 
VLCNHRJKZIBHMQ-HICWGWBUSA-N

>  <ref_pdb>  (646) 
Z3880a

>  <GNINA pK>  (646) 
nan

>  <gnina_score_min>  (646) 
5.516

>  <tags>  (646) 
openbind_xx01zvns2b_c1_elab_nonasap_filtered_scored_top80percent,openbind_xx01zvns2b_c1_elab_chemspace_filtered_scored_top80percent,openbind_xx01zvns2b_c1_elab_chemspace_filtered_scored,openbind_xx01zvns2b_c1_elab_chemspace_filtered_scored_top40percent,openbind_xx01zvns2b_c1_elab_chemspace_filtered_scored_top20percent,openbind_xx01zvns2b_c1_elab_chemspace_filtered_scored_top60percent,openbind_xx01zvns2b_c1_elabs_filtered

>  <smiles>  (646) 
CC(C)[C@@H](C(=O)N[C@H]1CCO[C@@H]1C)n1cnc2cc(F)c(F)cc21

>  <subsites>  (646) 
1 - Z4590/B/203/1

>  <gnina_score>  (646) 
5.387

>  <HIPPO Pose ID>  (646) 
74429

>  <ref_mols>  (646) 
Z0101a,Z3880a

>  <energy_score>  (646) 
-17.519598

>  <inspiration_score>  (646) 
None

>  <smina_score_min>  (646) 
-6.236

>  <fragmenstein_error>  (646) 
nan

>  <name>  (646) 
P74429

$$$$
P74438
     RDKit          3D

 24 26  0  0  0  0  0  0  0  0999 V2000
   -5.5184    6.9483  -12.5896 C   0  0  0  0  0  0  0  0  0  0  0  0
   -5.0849    5.4805  -12.6160 C   0  0  0  0  0  0  0  0  0  0  0  0
   -4.7347    5.0220  -11.1969 C   0  0  0  0  0  0  0  0  0  0  0  0
   -6.1001    4.5816  -13.3664 C   0  0  1  0  0  0  0  0  0  0  0  0
   -7.4638    4.7485  -12.6126 C   0  0  0  0  0  0  0  0  0  0  0  0
   -8.2293    5.5859  -12.9093 O   0  0  0  0  0  0  0  0  0  0  0  0
   -7.4951    3.7163  -11.4310 N   0  0  0  0  0  0  0  0  0  0  0  0
   -8.4341    3.5753  -10.3196 C   0  0  1  0  0  0  0  0  0  0  0  0
   -8.6717    2.1982   -9.7289 C   0  0  0  0  0  0  0  0  0  0  0  0
   -9.1794    2.4058   -8.3983 O   0  0  0  0  0  0  0  0  0  0  0  0
   -8.6907    3.6679   -7.9306 C   0  0  0  0  0  0  0  0  0  0  0  0
   -7.9520    4.3306   -9.0829 C   0  0  2  0  0  0  0  0  0  0  0  0
   -8.1982    5.7298   -9.1570 O   0  0  0  0  0  0  0  0  0  0  0  0
   -6.0835    4.8833  -14.8294 N   0  0  0  0  0  0  0  0  0  0  0  0
   -4.9676    5.2467  -15.5684 C   0  0  0  0  0  0  0  0  0  0  0  0
   -5.1909    5.3032  -16.8596 N   0  0  0  0  0  0  0  0  0  0  0  0
   -6.4865    4.9063  -17.0006 C   0  0  0  0  0  0  0  0  0  0  0  0
   -7.2073    4.7083  -18.1824 C   0  0  0  0  0  0  0  0  0  0  0  0
   -8.5221    4.2986  -18.0541 C   0  0  0  0  0  0  0  0  0  0  0  0
   -9.2664    4.0639  -19.1310 F   0  0  0  0  0  0  0  0  0  0  0  0
   -9.1072    4.1243  -16.8211 C   0  0  0  0  0  0  0  0  0  0  0  0
  -10.3994    3.8208  -16.7834 F   0  0  0  0  0  0  0  0  0  0  0  0
   -8.4092    4.2749  -15.6367 C   0  0  0  0  0  0  0  0  0  0  0  0
   -7.0809    4.6699  -15.7525 C   0  0  0  0  0  0  0  0  0  0  0  0
  1  2  1  0
  2  3  1  0
  4  2  1  1
  4  5  1  0
  5  6  2  0
  5  7  1  0
  8  7  1  6
  8  9  1  0
  9 10  1  0
 10 11  1  0
 11 12  1  0
 12 13  1  6
  4 14  1  0
 14 15  1  0
 15 16  2  0
 16 17  1  0
 17 18  2  0
 18 19  1  0
 19 20  1  0
 19 21  2  0
 21 22  1  0
 21 23  1  0
 23 24  2  0
 12  8  1  0
 24 14  1  0
 24 17  1  0
M  END
>  <fragmenstein_outcome>  (647) 
nan

>  <exports>  (647) 
['/opt/xchem-fragalysis-2/maxwin/openbind-hippo/xx01zvns2b/cycle_01/syndirella/elabs/openbind_xx01zvns2b_c1_elab_chemspace_filtered.sdf']

>  <Energy>  (647) 
nan

>  <alias>  (647) 
None

>  <fragmenstein_runtime>  (647) 
nan

>  <scratch_subdir>  (647) 
nan

>  <HIPPO Compound ID>  (647) 
147514

>  <rmsd(smina/fragmenstein)>  (647) 
0.652

>  <distance_score>  (647) 
1.406493

>  <orig_smiles>  (647) 
nan

>  <fragmenstein_mode>  (647) 
nan

>  <inchikey>  (647) 
SGQOHYDEFGHJRJ-QEJZJMRPSA-N

>  <ref_pdb>  (647) 
Z3880a

>  <GNINA pK>  (647) 
nan

>  <gnina_score_min>  (647) 
5.256

>  <tags>  (647) 
openbind_xx01zvns2b_c1_elab_nonasap_filtered_scored_top80percent,openbind_xx01zvns2b_c1_elab_chemspace_filtered_scored_top80percent,openbind_xx01zvns2b_c1_elab_chemspace_filtered_scored,openbind_xx01zvns2b_c1_elab_chemspace_filtered_scored_top40percent,openbind_xx01zvns2b_c1_elab_chemspace_filtered_scored_top20percent,openbind_xx01zvns2b_c1_elab_chemspace_filtered_scored_top60percent,openbind_xx01zvns2b_c1_elabs_filtered

>  <smiles>  (647) 
CC(C)[C@@H](C(=O)N[C@H]1COC[C@@H]1O)n1cnc2cc(F)c(F)cc21

>  <subsites>  (647) 
1 - Z4590/B/203/1

>  <gnina_score>  (647) 
5.039

>  <HIPPO Pose ID>  (647) 
74438

>  <ref_mols>  (647) 
Z0101a,Z3880a

>  <energy_score>  (647) 
-8.347267

>  <inspiration_score>  (647) 
None

>  <smina_score_min>  (647) 
-6.126

>  <fragmenstein_error>  (647) 
nan

>  <name>  (647) 
P74438

$$$$
P74444
     RDKit          3D

 24 26  0  0  0  0  0  0  0  0999 V2000
   -6.5211    7.2208  -12.8402 C   0  0  0  0  0  0  0  0  0  0  0  0
   -5.4530    6.1297  -12.8034 C   0  0  0  0  0  0  0  0  0  0  0  0
   -4.8303    6.0388  -11.4065 C   0  0  0  0  0  0  0  0  0  0  0  0
   -5.9610    4.7680  -13.3492 C   0  0  1  0  0  0  0  0  0  0  0  0
   -7.2139    4.3951  -12.4831 C   0  0  0  0  0  0  0  0  0  0  0  0
   -8.2863    4.8123  -12.7030 O   0  0  0  0  0  0  0  0  0  0  0  0
   -6.6941    3.5039  -11.3022 N   0  0  0  0  0  0  0  0  0  0  0  0
   -7.3757    3.0294  -10.1044 C   0  0  2  0  0  0  0  0  0  0  0  0
   -8.8218    2.5817  -10.2415 C   0  0  0  0  0  0  0  0  0  0  0  0
   -9.2530    2.4260   -8.7837 C   0  0  0  0  0  0  0  0  0  0  0  0
   -8.5801    3.5804   -8.0405 C   0  0  0  0  0  0  0  0  0  0  0  0
   -7.4925    4.0958   -8.9868 C   0  0  2  0  0  0  0  0  0  0  0  0
   -7.8977    5.3747   -9.4936 O   0  0  0  0  0  0  0  0  0  0  0  0
   -6.0244    4.8580  -14.8368 N   0  0  0  0  0  0  0  0  0  0  0  0
   -4.8944    5.1509  -15.5954 C   0  0  0  0  0  0  0  0  0  0  0  0
   -5.1317    5.2083  -16.8814 N   0  0  0  0  0  0  0  0  0  0  0  0
   -6.4450    4.8582  -16.9989 C   0  0  0  0  0  0  0  0  0  0  0  0
   -7.1815    4.6705  -18.1745 C   0  0  0  0  0  0  0  0  0  0  0  0
   -8.5032    4.2890  -18.0367 C   0  0  0  0  0  0  0  0  0  0  0  0
   -9.2567    4.0519  -19.1073 F   0  0  0  0  0  0  0  0  0  0  0  0
   -9.0815    4.1386  -16.7983 C   0  0  0  0  0  0  0  0  0  0  0  0
  -10.3736    3.8356  -16.7459 F   0  0  0  0  0  0  0  0  0  0  0  0
   -8.3749    4.3023  -15.6196 C   0  0  0  0  0  0  0  0  0  0  0  0
   -7.0365    4.6589  -15.7382 C   0  0  0  0  0  0  0  0  0  0  0  0
  1  2  1  0
  2  3  1  0
  4  2  1  1
  4  5  1  0
  5  6  2  0
  5  7  1  0
  8  7  1  6
  8  9  1  0
  9 10  1  0
 10 11  1  0
 11 12  1  0
 12 13  1  6
  4 14  1  0
 14 15  1  0
 15 16  2  0
 16 17  1  0
 17 18  2  0
 18 19  1  0
 19 20  1  0
 19 21  2  0
 21 22  1  0
 21 23  1  0
 23 24  2  0
 12  8  1  0
 24 14  1  0
 24 17  1  0
M  END
>  <fragmenstein_outcome>  (648) 
nan

>  <exports>  (648) 
['/opt/xchem-fragalysis-2/maxwin/openbind-hippo/xx01zvns2b/cycle_01/syndirella/elabs/openbind_xx01zvns2b_c1_elab_chemspace_filtered.sdf']

>  <Energy>  (648) 
nan

>  <alias>  (648) 
None

>  <fragmenstein_runtime>  (648) 
nan

>  <scratch_subdir>  (648) 
nan

>  <HIPPO Compound ID>  (648) 
147516

>  <rmsd(smina/fragmenstein)>  (648) 
0.665

>  <distance_score>  (648) 
1.470501

>  <orig_smiles>  (648) 
nan

>  <fragmenstein_mode>  (648) 
nan

>  <inchikey>  (648) 
RIQRZDFAYXISLB-KCXAZCMYSA-N

>  <ref_pdb>  (648) 
Z3880a

>  <GNINA pK>  (648) 
nan

>  <gnina_score_min>  (648) 
5.497

>  <tags>  (648) 
openbind_xx01zvns2b_c1_elab_nonasap_filtered_scored_top80percent,openbind_xx01zvns2b_c1_elab_chemspace_filtered_scored_top80percent,openbind_xx01zvns2b_c1_elab_chemspace_filtered_scored,openbind_xx01zvns2b_c1_elab_chemspace_filtered_scored_top40percent,openbind_xx01zvns2b_c1_elab_chemspace_filtered_scored_top20percent,openbind_xx01zvns2b_c1_elab_chemspace_filtered_scored_top60percent,openbind_xx01zvns2b_c1_elabs_filtered

>  <smiles>  (648) 
CC(C)[C@@H](C(=O)N[C@@H]1CCC[C@@H]1O)n1cnc2cc(F)c(F)cc21

>  <subsites>  (648) 
1 - Z4590/B/203/1

>  <gnina_score>  (648) 
5.249

>  <HIPPO Pose ID>  (648) 
74444

>  <ref_mols>  (648) 
Z0101a,Z3880a

>  <energy_score>  (648) 
-13.042926

>  <inspiration_score>  (648) 
None

>  <smina_score_min>  (648) 
-6.639

>  <fragmenstein_error>  (648) 
nan

>  <name>  (648) 
P74444

$$$$
P74452
     RDKit          3D

 24 26  0  0  0  0  0  0  0  0999 V2000
   -5.3806    6.8997  -12.5621 C   0  0  0  0  0  0  0  0  0  0  0  0
   -4.9919    5.4237  -12.6631 C   0  0  0  0  0  0  0  0  0  0  0  0
   -4.5998    4.8864  -11.2831 C   0  0  0  0  0  0  0  0  0  0  0  0
   -6.0554    4.5899  -13.4163 C   0  0  1  0  0  0  0  0  0  0  0  0
   -7.4097    4.7947  -12.6577 C   0  0  0  0  0  0  0  0  0  0  0  0
   -8.1601    5.6451  -12.9574 O   0  0  0  0  0  0  0  0  0  0  0  0
   -7.4539    3.7743  -11.4658 N   0  0  0  0  0  0  0  0  0  0  0  0
   -8.3849    3.6635  -10.3504 C   0  0  1  0  0  0  0  0  0  0  0  0
   -8.6946    2.2668   -9.8321 C   0  0  0  0  0  0  0  0  0  0  0  0
   -9.1640    2.4225   -8.4819 O   0  0  0  0  0  0  0  0  0  0  0  0
   -8.6555    3.6575   -7.9730 C   0  0  0  0  0  0  0  0  0  0  0  0
   -7.8430    4.3105   -9.0814 C   0  0  2  0  0  0  0  0  0  0  0  0
   -7.9351    5.8241   -9.0698 C   0  0  0  0  0  0  0  0  0  0  0  0
   -6.0508    4.9124  -14.8741 N   0  0  0  0  0  0  0  0  0  0  0  0
   -4.9524    5.3008  -15.6237 C   0  0  0  0  0  0  0  0  0  0  0  0
   -5.1893    5.3447  -16.9131 N   0  0  0  0  0  0  0  0  0  0  0  0
   -6.4795    4.9269  -17.0396 C   0  0  0  0  0  0  0  0  0  0  0  0
   -7.2122    4.7185  -18.2116 C   0  0  0  0  0  0  0  0  0  0  0  0
   -8.5228    4.3003  -18.0655 C   0  0  0  0  0  0  0  0  0  0  0  0
   -9.2808    4.0653  -19.1326 F   0  0  0  0  0  0  0  0  0  0  0  0
   -9.0908    4.1205  -16.8250 C   0  0  0  0  0  0  0  0  0  0  0  0
  -10.3810    3.8119  -16.7687 F   0  0  0  0  0  0  0  0  0  0  0  0
   -8.3779    4.2728  -15.6507 C   0  0  0  0  0  0  0  0  0  0  0  0
   -7.0561    4.6837  -15.7856 C   0  0  0  0  0  0  0  0  0  0  0  0
  1  2  1  0
  2  3  1  0
  4  2  1  1
  4  5  1  0
  5  6  2  0
  5  7  1  0
  8  7  1  6
  8  9  1  0
  9 10  1  0
 10 11  1  0
 11 12  1  0
 12 13  1  6
  4 14  1  0
 14 15  1  0
 15 16  2  0
 16 17  1  0
 17 18  2  0
 18 19  1  0
 19 20  1  0
 19 21  2  0
 21 22  1  0
 21 23  1  0
 23 24  2  0
 12  8  1  0
 24 14  1  0
 24 17  1  0
M  END
>  <fragmenstein_outcome>  (649) 
nan

>  <exports>  (649) 
['/opt/xchem-fragalysis-2/maxwin/openbind-hippo/xx01zvns2b/cycle_01/syndirella/elabs/openbind_xx01zvns2b_c1_elab_chemspace_filtered.sdf']

>  <Energy>  (649) 
nan

>  <alias>  (649) 
None

>  <fragmenstein_runtime>  (649) 
nan

>  <scratch_subdir>  (649) 
nan

>  <HIPPO Compound ID>  (649) 
147517

>  <rmsd(smina/fragmenstein)>  (649) 
0.569

>  <distance_score>  (649) 
1.439308

>  <orig_smiles>  (649) 
nan

>  <fragmenstein_mode>  (649) 
nan

>  <inchikey>  (649) 
IARVGMNJQIJZIS-FSBGKCOPSA-N

>  <ref_pdb>  (649) 
Z3880a

>  <GNINA pK>  (649) 
nan

>  <gnina_score_min>  (649) 
5.501

>  <tags>  (649) 
openbind_xx01zvns2b_c1_elab_nonasap_filtered_scored_top80percent,openbind_xx01zvns2b_c1_elab_chemspace_filtered_scored_top80percent,openbind_xx01zvns2b_c1_elab_chemspace_filtered_scored,openbind_xx01zvns2b_c1_elab_chemspace_filtered_scored_top40percent,openbind_xx01zvns2b_c1_elab_chemspace_filtered_scored_top20percent,openbind_xx01zvns2b_c1_elab_chemspace_filtered_scored_top60percent,openbind_xx01zvns2b_c1_elabs_filtered

>  <smiles>  (649) 
CC(C)[C@@H](C(=O)N[C@H]1COC[C@@H]1C)n1cnc2cc(F)c(F)cc21

>  <subsites>  (649) 
1 - Z4590/B/203/1

>  <gnina_score>  (649) 
5.324

>  <HIPPO Pose ID>  (649) 
74452

>  <ref_mols>  (649) 
Z0101a,Z3880a

>  <energy_score>  (649) 
-0.231835

>  <inspiration_score>  (649) 
None

>  <smina_score_min>  (649) 
-6.152

>  <fragmenstein_error>  (649) 
nan

>  <name>  (649) 
P74452

$$$$
P74457
     RDKit          3D

 24 26  0  0  0  0  0  0  0  0999 V2000
   -5.3706    6.3590  -11.3884 C   0  0  0  0  0  0  0  0  0  0  0  0
   -5.8305    6.3732  -12.8347 C   0  0  0  0  0  0  0  0  0  0  0  0
   -6.8480    7.4973  -13.0572 C   0  0  0  0  0  0  0  0  0  0  0  0
   -6.2995    4.9750  -13.3015 C   0  0  1  0  0  0  0  0  0  0  0  0
   -7.6247    4.6459  -12.5349 C   0  0  0  0  0  0  0  0  0  0  0  0
   -8.6652    5.0660  -12.8826 O   0  0  0  0  0  0  0  0  0  0  0  0
   -7.2397    3.8009  -11.2588 N   0  0  0  0  0  0  0  0  0  0  0  0
   -8.0429    3.3952  -10.1227 C   0  0  0  0  0  0  0  0  0  0  0  0
   -8.4315    4.4582   -9.0910 C   0  0  1  0  0  0  0  0  0  0  0  0
   -7.5797    4.4681   -7.8354 C   0  0  0  0  0  0  0  0  0  0  0  0
   -8.3859    5.7538   -9.6817 O   0  0  0  0  0  0  0  0  0  0  0  0
   -7.8505    1.9819   -9.6068 C   0  0  0  0  0  0  0  0  0  0  0  0
   -9.0890    2.3310  -10.3536 C   0  0  0  0  0  0  0  0  0  0  0  0
   -6.2378    4.9399  -14.7914 N   0  0  0  0  0  0  0  0  0  0  0  0
   -5.0521    5.1829  -15.4782 C   0  0  0  0  0  0  0  0  0  0  0  0
   -5.1974    5.1887  -16.7789 N   0  0  0  0  0  0  0  0  0  0  0  0
   -6.5006    4.8387  -16.9752 C   0  0  0  0  0  0  0  0  0  0  0  0
   -7.1517    4.6069  -18.1912 C   0  0  0  0  0  0  0  0  0  0  0  0
   -8.4804    4.2297  -18.1325 C   0  0  0  0  0  0  0  0  0  0  0  0
   -9.1461    3.9307  -19.2429 F   0  0  0  0  0  0  0  0  0  0  0  0
   -9.1528    4.1299  -16.9387 C   0  0  0  0  0  0  0  0  0  0  0  0
  -10.4520    3.8434  -16.9774 F   0  0  0  0  0  0  0  0  0  0  0  0
   -8.5268    4.3315  -15.7204 C   0  0  0  0  0  0  0  0  0  0  0  0
   -7.1815    4.6883  -15.7536 C   0  0  0  0  0  0  0  0  0  0  0  0
  1  2  1  0
  2  3  1  0
  4  2  1  6
  4  5  1  0
  5  6  2  0
  5  7  1  0
  7  8  1  0
  8  9  1  0
  9 10  1  1
  9 11  1  0
  8 12  1  0
 12 13  1  0
  4 14  1  0
 14 15  1  0
 15 16  2  0
 16 17  1  0
 17 18  2  0
 18 19  1  0
 19 20  1  0
 19 21  2  0
 21 22  1  0
 21 23  1  0
 23 24  2  0
 13  8  1  0
 24 14  1  0
 24 17  1  0
M  END
>  <fragmenstein_outcome>  (650) 
nan

>  <exports>  (650) 
['/opt/xchem-fragalysis-2/maxwin/openbind-hippo/xx01zvns2b/cycle_01/syndirella/elabs/openbind_xx01zvns2b_c1_elab_chemspace_filtered.sdf']

>  <Energy>  (650) 
nan

>  <alias>  (650) 
None

>  <fragmenstein_runtime>  (650) 
nan

>  <scratch_subdir>  (650) 
nan

>  <HIPPO Compound ID>  (650) 
147518

>  <rmsd(smina/fragmenstein)>  (650) 
0.937

>  <distance_score>  (650) 
1.607871

>  <orig_smiles>  (650) 
nan

>  <fragmenstein_mode>  (650) 
nan

>  <inchikey>  (650) 
MHZLWNJTKNSVIF-BMIGLBTASA-N

>  <ref_pdb>  (650) 
Z3880a

>  <GNINA pK>  (650) 
nan

>  <gnina_score_min>  (650) 
5.442

>  <tags>  (650) 
openbind_xx01zvns2b_c1_elab_nonasap_filtered_scored_top80percent,openbind_xx01zvns2b_c1_elab_chemspace_filtered_scored_top80percent,openbind_xx01zvns2b_c1_elab_chemspace_filtered_scored,openbind_xx01zvns2b_c1_elab_chemspace_filtered_scored_top40percent,openbind_xx01zvns2b_c1_elab_chemspace_filtered_scored_top20percent,openbind_xx01zvns2b_c1_elab_chemspace_filtered_scored_top60percent,openbind_xx01zvns2b_c1_elabs_filtered

>  <smiles>  (650) 
CC(C)[C@@H](C(=O)NC1([C@@H](C)O)CC1)n1cnc2cc(F)c(F)cc21

>  <subsites>  (650) 
1 - Z4590/B/203/1

>  <gnina_score>  (650) 
5.182

>  <HIPPO Pose ID>  (650) 
74457

>  <ref_mols>  (650) 
Z0101a,Z3880a

>  <energy_score>  (650) 
-24.187145

>  <inspiration_score>  (650) 
None

>  <smina_score_min>  (650) 
-5.495

>  <fragmenstein_error>  (650) 
nan

>  <name>  (650) 
P74457

$$$$
P74460
     RDKit          3D

 24 26  0  0  0  0  0  0  0  0999 V2000
   -5.5262    6.3380  -11.4190 C   0  0  0  0  0  0  0  0  0  0  0  0
   -5.6176    6.3041  -12.9348 C   0  0  0  0  0  0  0  0  0  0  0  0
   -6.2720    7.6041  -13.4286 C   0  0  0  0  0  0  0  0  0  0  0  0
   -6.2798    5.0097  -13.4645 C   0  0  1  0  0  0  0  0  0  0  0  0
   -7.6857    4.9061  -12.7869 C   0  0  0  0  0  0  0  0  0  0  0  0
   -8.6041    5.5198  -13.1807 O   0  0  0  0  0  0  0  0  0  0  0  0
   -7.5489    3.9771  -11.5299 N   0  0  0  0  0  0  0  0  0  0  0  0
   -8.4917    3.6968  -10.4546 C   0  0  1  0  0  0  0  0  0  0  0  0
   -8.4663    2.2950   -9.9087 C   0  0  0  0  0  0  0  0  0  0  0  0
   -9.0269    2.4551   -8.5146 C   0  0  0  0  0  0  0  0  0  0  0  0
   -8.6276    3.7568   -8.0842 O   0  0  0  0  0  0  0  0  0  0  0  0
   -8.2937    4.5031   -9.1795 C   0  0  0  0  0  0  0  0  0  0  0  0
   -7.9154    5.6624   -9.1121 O   0  0  0  0  0  0  0  0  0  0  0  0
   -6.1907    4.9833  -14.9464 N   0  0  0  0  0  0  0  0  0  0  0  0
   -5.0183    5.2321  -15.6453 C   0  0  0  0  0  0  0  0  0  0  0  0
   -5.1802    5.2151  -16.9451 N   0  0  0  0  0  0  0  0  0  0  0  0
   -6.4823    4.8459  -17.1191 C   0  0  0  0  0  0  0  0  0  0  0  0
   -7.1549    4.5989  -18.3171 C   0  0  0  0  0  0  0  0  0  0  0  0
   -8.4808    4.2141  -18.2244 C   0  0  0  0  0  0  0  0  0  0  0  0
   -9.1671    3.9155  -19.3198 F   0  0  0  0  0  0  0  0  0  0  0  0
   -9.1299    4.1036  -17.0189 C   0  0  0  0  0  0  0  0  0  0  0  0
  -10.4302    3.8180  -17.0277 F   0  0  0  0  0  0  0  0  0  0  0  0
   -8.4758    4.2986  -15.8186 C   0  0  0  0  0  0  0  0  0  0  0  0
   -7.1404    4.6897  -15.8897 C   0  0  0  0  0  0  0  0  0  0  0  0
  1  2  1  0
  2  3  1  0
  4  2  1  6
  4  5  1  0
  5  6  2  0
  5  7  1  0
  8  7  1  6
  8  9  1  0
  9 10  1  0
 10 11  1  0
 11 12  1  0
 12 13  2  0
  4 14  1  0
 14 15  1  0
 15 16  2  0
 16 17  1  0
 17 18  2  0
 18 19  1  0
 19 20  1  0
 19 21  2  0
 21 22  1  0
 21 23  1  0
 23 24  2  0
 12  8  1  0
 24 14  1  0
 24 17  1  0
M  END
>  <fragmenstein_outcome>  (651) 
nan

>  <exports>  (651) 
['/opt/xchem-fragalysis-2/maxwin/openbind-hippo/xx01zvns2b/cycle_01/syndirella/elabs/openbind_xx01zvns2b_c1_elab_chemspace_filtered.sdf']

>  <Energy>  (651) 
nan

>  <alias>  (651) 
None

>  <fragmenstein_runtime>  (651) 
nan

>  <scratch_subdir>  (651) 
nan

>  <HIPPO Compound ID>  (651) 
147522

>  <rmsd(smina/fragmenstein)>  (651) 
0.618

>  <distance_score>  (651) 
1.488906

>  <orig_smiles>  (651) 
nan

>  <fragmenstein_mode>  (651) 
nan

>  <inchikey>  (651) 
HMCJDRASDCVJKU-FZMZJTMJSA-N

>  <ref_pdb>  (651) 
Z3880a

>  <GNINA pK>  (651) 
nan

>  <gnina_score_min>  (651) 
5.549

>  <tags>  (651) 
openbind_xx01zvns2b_c1_elab_nonasap_filtered_scored_top80percent,openbind_xx01zvns2b_c1_elab_chemspace_filtered_scored_top80percent,openbind_xx01zvns2b_c1_elab_chemspace_filtered_scored,openbind_xx01zvns2b_c1_elab_chemspace_filtered_scored_top40percent,openbind_xx01zvns2b_c1_elab_chemspace_filtered_scored_top20percent,openbind_xx01zvns2b_c1_elab_chemspace_filtered_scored_top60percent,openbind_xx01zvns2b_c1_elabs_filtered

>  <smiles>  (651) 
CC(C)[C@@H](C(=O)N[C@H]1CCOC1=O)n1cnc2cc(F)c(F)cc21

>  <subsites>  (651) 
1 - Z4590/B/203/1

>  <gnina_score>  (651) 
5.333

>  <HIPPO Pose ID>  (651) 
74460

>  <ref_mols>  (651) 
Z0101a,Z3880a

>  <energy_score>  (651) 
-0.925531

>  <inspiration_score>  (651) 
None

>  <smina_score_min>  (651) 
-6.434

>  <fragmenstein_error>  (651) 
nan

>  <name>  (651) 
P74460

$$$$
P74478
     RDKit          3D

 24 26  0  0  0  0  0  0  0  0999 V2000
   -5.4876    6.2607  -11.4048 C   0  0  0  0  0  0  0  0  0  0  0  0
   -5.5635    6.2626  -12.9232 C   0  0  0  0  0  0  0  0  0  0  0  0
   -6.2010    7.5798  -13.3935 C   0  0  0  0  0  0  0  0  0  0  0  0
   -6.2316    4.9833  -13.4820 C   0  0  1  0  0  0  0  0  0  0  0  0
   -7.6340    4.8914  -12.8107 C   0  0  0  0  0  0  0  0  0  0  0  0
   -8.5342    5.5455  -13.1863 O   0  0  0  0  0  0  0  0  0  0  0  0
   -7.5288    3.9125  -11.5822 N   0  0  0  0  0  0  0  0  0  0  0  0
   -8.4878    3.6212  -10.5165 C   0  0  1  0  0  0  0  0  0  0  0  0
   -8.5673    2.2230   -9.9046 C   0  0  0  0  0  0  0  0  0  0  0  0
   -8.9601    2.8983   -8.5688 C   0  0  0  0  0  0  0  0  0  0  0  0
   -8.1863    4.1574   -9.0647 C   0  0  1  0  0  0  0  0  0  0  0  0
   -6.7781    4.1723   -8.5111 C   0  0  0  0  0  0  0  0  0  0  0  0
   -8.7641    5.4448   -8.7685 O   0  0  0  0  0  0  0  0  0  0  0  0
   -6.1545    4.9834  -14.9634 N   0  0  0  0  0  0  0  0  0  0  0  0
   -4.9921    5.2488  -15.6704 C   0  0  0  0  0  0  0  0  0  0  0  0
   -5.1663    5.2347  -16.9685 N   0  0  0  0  0  0  0  0  0  0  0  0
   -6.4672    4.8557  -17.1335 C   0  0  0  0  0  0  0  0  0  0  0  0
   -7.1504    4.6084  -18.3257 C   0  0  0  0  0  0  0  0  0  0  0  0
   -8.4746    4.2192  -18.2214 C   0  0  0  0  0  0  0  0  0  0  0  0
   -9.1732    3.9250  -19.3105 F   0  0  0  0  0  0  0  0  0  0  0  0
   -9.1110    4.1020  -17.0096 C   0  0  0  0  0  0  0  0  0  0  0  0
  -10.4106    3.8143  -17.0050 F   0  0  0  0  0  0  0  0  0  0  0  0
   -8.4455    4.2933  -15.8153 C   0  0  0  0  0  0  0  0  0  0  0  0
   -7.1125    4.6906  -15.8989 C   0  0  0  0  0  0  0  0  0  0  0  0
  1  2  1  0
  2  3  1  0
  4  2  1  6
  4  5  1  0
  5  6  2  0
  5  7  1  0
  8  7  1  6
  8  9  1  0
  9 10  1  0
 10 11  1  0
 11 12  1  1
 11 13  1  0
  4 14  1  0
 14 15  1  0
 15 16  2  0
 16 17  1  0
 17 18  2  0
 18 19  1  0
 19 20  1  0
 19 21  2  0
 21 22  1  0
 21 23  1  0
 23 24  2  0
 11  8  1  0
 24 14  1  0
 24 17  1  0
M  END
>  <fragmenstein_outcome>  (652) 
nan

>  <exports>  (652) 
['/opt/xchem-fragalysis-2/maxwin/openbind-hippo/xx01zvns2b/cycle_01/syndirella/elabs/openbind_xx01zvns2b_c1_elab_chemspace_filtered.sdf']

>  <Energy>  (652) 
nan

>  <alias>  (652) 
None

>  <fragmenstein_runtime>  (652) 
nan

>  <scratch_subdir>  (652) 
nan

>  <HIPPO Compound ID>  (652) 
147533

>  <rmsd(smina/fragmenstein)>  (652) 
0.777

>  <distance_score>  (652) 
1.541098

>  <orig_smiles>  (652) 
nan

>  <fragmenstein_mode>  (652) 
nan

>  <inchikey>  (652) 
FFQFXSIQLZHRIU-ZOBUZTSGSA-N

>  <ref_pdb>  (652) 
Z3880a

>  <GNINA pK>  (652) 
nan

>  <gnina_score_min>  (652) 
5.534

>  <tags>  (652) 
openbind_xx01zvns2b_c1_elab_nonasap_filtered_scored_top80percent,openbind_xx01zvns2b_c1_elab_chemspace_filtered_scored_top80percent,openbind_xx01zvns2b_c1_elab_chemspace_filtered_scored,openbind_xx01zvns2b_c1_elab_chemspace_filtered_scored_top40percent,openbind_xx01zvns2b_c1_elab_chemspace_filtered_scored_top20percent,openbind_xx01zvns2b_c1_elab_chemspace_filtered_scored_top60percent,openbind_xx01zvns2b_c1_elabs_filtered

>  <smiles>  (652) 
CC(C)[C@@H](C(=O)N[C@H]1CC[C@]1(C)O)n1cnc2cc(F)c(F)cc21

>  <subsites>  (652) 
1 - Z4590/B/203/1

>  <gnina_score>  (652) 
5.402

>  <HIPPO Pose ID>  (652) 
74478

>  <ref_mols>  (652) 
Z0101a,Z3880a

>  <energy_score>  (652) 
-10.043671

>  <inspiration_score>  (652) 
None

>  <smina_score_min>  (652) 
-5.986

>  <fragmenstein_error>  (652) 
nan

>  <name>  (652) 
P74478

$$$$
P74482
     RDKit          3D

 24 26  0  0  0  0  0  0  0  0999 V2000
   -8.1697    5.8744   -9.3748 C   0  0  0  0  0  0  0  0  0  0  0  0
   -8.3351    4.5486   -9.2774 C   0  0  0  0  0  0  0  0  0  0  0  0
   -8.4553    3.8146   -7.9796 C   0  0  0  0  0  0  0  0  0  0  0  0
   -9.0604    2.5645   -8.3092 O   0  0  0  0  0  0  0  0  0  0  0  0
   -8.6222    2.2553   -9.6442 C   0  0  0  0  0  0  0  0  0  0  0  0
   -8.5779    3.5821  -10.3979 C   0  0  2  0  0  0  0  0  0  0  0  0
   -7.6025    3.7269  -11.4616 N   0  0  0  0  0  0  0  0  0  0  0  0
   -7.5549    4.7266  -12.6698 C   0  0  0  0  0  0  0  0  0  0  0  0
   -8.3363    5.5267  -13.0246 O   0  0  0  0  0  0  0  0  0  0  0  0
   -6.1558    4.5951  -13.3608 C   0  0  2  0  0  0  0  0  0  0  0  0
   -5.1717    5.5056  -12.5911 C   0  0  0  0  0  0  0  0  0  0  0  0
   -5.6365    6.9611  -12.5547 C   0  0  0  0  0  0  0  0  0  0  0  0
   -4.8168    5.0247  -11.1804 C   0  0  0  0  0  0  0  0  0  0  0  0
   -6.1120    4.8812  -14.8293 N   0  0  0  0  0  0  0  0  0  0  0  0
   -4.9860    5.2493  -15.5494 C   0  0  0  0  0  0  0  0  0  0  0  0
   -5.1878    5.3038  -16.8445 N   0  0  0  0  0  0  0  0  0  0  0  0
   -6.4783    4.8992  -17.0089 C   0  0  0  0  0  0  0  0  0  0  0  0
   -7.1786    4.6969  -18.2031 C   0  0  0  0  0  0  0  0  0  0  0  0
   -8.4952    4.2836  -18.0985 C   0  0  0  0  0  0  0  0  0  0  0  0
   -9.2186    4.0371  -19.1866 F   0  0  0  0  0  0  0  0  0  0  0  0
   -9.1037    4.1094  -16.8785 C   0  0  0  0  0  0  0  0  0  0  0  0
  -10.3993    3.8129  -16.8644 F   0  0  0  0  0  0  0  0  0  0  0  0
   -8.4219    4.2530  -15.6847 C   0  0  0  0  0  0  0  0  0  0  0  0
   -7.0923    4.6572  -15.7717 C   0  0  0  0  0  0  0  0  0  0  0  0
  1  2  2  0
  2  3  1  0
  3  4  1  0
  4  5  1  0
  5  6  1  0
  6  7  1  6
  7  8  1  0
  8  9  2  0
  8 10  1  0
 10 11  1  1
 11 12  1  0
 11 13  1  0
 10 14  1  0
 14 15  1  0
 15 16  2  0
 16 17  1  0
 17 18  2  0
 18 19  1  0
 19 20  1  0
 19 21  2  0
 21 22  1  0
 21 23  1  0
 23 24  2  0
  6  2  1  0
 24 14  1  0
 24 17  1  0
M  END
>  <fragmenstein_outcome>  (653) 
nan

>  <exports>  (653) 
['/opt/xchem-fragalysis-2/maxwin/openbind-hippo/xx01zvns2b/cycle_01/syndirella/elabs/openbind_xx01zvns2b_c1_elab_chemspace_filtered.sdf']

>  <Energy>  (653) 
nan

>  <alias>  (653) 
None

>  <fragmenstein_runtime>  (653) 
nan

>  <scratch_subdir>  (653) 
nan

>  <HIPPO Compound ID>  (653) 
147534

>  <rmsd(smina/fragmenstein)>  (653) 
0.557

>  <distance_score>  (653) 
1.412833

>  <orig_smiles>  (653) 
nan

>  <fragmenstein_mode>  (653) 
nan

>  <inchikey>  (653) 
IEPCDVZBOUHNQO-HOCLYGCPSA-N

>  <ref_pdb>  (653) 
Z3880a

>  <GNINA pK>  (653) 
nan

>  <gnina_score_min>  (653) 
5.588

>  <tags>  (653) 
openbind_xx01zvns2b_c1_elab_nonasap_filtered_scored_top80percent,openbind_xx01zvns2b_c1_elab_chemspace_filtered_scored_top80percent,openbind_xx01zvns2b_c1_elab_chemspace_filtered_scored,openbind_xx01zvns2b_c1_elab_chemspace_filtered_scored_top40percent,openbind_xx01zvns2b_c1_elab_chemspace_filtered_scored_top20percent,openbind_xx01zvns2b_c1_elab_chemspace_filtered_scored_top60percent,openbind_xx01zvns2b_c1_elabs_filtered

>  <smiles>  (653) 
C=C1COC[C@@H]1NC(=O)[C@H](C(C)C)n1cnc2cc(F)c(F)cc21

>  <subsites>  (653) 
1 - Z4590/B/203/1

>  <gnina_score>  (653) 
5.372

>  <HIPPO Pose ID>  (653) 
74482

>  <ref_mols>  (653) 
Z0101a,Z3880a

>  <energy_score>  (653) 
-0.149216

>  <inspiration_score>  (653) 
None

>  <smina_score_min>  (653) 
-6.105

>  <fragmenstein_error>  (653) 
nan

>  <name>  (653) 
P74482

$$$$
P74485
     RDKit          3D

 24 26  0  0  0  0  0  0  0  0999 V2000
   -4.9775    6.4929  -12.2937 C   0  0  0  0  0  0  0  0  0  0  0  0
   -4.8600    5.0128  -12.6650 C   0  0  0  0  0  0  0  0  0  0  0  0
   -4.4569    4.1908  -11.4348 C   0  0  0  0  0  0  0  0  0  0  0  0
   -6.1101    4.5113  -13.4215 C   0  0  1  0  0  0  0  0  0  0  0  0
   -7.3675    4.9109  -12.5864 C   0  0  0  0  0  0  0  0  0  0  0  0
   -7.9925    5.8734  -12.8359 O   0  0  0  0  0  0  0  0  0  0  0  0
   -7.5037    3.8870  -11.3967 N   0  0  0  0  0  0  0  0  0  0  0  0
   -8.3875    3.9052  -10.2148 C   0  0  1  0  0  0  0  0  0  0  0  0
   -8.1374    2.9065   -9.0468 C   0  0  2  0  0  0  0  0  0  0  0  0
   -9.2263    1.9365   -8.6336 C   0  0  0  0  0  0  0  0  0  0  0  0
   -8.1446    4.1039   -8.0632 C   0  0  0  0  0  0  0  0  0  0  0  0
   -7.9032    5.0342   -9.2470 C   0  0  2  0  0  0  0  0  0  0  0  0
   -8.6447    6.2590   -9.2828 O   0  0  0  0  0  0  0  0  0  0  0  0
   -6.1049    4.9643  -14.8428 N   0  0  0  0  0  0  0  0  0  0  0  0
   -5.0362    5.4564  -15.5697 C   0  0  0  0  0  0  0  0  0  0  0  0
   -5.2507    5.4677  -16.8646 N   0  0  0  0  0  0  0  0  0  0  0  0
   -6.5175    4.9878  -17.0090 C   0  0  0  0  0  0  0  0  0  0  0  0
   -7.2305    4.7490  -18.1862 C   0  0  0  0  0  0  0  0  0  0  0  0
   -8.5326    4.3027  -18.0462 C   0  0  0  0  0  0  0  0  0  0  0  0
   -9.2770    4.0473  -19.1182 F   0  0  0  0  0  0  0  0  0  0  0  0
   -9.1096    4.1258  -16.8073 C   0  0  0  0  0  0  0  0  0  0  0  0
  -10.3970    3.8061  -16.7621 F   0  0  0  0  0  0  0  0  0  0  0  0
   -8.4124    4.2978  -15.6256 C   0  0  0  0  0  0  0  0  0  0  0  0
   -7.0991    4.7279  -15.7627 C   0  0  0  0  0  0  0  0  0  0  0  0
  1  2  1  0
  2  3  1  0
  4  2  1  1
  4  5  1  0
  5  6  2  0
  5  7  1  0
  8  7  1  6
  8  9  1  0
  9 10  1  1
  9 11  1  0
 11 12  1  0
 12 13  1  1
  4 14  1  0
 14 15  1  0
 15 16  2  0
 16 17  1  0
 17 18  2  0
 18 19  1  0
 19 20  1  0
 19 21  2  0
 21 22  1  0
 21 23  1  0
 23 24  2  0
 12  8  1  0
 24 14  1  0
 24 17  1  0
M  END
>  <fragmenstein_outcome>  (654) 
nan

>  <exports>  (654) 
['/opt/xchem-fragalysis-2/maxwin/openbind-hippo/xx01zvns2b/cycle_01/syndirella/elabs/openbind_xx01zvns2b_c1_elab_chemspace_filtered.sdf']

>  <Energy>  (654) 
nan

>  <alias>  (654) 
None

>  <fragmenstein_runtime>  (654) 
nan

>  <scratch_subdir>  (654) 
nan

>  <HIPPO Compound ID>  (654) 
147536

>  <rmsd(smina/fragmenstein)>  (654) 
0.52

>  <distance_score>  (654) 
1.491268

>  <orig_smiles>  (654) 
nan

>  <fragmenstein_mode>  (654) 
nan

>  <inchikey>  (654) 
QHBQIMAWPVZPQJ-VVKQEJOYSA-N

>  <ref_pdb>  (654) 
Z3880a

>  <GNINA pK>  (654) 
nan

>  <gnina_score_min>  (654) 
5.533

>  <tags>  (654) 
openbind_xx01zvns2b_c1_elab_nonasap_filtered_scored_top80percent,openbind_xx01zvns2b_c1_elab_chemspace_filtered_scored_top80percent,openbind_xx01zvns2b_c1_elab_chemspace_filtered_scored,openbind_xx01zvns2b_c1_elab_chemspace_filtered_scored_top40percent,openbind_xx01zvns2b_c1_elab_chemspace_filtered_scored_top20percent,openbind_xx01zvns2b_c1_elab_chemspace_filtered_scored_top60percent,openbind_xx01zvns2b_c1_elabs_filtered

>  <smiles>  (654) 
CC(C)[C@@H](C(=O)N[C@H]1[C@H](C)C[C@@H]1O)n1cnc2cc(F)c(F)cc21

>  <subsites>  (654) 
1 - Z4590/B/203/1

>  <gnina_score>  (654) 
5.398

>  <HIPPO Pose ID>  (654) 
74485

>  <ref_mols>  (654) 
Z0101a,Z3880a

>  <energy_score>  (654) 
-15.714868

>  <inspiration_score>  (654) 
None

>  <smina_score_min>  (654) 
-6.241

>  <fragmenstein_error>  (654) 
nan

>  <name>  (654) 
P74485

$$$$
P74498
     RDKit          3D

 24 26  0  0  0  0  0  0  0  0999 V2000
   -5.5549    7.0707  -12.6954 C   0  0  0  0  0  0  0  0  0  0  0  0
   -4.8962    5.6949  -12.8176 C   0  0  0  0  0  0  0  0  0  0  0  0
   -4.3307    5.2546  -11.4630 C   0  0  0  0  0  0  0  0  0  0  0  0
   -5.8163    4.6472  -13.4963 C   0  0  1  0  0  0  0  0  0  0  0  0
   -7.1367    4.6615  -12.6652 C   0  0  0  0  0  0  0  0  0  0  0  0
   -8.0094    5.4109  -12.8956 O   0  0  0  0  0  0  0  0  0  0  0  0
   -6.9738    3.6175  -11.5035 N   0  0  0  0  0  0  0  0  0  0  0  0
   -7.8238    3.3557  -10.3252 C   0  0  1  0  0  0  0  0  0  0  0  0
   -9.1202    2.7013  -10.7341 C   0  0  0  0  0  0  0  0  0  0  0  0
   -7.1860    2.5825   -9.1609 C   0  0  0  0  0  0  0  0  0  0  0  0
   -7.8907    3.5827   -8.1926 C   0  0  0  0  0  0  0  0  0  0  0  0
   -7.8072    4.5903   -9.3438 C   0  0  2  0  0  0  0  0  0  0  0  0
   -8.8388    5.5684   -9.4676 O   0  0  0  0  0  0  0  0  0  0  0  0
   -5.9059    4.9101  -14.9595 N   0  0  0  0  0  0  0  0  0  0  0  0
   -4.8303    5.2489  -15.7662 C   0  0  0  0  0  0  0  0  0  0  0  0
   -5.1372    5.3201  -17.0383 N   0  0  0  0  0  0  0  0  0  0  0  0
   -6.4416    4.9296  -17.0975 C   0  0  0  0  0  0  0  0  0  0  0  0
   -7.2370    4.7406  -18.2317 C   0  0  0  0  0  0  0  0  0  0  0  0
   -8.5414    4.3279  -18.0248 C   0  0  0  0  0  0  0  0  0  0  0  0
   -9.3585    4.1233  -19.0546 F   0  0  0  0  0  0  0  0  0  0  0  0
   -9.0392    4.1256  -16.7577 C   0  0  0  0  0  0  0  0  0  0  0  0
  -10.3186    3.8005  -16.6268 F   0  0  0  0  0  0  0  0  0  0  0  0
   -8.2668    4.2663  -15.6213 C   0  0  0  0  0  0  0  0  0  0  0  0
   -6.9555    4.6842  -15.8158 C   0  0  0  0  0  0  0  0  0  0  0  0
  1  2  1  0
  2  3  1  0
  4  2  1  1
  4  5  1  0
  5  6  2  0
  5  7  1  0
  8  7  1  0
  8  9  1  6
  8 10  1  0
 10 11  1  0
 11 12  1  0
 12 13  1  6
  4 14  1  0
 14 15  1  0
 15 16  2  0
 16 17  1  0
 17 18  2  0
 18 19  1  0
 19 20  1  0
 19 21  2  0
 21 22  1  0
 21 23  1  0
 23 24  2  0
 12  8  1  0
 24 14  1  0
 24 17  1  0
M  END
>  <fragmenstein_outcome>  (655) 
nan

>  <exports>  (655) 
['/opt/xchem-fragalysis-2/maxwin/openbind-hippo/xx01zvns2b/cycle_01/syndirella/elabs/openbind_xx01zvns2b_c1_elab_chemspace_filtered.sdf']

>  <Energy>  (655) 
nan

>  <alias>  (655) 
None

>  <fragmenstein_runtime>  (655) 
nan

>  <scratch_subdir>  (655) 
nan

>  <HIPPO Compound ID>  (655) 
147543

>  <rmsd(smina/fragmenstein)>  (655) 
1.134

>  <distance_score>  (655) 
1.586315

>  <orig_smiles>  (655) 
nan

>  <fragmenstein_mode>  (655) 
nan

>  <inchikey>  (655) 
KYBQYLVXSLMAMN-ZOBUZTSGSA-N

>  <ref_pdb>  (655) 
Z3880a

>  <GNINA pK>  (655) 
nan

>  <gnina_score_min>  (655) 
5.376

>  <tags>  (655) 
openbind_xx01zvns2b_c1_elab_nonasap_filtered_scored_top80percent,openbind_xx01zvns2b_c1_elab_chemspace_filtered_scored_top80percent,openbind_xx01zvns2b_c1_elab_chemspace_filtered_scored,openbind_xx01zvns2b_c1_elab_chemspace_filtered_scored_top40percent,openbind_xx01zvns2b_c1_elab_chemspace_filtered_scored_top20percent,openbind_xx01zvns2b_c1_elab_chemspace_filtered_scored_top60percent,openbind_xx01zvns2b_c1_elabs_filtered

>  <smiles>  (655) 
CC(C)[C@@H](C(=O)N[C@@]1(C)CC[C@@H]1O)n1cnc2cc(F)c(F)cc21

>  <subsites>  (655) 
1 - Z4590/B/203/1

>  <gnina_score>  (655) 
4.792

>  <HIPPO Pose ID>  (655) 
74498

>  <ref_mols>  (655) 
Z0101a,Z3880a

>  <energy_score>  (655) 
-18.622137

>  <inspiration_score>  (655) 
None

>  <smina_score_min>  (655) 
-5.432

>  <fragmenstein_error>  (655) 
nan

>  <name>  (655) 
P74498

$$$$
P74509
     RDKit          3D

 24 26  0  0  0  0  0  0  0  0999 V2000
   -7.9327    5.8932   -8.8241 C   0  0  0  0  0  0  0  0  0  0  0  0
   -7.9052    4.5537   -8.8011 C   0  0  0  0  0  0  0  0  0  0  0  0
   -8.6572    3.7060   -7.8238 C   0  0  0  0  0  0  0  0  0  0  0  0
   -9.1013    2.5665   -8.5610 O   0  0  0  0  0  0  0  0  0  0  0  0
   -8.4318    2.5739   -9.8432 C   0  0  0  0  0  0  0  0  0  0  0  0
   -7.2943    3.5886   -9.7683 C   0  0  1  0  0  0  0  0  0  0  0  0
   -6.8416    4.2521  -10.9747 N   0  0  0  0  0  0  0  0  0  0  0  0
   -7.1369    3.9368  -12.4781 C   0  0  0  0  0  0  0  0  0  0  0  0
   -7.7240    3.0521  -12.9632 O   0  0  0  0  0  0  0  0  0  0  0  0
   -6.5129    5.1105  -13.2948 C   0  0  2  0  0  0  0  0  0  0  0  0
   -7.3899    6.3467  -13.1189 C   0  0  0  0  0  0  0  0  0  0  0  0
   -6.2379    4.9087  -14.7378 N   0  0  0  0  0  0  0  0  0  0  0  0
   -5.0431    5.2351  -15.3861 C   0  0  0  0  0  0  0  0  0  0  0  0
   -3.7702    5.5566  -14.6587 C   0  0  0  0  0  0  0  0  0  0  0  0
   -2.5771    5.8594  -15.5846 C   0  0  0  0  0  0  0  0  0  0  0  0
   -1.2719    5.7986  -14.7859 C   0  0  0  0  0  0  0  0  0  0  0  0
   -2.7023    7.2359  -16.2456 C   0  0  0  0  0  0  0  0  0  0  0  0
   -5.1877    5.2123  -16.6968 N   0  0  0  0  0  0  0  0  0  0  0  0
   -6.4838    4.8448  -16.9247 C   0  0  0  0  0  0  0  0  0  0  0  0
   -7.1465    4.6560  -18.1436 C   0  0  0  0  0  0  0  0  0  0  0  0
   -8.4972    4.3089  -18.1212 C   0  0  0  0  0  0  0  0  0  0  0  0
   -9.1753    4.1685  -16.9168 C   0  0  0  0  0  0  0  0  0  0  0  0
   -8.5273    4.3408  -15.6934 C   0  0  0  0  0  0  0  0  0  0  0  0
   -7.1717    4.6733  -15.7257 C   0  0  0  0  0  0  0  0  0  0  0  0
  1  2  2  0
  2  3  1  0
  3  4  1  0
  4  5  1  0
  5  6  1  0
  6  7  1  6
  7  8  1  0
  8  9  2  0
  8 10  1  0
 10 11  1  6
 10 12  1  0
 12 13  1  0
 13 14  1  0
 14 15  1  0
 15 16  1  0
 15 17  1  0
 13 18  2  0
 18 19  1  0
 19 20  2  0
 20 21  1  0
 21 22  2  0
 22 23  1  0
 23 24  2  0
  6  2  1  0
 24 12  1  0
 24 19  1  0
M  END
>  <fragmenstein_outcome>  (656) 
nan

>  <exports>  (656) 
['/opt/xchem-fragalysis-2/maxwin/openbind-hippo/xx01zvns2b/cycle_01/syndirella/elabs/openbind_xx01zvns2b_c1_elab_chemspace_filtered.sdf']

>  <Energy>  (656) 
nan

>  <alias>  (656) 
None

>  <fragmenstein_runtime>  (656) 
nan

>  <scratch_subdir>  (656) 
nan

>  <HIPPO Compound ID>  (656) 
147551

>  <rmsd(smina/fragmenstein)>  (656) 
1.414

>  <distance_score>  (656) 
1.700704

>  <orig_smiles>  (656) 
nan

>  <fragmenstein_mode>  (656) 
nan

>  <inchikey>  (656) 
IAROONJRZLAJHS-GOEBONIOSA-N

>  <ref_pdb>  (656) 
Z3880a

>  <GNINA pK>  (656) 
nan

>  <gnina_score_min>  (656) 
5.151

>  <tags>  (656) 
openbind_xx01zvns2b_c1_elab_nonasap_filtered_scored_top80percent,openbind_xx01zvns2b_c1_elab_chemspace_filtered_scored_top80percent,openbind_xx01zvns2b_c1_elab_chemspace_filtered_scored,openbind_xx01zvns2b_c1_elab_chemspace_filtered_scored_top40percent,openbind_xx01zvns2b_c1_elab_chemspace_filtered_scored_top20percent,openbind_xx01zvns2b_c1_elab_chemspace_filtered_scored_top60percent,openbind_xx01zvns2b_c1_elabs_filtered

>  <smiles>  (656) 
C=C1COC[C@H]1NC(=O)[C@H](C)n1c(CC(C)C)nc2ccccc21

>  <subsites>  (656) 
1 - Z4590/B/203/1

>  <gnina_score>  (656) 
5.375

>  <HIPPO Pose ID>  (656) 
74509

>  <ref_mols>  (656) 
Z0101a,Z3880a

>  <energy_score>  (656) 
-2.530835

>  <inspiration_score>  (656) 
None

>  <smina_score_min>  (656) 
-6.597

>  <fragmenstein_error>  (656) 
nan

>  <name>  (656) 
P74509

$$$$
P74512
     RDKit          3D

 24 26  0  0  0  0  0  0  0  0999 V2000
   -3.9604    7.7396  -14.2057 C   0  0  0  0  0  0  0  0  0  0  0  0
   -3.3244    6.3466  -14.2103 C   0  0  0  0  0  0  0  0  0  0  0  0
   -2.1162    6.3273  -13.2710 C   0  0  0  0  0  0  0  0  0  0  0  0
   -4.3307    5.2573  -13.7923 C   0  0  0  0  0  0  0  0  0  0  0  0
   -5.4231    5.0544  -14.7983 C   0  0  0  0  0  0  0  0  0  0  0  0
   -5.2537    5.1099  -16.1134 N   0  0  0  0  0  0  0  0  0  0  0  0
   -6.4549    4.7631  -16.6710 C   0  0  0  0  0  0  0  0  0  0  0  0
   -6.8196    4.6047  -18.0146 C   0  0  0  0  0  0  0  0  0  0  0  0
   -8.1303    4.2160  -18.3108 C   0  0  0  0  0  0  0  0  0  0  0  0
   -9.0753    4.0465  -17.3102 C   0  0  0  0  0  0  0  0  0  0  0  0
   -8.7273    4.2082  -15.9752 C   0  0  0  0  0  0  0  0  0  0  0  0
   -7.4024    4.5448  -15.6816 C   0  0  0  0  0  0  0  0  0  0  0  0
   -6.7347    4.7506  -14.4841 N   0  0  0  0  0  0  0  0  0  0  0  0
   -7.4667    4.9493  -13.2254 C   0  0  2  0  0  0  0  0  0  0  0  0
   -7.4800    6.4241  -12.8481 C   0  0  0  0  0  0  0  0  0  0  0  0
   -7.1360    4.0816  -11.9899 C   0  0  0  0  0  0  0  0  0  0  0  0
   -6.0919    3.6089  -11.7530 O   0  0  0  0  0  0  0  0  0  0  0  0
   -8.4604    4.0988  -11.1434 N   0  0  0  0  0  0  0  0  0  0  0  0
   -8.7231    3.6230   -9.8105 C   0  0  1  0  0  0  0  0  0  0  0  0
   -8.2861    2.2747   -9.3028 C   0  0  0  0  0  0  0  0  0  0  0  0
   -8.6833    2.3195   -7.9156 O   0  0  0  0  0  0  0  0  0  0  0  0
   -8.5581    3.6749   -7.4598 C   0  0  0  0  0  0  0  0  0  0  0  0
   -8.3422    4.5622   -8.6838 C   0  0  1  0  0  0  0  0  0  0  0  0
   -6.9224    5.0928   -8.7707 C   0  0  0  0  0  0  0  0  0  0  0  0
  1  2  1  0
  2  3  1  0
  2  4  1  0
  4  5  1  0
  5  6  2  0
  6  7  1  0
  7  8  2  0
  8  9  1  0
  9 10  2  0
 10 11  1  0
 11 12  2  0
 12 13  1  0
 13 14  1  0
 14 15  1  1
 14 16  1  0
 16 17  2  0
 16 18  1  0
 19 18  1  6
 19 20  1  0
 20 21  1  0
 21 22  1  0
 22 23  1  0
 23 24  1  6
 13  5  1  0
 23 19  1  0
 12  7  1  0
M  END
>  <fragmenstein_outcome>  (657) 
nan

>  <exports>  (657) 
['/opt/xchem-fragalysis-2/maxwin/openbind-hippo/xx01zvns2b/cycle_01/syndirella/elabs/openbind_xx01zvns2b_c1_elab_chemspace_filtered.sdf']

>  <Energy>  (657) 
nan

>  <alias>  (657) 
None

>  <fragmenstein_runtime>  (657) 
nan

>  <scratch_subdir>  (657) 
nan

>  <HIPPO Compound ID>  (657) 
147553

>  <rmsd(smina/fragmenstein)>  (657) 
0.884

>  <distance_score>  (657) 
1.376858

>  <orig_smiles>  (657) 
nan

>  <fragmenstein_mode>  (657) 
nan

>  <inchikey>  (657) 
PTTGLHQVPIRGHE-FMKPAKJESA-N

>  <ref_pdb>  (657) 
Z3880a

>  <GNINA pK>  (657) 
nan

>  <gnina_score_min>  (657) 
5.295

>  <tags>  (657) 
openbind_xx01zvns2b_c1_elab_nonasap_filtered_scored_top80percent,openbind_xx01zvns2b_c1_elab_chemspace_filtered_scored_top80percent,openbind_xx01zvns2b_c1_elab_chemspace_filtered_scored,openbind_xx01zvns2b_c1_elab_chemspace_filtered_scored_top40percent,openbind_xx01zvns2b_c1_elab_chemspace_filtered_scored_top20percent,openbind_xx01zvns2b_c1_elab_chemspace_filtered_scored_top60percent,openbind_xx01zvns2b_c1_elabs_filtered

>  <smiles>  (657) 
CC(C)Cc1nc2ccccc2n1[C@H](C)C(=O)N[C@H]1COC[C@H]1C

>  <subsites>  (657) 
1 - Z4590/B/203/1

>  <gnina_score>  (657) 
5.334

>  <HIPPO Pose ID>  (657) 
74512

>  <ref_mols>  (657) 
Z0101a,Z3880a

>  <energy_score>  (657) 
-5.991604

>  <inspiration_score>  (657) 
None

>  <smina_score_min>  (657) 
-6.288

>  <fragmenstein_error>  (657) 
nan

>  <name>  (657) 
P74512

$$$$
P74513
     RDKit          3D

 24 26  0  0  0  0  0  0  0  0999 V2000
   -2.9701    7.6858  -13.3251 C   0  0  0  0  0  0  0  0  0  0  0  0
   -3.8629    7.2220  -14.4801 C   0  0  0  0  0  0  0  0  0  0  0  0
   -3.2020    7.5926  -15.8109 C   0  0  0  0  0  0  0  0  0  0  0  0
   -4.1295    5.7079  -14.3570 C   0  0  0  0  0  0  0  0  0  0  0  0
   -5.2783    5.2528  -15.2037 C   0  0  0  0  0  0  0  0  0  0  0  0
   -5.2441    5.2093  -16.5261 N   0  0  0  0  0  0  0  0  0  0  0  0
   -6.4829    4.7925  -16.9262 C   0  0  0  0  0  0  0  0  0  0  0  0
   -6.9882    4.5814  -18.2143 C   0  0  0  0  0  0  0  0  0  0  0  0
   -8.3213    4.1842  -18.3510 C   0  0  0  0  0  0  0  0  0  0  0  0
   -9.1478    4.0414  -17.2469 C   0  0  0  0  0  0  0  0  0  0  0  0
   -8.6538    4.2281  -15.9615 C   0  0  0  0  0  0  0  0  0  0  0  0
   -7.3082    4.5870  -15.8287 C   0  0  0  0  0  0  0  0  0  0  0  0
   -6.5095    4.8283  -14.7206 N   0  0  0  0  0  0  0  0  0  0  0  0
   -7.0889    4.9000  -13.3629 C   0  0  2  0  0  0  0  0  0  0  0  0
   -7.2079    6.3520  -12.9237 C   0  0  0  0  0  0  0  0  0  0  0  0
   -6.4863    4.0267  -12.2335 C   0  0  0  0  0  0  0  0  0  0  0  0
   -5.3886    3.6176  -12.2362 O   0  0  0  0  0  0  0  0  0  0  0  0
   -7.6029    3.9377  -11.1294 N   0  0  0  0  0  0  0  0  0  0  0  0
   -7.5503    3.4078   -9.7699 C   0  0  2  0  0  0  0  0  0  0  0  0
   -8.4573    2.2314   -9.5116 C   0  0  0  0  0  0  0  0  0  0  0  0
   -9.0342    2.4735   -8.1351 C   0  0  0  0  0  0  0  0  0  0  0  0
   -8.8995    3.8678   -7.8661 O   0  0  0  0  0  0  0  0  0  0  0  0
   -8.1363    4.4464   -8.8319 C   0  0  0  0  0  0  0  0  0  0  0  0
   -7.9823    5.6564   -8.9364 O   0  0  0  0  0  0  0  0  0  0  0  0
  1  2  1  0
  2  3  1  0
  2  4  1  0
  4  5  1  0
  5  6  2  0
  6  7  1  0
  7  8  2  0
  8  9  1  0
  9 10  2  0
 10 11  1  0
 11 12  2  0
 12 13  1  0
 13 14  1  0
 14 15  1  1
 14 16  1  0
 16 17  2  0
 16 18  1  0
 19 18  1  6
 19 20  1  0
 20 21  1  0
 21 22  1  0
 22 23  1  0
 23 24  2  0
 13  5  1  0
 23 19  1  0
 12  7  1  0
M  END
>  <fragmenstein_outcome>  (658) 
nan

>  <exports>  (658) 
['/opt/xchem-fragalysis-2/maxwin/openbind-hippo/xx01zvns2b/cycle_01/syndirella/elabs/openbind_xx01zvns2b_c1_elab_chemspace_filtered.sdf']

>  <Energy>  (658) 
nan

>  <alias>  (658) 
None

>  <fragmenstein_runtime>  (658) 
nan

>  <scratch_subdir>  (658) 
nan

>  <HIPPO Compound ID>  (658) 
147559

>  <rmsd(smina/fragmenstein)>  (658) 
0.917

>  <distance_score>  (658) 
1.561617

>  <orig_smiles>  (658) 
nan

>  <fragmenstein_mode>  (658) 
nan

>  <inchikey>  (658) 
UORRXUXWYPCVMX-TZMCWYRMSA-N

>  <ref_pdb>  (658) 
Z3880a

>  <GNINA pK>  (658) 
nan

>  <gnina_score_min>  (658) 
5.27

>  <tags>  (658) 
openbind_xx01zvns2b_c1_elab_nonasap_filtered_scored_top80percent,openbind_xx01zvns2b_c1_elab_chemspace_filtered_scored_top80percent,openbind_xx01zvns2b_c1_elab_chemspace_filtered_scored,openbind_xx01zvns2b_c1_elab_chemspace_filtered_scored_top40percent,openbind_xx01zvns2b_c1_elab_chemspace_filtered_scored_top20percent,openbind_xx01zvns2b_c1_elab_chemspace_filtered_scored_top60percent,openbind_xx01zvns2b_c1_elabs_filtered

>  <smiles>  (658) 
CC(C)Cc1nc2ccccc2n1[C@H](C)C(=O)N[C@@H]1CCOC1=O

>  <subsites>  (658) 
1 - Z4590/B/203/1

>  <gnina_score>  (658) 
5.284

>  <HIPPO Pose ID>  (658) 
74513

>  <ref_mols>  (658) 
Z0101a,Z3880a

>  <energy_score>  (658) 
-16.727324

>  <inspiration_score>  (658) 
None

>  <smina_score_min>  (658) 
-6.389

>  <fragmenstein_error>  (658) 
nan

>  <name>  (658) 
P74513

$$$$
P74516
     RDKit          3D

 24 26  0  0  0  0  0  0  0  0999 V2000
   -2.4708    6.7532  -12.9227 C   0  0  0  0  0  0  0  0  0  0  0  0
   -3.1980    6.1196  -14.1128 C   0  0  0  0  0  0  0  0  0  0  0  0
   -2.2222    5.2216  -14.8781 C   0  0  0  0  0  0  0  0  0  0  0  0
   -4.4305    5.3364  -13.6187 C   0  0  0  0  0  0  0  0  0  0  0  0
   -5.4466    5.0703  -14.6902 C   0  0  0  0  0  0  0  0  0  0  0  0
   -5.2321    5.1639  -15.9970 N   0  0  0  0  0  0  0  0  0  0  0  0
   -6.3959    4.7860  -16.6112 C   0  0  0  0  0  0  0  0  0  0  0  0
   -6.7046    4.6472  -17.9707 C   0  0  0  0  0  0  0  0  0  0  0  0
   -7.9931    4.2332  -18.3258 C   0  0  0  0  0  0  0  0  0  0  0  0
   -8.9756    4.0302  -17.3686 C   0  0  0  0  0  0  0  0  0  0  0  0
   -8.6835    4.1748  -16.0191 C   0  0  0  0  0  0  0  0  0  0  0  0
   -7.3735    4.5175  -15.6662 C   0  0  0  0  0  0  0  0  0  0  0  0
   -6.7504    4.6867  -14.4360 N   0  0  0  0  0  0  0  0  0  0  0  0
   -7.5506    4.7945  -13.2057 C   0  0  2  0  0  0  0  0  0  0  0  0
   -7.8560    6.2659  -12.9454 C   0  0  0  0  0  0  0  0  0  0  0  0
   -7.1371    4.1102  -11.8842 C   0  0  0  0  0  0  0  0  0  0  0  0
   -6.0440    3.8452  -11.5592 O   0  0  0  0  0  0  0  0  0  0  0  0
   -8.4947    3.9767  -11.0977 N   0  0  0  0  0  0  0  0  0  0  0  0
   -8.7506    3.5839   -9.7379 C   0  0  1  0  0  0  0  0  0  0  0  0
   -8.3682    2.2453   -9.1796 C   0  0  0  0  0  0  0  0  0  0  0  0
   -8.8624    2.4434   -7.7504 C   0  0  0  0  0  0  0  0  0  0  0  0
   -8.5583    3.8121   -7.3941 O   0  0  0  0  0  0  0  0  0  0  0  0
   -8.3763    4.5505   -8.6220 C   0  0  1  0  0  0  0  0  0  0  0  0
   -6.9610    5.0813   -8.6787 C   0  0  0  0  0  0  0  0  0  0  0  0
  1  2  1  0
  2  3  1  0
  2  4  1  0
  4  5  1  0
  5  6  2  0
  6  7  1  0
  7  8  2  0
  8  9  1  0
  9 10  2  0
 10 11  1  0
 11 12  2  0
 12 13  1  0
 13 14  1  0
 14 15  1  1
 14 16  1  0
 16 17  2  0
 16 18  1  0
 19 18  1  6
 19 20  1  0
 20 21  1  0
 21 22  1  0
 22 23  1  0
 23 24  1  6
 13  5  1  0
 23 19  1  0
 12  7  1  0
M  END
>  <fragmenstein_outcome>  (659) 
nan

>  <exports>  (659) 
['/opt/xchem-fragalysis-2/maxwin/openbind-hippo/xx01zvns2b/cycle_01/syndirella/elabs/openbind_xx01zvns2b_c1_elab_chemspace_filtered.sdf']

>  <Energy>  (659) 
nan

>  <alias>  (659) 
None

>  <fragmenstein_runtime>  (659) 
nan

>  <scratch_subdir>  (659) 
nan

>  <HIPPO Compound ID>  (659) 
147562

>  <rmsd(smina/fragmenstein)>  (659) 
0.976

>  <distance_score>  (659) 
1.438928

>  <orig_smiles>  (659) 
nan

>  <fragmenstein_mode>  (659) 
nan

>  <inchikey>  (659) 
NVWRHNPQWCFJNF-ILXRZTDVSA-N

>  <ref_pdb>  (659) 
Z3880a

>  <GNINA pK>  (659) 
nan

>  <gnina_score_min>  (659) 
5.334

>  <tags>  (659) 
openbind_xx01zvns2b_c1_elab_nonasap_filtered_scored_top80percent,openbind_xx01zvns2b_c1_elab_chemspace_filtered_scored_top80percent,openbind_xx01zvns2b_c1_elab_chemspace_filtered_scored,openbind_xx01zvns2b_c1_elab_chemspace_filtered_scored_top40percent,openbind_xx01zvns2b_c1_elab_chemspace_filtered_scored_top20percent,openbind_xx01zvns2b_c1_elab_chemspace_filtered_scored_top60percent,openbind_xx01zvns2b_c1_elabs_filtered

>  <smiles>  (659) 
CC(C)Cc1nc2ccccc2n1[C@H](C)C(=O)N[C@H]1CCO[C@H]1C

>  <subsites>  (659) 
1 - Z4590/B/203/1

>  <gnina_score>  (659) 
5.346

>  <HIPPO Pose ID>  (659) 
74516

>  <ref_mols>  (659) 
Z0101a,Z3880a

>  <energy_score>  (659) 
-2.418306

>  <inspiration_score>  (659) 
None

>  <smina_score_min>  (659) 
-6.72

>  <fragmenstein_error>  (659) 
nan

>  <name>  (659) 
P74516

$$$$
P74519
     RDKit          3D

 24 27  0  0  0  0  0  0  0  0999 V2000
   -2.5444    4.5256  -13.6869 C   0  0  0  0  0  0  0  0  0  0  0  0
   -2.5046    5.4812  -14.8784 C   0  0  0  0  0  0  0  0  0  0  0  0
   -1.2424    6.3438  -14.7937 C   0  0  0  0  0  0  0  0  0  0  0  0
   -3.7537    6.3767  -14.9259 C   0  0  0  0  0  0  0  0  0  0  0  0
   -4.9504    5.6868  -15.5131 C   0  0  0  0  0  0  0  0  0  0  0  0
   -5.1069    5.5272  -16.8157 N   0  0  0  0  0  0  0  0  0  0  0  0
   -6.3505    4.9874  -16.9852 C   0  0  0  0  0  0  0  0  0  0  0  0
   -7.0362    4.6979  -18.1725 C   0  0  0  0  0  0  0  0  0  0  0  0
   -8.3496    4.2336  -18.0904 C   0  0  0  0  0  0  0  0  0  0  0  0
   -8.9525    4.0292  -16.8550 C   0  0  0  0  0  0  0  0  0  0  0  0
   -8.2631    4.2501  -15.6621 C   0  0  0  0  0  0  0  0  0  0  0  0
   -6.9683    4.7689  -15.7574 C   0  0  0  0  0  0  0  0  0  0  0  0
   -6.0690    5.2349  -14.8109 N   0  0  0  0  0  0  0  0  0  0  0  0
   -6.4355    5.5552  -13.4057 C   0  0  1  0  0  0  0  0  0  0  0  0
   -7.7026    6.4038  -13.3780 C   0  0  0  0  0  0  0  0  0  0  0  0
   -6.3483    4.3570  -12.4056 C   0  0  0  0  0  0  0  0  0  0  0  0
   -5.5846    3.4873  -12.5948 O   0  0  0  0  0  0  0  0  0  0  0  0
   -7.3128    4.6185  -11.1902 N   0  0  0  0  0  0  0  0  0  0  0  0
   -7.4507    3.9233   -9.9522 C   0  0  2  0  0  0  0  0  0  0  0  0
   -8.1059    2.5537   -9.8979 C   0  0  0  0  0  0  0  0  0  0  0  0
   -9.1264    2.6225   -8.8735 O   0  0  0  0  0  0  0  0  0  0  0  0
   -8.7309    3.6191   -7.9312 C   0  0  0  0  0  0  0  0  0  0  0  0
   -7.9137    4.5965   -8.7022 C   0  0  1  0  0  0  0  0  0  0  0  0
   -6.4565    4.3464   -8.8876 C   0  0  0  0  0  0  0  0  0  0  0  0
  1  2  1  0
  2  3  1  0
  2  4  1  0
  4  5  1  0
  5  6  2  0
  6  7  1  0
  7  8  2  0
  8  9  1  0
  9 10  2  0
 10 11  1  0
 11 12  2  0
 12 13  1  0
 13 14  1  0
 14 15  1  6
 14 16  1  0
 16 17  2  0
 16 18  1  0
 19 18  1  6
 19 20  1  0
 20 21  1  0
 21 22  1  0
 23 22  1  1
 23 24  1  0
 13  5  1  0
 23 19  1  0
 12  7  1  0
 24 19  1  0
M  END
>  <fragmenstein_outcome>  (660) 
nan

>  <exports>  (660) 
['/opt/xchem-fragalysis-2/maxwin/openbind-hippo/xx01zvns2b/cycle_01/syndirella/elabs/openbind_xx01zvns2b_c1_elab_chemspace_filtered.sdf']

>  <Energy>  (660) 
nan

>  <alias>  (660) 
None

>  <fragmenstein_runtime>  (660) 
nan

>  <scratch_subdir>  (660) 
nan

>  <HIPPO Compound ID>  (660) 
147566

>  <rmsd(smina/fragmenstein)>  (660) 
0.232

>  <distance_score>  (660) 
1.737863

>  <orig_smiles>  (660) 
nan

>  <fragmenstein_mode>  (660) 
nan

>  <inchikey>  (660) 
GCEAKXUVUQRQSI-IQUTYRLHSA-N

>  <ref_pdb>  (660) 
Z3880a

>  <GNINA pK>  (660) 
nan

>  <gnina_score_min>  (660) 
5.339

>  <tags>  (660) 
openbind_xx01zvns2b_c1_elab_nonasap_filtered_scored_top80percent,openbind_xx01zvns2b_c1_elab_chemspace_filtered_scored_top80percent,openbind_xx01zvns2b_c1_elab_chemspace_filtered_scored,openbind_xx01zvns2b_c1_elab_chemspace_filtered_scored_top40percent,openbind_xx01zvns2b_c1_elab_chemspace_filtered_scored_top20percent,openbind_xx01zvns2b_c1_elab_chemspace_filtered_scored_top60percent,openbind_xx01zvns2b_c1_elabs_filtered

>  <smiles>  (660) 
CC(C)Cc1nc2ccccc2n1[C@@H](C)C(=O)N[C@]12COC[C@H]1C2

>  <subsites>  (660) 
1 - Z4590/B/203/1

>  <gnina_score>  (660) 
5.266

>  <HIPPO Pose ID>  (660) 
74519

>  <ref_mols>  (660) 
Z0101a,Z3880a

>  <energy_score>  (660) 
-14.312408

>  <inspiration_score>  (660) 
None

>  <smina_score_min>  (660) 
-6.412

>  <fragmenstein_error>  (660) 
nan

>  <name>  (660) 
P74519

$$$$
P74524
     RDKit          3D

 24 26  0  0  0  0  0  0  0  0999 V2000
   -2.1319    6.0878  -16.4928 C   0  0  0  0  0  0  0  0  0  0  0  0
   -2.6716    5.8738  -15.0748 C   0  0  0  0  0  0  0  0  0  0  0  0
   -1.6672    6.4250  -14.0597 C   0  0  0  0  0  0  0  0  0  0  0  0
   -4.0443    6.5441  -14.8688 C   0  0  0  0  0  0  0  0  0  0  0  0
   -5.1707    5.7891  -15.5041 C   0  0  0  0  0  0  0  0  0  0  0  0
   -5.3430    5.7445  -16.8142 N   0  0  0  0  0  0  0  0  0  0  0  0
   -6.5548    5.1530  -17.0150 C   0  0  0  0  0  0  0  0  0  0  0  0
   -7.2196    4.8719  -18.2120 C   0  0  0  0  0  0  0  0  0  0  0  0
   -8.5107    4.3470  -18.1455 C   0  0  0  0  0  0  0  0  0  0  0  0
   -9.1225    4.1107  -16.9199 C   0  0  0  0  0  0  0  0  0  0  0  0
   -8.4494    4.3223  -15.7178 C   0  0  0  0  0  0  0  0  0  0  0  0
   -7.1583    4.8465  -15.8027 C   0  0  0  0  0  0  0  0  0  0  0  0
   -6.2025    5.1306  -14.8395 N   0  0  0  0  0  0  0  0  0  0  0  0
   -6.2533    4.4945  -13.5074 C   0  0  1  0  0  0  0  0  0  0  0  0
   -4.9411    4.3835  -12.7637 C   0  0  0  0  0  0  0  0  0  0  0  0
   -7.3372    5.0164  -12.5372 C   0  0  0  0  0  0  0  0  0  0  0  0
   -7.7905    6.0955  -12.6064 O   0  0  0  0  0  0  0  0  0  0  0  0
   -7.5879    3.8722  -11.4865 N   0  0  0  0  0  0  0  0  0  0  0  0
   -8.5200    3.8029  -10.3702 C   0  0  1  0  0  0  0  0  0  0  0  0
   -8.5845    2.4780   -9.6070 C   0  0  0  0  0  0  0  0  0  0  0  0
   -9.0664    2.8008   -8.2943 O   0  0  0  0  0  0  0  0  0  0  0  0
   -8.4669    4.0540   -7.9584 C   0  0  0  0  0  0  0  0  0  0  0  0
   -8.3189    4.8357   -9.2597 C   0  0  1  0  0  0  0  0  0  0  0  0
   -7.0630    5.4992   -9.3252 O   0  0  0  0  0  0  0  0  0  0  0  0
  1  2  1  0
  2  3  1  0
  2  4  1  0
  4  5  1  0
  5  6  2  0
  6  7  1  0
  7  8  2  0
  8  9  1  0
  9 10  2  0
 10 11  1  0
 11 12  2  0
 12 13  1  0
 13 14  1  0
 14 15  1  1
 14 16  1  0
 16 17  2  0
 16 18  1  0
 19 18  1  6
 19 20  1  0
 20 21  1  0
 21 22  1  0
 22 23  1  0
 23 24  1  6
 13  5  1  0
 23 19  1  0
 12  7  1  0
M  END
>  <fragmenstein_outcome>  (661) 
nan

>  <exports>  (661) 
['/opt/xchem-fragalysis-2/maxwin/openbind-hippo/xx01zvns2b/cycle_01/syndirella/elabs/openbind_xx01zvns2b_c1_elab_chemspace_filtered.sdf']

>  <Energy>  (661) 
nan

>  <alias>  (661) 
None

>  <fragmenstein_runtime>  (661) 
nan

>  <scratch_subdir>  (661) 
nan

>  <HIPPO Compound ID>  (661) 
147571

>  <rmsd(smina/fragmenstein)>  (661) 
0.548

>  <distance_score>  (661) 
1.493582

>  <orig_smiles>  (661) 
nan

>  <fragmenstein_mode>  (661) 
nan

>  <inchikey>  (661) 
PEGSBXZCBLKPSJ-DUVNUKRYSA-N

>  <ref_pdb>  (661) 
Z3880a

>  <GNINA pK>  (661) 
nan

>  <gnina_score_min>  (661) 
5.173

>  <tags>  (661) 
openbind_xx01zvns2b_c1_elab_nonasap_filtered_scored_top80percent,openbind_xx01zvns2b_c1_elab_chemspace_filtered_scored_top80percent,openbind_xx01zvns2b_c1_elab_chemspace_filtered_scored,openbind_xx01zvns2b_c1_elab_chemspace_filtered_scored_top40percent,openbind_xx01zvns2b_c1_elab_chemspace_filtered_scored_top20percent,openbind_xx01zvns2b_c1_elab_chemspace_filtered_scored_top60percent,openbind_xx01zvns2b_c1_elabs_filtered

>  <smiles>  (661) 
CC(C)Cc1nc2ccccc2n1[C@@H](C)C(=O)N[C@H]1COC[C@H]1O

>  <subsites>  (661) 
1 - Z4590/B/203/1

>  <gnina_score>  (661) 
5.289

>  <HIPPO Pose ID>  (661) 
74524

>  <ref_mols>  (661) 
Z0101a,Z3880a

>  <energy_score>  (661) 
-7.9877

>  <inspiration_score>  (661) 
None

>  <smina_score_min>  (661) 
-6.32

>  <fragmenstein_error>  (661) 
nan

>  <name>  (661) 
P74524

$$$$
P74526
     RDKit          3D

 24 26  0  0  0  0  0  0  0  0999 V2000
   -4.2958    7.9969  -14.3468 C   0  0  0  0  0  0  0  0  0  0  0  0
   -3.4949    6.6917  -14.3075 C   0  0  0  0  0  0  0  0  0  0  0  0
   -2.2857    6.8555  -13.3835 C   0  0  0  0  0  0  0  0  0  0  0  0
   -4.3595    5.5067  -13.8337 C   0  0  0  0  0  0  0  0  0  0  0  0
   -5.4332    5.1400  -14.8124 C   0  0  0  0  0  0  0  0  0  0  0  0
   -5.2858    5.1888  -16.1302 N   0  0  0  0  0  0  0  0  0  0  0  0
   -6.4815    4.7979  -16.6674 C   0  0  0  0  0  0  0  0  0  0  0  0
   -6.8692    4.6434  -18.0048 C   0  0  0  0  0  0  0  0  0  0  0  0
   -8.1818    4.2451  -18.2781 C   0  0  0  0  0  0  0  0  0  0  0  0
   -9.1062    4.0656  -17.2600 C   0  0  0  0  0  0  0  0  0  0  0  0
   -8.7318    4.2124  -15.9300 C   0  0  0  0  0  0  0  0  0  0  0  0
   -7.4012    4.5443  -15.6604 C   0  0  0  0  0  0  0  0  0  0  0  0
   -6.6989    4.6971  -14.4741 N   0  0  0  0  0  0  0  0  0  0  0  0
   -7.3800    4.6398  -13.1676 C   0  0  2  0  0  0  0  0  0  0  0  0
   -7.7344    6.0534  -12.7298 C   0  0  0  0  0  0  0  0  0  0  0  0
   -6.7326    3.8322  -12.0161 C   0  0  0  0  0  0  0  0  0  0  0  0
   -5.5946    3.5615  -11.9639 O   0  0  0  0  0  0  0  0  0  0  0  0
   -7.8897    3.5657  -10.9863 N   0  0  0  0  0  0  0  0  0  0  0  0
   -7.8491    2.9952   -9.6423 C   0  0  2  0  0  0  0  0  0  0  0  0
   -9.1867    2.3762   -9.2433 C   0  0  0  0  0  0  0  0  0  0  0  0
   -9.1875    2.3830   -7.7274 C   0  0  0  0  0  0  0  0  0  0  0  0
   -8.5268    3.7045   -7.3646 C   0  0  0  0  0  0  0  0  0  0  0  0
   -7.6222    4.0648   -8.5478 C   0  0  2  0  0  0  0  0  0  0  0  0
   -7.9874    5.3705   -9.0129 O   0  0  0  0  0  0  0  0  0  0  0  0
  1  2  1  0
  2  3  1  0
  2  4  1  0
  4  5  1  0
  5  6  2  0
  6  7  1  0
  7  8  2  0
  8  9  1  0
  9 10  2  0
 10 11  1  0
 11 12  2  0
 12 13  1  0
 13 14  1  0
 14 15  1  1
 14 16  1  0
 16 17  2  0
 16 18  1  0
 19 18  1  6
 19 20  1  0
 20 21  1  0
 21 22  1  0
 22 23  1  0
 23 24  1  6
 13  5  1  0
 23 19  1  0
 12  7  1  0
M  END
>  <fragmenstein_outcome>  (662) 
nan

>  <exports>  (662) 
['/opt/xchem-fragalysis-2/maxwin/openbind-hippo/xx01zvns2b/cycle_01/syndirella/elabs/openbind_xx01zvns2b_c1_elab_chemspace_filtered.sdf']

>  <Energy>  (662) 
nan

>  <alias>  (662) 
None

>  <fragmenstein_runtime>  (662) 
nan

>  <scratch_subdir>  (662) 
nan

>  <HIPPO Compound ID>  (662) 
147573

>  <rmsd(smina/fragmenstein)>  (662) 
0.571

>  <distance_score>  (662) 
1.397444

>  <orig_smiles>  (662) 
nan

>  <fragmenstein_mode>  (662) 
nan

>  <inchikey>  (662) 
DETJZEYYGQHVEC-UNEWFSDZSA-N

>  <ref_pdb>  (662) 
Z3880a

>  <GNINA pK>  (662) 
nan

>  <gnina_score_min>  (662) 
5.291

>  <tags>  (662) 
openbind_xx01zvns2b_c1_elab_nonasap_filtered_scored_top80percent,openbind_xx01zvns2b_c1_elab_chemspace_filtered_scored_top80percent,openbind_xx01zvns2b_c1_elab_chemspace_filtered_scored,openbind_xx01zvns2b_c1_elab_chemspace_filtered_scored_top40percent,openbind_xx01zvns2b_c1_elab_chemspace_filtered_scored_top20percent,openbind_xx01zvns2b_c1_elab_chemspace_filtered_scored_top60percent,openbind_xx01zvns2b_c1_elabs_filtered

>  <smiles>  (662) 
CC(C)Cc1nc2ccccc2n1[C@H](C)C(=O)N[C@@H]1CCC[C@@H]1O

>  <subsites>  (662) 
1 - Z4590/B/203/1

>  <gnina_score>  (662) 
5.382

>  <HIPPO Pose ID>  (662) 
74526

>  <ref_mols>  (662) 
Z0101a,Z3880a

>  <energy_score>  (662) 
-16.857419

>  <inspiration_score>  (662) 
None

>  <smina_score_min>  (662) 
-6.511

>  <fragmenstein_error>  (662) 
nan

>  <name>  (662) 
P74526

$$$$
P74529
     RDKit          3D

 24 26  0  0  0  0  0  0  0  0999 V2000
   -3.6520    5.0657  -15.0084 C   0  0  0  0  0  0  0  0  0  0  0  0
   -5.0221    5.0653  -15.5938 C   0  0  0  0  0  0  0  0  0  0  0  0
   -5.2326    5.2209  -16.8831 N   0  0  0  0  0  0  0  0  0  0  0  0
   -6.5373    4.8845  -17.0734 C   0  0  0  0  0  0  0  0  0  0  0  0
   -7.2233    4.7488  -18.2854 C   0  0  0  0  0  0  0  0  0  0  0  0
   -8.5579    4.3557  -18.2586 C   0  0  0  0  0  0  0  0  0  0  0  0
   -9.1977    4.1107  -17.0581 C   0  0  0  0  0  0  0  0  0  0  0  0
   -8.5171    4.2118  -15.8471 C   0  0  0  0  0  0  0  0  0  0  0  0
   -7.1821    4.6243  -15.8608 C   0  0  0  0  0  0  0  0  0  0  0  0
   -6.2225    4.8389  -14.8910 N   0  0  0  0  0  0  0  0  0  0  0  0
   -6.3215    4.7455  -13.3981 C   0  0  2  0  0  0  0  0  0  0  0  0
   -7.7198    4.5698  -12.7071 C   0  0  0  0  0  0  0  0  0  0  0  0
   -8.6915    5.0648  -13.1347 O   0  0  0  0  0  0  0  0  0  0  0  0
   -7.4931    3.7538  -11.3885 N   0  0  0  0  0  0  0  0  0  0  0  0
   -8.4027    3.4678  -10.2847 C   0  0  1  0  0  0  0  0  0  0  0  0
   -7.9151    2.4497   -9.2779 C   0  0  0  0  0  0  0  0  0  0  0  0
   -8.6494    2.8383   -8.0039 C   0  0  2  0  0  0  0  0  0  0  0  0
  -10.0044    2.1878   -7.8660 C   0  0  0  0  0  0  0  0  0  0  0  0
   -8.7909    4.2581   -8.0736 O   0  0  0  0  0  0  0  0  0  0  0  0
   -8.5381    4.6700   -9.3530 C   0  0  0  0  0  0  0  0  0  0  0  0
   -8.4262    5.8483   -9.6556 O   0  0  0  0  0  0  0  0  0  0  0  0
   -5.7161    6.0298  -12.7595 C   0  0  0  0  0  0  0  0  0  0  0  0
   -6.6630    7.2263  -12.7872 C   0  0  0  0  0  0  0  0  0  0  0  0
   -5.1590    5.8146  -11.3484 C   0  0  0  0  0  0  0  0  0  0  0  0
  1  2  1  0
  2  3  2  0
  3  4  1  0
  4  5  2  0
  5  6  1  0
  6  7  2  0
  7  8  1  0
  8  9  2  0
  9 10  1  0
 10 11  1  0
 11 12  1  0
 12 13  2  0
 12 14  1  0
 15 14  1  6
 15 16  1  0
 16 17  1  0
 17 18  1  6
 17 19  1  0
 19 20  1  0
 20 21  2  0
 11 22  1  1
 22 23  1  0
 22 24  1  0
 10  2  1  0
 20 15  1  0
  9  4  1  0
M  END
>  <fragmenstein_outcome>  (663) 
nan

>  <exports>  (663) 
['/opt/xchem-fragalysis-2/maxwin/openbind-hippo/xx01zvns2b/cycle_01/syndirella/elabs/openbind_xx01zvns2b_c1_elab_chemspace_filtered.sdf']

>  <Energy>  (663) 
nan

>  <alias>  (663) 
None

>  <fragmenstein_runtime>  (663) 
nan

>  <scratch_subdir>  (663) 
nan

>  <HIPPO Compound ID>  (663) 
147581

>  <rmsd(smina/fragmenstein)>  (663) 
0.607

>  <distance_score>  (663) 
1.430847

>  <orig_smiles>  (663) 
nan

>  <fragmenstein_mode>  (663) 
nan

>  <inchikey>  (663) 
NVTZQFOOCVUTIE-PJODQICGSA-N

>  <ref_pdb>  (663) 
Z3880a

>  <GNINA pK>  (663) 
nan

>  <gnina_score_min>  (663) 
5.426

>  <tags>  (663) 
openbind_xx01zvns2b_c1_elab_nonasap_filtered_scored_top80percent,openbind_xx01zvns2b_c1_elab_chemspace_filtered_scored_top80percent,openbind_xx01zvns2b_c1_elab_chemspace_filtered_scored,openbind_xx01zvns2b_c1_elab_chemspace_filtered_scored_top40percent,openbind_xx01zvns2b_c1_elab_chemspace_filtered_scored_top20percent,openbind_xx01zvns2b_c1_elab_chemspace_filtered_scored_top60percent,openbind_xx01zvns2b_c1_elabs_filtered

>  <smiles>  (663) 
Cc1nc2ccccc2n1[C@H](C(=O)N[C@H]1C[C@H](C)OC1=O)C(C)C

>  <subsites>  (663) 
1 - Z4590/B/203/1

>  <gnina_score>  (663) 
5.356

>  <HIPPO Pose ID>  (663) 
74529

>  <ref_mols>  (663) 
Z0101a,Z3880a

>  <energy_score>  (663) 
-11.506026

>  <inspiration_score>  (663) 
None

>  <smina_score_min>  (663) 
-6.306

>  <fragmenstein_error>  (663) 
nan

>  <name>  (663) 
P74529

$$$$
P74531
     RDKit          3D

 25 27  0  0  0  0  0  0  0  0999 V2000
   -5.6435    6.7081  -11.4438 C   0  0  0  0  0  0  0  0  0  0  0  0
   -5.7377    6.5080  -12.9425 C   0  0  0  0  0  0  0  0  0  0  0  0
   -6.4560    7.7125  -13.5672 C   0  0  0  0  0  0  0  0  0  0  0  0
   -6.3232    5.1242  -13.3214 C   0  0  1  0  0  0  0  0  0  0  0  0
   -7.7041    4.9846  -12.5919 C   0  0  0  0  0  0  0  0  0  0  0  0
   -8.6480    5.6211  -12.9125 O   0  0  0  0  0  0  0  0  0  0  0  0
   -7.5141    4.0022  -11.4099 N   0  0  0  0  0  0  0  0  0  0  0  0
   -7.8767    2.6187  -11.8001 C   0  0  0  0  0  0  0  0  0  0  0  0
   -8.4841    3.6318  -10.2121 C   0  0  1  0  0  0  0  0  0  0  0  0
   -8.3233    2.4180   -9.2525 C   0  0  0  0  0  0  0  0  0  0  0  0
   -8.9872    2.7700   -8.0337 O   0  0  0  0  0  0  0  0  0  0  0  0
   -8.6959    4.1449   -7.8020 C   0  0  0  0  0  0  0  0  0  0  0  0
   -8.3197    4.7567   -9.1475 C   0  0  1  0  0  0  0  0  0  0  0  0
   -6.9572    5.1837   -9.0640 O   0  0  0  0  0  0  0  0  0  0  0  0
   -6.2268    4.9750  -14.7979 N   0  0  0  0  0  0  0  0  0  0  0  0
   -5.0365    5.1636  -15.4892 C   0  0  0  0  0  0  0  0  0  0  0  0
   -5.1868    5.1422  -16.7898 N   0  0  0  0  0  0  0  0  0  0  0  0
   -6.4986    4.8166  -16.9732 C   0  0  0  0  0  0  0  0  0  0  0  0
   -7.1624    4.5772  -18.1792 C   0  0  0  0  0  0  0  0  0  0  0  0
   -8.4951    4.2204  -18.1004 C   0  0  0  0  0  0  0  0  0  0  0  0
   -9.1748    3.9213  -19.2028 F   0  0  0  0  0  0  0  0  0  0  0  0
   -9.1576    4.1446  -16.8964 C   0  0  0  0  0  0  0  0  0  0  0  0
  -10.4568    3.8604  -16.9204 F   0  0  0  0  0  0  0  0  0  0  0  0
   -8.5245    4.3687  -15.6850 C   0  0  0  0  0  0  0  0  0  0  0  0
   -7.1759    4.7048  -15.7468 C   0  0  0  0  0  0  0  0  0  0  0  0
  1  2  1  0
  2  3  1  0
  4  2  1  6
  4  5  1  0
  5  6  2  0
  5  7  1  0
  7  8  1  0
  9  7  1  6
  9 10  1  0
 10 11  1  0
 11 12  1  0
 12 13  1  0
 13 14  1  1
  4 15  1  0
 15 16  1  0
 16 17  2  0
 17 18  1  0
 18 19  2  0
 19 20  1  0
 20 21  1  0
 20 22  2  0
 22 23  1  0
 22 24  1  0
 24 25  2  0
 13  9  1  0
 25 15  1  0
 25 18  1  0
M  END
>  <fragmenstein_outcome>  (664) 
nan

>  <exports>  (664) 
['/opt/xchem-fragalysis-2/maxwin/openbind-hippo/xx01zvns2b/cycle_01/syndirella/elabs/openbind_xx01zvns2b_c1_elab_chemspace_filtered.sdf']

>  <Energy>  (664) 
nan

>  <alias>  (664) 
None

>  <fragmenstein_runtime>  (664) 
nan

>  <scratch_subdir>  (664) 
nan

>  <HIPPO Compound ID>  (664) 
147588

>  <rmsd(smina/fragmenstein)>  (664) 
0.667

>  <distance_score>  (664) 
1.45283

>  <orig_smiles>  (664) 
nan

>  <fragmenstein_mode>  (664) 
nan

>  <inchikey>  (664) 
OZOYTYNUKUHREQ-XHSDSOJGSA-N

>  <ref_pdb>  (664) 
Z3880a

>  <GNINA pK>  (664) 
nan

>  <gnina_score_min>  (664) 
5.418

>  <tags>  (664) 
openbind_xx01zvns2b_c1_elab_nonasap_filtered_scored_top80percent,openbind_xx01zvns2b_c1_elab_chemspace_filtered_scored_top80percent,openbind_xx01zvns2b_c1_elab_chemspace_filtered_scored,openbind_xx01zvns2b_c1_elab_chemspace_filtered_scored_top40percent,openbind_xx01zvns2b_c1_elab_chemspace_filtered_scored_top20percent,openbind_xx01zvns2b_c1_elab_chemspace_filtered_scored_top60percent,openbind_xx01zvns2b_c1_elabs_filtered

>  <smiles>  (664) 
CC(C)[C@@H](C(=O)N(C)[C@H]1COC[C@H]1O)n1cnc2cc(F)c(F)cc21

>  <subsites>  (664) 
1 - Z4590/B/203/1

>  <gnina_score>  (664) 
5.176

>  <HIPPO Pose ID>  (664) 
74531

>  <ref_mols>  (664) 
Z0101a,Z3880a

>  <energy_score>  (664) 
-30.316377

>  <inspiration_score>  (664) 
None

>  <smina_score_min>  (664) 
-6.778

>  <fragmenstein_error>  (664) 
nan

>  <name>  (664) 
P74531

$$$$
P74536
     RDKit          3D

 25 27  0  0  0  0  0  0  0  0999 V2000
   -5.7273    7.0124  -12.5606 C   0  0  0  0  0  0  0  0  0  0  0  0
   -5.2005    5.5789  -12.6192 C   0  0  0  0  0  0  0  0  0  0  0  0
   -4.8114    5.1014  -11.2162 C   0  0  0  0  0  0  0  0  0  0  0  0
   -6.1572    4.6331  -13.3835 C   0  0  1  0  0  0  0  0  0  0  0  0
   -7.5573    4.7442  -12.6928 C   0  0  0  0  0  0  0  0  0  0  0  0
   -8.3575    5.5179  -13.0608 O   0  0  0  0  0  0  0  0  0  0  0  0
   -7.5790    3.7680  -11.4673 N   0  0  0  0  0  0  0  0  0  0  0  0
   -8.5496    3.6204  -10.3984 C   0  0  1  0  0  0  0  0  0  0  0  0
   -8.7014    2.2558   -9.7701 C   0  0  0  0  0  0  0  0  0  0  0  0
   -9.4391    2.6187   -8.4980 C   0  0  1  0  0  0  0  0  0  0  0  0
   -9.4740    1.5677   -7.4163 C   0  0  0  0  0  0  0  0  0  0  0  0
   -8.8163    3.8234   -8.0487 O   0  0  0  0  0  0  0  0  0  0  0  0
   -8.3123    4.4669   -9.1516 C   0  0  0  0  0  0  0  0  0  0  0  0
   -7.7865    5.5684   -9.1147 O   0  0  0  0  0  0  0  0  0  0  0  0
   -6.1165    4.9022  -14.8547 N   0  0  0  0  0  0  0  0  0  0  0  0
   -4.9889    5.2622  -15.5761 C   0  0  0  0  0  0  0  0  0  0  0  0
   -5.1892    5.3048  -16.8716 N   0  0  0  0  0  0  0  0  0  0  0  0
   -6.4799    4.9002  -17.0335 C   0  0  0  0  0  0  0  0  0  0  0  0
   -7.1791    4.6904  -18.2264 C   0  0  0  0  0  0  0  0  0  0  0  0
   -8.4955    4.2772  -18.1198 C   0  0  0  0  0  0  0  0  0  0  0  0
   -9.2172    4.0240  -19.2067 F   0  0  0  0  0  0  0  0  0  0  0  0
   -9.1047    4.1073  -16.8998 C   0  0  0  0  0  0  0  0  0  0  0  0
  -10.4003    3.8101  -16.8843 F   0  0  0  0  0  0  0  0  0  0  0  0
   -8.4227    4.2557  -15.7073 C   0  0  0  0  0  0  0  0  0  0  0  0
   -7.0945    4.6648  -15.7953 C   0  0  0  0  0  0  0  0  0  0  0  0
  1  2  1  0
  2  3  1  0
  4  2  1  1
  4  5  1  0
  5  6  2  0
  5  7  1  0
  8  7  1  6
  8  9  1  0
  9 10  1  0
 10 11  1  1
 10 12  1  0
 12 13  1  0
 13 14  2  0
  4 15  1  0
 15 16  1  0
 16 17  2  0
 17 18  1  0
 18 19  2  0
 19 20  1  0
 20 21  1  0
 20 22  2  0
 22 23  1  0
 22 24  1  0
 24 25  2  0
 13  8  1  0
 25 15  1  0
 25 18  1  0
M  END
>  <fragmenstein_outcome>  (665) 
nan

>  <exports>  (665) 
['/opt/xchem-fragalysis-2/maxwin/openbind-hippo/xx01zvns2b/cycle_01/syndirella/elabs/openbind_xx01zvns2b_c1_elab_chemspace_filtered.sdf']

>  <Energy>  (665) 
nan

>  <alias>  (665) 
None

>  <fragmenstein_runtime>  (665) 
nan

>  <scratch_subdir>  (665) 
nan

>  <HIPPO Compound ID>  (665) 
147591

>  <rmsd(smina/fragmenstein)>  (665) 
1.021

>  <distance_score>  (665) 
1.411466

>  <orig_smiles>  (665) 
nan

>  <fragmenstein_mode>  (665) 
nan

>  <inchikey>  (665) 
JWJXRQCNSAFKRN-DVJZZOLTSA-N

>  <ref_pdb>  (665) 
Z3880a

>  <GNINA pK>  (665) 
nan

>  <gnina_score_min>  (665) 
5.563

>  <tags>  (665) 
openbind_xx01zvns2b_c1_elab_nonasap_filtered_scored_top80percent,openbind_xx01zvns2b_c1_elab_chemspace_filtered_scored_top80percent,openbind_xx01zvns2b_c1_elab_chemspace_filtered_scored,openbind_xx01zvns2b_c1_elab_chemspace_filtered_scored_top40percent,openbind_xx01zvns2b_c1_elab_chemspace_filtered_scored_top20percent,openbind_xx01zvns2b_c1_elab_chemspace_filtered_scored_top60percent,openbind_xx01zvns2b_c1_elabs_filtered

>  <smiles>  (665) 
CC(C)[C@@H](C(=O)N[C@H]1C[C@@H](C)OC1=O)n1cnc2cc(F)c(F)cc21

>  <subsites>  (665) 
1 - Z4590/B/203/1

>  <gnina_score>  (665) 
5.299

>  <HIPPO Pose ID>  (665) 
74536

>  <ref_mols>  (665) 
Z0101a,Z3880a

>  <energy_score>  (665) 
-12.217981

>  <inspiration_score>  (665) 
None

>  <smina_score_min>  (665) 
-6.57

>  <fragmenstein_error>  (665) 
nan

>  <name>  (665) 
P74536

$$$$
P74541
     RDKit          3D

 25 27  0  0  0  0  0  0  0  0999 V2000
   -2.0975    6.0253  -17.0137 C   0  0  0  0  0  0  0  0  0  0  0  0
   -2.5064    5.7704  -15.5593 C   0  0  0  0  0  0  0  0  0  0  0  0
   -1.3459    6.1491  -14.6346 C   0  0  0  0  0  0  0  0  0  0  0  0
   -3.7731    6.5579  -15.1615 C   0  0  0  0  0  0  0  0  0  0  0  0
   -5.0310    5.9373  -15.6985 C   0  0  0  0  0  0  0  0  0  0  0  0
   -5.2868    5.8221  -16.9856 N   0  0  0  0  0  0  0  0  0  0  0  0
   -6.4969    5.1998  -17.0711 C   0  0  0  0  0  0  0  0  0  0  0  0
   -7.2110    4.8438  -18.2205 C   0  0  0  0  0  0  0  0  0  0  0  0
   -8.4778    4.2858  -18.0729 C   0  0  0  0  0  0  0  0  0  0  0  0
   -9.0036    4.0622  -16.8076 C   0  0  0  0  0  0  0  0  0  0  0  0
   -8.2748    4.3382  -15.6491 C   0  0  0  0  0  0  0  0  0  0  0  0
   -7.0240    4.9407  -15.8061 C   0  0  0  0  0  0  0  0  0  0  0  0
   -6.0751    5.4136  -14.9241 N   0  0  0  0  0  0  0  0  0  0  0  0
   -6.0522    5.2683  -13.4413 C   0  0  2  0  0  0  0  0  0  0  0  0
   -5.1289    4.1187  -13.0955 C   0  0  0  0  0  0  0  0  0  0  0  0
   -7.4452    5.2855  -12.7060 C   0  0  0  0  0  0  0  0  0  0  0  0
   -8.2864    6.0124  -13.0843 O   0  0  0  0  0  0  0  0  0  0  0  0
   -7.4121    4.3304  -11.4590 N   0  0  0  0  0  0  0  0  0  0  0  0
   -8.4417    4.0132  -10.4903 C   0  0  1  0  0  0  0  0  0  0  0  0
   -8.5739    2.5571  -10.0993 C   0  0  0  0  0  0  0  0  0  0  0  0
   -9.3169    2.6851   -8.7841 C   0  0  1  0  0  0  0  0  0  0  0  0
   -9.2640    1.4623   -7.9067 C   0  0  0  0  0  0  0  0  0  0  0  0
   -8.7324    3.8218   -8.1442 O   0  0  0  0  0  0  0  0  0  0  0  0
   -8.2431    4.6485   -9.1218 C   0  0  0  0  0  0  0  0  0  0  0  0
   -7.7428    5.7407   -8.9034 O   0  0  0  0  0  0  0  0  0  0  0  0
  1  2  1  0
  2  3  1  0
  2  4  1  0
  4  5  1  0
  5  6  2  0
  6  7  1  0
  7  8  2  0
  8  9  1  0
  9 10  2  0
 10 11  1  0
 11 12  2  0
 12 13  1  0
 13 14  1  0
 14 15  1  6
 14 16  1  0
 16 17  2  0
 16 18  1  0
 19 18  1  6
 19 20  1  0
 20 21  1  0
 21 22  1  1
 21 23  1  0
 23 24  1  0
 24 25  2  0
 13  5  1  0
 24 19  1  0
 12  7  1  0
M  END
>  <fragmenstein_outcome>  (666) 
nan

>  <exports>  (666) 
['/opt/xchem-fragalysis-2/maxwin/openbind-hippo/xx01zvns2b/cycle_01/syndirella/elabs/openbind_xx01zvns2b_c1_elab_chemspace_filtered.sdf']

>  <Energy>  (666) 
nan

>  <alias>  (666) 
None

>  <fragmenstein_runtime>  (666) 
nan

>  <scratch_subdir>  (666) 
nan

>  <HIPPO Compound ID>  (666) 
147610

>  <rmsd(smina/fragmenstein)>  (666) 
0.5

>  <distance_score>  (666) 
1.574137

>  <orig_smiles>  (666) 
nan

>  <fragmenstein_mode>  (666) 
nan

>  <inchikey>  (666) 
QANTXRJTHQTLDL-NFAWXSAZSA-N

>  <ref_pdb>  (666) 
Z3880a

>  <GNINA pK>  (666) 
nan

>  <gnina_score_min>  (666) 
5.447

>  <tags>  (666) 
openbind_xx01zvns2b_c1_elab_nonasap_filtered_scored_top80percent,openbind_xx01zvns2b_c1_elab_chemspace_filtered_scored_top80percent,openbind_xx01zvns2b_c1_elab_chemspace_filtered_scored,openbind_xx01zvns2b_c1_elab_chemspace_filtered_scored_top40percent,openbind_xx01zvns2b_c1_elab_chemspace_filtered_scored_top20percent,openbind_xx01zvns2b_c1_elab_chemspace_filtered_scored_top60percent,openbind_xx01zvns2b_c1_elabs_filtered

>  <smiles>  (666) 
CC(C)Cc1nc2ccccc2n1[C@H](C)C(=O)N[C@H]1C[C@@H](C)OC1=O

>  <subsites>  (666) 
1 - Z4590/B/203/1

>  <gnina_score>  (666) 
5.5

>  <HIPPO Pose ID>  (666) 
74541

>  <ref_mols>  (666) 
Z0101a,Z3880a

>  <energy_score>  (666) 
-13.059428

>  <inspiration_score>  (666) 
None

>  <smina_score_min>  (666) 
-6.609

>  <fragmenstein_error>  (666) 
nan

>  <name>  (666) 
P74541

$$$$
P74586
     RDKit          3D

 25 27  0  0  0  0  0  0  0  0999 V2000
   -9.7343    2.8268   -6.9569 C   0  0  0  0  0  0  0  0  0  0  0  0
   -8.5748    2.5973   -7.7141 O   0  0  0  0  0  0  0  0  0  0  0  0
   -8.6872    2.7933   -9.1215 C   0  0  0  0  0  0  0  0  0  0  0  0
   -7.8841    4.0320   -9.5562 C   0  0  0  0  0  0  0  0  0  0  0  0
   -7.9059    4.2163  -11.0311 N   0  0  0  0  0  0  0  0  0  0  0  0
   -6.7220    4.4474  -12.0524 C   0  0  0  0  0  0  0  0  0  0  0  0
   -5.5624    4.4465  -11.8817 O   0  0  0  0  0  0  0  0  0  0  0  0
   -7.4030    4.7985  -13.3792 C   0  0  1  0  0  0  0  0  0  0  0  0
   -8.0440    6.1813  -13.2484 C   0  0  0  0  0  0  0  0  0  0  0  0
   -6.6737    4.7739  -14.6625 N   0  0  0  0  0  0  0  0  0  0  0  0
   -5.4324    5.2601  -15.0378 C   0  0  0  0  0  0  0  0  0  0  0  0
   -4.3800    5.7515  -14.0892 C   0  0  0  0  0  0  0  0  0  0  0  0
   -3.2518    6.5538  -14.7712 C   0  0  0  0  0  0  0  0  0  0  0  0
   -2.2549    5.6376  -15.4895 C   0  0  0  0  0  0  0  0  0  0  0  0
   -2.5044    7.3904  -13.7282 C   0  0  0  0  0  0  0  0  0  0  0  0
   -5.3062    5.2570  -16.3589 N   0  0  0  0  0  0  0  0  0  0  0  0
   -6.4868    4.7916  -16.8632 C   0  0  0  0  0  0  0  0  0  0  0  0
   -6.8902    4.5832  -18.1867 C   0  0  0  0  0  0  0  0  0  0  0  0
   -8.1936    4.1331  -18.4216 C   0  0  0  0  0  0  0  0  0  0  0  0
   -9.0951    3.9529  -17.3842 C   0  0  0  0  0  0  0  0  0  0  0  0
   -8.7005    4.1403  -16.0676 C   0  0  0  0  0  0  0  0  0  0  0  0
   -7.3776    4.5300  -15.8359 C   0  0  0  0  0  0  0  0  0  0  0  0
   -6.5038    4.2649   -8.8807 C   0  0  0  0  0  0  0  0  0  0  0  0
   -6.8079    5.7743   -8.8830 C   0  0  0  0  0  0  0  0  0  0  0  0
   -8.2974    5.4024   -8.9107 C   0  0  0  0  0  0  0  0  0  0  0  0
  1  2  1  0
  2  3  1  0
  3  4  1  0
  4  5  1  0
  5  6  1  0
  6  7  2  0
  6  8  1  0
  8  9  1  1
  8 10  1  0
 10 11  1  0
 11 12  1  0
 12 13  1  0
 13 14  1  0
 13 15  1  0
 11 16  2  0
 16 17  1  0
 17 18  2  0
 18 19  1  0
 19 20  2  0
 20 21  1  0
 21 22  2  0
  4 23  1  0
 23 24  1  0
 24 25  1  0
 25  4  1  0
 22 10  1  0
 22 17  1  0
M  END
>  <fragmenstein_outcome>  (667) 
nan

>  <exports>  (667) 
['/opt/xchem-fragalysis-2/maxwin/openbind-hippo/xx01zvns2b/cycle_01/syndirella/elabs/openbind_xx01zvns2b_c1_elab_chemspace_filtered.sdf']

>  <Energy>  (667) 
nan

>  <alias>  (667) 
None

>  <fragmenstein_runtime>  (667) 
nan

>  <scratch_subdir>  (667) 
nan

>  <HIPPO Compound ID>  (667) 
147630

>  <rmsd(smina/fragmenstein)>  (667) 
1.478

>  <distance_score>  (667) 
1.657626

>  <orig_smiles>  (667) 
nan

>  <fragmenstein_mode>  (667) 
nan

>  <inchikey>  (667) 
DTLHROBIAMUQCE-OAHLLOKOSA-N

>  <ref_pdb>  (667) 
Z3880a

>  <GNINA pK>  (667) 
nan

>  <gnina_score_min>  (667) 
5.36

>  <tags>  (667) 
openbind_xx01zvns2b_c1_elab_nonasap_filtered_scored_top80percent,openbind_xx01zvns2b_c1_elab_chemspace_filtered_scored_top80percent,openbind_xx01zvns2b_c1_elab_chemspace_filtered_scored,openbind_xx01zvns2b_c1_elab_chemspace_filtered_scored_top40percent,openbind_xx01zvns2b_c1_elab_chemspace_filtered_scored_top20percent,openbind_xx01zvns2b_c1_elab_chemspace_filtered_scored_top60percent,openbind_xx01zvns2b_c1_elabs_filtered

>  <smiles>  (667) 
COCC1(NC(=O)[C@@H](C)n2c(CC(C)C)nc3ccccc32)CCC1

>  <subsites>  (667) 
1 - Z4590/B/203/1

>  <gnina_score>  (667) 
5.417

>  <HIPPO Pose ID>  (667) 
74586

>  <ref_mols>  (667) 
Z0101a,Z3880a

>  <energy_score>  (667) 
-19.986

>  <inspiration_score>  (667) 
None

>  <smina_score_min>  (667) 
-6.46

>  <fragmenstein_error>  (667) 
nan

>  <name>  (667) 
P74586

$$$$
P74703
     RDKit          3D

 25 27  0  0  0  0  0  0  0  0999 V2000
   -9.9388    2.0341   -8.1190 C   0  0  0  0  0  0  0  0  0  0  0  0
   -8.6561    2.7873   -8.3090 C   0  0  1  0  0  0  0  0  0  0  0  0
   -8.0226    2.6080   -9.6824 C   0  0  0  0  0  0  0  0  0  0  0  0
   -7.1261    3.8221   -9.7255 C   0  0  1  0  0  0  0  0  0  0  0  0
   -6.6665    4.3885  -10.9875 N   0  0  0  0  0  0  0  0  0  0  0  0
   -7.0294    4.0102  -12.4628 C   0  0  0  0  0  0  0  0  0  0  0  0
   -7.6887    3.1408  -12.8800 O   0  0  0  0  0  0  0  0  0  0  0  0
   -6.4011    5.1336  -13.3468 C   0  0  2  0  0  0  0  0  0  0  0  0
   -7.2615    6.3887  -13.2015 C   0  0  0  0  0  0  0  0  0  0  0  0
   -6.1603    4.8756  -14.7892 N   0  0  0  0  0  0  0  0  0  0  0  0
   -4.9723    5.1592  -15.4727 C   0  0  0  0  0  0  0  0  0  0  0  0
   -3.6852    5.4343  -14.7685 C   0  0  0  0  0  0  0  0  0  0  0  0
   -2.6163    5.5181  -15.6020 F   0  0  0  0  0  0  0  0  0  0  0  0
   -3.7375    6.6082  -14.0802 F   0  0  0  0  0  0  0  0  0  0  0  0
   -3.3896    4.4720  -13.8534 F   0  0  0  0  0  0  0  0  0  0  0  0
   -5.1625    5.1602  -16.7845 N   0  0  0  0  0  0  0  0  0  0  0  0
   -6.4712    4.8165  -16.9709 C   0  0  0  0  0  0  0  0  0  0  0  0
   -7.1725    4.6437  -18.1698 C   0  0  0  0  0  0  0  0  0  0  0  0
   -8.5255    4.3137  -18.1078 C   0  0  0  0  0  0  0  0  0  0  0  0
   -9.1677    4.1739  -16.8839 C   0  0  0  0  0  0  0  0  0  0  0  0
   -8.4823    4.3350  -15.6793 C   0  0  0  0  0  0  0  0  0  0  0  0
   -7.1242    4.6506  -15.7512 C   0  0  0  0  0  0  0  0  0  0  0  0
   -8.0247    4.8281   -9.0217 C   0  0  0  0  0  0  0  0  0  0  0  0
   -7.9618    6.0429   -9.1491 O   0  0  0  0  0  0  0  0  0  0  0  0
   -8.8895    4.1928   -8.1828 O   0  0  0  0  0  0  0  0  0  0  0  0
  2  1  1  6
  2  3  1  0
  3  4  1  0
  4  5  1  6
  5  6  1  0
  6  7  2  0
  6  8  1  0
  8  9  1  6
  8 10  1  0
 10 11  1  0
 11 12  1  0
 12 13  1  0
 12 14  1  0
 12 15  1  0
 11 16  2  0
 16 17  1  0
 17 18  2  0
 18 19  1  0
 19 20  2  0
 20 21  1  0
 21 22  2  0
  4 23  1  0
 23 24  2  0
 23 25  1  0
 25  2  1  0
 22 10  1  0
 22 17  1  0
M  END
>  <fragmenstein_outcome>  (668) 
nan

>  <exports>  (668) 
['/opt/xchem-fragalysis-2/maxwin/openbind-hippo/xx01zvns2b/cycle_01/syndirella/elabs/openbind_xx01zvns2b_c1_elab_chemspace_filtered.sdf']

>  <Energy>  (668) 
nan

>  <alias>  (668) 
None

>  <fragmenstein_runtime>  (668) 
nan

>  <scratch_subdir>  (668) 
nan

>  <HIPPO Compound ID>  (668) 
147664

>  <rmsd(smina/fragmenstein)>  (668) 
0.608

>  <distance_score>  (668) 
1.554884

>  <orig_smiles>  (668) 
nan

>  <fragmenstein_mode>  (668) 
nan

>  <inchikey>  (668) 
ZWHQDTMPPWASFW-ATZCPNFKSA-N

>  <ref_pdb>  (668) 
Z3880a

>  <GNINA pK>  (668) 
nan

>  <gnina_score_min>  (668) 
5.223

>  <tags>  (668) 
openbind_xx01zvns2b_c1_elab_nonasap_filtered_scored_top80percent,openbind_xx01zvns2b_c1_elab_chemspace_filtered_scored_top80percent,openbind_xx01zvns2b_c1_elab_chemspace_filtered_scored,openbind_xx01zvns2b_c1_elab_chemspace_filtered_scored_top40percent,openbind_xx01zvns2b_c1_elab_chemspace_filtered_scored_top20percent,openbind_xx01zvns2b_c1_elab_chemspace_filtered_scored_top60percent,openbind_xx01zvns2b_c1_elabs_filtered

>  <smiles>  (668) 
C[C@H]1C[C@@H](NC(=O)[C@H](C)n2c(C(F)(F)F)nc3ccccc32)C(=O)O1

>  <subsites>  (668) 
1 - Z4590/B/203/1

>  <gnina_score>  (668) 
5.312

>  <HIPPO Pose ID>  (668) 
74703

>  <ref_mols>  (668) 
Z0101a,Z3880a

>  <energy_score>  (668) 
-22.963491

>  <inspiration_score>  (668) 
None

>  <smina_score_min>  (668) 
-6.52

>  <fragmenstein_error>  (668) 
nan

>  <name>  (668) 
P74703

$$$$
P74857
     RDKit          3D

 27 30  0  0  0  0  0  0  0  0999 V2000
   -4.9984   11.1416  -26.3016 C   0  0  0  0  0  0  0  0  0  0  0  0
   -5.1120   10.0854  -25.4853 C   0  0  0  0  0  0  0  0  0  0  0  0
   -4.3589    8.7923  -25.6525 C   0  0  0  0  0  0  0  0  0  0  0  0
   -3.3381    8.7002  -24.6369 N   0  0  0  0  0  0  0  0  0  0  0  0
   -2.0797    9.2087  -24.9620 C   0  0  0  0  0  0  0  0  0  0  0  0
   -1.7806    9.6253  -26.0827 O   0  0  0  0  0  0  0  0  0  0  0  0
   -1.0212    9.1865  -23.8840 C   0  0  0  0  0  0  0  0  0  0  0  0
   -1.5983    9.0695  -22.4901 C   0  0  0  0  0  0  0  0  0  0  0  0
   -2.5352    7.8774  -22.4603 C   0  0  1  0  0  0  0  0  0  0  0  0
   -2.9501    7.4948  -21.1179 N   0  0  0  0  0  0  0  0  0  0  0  0
   -3.5967    8.4789  -20.2589 C   0  0  0  0  0  0  0  0  0  0  0  0
   -4.4720    7.7540  -19.2147 C   0  0  0  0  0  0  0  0  0  0  0  0
   -4.2188    6.2422  -19.2807 C   0  0  0  0  0  0  0  0  0  0  0  0
   -5.1787    5.4097  -18.5140 C   0  0  0  0  0  0  0  0  0  0  0  0
   -6.1190    4.6436  -19.1618 C   0  0  0  0  0  0  0  0  0  0  0  0
   -7.1740    4.4555  -18.2736 C   0  0  0  0  0  0  0  0  0  0  0  0
   -8.4893    4.0669  -18.4987 C   0  0  0  0  0  0  0  0  0  0  0  0
   -9.3512    4.0690  -17.4236 C   0  0  0  0  0  0  0  0  0  0  0  0
  -11.0038    3.9198  -17.8075 Cl  0  0  0  0  0  0  0  0  0  0  0  0
   -8.9002    4.3151  -16.1265 C   0  0  0  0  0  0  0  0  0  0  0  0
   -7.5713    4.7051  -15.8854 C   0  0  0  0  0  0  0  0  0  0  0  0
   -6.7399    4.8355  -17.0051 C   0  0  0  0  0  0  0  0  0  0  0  0
   -5.4659    5.3658  -17.1700 N   0  0  0  0  0  0  0  0  0  0  0  0
   -2.7363    5.9515  -19.1691 C   0  0  0  0  0  0  0  0  0  0  0  0
   -2.0419    6.5965  -20.3934 C   0  0  0  0  0  0  0  0  0  0  0  0
   -3.7313    8.1698  -23.3944 C   0  0  0  0  0  0  0  0  0  0  0  0
   -4.9107    7.9465  -23.1138 O   0  0  0  0  0  0  0  0  0  0  0  0
  1  2  2  0
  2  3  1  0
  3  4  1  0
  4  5  1  0
  5  6  2  0
  5  7  1  0
  7  8  1  0
  8  9  1  0
  9 10  1  1
 10 11  1  0
 11 12  1  0
 12 13  1  0
 13 14  1  0
 14 15  2  0
 15 16  1  0
 16 17  2  0
 17 18  1  0
 18 19  1  0
 18 20  2  0
 20 21  1  0
 21 22  2  0
 22 23  1  0
 13 24  1  0
 24 25  1  0
  9 26  1  0
 26 27  2  0
 26  4  1  0
 25 10  1  0
 23 14  1  0
 22 16  1  0
M  END
>  <fragmenstein_outcome>  (669) 
nan

>  <exports>  (669) 
['/opt/xchem-fragalysis-2/maxwin/openbind-hippo/xx01zvns2b/cycle_01/syndirella/elabs/openbind_xx01zvns2b_c1_elab_chemspace_filtered.sdf']

>  <Energy>  (669) 
nan

>  <alias>  (669) 
None

>  <fragmenstein_runtime>  (669) 
nan

>  <scratch_subdir>  (669) 
nan

>  <HIPPO Compound ID>  (669) 
147740

>  <rmsd(smina/fragmenstein)>  (669) 
0.832

>  <distance_score>  (669) 
1.31555

>  <orig_smiles>  (669) 
nan

>  <fragmenstein_mode>  (669) 
nan

>  <inchikey>  (669) 
VFADSAIEZOKEQK-LJQANCHMSA-N

>  <ref_pdb>  (669) 
Z1729a

>  <GNINA pK>  (669) 
nan

>  <gnina_score_min>  (669) 
5.351

>  <tags>  (669) 
openbind_xx01zvns2b_c1_elab_nonasap_filtered_scored_top80percent,openbind_xx01zvns2b_c1_elab_chemspace_filtered_scored_top80percent,openbind_xx01zvns2b_c1_elab_chemspace_filtered_scored,openbind_xx01zvns2b_c1_elab_chemspace_filtered_scored_top40percent,openbind_xx01zvns2b_c1_elab_chemspace_filtered_scored_top20percent,openbind_xx01zvns2b_c1_elab_chemspace_filtered_scored_top60percent,openbind_xx01zvns2b_c1_elabs_filtered

>  <smiles>  (669) 
C=CCN1C(=O)CC[C@@H](N2CCC(c3cc4cc(Cl)ccc4[nH]3)CC2)C1=O

>  <subsites>  (669) 
1 - Z4590/B/203/1

>  <gnina_score>  (669) 
5.499

>  <HIPPO Pose ID>  (669) 
74857

>  <ref_mols>  (669) 
Z1729a,Z2971a

>  <energy_score>  (669) 
-3.534074

>  <inspiration_score>  (669) 
None

>  <smina_score_min>  (669) 
-5.754

>  <fragmenstein_error>  (669) 
nan

>  <name>  (669) 
P74857

$$$$
P74860
     RDKit          3D

 28 31  0  0  0  0  0  0  0  0999 V2000
   -4.4411   11.1754  -24.4662 C   0  0  0  0  0  0  0  0  0  0  0  0
   -4.8805   10.2299  -25.3098 C   0  0  0  0  0  0  0  0  0  0  0  0
   -4.5550    8.7551  -25.3334 C   0  0  0  0  0  0  0  0  0  0  0  0
   -3.5518    8.3864  -24.3629 N   0  0  0  0  0  0  0  0  0  0  0  0
   -2.2246    8.4693  -24.7894 C   0  0  0  0  0  0  0  0  0  0  0  0
   -1.8902    8.7130  -25.9497 O   0  0  0  0  0  0  0  0  0  0  0  0
   -1.1575    8.1883  -23.7647 C   0  0  0  0  0  0  0  0  0  0  0  0
   -1.6702    8.3561  -22.3530 C   0  0  0  0  0  0  0  0  0  0  0  0
   -2.8843    7.4483  -22.1725 C   0  0  1  0  0  0  0  0  0  0  0  0
   -3.2855    7.2674  -20.7599 N   0  0  0  0  0  0  0  0  0  0  0  0
   -3.4820    8.4702  -19.9679 C   0  0  0  0  0  0  0  0  0  0  0  0
   -4.2814    8.1362  -18.7004 C   0  0  0  0  0  0  0  0  0  0  0  0
   -3.7716    6.9086  -17.9023 C   0  0  0  0  0  0  0  0  0  0  0  0
   -4.9034    5.9404  -17.6144 C   0  0  0  0  0  0  0  0  0  0  0  0
   -5.4263    5.7152  -16.3538 N   0  0  0  0  0  0  0  0  0  0  0  0
   -6.6567    5.0969  -16.4501 C   0  0  0  0  0  0  0  0  0  0  0  0
   -7.6218    4.7853  -15.4857 C   0  0  0  0  0  0  0  0  0  0  0  0
   -8.8593    4.3075  -15.9446 C   0  0  0  0  0  0  0  0  0  0  0  0
   -9.1161    4.1390  -17.3068 C   0  0  0  0  0  0  0  0  0  0  0  0
  -10.4714    3.8387  -17.8507 C   0  0  0  0  0  0  0  0  0  0  0  0
   -8.0928    4.3350  -18.2309 C   0  0  0  0  0  0  0  0  0  0  0  0
   -6.8572    4.8317  -17.7973 C   0  0  0  0  0  0  0  0  0  0  0  0
   -5.6841    5.2092  -18.4904 C   0  0  0  0  0  0  0  0  0  0  0  0
   -5.4601    4.9870  -19.9225 C   0  0  0  0  0  0  0  0  0  0  0  0
   -2.5415    6.2514  -18.5392 C   0  0  0  0  0  0  0  0  0  0  0  0
   -2.4285    6.2963  -20.0720 C   0  0  0  0  0  0  0  0  0  0  0  0
   -4.0132    7.9748  -23.0910 C   0  0  0  0  0  0  0  0  0  0  0  0
   -5.2051    8.0023  -22.7816 O   0  0  0  0  0  0  0  0  0  0  0  0
  1  2  2  0
  2  3  1  0
  3  4  1  0
  4  5  1  0
  5  6  2  0
  5  7  1  0
  7  8  1  0
  8  9  1  0
  9 10  1  1
 10 11  1  0
 11 12  1  0
 12 13  1  0
 13 14  1  0
 14 15  1  0
 15 16  1  0
 16 17  2  0
 17 18  1  0
 18 19  2  0
 19 20  1  0
 19 21  1  0
 21 22  2  0
 22 23  1  0
 23 24  1  0
 13 25  1  0
 25 26  1  0
  9 27  1  0
 27 28  2  0
 27  4  1  0
 26 10  1  0
 23 14  2  0
 22 16  1  0
M  END
>  <fragmenstein_outcome>  (670) 
nan

>  <exports>  (670) 
['/opt/xchem-fragalysis-2/maxwin/openbind-hippo/xx01zvns2b/cycle_01/syndirella/elabs/openbind_xx01zvns2b_c1_elab_chemspace_filtered.sdf']

>  <Energy>  (670) 
nan

>  <alias>  (670) 
None

>  <fragmenstein_runtime>  (670) 
nan

>  <scratch_subdir>  (670) 
nan

>  <HIPPO Compound ID>  (670) 
147742

>  <rmsd(smina/fragmenstein)>  (670) 
1.746

>  <distance_score>  (670) 
1.220308

>  <orig_smiles>  (670) 
nan

>  <fragmenstein_mode>  (670) 
nan

>  <inchikey>  (670) 
BHLDYMTUAPBGFJ-HXUWFJFHSA-N

>  <ref_pdb>  (670) 
Z1729a

>  <GNINA pK>  (670) 
nan

>  <gnina_score_min>  (670) 
5.353

>  <tags>  (670) 
openbind_xx01zvns2b_c1_elab_nonasap_filtered_scored_top80percent,openbind_xx01zvns2b_c1_elab_chemspace_filtered_scored_top80percent,openbind_xx01zvns2b_c1_elab_chemspace_filtered_scored,openbind_xx01zvns2b_c1_elab_chemspace_filtered_scored_top40percent,openbind_xx01zvns2b_c1_elab_chemspace_filtered_scored_top20percent,openbind_xx01zvns2b_c1_elab_chemspace_filtered_scored_top60percent,openbind_xx01zvns2b_c1_elabs_filtered

>  <smiles>  (670) 
C=CCN1C(=O)CC[C@@H](N2CCC(c3[nH]c4ccc(C)cc4c3C)CC2)C1=O

>  <subsites>  (670) 
1 - Z4590/B/203/1

>  <gnina_score>  (670) 
5.66

>  <HIPPO Pose ID>  (670) 
74860

>  <ref_mols>  (670) 
Z1729a,Z2971a

>  <energy_score>  (670) 
-19.463866

>  <inspiration_score>  (670) 
None

>  <smina_score_min>  (670) 
-6.39

>  <fragmenstein_error>  (670) 
nan

>  <name>  (670) 
P74860

$$$$
P74863
     RDKit          3D

 29 33  0  0  0  0  0  0  0  0999 V2000
   -3.3745    7.2226  -22.5508 C   0  0  0  0  0  0  0  0  0  0  0  0
   -2.8987    6.9165  -21.1823 C   0  0  0  0  0  0  0  0  0  0  0  0
   -3.3359    7.4707  -19.9869 C   0  0  0  0  0  0  0  0  0  0  0  0
   -2.5894    6.8627  -19.0212 N   0  0  0  0  0  0  0  0  0  0  0  0
   -2.4769    6.8851  -17.6346 C   0  0  0  0  0  0  0  0  0  0  0  0
   -3.3872    7.6668  -16.7482 C   0  0  0  0  0  0  0  0  0  0  0  0
   -4.8301    7.6018  -17.2360 C   0  0  0  0  0  0  0  0  0  0  0  0
   -5.4443    8.5610  -17.5098 O   0  0  0  0  0  0  0  0  0  0  0  0
   -5.2010    6.0895  -17.3709 N   0  0  0  0  0  0  0  0  0  0  0  0
   -6.3417    5.4674  -17.9474 C   0  0  0  0  0  0  0  0  0  0  0  0
   -7.1777    4.5807  -17.0561 C   0  0  0  0  0  0  0  0  0  0  0  0
   -7.9645    5.2523  -16.0039 N   0  0  0  0  0  0  0  0  0  0  0  0
   -8.6303    4.1984  -15.1960 C   0  0  0  0  0  0  0  0  0  0  0  0
   -7.6472    3.3920  -14.3143 C   0  0  0  0  0  0  0  0  0  0  0  0
   -6.8332    4.2435  -13.4493 N   0  0  0  0  0  0  0  0  0  0  0  0
   -7.4351    4.4795  -12.2281 C   0  0  0  0  0  0  0  0  0  0  0  0
   -7.2885    5.6665  -11.6228 N   0  0  0  0  0  0  0  0  0  0  0  0
   -7.8197    5.7892  -10.3924 C   0  0  0  0  0  0  0  0  0  0  0  0
   -8.4798    4.7790   -9.7388 C   0  0  0  0  0  0  0  0  0  0  0  0
   -8.6052    3.6127  -10.4406 C   0  0  0  0  0  0  0  0  0  0  0  0
   -8.0928    3.4523  -11.6661 N   0  0  0  0  0  0  0  0  0  0  0  0
   -6.1831    5.3435  -14.1403 C   0  0  0  0  0  0  0  0  0  0  0  0
   -7.1860    6.0795  -15.0434 C   0  0  0  0  0  0  0  0  0  0  0  0
   -7.0481    6.1439  -19.0642 C   0  0  0  0  0  0  0  0  0  0  0  0
   -6.1691    4.9736  -19.3732 C   0  0  0  0  0  0  0  0  0  0  0  0
   -1.4735    6.0876  -17.2214 C   0  0  0  0  0  0  0  0  0  0  0  0
   -0.6055    5.3287  -18.5604 S   0  0  0  0  0  0  0  0  0  0  0  0
   -1.7183    6.0417  -19.6701 C   0  0  0  0  0  0  0  0  0  0  0  0
   -1.8861    5.9970  -20.9645 N   0  0  0  0  0  0  0  0  0  0  0  0
  1  2  1  0
  2  3  2  0
  3  4  1  0
  4  5  1  0
  5  6  1  0
  6  7  1  0
  7  8  2  0
  7  9  1  0
  9 10  1  0
 10 11  1  0
 11 12  1  0
 12 13  1  0
 13 14  1  0
 14 15  1  0
 15 16  1  0
 16 17  2  0
 17 18  1  0
 18 19  2  0
 19 20  1  0
 20 21  2  0
 15 22  1  0
 22 23  1  0
 10 24  1  0
 24 25  1  0
  5 26  2  0
 26 27  1  0
 27 28  1  0
 28 29  2  0
 29  2  1  0
 28  4  1  0
 25 10  1  0
 23 12  1  0
 21 16  1  0
M  END
>  <fragmenstein_outcome>  (671) 
nan

>  <exports>  (671) 
['/opt/xchem-fragalysis-2/maxwin/openbind-hippo/xx01zvns2b/cycle_01/syndirella/elabs/openbind_xx01zvns2b_c1_elab_chemspace_filtered.sdf']

>  <Energy>  (671) 
nan

>  <alias>  (671) 
None

>  <fragmenstein_runtime>  (671) 
nan

>  <scratch_subdir>  (671) 
nan

>  <HIPPO Compound ID>  (671) 
147824

>  <rmsd(smina/fragmenstein)>  (671) 
0.87

>  <distance_score>  (671) 
1.88031

>  <orig_smiles>  (671) 
nan

>  <fragmenstein_mode>  (671) 
nan

>  <inchikey>  (671) 
RFXJNMOXFSBLNS-UHFFFAOYSA-N

>  <ref_pdb>  (671) 
Z1719a

>  <GNINA pK>  (671) 
nan

>  <gnina_score_min>  (671) 
5.144

>  <tags>  (671) 
openbind_xx01zvns2b_c1_elab_nonasap_filtered_scored_top80percent,openbind_xx01zvns2b_c1_elab_chemspace_filtered_scored_top80percent,openbind_xx01zvns2b_c1_elab_chemspace_filtered_scored,openbind_xx01zvns2b_c1_elab_chemspace_filtered_scored_top40percent,openbind_xx01zvns2b_c1_elab_chemspace_filtered_scored_top20percent,openbind_xx01zvns2b_c1_elab_chemspace_filtered_scored_top60percent,openbind_xx01zvns2b_c1_elabs_filtered

>  <smiles>  (671) 
Cc1cn2c(CC(=O)NC3(CN4CCN(c5ncccn5)CC4)CC3)csc2n1

>  <subsites>  (671) 
1 - Z4590/B/203/1

>  <gnina_score>  (671) 
5.792

>  <HIPPO Pose ID>  (671) 
74863

>  <ref_mols>  (671) 
Z0673a,Z1719a

>  <energy_score>  (671) 
-35.260901

>  <inspiration_score>  (671) 
None

>  <smina_score_min>  (671) 
-4.917

>  <fragmenstein_error>  (671) 
nan

>  <name>  (671) 
P74863

$$$$
P74864
     RDKit          3D

 29 32  0  0  0  0  0  0  0  0999 V2000
   -2.3136    6.7857  -22.0620 C   0  0  0  0  0  0  0  0  0  0  0  0
   -2.1907    6.4128  -20.6354 C   0  0  0  0  0  0  0  0  0  0  0  0
   -3.1408    5.8477  -19.7931 C   0  0  0  0  0  0  0  0  0  0  0  0
   -2.5577    5.8552  -18.5579 N   0  0  0  0  0  0  0  0  0  0  0  0
   -2.9037    5.5820  -17.2448 C   0  0  0  0  0  0  0  0  0  0  0  0
   -4.2380    5.0784  -16.8413 C   0  0  0  0  0  0  0  0  0  0  0  0
   -5.3705    5.8931  -17.4709 C   0  0  0  0  0  0  0  0  0  0  0  0
   -5.3964    7.0607  -17.4563 O   0  0  0  0  0  0  0  0  0  0  0  0
   -6.3176    4.8750  -18.1592 N   0  0  0  0  0  0  0  0  0  0  0  0
   -7.4192    5.0844  -19.0363 C   0  0  0  0  0  0  0  0  0  0  0  0
   -8.5625    4.0871  -18.9679 C   0  0  0  0  0  0  0  0  0  0  0  0
   -9.5363    4.1650  -17.7947 C   0  0  0  0  0  0  0  0  0  0  0  0
   -8.9759    3.8175  -16.4182 C   0  0  0  0  0  0  0  0  0  0  0  0
   -7.9673    4.6948  -15.8379 N   0  0  0  0  0  0  0  0  0  0  0  0
   -8.5592    5.8327  -15.1326 C   0  0  0  0  0  0  0  0  0  0  0  0
   -8.6657    5.7144  -13.6122 C   0  0  0  0  0  0  0  0  0  0  0  0
   -7.3347    5.5384  -13.0171 N   0  0  0  0  0  0  0  0  0  0  0  0
   -7.5464    4.8602  -11.8206 C   0  0  0  0  0  0  0  0  0  0  0  0
   -7.3278    3.5387  -11.7596 N   0  0  0  0  0  0  0  0  0  0  0  0
   -7.6845    2.9182  -10.6253 C   0  0  0  0  0  0  0  0  0  0  0  0
   -8.2422    3.5640   -9.5541 C   0  0  0  0  0  0  0  0  0  0  0  0
   -8.3946    4.9168   -9.7029 C   0  0  0  0  0  0  0  0  0  0  0  0
   -8.0668    5.5819  -10.8190 N   0  0  0  0  0  0  0  0  0  0  0  0
   -6.3653    4.8851  -13.8922 C   0  0  0  0  0  0  0  0  0  0  0  0
   -7.0648    3.9714  -14.9165 C   0  0  0  0  0  0  0  0  0  0  0  0
   -1.8836    5.8499  -16.4049 C   0  0  0  0  0  0  0  0  0  0  0  0
   -0.4286    6.4100  -17.2313 S   0  0  0  0  0  0  0  0  0  0  0  0
   -1.2877    6.3141  -18.7344 C   0  0  0  0  0  0  0  0  0  0  0  0
   -1.0128    6.6659  -19.9589 N   0  0  0  0  0  0  0  0  0  0  0  0
  1  2  1  0
  2  3  2  0
  3  4  1  0
  4  5  1  0
  5  6  1  0
  6  7  1  0
  7  8  2  0
  7  9  1  0
  9 10  1  0
 10 11  1  0
 11 12  1  0
 12 13  1  0
 13 14  1  0
 14 15  1  0
 15 16  1  0
 16 17  1  0
 17 18  1  0
 18 19  2  0
 19 20  1  0
 20 21  2  0
 21 22  1  0
 22 23  2  0
 17 24  1  0
 24 25  1  0
  5 26  2  0
 26 27  1  0
 27 28  1  0
 28 29  2  0
 29  2  1  0
 28  4  1  0
 25 14  1  0
 23 18  1  0
M  END
>  <fragmenstein_outcome>  (672) 
nan

>  <exports>  (672) 
['/opt/xchem-fragalysis-2/maxwin/openbind-hippo/xx01zvns2b/cycle_01/syndirella/elabs/openbind_xx01zvns2b_c1_elab_chemspace_filtered.sdf']

>  <Energy>  (672) 
nan

>  <alias>  (672) 
None

>  <fragmenstein_runtime>  (672) 
nan

>  <scratch_subdir>  (672) 
nan

>  <HIPPO Compound ID>  (672) 
147828

>  <rmsd(smina/fragmenstein)>  (672) 
0.868

>  <distance_score>  (672) 
1.235105

>  <orig_smiles>  (672) 
nan

>  <fragmenstein_mode>  (672) 
nan

>  <inchikey>  (672) 
HQRRRKQNCVCKRF-UHFFFAOYSA-N

>  <ref_pdb>  (672) 
Z1719a

>  <GNINA pK>  (672) 
nan

>  <gnina_score_min>  (672) 
5.315

>  <tags>  (672) 
openbind_xx01zvns2b_c1_elab_nonasap_filtered_scored_top80percent,openbind_xx01zvns2b_c1_elab_chemspace_filtered_scored_top80percent,openbind_xx01zvns2b_c1_elab_chemspace_filtered_scored,openbind_xx01zvns2b_c1_elab_chemspace_filtered_scored_top40percent,openbind_xx01zvns2b_c1_elab_chemspace_filtered_scored_top20percent,openbind_xx01zvns2b_c1_elab_chemspace_filtered_scored_top60percent,openbind_xx01zvns2b_c1_elabs_filtered

>  <smiles>  (672) 
Cc1cn2c(CC(=O)NCCCCN3CCN(c4ncccn4)CC3)csc2n1

>  <subsites>  (672) 
1 - Z4590/B/203/1

>  <gnina_score>  (672) 
5.822

>  <HIPPO Pose ID>  (672) 
74864

>  <ref_mols>  (672) 
Z0673a,Z1719a

>  <energy_score>  (672) 
-31.143821

>  <inspiration_score>  (672) 
None

>  <smina_score_min>  (672) 
-5.246

>  <fragmenstein_error>  (672) 
nan

>  <name>  (672) 
P74864

$$$$
P74865
     RDKit          3D

 26 28  0  0  0  0  0  0  0  0999 V2000
   -6.0754    7.1808  -11.6349 O   0  0  0  0  0  0  0  0  0  0  0  0
   -6.3788    6.0664  -11.5047 C   0  0  0  0  0  0  0  0  0  0  0  0
   -5.9950    4.8375  -12.3163 N   0  0  0  0  0  0  0  0  0  0  0  0
   -5.2358    4.7199  -13.5138 C   0  0  0  0  0  0  0  0  0  0  0  0
   -6.1981    4.7463  -14.6458 C   0  0  0  0  0  0  0  0  0  0  0  0
   -7.5009    4.5226  -14.5783 N   0  0  0  0  0  0  0  0  0  0  0  0
   -7.9125    4.4340  -15.8747 C   0  0  0  0  0  0  0  0  0  0  0  0
   -9.1431    4.0875  -16.4211 C   0  0  0  0  0  0  0  0  0  0  0  0
   -9.2376    4.0427  -17.8083 C   0  0  0  0  0  0  0  0  0  0  0  0
   -8.1113    4.3389  -18.5691 C   0  0  0  0  0  0  0  0  0  0  0  0
   -6.8920    4.7018  -18.0891 N   0  0  0  0  0  0  0  0  0  0  0  0
   -6.8746    4.7138  -16.7467 C   0  0  0  0  0  0  0  0  0  0  0  0
   -5.8007    4.9555  -15.9449 N   0  0  0  0  0  0  0  0  0  0  0  0
   -7.2858    5.6698  -10.4380 C   0  0  0  0  0  0  0  0  0  0  0  0
   -7.9389    6.4783   -9.5364 C   0  0  0  0  0  0  0  0  0  0  0  0
   -8.5912    5.6268   -8.6376 C   0  0  0  0  0  0  0  0  0  0  0  0
   -8.3721    4.3310   -9.0634 C   0  0  0  0  0  0  0  0  0  0  0  0
   -8.7731    3.0237   -8.4720 C   0  0  0  0  0  0  0  0  0  0  0  0
   -8.4754    3.1259   -7.0630 N   0  0  0  0  0  0  0  0  0  0  0  0
   -9.2764    3.8066   -5.9014 C   0  0  0  0  0  0  0  0  0  0  0  0
  -10.3341    4.3174   -5.9043 O   0  0  0  0  0  0  0  0  0  0  0  0
   -8.3733    3.8216   -4.6353 C   0  0  0  0  0  0  0  0  0  0  0  0
   -8.9715    3.3382   -3.5143 F   0  0  0  0  0  0  0  0  0  0  0  0
   -7.1858    3.1608   -4.7912 F   0  0  0  0  0  0  0  0  0  0  0  0
   -8.0073    5.1052   -4.3242 F   0  0  0  0  0  0  0  0  0  0  0  0
   -7.5849    4.3455  -10.1858 O   0  0  0  0  0  0  0  0  0  0  0  0
  1  2  2  0
  2  3  1  0
  3  4  1  0
  4  5  1  0
  5  6  2  0
  6  7  1  0
  7  8  2  0
  8  9  1  0
  9 10  2  0
 10 11  1  0
 11 12  2  0
 12 13  1  0
  2 14  1  0
 14 15  2  0
 15 16  1  0
 16 17  2  0
 17 18  1  0
 18 19  1  0
 19 20  1  0
 20 21  2  0
 20 22  1  0
 22 23  1  0
 22 24  1  0
 22 25  1  0
 17 26  1  0
 13  5  1  0
 26 14  1  0
 12  7  1  0
M  END
>  <fragmenstein_outcome>  (673) 
nan

>  <exports>  (673) 
['/opt/xchem-fragalysis-2/maxwin/openbind-hippo/xx01zvns2b/cycle_01/syndirella/elabs/openbind_xx01zvns2b_c1_elab_chemspace_filtered.sdf']

>  <Energy>  (673) 
nan

>  <alias>  (673) 
None

>  <fragmenstein_runtime>  (673) 
nan

>  <scratch_subdir>  (673) 
nan

>  <HIPPO Compound ID>  (673) 
147979

>  <rmsd(smina/fragmenstein)>  (673) 
1.359

>  <distance_score>  (673) 
1.72694

>  <orig_smiles>  (673) 
nan

>  <fragmenstein_mode>  (673) 
nan

>  <inchikey>  (673) 
WJZGXNRJAVPIGE-UHFFFAOYSA-N

>  <ref_pdb>  (673) 
Z4245a

>  <GNINA pK>  (673) 
nan

>  <gnina_score_min>  (673) 
5.211

>  <tags>  (673) 
openbind_xx01zvns2b_c1_elab_nonasap_filtered_scored_top80percent,openbind_xx01zvns2b_c1_elab_chemspace_filtered_scored_top80percent,openbind_xx01zvns2b_c1_elab_chemspace_filtered_scored,openbind_xx01zvns2b_c1_elab_chemspace_filtered_scored_top40percent,openbind_xx01zvns2b_c1_elab_chemspace_filtered_scored_top20percent,openbind_xx01zvns2b_c1_elab_chemspace_filtered_scored_top60percent,openbind_xx01zvns2b_c1_elabs_filtered

>  <smiles>  (673) 
O=C(NCc1nc2cccnc2[nH]1)c1ccc(CNC(=O)C(F)(F)F)o1

>  <subsites>  (673) 
1 - Z4590/B/203/1

>  <gnina_score>  (673) 
5.175

>  <HIPPO Pose ID>  (673) 
74865

>  <ref_mols>  (673) 
Z0852a,Z4245a

>  <energy_score>  (673) 
-3.895504

>  <inspiration_score>  (673) 
None

>  <smina_score_min>  (673) 
-7.165

>  <fragmenstein_error>  (673) 
nan

>  <name>  (673) 
P74865

$$$$
P74866
     RDKit          3D

 28 30  0  0  0  0  0  0  0  0999 V2000
   -5.3600    5.2725  -19.3156 C   0  0  0  0  0  0  0  0  0  0  0  0
   -6.6589    4.7226  -19.4776 O   0  0  0  0  0  0  0  0  0  0  0  0
   -7.3895    4.6066  -18.3103 C   0  0  0  0  0  0  0  0  0  0  0  0
   -8.7237    4.2177  -18.5162 C   0  0  0  0  0  0  0  0  0  0  0  0
   -9.5812    3.9798  -17.4514 C   0  0  0  0  0  0  0  0  0  0  0  0
   -9.1143    4.0490  -16.1464 C   0  0  0  0  0  0  0  0  0  0  0  0
   -7.8012    4.4548  -15.9673 C   0  0  0  0  0  0  0  0  0  0  0  0
   -7.0618    4.5491  -14.8364 N   0  0  0  0  0  0  0  0  0  0  0  0
   -5.8538    5.1199  -15.1291 C   0  0  0  0  0  0  0  0  0  0  0  0
   -4.9066    5.4529  -14.0182 C   0  0  0  0  0  0  0  0  0  0  0  0
   -5.6126    5.2335  -12.7730 N   0  0  0  0  0  0  0  0  0  0  0  0
   -5.5410    4.0610  -11.7745 C   0  0  0  0  0  0  0  0  0  0  0  0
   -4.8475    3.1256  -11.7577 O   0  0  0  0  0  0  0  0  0  0  0  0
   -6.6199    4.2015  -10.7859 C   0  0  0  0  0  0  0  0  0  0  0  0
   -7.3050    5.2748  -10.2414 C   0  0  0  0  0  0  0  0  0  0  0  0
   -8.2460    4.7419   -9.3200 C   0  0  0  0  0  0  0  0  0  0  0  0
   -8.1148    3.3695   -9.3652 C   0  0  0  0  0  0  0  0  0  0  0  0
   -8.7346    2.2119   -8.6711 C   0  0  0  0  0  0  0  0  0  0  0  0
   -9.3862    2.5919   -7.4401 N   0  0  0  0  0  0  0  0  0  0  0  0
   -8.8133    3.3047   -6.1597 C   0  0  0  0  0  0  0  0  0  0  0  0
   -7.7116    3.6162   -5.8901 O   0  0  0  0  0  0  0  0  0  0  0  0
  -10.0291    3.6394   -5.2658 C   0  0  0  0  0  0  0  0  0  0  0  0
   -9.7363    3.7762   -3.9445 F   0  0  0  0  0  0  0  0  0  0  0  0
  -10.5865    4.8293   -5.6551 F   0  0  0  0  0  0  0  0  0  0  0  0
  -11.0363    2.7261   -5.3637 F   0  0  0  0  0  0  0  0  0  0  0  0
   -7.1583    3.0455  -10.2820 O   0  0  0  0  0  0  0  0  0  0  0  0
   -5.7306    5.2647  -16.4384 N   0  0  0  0  0  0  0  0  0  0  0  0
   -6.9277    4.7936  -16.9882 C   0  0  0  0  0  0  0  0  0  0  0  0
  1  2  1  0
  2  3  1  0
  3  4  2  0
  4  5  1  0
  5  6  2  0
  6  7  1  0
  7  8  1  0
  8  9  1  0
  9 10  1  0
 10 11  1  0
 11 12  1  0
 12 13  2  0
 12 14  1  0
 14 15  2  0
 15 16  1  0
 16 17  2  0
 17 18  1  0
 18 19  1  0
 19 20  1  0
 20 21  2  0
 20 22  1  0
 22 23  1  0
 22 24  1  0
 22 25  1  0
 17 26  1  0
  9 27  2  0
 27 28  1  0
 28  3  1  0
 28  7  2  0
 26 14  1  0
M  END
>  <fragmenstein_outcome>  (674) 
nan

>  <exports>  (674) 
['/opt/xchem-fragalysis-2/maxwin/openbind-hippo/xx01zvns2b/cycle_01/syndirella/elabs/openbind_xx01zvns2b_c1_elab_chemspace_filtered.sdf']

>  <Energy>  (674) 
nan

>  <alias>  (674) 
None

>  <fragmenstein_runtime>  (674) 
nan

>  <scratch_subdir>  (674) 
nan

>  <HIPPO Compound ID>  (674) 
147997

>  <rmsd(smina/fragmenstein)>  (674) 
0.453

>  <distance_score>  (674) 
1.768796

>  <orig_smiles>  (674) 
nan

>  <fragmenstein_mode>  (674) 
nan

>  <inchikey>  (674) 
HEUFGDLOZXSHQB-UHFFFAOYSA-N

>  <ref_pdb>  (674) 
Z4245a

>  <GNINA pK>  (674) 
nan

>  <gnina_score_min>  (674) 
5.286

>  <tags>  (674) 
openbind_xx01zvns2b_c1_elab_nonasap_filtered_scored_top80percent,openbind_xx01zvns2b_c1_elab_chemspace_filtered_scored_top80percent,openbind_xx01zvns2b_c1_elab_chemspace_filtered_scored,openbind_xx01zvns2b_c1_elab_chemspace_filtered_scored_top40percent,openbind_xx01zvns2b_c1_elab_chemspace_filtered_scored_top20percent,openbind_xx01zvns2b_c1_elab_chemspace_filtered_scored_top60percent,openbind_xx01zvns2b_c1_elabs_filtered

>  <smiles>  (674) 
COc1cccc2[nH]c(CNC(=O)c3ccc(CNC(=O)C(F)(F)F)o3)nc12

>  <subsites>  (674) 
1 - Z4590/B/203/1

>  <gnina_score>  (674) 
5.5

>  <HIPPO Pose ID>  (674) 
74866

>  <ref_mols>  (674) 
Z0852a,Z4245a

>  <energy_score>  (674) 
-4.138465

>  <inspiration_score>  (674) 
None

>  <smina_score_min>  (674) 
-7.763

>  <fragmenstein_error>  (674) 
nan

>  <name>  (674) 
P74866

$$$$
P74868
     RDKit          3D

 35 38  0  0  0  0  0  0  0  0999 V2000
   -3.1797    8.8676  -20.4080 C   0  0  0  0  0  0  0  0  0  0  0  0
   -4.0996    7.7613  -20.2076 N   0  0  0  0  0  0  0  0  0  0  0  0
   -3.7963    6.5381  -20.7764 C   0  0  0  0  0  0  0  0  0  0  0  0
   -4.6391    5.5078  -20.6837 C   0  0  0  0  0  0  0  0  0  0  0  0
   -5.8342    5.6227  -19.8728 C   0  0  0  0  0  0  0  0  0  0  0  0
   -6.5245    4.3642  -19.4556 C   0  0  0  0  0  0  0  0  0  0  0  0
   -6.2146    3.3127  -19.9961 O   0  0  0  0  0  0  0  0  0  0  0  0
   -7.4080    4.4265  -18.4102 N   0  0  0  0  0  0  0  0  0  0  0  0
   -8.8054    4.5949  -18.7025 C   0  0  0  0  0  0  0  0  0  0  0  0
   -9.7026    4.0310  -17.6204 C   0  0  0  0  0  0  0  0  0  0  0  0
   -9.2739    4.4031  -16.2067 C   0  0  0  0  0  0  0  0  0  0  0  0
   -7.8567    3.9638  -15.9136 C   0  0  2  0  0  0  0  0  0  0  0  0
   -7.2996    4.5826  -14.6098 C   0  0  0  0  0  0  0  0  0  0  0  0
   -6.4047    5.3341  -14.6387 O   0  0  0  0  0  0  0  0  0  0  0  0
   -8.1813    4.1109  -13.4174 N   0  0  0  0  0  0  0  0  0  0  0  0
   -8.2010    4.5471  -12.0176 C   0  0  2  0  0  0  0  0  0  0  0  0
   -8.0314    6.0879  -12.0002 C   0  0  0  0  0  0  0  0  0  0  0  0
   -6.8727    6.6081  -11.1551 C   0  0  0  0  0  0  0  0  0  0  0  0
   -6.8522    5.9767   -9.7846 C   0  0  1  0  0  0  0  0  0  0  0  0
   -8.1601    5.8717   -9.1198 C   0  0  0  0  0  0  0  0  0  0  0  0
   -7.9560    4.3966   -8.6901 N   0  0  0  0  0  0  0  0  0  0  0  0
   -7.8114    4.2765   -7.2140 C   0  0  0  0  0  0  0  0  0  0  0  0
   -6.8519    4.3130   -6.5386 O   0  0  0  0  0  0  0  0  0  0  0  0
   -9.0858    4.2021   -6.7676 O   0  0  0  0  0  0  0  0  0  0  0  0
   -9.3937    3.2553   -5.7348 C   0  0  0  0  0  0  0  0  0  0  0  0
  -10.8477    3.5224   -5.4189 C   0  0  0  0  0  0  0  0  0  0  0  0
   -8.5859    3.5294   -4.4648 C   0  0  0  0  0  0  0  0  0  0  0  0
   -9.3183    1.8598   -6.3489 C   0  0  0  0  0  0  0  0  0  0  0  0
   -6.8961    4.5017   -9.7953 C   0  0  1  0  0  0  0  0  0  0  0  0
   -7.2160    3.7687  -11.1137 C   0  0  2  0  0  0  0  0  0  0  0  0
   -5.9654    3.6066  -11.8070 O   0  0  0  0  0  0  0  0  0  0  0  0
   -6.9043    4.3211  -17.0562 C   0  0  0  0  0  0  0  0  0  0  0  0
   -6.1286    6.7940  -19.2963 C   0  0  0  0  0  0  0  0  0  0  0  0
   -5.3023    7.9879  -19.5464 C   0  0  0  0  0  0  0  0  0  0  0  0
   -5.7244    9.0776  -19.1614 O   0  0  0  0  0  0  0  0  0  0  0  0
  1  2  1  0
  2  3  1  0
  3  4  2  0
  4  5  1  0
  5  6  1  0
  6  7  2  0
  6  8  1  0
  8  9  1  0
  9 10  1  0
 10 11  1  0
 11 12  1  0
 12 13  1  1
 13 14  2  0
 13 15  1  0
 16 15  1  6
 16 17  1  0
 17 18  1  0
 19 18  1  6
 19 20  1  0
 20 21  1  0
 21 22  1  0
 22 23  2  0
 22 24  1  0
 24 25  1  0
 25 26  1  0
 25 27  1  0
 25 28  1  0
 29 21  1  1
 29 30  1  0
 30 31  1  6
 12 32  1  0
  5 33  2  0
 33 34  1  0
 34 35  2  0
 34  2  1  0
 32  8  1  0
 30 16  1  0
 29 19  1  0
M  END
>  <fragmenstein_outcome>  (675) 
nan

>  <exports>  (675) 
['/opt/xchem-fragalysis-2/maxwin/openbind-hippo/xx01zvns2b/cycle_01/syndirella/elabs/openbind_xx01zvns2b_c1_elab_chemspace_filtered.sdf']

>  <Energy>  (675) 
nan

>  <alias>  (675) 
None

>  <fragmenstein_runtime>  (675) 
nan

>  <scratch_subdir>  (675) 
nan

>  <HIPPO Compound ID>  (675) 
148408

>  <rmsd(smina/fragmenstein)>  (675) 
1.553

>  <distance_score>  (675) 
1.940269

>  <orig_smiles>  (675) 
nan

>  <fragmenstein_mode>  (675) 
nan

>  <inchikey>  (675) 
UASXKRMYIMIGIW-FSAOVCISSA-N

>  <ref_pdb>  (675) 
Z4245a

>  <GNINA pK>  (675) 
nan

>  <gnina_score_min>  (675) 
5.564

>  <tags>  (675) 
openbind_xx01zvns2b_c1_elab_nonasap_filtered_scored_top80percent,openbind_xx01zvns2b_c1_elab_chemspace_filtered_scored_top80percent,openbind_xx01zvns2b_c1_elab_chemspace_filtered_scored,openbind_xx01zvns2b_c1_elab_chemspace_filtered_scored_top40percent,openbind_xx01zvns2b_c1_elab_chemspace_filtered_scored_top20percent,openbind_xx01zvns2b_c1_elab_chemspace_filtered_scored_top60percent,openbind_xx01zvns2b_c1_elabs_filtered

>  <smiles>  (675) 
Cn1ccc(C(=O)N2CCC[C@H](C(=O)N[C@@H]3CC[C@H]4CN(C(=O)OC(C)(C)C)[C@H]4[C@@H]3O)C2)cc1=O

>  <subsites>  (675) 
1 - Z4590/B/203/1

>  <gnina_score>  (675) 
6.067

>  <HIPPO Pose ID>  (675) 
74868

>  <ref_mols>  (675) 
Z4245a,Z0819a

>  <energy_score>  (675) 
-4.320068

>  <inspiration_score>  (675) 
None

>  <smina_score_min>  (675) 
-6.799

>  <fragmenstein_error>  (675) 
nan

>  <name>  (675) 
P74868

$$$$
P74869
     RDKit          3D

 26 29  0  0  0  0  0  0  0  0999 V2000
   -3.5560    5.1648  -15.3624 C   0  0  0  0  0  0  0  0  0  0  0  0
   -4.7759    5.9769  -15.0572 C   0  0  0  0  0  0  0  0  0  0  0  0
   -4.7273    7.0627  -14.4878 O   0  0  0  0  0  0  0  0  0  0  0  0
   -6.0637    5.4276  -15.4553 C   0  0  0  0  0  0  0  0  0  0  0  0
   -6.9454    4.9644  -14.4829 C   0  0  0  0  0  0  0  0  0  0  0  0
   -6.6457    5.0063  -13.0199 C   0  0  0  0  0  0  0  0  0  0  0  0
   -8.1283    4.4178  -14.8001 N   0  0  0  0  0  0  0  0  0  0  0  0
   -8.4636    4.3649  -16.0802 C   0  0  0  0  0  0  0  0  0  0  0  0
   -9.7334    3.9387  -16.3272 C   0  0  0  0  0  0  0  0  0  0  0  0
  -10.3073    4.0189  -17.5813 C   0  0  0  0  0  0  0  0  0  0  0  0
   -9.5363    4.4825  -18.6107 C   0  0  0  0  0  0  0  0  0  0  0  0
   -8.2279    4.8501  -18.3779 C   0  0  0  0  0  0  0  0  0  0  0  0
   -7.6509    4.8069  -17.1189 C   0  0  0  0  0  0  0  0  0  0  0  0
   -6.3798    5.3115  -16.8026 C   0  0  0  0  0  0  0  0  0  0  0  0
   -5.4432    5.6735  -17.7888 N   0  0  0  0  0  0  0  0  0  0  0  0
   -5.2748    5.1783  -19.2408 C   0  0  0  0  0  0  0  0  0  0  0  0
   -5.8356    4.3396  -19.8214 O   0  0  0  0  0  0  0  0  0  0  0  0
   -4.1652    5.8730  -19.9523 C   0  0  0  0  0  0  0  0  0  0  0  0
   -4.4265    6.4320  -21.1682 N   0  0  0  0  0  0  0  0  0  0  0  0
   -3.3806    6.9072  -21.8864 C   0  0  0  0  0  0  0  0  0  0  0  0
   -2.0660    6.8752  -21.4508 C   0  0  0  0  0  0  0  0  0  0  0  0
   -1.8455    6.3336  -20.2012 C   0  0  0  0  0  0  0  0  0  0  0  0
   -2.8897    5.8182  -19.4525 C   0  0  0  0  0  0  0  0  0  0  0  0
   -2.4971    5.3228  -18.2431 O   0  0  0  0  0  0  0  0  0  0  0  0
   -1.0547    5.2785  -18.3523 C   0  0  0  0  0  0  0  0  0  0  0  0
   -0.6026    6.2887  -19.4008 C   0  0  0  0  0  0  0  0  0  0  0  0
  1  2  1  0
  2  3  2  0
  2  4  1  0
  4  5  2  0
  5  6  1  0
  5  7  1  0
  7  8  2  0
  8  9  1  0
  9 10  2  0
 10 11  1  0
 11 12  2  0
 12 13  1  0
 13 14  2  0
 14 15  1  0
 15 16  1  0
 16 17  2  0
 16 18  1  0
 18 19  2  0
 19 20  1  0
 20 21  2  0
 21 22  1  0
 22 23  2  0
 23 24  1  0
 24 25  1  0
 25 26  1  0
 14  4  1  0
 23 18  1  0
 13  8  1  0
 26 22  1  0
M  END
>  <fragmenstein_outcome>  (676) 
nan

>  <exports>  (676) 
['/opt/xchem-fragalysis-2/maxwin/openbind-hippo/xx01zvns2b/cycle_01/syndirella/elabs/openbind_xx01zvns2b_c1_elab_chemspace_filtered.sdf']

>  <Energy>  (676) 
nan

>  <alias>  (676) 
None

>  <fragmenstein_runtime>  (676) 
nan

>  <scratch_subdir>  (676) 
nan

>  <HIPPO Compound ID>  (676) 
148507

>  <rmsd(smina/fragmenstein)>  (676) 
1.142

>  <distance_score>  (676) 
1.878156

>  <orig_smiles>  (676) 
nan

>  <fragmenstein_mode>  (676) 
nan

>  <inchikey>  (676) 
RKNHTSMDJUETSH-UHFFFAOYSA-N

>  <ref_pdb>  (676) 
Z3476a

>  <GNINA pK>  (676) 
nan

>  <gnina_score_min>  (676) 
5.395

>  <tags>  (676) 
openbind_xx01zvns2b_c1_elab_nonasap_filtered_scored_top80percent,openbind_xx01zvns2b_c1_elab_chemspace_filtered_scored_top80percent,openbind_xx01zvns2b_c1_elab_chemspace_filtered_scored,openbind_xx01zvns2b_c1_elab_chemspace_filtered_scored_top40percent,openbind_xx01zvns2b_c1_elab_chemspace_filtered_scored_top20percent,openbind_xx01zvns2b_c1_elab_chemspace_filtered_scored_top60percent,openbind_xx01zvns2b_c1_elabs_filtered

>  <smiles>  (676) 
CC(=O)c1c(C)nc2ccccc2c1NC(=O)c1nccc2c1OCC2

>  <subsites>  (676) 
1 - Z4590/B/203/1

>  <gnina_score>  (676) 
5.184

>  <HIPPO Pose ID>  (676) 
74869

>  <ref_mols>  (676) 
Z3476a,Z0852a

>  <energy_score>  (676) 
-24.936374

>  <inspiration_score>  (676) 
None

>  <smina_score_min>  (676) 
-6.485

>  <fragmenstein_error>  (676) 
nan

>  <name>  (676) 
P74869

$$$$
P74870
     RDKit          3D

 26 29  0  0  0  0  0  0  0  0999 V2000
   -6.7068    4.9160  -12.9983 C   0  0  0  0  0  0  0  0  0  0  0  0
   -6.9443    4.9315  -14.4761 C   0  0  0  0  0  0  0  0  0  0  0  0
   -8.1225    4.3911  -14.8144 N   0  0  0  0  0  0  0  0  0  0  0  0
   -8.4507    4.3599  -16.0905 C   0  0  0  0  0  0  0  0  0  0  0  0
   -9.7216    3.9367  -16.3433 C   0  0  0  0  0  0  0  0  0  0  0  0
  -10.2908    4.0211  -17.5978 C   0  0  0  0  0  0  0  0  0  0  0  0
   -9.5164    4.4974  -18.6184 C   0  0  0  0  0  0  0  0  0  0  0  0
   -8.2137    4.8825  -18.3701 C   0  0  0  0  0  0  0  0  0  0  0  0
   -7.6342    4.8202  -17.1104 C   0  0  0  0  0  0  0  0  0  0  0  0
   -6.3595    5.3196  -16.7720 C   0  0  0  0  0  0  0  0  0  0  0  0
   -5.4447    5.6934  -17.7799 N   0  0  0  0  0  0  0  0  0  0  0  0
   -5.2493    5.1445  -19.2120 C   0  0  0  0  0  0  0  0  0  0  0  0
   -5.8628    4.3526  -19.8071 O   0  0  0  0  0  0  0  0  0  0  0  0
   -4.1310    5.8265  -19.9333 C   0  0  0  0  0  0  0  0  0  0  0  0
   -4.4072    6.3823  -21.1495 N   0  0  0  0  0  0  0  0  0  0  0  0
   -3.3796    6.8764  -21.8797 C   0  0  0  0  0  0  0  0  0  0  0  0
   -2.0624    6.8704  -21.4563 C   0  0  0  0  0  0  0  0  0  0  0  0
   -1.8235    6.3405  -20.2053 C   0  0  0  0  0  0  0  0  0  0  0  0
   -2.8512    5.8075  -19.4434 C   0  0  0  0  0  0  0  0  0  0  0  0
   -2.4348    5.3462  -18.2308 O   0  0  0  0  0  0  0  0  0  0  0  0
   -0.9931    5.3442  -18.3383 C   0  0  0  0  0  0  0  0  0  0  0  0
   -0.5718    6.3350  -19.4164 C   0  0  0  0  0  0  0  0  0  0  0  0
   -6.0265    5.4420  -15.4126 C   0  0  0  0  0  0  0  0  0  0  0  0
   -4.7162    6.0213  -14.9393 C   0  0  0  0  0  0  0  0  0  0  0  0
   -3.5342    5.1600  -15.3700 C   0  0  0  0  0  0  0  0  0  0  0  0
   -4.5442    7.5121  -15.2583 C   0  0  0  0  0  0  0  0  0  0  0  0
  1  2  1  0
  2  3  2  0
  3  4  1  0
  4  5  2  0
  5  6  1  0
  6  7  2  0
  7  8  1  0
  8  9  2  0
  9 10  1  0
 10 11  1  0
 11 12  1  0
 12 13  2  0
 12 14  1  0
 14 15  2  0
 15 16  1  0
 16 17  2  0
 17 18  1  0
 18 19  2  0
 19 20  1  0
 20 21  1  0
 21 22  1  0
 10 23  2  0
 23 24  1  0
 24 25  1  0
 24 26  1  0
 23  2  1  0
  9  4  1  0
 19 14  1  0
 22 18  1  0
M  END
>  <fragmenstein_outcome>  (677) 
nan

>  <exports>  (677) 
['/opt/xchem-fragalysis-2/maxwin/openbind-hippo/xx01zvns2b/cycle_01/syndirella/elabs/openbind_xx01zvns2b_c1_elab_chemspace_filtered.sdf']

>  <Energy>  (677) 
nan

>  <alias>  (677) 
None

>  <fragmenstein_runtime>  (677) 
nan

>  <scratch_subdir>  (677) 
nan

>  <HIPPO Compound ID>  (677) 
148510

>  <rmsd(smina/fragmenstein)>  (677) 
1.149

>  <distance_score>  (677) 
1.914744

>  <orig_smiles>  (677) 
nan

>  <fragmenstein_mode>  (677) 
nan

>  <inchikey>  (677) 
KKICTLXSVJCMSM-UHFFFAOYSA-N

>  <ref_pdb>  (677) 
Z3476a

>  <GNINA pK>  (677) 
nan

>  <gnina_score_min>  (677) 
5.554

>  <tags>  (677) 
openbind_xx01zvns2b_c1_elab_nonasap_filtered_scored_top80percent,openbind_xx01zvns2b_c1_elab_chemspace_filtered_scored_top80percent,openbind_xx01zvns2b_c1_elab_chemspace_filtered_scored,openbind_xx01zvns2b_c1_elab_chemspace_filtered_scored_top40percent,openbind_xx01zvns2b_c1_elab_chemspace_filtered_scored_top20percent,openbind_xx01zvns2b_c1_elab_chemspace_filtered_scored_top60percent,openbind_xx01zvns2b_c1_elabs_filtered

>  <smiles>  (677) 
Cc1nc2ccccc2c(NC(=O)c2nccc3c2OCC3)c1C(C)C

>  <subsites>  (677) 
1 - Z4590/B/203/1

>  <gnina_score>  (677) 
5.446

>  <HIPPO Pose ID>  (677) 
74870

>  <ref_mols>  (677) 
Z3476a,Z0852a

>  <energy_score>  (677) 
-9.792244

>  <inspiration_score>  (677) 
None

>  <smina_score_min>  (677) 
-6.501

>  <fragmenstein_error>  (677) 
nan

>  <name>  (677) 
P74870

$$$$
P74871
     RDKit          3D

 27 29  0  0  0  0  0  0  0  0999 V2000
   -8.4365    3.6883  -19.4449 C   0  0  0  0  0  0  0  0  0  0  0  0
   -9.1680    4.6293  -18.6855 O   0  0  0  0  0  0  0  0  0  0  0  0
   -8.6768    4.6015  -17.4234 C   0  0  0  0  0  0  0  0  0  0  0  0
   -9.4992    4.1407  -16.4290 C   0  0  0  0  0  0  0  0  0  0  0  0
   -9.0355    4.1522  -15.1315 C   0  0  0  0  0  0  0  0  0  0  0  0
   -7.7321    4.5492  -14.8717 C   0  0  0  0  0  0  0  0  0  0  0  0
   -7.3202    4.5681  -13.5520 N   0  0  0  0  0  0  0  0  0  0  0  0
   -6.1181    5.0507  -13.1680 C   0  0  0  0  0  0  0  0  0  0  0  0
   -5.8557    5.1387  -11.9734 O   0  0  0  0  0  0  0  0  0  0  0  0
   -5.1587    5.4589  -14.2577 C   0  0  0  0  0  0  0  0  0  0  0  0
   -5.4830    5.3747  -15.5647 C   0  0  0  0  0  0  0  0  0  0  0  0
   -4.5699    5.6076  -16.5874 N   0  0  0  0  0  0  0  0  0  0  0  0
   -4.5762    5.1359  -18.0873 C   0  0  0  0  0  0  0  0  0  0  0  0
   -5.3116    4.4200  -18.6549 O   0  0  0  0  0  0  0  0  0  0  0  0
   -3.5343    5.7176  -18.9609 C   0  0  0  0  0  0  0  0  0  0  0  0
   -3.9304    6.2285  -20.1657 N   0  0  0  0  0  0  0  0  0  0  0  0
   -2.9641    6.6239  -21.0145 C   0  0  0  0  0  0  0  0  0  0  0  0
   -1.6149    6.5457  -20.7100 C   0  0  0  0  0  0  0  0  0  0  0  0
   -1.2300    6.0285  -19.4642 C   0  0  0  0  0  0  0  0  0  0  0  0
    0.2192    6.0314  -19.0440 C   0  0  0  0  0  0  0  0  0  0  0  0
    0.6680    7.3423  -18.3662 C   0  0  0  0  0  0  0  0  0  0  0  0
    0.0369    7.5356  -16.9852 C   0  0  0  0  0  0  0  0  0  0  0  0
    2.1939    7.3560  -18.2355 C   0  0  0  0  0  0  0  0  0  0  0  0
   -2.2216    5.5638  -18.6029 C   0  0  0  0  0  0  0  0  0  0  0  0
   -1.9200    4.9749  -17.4433 F   0  0  0  0  0  0  0  0  0  0  0  0
   -6.8749    4.9972  -15.8787 C   0  0  0  0  0  0  0  0  0  0  0  0
   -7.4307    5.1348  -17.1356 C   0  0  0  0  0  0  0  0  0  0  0  0
  1  2  1  0
  2  3  1  0
  3  4  2  0
  4  5  1  0
  5  6  2  0
  6  7  1  0
  7  8  1  0
  8  9  2  0
  8 10  1  0
 10 11  2  0
 11 12  1  0
 12 13  1  0
 13 14  2  0
 13 15  1  0
 15 16  2  0
 16 17  1  0
 17 18  2  0
 18 19  1  0
 19 20  1  0
 20 21  1  0
 21 22  1  0
 21 23  1  0
 19 24  2  0
 24 25  1  0
 11 26  1  0
 26 27  2  0
 27  3  1  0
 26  6  1  0
 24 15  1  0
M  END
>  <fragmenstein_outcome>  (678) 
nan

>  <exports>  (678) 
['/opt/xchem-fragalysis-2/maxwin/openbind-hippo/xx01zvns2b/cycle_01/syndirella/elabs/openbind_xx01zvns2b_c1_elab_chemspace_filtered.sdf']

>  <Energy>  (678) 
nan

>  <alias>  (678) 
None

>  <fragmenstein_runtime>  (678) 
nan

>  <scratch_subdir>  (678) 
nan

>  <HIPPO Compound ID>  (678) 
148537

>  <rmsd(smina/fragmenstein)>  (678) 
2.084

>  <distance_score>  (678) 
1.900098

>  <orig_smiles>  (678) 
nan

>  <fragmenstein_mode>  (678) 
nan

>  <inchikey>  (678) 
PIJNFELUIWTFOA-UHFFFAOYSA-N

>  <ref_pdb>  (678) 
Z3476a

>  <GNINA pK>  (678) 
nan

>  <gnina_score_min>  (678) 
5.215

>  <tags>  (678) 
openbind_xx01zvns2b_c1_elab_nonasap_filtered_scored_top80percent,openbind_xx01zvns2b_c1_elab_chemspace_filtered_scored_top80percent,openbind_xx01zvns2b_c1_elab_chemspace_filtered_scored,openbind_xx01zvns2b_c1_elab_chemspace_filtered_scored_top40percent,openbind_xx01zvns2b_c1_elab_chemspace_filtered_scored_top20percent,openbind_xx01zvns2b_c1_elab_chemspace_filtered_scored_top60percent,openbind_xx01zvns2b_c1_elabs_filtered

>  <smiles>  (678) 
COc1ccc2[nH]c(=O)cc(NC(=O)c3nccc(CC(C)C)c3F)c2c1

>  <subsites>  (678) 
1 - Z4590/B/203/1

>  <gnina_score>  (678) 
5.409

>  <HIPPO Pose ID>  (678) 
74871

>  <ref_mols>  (678) 
Z3476a,Z0852a

>  <energy_score>  (678) 
-17.160414

>  <inspiration_score>  (678) 
None

>  <smina_score_min>  (678) 
-5.534

>  <fragmenstein_error>  (678) 
nan

>  <name>  (678) 
P74871

$$$$
P74872
     RDKit          3D

 27 30  0  0  0  0  0  0  0  0999 V2000
   -9.2994    1.1306   -8.4715 C   0  0  0  0  0  0  0  0  0  0  0  0
   -8.9694    2.4929   -8.9358 C   0  0  0  0  0  0  0  0  0  0  0  0
   -8.5597    2.7453  -10.2367 C   0  0  0  0  0  0  0  0  0  0  0  0
   -8.2051    4.0434  -10.5806 C   0  0  0  0  0  0  0  0  0  0  0  0
   -7.8449    4.2465  -11.9207 N   0  0  0  0  0  0  0  0  0  0  0  0
   -8.0625    5.4675  -12.8460 C   0  0  0  0  0  0  0  0  0  0  0  0
   -8.5068    6.5231  -12.6150 O   0  0  0  0  0  0  0  0  0  0  0  0
   -7.6042    5.1586  -14.2278 C   0  0  0  0  0  0  0  0  0  0  0  0
   -8.5004    4.5964  -15.1205 C   0  0  0  0  0  0  0  0  0  0  0  0
   -8.0880    4.4642  -16.4423 C   0  0  0  0  0  0  0  0  0  0  0  0
   -6.7952    4.8720  -16.8143 C   0  0  0  0  0  0  0  0  0  0  0  0
   -5.9660    5.3769  -15.8274 C   0  0  0  0  0  0  0  0  0  0  0  0
   -6.3369    5.5287  -14.5399 N   0  0  0  0  0  0  0  0  0  0  0  0
   -6.3322    4.8431  -18.2462 C   0  0  0  0  0  0  0  0  0  0  0  0
   -7.1313    3.9616  -19.0188 O   0  0  0  0  0  0  0  0  0  0  0  0
   -8.5135    4.2785  -18.8541 C   0  0  0  0  0  0  0  0  0  0  0  0
   -8.9958    3.8761  -17.4752 C   0  0  0  0  0  0  0  0  0  0  0  0
   -8.1832    5.0311   -9.5673 C   0  0  0  0  0  0  0  0  0  0  0  0
   -7.7029    6.3459   -9.6909 C   0  0  0  0  0  0  0  0  0  0  0  0
   -7.6721    7.1880   -8.5740 C   0  0  0  0  0  0  0  0  0  0  0  0
   -7.1271    8.5495   -8.7035 N   0  0  0  0  0  0  0  0  0  0  0  0
   -6.9760    9.2086   -7.6629 O   0  0  0  0  0  0  0  0  0  0  0  0
   -6.8173    8.9519   -9.8335 O   0  0  0  0  0  0  0  0  0  0  0  0
   -8.1005    6.7474   -7.3186 C   0  0  0  0  0  0  0  0  0  0  0  0
   -8.5577    5.4521   -7.1828 C   0  0  0  0  0  0  0  0  0  0  0  0
   -8.5970    4.6221   -8.2732 C   0  0  0  0  0  0  0  0  0  0  0  0
   -9.0234    3.4212   -7.9766 N   0  0  0  0  0  0  0  0  0  0  0  0
  1  2  1  0
  2  3  2  0
  3  4  1  0
  4  5  1  0
  5  6  1  0
  6  7  2  0
  6  8  1  0
  8  9  2  0
  9 10  1  0
 10 11  2  0
 11 12  1  0
 12 13  2  0
 11 14  1  0
 14 15  1  0
 15 16  1  0
 16 17  1  0
  4 18  2  0
 18 19  1  0
 19 20  2  0
 20 21  1  0
 21 22  2  0
 21 23  1  0
 20 24  1  0
 24 25  2  0
 25 26  1  0
 26 27  2  0
 27  2  1  0
 13  8  1  0
 26 18  1  0
 17 10  1  0
M  CHG  2  21   1  23  -1
M  END
>  <fragmenstein_outcome>  (679) 
nan

>  <exports>  (679) 
['/opt/xchem-fragalysis-2/maxwin/openbind-hippo/xx01zvns2b/cycle_01/syndirella/elabs/openbind_xx01zvns2b_c1_elab_chemspace_filtered.sdf']

>  <Energy>  (679) 
nan

>  <alias>  (679) 
None

>  <fragmenstein_runtime>  (679) 
nan

>  <scratch_subdir>  (679) 
nan

>  <HIPPO Compound ID>  (679) 
148543

>  <rmsd(smina/fragmenstein)>  (679) 
0.658

>  <distance_score>  (679) 
1.824492

>  <orig_smiles>  (679) 
nan

>  <fragmenstein_mode>  (679) 
nan

>  <inchikey>  (679) 
DCGJGMHCUAECSN-UHFFFAOYSA-N

>  <ref_pdb>  (679) 
Z3476a

>  <GNINA pK>  (679) 
nan

>  <gnina_score_min>  (679) 
5.583

>  <tags>  (679) 
openbind_xx01zvns2b_c1_elab_nonasap_filtered_scored_top80percent,openbind_xx01zvns2b_c1_elab_chemspace_filtered_scored_top80percent,openbind_xx01zvns2b_c1_elab_chemspace_filtered_scored,openbind_xx01zvns2b_c1_elab_chemspace_filtered_scored_top40percent,openbind_xx01zvns2b_c1_elab_chemspace_filtered_scored_top20percent,openbind_xx01zvns2b_c1_elab_chemspace_filtered_scored_top60percent,openbind_xx01zvns2b_c1_elabs_filtered

>  <smiles>  (679) 
Cc1cc(NC(=O)c2cc3c(cn2)COCC3)c2cc([N+](=O)[O-])ccc2n1

>  <subsites>  (679) 
1 - Z4590/B/203/1

>  <gnina_score>  (679) 
5.741

>  <HIPPO Pose ID>  (679) 
74872

>  <ref_mols>  (679) 
Z3476a,Z0852a

>  <energy_score>  (679) 
-8.166701

>  <inspiration_score>  (679) 
None

>  <smina_score_min>  (679) 
-7.186

>  <fragmenstein_error>  (679) 
nan

>  <name>  (679) 
P74872

$$$$
P74873
     RDKit          3D

 27 30  0  0  0  0  0  0  0  0999 V2000
   -6.2455    1.2864  -10.6512 C   0  0  0  0  0  0  0  0  0  0  0  0
   -7.5535    1.9248  -11.0500 C   0  0  0  0  0  0  0  0  0  0  0  0
   -8.0118    1.8411  -12.1890 O   0  0  0  0  0  0  0  0  0  0  0  0
   -8.1466    2.9095  -10.1291 C   0  0  0  0  0  0  0  0  0  0  0  0
   -8.6109    2.5551   -8.8756 C   0  0  0  0  0  0  0  0  0  0  0  0
   -8.9898    1.1811   -8.4867 C   0  0  0  0  0  0  0  0  0  0  0  0
   -8.7728    3.4514   -7.8973 N   0  0  0  0  0  0  0  0  0  0  0  0
   -8.5046    4.7086   -8.1601 C   0  0  0  0  0  0  0  0  0  0  0  0
   -8.5910    5.5023   -7.0478 C   0  0  0  0  0  0  0  0  0  0  0  0
   -8.4323    6.8650   -7.1689 C   0  0  0  0  0  0  0  0  0  0  0  0
   -8.2423    7.4179   -8.4291 C   0  0  0  0  0  0  0  0  0  0  0  0
   -8.1362    6.6117   -9.5614 C   0  0  0  0  0  0  0  0  0  0  0  0
   -8.1949    5.2167   -9.4517 C   0  0  0  0  0  0  0  0  0  0  0  0
   -8.0127    4.2634  -10.4767 C   0  0  0  0  0  0  0  0  0  0  0  0
   -7.7251    4.4751  -11.8435 N   0  0  0  0  0  0  0  0  0  0  0  0
   -7.0049    5.6471  -12.5488 C   0  0  0  0  0  0  0  0  0  0  0  0
   -6.6047    6.6573  -12.1207 O   0  0  0  0  0  0  0  0  0  0  0  0
   -6.8593    5.3381  -14.0224 C   0  0  0  0  0  0  0  0  0  0  0  0
   -7.9183    4.8002  -14.7549 C   0  0  0  0  0  0  0  0  0  0  0  0
   -7.7546    4.6530  -16.1312 C   0  0  0  0  0  0  0  0  0  0  0  0
   -6.5471    5.0550  -16.7207 C   0  0  0  0  0  0  0  0  0  0  0  0
   -5.5356    5.5170  -15.9013 C   0  0  0  0  0  0  0  0  0  0  0  0
   -5.6653    5.6768  -14.5722 N   0  0  0  0  0  0  0  0  0  0  0  0
   -6.3740    5.0509  -18.2023 C   0  0  0  0  0  0  0  0  0  0  0  0
   -7.6492    5.3300  -18.7386 O   0  0  0  0  0  0  0  0  0  0  0  0
   -8.5569    4.2609  -18.4840 C   0  0  0  0  0  0  0  0  0  0  0  0
   -8.8794    4.1661  -16.9942 C   0  0  0  0  0  0  0  0  0  0  0  0
  1  2  1  0
  2  3  2  0
  2  4  1  0
  4  5  2  0
  5  6  1  0
  5  7  1  0
  7  8  2  0
  8  9  1  0
  9 10  2  0
 10 11  1  0
 11 12  2  0
 12 13  1  0
 13 14  2  0
 14 15  1  0
 15 16  1  0
 16 17  2  0
 16 18  1  0
 18 19  2  0
 19 20  1  0
 20 21  2  0
 21 22  1  0
 22 23  2  0
 21 24  1  0
 24 25  1  0
 25 26  1  0
 26 27  1  0
 14  4  1  0
 23 18  1  0
 13  8  1  0
 27 20  1  0
M  END
>  <fragmenstein_outcome>  (680) 
nan

>  <exports>  (680) 
['/opt/xchem-fragalysis-2/maxwin/openbind-hippo/xx01zvns2b/cycle_01/syndirella/elabs/openbind_xx01zvns2b_c1_elab_chemspace_filtered.sdf']

>  <Energy>  (680) 
nan

>  <alias>  (680) 
None

>  <fragmenstein_runtime>  (680) 
nan

>  <scratch_subdir>  (680) 
nan

>  <HIPPO Compound ID>  (680) 
148550

>  <rmsd(smina/fragmenstein)>  (680) 
1.01

>  <distance_score>  (680) 
1.892348

>  <orig_smiles>  (680) 
nan

>  <fragmenstein_mode>  (680) 
nan

>  <inchikey>  (680) 
YTWGOAUUGAUYPE-UHFFFAOYSA-N

>  <ref_pdb>  (680) 
Z3476a

>  <GNINA pK>  (680) 
nan

>  <gnina_score_min>  (680) 
5.278

>  <tags>  (680) 
openbind_xx01zvns2b_c1_elab_nonasap_filtered_scored_top80percent,openbind_xx01zvns2b_c1_elab_chemspace_filtered_scored_top80percent,openbind_xx01zvns2b_c1_elab_chemspace_filtered_scored,openbind_xx01zvns2b_c1_elab_chemspace_filtered_scored_top40percent,openbind_xx01zvns2b_c1_elab_chemspace_filtered_scored_top20percent,openbind_xx01zvns2b_c1_elab_chemspace_filtered_scored_top60percent,openbind_xx01zvns2b_c1_elabs_filtered

>  <smiles>  (680) 
CC(=O)c1c(C)nc2ccccc2c1NC(=O)c1cc2c(cn1)COCC2

>  <subsites>  (680) 
1 - Z4590/B/203/1

>  <gnina_score>  (680) 
5.706

>  <HIPPO Pose ID>  (680) 
74873

>  <ref_mols>  (680) 
Z3476a,Z0852a

>  <energy_score>  (680) 
-13.916897

>  <inspiration_score>  (680) 
None

>  <smina_score_min>  (680) 
-7.182

>  <fragmenstein_error>  (680) 
nan

>  <name>  (680) 
P74873

$$$$
P74874
     RDKit          3D

 28 30  0  0  0  0  0  0  0  0999 V2000
   -6.7499    4.9422  -12.9955 C   0  0  0  0  0  0  0  0  0  0  0  0
   -6.9756    4.9284  -14.4754 C   0  0  0  0  0  0  0  0  0  0  0  0
   -8.1482    4.3742  -14.8114 N   0  0  0  0  0  0  0  0  0  0  0  0
   -8.4779    4.3434  -16.0881 C   0  0  0  0  0  0  0  0  0  0  0  0
   -9.7487    3.9261  -16.3440 C   0  0  0  0  0  0  0  0  0  0  0  0
  -10.3186    4.0194  -17.5982 C   0  0  0  0  0  0  0  0  0  0  0  0
   -9.5433    4.4958  -18.6180 C   0  0  0  0  0  0  0  0  0  0  0  0
   -8.2390    4.8700  -18.3699 C   0  0  0  0  0  0  0  0  0  0  0  0
   -7.6647    4.8041  -17.1083 C   0  0  0  0  0  0  0  0  0  0  0  0
   -6.3949    5.3068  -16.7701 C   0  0  0  0  0  0  0  0  0  0  0  0
   -5.4837    5.6689  -17.7755 N   0  0  0  0  0  0  0  0  0  0  0  0
   -5.2751    5.0930  -19.1991 C   0  0  0  0  0  0  0  0  0  0  0  0
   -5.8777    4.2831  -19.7816 O   0  0  0  0  0  0  0  0  0  0  0  0
   -4.0517    5.6428  -19.8343 C   0  0  0  0  0  0  0  0  0  0  0  0
   -4.1687    6.3646  -20.9804 N   0  0  0  0  0  0  0  0  0  0  0  0
   -3.0207    6.8049  -21.5295 C   0  0  0  0  0  0  0  0  0  0  0  0
   -1.7690    6.6142  -20.9545 C   0  0  0  0  0  0  0  0  0  0  0  0
   -1.6749    5.9342  -19.7366 C   0  0  0  0  0  0  0  0  0  0  0  0
   -0.4214    5.8258  -18.8956 C   0  0  0  0  0  0  0  0  0  0  0  0
    0.8603    6.5390  -19.3752 C   0  0  0  0  0  0  0  0  0  0  0  0
    2.0698    6.0071  -18.5974 C   0  0  0  0  0  0  0  0  0  0  0  0
    0.7758    8.0568  -19.1798 C   0  0  0  0  0  0  0  0  0  0  0  0
   -2.8427    5.3676  -19.2274 C   0  0  0  0  0  0  0  0  0  0  0  0
   -2.7884    4.5856  -18.1425 F   0  0  0  0  0  0  0  0  0  0  0  0
   -6.0553    5.4330  -15.4140 C   0  0  0  0  0  0  0  0  0  0  0  0
   -4.7714    6.0635  -14.9266 C   0  0  0  0  0  0  0  0  0  0  0  0
   -3.4972    5.5045  -15.5521 C   0  0  0  0  0  0  0  0  0  0  0  0
   -4.8263    7.5914  -15.0350 C   0  0  0  0  0  0  0  0  0  0  0  0
  1  2  1  0
  2  3  2  0
  3  4  1  0
  4  5  2  0
  5  6  1  0
  6  7  2  0
  7  8  1  0
  8  9  2  0
  9 10  1  0
 10 11  1  0
 11 12  1  0
 12 13  2  0
 12 14  1  0
 14 15  2  0
 15 16  1  0
 16 17  2  0
 17 18  1  0
 18 19  1  0
 19 20  1  0
 20 21  1  0
 20 22  1  0
 18 23  2  0
 23 24  1  0
 10 25  2  0
 25 26  1  0
 26 27  1  0
 26 28  1  0
 25  2  1  0
  9  4  1  0
 23 14  1  0
M  END
>  <fragmenstein_outcome>  (681) 
nan

>  <exports>  (681) 
['/opt/xchem-fragalysis-2/maxwin/openbind-hippo/xx01zvns2b/cycle_01/syndirella/elabs/openbind_xx01zvns2b_c1_elab_chemspace_filtered.sdf']

>  <Energy>  (681) 
nan

>  <alias>  (681) 
None

>  <fragmenstein_runtime>  (681) 
nan

>  <scratch_subdir>  (681) 
nan

>  <HIPPO Compound ID>  (681) 
148556

>  <rmsd(smina/fragmenstein)>  (681) 
1.175

>  <distance_score>  (681) 
1.682299

>  <orig_smiles>  (681) 
nan

>  <fragmenstein_mode>  (681) 
nan

>  <inchikey>  (681) 
UVLOJLJOIVYBNT-UHFFFAOYSA-N

>  <ref_pdb>  (681) 
Z3476a

>  <GNINA pK>  (681) 
nan

>  <gnina_score_min>  (681) 
5.946

>  <tags>  (681) 
openbind_xx01zvns2b_c1_elab_nonasap_filtered_scored_top80percent,openbind_xx01zvns2b_c1_elab_chemspace_filtered_scored_top80percent,openbind_xx01zvns2b_c1_elab_chemspace_filtered_scored,openbind_xx01zvns2b_c1_elab_chemspace_filtered_scored_top40percent,openbind_xx01zvns2b_c1_elab_chemspace_filtered_scored_top20percent,openbind_xx01zvns2b_c1_elab_chemspace_filtered_scored_top60percent,openbind_xx01zvns2b_c1_elabs_filtered

>  <smiles>  (681) 
Cc1nc2ccccc2c(NC(=O)c2nccc(CC(C)C)c2F)c1C(C)C

>  <subsites>  (681) 
1 - Z4590/B/203/1

>  <gnina_score>  (681) 
5.762

>  <HIPPO Pose ID>  (681) 
74874

>  <ref_mols>  (681) 
Z3476a,Z0852a

>  <energy_score>  (681) 
-5.02803

>  <inspiration_score>  (681) 
None

>  <smina_score_min>  (681) 
-6.359

>  <fragmenstein_error>  (681) 
nan

>  <name>  (681) 
P74874

$$$$
P74875
     RDKit          3D

 28 30  0  0  0  0  0  0  0  0999 V2000
    0.4192    5.9460  -17.3510 C   0  0  0  0  0  0  0  0  0  0  0  0
   -0.3975    5.8217  -18.6423 C   0  0  0  0  0  0  0  0  0  0  0  0
    0.4107    6.4213  -19.7954 C   0  0  0  0  0  0  0  0  0  0  0  0
   -1.7590    6.5021  -18.4572 C   0  0  0  0  0  0  0  0  0  0  0  0
   -2.7980    6.2604  -19.5292 C   0  0  0  0  0  0  0  0  0  0  0  0
   -2.7815    6.9905  -20.7218 C   0  0  0  0  0  0  0  0  0  0  0  0
   -3.9034    6.9701  -21.5360 C   0  0  0  0  0  0  0  0  0  0  0  0
   -5.0281    6.2923  -21.2385 N   0  0  0  0  0  0  0  0  0  0  0  0
   -4.9901    5.4800  -20.1421 C   0  0  0  0  0  0  0  0  0  0  0  0
   -6.2139    4.6372  -19.8124 C   0  0  0  0  0  0  0  0  0  0  0  0
   -6.4197    3.6178  -20.3168 O   0  0  0  0  0  0  0  0  0  0  0  0
   -6.9499    5.3462  -18.6997 N   0  0  0  0  0  0  0  0  0  0  0  0
   -8.0035    4.9362  -17.9260 C   0  0  0  0  0  0  0  0  0  0  0  0
   -9.1527    4.4111  -18.4660 C   0  0  0  0  0  0  0  0  0  0  0  0
  -10.1113    3.9984  -17.5743 C   0  0  0  0  0  0  0  0  0  0  0  0
   -9.9269    3.9504  -16.2356 N   0  0  0  0  0  0  0  0  0  0  0  0
   -8.7818    4.3985  -15.7387 C   0  0  0  0  0  0  0  0  0  0  0  0
   -8.5248    4.3446  -14.3801 C   0  0  0  0  0  0  0  0  0  0  0  0
   -7.2749    4.6955  -13.8611 C   0  0  0  0  0  0  0  0  0  0  0  0
   -6.2662    5.1262  -14.7162 C   0  0  0  0  0  0  0  0  0  0  0  0
   -4.8593    5.4103  -14.2977 C   0  0  0  0  0  0  0  0  0  0  0  0
   -3.9994    5.4608  -15.3630 F   0  0  0  0  0  0  0  0  0  0  0  0
   -4.3420    4.4904  -13.4401 F   0  0  0  0  0  0  0  0  0  0  0  0
   -4.7386    6.6168  -13.6755 F   0  0  0  0  0  0  0  0  0  0  0  0
   -6.5563    5.2753  -16.0572 C   0  0  0  0  0  0  0  0  0  0  0  0
   -7.7911    4.9101  -16.5652 C   0  0  0  0  0  0  0  0  0  0  0  0
   -3.8989    5.4344  -19.2805 C   0  0  0  0  0  0  0  0  0  0  0  0
   -3.9202    4.6845  -18.1712 F   0  0  0  0  0  0  0  0  0  0  0  0
  1  2  1  0
  2  3  1  0
  2  4  1  0
  4  5  1  0
  5  6  2  0
  6  7  1  0
  7  8  2  0
  8  9  1  0
  9 10  1  0
 10 11  2  0
 10 12  1  0
 12 13  1  0
 13 14  2  0
 14 15  1  0
 15 16  2  0
 16 17  1  0
 17 18  2  0
 18 19  1  0
 19 20  2  0
 20 21  1  0
 21 22  1  0
 21 23  1  0
 21 24  1  0
 20 25  1  0
 25 26  2  0
  9 27  2  0
 27 28  1  0
 27  5  1  0
 26 13  1  0
 26 17  1  0
M  END
>  <fragmenstein_outcome>  (682) 
nan

>  <exports>  (682) 
['/opt/xchem-fragalysis-2/maxwin/openbind-hippo/xx01zvns2b/cycle_01/syndirella/elabs/openbind_xx01zvns2b_c1_elab_chemspace_filtered.sdf']

>  <Energy>  (682) 
nan

>  <alias>  (682) 
None

>  <fragmenstein_runtime>  (682) 
nan

>  <scratch_subdir>  (682) 
nan

>  <HIPPO Compound ID>  (682) 
148577

>  <rmsd(smina/fragmenstein)>  (682) 
2.633

>  <distance_score>  (682) 
1.82366

>  <orig_smiles>  (682) 
nan

>  <fragmenstein_mode>  (682) 
nan

>  <inchikey>  (682) 
VVYCCCMMZLZNDK-UHFFFAOYSA-N

>  <ref_pdb>  (682) 
Z3476a

>  <GNINA pK>  (682) 
nan

>  <gnina_score_min>  (682) 
5.989

>  <tags>  (682) 
openbind_xx01zvns2b_c1_elab_nonasap_filtered_scored_top80percent,openbind_xx01zvns2b_c1_elab_chemspace_filtered_scored_top80percent,openbind_xx01zvns2b_c1_elab_chemspace_filtered_scored,openbind_xx01zvns2b_c1_elab_chemspace_filtered_scored_top40percent,openbind_xx01zvns2b_c1_elab_chemspace_filtered_scored_top20percent,openbind_xx01zvns2b_c1_elab_chemspace_filtered_scored_top60percent,openbind_xx01zvns2b_c1_elabs_filtered

>  <smiles>  (682) 
CC(C)Cc1ccnc(C(=O)Nc2ccnc3ccc(C(F)(F)F)cc23)c1F

>  <subsites>  (682) 
1 - Z4590/B/203/1

>  <gnina_score>  (682) 
5.893

>  <HIPPO Pose ID>  (682) 
74875

>  <ref_mols>  (682) 
Z3476a,Z0852a

>  <energy_score>  (682) 
-10.221902

>  <inspiration_score>  (682) 
None

>  <smina_score_min>  (682) 
-5.925

>  <fragmenstein_error>  (682) 
nan

>  <name>  (682) 
P74875

$$$$
P74890
     RDKit          3D

 23 26  0  0  0  0  0  0  0  0999 V2000
   -8.9454    5.3681  -15.4878 O   0  0  0  0  0  0  0  0  0  0  0  0
   -7.7859    5.3060  -15.3802 C   0  0  0  0  0  0  0  0  0  0  0  0
   -6.9501    4.2147  -16.0292 C   0  0  0  0  0  0  0  0  0  0  0  0
   -6.3522    4.7646  -17.2634 C   0  0  0  0  0  0  0  0  0  0  0  0
   -5.1180    5.3606  -17.4323 C   0  0  0  0  0  0  0  0  0  0  0  0
   -4.9706    5.8557  -18.6882 N   0  0  0  0  0  0  0  0  0  0  0  0
   -6.0770    5.5078  -19.3128 C   0  0  0  0  0  0  0  0  0  0  0  0
   -6.9477    4.8406  -18.4943 N   0  0  0  0  0  0  0  0  0  0  0  0
   -8.1942    4.2064  -18.9939 C   0  0  0  0  0  0  0  0  0  0  0  0
   -9.3251    3.6039  -18.1996 C   0  0  0  0  0  0  0  0  0  0  0  0
   -9.5391    4.8836  -18.9310 C   0  0  0  0  0  0  0  0  0  0  0  0
   -6.7969    6.2318  -14.6289 N   0  0  0  0  0  0  0  0  0  0  0  0
   -7.0403    7.3595  -13.7850 C   0  0  0  0  0  0  0  0  0  0  0  0
   -8.2989    7.1344  -12.9562 C   0  0  0  0  0  0  0  0  0  0  0  0
   -8.0925    6.1634  -11.8231 C   0  0  0  0  0  0  0  0  0  0  0  0
   -7.7574    6.7664  -10.5339 C   0  0  0  0  0  0  0  0  0  0  0  0
   -7.7149    5.9941   -9.4384 C   0  0  0  0  0  0  0  0  0  0  0  0
   -7.9596    4.6329   -9.5605 N   0  0  0  0  0  0  0  0  0  0  0  0
   -7.9873    3.6682   -8.5922 C   0  0  0  0  0  0  0  0  0  0  0  0
   -8.2595    2.4970   -9.2589 C   0  0  0  0  0  0  0  0  0  0  0  0
   -8.4045    2.7173  -10.6074 N   0  0  0  0  0  0  0  0  0  0  0  0
   -8.2235    4.0070  -10.7698 C   0  0  0  0  0  0  0  0  0  0  0  0
   -8.2913    4.8290  -11.9288 C   0  0  0  0  0  0  0  0  0  0  0  0
  1  2  2  0
  2  3  1  0
  3  4  1  0
  4  5  2  0
  5  6  1  0
  6  7  2  0
  7  8  1  0
  8  9  1  0
  9 10  1  0
 10 11  1  0
  2 12  1  0
 12 13  1  0
 13 14  1  0
 14 15  1  0
 15 16  1  0
 16 17  2  0
 17 18  1  0
 18 19  1  0
 19 20  2  0
 20 21  1  0
 21 22  2  0
 22 23  1  0
  8  4  1  0
 11  9  1  0
 23 15  2  0
 22 18  1  0
M  END
>  <fragmenstein_outcome>  (683) 
nan

>  <exports>  (683) 
['/opt/xchem-fragalysis-2/maxwin/openbind-hippo/xx01zvns2b/cycle_01/syndirella/elabs/openbind_xx01zvns2b_c1_elab_chemspace_filtered.sdf']

>  <Energy>  (683) 
nan

>  <alias>  (683) 
None

>  <fragmenstein_runtime>  (683) 
nan

>  <scratch_subdir>  (683) 
nan

>  <HIPPO Compound ID>  (683) 
148873

>  <rmsd(smina/fragmenstein)>  (683) 
1.101

>  <distance_score>  (683) 
1.749561

>  <orig_smiles>  (683) 
nan

>  <fragmenstein_mode>  (683) 
nan

>  <inchikey>  (683) 
KLBIVXGXZAMXKZ-UHFFFAOYSA-N

>  <ref_pdb>  (683) 
Z0800a

>  <GNINA pK>  (683) 
nan

>  <gnina_score_min>  (683) 
5.333

>  <tags>  (683) 
openbind_xx01zvns2b_c1_elab_nonasap_filtered_scored_top80percent,openbind_xx01zvns2b_c1_elab_chemspace_filtered_scored_top80percent,openbind_xx01zvns2b_c1_elab_chemspace_filtered_scored,openbind_xx01zvns2b_c1_elab_chemspace_filtered_scored_top40percent,openbind_xx01zvns2b_c1_elab_chemspace_filtered_scored_top20percent,openbind_xx01zvns2b_c1_elab_chemspace_filtered_scored_top60percent,openbind_xx01zvns2b_c1_elabs_filtered

>  <smiles>  (683) 
O=C(Cc1cncn1C1CC1)NCCc1ccn2ccnc2c1

>  <subsites>  (683) 
1 - Z4590/B/203/1

>  <gnina_score>  (683) 
5.408

>  <HIPPO Pose ID>  (683) 
74890

>  <ref_mols>  (683) 
Z1495a,Z0800a

>  <energy_score>  (683) 
-10.206595

>  <inspiration_score>  (683) 
None

>  <smina_score_min>  (683) 
-5.952

>  <fragmenstein_error>  (683) 
nan

>  <name>  (683) 
P74890

$$$$
P74894
     RDKit          3D

 23 25  0  0  0  0  0  0  0  0999 V2000
   -9.9083    5.0393  -17.5970 C   0  0  0  0  0  0  0  0  0  0  0  0
   -8.8019    4.0200  -17.7654 C   0  0  1  0  0  0  0  0  0  0  0  0
   -8.5327    3.8579  -19.2562 C   0  0  0  0  0  0  0  0  0  0  0  0
   -7.1492    4.3348  -19.6819 C   0  0  0  0  0  0  0  0  0  0  0  0
   -6.6816    5.5876  -18.9597 C   0  0  0  0  0  0  0  0  0  0  0  0
   -6.6071    5.2154  -17.5634 N   0  0  0  0  0  0  0  0  0  0  0  0
   -5.5918    5.3568  -16.6608 C   0  0  0  0  0  0  0  0  0  0  0  0
   -4.6183    6.4864  -16.6177 C   0  0  0  0  0  0  0  0  0  0  0  0
   -5.4068    7.7017  -16.0799 C   0  0  0  0  0  0  0  0  0  0  0  0
   -5.5789    8.6733  -16.7094 O   0  0  0  0  0  0  0  0  0  0  0  0
   -5.9528    7.2978  -14.6750 N   0  0  0  0  0  0  0  0  0  0  0  0
   -6.8879    7.9617  -13.8134 C   0  0  0  0  0  0  0  0  0  0  0  0
   -8.1267    7.0572  -13.5904 C   0  0  0  0  0  0  0  0  0  0  0  0
   -8.0298    6.1455  -12.3838 C   0  0  0  0  0  0  0  0  0  0  0  0
   -7.9982    4.7508  -12.5521 C   0  0  0  0  0  0  0  0  0  0  0  0
   -7.9246    3.9282  -11.4326 C   0  0  0  0  0  0  0  0  0  0  0  0
   -7.8640    4.3938  -10.1673 N   0  0  0  0  0  0  0  0  0  0  0  0
   -7.9347    5.7317  -10.0167 C   0  0  0  0  0  0  0  0  0  0  0  0
   -8.0264    6.6345  -11.0692 C   0  0  0  0  0  0  0  0  0  0  0  0
   -8.2179    8.4703  -10.6254 Br  0  0  0  0  0  0  0  0  0  0  0  0
   -5.8671    4.3947  -15.7114 C   0  0  0  0  0  0  0  0  0  0  0  0
   -7.1291    3.9003  -15.8760 N   0  0  0  0  0  0  0  0  0  0  0  0
   -7.5577    4.3892  -17.0166 C   0  0  0  0  0  0  0  0  0  0  0  0
  2  1  1  6
  2  3  1  0
  3  4  1  0
  4  5  1  0
  5  6  1  0
  6  7  1  0
  7  8  1  0
  8  9  1  0
  9 10  2  0
  9 11  1  0
 11 12  1  0
 12 13  1  0
 13 14  1  0
 14 15  2  0
 15 16  1  0
 16 17  2  0
 17 18  1  0
 18 19  2  0
 19 20  1  0
  7 21  2  0
 21 22  1  0
 22 23  2  0
 23  2  1  0
 23  6  1  0
 19 14  1  0
M  END
>  <fragmenstein_outcome>  (684) 
nan

>  <exports>  (684) 
['/opt/xchem-fragalysis-2/maxwin/openbind-hippo/xx01zvns2b/cycle_01/syndirella/elabs/openbind_xx01zvns2b_c1_elab_chemspace_filtered.sdf']

>  <Energy>  (684) 
nan

>  <alias>  (684) 
None

>  <fragmenstein_runtime>  (684) 
nan

>  <scratch_subdir>  (684) 
nan

>  <HIPPO Compound ID>  (684) 
148889

>  <rmsd(smina/fragmenstein)>  (684) 
1.839

>  <distance_score>  (684) 
1.946572

>  <orig_smiles>  (684) 
nan

>  <fragmenstein_mode>  (684) 
nan

>  <inchikey>  (684) 
FZVVNQZKESBIDX-LBPRGKRZSA-N

>  <ref_pdb>  (684) 
Z0800a

>  <GNINA pK>  (684) 
nan

>  <gnina_score_min>  (684) 
5.44

>  <tags>  (684) 
openbind_xx01zvns2b_c1_elab_nonasap_filtered_scored_top80percent,openbind_xx01zvns2b_c1_elab_chemspace_filtered_scored_top80percent,openbind_xx01zvns2b_c1_elab_chemspace_filtered_scored,openbind_xx01zvns2b_c1_elab_chemspace_filtered_scored_top40percent,openbind_xx01zvns2b_c1_elab_chemspace_filtered_scored_top20percent,openbind_xx01zvns2b_c1_elab_chemspace_filtered_scored_top60percent,openbind_xx01zvns2b_c1_elabs_filtered

>  <smiles>  (684) 
C[C@H]1CCCn2c(CC(=O)NCCc3ccncc3Br)cnc21

>  <subsites>  (684) 
1 - Z4590/B/203/1

>  <gnina_score>  (684) 
5.594

>  <HIPPO Pose ID>  (684) 
74894

>  <ref_mols>  (684) 
Z1495a,Z0800a

>  <energy_score>  (684) 
-3.759498

>  <inspiration_score>  (684) 
None

>  <smina_score_min>  (684) 
-5.358

>  <fragmenstein_error>  (684) 
nan

>  <name>  (684) 
P74894

$$$$
P74895
     RDKit          3D

 23 25  0  0  0  0  0  0  0  0999 V2000
   -8.4324    2.1196   -8.6089 C   0  0  0  0  0  0  0  0  0  0  0  0
   -8.2080    3.3940   -9.3461 C   0  0  0  0  0  0  0  0  0  0  0  0
   -8.4466    4.5914   -8.8532 N   0  0  0  0  0  0  0  0  0  0  0  0
   -8.1421    5.4650   -9.8500 C   0  0  0  0  0  0  0  0  0  0  0  0
   -7.6922    4.8273  -10.9799 C   0  0  0  0  0  0  0  0  0  0  0  0
   -7.7121    3.4991  -10.6333 N   0  0  0  0  0  0  0  0  0  0  0  0
   -7.2584    2.4092  -11.4551 C   0  0  0  0  0  0  0  0  0  0  0  0
   -7.2033    5.5124  -12.2246 C   0  0  1  0  0  0  0  0  0  0  0  0
   -8.1104    5.2088  -13.4532 C   0  0  0  0  0  0  0  0  0  0  0  0
   -9.2328    5.5177  -13.5338 O   0  0  0  0  0  0  0  0  0  0  0  0
   -7.2299    4.3632  -14.4098 N   0  0  0  0  0  0  0  0  0  0  0  0
   -7.5733    3.6508  -15.6037 C   0  0  0  0  0  0  0  0  0  0  0  0
   -7.9918    4.2935  -16.9344 C   0  0  1  0  0  0  0  0  0  0  0  0
   -9.4144    4.8014  -16.9400 C   0  0  0  0  0  0  0  0  0  0  0  0
   -6.9940    5.2986  -17.4125 C   0  0  0  0  0  0  0  0  0  0  0  0
   -6.1610    5.0247  -18.4974 C   0  0  0  0  0  0  0  0  0  0  0  0
   -5.1632    5.9274  -18.7976 C   0  0  0  0  0  0  0  0  0  0  0  0
   -4.9414    7.0559  -18.0929 N   0  0  0  0  0  0  0  0  0  0  0  0
   -5.7994    7.3191  -17.0869 C   0  0  0  0  0  0  0  0  0  0  0  0
   -6.8406    6.4950  -16.7263 C   0  0  0  0  0  0  0  0  0  0  0  0
   -7.1029    7.0382  -12.0018 C   0  0  0  0  0  0  0  0  0  0  0  0
   -8.1791    7.6150  -11.0701 C   0  0  0  0  0  0  0  0  0  0  0  0
   -8.2025    6.9300   -9.6981 C   0  0  0  0  0  0  0  0  0  0  0  0
  1  2  1  0
  2  3  2  0
  3  4  1  0
  4  5  2  0
  5  6  1  0
  6  7  1  0
  5  8  1  0
  8  9  1  6
  9 10  2  0
  9 11  1  0
 11 12  1  0
 12 13  1  0
 13 14  1  1
 13 15  1  0
 15 16  2  0
 16 17  1  0
 17 18  2  0
 18 19  1  0
 19 20  2  0
  8 21  1  0
 21 22  1  0
 22 23  1  0
  6  2  1  0
 20 15  1  0
 23  4  1  0
M  END
>  <fragmenstein_outcome>  (685) 
nan

>  <exports>  (685) 
['/opt/xchem-fragalysis-2/maxwin/openbind-hippo/xx01zvns2b/cycle_01/syndirella/elabs/openbind_xx01zvns2b_c1_elab_chemspace_filtered.sdf']

>  <Energy>  (685) 
nan

>  <alias>  (685) 
None

>  <fragmenstein_runtime>  (685) 
nan

>  <scratch_subdir>  (685) 
nan

>  <HIPPO Compound ID>  (685) 
148890

>  <rmsd(smina/fragmenstein)>  (685) 
1.021

>  <distance_score>  (685) 
1.953056

>  <orig_smiles>  (685) 
nan

>  <fragmenstein_mode>  (685) 
nan

>  <inchikey>  (685) 
QCGWRXQCRDMEBD-DOMZBBRYSA-N

>  <ref_pdb>  (685) 
Z0800a

>  <GNINA pK>  (685) 
nan

>  <gnina_score_min>  (685) 
5.443

>  <tags>  (685) 
openbind_xx01zvns2b_c1_elab_nonasap_filtered_scored_top80percent,openbind_xx01zvns2b_c1_elab_chemspace_filtered_scored_top80percent,openbind_xx01zvns2b_c1_elab_chemspace_filtered_scored,openbind_xx01zvns2b_c1_elab_chemspace_filtered_scored_top40percent,openbind_xx01zvns2b_c1_elab_chemspace_filtered_scored_top20percent,openbind_xx01zvns2b_c1_elab_chemspace_filtered_scored_top60percent,openbind_xx01zvns2b_c1_elabs_filtered

>  <smiles>  (685) 
Cc1nc2c(n1C)[C@@H](C(=O)NC[C@@H](C)c1ccncc1)CCC2

>  <subsites>  (685) 
1 - Z4590/B/203/1

>  <gnina_score>  (685) 
5.342

>  <HIPPO Pose ID>  (685) 
74895

>  <ref_mols>  (685) 
Z1495a,Z0800a

>  <energy_score>  (685) 
-30.63853

>  <inspiration_score>  (685) 
None

>  <smina_score_min>  (685) 
-6.186

>  <fragmenstein_error>  (685) 
nan

>  <name>  (685) 
P74895

$$$$
P74906
     RDKit          3D

 24 26  0  0  0  0  0  0  0  0999 V2000
   -9.6886    4.7254  -19.3348 C   0  0  0  0  0  0  0  0  0  0  0  0
   -8.7999    4.0904  -18.2969 C   0  0  2  0  0  0  0  0  0  0  0  0
   -9.4322    4.4168  -16.9551 C   0  0  0  0  0  0  0  0  0  0  0  0
   -8.5418    4.0375  -15.8036 C   0  0  0  0  0  0  0  0  0  0  0  0
   -7.1896    4.7001  -15.9171 C   0  0  0  0  0  0  0  0  0  0  0  0
   -6.6419    4.8032  -17.2364 N   0  0  0  0  0  0  0  0  0  0  0  0
   -5.4027    5.2855  -17.5837 C   0  0  0  0  0  0  0  0  0  0  0  0
   -4.3188    5.7426  -16.6615 C   0  0  0  0  0  0  0  0  0  0  0  0
   -4.8538    6.6487  -15.5369 C   0  0  0  0  0  0  0  0  0  0  0  0
   -5.2642    7.7253  -15.7339 O   0  0  0  0  0  0  0  0  0  0  0  0
   -4.8143    5.8083  -14.2253 N   0  0  0  0  0  0  0  0  0  0  0  0
   -5.3649    6.0911  -12.8989 C   0  0  1  0  0  0  0  0  0  0  0  0
   -4.9015    7.4679  -12.3951 C   0  0  0  0  0  0  0  0  0  0  0  0
   -3.4751    7.5433  -12.4030 O   0  0  0  0  0  0  0  0  0  0  0  0
   -6.9075    5.9606  -12.9190 C   0  0  0  0  0  0  0  0  0  0  0  0
   -7.4901    5.5480  -11.6012 C   0  0  0  0  0  0  0  0  0  0  0  0
   -7.7198    6.4897  -10.6044 C   0  0  0  0  0  0  0  0  0  0  0  0
   -8.1365    6.0373   -9.3679 C   0  0  0  0  0  0  0  0  0  0  0  0
   -8.3612    4.7403   -9.0734 N   0  0  0  0  0  0  0  0  0  0  0  0
   -8.1990    3.8470  -10.0732 C   0  0  0  0  0  0  0  0  0  0  0  0
   -7.7639    4.1984  -11.3384 C   0  0  0  0  0  0  0  0  0  0  0  0
   -5.4268    5.2152  -18.9564 C   0  0  0  0  0  0  0  0  0  0  0  0
   -6.6231    4.7359  -19.4133 N   0  0  0  0  0  0  0  0  0  0  0  0
   -7.3757    4.5504  -18.3606 C   0  0  0  0  0  0  0  0  0  0  0  0
  2  1  1  6
  2  3  1  0
  3  4  1  0
  4  5  1  0
  5  6  1  0
  6  7  1  0
  7  8  1  0
  8  9  1  0
  9 10  2  0
  9 11  1  0
 11 12  1  0
 12 13  1  6
 13 14  1  0
 12 15  1  0
 15 16  1  0
 16 17  2  0
 17 18  1  0
 18 19  2  0
 19 20  1  0
 20 21  2  0
  7 22  2  0
 22 23  1  0
 23 24  2  0
 24  2  1  0
 24  6  1  0
 21 16  1  0
M  END
>  <fragmenstein_outcome>  (686) 
nan

>  <exports>  (686) 
['/opt/xchem-fragalysis-2/maxwin/openbind-hippo/xx01zvns2b/cycle_01/syndirella/elabs/openbind_xx01zvns2b_c1_elab_chemspace_filtered.sdf']

>  <Energy>  (686) 
nan

>  <alias>  (686) 
None

>  <fragmenstein_runtime>  (686) 
nan

>  <scratch_subdir>  (686) 
nan

>  <HIPPO Compound ID>  (686) 
148906

>  <rmsd(smina/fragmenstein)>  (686) 
0.658

>  <distance_score>  (686) 
1.776067

>  <orig_smiles>  (686) 
nan

>  <fragmenstein_mode>  (686) 
nan

>  <inchikey>  (686) 
CYZRHIUSNQWXER-UKRRQHHQSA-N

>  <ref_pdb>  (686) 
Z0800a

>  <GNINA pK>  (686) 
nan

>  <gnina_score_min>  (686) 
5.377

>  <tags>  (686) 
openbind_xx01zvns2b_c1_elab_nonasap_filtered_scored_top80percent,openbind_xx01zvns2b_c1_elab_chemspace_filtered_scored_top80percent,openbind_xx01zvns2b_c1_elab_chemspace_filtered_scored,openbind_xx01zvns2b_c1_elab_chemspace_filtered_scored_top40percent,openbind_xx01zvns2b_c1_elab_chemspace_filtered_scored_top20percent,openbind_xx01zvns2b_c1_elab_chemspace_filtered_scored_top60percent,openbind_xx01zvns2b_c1_elabs_filtered

>  <smiles>  (686) 
C[C@@H]1CCCn2c(CC(=O)N[C@@H](CO)Cc3ccncc3)cnc21

>  <subsites>  (686) 
1 - Z4590/B/203/1

>  <gnina_score>  (686) 
4.913

>  <HIPPO Pose ID>  (686) 
74906

>  <ref_mols>  (686) 
Z1495a,Z0800a

>  <energy_score>  (686) 
-1.773194

>  <inspiration_score>  (686) 
None

>  <smina_score_min>  (686) 
-4.323

>  <fragmenstein_error>  (686) 
nan

>  <name>  (686) 
P74906

$$$$
P74908
     RDKit          3D

 24 26  0  0  0  0  0  0  0  0999 V2000
   -9.6313    4.7025  -19.3195 C   0  0  0  0  0  0  0  0  0  0  0  0
   -8.7532    4.1084  -18.2486 C   0  0  2  0  0  0  0  0  0  0  0  0
   -9.4296    4.4290  -16.9263 C   0  0  0  0  0  0  0  0  0  0  0  0
   -8.5418    4.1282  -15.7485 C   0  0  0  0  0  0  0  0  0  0  0  0
   -7.2473    4.9016  -15.8521 C   0  0  0  0  0  0  0  0  0  0  0  0
   -6.6619    4.9668  -17.1585 N   0  0  0  0  0  0  0  0  0  0  0  0
   -5.4156    5.4413  -17.4899 C   0  0  0  0  0  0  0  0  0  0  0  0
   -4.3767    5.9983  -16.5680 C   0  0  0  0  0  0  0  0  0  0  0  0
   -4.9700    6.8958  -15.4661 C   0  0  0  0  0  0  0  0  0  0  0  0
   -5.4046    7.9598  -15.6814 O   0  0  0  0  0  0  0  0  0  0  0  0
   -4.9359    6.0677  -14.1466 N   0  0  0  0  0  0  0  0  0  0  0  0
   -5.5138    6.3431  -12.8520 C   0  0  0  0  0  0  0  0  0  0  0  0
   -7.0277    6.0765  -12.8349 C   0  0  0  0  0  0  0  0  0  0  0  0
   -7.5086    5.5612  -11.5080 C   0  0  0  0  0  0  0  0  0  0  0  0
   -7.8495    6.4446  -10.4784 C   0  0  0  0  0  0  0  0  0  0  0  0
   -7.8139    8.3319  -10.6515 Br  0  0  0  0  0  0  0  0  0  0  0  0
   -8.2055    5.9212   -9.2450 C   0  0  0  0  0  0  0  0  0  0  0  0
   -8.2786    4.6020   -8.9665 N   0  0  0  0  0  0  0  0  0  0  0  0
   -7.9818    3.7536   -9.9758 C   0  0  0  0  0  0  0  0  0  0  0  0
   -7.5716    4.1762  -11.2338 C   0  0  0  0  0  0  0  0  0  0  0  0
   -7.0112    2.8334  -12.4533 Br  0  0  0  0  0  0  0  0  0  0  0  0
   -5.3719    5.2397  -18.8499 C   0  0  0  0  0  0  0  0  0  0  0  0
   -6.5358    4.6934  -19.3136 N   0  0  0  0  0  0  0  0  0  0  0  0
   -7.3390    4.6007  -18.2867 C   0  0  0  0  0  0  0  0  0  0  0  0
  2  1  1  6
  2  3  1  0
  3  4  1  0
  4  5  1  0
  5  6  1  0
  6  7  1  0
  7  8  1  0
  8  9  1  0
  9 10  2  0
  9 11  1  0
 11 12  1  0
 12 13  1  0
 13 14  1  0
 14 15  2  0
 15 16  1  0
 15 17  1  0
 17 18  2  0
 18 19  1  0
 19 20  2  0
 20 21  1  0
  7 22  2  0
 22 23  1  0
 23 24  2  0
 24  2  1  0
 24  6  1  0
 20 14  1  0
M  END
>  <fragmenstein_outcome>  (687) 
nan

>  <exports>  (687) 
['/opt/xchem-fragalysis-2/maxwin/openbind-hippo/xx01zvns2b/cycle_01/syndirella/elabs/openbind_xx01zvns2b_c1_elab_chemspace_filtered.sdf']

>  <Energy>  (687) 
nan

>  <alias>  (687) 
None

>  <fragmenstein_runtime>  (687) 
nan

>  <scratch_subdir>  (687) 
nan

>  <HIPPO Compound ID>  (687) 
148910

>  <rmsd(smina/fragmenstein)>  (687) 
0.509

>  <distance_score>  (687) 
1.934556

>  <orig_smiles>  (687) 
nan

>  <fragmenstein_mode>  (687) 
nan

>  <inchikey>  (687) 
BGNSMUDBWMECNA-LLVKDONJSA-N

>  <ref_pdb>  (687) 
Z0800a

>  <GNINA pK>  (687) 
nan

>  <gnina_score_min>  (687) 
6.0

>  <tags>  (687) 
openbind_xx01zvns2b_c1_elab_nonasap_filtered_scored_top80percent,openbind_xx01zvns2b_c1_elab_chemspace_filtered_scored_top80percent,openbind_xx01zvns2b_c1_elab_chemspace_filtered_scored,openbind_xx01zvns2b_c1_elab_chemspace_filtered_scored_top40percent,openbind_xx01zvns2b_c1_elab_chemspace_filtered_scored_top20percent,openbind_xx01zvns2b_c1_elab_chemspace_filtered_scored_top60percent,openbind_xx01zvns2b_c1_elabs_filtered

>  <smiles>  (687) 
C[C@@H]1CCCn2c(CC(=O)NCCc3c(Br)cncc3Br)cnc21

>  <subsites>  (687) 
1 - Z4590/B/203/1

>  <gnina_score>  (687) 
5.971

>  <HIPPO Pose ID>  (687) 
74908

>  <ref_mols>  (687) 
Z1495a,Z0800a

>  <energy_score>  (687) 
-9.517809

>  <inspiration_score>  (687) 
None

>  <smina_score_min>  (687) 
-4.553

>  <fragmenstein_error>  (687) 
nan

>  <name>  (687) 
P74908

$$$$
P74909
     RDKit          3D

 24 26  0  0  0  0  0  0  0  0999 V2000
   -8.6994    4.1143  -19.4810 C   0  0  0  0  0  0  0  0  0  0  0  0
   -8.7558    5.2834  -18.5161 C   0  0  1  0  0  0  0  0  0  0  0  0
   -9.4512    4.8419  -17.2331 C   0  0  0  0  0  0  0  0  0  0  0  0
   -8.5551    4.0211  -16.3096 C   0  0  0  0  0  0  0  0  0  0  0  0
   -7.0680    4.0045  -16.6819 C   0  0  0  0  0  0  0  0  0  0  0  0
   -6.5883    5.1995  -17.3150 N   0  0  0  0  0  0  0  0  0  0  0  0
   -5.3520    5.7841  -17.3442 C   0  0  0  0  0  0  0  0  0  0  0  0
   -4.0966    5.2716  -16.7189 C   0  0  0  0  0  0  0  0  0  0  0  0
   -4.2601    4.9266  -15.2410 C   0  0  0  0  0  0  0  0  0  0  0  0
   -3.8887    3.9122  -14.7970 O   0  0  0  0  0  0  0  0  0  0  0  0
   -5.0433    6.0889  -14.5747 N   0  0  0  0  0  0  0  0  0  0  0  0
   -5.6080    6.1981  -13.2618 C   0  0  0  0  0  0  0  0  0  0  0  0
   -7.0844    5.7850  -13.3137 C   0  0  0  0  0  0  0  0  0  0  0  0
   -7.5779    5.3449  -11.9628 C   0  0  0  0  0  0  0  0  0  0  0  0
   -7.6237    3.9831  -11.6043 C   0  0  0  0  0  0  0  0  0  0  0  0
   -7.1560    2.7177  -12.6804 Cl  0  0  0  0  0  0  0  0  0  0  0  0
   -7.9868    3.6386  -10.3066 C   0  0  0  0  0  0  0  0  0  0  0  0
   -8.2656    4.5448   -9.3387 N   0  0  0  0  0  0  0  0  0  0  0  0
   -8.2244    5.8443   -9.7050 C   0  0  0  0  0  0  0  0  0  0  0  0
   -7.9090    6.2882  -10.9813 C   0  0  0  0  0  0  0  0  0  0  0  0
   -7.9114    7.9882  -11.2758 Cl  0  0  0  0  0  0  0  0  0  0  0  0
   -5.5661    6.9280  -18.0805 C   0  0  0  0  0  0  0  0  0  0  0  0
   -6.8535    6.9963  -18.5372 N   0  0  0  0  0  0  0  0  0  0  0  0
   -7.4070    5.8571  -18.1866 C   0  0  0  0  0  0  0  0  0  0  0  0
  2  1  1  6
  2  3  1  0
  3  4  1  0
  4  5  1  0
  5  6  1  0
  6  7  1  0
  7  8  1  0
  8  9  1  0
  9 10  2  0
  9 11  1  0
 11 12  1  0
 12 13  1  0
 13 14  1  0
 14 15  2  0
 15 16  1  0
 15 17  1  0
 17 18  2  0
 18 19  1  0
 19 20  2  0
 20 21  1  0
  7 22  2  0
 22 23  1  0
 23 24  2  0
 24  2  1  0
 24  6  1  0
 20 14  1  0
M  END
>  <fragmenstein_outcome>  (688) 
nan

>  <exports>  (688) 
['/opt/xchem-fragalysis-2/maxwin/openbind-hippo/xx01zvns2b/cycle_01/syndirella/elabs/openbind_xx01zvns2b_c1_elab_chemspace_filtered.sdf']

>  <Energy>  (688) 
nan

>  <alias>  (688) 
None

>  <fragmenstein_runtime>  (688) 
nan

>  <scratch_subdir>  (688) 
nan

>  <HIPPO Compound ID>  (688) 
148913

>  <rmsd(smina/fragmenstein)>  (688) 
0.42

>  <distance_score>  (688) 
1.727831

>  <orig_smiles>  (688) 
nan

>  <fragmenstein_mode>  (688) 
nan

>  <inchikey>  (688) 
FTASFXOJSCMREU-NSHDSACASA-N

>  <ref_pdb>  (688) 
Z0800a

>  <GNINA pK>  (688) 
nan

>  <gnina_score_min>  (688) 
5.808

>  <tags>  (688) 
openbind_xx01zvns2b_c1_elab_nonasap_filtered_scored_top80percent,openbind_xx01zvns2b_c1_elab_chemspace_filtered_scored_top80percent,openbind_xx01zvns2b_c1_elab_chemspace_filtered_scored,openbind_xx01zvns2b_c1_elab_chemspace_filtered_scored_top40percent,openbind_xx01zvns2b_c1_elab_chemspace_filtered_scored_top20percent,openbind_xx01zvns2b_c1_elab_chemspace_filtered_scored_top60percent,openbind_xx01zvns2b_c1_elabs_filtered

>  <smiles>  (688) 
C[C@H]1CCCn2c(CC(=O)NCCc3c(Cl)cncc3Cl)cnc21

>  <subsites>  (688) 
1 - Z4590/B/203/1

>  <gnina_score>  (688) 
5.774

>  <HIPPO Pose ID>  (688) 
74909

>  <ref_mols>  (688) 
Z1495a,Z0800a

>  <energy_score>  (688) 
-14.283064

>  <inspiration_score>  (688) 
None

>  <smina_score_min>  (688) 
-4.647

>  <fragmenstein_error>  (688) 
nan

>  <name>  (688) 
P74909

$$$$
P74910
     RDKit          3D

 24 26  0  0  0  0  0  0  0  0999 V2000
   -9.8052    4.9847  -19.1784 C   0  0  0  0  0  0  0  0  0  0  0  0
   -8.8507    4.0010  -18.5386 C   0  0  2  0  0  0  0  0  0  0  0  0
   -9.3618    3.7183  -17.1363 C   0  0  0  0  0  0  0  0  0  0  0  0
   -8.8978    4.7315  -16.1216 C   0  0  0  0  0  0  0  0  0  0  0  0
   -7.3901    4.8266  -16.1092 C   0  0  0  0  0  0  0  0  0  0  0  0
   -6.7693    4.8751  -17.3981 N   0  0  0  0  0  0  0  0  0  0  0  0
   -5.4700    5.2119  -17.7003 C   0  0  0  0  0  0  0  0  0  0  0  0
   -4.3468    5.5814  -16.7834 C   0  0  0  0  0  0  0  0  0  0  0  0
   -4.7762    6.3670  -15.5429 C   0  0  0  0  0  0  0  0  0  0  0  0
   -4.9925    7.5155  -15.5615 O   0  0  0  0  0  0  0  0  0  0  0  0
   -4.9160    5.3334  -14.3870 N   0  0  0  0  0  0  0  0  0  0  0  0
   -5.4389    5.4870  -13.0530 C   0  0  0  0  0  0  0  0  0  0  0  0
   -6.9730    5.5066  -13.0609 C   0  0  0  0  0  0  0  0  0  0  0  0
   -7.5373    5.3633  -11.6886 C   0  0  0  0  0  0  0  0  0  0  0  0
   -7.6449    6.4670  -10.8438 C   0  0  0  0  0  0  0  0  0  0  0  0
   -8.0665    6.2531   -9.5444 C   0  0  0  0  0  0  0  0  0  0  0  0
   -8.3854    5.0404   -9.0468 N   0  0  0  0  0  0  0  0  0  0  0  0
   -8.3169    3.9927   -9.9047 C   0  0  0  0  0  0  0  0  0  0  0  0
   -8.7538    2.4929   -9.2207 Cl  0  0  0  0  0  0  0  0  0  0  0  0
   -7.8978    4.1010  -11.2141 C   0  0  0  0  0  0  0  0  0  0  0  0
   -7.7857    3.0279  -12.0107 F   0  0  0  0  0  0  0  0  0  0  0  0
   -5.4331    5.0527  -19.0654 C   0  0  0  0  0  0  0  0  0  0  0  0
   -6.6164    4.5765  -19.5523 N   0  0  0  0  0  0  0  0  0  0  0  0
   -7.4279    4.4842  -18.5332 C   0  0  0  0  0  0  0  0  0  0  0  0
  2  1  1  1
  2  3  1  0
  3  4  1  0
  4  5  1  0
  5  6  1  0
  6  7  1  0
  7  8  1  0
  8  9  1  0
  9 10  2  0
  9 11  1  0
 11 12  1  0
 12 13  1  0
 13 14  1  0
 14 15  2  0
 15 16  1  0
 16 17  2  0
 17 18  1  0
 18 19  1  0
 18 20  2  0
 20 21  1  0
  7 22  2  0
 22 23  1  0
 23 24  2  0
 24  2  1  0
 24  6  1  0
 20 14  1  0
M  END
>  <fragmenstein_outcome>  (689) 
nan

>  <exports>  (689) 
['/opt/xchem-fragalysis-2/maxwin/openbind-hippo/xx01zvns2b/cycle_01/syndirella/elabs/openbind_xx01zvns2b_c1_elab_chemspace_filtered.sdf']

>  <Energy>  (689) 
nan

>  <alias>  (689) 
None

>  <fragmenstein_runtime>  (689) 
nan

>  <scratch_subdir>  (689) 
nan

>  <HIPPO Compound ID>  (689) 
148920

>  <rmsd(smina/fragmenstein)>  (689) 
0.861

>  <distance_score>  (689) 
1.754717

>  <orig_smiles>  (689) 
nan

>  <fragmenstein_mode>  (689) 
nan

>  <inchikey>  (689) 
GJDVNLLXIKPXNQ-LLVKDONJSA-N

>  <ref_pdb>  (689) 
Z0800a

>  <GNINA pK>  (689) 
nan

>  <gnina_score_min>  (689) 
5.699

>  <tags>  (689) 
openbind_xx01zvns2b_c1_elab_nonasap_filtered_scored_top80percent,openbind_xx01zvns2b_c1_elab_chemspace_filtered_scored_top80percent,openbind_xx01zvns2b_c1_elab_chemspace_filtered_scored,openbind_xx01zvns2b_c1_elab_chemspace_filtered_scored_top40percent,openbind_xx01zvns2b_c1_elab_chemspace_filtered_scored_top20percent,openbind_xx01zvns2b_c1_elab_chemspace_filtered_scored_top60percent,openbind_xx01zvns2b_c1_elabs_filtered

>  <smiles>  (689) 
C[C@@H]1CCCn2c(CC(=O)NCCc3ccnc(Cl)c3F)cnc21

>  <subsites>  (689) 
1 - Z4590/B/203/1

>  <gnina_score>  (689) 
5.865

>  <HIPPO Pose ID>  (689) 
74910

>  <ref_mols>  (689) 
Z1495a,Z0800a

>  <energy_score>  (689) 
-13.246327

>  <inspiration_score>  (689) 
None

>  <smina_score_min>  (689) 
-5.047

>  <fragmenstein_error>  (689) 
nan

>  <name>  (689) 
P74910

$$$$
P74912
     RDKit          3D

 24 26  0  0  0  0  0  0  0  0999 V2000
   -4.3317    1.7959  -12.5907 C   0  0  0  0  0  0  0  0  0  0  0  0
   -5.2529    2.8827  -12.6796 O   0  0  0  0  0  0  0  0  0  0  0  0
   -5.0955    3.6756  -13.7714 C   0  0  0  0  0  0  0  0  0  0  0  0
   -4.2368    3.5190  -14.6344 O   0  0  0  0  0  0  0  0  0  0  0  0
   -6.0618    4.8603  -13.7386 C   0  0  2  0  0  0  0  0  0  0  0  0
   -7.5292    4.4588  -13.5140 C   0  0  0  0  0  0  0  0  0  0  0  0
   -7.8877    4.6120  -12.0607 C   0  0  0  0  0  0  0  0  0  0  0  0
   -8.1155    3.4895  -11.2676 C   0  0  0  0  0  0  0  0  0  0  0  0
   -8.3122    3.6731   -9.9104 C   0  0  0  0  0  0  0  0  0  0  0  0
   -8.2900    4.8820   -9.3012 N   0  0  0  0  0  0  0  0  0  0  0  0
   -8.1159    5.9566  -10.0986 C   0  0  0  0  0  0  0  0  0  0  0  0
   -7.9222    5.8776  -11.4662 C   0  0  0  0  0  0  0  0  0  0  0  0
   -5.9529    5.6029  -14.9708 N   0  0  0  0  0  0  0  0  0  0  0  0
   -6.7131    6.8532  -15.4572 C   0  0  0  0  0  0  0  0  0  0  0  0
   -7.4919    7.5253  -14.9080 O   0  0  0  0  0  0  0  0  0  0  0  0
   -6.2576    7.2027  -16.8635 C   0  0  0  0  0  0  0  0  0  0  0  0
   -5.8979    6.0726  -17.7339 C   0  0  0  0  0  0  0  0  0  0  0  0
   -4.6662    5.7887  -18.2825 C   0  0  0  0  0  0  0  0  0  0  0  0
   -4.7431    4.7247  -19.1139 N   0  0  0  0  0  0  0  0  0  0  0  0
   -6.0158    4.3880  -19.1137 C   0  0  0  0  0  0  0  0  0  0  0  0
   -6.7358    5.0996  -18.2154 N   0  0  0  0  0  0  0  0  0  0  0  0
   -8.0623    4.6830  -17.6982 C   0  0  0  0  0  0  0  0  0  0  0  0
   -9.3810    5.1824  -18.2194 C   0  0  0  0  0  0  0  0  0  0  0  0
   -8.9942    3.7751  -18.4795 C   0  0  0  0  0  0  0  0  0  0  0  0
  1  2  1  0
  2  3  1  0
  3  4  2  0
  3  5  1  0
  5  6  1  6
  6  7  1  0
  7  8  2  0
  8  9  1  0
  9 10  2  0
 10 11  1  0
 11 12  2  0
  5 13  1  0
 13 14  1  0
 14 15  2  0
 14 16  1  0
 16 17  1  0
 17 18  2  0
 18 19  1  0
 19 20  2  0
 20 21  1  0
 21 22  1  0
 22 23  1  0
 23 24  1  0
 12  7  1  0
 21 17  1  0
 24 22  1  0
M  END
>  <fragmenstein_outcome>  (690) 
nan

>  <exports>  (690) 
['/opt/xchem-fragalysis-2/maxwin/openbind-hippo/xx01zvns2b/cycle_01/syndirella/elabs/openbind_xx01zvns2b_c1_elab_chemspace_filtered.sdf']

>  <Energy>  (690) 
nan

>  <alias>  (690) 
None

>  <fragmenstein_runtime>  (690) 
nan

>  <scratch_subdir>  (690) 
nan

>  <HIPPO Compound ID>  (690) 
148926

>  <rmsd(smina/fragmenstein)>  (690) 
2.115

>  <distance_score>  (690) 
1.756146

>  <orig_smiles>  (690) 
nan

>  <fragmenstein_mode>  (690) 
nan

>  <inchikey>  (690) 
JPAQPLWRRWWQKM-HNNXBMFYSA-N

>  <ref_pdb>  (690) 
Z0800a

>  <GNINA pK>  (690) 
nan

>  <gnina_score_min>  (690) 
5.169

>  <tags>  (690) 
openbind_xx01zvns2b_c1_elab_nonasap_filtered_scored_top80percent,openbind_xx01zvns2b_c1_elab_chemspace_filtered_scored_top80percent,openbind_xx01zvns2b_c1_elab_chemspace_filtered_scored,openbind_xx01zvns2b_c1_elab_chemspace_filtered_scored_top40percent,openbind_xx01zvns2b_c1_elab_chemspace_filtered_scored_top20percent,openbind_xx01zvns2b_c1_elab_chemspace_filtered_scored_top60percent,openbind_xx01zvns2b_c1_elabs_filtered

>  <smiles>  (690) 
COC(=O)[C@H](Cc1ccncc1)NC(=O)Cc1cncn1C1CC1

>  <subsites>  (690) 
1 - Z4590/B/203/1

>  <gnina_score>  (690) 
5.414

>  <HIPPO Pose ID>  (690) 
74912

>  <ref_mols>  (690) 
Z1495a,Z0800a

>  <energy_score>  (690) 
-6.256451

>  <inspiration_score>  (690) 
None

>  <smina_score_min>  (690) 
-6.376

>  <fragmenstein_error>  (690) 
nan

>  <name>  (690) 
P74912

$$$$
P74922
     RDKit          3D

 25 27  0  0  0  0  0  0  0  0999 V2000
   -4.5857    1.8547  -12.6543 C   0  0  0  0  0  0  0  0  0  0  0  0
   -5.3097    3.0844  -12.6961 O   0  0  0  0  0  0  0  0  0  0  0  0
   -5.0873    3.8490  -13.7969 C   0  0  0  0  0  0  0  0  0  0  0  0
   -4.3139    3.5540  -14.7041 O   0  0  0  0  0  0  0  0  0  0  0  0
   -5.8535    5.1869  -13.7229 C   0  0  2  0  0  0  0  0  0  0  0  0
   -5.1352    6.0609  -12.6843 C   0  0  0  0  0  0  0  0  0  0  0  0
   -7.3826    4.9730  -13.5096 C   0  0  0  0  0  0  0  0  0  0  0  0
   -7.8206    4.8774  -12.0735 C   0  0  0  0  0  0  0  0  0  0  0  0
   -8.0430    3.6392  -11.4717 C   0  0  0  0  0  0  0  0  0  0  0  0
   -8.2955    3.6029  -10.1106 C   0  0  0  0  0  0  0  0  0  0  0  0
   -8.3416    4.7038   -9.3248 N   0  0  0  0  0  0  0  0  0  0  0  0
   -8.1863    5.8928   -9.9413 C   0  0  0  0  0  0  0  0  0  0  0  0
   -7.9453    6.0321  -11.2958 C   0  0  0  0  0  0  0  0  0  0  0  0
   -5.6944    5.8402  -15.0186 N   0  0  0  0  0  0  0  0  0  0  0  0
   -6.2573    7.1811  -15.5428 C   0  0  0  0  0  0  0  0  0  0  0  0
   -6.8720    8.0088  -14.9955 O   0  0  0  0  0  0  0  0  0  0  0  0
   -5.8559    7.3629  -17.0011 C   0  0  0  0  0  0  0  0  0  0  0  0
   -5.7920    6.1236  -17.8015 C   0  0  0  0  0  0  0  0  0  0  0  0
   -4.6768    5.5591  -18.3802 C   0  0  0  0  0  0  0  0  0  0  0  0
   -5.0109    4.4661  -19.1007 N   0  0  0  0  0  0  0  0  0  0  0  0
   -6.3227    4.3846  -19.0212 C   0  0  0  0  0  0  0  0  0  0  0  0
   -6.8284    5.2901  -18.1507 N   0  0  0  0  0  0  0  0  0  0  0  0
   -8.2079    5.2645  -17.6071 C   0  0  0  0  0  0  0  0  0  0  0  0
   -9.0264    4.0011  -17.4760 C   0  0  0  0  0  0  0  0  0  0  0  0
   -9.4446    5.0506  -18.4519 C   0  0  0  0  0  0  0  0  0  0  0  0
  1  2  1  0
  2  3  1  0
  3  4  2  0
  3  5  1  0
  5  6  1  1
  5  7  1  0
  7  8  1  0
  8  9  2  0
  9 10  1  0
 10 11  2  0
 11 12  1  0
 12 13  2  0
  5 14  1  0
 14 15  1  0
 15 16  2  0
 15 17  1  0
 17 18  1  0
 18 19  2  0
 19 20  1  0
 20 21  2  0
 21 22  1  0
 22 23  1  0
 23 24  1  0
 24 25  1  0
 13  8  1  0
 22 18  1  0
 25 23  1  0
M  END
>  <fragmenstein_outcome>  (691) 
nan

>  <exports>  (691) 
['/opt/xchem-fragalysis-2/maxwin/openbind-hippo/xx01zvns2b/cycle_01/syndirella/elabs/openbind_xx01zvns2b_c1_elab_chemspace_filtered.sdf']

>  <Energy>  (691) 
nan

>  <alias>  (691) 
None

>  <fragmenstein_runtime>  (691) 
nan

>  <scratch_subdir>  (691) 
nan

>  <HIPPO Compound ID>  (691) 
148986

>  <rmsd(smina/fragmenstein)>  (691) 
2.016

>  <distance_score>  (691) 
1.398814

>  <orig_smiles>  (691) 
nan

>  <fragmenstein_mode>  (691) 
nan

>  <inchikey>  (691) 
OWIHPCZPSSVYPY-SFHVURJKSA-N

>  <ref_pdb>  (691) 
Z0800a

>  <GNINA pK>  (691) 
nan

>  <gnina_score_min>  (691) 
5.233

>  <tags>  (691) 
openbind_xx01zvns2b_c1_elab_nonasap_filtered_scored_top80percent,openbind_xx01zvns2b_c1_elab_chemspace_filtered_scored_top80percent,openbind_xx01zvns2b_c1_elab_chemspace_filtered_scored,openbind_xx01zvns2b_c1_elab_chemspace_filtered_scored_top40percent,openbind_xx01zvns2b_c1_elab_chemspace_filtered_scored_top20percent,openbind_xx01zvns2b_c1_elab_chemspace_filtered_scored_top60percent,openbind_xx01zvns2b_c1_elabs_filtered

>  <smiles>  (691) 
COC(=O)[C@](C)(Cc1ccncc1)NC(=O)Cc1cncn1C1CC1

>  <subsites>  (691) 
1 - Z4590/B/203/1

>  <gnina_score>  (691) 
5.399

>  <HIPPO Pose ID>  (691) 
74922

>  <ref_mols>  (691) 
Z1495a,Z0800a

>  <energy_score>  (691) 
-24.029351

>  <inspiration_score>  (691) 
None

>  <smina_score_min>  (691) 
-5.773

>  <fragmenstein_error>  (691) 
nan

>  <name>  (691) 
P74922

$$$$
P74931
     RDKit          3D

 25 27  0  0  0  0  0  0  0  0999 V2000
   -8.4310    2.0431   -8.5349 C   0  0  0  0  0  0  0  0  0  0  0  0
   -8.0902    3.3105   -9.2384 C   0  0  0  0  0  0  0  0  0  0  0  0
   -7.4278    4.3013   -8.6872 N   0  0  0  0  0  0  0  0  0  0  0  0
   -7.3362    5.2556   -9.6443 C   0  0  0  0  0  0  0  0  0  0  0  0
   -7.9730    4.8953  -10.8125 C   0  0  0  0  0  0  0  0  0  0  0  0
   -8.3681    3.6050  -10.5625 N   0  0  0  0  0  0  0  0  0  0  0  0
   -8.8329    2.6456  -11.5187 C   0  0  0  0  0  0  0  0  0  0  0  0
   -8.1929    5.8859  -11.9244 C   0  0  2  0  0  0  0  0  0  0  0  0
   -8.5735    5.4087  -13.3253 C   0  0  0  0  0  0  0  0  0  0  0  0
   -9.5936    5.7145  -13.8021 O   0  0  0  0  0  0  0  0  0  0  0  0
   -7.4237    4.5580  -13.8912 N   0  0  0  0  0  0  0  0  0  0  0  0
   -7.3231    3.8234  -15.1267 C   0  0  0  0  0  0  0  0  0  0  0  0
   -7.8087    4.6321  -16.3841 C   0  0  2  0  0  0  0  0  0  0  0  0
   -9.0195    3.8879  -16.9927 C   0  0  0  0  0  0  0  0  0  0  0  0
   -9.8639    4.5961  -18.0400 C   0  0  0  0  0  0  0  0  0  0  0  0
  -11.1536    4.0005  -18.0635 O   0  0  0  0  0  0  0  0  0  0  0  0
   -6.7183    5.0405  -17.3613 C   0  0  0  0  0  0  0  0  0  0  0  0
   -5.3596    4.7754  -17.1544 C   0  0  0  0  0  0  0  0  0  0  0  0
   -4.4035    5.3021  -18.0039 C   0  0  0  0  0  0  0  0  0  0  0  0
   -4.6958    6.0839  -19.0460 N   0  0  0  0  0  0  0  0  0  0  0  0
   -6.0065    6.3127  -19.2607 C   0  0  0  0  0  0  0  0  0  0  0  0
   -7.0297    5.8391  -18.4598 C   0  0  0  0  0  0  0  0  0  0  0  0
   -7.0307    6.8928  -11.9351 C   0  0  0  0  0  0  0  0  0  0  0  0
   -6.9084    7.5470  -10.5447 C   0  0  0  0  0  0  0  0  0  0  0  0
   -6.6278    6.5325   -9.4249 C   0  0  0  0  0  0  0  0  0  0  0  0
  1  2  1  0
  2  3  2  0
  3  4  1  0
  4  5  2  0
  5  6  1  0
  6  7  1  0
  5  8  1  0
  8  9  1  6
  9 10  2  0
  9 11  1  0
 11 12  1  0
 13 12  1  1
 13 14  1  0
 14 15  1  0
 15 16  1  0
 13 17  1  0
 17 18  2  0
 18 19  1  0
 19 20  2  0
 20 21  1  0
 21 22  2  0
  8 23  1  0
 23 24  1  0
 24 25  1  0
  6  2  1  0
 22 17  1  0
 25  4  1  0
M  END
>  <fragmenstein_outcome>  (692) 
nan

>  <exports>  (692) 
['/opt/xchem-fragalysis-2/maxwin/openbind-hippo/xx01zvns2b/cycle_01/syndirella/elabs/openbind_xx01zvns2b_c1_elab_chemspace_filtered.sdf']

>  <Energy>  (692) 
nan

>  <alias>  (692) 
None

>  <fragmenstein_runtime>  (692) 
nan

>  <scratch_subdir>  (692) 
nan

>  <HIPPO Compound ID>  (692) 
148999

>  <rmsd(smina/fragmenstein)>  (692) 
0.852

>  <distance_score>  (692) 
1.792955

>  <orig_smiles>  (692) 
nan

>  <fragmenstein_mode>  (692) 
nan

>  <inchikey>  (692) 
RUCMHPZYVSSGCG-JKSUJKDBSA-N

>  <ref_pdb>  (692) 
Z0800a

>  <GNINA pK>  (692) 
nan

>  <gnina_score_min>  (692) 
5.402

>  <tags>  (692) 
openbind_xx01zvns2b_c1_elab_nonasap_filtered_scored_top80percent,openbind_xx01zvns2b_c1_elab_chemspace_filtered_scored_top80percent,openbind_xx01zvns2b_c1_elab_chemspace_filtered_scored,openbind_xx01zvns2b_c1_elab_chemspace_filtered_scored_top40percent,openbind_xx01zvns2b_c1_elab_chemspace_filtered_scored_top20percent,openbind_xx01zvns2b_c1_elab_chemspace_filtered_scored_top60percent,openbind_xx01zvns2b_c1_elabs_filtered

>  <smiles>  (692) 
Cc1nc2c(n1C)[C@H](C(=O)NC[C@H](CCO)c1ccncc1)CCC2

>  <subsites>  (692) 
1 - Z4590/B/203/1

>  <gnina_score>  (692) 
5.785

>  <HIPPO Pose ID>  (692) 
74931

>  <ref_mols>  (692) 
Z1495a,Z0800a

>  <energy_score>  (692) 
-4.200303

>  <inspiration_score>  (692) 
None

>  <smina_score_min>  (692) 
-6.306

>  <fragmenstein_error>  (692) 
nan

>  <name>  (692) 
P74931

$$$$
P74936
     RDKit          3D

 25 27  0  0  0  0  0  0  0  0999 V2000
   -9.2403    6.6923  -14.1957 C   0  0  0  0  0  0  0  0  0  0  0  0
   -8.4603    5.4019  -14.4215 C   0  0  0  0  0  0  0  0  0  0  0  0
   -7.1848    5.2588  -13.5484 C   0  0  2  0  0  0  0  0  0  0  0  0
   -6.3085    6.5082  -13.7581 C   0  0  0  0  0  0  0  0  0  0  0  0
   -6.3097    4.0334  -13.9991 C   0  0  0  0  0  0  0  0  0  0  0  0
   -5.7643    4.1912  -15.3243 N   0  0  0  0  0  0  0  0  0  0  0  0
   -4.4191    4.8144  -15.7950 C   0  0  0  0  0  0  0  0  0  0  0  0
   -3.5159    5.2238  -15.1752 O   0  0  0  0  0  0  0  0  0  0  0  0
   -4.4601    4.8973  -17.3323 C   0  0  0  0  0  0  0  0  0  0  0  0
   -5.6661    5.6393  -17.7978 C   0  0  0  0  0  0  0  0  0  0  0  0
   -5.9257    6.9938  -17.8090 C   0  0  0  0  0  0  0  0  0  0  0  0
   -5.0407    8.1194  -17.4342 C   0  0  0  0  0  0  0  0  0  0  0  0
   -7.2243    7.2259  -18.1944 N   0  0  0  0  0  0  0  0  0  0  0  0
   -7.7629    6.0531  -18.4445 C   0  0  0  0  0  0  0  0  0  0  0  0
   -6.8259    5.0980  -18.2723 N   0  0  0  0  0  0  0  0  0  0  0  0
   -7.2864    3.7544  -18.4173 C   0  0  0  0  0  0  0  0  0  0  0  0
   -8.5955    3.4759  -17.6358 C   0  0  0  0  0  0  0  0  0  0  0  0
   -9.6303    4.5644  -17.7554 C   0  0  0  0  0  0  0  0  0  0  0  0
   -9.1631    5.5750  -18.7625 C   0  0  0  0  0  0  0  0  0  0  0  0
   -7.5962    5.0566  -12.0804 C   0  0  0  0  0  0  0  0  0  0  0  0
   -8.1043    3.8245  -11.6384 C   0  0  0  0  0  0  0  0  0  0  0  0
   -8.4060    3.6510  -10.2943 C   0  0  0  0  0  0  0  0  0  0  0  0
   -8.2682    4.6188   -9.3636 N   0  0  0  0  0  0  0  0  0  0  0  0
   -7.8292    5.8106   -9.8050 C   0  0  0  0  0  0  0  0  0  0  0  0
   -7.4860    6.0728  -11.1223 C   0  0  0  0  0  0  0  0  0  0  0  0
  1  2  1  0
  3  2  1  0
  3  4  1  1
  3  5  1  0
  5  6  1  0
  6  7  1  0
  7  8  2  0
  7  9  1  0
  9 10  1  0
 10 11  2  0
 11 12  1  0
 11 13  1  0
 13 14  2  0
 14 15  1  0
 15 16  1  0
 16 17  1  0
 17 18  1  0
 18 19  1  0
  3 20  1  0
 20 21  2  0
 21 22  1  0
 22 23  2  0
 23 24  1  0
 24 25  2  0
 15 10  1  0
 25 20  1  0
 19 14  1  0
M  END
>  <fragmenstein_outcome>  (693) 
nan

>  <exports>  (693) 
['/opt/xchem-fragalysis-2/maxwin/openbind-hippo/xx01zvns2b/cycle_01/syndirella/elabs/openbind_xx01zvns2b_c1_elab_chemspace_filtered.sdf']

>  <Energy>  (693) 
nan

>  <alias>  (693) 
None

>  <fragmenstein_runtime>  (693) 
nan

>  <scratch_subdir>  (693) 
nan

>  <HIPPO Compound ID>  (693) 
149011

>  <rmsd(smina/fragmenstein)>  (693) 
1.993

>  <distance_score>  (693) 
1.673328

>  <orig_smiles>  (693) 
nan

>  <fragmenstein_mode>  (693) 
nan

>  <inchikey>  (693) 
HCXOVPJKKWEMSZ-HXUWFJFHSA-N

>  <ref_pdb>  (693) 
Z0800a

>  <GNINA pK>  (693) 
nan

>  <gnina_score_min>  (693) 
5.244

>  <tags>  (693) 
openbind_xx01zvns2b_c1_elab_nonasap_filtered_scored_top80percent,openbind_xx01zvns2b_c1_elab_chemspace_filtered_scored_top80percent,openbind_xx01zvns2b_c1_elab_chemspace_filtered_scored,openbind_xx01zvns2b_c1_elab_chemspace_filtered_scored_top40percent,openbind_xx01zvns2b_c1_elab_chemspace_filtered_scored_top20percent,openbind_xx01zvns2b_c1_elab_chemspace_filtered_scored_top60percent,openbind_xx01zvns2b_c1_elabs_filtered

>  <smiles>  (693) 
CC[C@](C)(CNC(=O)Cc1c(C)nc2n1CCCC2)c1ccncc1

>  <subsites>  (693) 
1 - Z4590/B/203/1

>  <gnina_score>  (693) 
5.402

>  <HIPPO Pose ID>  (693) 
74936

>  <ref_mols>  (693) 
Z1495a,Z0800a

>  <energy_score>  (693) 
-27.448088

>  <inspiration_score>  (693) 
None

>  <smina_score_min>  (693) 
-4.593

>  <fragmenstein_error>  (693) 
nan

>  <name>  (693) 
P74936

$$$$
P74939
     RDKit          3D

 25 28  0  0  0  0  0  0  0  0999 V2000
   -9.1651    5.8477  -13.6901 O   0  0  0  0  0  0  0  0  0  0  0  0
   -8.1282    5.3852  -13.4072 C   0  0  0  0  0  0  0  0  0  0  0  0
   -7.1714    4.4722  -14.2314 N   0  0  0  0  0  0  0  0  0  0  0  0
   -7.3415    3.8681  -15.5302 C   0  0  0  0  0  0  0  0  0  0  0  0
   -7.8611    4.6661  -16.7775 C   0  0  0  0  0  0  0  0  0  0  0  0
   -6.8269    5.7437  -17.0995 C   0  0  0  0  0  0  0  0  0  0  0  0
   -5.9029    5.6400  -18.1520 C   0  0  0  0  0  0  0  0  0  0  0  0
   -4.8826    6.5656  -18.2577 C   0  0  0  0  0  0  0  0  0  0  0  0
   -4.7039    7.5838  -17.3971 N   0  0  0  0  0  0  0  0  0  0  0  0
   -5.6044    7.6946  -16.4049 C   0  0  0  0  0  0  0  0  0  0  0  0
   -6.6664    6.8231  -16.2286 C   0  0  0  0  0  0  0  0  0  0  0  0
   -9.3082    5.1103  -16.5186 C   0  0  0  0  0  0  0  0  0  0  0  0
  -10.2795    5.0041  -17.7085 C   0  0  0  0  0  0  0  0  0  0  0  0
   -9.5906    5.1704  -19.0290 C   0  0  0  0  0  0  0  0  0  0  0  0
   -8.5893    4.0778  -19.2244 C   0  0  0  0  0  0  0  0  0  0  0  0
   -7.9771    3.6470  -17.9133 C   0  0  0  0  0  0  0  0  0  0  0  0
   -7.4649    5.5311  -12.0271 C   0  0  1  0  0  0  0  0  0  0  0  0
   -7.7846    6.8880  -11.3909 C   0  0  0  0  0  0  0  0  0  0  0  0
   -7.2154    6.9349   -9.9714 C   0  0  0  0  0  0  0  0  0  0  0  0
   -7.7832    5.8303   -9.0785 C   0  0  0  0  0  0  0  0  0  0  0  0
   -8.0210    4.5924   -9.7777 N   0  0  0  0  0  0  0  0  0  0  0  0
   -8.4633    3.4314   -9.2273 C   0  0  0  0  0  0  0  0  0  0  0  0
   -8.6941    2.5398  -10.1575 N   0  0  0  0  0  0  0  0  0  0  0  0
   -8.3375    3.1284  -11.3402 C   0  0  0  0  0  0  0  0  0  0  0  0
   -7.9250    4.4254  -11.1355 C   0  0  0  0  0  0  0  0  0  0  0  0
  1  2  2  0
  2  3  1  0
  3  4  1  0
  4  5  1  0
  5  6  1  0
  6  7  2  0
  7  8  1  0
  8  9  2  0
  9 10  1  0
 10 11  2  0
  5 12  1  0
 12 13  1  0
 13 14  1  0
 14 15  1  0
 15 16  1  0
 17  2  1  6
 17 18  1  0
 18 19  1  0
 19 20  1  0
 20 21  1  0
 21 22  1  0
 22 23  2  0
 23 24  1  0
 24 25  2  0
 16  5  1  0
 25 17  1  0
 11  6  1  0
 25 21  1  0
M  END
>  <fragmenstein_outcome>  (694) 
nan

>  <exports>  (694) 
['/opt/xchem-fragalysis-2/maxwin/openbind-hippo/xx01zvns2b/cycle_01/syndirella/elabs/openbind_xx01zvns2b_c1_elab_chemspace_filtered.sdf']

>  <Energy>  (694) 
nan

>  <alias>  (694) 
None

>  <fragmenstein_runtime>  (694) 
nan

>  <scratch_subdir>  (694) 
nan

>  <HIPPO Compound ID>  (694) 
149021

>  <rmsd(smina/fragmenstein)>  (694) 
2.534

>  <distance_score>  (694) 
1.431846

>  <orig_smiles>  (694) 
nan

>  <fragmenstein_mode>  (694) 
nan

>  <inchikey>  (694) 
IBQFEVLFPDPLLS-KRWDZBQOSA-N

>  <ref_pdb>  (694) 
Z0800a

>  <GNINA pK>  (694) 
nan

>  <gnina_score_min>  (694) 
5.155

>  <tags>  (694) 
openbind_xx01zvns2b_c1_elab_nonasap_filtered_scored_top80percent,openbind_xx01zvns2b_c1_elab_chemspace_filtered_scored_top80percent,openbind_xx01zvns2b_c1_elab_chemspace_filtered_scored,openbind_xx01zvns2b_c1_elab_chemspace_filtered_scored_top40percent,openbind_xx01zvns2b_c1_elab_chemspace_filtered_scored_top20percent,openbind_xx01zvns2b_c1_elab_chemspace_filtered_scored_top60percent,openbind_xx01zvns2b_c1_elabs_filtered

>  <smiles>  (694) 
O=C(NCC1(c2ccncc2)CCCCC1)[C@H]1CCCn2cncc21

>  <subsites>  (694) 
1 - Z4590/B/203/1

>  <gnina_score>  (694) 
5.606

>  <HIPPO Pose ID>  (694) 
74939

>  <ref_mols>  (694) 
Z0800a,Z1495a

>  <energy_score>  (694) 
-17.108293

>  <inspiration_score>  (694) 
None

>  <smina_score_min>  (694) 
-5.497

>  <fragmenstein_error>  (694) 
nan

>  <name>  (694) 
P74939

$$$$
P74946
     RDKit          3D

 25 27  0  0  0  0  0  0  0  0999 V2000
   -8.5549    2.4888  -11.6938 C   0  0  0  0  0  0  0  0  0  0  0  0
   -8.3181    3.4091  -10.6311 N   0  0  0  0  0  0  0  0  0  0  0  0
   -8.4879    3.0979   -9.3077 C   0  0  0  0  0  0  0  0  0  0  0  0
   -8.3032    4.1506   -8.5474 N   0  0  0  0  0  0  0  0  0  0  0  0
   -7.9995    5.1324   -9.4218 C   0  0  0  0  0  0  0  0  0  0  0  0
   -7.9637    4.7250  -10.7275 C   0  0  0  0  0  0  0  0  0  0  0  0
   -7.5066    5.6139  -11.8435 C   0  0  1  0  0  0  0  0  0  0  0  0
   -8.2109    5.3798  -13.1928 C   0  0  0  0  0  0  0  0  0  0  0  0
   -9.2559    5.8275  -13.4576 O   0  0  0  0  0  0  0  0  0  0  0  0
   -7.2737    4.4605  -14.0182 N   0  0  0  0  0  0  0  0  0  0  0  0
   -7.4730    3.8277  -15.2986 C   0  0  0  0  0  0  0  0  0  0  0  0
   -7.9566    4.7526  -16.4445 C   0  0  2  0  0  0  0  0  0  0  0  0
   -8.9863    4.0020  -17.3008 C   0  0  0  0  0  0  0  0  0  0  0  0
   -9.5276    4.7667  -18.4980 C   0  0  0  0  0  0  0  0  0  0  0  0
  -10.9324    4.6018  -18.5439 O   0  0  0  0  0  0  0  0  0  0  0  0
   -6.7355    5.3040  -17.1453 C   0  0  0  0  0  0  0  0  0  0  0  0
   -6.2561    4.8453  -18.3690 C   0  0  0  0  0  0  0  0  0  0  0  0
   -5.0618    5.3593  -18.8409 C   0  0  0  0  0  0  0  0  0  0  0  0
   -4.3158    6.2745  -18.1860 N   0  0  0  0  0  0  0  0  0  0  0  0
   -4.8047    6.7271  -17.0195 C   0  0  0  0  0  0  0  0  0  0  0  0
   -5.9922    6.2806  -16.4709 C   0  0  0  0  0  0  0  0  0  0  0  0
   -7.7533    7.0729  -11.4264 C   0  0  0  0  0  0  0  0  0  0  0  0
   -7.3990    7.3626   -9.9758 C   0  0  0  0  0  0  0  0  0  0  0  0
   -6.9396    8.4541   -9.6390 O   0  0  0  0  0  0  0  0  0  0  0  0
   -7.6824    6.3970   -9.0519 N   0  0  0  0  0  0  0  0  0  0  0  0
  1  2  1  0
  2  3  1  0
  3  4  2  0
  4  5  1  0
  5  6  2  0
  6  7  1  0
  7  8  1  6
  8  9  2  0
  8 10  1  0
 10 11  1  0
 12 11  1  1
 12 13  1  0
 13 14  1  0
 14 15  1  0
 12 16  1  0
 16 17  2  0
 17 18  1  0
 18 19  2  0
 19 20  1  0
 20 21  2  0
  7 22  1  0
 22 23  1  0
 23 24  2  0
 23 25  1  0
  6  2  1  0
 21 16  1  0
 25  5  1  0
M  END
>  <fragmenstein_outcome>  (695) 
nan

>  <exports>  (695) 
['/opt/xchem-fragalysis-2/maxwin/openbind-hippo/xx01zvns2b/cycle_01/syndirella/elabs/openbind_xx01zvns2b_c1_elab_chemspace_filtered.sdf']

>  <Energy>  (695) 
nan

>  <alias>  (695) 
None

>  <fragmenstein_runtime>  (695) 
nan

>  <scratch_subdir>  (695) 
nan

>  <HIPPO Compound ID>  (695) 
149026

>  <rmsd(smina/fragmenstein)>  (695) 
1.064

>  <distance_score>  (695) 
1.724018

>  <orig_smiles>  (695) 
nan

>  <fragmenstein_mode>  (695) 
nan

>  <inchikey>  (695) 
NNORNOBRCBQTCA-STQMWFEESA-N

>  <ref_pdb>  (695) 
Z0800a

>  <GNINA pK>  (695) 
nan

>  <gnina_score_min>  (695) 
5.211

>  <tags>  (695) 
openbind_xx01zvns2b_c1_elab_nonasap_filtered_scored_top80percent,openbind_xx01zvns2b_c1_elab_chemspace_filtered_scored_top80percent,openbind_xx01zvns2b_c1_elab_chemspace_filtered_scored,openbind_xx01zvns2b_c1_elab_chemspace_filtered_scored_top40percent,openbind_xx01zvns2b_c1_elab_chemspace_filtered_scored_top20percent,openbind_xx01zvns2b_c1_elab_chemspace_filtered_scored_top60percent,openbind_xx01zvns2b_c1_elabs_filtered

>  <smiles>  (695) 
Cn1cnc2c1[C@@H](C(=O)NC[C@H](CCO)c1ccncc1)CC(=O)N2

>  <subsites>  (695) 
1 - Z4590/B/203/1

>  <gnina_score>  (695) 
5.418

>  <HIPPO Pose ID>  (695) 
74946

>  <ref_mols>  (695) 
Z1495a,Z0800a

>  <energy_score>  (695) 
-15.94804

>  <inspiration_score>  (695) 
None

>  <smina_score_min>  (695) 
-6.711

>  <fragmenstein_error>  (695) 
nan

>  <name>  (695) 
P74946

$$$$
P74948
     RDKit          3D

 25 27  0  0  0  0  0  0  0  0999 V2000
  -10.2151    5.2611  -19.0874 C   0  0  0  0  0  0  0  0  0  0  0  0
   -8.9118    4.8313  -18.4960 C   0  0  2  0  0  0  0  0  0  0  0  0
   -9.2723    4.4863  -17.0553 C   0  0  0  0  0  0  0  0  0  0  0  0
   -8.1826    3.5880  -16.5785 C   0  0  0  0  0  0  0  0  0  0  0  0
   -6.7554    4.0208  -16.9456 C   0  0  0  0  0  0  0  0  0  0  0  0
   -6.6635    5.3009  -17.5822 N   0  0  0  0  0  0  0  0  0  0  0  0
   -5.6581    6.2240  -17.5622 C   0  0  0  0  0  0  0  0  0  0  0  0
   -4.4037    6.1859  -16.7577 C   0  0  0  0  0  0  0  0  0  0  0  0
   -4.6618    6.9573  -15.4509 C   0  0  0  0  0  0  0  0  0  0  0  0
   -4.6377    8.1227  -15.3827 O   0  0  0  0  0  0  0  0  0  0  0  0
   -5.0346    5.8956  -14.3831 N   0  0  0  0  0  0  0  0  0  0  0  0
   -5.5446    6.0537  -13.0453 C   0  0  0  0  0  0  0  0  0  0  0  0
   -7.1068    6.1668  -13.0072 C   0  0  0  0  0  0  0  0  0  0  0  0
   -7.5121    7.6382  -13.2521 C   0  0  0  0  0  0  0  0  0  0  0  0
   -7.7593    5.3840  -14.1403 C   0  0  0  0  0  0  0  0  0  0  0  0
   -7.5813    5.6021  -11.6588 C   0  0  0  0  0  0  0  0  0  0  0  0
   -7.7632    4.1531  -11.5183 C   0  0  0  0  0  0  0  0  0  0  0  0
   -8.1248    3.6138  -10.3500 C   0  0  0  0  0  0  0  0  0  0  0  0
   -8.3121    4.4104   -9.2568 N   0  0  0  0  0  0  0  0  0  0  0  0
   -8.1663    5.7719   -9.2711 C   0  0  0  0  0  0  0  0  0  0  0  0
   -8.3109    6.4621   -8.2679 O   0  0  0  0  0  0  0  0  0  0  0  0
   -7.7995    6.3753  -10.5775 C   0  0  0  0  0  0  0  0  0  0  0  0
   -6.1327    7.2061  -18.3964 C   0  0  0  0  0  0  0  0  0  0  0  0
   -7.3782    6.8994  -18.8751 N   0  0  0  0  0  0  0  0  0  0  0  0
   -7.6882    5.7194  -18.3988 C   0  0  0  0  0  0  0  0  0  0  0  0
  2  1  1  1
  2  3  1  0
  3  4  1  0
  4  5  1  0
  5  6  1  0
  6  7  1  0
  7  8  1  0
  8  9  1  0
  9 10  2  0
  9 11  1  0
 11 12  1  0
 12 13  1  0
 13 14  1  0
 13 15  1  0
 13 16  1  0
 16 17  1  0
 17 18  2  0
 18 19  1  0
 19 20  1  0
 20 21  2  0
 20 22  1  0
  7 23  2  0
 23 24  1  0
 24 25  2  0
 25  2  1  0
 25  6  1  0
 22 16  2  0
M  END
>  <fragmenstein_outcome>  (696) 
nan

>  <exports>  (696) 
['/opt/xchem-fragalysis-2/maxwin/openbind-hippo/xx01zvns2b/cycle_01/syndirella/elabs/openbind_xx01zvns2b_c1_elab_chemspace_filtered.sdf']

>  <Energy>  (696) 
nan

>  <alias>  (696) 
None

>  <fragmenstein_runtime>  (696) 
nan

>  <scratch_subdir>  (696) 
nan

>  <HIPPO Compound ID>  (696) 
149041

>  <rmsd(smina/fragmenstein)>  (696) 
1.809

>  <distance_score>  (696) 
1.732839

>  <orig_smiles>  (696) 
nan

>  <fragmenstein_mode>  (696) 
nan

>  <inchikey>  (696) 
OXNAKRGOUDXBIJ-CYBMUJFWSA-N

>  <ref_pdb>  (696) 
Z0800a

>  <GNINA pK>  (696) 
nan

>  <gnina_score_min>  (696) 
5.23

>  <tags>  (696) 
openbind_xx01zvns2b_c1_elab_nonasap_filtered_scored_top80percent,openbind_xx01zvns2b_c1_elab_chemspace_filtered_scored_top80percent,openbind_xx01zvns2b_c1_elab_chemspace_filtered_scored,openbind_xx01zvns2b_c1_elab_chemspace_filtered_scored_top40percent,openbind_xx01zvns2b_c1_elab_chemspace_filtered_scored_top20percent,openbind_xx01zvns2b_c1_elab_chemspace_filtered_scored_top60percent,openbind_xx01zvns2b_c1_elabs_filtered

>  <smiles>  (696) 
C[C@@H]1CCCn2c(CC(=O)NCC(C)(C)c3cc[nH]c(=O)c3)cnc21

>  <subsites>  (696) 
1 - Z4590/B/203/1

>  <gnina_score>  (696) 
5.587

>  <HIPPO Pose ID>  (696) 
74948

>  <ref_mols>  (696) 
Z0800a,Z1495a

>  <energy_score>  (696) 
-4.292698

>  <inspiration_score>  (696) 
None

>  <smina_score_min>  (696) 
-4.937

>  <fragmenstein_error>  (696) 
nan

>  <name>  (696) 
P74948

$$$$
P74954
     RDKit          3D

 25 27  0  0  0  0  0  0  0  0999 V2000
   -4.8677    1.2320  -10.8987 C   0  0  0  0  0  0  0  0  0  0  0  0
   -4.6947    2.0481  -12.1659 C   0  0  0  0  0  0  0  0  0  0  0  0
   -5.9931    2.4503  -12.6171 O   0  0  0  0  0  0  0  0  0  0  0  0
   -6.0133    3.4336  -13.5624 C   0  0  0  0  0  0  0  0  0  0  0  0
   -5.0197    3.9245  -14.0821 O   0  0  0  0  0  0  0  0  0  0  0  0
   -7.4650    3.8081  -13.8775 C   0  0  1  0  0  0  0  0  0  0  0  0
   -7.8785    5.0778  -13.1398 C   0  0  0  0  0  0  0  0  0  0  0  0
   -7.9521    4.9954  -11.6453 C   0  0  0  0  0  0  0  0  0  0  0  0
   -8.2746    3.8214  -10.9635 C   0  0  0  0  0  0  0  0  0  0  0  0
   -8.3381    3.8558   -9.5825 C   0  0  0  0  0  0  0  0  0  0  0  0
   -8.1329    4.9720   -8.8493 N   0  0  0  0  0  0  0  0  0  0  0  0
   -7.8497    6.0999   -9.5297 C   0  0  0  0  0  0  0  0  0  0  0  0
   -7.7528    6.1640  -10.9063 C   0  0  0  0  0  0  0  0  0  0  0  0
   -7.6444    3.9986  -15.2979 N   0  0  0  0  0  0  0  0  0  0  0  0
   -7.8835    5.2757  -16.1083 C   0  0  0  0  0  0  0  0  0  0  0  0
   -8.0515    6.3723  -15.7569 O   0  0  0  0  0  0  0  0  0  0  0  0
   -7.8158    4.9735  -17.5690 C   0  0  0  0  0  0  0  0  0  0  0  0
   -6.3573    5.1566  -18.1015 C   0  0  0  0  0  0  0  0  0  0  0  0
   -5.2529    4.5433  -17.5458 C   0  0  0  0  0  0  0  0  0  0  0  0
   -4.1017    4.8855  -18.1919 N   0  0  0  0  0  0  0  0  0  0  0  0
   -4.4888    5.7513  -19.0932 C   0  0  0  0  0  0  0  0  0  0  0  0
   -5.8226    6.0204  -19.0035 N   0  0  0  0  0  0  0  0  0  0  0  0
   -6.3980    7.1970  -19.5779 C   0  0  0  0  0  0  0  0  0  0  0  0
   -9.0815    5.1977  -18.3642 C   0  0  0  0  0  0  0  0  0  0  0  0
   -8.5934    3.8133  -18.1728 C   0  0  0  0  0  0  0  0  0  0  0  0
  1  2  1  0
  2  3  1  0
  3  4  1  0
  4  5  2  0
  4  6  1  0
  6  7  1  1
  7  8  1  0
  8  9  2  0
  9 10  1  0
 10 11  2  0
 11 12  1  0
 12 13  2  0
  6 14  1  0
 14 15  1  0
 15 16  2  0
 15 17  1  0
 17 18  1  0
 18 19  2  0
 19 20  1  0
 20 21  2  0
 21 22  1  0
 22 23  1  0
 17 24  1  0
 24 25  1  0
 13  8  1  0
 25 17  1  0
 22 18  1  0
M  END
>  <fragmenstein_outcome>  (697) 
nan

>  <exports>  (697) 
['/opt/xchem-fragalysis-2/maxwin/openbind-hippo/xx01zvns2b/cycle_01/syndirella/elabs/openbind_xx01zvns2b_c1_elab_chemspace_filtered.sdf']

>  <Energy>  (697) 
nan

>  <alias>  (697) 
None

>  <fragmenstein_runtime>  (697) 
nan

>  <scratch_subdir>  (697) 
nan

>  <HIPPO Compound ID>  (697) 
149043

>  <rmsd(smina/fragmenstein)>  (697) 
0.952

>  <distance_score>  (697) 
1.845334

>  <orig_smiles>  (697) 
nan

>  <fragmenstein_mode>  (697) 
nan

>  <inchikey>  (697) 
XTBFNQMMXQXRTA-CQSZACIVSA-N

>  <ref_pdb>  (697) 
Z0800a

>  <GNINA pK>  (697) 
nan

>  <gnina_score_min>  (697) 
5.474

>  <tags>  (697) 
openbind_xx01zvns2b_c1_elab_nonasap_filtered_scored_top80percent,openbind_xx01zvns2b_c1_elab_chemspace_filtered_scored_top80percent,openbind_xx01zvns2b_c1_elab_chemspace_filtered_scored,openbind_xx01zvns2b_c1_elab_chemspace_filtered_scored_top40percent,openbind_xx01zvns2b_c1_elab_chemspace_filtered_scored_top20percent,openbind_xx01zvns2b_c1_elab_chemspace_filtered_scored_top60percent,openbind_xx01zvns2b_c1_elabs_filtered

>  <smiles>  (697) 
CCOC(=O)[C@@H](Cc1ccncc1)NC(=O)C1(c2cncn2C)CC1

>  <subsites>  (697) 
1 - Z4590/B/203/1

>  <gnina_score>  (697) 
5.716

>  <HIPPO Pose ID>  (697) 
74954

>  <ref_mols>  (697) 
Z1495a,Z0800a

>  <energy_score>  (697) 
-15.778377

>  <inspiration_score>  (697) 
None

>  <smina_score_min>  (697) 
-5.449

>  <fragmenstein_error>  (697) 
nan

>  <name>  (697) 
P74954

$$$$
P74955
     RDKit          3D

 25 27  0  0  0  0  0  0  0  0999 V2000
   -7.4238    8.6501  -13.4612 C   0  0  0  0  0  0  0  0  0  0  0  0
   -8.0649    7.2957  -13.7672 C   0  0  0  0  0  0  0  0  0  0  0  0
   -7.2903    6.0057  -13.3362 C   0  0  1  0  0  0  0  0  0  0  0  0
   -7.6345    4.9327  -14.3992 C   0  0  0  0  0  0  0  0  0  0  0  0
   -5.7449    6.2485  -13.2640 C   0  0  0  0  0  0  0  0  0  0  0  0
   -5.1128    6.4379  -14.5425 N   0  0  0  0  0  0  0  0  0  0  0  0
   -3.6076    6.6090  -14.9119 C   0  0  0  0  0  0  0  0  0  0  0  0
   -2.6646    6.6991  -14.2255 O   0  0  0  0  0  0  0  0  0  0  0  0
   -3.4965    6.5342  -16.4618 C   0  0  0  0  0  0  0  0  0  0  0  0
   -4.3570    5.4218  -16.9781 C   0  0  0  0  0  0  0  0  0  0  0  0
   -4.7650    4.2759  -16.3284 C   0  0  0  0  0  0  0  0  0  0  0  0
   -5.9857    3.8920  -16.7973 N   0  0  0  0  0  0  0  0  0  0  0  0
   -6.1829    4.5695  -17.8947 C   0  0  0  0  0  0  0  0  0  0  0  0
   -5.1222    5.4276  -18.1102 N   0  0  0  0  0  0  0  0  0  0  0  0
   -5.1628    6.3912  -19.1834 C   0  0  0  0  0  0  0  0  0  0  0  0
   -6.4978    7.1183  -19.1658 C   0  0  0  0  0  0  0  0  0  0  0  0
   -7.6561    6.2518  -18.6197 C   0  0  0  0  0  0  0  0  0  0  0  0
   -7.4386    4.7434  -18.6787 C   0  0  2  0  0  0  0  0  0  0  0  0
   -8.6875    4.0730  -18.0941 C   0  0  0  0  0  0  0  0  0  0  0  0
   -7.7137    5.5096  -11.9366 C   0  0  0  0  0  0  0  0  0  0  0  0
   -7.9749    4.1552  -11.6584 C   0  0  0  0  0  0  0  0  0  0  0  0
   -8.2447    3.7586  -10.3544 C   0  0  0  0  0  0  0  0  0  0  0  0
   -8.2664    4.6063   -9.3054 N   0  0  0  0  0  0  0  0  0  0  0  0
   -8.0366    5.9009   -9.5823 C   0  0  0  0  0  0  0  0  0  0  0  0
   -7.7639    6.3898  -10.8502 C   0  0  0  0  0  0  0  0  0  0  0  0
  1  2  1  0
  3  2  1  0
  3  4  1  6
  3  5  1  0
  5  6  1  0
  6  7  1  0
  7  8  2  0
  7  9  1  0
  9 10  1  0
 10 11  2  0
 11 12  1  0
 12 13  2  0
 13 14  1  0
 14 15  1  0
 15 16  1  0
 16 17  1  0
 17 18  1  0
 18 19  1  1
  3 20  1  0
 20 21  2  0
 21 22  1  0
 22 23  2  0
 23 24  1  0
 24 25  2  0
 14 10  1  0
 25 20  1  0
 18 13  1  0
M  END
>  <fragmenstein_outcome>  (698) 
nan

>  <exports>  (698) 
['/opt/xchem-fragalysis-2/maxwin/openbind-hippo/xx01zvns2b/cycle_01/syndirella/elabs/openbind_xx01zvns2b_c1_elab_chemspace_filtered.sdf']

>  <Energy>  (698) 
nan

>  <alias>  (698) 
None

>  <fragmenstein_runtime>  (698) 
nan

>  <scratch_subdir>  (698) 
nan

>  <HIPPO Compound ID>  (698) 
149044

>  <rmsd(smina/fragmenstein)>  (698) 
1.615

>  <distance_score>  (698) 
1.504333

>  <orig_smiles>  (698) 
nan

>  <fragmenstein_mode>  (698) 
nan

>  <inchikey>  (698) 
VEPUZWYMIDGISP-YWZLYKJASA-N

>  <ref_pdb>  (698) 
Z0800a

>  <GNINA pK>  (698) 
nan

>  <gnina_score_min>  (698) 
5.217

>  <tags>  (698) 
openbind_xx01zvns2b_c1_elab_nonasap_filtered_scored_top80percent,openbind_xx01zvns2b_c1_elab_chemspace_filtered_scored_top80percent,openbind_xx01zvns2b_c1_elab_chemspace_filtered_scored,openbind_xx01zvns2b_c1_elab_chemspace_filtered_scored_top40percent,openbind_xx01zvns2b_c1_elab_chemspace_filtered_scored_top20percent,openbind_xx01zvns2b_c1_elab_chemspace_filtered_scored_top60percent,openbind_xx01zvns2b_c1_elabs_filtered

>  <smiles>  (698) 
CC[C@@](C)(CNC(=O)Cc1cnc2n1CCC[C@@H]2C)c1ccncc1

>  <subsites>  (698) 
1 - Z4590/B/203/1

>  <gnina_score>  (698) 
5.692

>  <HIPPO Pose ID>  (698) 
74955

>  <ref_mols>  (698) 
Z1495a,Z0800a

>  <energy_score>  (698) 
-6.519383

>  <inspiration_score>  (698) 
None

>  <smina_score_min>  (698) 
-4.485

>  <fragmenstein_error>  (698) 
nan

>  <name>  (698) 
P74955

$$$$
P74957
     RDKit          3D

 25 27  0  0  0  0  0  0  0  0999 V2000
   -9.8020    5.0961  -19.2815 C   0  0  0  0  0  0  0  0  0  0  0  0
   -8.8198    4.0482  -18.8037 C   0  0  2  0  0  0  0  0  0  0  0  0
   -9.3825    3.5640  -17.4796 C   0  0  0  0  0  0  0  0  0  0  0  0
   -8.9438    4.4324  -16.3254 C   0  0  0  0  0  0  0  0  0  0  0  0
   -7.4358    4.4535  -16.2652 C   0  0  0  0  0  0  0  0  0  0  0  0
   -6.8209    4.8687  -17.4871 N   0  0  0  0  0  0  0  0  0  0  0  0
   -5.6303    5.5285  -17.6878 C   0  0  0  0  0  0  0  0  0  0  0  0
   -4.6974    6.1159  -16.6717 C   0  0  0  0  0  0  0  0  0  0  0  0
   -5.4391    6.8969  -15.5723 C   0  0  0  0  0  0  0  0  0  0  0  0
   -6.0732    7.8549  -15.7876 O   0  0  0  0  0  0  0  0  0  0  0  0
   -5.2381    6.0963  -14.2520 N   0  0  0  0  0  0  0  0  0  0  0  0
   -5.8543    6.2588  -12.9501 C   0  0  0  0  0  0  0  0  0  0  0  0
   -7.1652    5.3997  -12.7928 C   0  0  0  0  0  0  0  0  0  0  0  0
   -8.3374    6.1019  -13.5225 C   0  0  0  0  0  0  0  0  0  0  0  0
   -6.8442    3.9545  -13.2751 C   0  0  0  0  0  0  0  0  0  0  0  0
   -7.6166    5.2976  -11.3289 C   0  0  0  0  0  0  0  0  0  0  0  0
   -7.4361    6.3745  -10.4518 C   0  0  0  0  0  0  0  0  0  0  0  0
   -7.7774    6.2222   -9.1174 C   0  0  0  0  0  0  0  0  0  0  0  0
   -8.2813    5.0892   -8.5899 N   0  0  0  0  0  0  0  0  0  0  0  0
   -8.5118    4.0756   -9.4547 C   0  0  0  0  0  0  0  0  0  0  0  0
   -8.2303    4.1470  -10.8038 C   0  0  0  0  0  0  0  0  0  0  0  0
   -8.5637    3.1006  -11.5679 F   0  0  0  0  0  0  0  0  0  0  0  0
   -5.4968    5.4799  -19.0551 C   0  0  0  0  0  0  0  0  0  0  0  0
   -6.5686    4.8704  -19.6427 N   0  0  0  0  0  0  0  0  0  0  0  0
   -7.4123    4.5851  -18.6867 C   0  0  0  0  0  0  0  0  0  0  0  0
  2  1  1  1
  2  3  1  0
  3  4  1  0
  4  5  1  0
  5  6  1  0
  6  7  1  0
  7  8  1  0
  8  9  1  0
  9 10  2  0
  9 11  1  0
 11 12  1  0
 12 13  1  0
 13 14  1  0
 13 15  1  0
 13 16  1  0
 16 17  2  0
 17 18  1  0
 18 19  2  0
 19 20  1  0
 20 21  2  0
 21 22  1  0
  7 23  2  0
 23 24  1  0
 24 25  2  0
 25  2  1  0
 25  6  1  0
 21 16  1  0
M  END
>  <fragmenstein_outcome>  (699) 
nan

>  <exports>  (699) 
['/opt/xchem-fragalysis-2/maxwin/openbind-hippo/xx01zvns2b/cycle_01/syndirella/elabs/openbind_xx01zvns2b_c1_elab_chemspace_filtered.sdf']

>  <Energy>  (699) 
nan

>  <alias>  (699) 
None

>  <fragmenstein_runtime>  (699) 
nan

>  <scratch_subdir>  (699) 
nan

>  <HIPPO Compound ID>  (699) 
149047

>  <rmsd(smina/fragmenstein)>  (699) 
2.775

>  <distance_score>  (699) 
1.918568

>  <orig_smiles>  (699) 
nan

>  <fragmenstein_mode>  (699) 
nan

>  <inchikey>  (699) 
ASOHDZNCFIEVOG-CYBMUJFWSA-N

>  <ref_pdb>  (699) 
Z0800a

>  <GNINA pK>  (699) 
nan

>  <gnina_score_min>  (699) 
5.161

>  <tags>  (699) 
openbind_xx01zvns2b_c1_elab_nonasap_filtered_scored_top80percent,openbind_xx01zvns2b_c1_elab_chemspace_filtered_scored_top80percent,openbind_xx01zvns2b_c1_elab_chemspace_filtered_scored,openbind_xx01zvns2b_c1_elab_chemspace_filtered_scored_top40percent,openbind_xx01zvns2b_c1_elab_chemspace_filtered_scored_top20percent,openbind_xx01zvns2b_c1_elab_chemspace_filtered_scored_top60percent,openbind_xx01zvns2b_c1_elabs_filtered

>  <smiles>  (699) 
C[C@@H]1CCCn2c(CC(=O)NCC(C)(C)c3ccncc3F)cnc21

>  <subsites>  (699) 
1 - Z4590/B/203/1

>  <gnina_score>  (699) 
5.631

>  <HIPPO Pose ID>  (699) 
74957

>  <ref_mols>  (699) 
Z0800a,Z1495a

>  <energy_score>  (699) 
-7.057633

>  <inspiration_score>  (699) 
None

>  <smina_score_min>  (699) 
-5.657

>  <fragmenstein_error>  (699) 
nan

>  <name>  (699) 
P74957

$$$$
P74959
     RDKit          3D

 25 27  0  0  0  0  0  0  0  0999 V2000
  -10.1592    4.3001  -18.0473 C   0  0  0  0  0  0  0  0  0  0  0  0
   -9.2528    3.7813  -17.0899 O   0  0  0  0  0  0  0  0  0  0  0  0
   -8.0137    4.3717  -17.2045 C   0  0  0  0  0  0  0  0  0  0  0  0
   -7.1119    4.1296  -16.1956 C   0  0  0  0  0  0  0  0  0  0  0  0
   -5.8350    4.6806  -16.2595 C   0  0  0  0  0  0  0  0  0  0  0  0
   -4.7854    4.4671  -15.2097 C   0  0  0  0  0  0  0  0  0  0  0  0
   -5.1372    3.6302  -13.9665 C   0  0  0  0  0  0  0  0  0  0  0  0
   -5.7323    4.3859  -12.8905 N   0  0  0  0  0  0  0  0  0  0  0  0
   -7.0320    5.2422  -12.8553 C   0  0  0  0  0  0  0  0  0  0  0  0
   -7.7741    5.5269  -13.7117 O   0  0  0  0  0  0  0  0  0  0  0  0
   -7.1455    5.7767  -11.4373 C   0  0  1  0  0  0  0  0  0  0  0  0
   -7.9746    7.0770  -11.4046 C   0  0  0  0  0  0  0  0  0  0  0  0
   -8.2491    7.6412   -9.9902 C   0  0  0  0  0  0  0  0  0  0  0  0
   -7.9273    6.7243   -8.7968 C   0  0  0  0  0  0  0  0  0  0  0  0
   -8.0349    5.3056   -9.1700 C   0  0  0  0  0  0  0  0  0  0  0  0
   -8.4138    4.3174   -8.3305 N   0  0  0  0  0  0  0  0  0  0  0  0
   -8.3756    3.2224   -9.0579 C   0  0  0  0  0  0  0  0  0  0  0  0
   -8.6186    1.8621   -8.5183 C   0  0  0  0  0  0  0  0  0  0  0  0
   -8.0700    3.5231  -10.3778 N   0  0  0  0  0  0  0  0  0  0  0  0
   -8.2108    2.6127  -11.4830 C   0  0  0  0  0  0  0  0  0  0  0  0
   -7.7122    4.8422  -10.4211 C   0  0  0  0  0  0  0  0  0  0  0  0
   -5.5139    5.4358  -17.3785 C   0  0  0  0  0  0  0  0  0  0  0  0
   -6.4809    5.6187  -18.3534 C   0  0  0  0  0  0  0  0  0  0  0  0
   -6.1719    6.3928  -19.5752 C   0  0  0  0  0  0  0  0  0  0  0  0
   -7.7248    5.1187  -18.2728 N   0  0  0  0  0  0  0  0  0  0  0  0
  1  2  1  0
  2  3  1  0
  3  4  2  0
  4  5  1  0
  5  6  1  0
  6  7  1  0
  7  8  1  0
  8  9  1  0
  9 10  2  0
 11  9  1  6
 11 12  1  0
 12 13  1  0
 13 14  1  0
 14 15  1  0
 15 16  1  0
 16 17  2  0
 17 18  1  0
 17 19  1  0
 19 20  1  0
 19 21  1  0
  5 22  2  0
 22 23  1  0
 23 24  1  0
 23 25  2  0
 25  3  1  0
 21 11  1  0
 21 15  2  0
M  END
>  <fragmenstein_outcome>  (700) 
nan

>  <exports>  (700) 
['/opt/xchem-fragalysis-2/maxwin/openbind-hippo/xx01zvns2b/cycle_01/syndirella/elabs/openbind_xx01zvns2b_c1_elab_chemspace_filtered.sdf']

>  <Energy>  (700) 
nan

>  <alias>  (700) 
None

>  <fragmenstein_runtime>  (700) 
nan

>  <scratch_subdir>  (700) 
nan

>  <HIPPO Compound ID>  (700) 
149051

>  <rmsd(smina/fragmenstein)>  (700) 
0.852

>  <distance_score>  (700) 
1.921425

>  <orig_smiles>  (700) 
nan

>  <fragmenstein_mode>  (700) 
nan

>  <inchikey>  (700) 
PIAMTRFIPDFWKC-HNNXBMFYSA-N

>  <ref_pdb>  (700) 
Z0800a

>  <GNINA pK>  (700) 
nan

>  <gnina_score_min>  (700) 
5.359

>  <tags>  (700) 
openbind_xx01zvns2b_c1_elab_nonasap_filtered_scored_top80percent,openbind_xx01zvns2b_c1_elab_chemspace_filtered_scored_top80percent,openbind_xx01zvns2b_c1_elab_chemspace_filtered_scored,openbind_xx01zvns2b_c1_elab_chemspace_filtered_scored_top40percent,openbind_xx01zvns2b_c1_elab_chemspace_filtered_scored_top20percent,openbind_xx01zvns2b_c1_elab_chemspace_filtered_scored_top60percent,openbind_xx01zvns2b_c1_elabs_filtered

>  <smiles>  (700) 
COc1cc(CCNC(=O)[C@H]2CCCc3nc(C)n(C)c32)cc(C)n1

>  <subsites>  (700) 
1 - Z4590/B/203/1

>  <gnina_score>  (700) 
5.544

>  <HIPPO Pose ID>  (700) 
74959

>  <ref_mols>  (700) 
Z1495a,Z0800a

>  <energy_score>  (700) 
-16.213522

>  <inspiration_score>  (700) 
None

>  <smina_score_min>  (700) 
-6.291

>  <fragmenstein_error>  (700) 
nan

>  <name>  (700) 
P74959

$$$$
P74963
     RDKit          3D

 25 27  0  0  0  0  0  0  0  0999 V2000
   -3.5494    3.2479  -15.4089 O   0  0  0  0  0  0  0  0  0  0  0  0
   -3.9649    4.3146  -15.6476 C   0  0  0  0  0  0  0  0  0  0  0  0
   -3.5106    5.0396  -16.9303 C   0  0  0  0  0  0  0  0  0  0  0  0
   -4.4897    6.0147  -17.4827 C   0  0  0  0  0  0  0  0  0  0  0  0
   -4.4823    7.3899  -17.4130 C   0  0  0  0  0  0  0  0  0  0  0  0
   -5.6145    7.9175  -17.9529 N   0  0  0  0  0  0  0  0  0  0  0  0
   -6.2770    6.8893  -18.4277 C   0  0  0  0  0  0  0  0  0  0  0  0
   -5.6427    5.7126  -18.1618 N   0  0  0  0  0  0  0  0  0  0  0  0
   -6.0939    4.4008  -18.5851 C   0  0  0  0  0  0  0  0  0  0  0  0
   -7.5532    4.2275  -18.3649 C   0  0  0  0  0  0  0  0  0  0  0  0
   -8.0616    4.1394  -17.0799 C   0  0  0  0  0  0  0  0  0  0  0  0
   -9.4220    4.1671  -16.8718 C   0  0  0  0  0  0  0  0  0  0  0  0
  -10.2827    4.3757  -17.9386 C   0  0  0  0  0  0  0  0  0  0  0  0
   -9.7719    4.4468  -19.2186 C   0  0  0  0  0  0  0  0  0  0  0  0
   -8.4218    4.2559  -19.4380 C   0  0  0  0  0  0  0  0  0  0  0  0
   -4.8808    5.2479  -14.8102 N   0  0  0  0  0  0  0  0  0  0  0  0
   -5.5466    5.0222  -13.5563 C   0  0  0  0  0  0  0  0  0  0  0  0
   -7.0756    5.1211  -13.6496 C   0  0  0  0  0  0  0  0  0  0  0  0
   -7.6476    5.1483  -12.2599 C   0  0  0  0  0  0  0  0  0  0  0  0
   -7.7182    6.3488  -11.5484 C   0  0  0  0  0  0  0  0  0  0  0  0
   -8.0685    6.3033  -10.2100 C   0  0  0  0  0  0  0  0  0  0  0  0
   -8.3505    5.1657   -9.5477 N   0  0  0  0  0  0  0  0  0  0  0  0
   -8.3229    4.0255  -10.2730 C   0  0  0  0  0  0  0  0  0  0  0  0
   -8.7020    2.6154   -9.3878 Cl  0  0  0  0  0  0  0  0  0  0  0  0
   -7.9840    3.9578  -11.6115 C   0  0  0  0  0  0  0  0  0  0  0  0
  1  2  2  0
  2  3  1  0
  3  4  1  0
  4  5  2  0
  5  6  1  0
  6  7  2  0
  7  8  1  0
  8  9  1  0
  9 10  1  0
 10 11  2  0
 11 12  1  0
 12 13  2  0
 13 14  1  0
 14 15  2  0
  2 16  1  0
 16 17  1  0
 17 18  1  0
 18 19  1  0
 19 20  2  0
 20 21  1  0
 21 22  2  0
 22 23  1  0
 23 24  1  0
 23 25  2  0
  8  4  1  0
 15 10  1  0
 25 19  1  0
M  END
>  <fragmenstein_outcome>  (701) 
nan

>  <exports>  (701) 
['/opt/xchem-fragalysis-2/maxwin/openbind-hippo/xx01zvns2b/cycle_01/syndirella/elabs/openbind_xx01zvns2b_c1_elab_chemspace_filtered.sdf']

>  <Energy>  (701) 
nan

>  <alias>  (701) 
None

>  <fragmenstein_runtime>  (701) 
nan

>  <scratch_subdir>  (701) 
nan

>  <HIPPO Compound ID>  (701) 
149058

>  <rmsd(smina/fragmenstein)>  (701) 
0.838

>  <distance_score>  (701) 
1.801016

>  <orig_smiles>  (701) 
nan

>  <fragmenstein_mode>  (701) 
nan

>  <inchikey>  (701) 
VBYZCBBGXSJOBC-UHFFFAOYSA-N

>  <ref_pdb>  (701) 
Z0800a

>  <GNINA pK>  (701) 
nan

>  <gnina_score_min>  (701) 
5.195

>  <tags>  (701) 
openbind_xx01zvns2b_c1_elab_nonasap_filtered_scored_top80percent,openbind_xx01zvns2b_c1_elab_chemspace_filtered_scored_top80percent,openbind_xx01zvns2b_c1_elab_chemspace_filtered_scored,openbind_xx01zvns2b_c1_elab_chemspace_filtered_scored_top40percent,openbind_xx01zvns2b_c1_elab_chemspace_filtered_scored_top20percent,openbind_xx01zvns2b_c1_elab_chemspace_filtered_scored_top60percent,openbind_xx01zvns2b_c1_elabs_filtered

>  <smiles>  (701) 
O=C(Cc1cncn1Cc1ccccc1)NCCc1ccnc(Cl)c1

>  <subsites>  (701) 
1 - Z4590/B/203/1

>  <gnina_score>  (701) 
5.154

>  <HIPPO Pose ID>  (701) 
74963

>  <ref_mols>  (701) 
Z1495a,Z0800a

>  <energy_score>  (701) 
-6.996616

>  <inspiration_score>  (701) 
None

>  <smina_score_min>  (701) 
-5.665

>  <fragmenstein_error>  (701) 
nan

>  <name>  (701) 
P74963

$$$$
P74970
     RDKit          3D

 26 28  0  0  0  0  0  0  0  0999 V2000
   -6.0139    8.6682  -15.3326 O   0  0  0  0  0  0  0  0  0  0  0  0
   -5.3581    7.7438  -15.6172 C   0  0  0  0  0  0  0  0  0  0  0  0
   -4.5324    7.7713  -16.9142 C   0  0  0  0  0  0  0  0  0  0  0  0
   -4.2564    6.4481  -17.5362 C   0  0  0  0  0  0  0  0  0  0  0  0
   -3.1118    5.6770  -17.4665 C   0  0  0  0  0  0  0  0  0  0  0  0
   -3.2306    4.5316  -18.1911 N   0  0  0  0  0  0  0  0  0  0  0  0
   -4.4300    4.6044  -18.7139 C   0  0  0  0  0  0  0  0  0  0  0  0
   -5.0953    5.7340  -18.3448 N   0  0  0  0  0  0  0  0  0  0  0  0
   -6.3562    6.1086  -18.9373 C   0  0  0  0  0  0  0  0  0  0  0  0
   -7.4652    5.2817  -18.3968 C   0  0  0  0  0  0  0  0  0  0  0  0
   -7.9797    5.5471  -17.1331 C   0  0  0  0  0  0  0  0  0  0  0  0
   -9.1480    4.9439  -16.7174 C   0  0  0  0  0  0  0  0  0  0  0  0
   -9.8066    4.0837  -17.5688 C   0  0  0  0  0  0  0  0  0  0  0  0
   -9.2121    3.7061  -18.7555 C   0  0  0  0  0  0  0  0  0  0  0  0
   -8.0383    4.2908  -19.1779 C   0  0  0  0  0  0  0  0  0  0  0  0
   -5.0672    6.4396  -14.8326 N   0  0  0  0  0  0  0  0  0  0  0  0
   -5.5955    5.9647  -13.5856 C   0  0  0  0  0  0  0  0  0  0  0  0
   -7.0800    5.5908  -13.6603 C   0  0  0  0  0  0  0  0  0  0  0  0
   -7.5647    5.2002  -12.2836 C   0  0  0  0  0  0  0  0  0  0  0  0
   -7.5050    3.8674  -11.8334 C   0  0  0  0  0  0  0  0  0  0  0  0
   -6.8208    2.4497  -12.8931 Br  0  0  0  0  0  0  0  0  0  0  0  0
   -7.8585    3.5763  -10.5181 C   0  0  0  0  0  0  0  0  0  0  0  0
   -8.2087    4.5151   -9.6081 N   0  0  0  0  0  0  0  0  0  0  0  0
   -8.2540    5.7888  -10.0516 C   0  0  0  0  0  0  0  0  0  0  0  0
   -7.9662    6.1758  -11.3550 C   0  0  0  0  0  0  0  0  0  0  0  0
   -8.1037    8.0252  -11.7628 Br  0  0  0  0  0  0  0  0  0  0  0  0
  1  2  2  0
  2  3  1  0
  3  4  1  0
  4  5  2  0
  5  6  1  0
  6  7  2  0
  7  8  1  0
  8  9  1  0
  9 10  1  0
 10 11  2  0
 11 12  1  0
 12 13  2  0
 13 14  1  0
 14 15  2  0
  2 16  1  0
 16 17  1  0
 17 18  1  0
 18 19  1  0
 19 20  2  0
 20 21  1  0
 20 22  1  0
 22 23  2  0
 23 24  1  0
 24 25  2  0
 25 26  1  0
  8  4  1  0
 15 10  1  0
 25 19  1  0
M  END
>  <fragmenstein_outcome>  (702) 
nan

>  <exports>  (702) 
['/opt/xchem-fragalysis-2/maxwin/openbind-hippo/xx01zvns2b/cycle_01/syndirella/elabs/openbind_xx01zvns2b_c1_elab_chemspace_filtered.sdf']

>  <Energy>  (702) 
nan

>  <alias>  (702) 
None

>  <fragmenstein_runtime>  (702) 
nan

>  <scratch_subdir>  (702) 
nan

>  <HIPPO Compound ID>  (702) 
149066

>  <rmsd(smina/fragmenstein)>  (702) 
0.55

>  <distance_score>  (702) 
1.757736

>  <orig_smiles>  (702) 
nan

>  <fragmenstein_mode>  (702) 
nan

>  <inchikey>  (702) 
WGDYLJMVYPYKDA-UHFFFAOYSA-N

>  <ref_pdb>  (702) 
Z0800a

>  <GNINA pK>  (702) 
nan

>  <gnina_score_min>  (702) 
5.558

>  <tags>  (702) 
openbind_xx01zvns2b_c1_elab_nonasap_filtered_scored_top80percent,openbind_xx01zvns2b_c1_elab_chemspace_filtered_scored_top80percent,openbind_xx01zvns2b_c1_elab_chemspace_filtered_scored,openbind_xx01zvns2b_c1_elab_chemspace_filtered_scored_top40percent,openbind_xx01zvns2b_c1_elab_chemspace_filtered_scored_top20percent,openbind_xx01zvns2b_c1_elab_chemspace_filtered_scored_top60percent,openbind_xx01zvns2b_c1_elabs_filtered

>  <smiles>  (702) 
O=C(Cc1cncn1Cc1ccccc1)NCCc1c(Br)cncc1Br

>  <subsites>  (702) 
1 - Z4590/B/203/1

>  <gnina_score>  (702) 
5.792

>  <HIPPO Pose ID>  (702) 
74970

>  <ref_mols>  (702) 
Z0800a,Z1495a

>  <energy_score>  (702) 
-9.621065

>  <inspiration_score>  (702) 
None

>  <smina_score_min>  (702) 
-5.221

>  <fragmenstein_error>  (702) 
nan

>  <name>  (702) 
P74970

$$$$
P74971
     RDKit          3D

 26 28  0  0  0  0  0  0  0  0999 V2000
   -8.3667    6.3443  -14.3688 C   0  0  0  0  0  0  0  0  0  0  0  0
   -7.5269    5.3303  -13.5842 C   0  0  1  0  0  0  0  0  0  0  0  0
   -6.0113    5.5891  -13.6613 C   0  0  0  0  0  0  0  0  0  0  0  0
   -5.4718    5.2859  -14.9524 N   0  0  0  0  0  0  0  0  0  0  0  0
   -4.0597    4.7840  -15.3631 C   0  0  0  0  0  0  0  0  0  0  0  0
   -3.1475    4.4682  -14.7046 O   0  0  0  0  0  0  0  0  0  0  0  0
   -4.0324    4.6892  -16.8929 C   0  0  0  0  0  0  0  0  0  0  0  0
   -4.5857    5.9139  -17.5225 C   0  0  0  0  0  0  0  0  0  0  0  0
   -4.2193    7.2276  -17.3328 C   0  0  0  0  0  0  0  0  0  0  0  0
   -5.0645    8.0720  -17.9861 N   0  0  0  0  0  0  0  0  0  0  0  0
   -5.9035    7.2906  -18.6183 C   0  0  0  0  0  0  0  0  0  0  0  0
   -5.6696    5.9745  -18.3560 N   0  0  0  0  0  0  0  0  0  0  0  0
   -6.4146    4.9007  -18.9654 C   0  0  0  0  0  0  0  0  0  0  0  0
   -7.7419    4.7237  -18.3148 C   0  0  0  0  0  0  0  0  0  0  0  0
   -8.8638    5.3684  -18.8076 C   0  0  0  0  0  0  0  0  0  0  0  0
  -10.1475    5.0098  -18.4893 C   0  0  0  0  0  0  0  0  0  0  0  0
  -10.3020    4.0764  -17.5149 C   0  0  0  0  0  0  0  0  0  0  0  0
   -9.1964    3.6391  -16.7977 C   0  0  0  0  0  0  0  0  0  0  0  0
   -7.9164    3.9395  -17.2067 C   0  0  0  0  0  0  0  0  0  0  0  0
   -7.9039    5.1642  -12.1219 C   0  0  0  0  0  0  0  0  0  0  0  0
   -8.1652    3.8497  -11.6834 C   0  0  0  0  0  0  0  0  0  0  0  0
   -8.3565    3.5958  -10.3332 C   0  0  0  0  0  0  0  0  0  0  0  0
   -8.3092    4.5531   -9.3857 N   0  0  0  0  0  0  0  0  0  0  0  0
   -8.0866    5.8129   -9.8186 C   0  0  0  0  0  0  0  0  0  0  0  0
   -7.8809    6.1721  -11.1477 C   0  0  0  0  0  0  0  0  0  0  0  0
   -7.5327    8.0051  -11.4699 Br  0  0  0  0  0  0  0  0  0  0  0  0
  2  1  1  1
  2  3  1  0
  3  4  1  0
  4  5  1  0
  5  6  2  0
  5  7  1  0
  7  8  1  0
  8  9  2  0
  9 10  1  0
 10 11  2  0
 11 12  1  0
 12 13  1  0
 13 14  1  0
 14 15  2  0
 15 16  1  0
 16 17  2  0
 17 18  1  0
 18 19  2  0
  2 20  1  0
 20 21  2  0
 21 22  1  0
 22 23  2  0
 23 24  1  0
 24 25  2  0
 25 26  1  0
 12  8  1  0
 19 14  1  0
 25 20  1  0
M  END
>  <fragmenstein_outcome>  (703) 
nan

>  <exports>  (703) 
['/opt/xchem-fragalysis-2/maxwin/openbind-hippo/xx01zvns2b/cycle_01/syndirella/elabs/openbind_xx01zvns2b_c1_elab_chemspace_filtered.sdf']

>  <Energy>  (703) 
nan

>  <alias>  (703) 
None

>  <fragmenstein_runtime>  (703) 
nan

>  <scratch_subdir>  (703) 
nan

>  <HIPPO Compound ID>  (703) 
149067

>  <rmsd(smina/fragmenstein)>  (703) 
0.945

>  <distance_score>  (703) 
1.650237

>  <orig_smiles>  (703) 
nan

>  <fragmenstein_mode>  (703) 
nan

>  <inchikey>  (703) 
ZDUWYTSHDJOSFY-HNNXBMFYSA-N

>  <ref_pdb>  (703) 
Z0800a

>  <GNINA pK>  (703) 
nan

>  <gnina_score_min>  (703) 
5.504

>  <tags>  (703) 
openbind_xx01zvns2b_c1_elab_nonasap_filtered_scored_top80percent,openbind_xx01zvns2b_c1_elab_chemspace_filtered_scored_top80percent,openbind_xx01zvns2b_c1_elab_chemspace_filtered_scored,openbind_xx01zvns2b_c1_elab_chemspace_filtered_scored_top40percent,openbind_xx01zvns2b_c1_elab_chemspace_filtered_scored_top20percent,openbind_xx01zvns2b_c1_elab_chemspace_filtered_scored_top60percent,openbind_xx01zvns2b_c1_elabs_filtered

>  <smiles>  (703) 
C[C@@H](CNC(=O)Cc1cncn1Cc1ccccc1)c1ccncc1Br

>  <subsites>  (703) 
1 - Z4590/B/203/1

>  <gnina_score>  (703) 
5.17

>  <HIPPO Pose ID>  (703) 
74971

>  <ref_mols>  (703) 
Z0800a,Z1495a

>  <energy_score>  (703) 
-8.473775

>  <inspiration_score>  (703) 
None

>  <smina_score_min>  (703) 
-5.721

>  <fragmenstein_error>  (703) 
nan

>  <name>  (703) 
P74971

$$$$
P74974
     RDKit          3D

 26 28  0  0  0  0  0  0  0  0999 V2000
   -8.9352    6.5927  -13.9823 C   0  0  0  0  0  0  0  0  0  0  0  0
   -7.9186    6.8984  -12.8759 C   0  0  0  0  0  0  0  0  0  0  0  0
   -8.2636    8.3440  -12.4070 C   0  0  0  0  0  0  0  0  0  0  0  0
   -6.4700    6.9680  -13.4060 C   0  0  0  0  0  0  0  0  0  0  0  0
   -6.0858    5.8998  -14.2807 N   0  0  0  0  0  0  0  0  0  0  0  0
   -4.6830    5.3862  -14.6828 C   0  0  0  0  0  0  0  0  0  0  0  0
   -3.6256    5.7022  -14.3054 O   0  0  0  0  0  0  0  0  0  0  0  0
   -4.9052    4.3877  -15.8195 C   0  0  0  0  0  0  0  0  0  0  0  0
   -4.5205    5.0445  -17.0993 C   0  0  0  0  0  0  0  0  0  0  0  0
   -3.3214    4.9661  -17.7707 C   0  0  0  0  0  0  0  0  0  0  0  0
   -3.3098    5.7544  -18.8784 N   0  0  0  0  0  0  0  0  0  0  0  0
   -4.4922    6.3137  -18.9018 C   0  0  0  0  0  0  0  0  0  0  0  0
   -5.2621    5.9241  -17.8433 N   0  0  0  0  0  0  0  0  0  0  0  0
   -6.6192    6.3851  -17.6638 C   0  0  0  0  0  0  0  0  0  0  0  0
   -7.6006    5.3235  -18.0012 C   0  0  0  0  0  0  0  0  0  0  0  0
   -7.4351    4.5689  -19.1494 C   0  0  0  0  0  0  0  0  0  0  0  0
   -8.3604    3.6043  -19.4535 C   0  0  0  0  0  0  0  0  0  0  0  0
   -9.4282    3.3575  -18.6108 C   0  0  0  0  0  0  0  0  0  0  0  0
   -9.6404    4.1485  -17.5149 C   0  0  0  0  0  0  0  0  0  0  0  0
   -8.7245    5.1208  -17.2078 C   0  0  0  0  0  0  0  0  0  0  0  0
   -7.9841    5.8774  -11.7364 C   0  0  0  0  0  0  0  0  0  0  0  0
   -8.0441    4.4911  -11.9601 C   0  0  0  0  0  0  0  0  0  0  0  0
   -8.0740    3.6257  -10.8718 C   0  0  0  0  0  0  0  0  0  0  0  0
   -8.0293    4.0369   -9.5891 N   0  0  0  0  0  0  0  0  0  0  0  0
   -7.9597    5.3601   -9.3844 C   0  0  0  0  0  0  0  0  0  0  0  0
   -7.9305    6.2974  -10.4012 C   0  0  0  0  0  0  0  0  0  0  0  0
  1  2  1  0
  2  3  1  0
  2  4  1  0
  4  5  1  0
  5  6  1  0
  6  7  2  0
  6  8  1  0
  8  9  1  0
  9 10  2  0
 10 11  1  0
 11 12  2  0
 12 13  1  0
 13 14  1  0
 14 15  1  0
 15 16  2  0
 16 17  1  0
 17 18  2  0
 18 19  1  0
 19 20  2  0
  2 21  1  0
 21 22  2  0
 22 23  1  0
 23 24  2  0
 24 25  1  0
 25 26  2  0
 13  9  1  0
 20 15  1  0
 26 21  1  0
M  END
>  <fragmenstein_outcome>  (704) 
nan

>  <exports>  (704) 
['/opt/xchem-fragalysis-2/maxwin/openbind-hippo/xx01zvns2b/cycle_01/syndirella/elabs/openbind_xx01zvns2b_c1_elab_chemspace_filtered.sdf']

>  <Energy>  (704) 
nan

>  <alias>  (704) 
None

>  <fragmenstein_runtime>  (704) 
nan

>  <scratch_subdir>  (704) 
nan

>  <HIPPO Compound ID>  (704) 
149071

>  <rmsd(smina/fragmenstein)>  (704) 
0.697

>  <distance_score>  (704) 
1.946805

>  <orig_smiles>  (704) 
nan

>  <fragmenstein_mode>  (704) 
nan

>  <inchikey>  (704) 
NEXVIGWCARZVJQ-UHFFFAOYSA-N

>  <ref_pdb>  (704) 
Z0800a

>  <GNINA pK>  (704) 
nan

>  <gnina_score_min>  (704) 
5.373

>  <tags>  (704) 
openbind_xx01zvns2b_c1_elab_nonasap_filtered_scored_top80percent,openbind_xx01zvns2b_c1_elab_chemspace_filtered_scored_top80percent,openbind_xx01zvns2b_c1_elab_chemspace_filtered_scored,openbind_xx01zvns2b_c1_elab_chemspace_filtered_scored_top40percent,openbind_xx01zvns2b_c1_elab_chemspace_filtered_scored_top20percent,openbind_xx01zvns2b_c1_elab_chemspace_filtered_scored_top60percent,openbind_xx01zvns2b_c1_elabs_filtered

>  <smiles>  (704) 
CC(C)(CNC(=O)Cc1cncn1Cc1ccccc1)c1ccncc1

>  <subsites>  (704) 
1 - Z4590/B/203/1

>  <gnina_score>  (704) 
5.287

>  <HIPPO Pose ID>  (704) 
74974

>  <ref_mols>  (704) 
Z1495a,Z0800a

>  <energy_score>  (704) 
-5.509066

>  <inspiration_score>  (704) 
None

>  <smina_score_min>  (704) 
-5.29

>  <fragmenstein_error>  (704) 
nan

>  <name>  (704) 
P74974

$$$$
P74975
     RDKit          3D

 26 28  0  0  0  0  0  0  0  0999 V2000
   -8.4233    1.8935   -8.4864 C   0  0  0  0  0  0  0  0  0  0  0  0
   -8.1474    3.2106   -9.1156 C   0  0  0  0  0  0  0  0  0  0  0  0
   -7.7200    4.2635   -8.4551 N   0  0  0  0  0  0  0  0  0  0  0  0
   -7.6150    5.2511   -9.3758 C   0  0  0  0  0  0  0  0  0  0  0  0
   -7.9551    4.8261  -10.6386 C   0  0  0  0  0  0  0  0  0  0  0  0
   -8.2862    3.5092  -10.4586 N   0  0  0  0  0  0  0  0  0  0  0  0
   -8.6952    2.5881  -11.4801 C   0  0  0  0  0  0  0  0  0  0  0  0
   -8.0963    5.7553  -11.8015 C   0  0  2  0  0  0  0  0  0  0  0  0
   -7.8322    5.2097  -13.1948 C   0  0  0  0  0  0  0  0  0  0  0  0
   -8.6392    5.3100  -14.0337 O   0  0  0  0  0  0  0  0  0  0  0  0
   -6.3855    4.6655  -13.2554 N   0  0  0  0  0  0  0  0  0  0  0  0
   -5.6628    4.0442  -14.3384 C   0  0  0  0  0  0  0  0  0  0  0  0
   -5.2589    5.0635  -15.4218 C   0  0  0  0  0  0  0  0  0  0  0  0
   -5.9130    4.9252  -16.7709 C   0  0  0  0  0  0  0  0  0  0  0  0
   -5.1757    5.2193  -17.9157 C   0  0  0  0  0  0  0  0  0  0  0  0
   -5.7811    5.0837  -19.1440 C   0  0  0  0  0  0  0  0  0  0  0  0
   -7.0439    4.6745  -19.3112 N   0  0  0  0  0  0  0  0  0  0  0  0
   -7.7952    4.4614  -18.2043 C   0  0  0  0  0  0  0  0  0  0  0  0
   -9.2470    4.0799  -18.3833 C   0  0  0  0  0  0  0  0  0  0  0  0
   -9.6981    4.2673  -19.6491 F   0  0  0  0  0  0  0  0  0  0  0  0
   -9.4805    2.7613  -18.1030 F   0  0  0  0  0  0  0  0  0  0  0  0
  -10.0864    4.7659  -17.5748 F   0  0  0  0  0  0  0  0  0  0  0  0
   -7.2552    4.5683  -16.9263 C   0  0  0  0  0  0  0  0  0  0  0  0
   -7.2932    7.0465  -11.5451 C   0  0  0  0  0  0  0  0  0  0  0  0
   -7.6074    7.6103  -10.1487 C   0  0  0  0  0  0  0  0  0  0  0  0
   -7.2217    6.6310   -9.0306 C   0  0  0  0  0  0  0  0  0  0  0  0
  1  2  1  0
  2  3  2  0
  3  4  1  0
  4  5  2  0
  5  6  1  0
  6  7  1  0
  5  8  1  0
  8  9  1  6
  9 10  2  0
  9 11  1  0
 11 12  1  0
 12 13  1  0
 13 14  1  0
 14 15  2  0
 15 16  1  0
 16 17  2  0
 17 18  1  0
 18 19  1  0
 19 20  1  0
 19 21  1  0
 19 22  1  0
 18 23  2  0
  8 24  1  0
 24 25  1  0
 25 26  1  0
  6  2  1  0
 23 14  1  0
 26  4  1  0
M  END
>  <fragmenstein_outcome>  (705) 
nan

>  <exports>  (705) 
['/opt/xchem-fragalysis-2/maxwin/openbind-hippo/xx01zvns2b/cycle_01/syndirella/elabs/openbind_xx01zvns2b_c1_elab_chemspace_filtered.sdf']

>  <Energy>  (705) 
nan

>  <alias>  (705) 
None

>  <fragmenstein_runtime>  (705) 
nan

>  <scratch_subdir>  (705) 
nan

>  <HIPPO Compound ID>  (705) 
149075

>  <rmsd(smina/fragmenstein)>  (705) 
0.571

>  <distance_score>  (705) 
1.61292

>  <orig_smiles>  (705) 
nan

>  <fragmenstein_mode>  (705) 
nan

>  <inchikey>  (705) 
VLKQSLSWJAJQMB-CYBMUJFWSA-N

>  <ref_pdb>  (705) 
Z0800a

>  <GNINA pK>  (705) 
nan

>  <gnina_score_min>  (705) 
5.683

>  <tags>  (705) 
openbind_xx01zvns2b_c1_elab_nonasap_filtered_scored_top80percent,openbind_xx01zvns2b_c1_elab_chemspace_filtered_scored_top80percent,openbind_xx01zvns2b_c1_elab_chemspace_filtered_scored,openbind_xx01zvns2b_c1_elab_chemspace_filtered_scored_top40percent,openbind_xx01zvns2b_c1_elab_chemspace_filtered_scored_top20percent,openbind_xx01zvns2b_c1_elab_chemspace_filtered_scored_top60percent,openbind_xx01zvns2b_c1_elabs_filtered

>  <smiles>  (705) 
Cc1nc2c(n1C)[C@H](C(=O)NCCc1ccnc(C(F)(F)F)c1)CCC2

>  <subsites>  (705) 
1 - Z4590/B/203/1

>  <gnina_score>  (705) 
5.814

>  <HIPPO Pose ID>  (705) 
74975

>  <ref_mols>  (705) 
Z0800a,Z1495a

>  <energy_score>  (705) 
-31.868415

>  <inspiration_score>  (705) 
None

>  <smina_score_min>  (705) 
-7.041

>  <fragmenstein_error>  (705) 
nan

>  <name>  (705) 
P74975

$$$$
P74977
     RDKit          3D

 26 29  0  0  0  0  0  0  0  0999 V2000
   -8.4510    2.1117   -8.6893 C   0  0  0  0  0  0  0  0  0  0  0  0
   -8.2445    3.3922   -9.4200 C   0  0  0  0  0  0  0  0  0  0  0  0
   -8.4080    4.5857   -8.8931 N   0  0  0  0  0  0  0  0  0  0  0  0
   -8.1079    5.4635   -9.8868 C   0  0  0  0  0  0  0  0  0  0  0  0
   -7.7289    4.8331  -11.0507 C   0  0  0  0  0  0  0  0  0  0  0  0
   -7.8470    3.5061  -10.7400 N   0  0  0  0  0  0  0  0  0  0  0  0
   -7.6402    2.4114  -11.6434 C   0  0  0  0  0  0  0  0  0  0  0  0
   -7.2090    5.5118  -12.2936 C   0  0  1  0  0  0  0  0  0  0  0  0
   -8.2038    5.5012  -13.4967 C   0  0  0  0  0  0  0  0  0  0  0  0
   -9.3141    5.1626  -13.3986 O   0  0  0  0  0  0  0  0  0  0  0  0
   -7.4342    6.0826  -14.7133 N   0  0  0  0  0  0  0  0  0  0  0  0
   -7.8544    6.2764  -16.0869 C   0  0  0  0  0  0  0  0  0  0  0  0
   -7.6351    5.0807  -17.0732 C   0  0  0  0  0  0  0  0  0  0  0  0
   -6.1531    4.7607  -16.9667 C   0  0  0  0  0  0  0  0  0  0  0  0
   -5.2157    5.2907  -17.8654 C   0  0  0  0  0  0  0  0  0  0  0  0
   -3.8706    5.1497  -17.5906 C   0  0  0  0  0  0  0  0  0  0  0  0
   -3.3910    4.5509  -16.4844 N   0  0  0  0  0  0  0  0  0  0  0  0
   -4.2950    4.0347  -15.6319 C   0  0  0  0  0  0  0  0  0  0  0  0
   -5.6629    4.0988  -15.8373 C   0  0  0  0  0  0  0  0  0  0  0  0
   -8.6627    3.9810  -16.7565 C   0  0  0  0  0  0  0  0  0  0  0  0
   -9.9060    4.4087  -17.5253 C   0  0  0  0  0  0  0  0  0  0  0  0
   -9.3589    4.7761  -18.8695 C   0  0  0  0  0  0  0  0  0  0  0  0
   -8.0151    5.4096  -18.5517 C   0  0  0  0  0  0  0  0  0  0  0  0
   -6.8546    6.9785  -11.9104 C   0  0  0  0  0  0  0  0  0  0  0  0
   -7.9246    7.6435  -11.0231 C   0  0  0  0  0  0  0  0  0  0  0  0
   -8.0906    6.9215   -9.6823 C   0  0  0  0  0  0  0  0  0  0  0  0
  1  2  1  0
  2  3  2  0
  3  4  1  0
  4  5  2  0
  5  6  1  0
  6  7  1  0
  5  8  1  0
  8  9  1  6
  9 10  2  0
  9 11  1  0
 11 12  1  0
 12 13  1  0
 13 14  1  0
 14 15  2  0
 15 16  1  0
 16 17  2  0
 17 18  1  0
 18 19  2  0
 13 20  1  0
 20 21  1  0
 21 22  1  0
 22 23  1  0
  8 24  1  0
 24 25  1  0
 25 26  1  0
  6  2  1  0
 23 13  1  0
 26  4  1  0
 19 14  1  0
M  END
>  <fragmenstein_outcome>  (706) 
nan

>  <exports>  (706) 
['/opt/xchem-fragalysis-2/maxwin/openbind-hippo/xx01zvns2b/cycle_01/syndirella/elabs/openbind_xx01zvns2b_c1_elab_chemspace_filtered.sdf']

>  <Energy>  (706) 
nan

>  <alias>  (706) 
None

>  <fragmenstein_runtime>  (706) 
nan

>  <scratch_subdir>  (706) 
nan

>  <HIPPO Compound ID>  (706) 
149083

>  <rmsd(smina/fragmenstein)>  (706) 
0.917

>  <distance_score>  (706) 
1.669024

>  <orig_smiles>  (706) 
nan

>  <fragmenstein_mode>  (706) 
nan

>  <inchikey>  (706) 
QOEQEJRJXFWDFF-KRWDZBQOSA-N

>  <ref_pdb>  (706) 
Z0800a

>  <GNINA pK>  (706) 
nan

>  <gnina_score_min>  (706) 
5.76

>  <tags>  (706) 
openbind_xx01zvns2b_c1_elab_nonasap_filtered_scored_top80percent,openbind_xx01zvns2b_c1_elab_chemspace_filtered_scored_top80percent,openbind_xx01zvns2b_c1_elab_chemspace_filtered_scored,openbind_xx01zvns2b_c1_elab_chemspace_filtered_scored_top40percent,openbind_xx01zvns2b_c1_elab_chemspace_filtered_scored_top20percent,openbind_xx01zvns2b_c1_elab_chemspace_filtered_scored_top60percent,openbind_xx01zvns2b_c1_elabs_filtered

>  <smiles>  (706) 
Cc1nc2c(n1C)[C@@H](C(=O)NCC1(c3ccncc3)CCCC1)CCC2

>  <subsites>  (706) 
1 - Z4590/B/203/1

>  <gnina_score>  (706) 
5.264

>  <HIPPO Pose ID>  (706) 
74977

>  <ref_mols>  (706) 
Z1495a,Z0800a

>  <energy_score>  (706) 
-52.928024

>  <inspiration_score>  (706) 
None

>  <smina_score_min>  (706) 
-6.336

>  <fragmenstein_error>  (706) 
nan

>  <name>  (706) 
P74977

$$$$
P74978
     RDKit          3D

 26 29  0  0  0  0  0  0  0  0999 V2000
   -5.9495    7.1324  -19.0915 C   0  0  0  0  0  0  0  0  0  0  0  0
   -4.7321    6.4533  -19.4341 N   0  0  0  0  0  0  0  0  0  0  0  0
   -4.2698    6.3058  -20.7148 C   0  0  0  0  0  0  0  0  0  0  0  0
   -3.1220    5.6564  -20.7644 N   0  0  0  0  0  0  0  0  0  0  0  0
   -2.8100    5.4266  -19.4477 C   0  0  0  0  0  0  0  0  0  0  0  0
   -3.7456    5.9997  -18.6111 C   0  0  0  0  0  0  0  0  0  0  0  0
   -3.5596    6.1896  -17.0686 C   0  0  0  0  0  0  0  0  0  0  0  0
   -4.1872    5.1254  -16.2141 C   0  0  0  0  0  0  0  0  0  0  0  0
   -3.6633    4.0907  -16.1189 O   0  0  0  0  0  0  0  0  0  0  0  0
   -5.5152    5.6274  -15.6267 N   0  0  0  0  0  0  0  0  0  0  0  0
   -6.5366    4.9258  -14.8683 C   0  0  1  0  0  0  0  0  0  0  0  0
   -7.4365    5.8614  -14.0392 C   0  0  0  0  0  0  0  0  0  0  0  0
   -7.6779    5.4277  -12.6091 C   0  0  0  0  0  0  0  0  0  0  0  0
   -8.0054    4.1146  -12.2564 C   0  0  0  0  0  0  0  0  0  0  0  0
   -8.1958    3.8074  -10.9139 C   0  0  0  0  0  0  0  0  0  0  0  0
   -8.0950    4.7120   -9.9144 N   0  0  0  0  0  0  0  0  0  0  0  0
   -7.8234    5.9797  -10.2763 C   0  0  0  0  0  0  0  0  0  0  0  0
   -7.6142    6.3809  -11.5865 C   0  0  0  0  0  0  0  0  0  0  0  0
   -7.2884    4.0424  -15.8704 C   0  0  0  0  0  0  0  0  0  0  0  0
   -8.0814    4.7791  -16.9541 C   0  0  0  0  0  0  0  0  0  0  0  0
   -9.5588    4.8819  -16.6322 C   0  0  0  0  0  0  0  0  0  0  0  0
  -10.3266    4.7996  -17.9540 C   0  0  0  0  0  0  0  0  0  0  0  0
   -9.2505    4.7508  -19.0064 C   0  0  0  0  0  0  0  0  0  0  0  0
   -8.1210    4.0546  -18.2926 C   0  0  0  0  0  0  0  0  0  0  0  0
   -3.3829    7.6023  -16.5396 C   0  0  0  0  0  0  0  0  0  0  0  0
   -2.1967    6.6955  -16.6375 C   0  0  0  0  0  0  0  0  0  0  0  0
  1  2  1  0
  2  3  1  0
  3  4  2  0
  4  5  1  0
  5  6  2  0
  6  7  1  0
  7  8  1  0
  8  9  2  0
  8 10  1  0
 10 11  1  0
 11 12  1  6
 12 13  1  0
 13 14  2  0
 14 15  1  0
 15 16  2  0
 16 17  1  0
 17 18  2  0
 11 19  1  0
 19 20  1  0
 20 21  1  0
 21 22  1  0
 22 23  1  0
 23 24  1  0
  7 25  1  0
 25 26  1  0
  6  2  1  0
 26  7  1  0
 18 13  1  0
 24 20  1  0
M  END
>  <fragmenstein_outcome>  (707) 
nan

>  <exports>  (707) 
['/opt/xchem-fragalysis-2/maxwin/openbind-hippo/xx01zvns2b/cycle_01/syndirella/elabs/openbind_xx01zvns2b_c1_elab_chemspace_filtered.sdf']

>  <Energy>  (707) 
nan

>  <alias>  (707) 
None

>  <fragmenstein_runtime>  (707) 
nan

>  <scratch_subdir>  (707) 
nan

>  <HIPPO Compound ID>  (707) 
149084

>  <rmsd(smina/fragmenstein)>  (707) 
0.84

>  <distance_score>  (707) 
1.697369

>  <orig_smiles>  (707) 
nan

>  <fragmenstein_mode>  (707) 
nan

>  <inchikey>  (707) 
JXBGJXIAQWMMMR-GOSISDBHSA-N

>  <ref_pdb>  (707) 
Z0800a

>  <GNINA pK>  (707) 
nan

>  <gnina_score_min>  (707) 
5.31

>  <tags>  (707) 
openbind_xx01zvns2b_c1_elab_nonasap_filtered_scored_top80percent,openbind_xx01zvns2b_c1_elab_chemspace_filtered_scored_top80percent,openbind_xx01zvns2b_c1_elab_chemspace_filtered_scored,openbind_xx01zvns2b_c1_elab_chemspace_filtered_scored_top40percent,openbind_xx01zvns2b_c1_elab_chemspace_filtered_scored_top20percent,openbind_xx01zvns2b_c1_elab_chemspace_filtered_scored_top60percent,openbind_xx01zvns2b_c1_elabs_filtered

>  <smiles>  (707) 
Cn1cncc1C1(C(=O)N[C@@H](Cc2ccncc2)CC2CCCC2)CC1

>  <subsites>  (707) 
1 - Z4590/B/203/1

>  <gnina_score>  (707) 
5.116

>  <HIPPO Pose ID>  (707) 
74978

>  <ref_mols>  (707) 
Z1495a,Z0800a

>  <energy_score>  (707) 
-24.881109

>  <inspiration_score>  (707) 
None

>  <smina_score_min>  (707) 
-4.952

>  <fragmenstein_error>  (707) 
nan

>  <name>  (707) 
P74978

$$$$
P74980
     RDKit          3D

 26 28  0  0  0  0  0  0  0  0999 V2000
  -10.2367    4.7943  -17.9948 C   0  0  0  0  0  0  0  0  0  0  0  0
   -8.7845    4.9666  -18.3564 C   0  0  2  0  0  0  0  0  0  0  0  0
   -8.3857    4.0266  -19.4665 C   0  0  0  0  0  0  0  0  0  0  0  0
   -6.9199    4.2630  -19.8579 C   0  0  0  0  0  0  0  0  0  0  0  0
   -5.9953    4.9393  -18.8475 C   0  0  0  0  0  0  0  0  0  0  0  0
   -6.4852    4.7696  -17.5090 N   0  0  0  0  0  0  0  0  0  0  0  0
   -5.8186    4.6421  -16.3318 C   0  0  0  0  0  0  0  0  0  0  0  0
   -4.4499    5.1398  -16.0195 C   0  0  0  0  0  0  0  0  0  0  0  0
   -4.5330    6.0658  -14.7697 C   0  0  0  0  0  0  0  0  0  0  0  0
   -3.7613    6.0082  -13.8920 O   0  0  0  0  0  0  0  0  0  0  0  0
   -5.8239    6.9293  -14.9255 N   0  0  0  0  0  0  0  0  0  0  0  0
   -6.4732    7.8219  -13.9934 C   0  0  2  0  0  0  0  0  0  0  0  0
   -5.5179    8.3858  -12.9352 C   0  0  0  0  0  0  0  0  0  0  0  0
   -6.0749    9.5512  -12.3292 O   0  0  0  0  0  0  0  0  0  0  0  0
   -7.8197    7.1904  -13.5064 C   0  0  0  0  0  0  0  0  0  0  0  0
   -7.8650    6.4816  -12.1754 C   0  0  0  0  0  0  0  0  0  0  0  0
   -7.8296    7.2373  -10.9987 C   0  0  0  0  0  0  0  0  0  0  0  0
   -7.8769    6.5987   -9.7712 C   0  0  0  0  0  0  0  0  0  0  0  0
   -7.7506    7.6379   -8.1903 Br  0  0  0  0  0  0  0  0  0  0  0  0
   -7.9977    5.2733   -9.6317 N   0  0  0  0  0  0  0  0  0  0  0  0
   -8.0939    4.5577  -10.7708 C   0  0  0  0  0  0  0  0  0  0  0  0
   -8.3722    2.7149  -10.5627 Br  0  0  0  0  0  0  0  0  0  0  0  0
   -8.0277    5.1018  -12.0501 C   0  0  0  0  0  0  0  0  0  0  0  0
   -6.7857    4.1487  -15.4779 C   0  0  0  0  0  0  0  0  0  0  0  0
   -8.0357    4.3094  -16.0129 N   0  0  0  0  0  0  0  0  0  0  0  0
   -7.8296    4.7114  -17.2427 C   0  0  0  0  0  0  0  0  0  0  0  0
  2  1  1  1
  2  3  1  0
  3  4  1  0
  4  5  1  0
  5  6  1  0
  6  7  1  0
  7  8  1  0
  8  9  1  0
  9 10  2  0
  9 11  1  0
 11 12  1  0
 12 13  1  1
 13 14  1  0
 12 15  1  0
 15 16  1  0
 16 17  2  0
 17 18  1  0
 18 19  1  0
 18 20  2  0
 20 21  1  0
 21 22  1  0
 21 23  2  0
  7 24  2  0
 24 25  1  0
 25 26  2  0
 26  2  1  0
 26  6  1  0
 23 16  1  0
M  END
>  <fragmenstein_outcome>  (708) 
nan

>  <exports>  (708) 
['/opt/xchem-fragalysis-2/maxwin/openbind-hippo/xx01zvns2b/cycle_01/syndirella/elabs/openbind_xx01zvns2b_c1_elab_chemspace_filtered.sdf']

>  <Energy>  (708) 
nan

>  <alias>  (708) 
None

>  <fragmenstein_runtime>  (708) 
nan

>  <scratch_subdir>  (708) 
nan

>  <HIPPO Compound ID>  (708) 
149090

>  <rmsd(smina/fragmenstein)>  (708) 
1.273

>  <distance_score>  (708) 
1.82782

>  <orig_smiles>  (708) 
nan

>  <fragmenstein_mode>  (708) 
nan

>  <inchikey>  (708) 
SJXLNIUWYOXISE-YPMHNXCESA-N

>  <ref_pdb>  (708) 
Z0800a

>  <GNINA pK>  (708) 
nan

>  <gnina_score_min>  (708) 
5.301

>  <tags>  (708) 
openbind_xx01zvns2b_c1_elab_nonasap_filtered_scored_top80percent,openbind_xx01zvns2b_c1_elab_chemspace_filtered_scored_top80percent,openbind_xx01zvns2b_c1_elab_chemspace_filtered_scored,openbind_xx01zvns2b_c1_elab_chemspace_filtered_scored_top40percent,openbind_xx01zvns2b_c1_elab_chemspace_filtered_scored_top20percent,openbind_xx01zvns2b_c1_elab_chemspace_filtered_scored_top60percent,openbind_xx01zvns2b_c1_elabs_filtered

>  <smiles>  (708) 
C[C@@H]1CCCn2c(CC(=O)N[C@H](CO)Cc3cc(Br)nc(Br)c3)cnc21

>  <subsites>  (708) 
1 - Z4590/B/203/1

>  <gnina_score>  (708) 
5.637

>  <HIPPO Pose ID>  (708) 
74980

>  <ref_mols>  (708) 
Z0800a,Z1495a

>  <energy_score>  (708) 
-12.227754

>  <inspiration_score>  (708) 
None

>  <smina_score_min>  (708) 
-5.314

>  <fragmenstein_error>  (708) 
nan

>  <name>  (708) 
P74980

$$$$
P74982
     RDKit          3D

 26 29  0  0  0  0  0  0  0  0999 V2000
   -9.7983    4.9970  -18.6879 C   0  0  0  0  0  0  0  0  0  0  0  0
   -8.4427    4.5990  -18.1318 C   0  0  2  0  0  0  0  0  0  0  0  0
   -8.6720    4.0182  -16.7227 C   0  0  0  0  0  0  0  0  0  0  0  0
   -7.4132    3.9408  -15.8520 C   0  0  0  0  0  0  0  0  0  0  0  0
   -6.1324    4.1762  -16.6341 C   0  0  0  0  0  0  0  0  0  0  0  0
   -6.2312    5.4214  -17.3450 N   0  0  0  0  0  0  0  0  0  0  0  0
   -5.4037    6.5049  -17.3896 C   0  0  0  0  0  0  0  0  0  0  0  0
   -4.0800    6.6939  -16.7226 C   0  0  0  0  0  0  0  0  0  0  0  0
   -3.9574    6.1390  -15.3010 C   0  0  0  0  0  0  0  0  0  0  0  0
   -3.0018    5.5548  -14.9679 O   0  0  0  0  0  0  0  0  0  0  0  0
   -5.2722    6.4362  -14.5332 N   0  0  0  0  0  0  0  0  0  0  0  0
   -5.7165    5.9967  -13.2397 C   0  0  0  0  0  0  0  0  0  0  0  0
   -7.0419    6.6413  -12.7923 C   0  0  0  0  0  0  0  0  0  0  0  0
   -7.5851    5.7370  -11.5655 C   0  0  0  0  0  0  0  0  0  0  0  0
   -7.5225    6.1812  -10.2342 C   0  0  0  0  0  0  0  0  0  0  0  0
   -7.9195    5.3549   -9.1958 C   0  0  0  0  0  0  0  0  0  0  0  0
   -8.3626    4.1001   -9.3683 N   0  0  0  0  0  0  0  0  0  0  0  0
   -8.4379    3.6595  -10.6438 C   0  0  0  0  0  0  0  0  0  0  0  0
   -8.0820    4.4338  -11.7380 C   0  0  0  0  0  0  0  0  0  0  0  0
   -8.1855    3.9250  -12.9705 F   0  0  0  0  0  0  0  0  0  0  0  0
   -8.1493    7.1086  -13.8158 C   0  0  0  0  0  0  0  0  0  0  0  0
   -7.5478    8.5256  -13.7734 C   0  0  0  0  0  0  0  0  0  0  0  0
   -6.8452    8.1724  -12.4707 C   0  0  0  0  0  0  0  0  0  0  0  0
   -6.0857    7.3708  -18.2114 C   0  0  0  0  0  0  0  0  0  0  0  0
   -7.2990    6.8660  -18.5867 N   0  0  0  0  0  0  0  0  0  0  0  0
   -7.3751    5.6659  -18.0703 C   0  0  0  0  0  0  0  0  0  0  0  0
  2  1  1  1
  2  3  1  0
  3  4  1  0
  4  5  1  0
  5  6  1  0
  6  7  1  0
  7  8  1  0
  8  9  1  0
  9 10  2  0
  9 11  1  0
 11 12  1  0
 12 13  1  0
 13 14  1  0
 14 15  2  0
 15 16  1  0
 16 17  2  0
 17 18  1  0
 18 19  2  0
 19 20  1  0
 13 21  1  0
 21 22  1  0
 22 23  1  0
  7 24  2  0
 24 25  1  0
 25 26  2  0
 26  2  1  0
 26  6  1  0
 23 13  1  0
 19 14  1  0
M  END
>  <fragmenstein_outcome>  (709) 
nan

>  <exports>  (709) 
['/opt/xchem-fragalysis-2/maxwin/openbind-hippo/xx01zvns2b/cycle_01/syndirella/elabs/openbind_xx01zvns2b_c1_elab_chemspace_filtered.sdf']

>  <Energy>  (709) 
nan

>  <alias>  (709) 
None

>  <fragmenstein_runtime>  (709) 
nan

>  <scratch_subdir>  (709) 
nan

>  <HIPPO Compound ID>  (709) 
149091

>  <rmsd(smina/fragmenstein)>  (709) 
0.878

>  <distance_score>  (709) 
1.824088

>  <orig_smiles>  (709) 
nan

>  <fragmenstein_mode>  (709) 
nan

>  <inchikey>  (709) 
JKXBBDZLBSEWGG-CQSZACIVSA-N

>  <ref_pdb>  (709) 
Z0800a

>  <GNINA pK>  (709) 
nan

>  <gnina_score_min>  (709) 
5.622

>  <tags>  (709) 
openbind_xx01zvns2b_c1_elab_nonasap_filtered_scored_top80percent,openbind_xx01zvns2b_c1_elab_chemspace_filtered_scored_top80percent,openbind_xx01zvns2b_c1_elab_chemspace_filtered_scored,openbind_xx01zvns2b_c1_elab_chemspace_filtered_scored_top40percent,openbind_xx01zvns2b_c1_elab_chemspace_filtered_scored_top20percent,openbind_xx01zvns2b_c1_elab_chemspace_filtered_scored_top60percent,openbind_xx01zvns2b_c1_elabs_filtered

>  <smiles>  (709) 
C[C@@H]1CCCn2c(CC(=O)NCC3(c4ccncc4F)CCC3)cnc21

>  <subsites>  (709) 
1 - Z4590/B/203/1

>  <gnina_score>  (709) 
5.758

>  <HIPPO Pose ID>  (709) 
74982

>  <ref_mols>  (709) 
Z1495a,Z0800a

>  <energy_score>  (709) 
-31.587804

>  <inspiration_score>  (709) 
None

>  <smina_score_min>  (709) 
-5.513

>  <fragmenstein_error>  (709) 
nan

>  <name>  (709) 
P74982

$$$$
P74983
     RDKit          3D

 26 28  0  0  0  0  0  0  0  0999 V2000
   -8.6684    2.3947   -8.4727 C   0  0  0  0  0  0  0  0  0  0  0  0
   -8.5830    2.7058   -9.8559 O   0  0  0  0  0  0  0  0  0  0  0  0
   -8.2956    4.0315  -10.0892 C   0  0  0  0  0  0  0  0  0  0  0  0
   -7.9469    4.3518  -11.3869 C   0  0  0  0  0  0  0  0  0  0  0  0
   -7.6214    5.6820  -11.7093 C   0  0  0  0  0  0  0  0  0  0  0  0
   -7.0828    6.0289  -13.0933 C   0  0  0  0  0  0  0  0  0  0  0  0
   -7.8935    5.2673  -14.1378 C   0  0  0  0  0  0  0  0  0  0  0  0
   -7.2072    7.5188  -13.4815 C   0  0  0  0  0  0  0  0  0  0  0  0
   -5.5754    5.6149  -13.0849 C   0  0  0  0  0  0  0  0  0  0  0  0
   -5.1002    5.3084  -14.4010 N   0  0  0  0  0  0  0  0  0  0  0  0
   -4.2330    6.1410  -15.3757 C   0  0  0  0  0  0  0  0  0  0  0  0
   -3.7077    7.1721  -15.2279 O   0  0  0  0  0  0  0  0  0  0  0  0
   -4.2639    5.3769  -16.7045 C   0  0  0  0  0  0  0  0  0  0  0  0
   -5.4870    5.8109  -17.4339 C   0  0  0  0  0  0  0  0  0  0  0  0
   -5.7201    6.9854  -18.1143 C   0  0  0  0  0  0  0  0  0  0  0  0
   -6.9762    7.0114  -18.6526 N   0  0  0  0  0  0  0  0  0  0  0  0
   -7.5049    5.8423  -18.3700 C   0  0  0  0  0  0  0  0  0  0  0  0
   -6.6844    5.1588  -17.5245 N   0  0  0  0  0  0  0  0  0  0  0  0
   -7.1296    3.8962  -17.0116 C   0  0  0  0  0  0  0  0  0  0  0  0
   -8.6503    3.7325  -16.7716 C   0  0  0  0  0  0  0  0  0  0  0  0
   -9.5145    4.7921  -17.4332 C   0  0  0  0  0  0  0  0  0  0  0  0
   -8.8472    5.2563  -18.7162 C   0  0  2  0  0  0  0  0  0  0  0  0
   -8.7650    4.0855  -19.6905 C   0  0  0  0  0  0  0  0  0  0  0  0
   -7.7061    6.6289  -10.6899 C   0  0  0  0  0  0  0  0  0  0  0  0
   -8.0695    6.2100   -9.4208 C   0  0  0  0  0  0  0  0  0  0  0  0
   -8.3556    4.9356   -9.0929 N   0  0  0  0  0  0  0  0  0  0  0  0
  1  2  1  0
  2  3  1  0
  3  4  2  0
  4  5  1  0
  5  6  1  0
  6  7  1  0
  6  8  1  0
  6  9  1  0
  9 10  1  0
 10 11  1  0
 11 12  2  0
 11 13  1  0
 13 14  1  0
 14 15  2  0
 15 16  1  0
 16 17  2  0
 17 18  1  0
 18 19  1  0
 19 20  1  0
 20 21  1  0
 21 22  1  0
 22 23  1  6
  5 24  2  0
 24 25  1  0
 25 26  2  0
 26  3  1  0
 18 14  1  0
 22 17  1  0
M  END
>  <fragmenstein_outcome>  (710) 
nan

>  <exports>  (710) 
['/opt/xchem-fragalysis-2/maxwin/openbind-hippo/xx01zvns2b/cycle_01/syndirella/elabs/openbind_xx01zvns2b_c1_elab_chemspace_filtered.sdf']

>  <Energy>  (710) 
nan

>  <alias>  (710) 
None

>  <fragmenstein_runtime>  (710) 
nan

>  <scratch_subdir>  (710) 
nan

>  <HIPPO Compound ID>  (710) 
149092

>  <rmsd(smina/fragmenstein)>  (710) 
1.037

>  <distance_score>  (710) 
1.661279

>  <orig_smiles>  (710) 
nan

>  <fragmenstein_mode>  (710) 
nan

>  <inchikey>  (710) 
HCBBLPUOPCMYRH-AWEZNQCLSA-N

>  <ref_pdb>  (710) 
Z0800a

>  <GNINA pK>  (710) 
nan

>  <gnina_score_min>  (710) 
5.343

>  <tags>  (710) 
openbind_xx01zvns2b_c1_elab_nonasap_filtered_scored_top80percent,openbind_xx01zvns2b_c1_elab_chemspace_filtered_scored_top80percent,openbind_xx01zvns2b_c1_elab_chemspace_filtered_scored,openbind_xx01zvns2b_c1_elab_chemspace_filtered_scored_top40percent,openbind_xx01zvns2b_c1_elab_chemspace_filtered_scored_top20percent,openbind_xx01zvns2b_c1_elab_chemspace_filtered_scored_top60percent,openbind_xx01zvns2b_c1_elabs_filtered

>  <smiles>  (710) 
COc1cc(C(C)(C)CNC(=O)Cc2cnc3n2CCC[C@@H]3C)ccn1

>  <subsites>  (710) 
1 - Z4590/B/203/1

>  <gnina_score>  (710) 
5.603

>  <HIPPO Pose ID>  (710) 
74983

>  <ref_mols>  (710) 
Z1495a,Z0800a

>  <energy_score>  (710) 
-16.876464

>  <inspiration_score>  (710) 
None

>  <smina_score_min>  (710) 
-4.608

>  <fragmenstein_error>  (710) 
nan

>  <name>  (710) 
P74983

$$$$
P74984
     RDKit          3D

 26 29  0  0  0  0  0  0  0  0999 V2000
   -9.9272    5.1887  -17.8520 C   0  0  0  0  0  0  0  0  0  0  0  0
   -8.5007    4.7184  -18.0203 C   0  0  1  0  0  0  0  0  0  0  0  0
   -8.3919    3.9874  -19.3466 C   0  0  0  0  0  0  0  0  0  0  0  0
   -6.9963    4.0418  -19.9483 C   0  0  0  0  0  0  0  0  0  0  0  0
   -5.8722    4.2264  -18.9503 C   0  0  0  0  0  0  0  0  0  0  0  0
   -6.1142    5.4044  -18.1693 N   0  0  0  0  0  0  0  0  0  0  0  0
   -5.2492    6.1574  -17.4304 C   0  0  0  0  0  0  0  0  0  0  0  0
   -3.8572    5.7870  -17.0452 C   0  0  0  0  0  0  0  0  0  0  0  0
   -3.6854    5.8157  -15.4974 C   0  0  0  0  0  0  0  0  0  0  0  0
   -2.7252    6.2525  -14.9921 O   0  0  0  0  0  0  0  0  0  0  0  0
   -4.9515    5.1678  -14.8651 N   0  0  0  0  0  0  0  0  0  0  0  0
   -5.3341    5.0128  -13.4793 C   0  0  0  0  0  0  0  0  0  0  0  0
   -6.8565    4.7896  -13.3647 C   0  0  0  0  0  0  0  0  0  0  0  0
   -7.2638    4.6552  -11.8036 C   0  0  0  0  0  0  0  0  0  0  0  0
   -7.3782    5.7947  -10.9873 C   0  0  0  0  0  0  0  0  0  0  0  0
   -7.8305    5.6688   -9.6862 C   0  0  0  0  0  0  0  0  0  0  0  0
   -8.1716    4.4957   -9.1259 N   0  0  0  0  0  0  0  0  0  0  0  0
   -8.0686    3.4052   -9.9049 C   0  0  0  0  0  0  0  0  0  0  0  0
   -8.4469    2.2391   -9.3129 O   0  0  0  0  0  0  0  0  0  0  0  0
   -7.6180    3.4301  -11.2114 C   0  0  0  0  0  0  0  0  0  0  0  0
   -7.4465    3.6858  -14.3261 C   0  0  0  0  0  0  0  0  0  0  0  0
   -8.7172    4.5415  -14.3864 C   0  0  0  0  0  0  0  0  0  0  0  0
   -7.8432    5.7684  -14.1134 C   0  0  0  0  0  0  0  0  0  0  0  0
   -6.0428    7.1928  -16.9990 C   0  0  0  0  0  0  0  0  0  0  0  0
   -7.3647    6.8838  -17.1880 N   0  0  0  0  0  0  0  0  0  0  0  0
   -7.3979    5.7322  -17.8180 C   0  0  0  0  0  0  0  0  0  0  0  0
  2  1  1  6
  2  3  1  0
  3  4  1  0
  4  5  1  0
  5  6  1  0
  6  7  1  0
  7  8  1  0
  8  9  1  0
  9 10  2  0
  9 11  1  0
 11 12  1  0
 12 13  1  0
 13 14  1  0
 14 15  2  0
 15 16  1  0
 16 17  2  0
 17 18  1  0
 18 19  1  0
 18 20  2  0
 13 21  1  0
 21 22  1  0
 22 23  1  0
  7 24  2  0
 24 25  1  0
 25 26  2  0
 26  2  1  0
 26  6  1  0
 23 13  1  0
 20 14  1  0
M  END
>  <fragmenstein_outcome>  (711) 
nan

>  <exports>  (711) 
['/opt/xchem-fragalysis-2/maxwin/openbind-hippo/xx01zvns2b/cycle_01/syndirella/elabs/openbind_xx01zvns2b_c1_elab_chemspace_filtered.sdf']

>  <Energy>  (711) 
nan

>  <alias>  (711) 
None

>  <fragmenstein_runtime>  (711) 
nan

>  <scratch_subdir>  (711) 
nan

>  <HIPPO Compound ID>  (711) 
149100

>  <rmsd(smina/fragmenstein)>  (711) 
1.602

>  <distance_score>  (711) 
1.424155

>  <orig_smiles>  (711) 
nan

>  <fragmenstein_mode>  (711) 
nan

>  <inchikey>  (711) 
YZPCHDFUPTUGFO-AWEZNQCLSA-N

>  <ref_pdb>  (711) 
Z0800a

>  <GNINA pK>  (711) 
nan

>  <gnina_score_min>  (711) 
5.178

>  <tags>  (711) 
openbind_xx01zvns2b_c1_elab_nonasap_filtered_scored_top80percent,openbind_xx01zvns2b_c1_elab_chemspace_filtered_scored_top80percent,openbind_xx01zvns2b_c1_elab_chemspace_filtered_scored,openbind_xx01zvns2b_c1_elab_chemspace_filtered_scored_top40percent,openbind_xx01zvns2b_c1_elab_chemspace_filtered_scored_top20percent,openbind_xx01zvns2b_c1_elab_chemspace_filtered_scored_top60percent,openbind_xx01zvns2b_c1_elabs_filtered

>  <smiles>  (711) 
C[C@H]1CCCn2c(CC(=O)NCC3(c4ccnc(O)c4)CCC3)cnc21

>  <subsites>  (711) 
1 - Z4590/B/203/1

>  <gnina_score>  (711) 
5.387

>  <HIPPO Pose ID>  (711) 
74984

>  <ref_mols>  (711) 
Z0800a,Z1495a

>  <energy_score>  (711) 
-34.364494

>  <inspiration_score>  (711) 
None

>  <smina_score_min>  (711) 
-5.563

>  <fragmenstein_error>  (711) 
nan

>  <name>  (711) 
P74984

$$$$
P74985
     RDKit          3D

 26 28  0  0  0  0  0  0  0  0999 V2000
   -5.1331    9.1827  -10.4744 C   0  0  0  0  0  0  0  0  0  0  0  0
   -5.9728    8.8449  -11.5795 O   0  0  0  0  0  0  0  0  0  0  0  0
   -5.5675    7.7330  -12.2606 C   0  0  0  0  0  0  0  0  0  0  0  0
   -4.5935    7.0484  -11.9694 O   0  0  0  0  0  0  0  0  0  0  0  0
   -6.5059    7.4665  -13.4384 C   0  0  2  0  0  0  0  0  0  0  0  0
   -7.8993    6.9336  -13.0598 C   0  0  0  0  0  0  0  0  0  0  0  0
   -7.9353    5.8859  -11.9794 C   0  0  0  0  0  0  0  0  0  0  0  0
   -7.9779    4.5148  -12.2420 C   0  0  0  0  0  0  0  0  0  0  0  0
   -8.0144    3.6390  -11.1637 C   0  0  0  0  0  0  0  0  0  0  0  0
   -7.9905    4.0350   -9.8724 N   0  0  0  0  0  0  0  0  0  0  0  0
   -7.9740    5.3586   -9.6428 C   0  0  0  0  0  0  0  0  0  0  0  0
   -7.9518    6.3071  -10.6458 C   0  0  0  0  0  0  0  0  0  0  0  0
   -5.8646    6.6043  -14.4065 N   0  0  0  0  0  0  0  0  0  0  0  0
   -5.1706    6.9423  -15.7532 C   0  0  0  0  0  0  0  0  0  0  0  0
   -5.0785    7.9575  -16.3227 O   0  0  0  0  0  0  0  0  0  0  0  0
   -4.6657    5.6177  -16.3309 C   0  0  0  0  0  0  0  0  0  0  0  0
   -5.5822    5.1186  -17.4033 C   0  0  0  0  0  0  0  0  0  0  0  0
   -5.2758    4.6598  -18.6618 C   0  0  0  0  0  0  0  0  0  0  0  0
   -6.3927    4.2433  -19.3316 N   0  0  0  0  0  0  0  0  0  0  0  0
   -7.4061    4.4598  -18.5334 C   0  0  0  0  0  0  0  0  0  0  0  0
   -6.9546    5.0047  -17.3585 N   0  0  0  0  0  0  0  0  0  0  0  0
   -7.8446    5.4978  -16.3420 C   0  0  0  0  0  0  0  0  0  0  0  0
   -9.3239    5.3077  -16.6162 C   0  0  0  0  0  0  0  0  0  0  0  0
   -9.6569    5.3478  -18.1116 C   0  0  0  0  0  0  0  0  0  0  0  0
   -8.8669    4.2924  -18.8356 C   0  0  2  0  0  0  0  0  0  0  0  0
   -9.4626    2.9977  -18.3831 C   0  0  0  0  0  0  0  0  0  0  0  0
  1  2  1  0
  2  3  1  0
  3  4  2  0
  3  5  1  0
  5  6  1  1
  6  7  1  0
  7  8  2  0
  8  9  1  0
  9 10  2  0
 10 11  1  0
 11 12  2  0
  5 13  1  0
 13 14  1  0
 14 15  2  0
 14 16  1  0
 16 17  1  0
 17 18  2  0
 18 19  1  0
 19 20  2  0
 20 21  1  0
 21 22  1  0
 22 23  1  0
 23 24  1  0
 24 25  1  0
 25 26  1  1
 12  7  1  0
 21 17  1  0
 25 20  1  0
M  END
>  <fragmenstein_outcome>  (712) 
nan

>  <exports>  (712) 
['/opt/xchem-fragalysis-2/maxwin/openbind-hippo/xx01zvns2b/cycle_01/syndirella/elabs/openbind_xx01zvns2b_c1_elab_chemspace_filtered.sdf']

>  <Energy>  (712) 
nan

>  <alias>  (712) 
None

>  <fragmenstein_runtime>  (712) 
nan

>  <scratch_subdir>  (712) 
nan

>  <HIPPO Compound ID>  (712) 
149102

>  <rmsd(smina/fragmenstein)>  (712) 
2.425

>  <distance_score>  (712) 
1.875685

>  <orig_smiles>  (712) 
nan

>  <fragmenstein_mode>  (712) 
nan

>  <inchikey>  (712) 
HXLQRHZEVUGAFD-BBRMVZONSA-N

>  <ref_pdb>  (712) 
Z0800a

>  <GNINA pK>  (712) 
nan

>  <gnina_score_min>  (712) 
5.308

>  <tags>  (712) 
openbind_xx01zvns2b_c1_elab_nonasap_filtered_scored_top80percent,openbind_xx01zvns2b_c1_elab_chemspace_filtered_scored_top80percent,openbind_xx01zvns2b_c1_elab_chemspace_filtered_scored,openbind_xx01zvns2b_c1_elab_chemspace_filtered_scored_top40percent,openbind_xx01zvns2b_c1_elab_chemspace_filtered_scored_top20percent,openbind_xx01zvns2b_c1_elab_chemspace_filtered_scored_top60percent,openbind_xx01zvns2b_c1_elabs_filtered

>  <smiles>  (712) 
COC(=O)[C@H](Cc1ccncc1)NC(=O)Cc1cnc2n1CCC[C@@H]2C

>  <subsites>  (712) 
1 - Z4590/B/203/1

>  <gnina_score>  (712) 
5.58

>  <HIPPO Pose ID>  (712) 
74985

>  <ref_mols>  (712) 
Z0800a,Z1495a

>  <energy_score>  (712) 
-0.201258

>  <inspiration_score>  (712) 
None

>  <smina_score_min>  (712) 
-4.968

>  <fragmenstein_error>  (712) 
nan

>  <name>  (712) 
P74985

$$$$
P74988
     RDKit          3D

 26 28  0  0  0  0  0  0  0  0999 V2000
   -8.6487    2.3672   -8.6117 C   0  0  0  0  0  0  0  0  0  0  0  0
   -8.6358    2.6841   -9.9982 O   0  0  0  0  0  0  0  0  0  0  0  0
   -8.3623    4.0111  -10.2386 C   0  0  0  0  0  0  0  0  0  0  0  0
   -8.1372    4.3605  -11.5590 C   0  0  0  0  0  0  0  0  0  0  0  0
   -7.8270    5.6956  -11.8757 C   0  0  0  0  0  0  0  0  0  0  0  0
   -7.3924    6.0707  -13.2950 C   0  0  0  0  0  0  0  0  0  0  0  0
   -8.4788    5.6447  -14.2965 C   0  0  0  0  0  0  0  0  0  0  0  0
   -7.1817    7.5929  -13.4944 C   0  0  0  0  0  0  0  0  0  0  0  0
   -6.0328    5.3399  -13.4955 C   0  0  0  0  0  0  0  0  0  0  0  0
   -5.4317    5.5066  -14.7830 N   0  0  0  0  0  0  0  0  0  0  0  0
   -4.4288    4.6058  -15.5503 C   0  0  0  0  0  0  0  0  0  0  0  0
   -3.8804    3.6294  -15.2174 O   0  0  0  0  0  0  0  0  0  0  0  0
   -4.2560    5.1732  -16.9583 C   0  0  0  0  0  0  0  0  0  0  0  0
   -5.4953    5.7654  -17.5433 C   0  0  0  0  0  0  0  0  0  0  0  0
   -5.7116    7.0166  -18.0866 C   0  0  0  0  0  0  0  0  0  0  0  0
   -4.7746    8.1543  -18.2175 C   0  0  0  0  0  0  0  0  0  0  0  0
   -6.9872    7.1141  -18.5810 N   0  0  0  0  0  0  0  0  0  0  0  0
   -7.5292    5.9303  -18.4095 C   0  0  0  0  0  0  0  0  0  0  0  0
   -6.7215    5.1624  -17.6388 N   0  0  0  0  0  0  0  0  0  0  0  0
   -7.1832    3.8772  -17.2001 C   0  0  0  0  0  0  0  0  0  0  0  0
   -8.7107    3.6512  -17.1079 C   0  0  0  0  0  0  0  0  0  0  0  0
   -9.5662    4.7506  -17.6883 C   0  0  0  0  0  0  0  0  0  0  0  0
   -8.8309    5.3536  -18.8561 C   0  0  0  0  0  0  0  0  0  0  0  0
   -7.8152    6.6163  -10.8253 C   0  0  0  0  0  0  0  0  0  0  0  0
   -8.0636    6.1710   -9.5384 C   0  0  0  0  0  0  0  0  0  0  0  0
   -8.3249    4.8922   -9.2192 N   0  0  0  0  0  0  0  0  0  0  0  0
  1  2  1  0
  2  3  1  0
  3  4  2  0
  4  5  1  0
  5  6  1  0
  6  7  1  0
  6  8  1  0
  6  9  1  0
  9 10  1  0
 10 11  1  0
 11 12  2  0
 11 13  1  0
 13 14  1  0
 14 15  2  0
 15 16  1  0
 15 17  1  0
 17 18  2  0
 18 19  1  0
 19 20  1  0
 20 21  1  0
 21 22  1  0
 22 23  1  0
  5 24  2  0
 24 25  1  0
 25 26  2  0
 26  3  1  0
 19 14  1  0
 23 18  1  0
M  END
>  <fragmenstein_outcome>  (713) 
nan

>  <exports>  (713) 
['/opt/xchem-fragalysis-2/maxwin/openbind-hippo/xx01zvns2b/cycle_01/syndirella/elabs/openbind_xx01zvns2b_c1_elab_chemspace_filtered.sdf']

>  <Energy>  (713) 
nan

>  <alias>  (713) 
None

>  <fragmenstein_runtime>  (713) 
nan

>  <scratch_subdir>  (713) 
nan

>  <HIPPO Compound ID>  (713) 
149111

>  <rmsd(smina/fragmenstein)>  (713) 
0.869

>  <distance_score>  (713) 
1.449402

>  <orig_smiles>  (713) 
nan

>  <fragmenstein_mode>  (713) 
nan

>  <inchikey>  (713) 
MJFVDAGGTOXGHJ-UHFFFAOYSA-N

>  <ref_pdb>  (713) 
Z0800a

>  <GNINA pK>  (713) 
nan

>  <gnina_score_min>  (713) 
5.454

>  <tags>  (713) 
openbind_xx01zvns2b_c1_elab_nonasap_filtered_scored_top80percent,openbind_xx01zvns2b_c1_elab_chemspace_filtered_scored_top80percent,openbind_xx01zvns2b_c1_elab_chemspace_filtered_scored,openbind_xx01zvns2b_c1_elab_chemspace_filtered_scored_top40percent,openbind_xx01zvns2b_c1_elab_chemspace_filtered_scored_top20percent,openbind_xx01zvns2b_c1_elab_chemspace_filtered_scored_top60percent,openbind_xx01zvns2b_c1_elabs_filtered

>  <smiles>  (713) 
COc1cc(C(C)(C)CNC(=O)Cc2c(C)nc3n2CCCC3)ccn1

>  <subsites>  (713) 
1 - Z4590/B/203/1

>  <gnina_score>  (713) 
5.415

>  <HIPPO Pose ID>  (713) 
74988

>  <ref_mols>  (713) 
Z1495a,Z0800a

>  <energy_score>  (713) 
-25.049157

>  <inspiration_score>  (713) 
None

>  <smina_score_min>  (713) 
-4.479

>  <fragmenstein_error>  (713) 
nan

>  <name>  (713) 
P74988

$$$$
P74992
     RDKit          3D

 26 29  0  0  0  0  0  0  0  0999 V2000
   -5.6403    6.8388  -13.0893 O   0  0  0  0  0  0  0  0  0  0  0  0
   -6.6154    6.2341  -13.3108 C   0  0  0  0  0  0  0  0  0  0  0  0
   -7.0782    5.5083  -14.6064 N   0  0  0  0  0  0  0  0  0  0  0  0
   -6.4730    5.4599  -15.9325 C   0  0  1  0  0  0  0  0  0  0  0  0
   -4.9446    5.3394  -15.9800 C   0  0  0  0  0  0  0  0  0  0  0  0
   -4.3348    5.3938  -17.3751 C   0  0  0  0  0  0  0  0  0  0  0  0
   -5.0064    5.8955  -18.4934 C   0  0  0  0  0  0  0  0  0  0  0  0
   -4.4038    5.8271  -19.7368 C   0  0  0  0  0  0  0  0  0  0  0  0
   -3.1471    5.3683  -19.9485 N   0  0  0  0  0  0  0  0  0  0  0  0
   -2.4906    4.9394  -18.8486 C   0  0  0  0  0  0  0  0  0  0  0  0
   -3.0318    4.9280  -17.5678 C   0  0  0  0  0  0  0  0  0  0  0  0
   -7.1507    4.3012  -16.6879 C   0  0  0  0  0  0  0  0  0  0  0  0
   -8.4632    4.7771  -17.2818 C   0  0  0  0  0  0  0  0  0  0  0  0
   -8.3889    5.1210  -18.7642 C   0  0  0  0  0  0  0  0  0  0  0  0
   -9.7047    4.6338  -19.3590 C   0  0  0  0  0  0  0  0  0  0  0  0
  -10.5740    4.3255  -18.1666 C   0  0  0  0  0  0  0  0  0  0  0  0
   -9.5573    3.7535  -17.2089 C   0  0  0  0  0  0  0  0  0  0  0  0
   -7.8036    6.0990  -12.3130 C   0  0  2  0  0  0  0  0  0  0  0  0
   -7.7756    7.2042  -11.2420 C   0  0  0  0  0  0  0  0  0  0  0  0
   -6.9955    6.7975   -9.9920 C   0  0  0  0  0  0  0  0  0  0  0  0
   -7.5956    5.5503   -9.3547 C   0  0  0  0  0  0  0  0  0  0  0  0
   -7.8403    4.5263  -10.3389 N   0  0  0  0  0  0  0  0  0  0  0  0
   -8.0920    3.2166  -10.0792 C   0  0  0  0  0  0  0  0  0  0  0  0
   -8.2902    2.5637  -11.1972 N   0  0  0  0  0  0  0  0  0  0  0  0
   -8.1337    3.4742  -12.2016 C   0  0  0  0  0  0  0  0  0  0  0  0
   -7.9075    4.7350  -11.6984 C   0  0  0  0  0  0  0  0  0  0  0  0
  1  2  2  0
  2  3  1  0
  3  4  1  0
  4  5  1  1
  5  6  1  0
  6  7  2  0
  7  8  1  0
  8  9  2  0
  9 10  1  0
 10 11  2  0
  4 12  1  0
 12 13  1  0
 13 14  1  0
 14 15  1  0
 15 16  1  0
 16 17  1  0
 18  2  1  1
 18 19  1  0
 19 20  1  0
 20 21  1  0
 21 22  1  0
 22 23  1  0
 23 24  2  0
 24 25  1  0
 25 26  2  0
 11  6  1  0
 17 13  1  0
 26 18  1  0
 26 22  1  0
M  END
>  <fragmenstein_outcome>  (714) 
nan

>  <exports>  (714) 
['/opt/xchem-fragalysis-2/maxwin/openbind-hippo/xx01zvns2b/cycle_01/syndirella/elabs/openbind_xx01zvns2b_c1_elab_chemspace_filtered.sdf']

>  <Energy>  (714) 
nan

>  <alias>  (714) 
None

>  <fragmenstein_runtime>  (714) 
nan

>  <scratch_subdir>  (714) 
nan

>  <HIPPO Compound ID>  (714) 
149119

>  <rmsd(smina/fragmenstein)>  (714) 
1.054

>  <distance_score>  (714) 
1.671714

>  <orig_smiles>  (714) 
nan

>  <fragmenstein_mode>  (714) 
nan

>  <inchikey>  (714) 
LRFPDMCTDVDCKL-RTBURBONSA-N

>  <ref_pdb>  (714) 
Z0800a

>  <GNINA pK>  (714) 
nan

>  <gnina_score_min>  (714) 
5.811

>  <tags>  (714) 
openbind_xx01zvns2b_c1_elab_nonasap_filtered_scored_top80percent,openbind_xx01zvns2b_c1_elab_chemspace_filtered_scored_top80percent,openbind_xx01zvns2b_c1_elab_chemspace_filtered_scored,openbind_xx01zvns2b_c1_elab_chemspace_filtered_scored_top40percent,openbind_xx01zvns2b_c1_elab_chemspace_filtered_scored_top20percent,openbind_xx01zvns2b_c1_elab_chemspace_filtered_scored_top60percent,openbind_xx01zvns2b_c1_elabs_filtered

>  <smiles>  (714) 
O=C(N[C@@H](Cc1ccncc1)CC1CCCC1)[C@@H]1CCCn2cncc21

>  <subsites>  (714) 
1 - Z4590/B/203/1

>  <gnina_score>  (714) 
5.709

>  <HIPPO Pose ID>  (714) 
74992

>  <ref_mols>  (714) 
Z1495a,Z0800a

>  <energy_score>  (714) 
-7.991862

>  <inspiration_score>  (714) 
None

>  <smina_score_min>  (714) 
-5.813

>  <fragmenstein_error>  (714) 
nan

>  <name>  (714) 
P74992

$$$$
P74994
     RDKit          3D

 26 29  0  0  0  0  0  0  0  0999 V2000
   -9.1078    2.5980  -10.3608 C   0  0  0  0  0  0  0  0  0  0  0  0
   -7.7980    3.0198  -10.7600 N   0  0  0  0  0  0  0  0  0  0  0  0
   -6.6490    2.4356  -10.2981 C   0  0  0  0  0  0  0  0  0  0  0  0
   -5.6011    3.1920  -10.5403 N   0  0  0  0  0  0  0  0  0  0  0  0
   -6.1211    4.2904  -11.1181 C   0  0  0  0  0  0  0  0  0  0  0  0
   -7.4373    4.1637  -11.4404 C   0  0  0  0  0  0  0  0  0  0  0  0
   -8.2265    5.2826  -12.0062 C   0  0  2  0  0  0  0  0  0  0  0  0
   -8.6297    5.2323  -13.5177 C   0  0  0  0  0  0  0  0  0  0  0  0
   -9.6677    4.7717  -13.7841 O   0  0  0  0  0  0  0  0  0  0  0  0
   -7.5790    5.9196  -14.4187 N   0  0  0  0  0  0  0  0  0  0  0  0
   -7.6294    6.2719  -15.8337 C   0  0  0  0  0  0  0  0  0  0  0  0
   -7.3896    5.1463  -16.8967 C   0  0  0  0  0  0  0  0  0  0  0  0
   -5.9135    4.8165  -16.8058 C   0  0  0  0  0  0  0  0  0  0  0  0
   -4.9838    5.2809  -17.7450 C   0  0  0  0  0  0  0  0  0  0  0  0
   -3.6411    5.0770  -17.5073 C   0  0  0  0  0  0  0  0  0  0  0  0
   -3.1588    4.4710  -16.4064 N   0  0  0  0  0  0  0  0  0  0  0  0
   -4.0576    4.0238  -15.5100 C   0  0  0  0  0  0  0  0  0  0  0  0
   -5.4241    4.1610  -15.6710 C   0  0  0  0  0  0  0  0  0  0  0  0
   -8.3486    3.9650  -16.7095 C   0  0  0  0  0  0  0  0  0  0  0  0
   -9.6413    4.4278  -17.3447 C   0  0  0  0  0  0  0  0  0  0  0  0
   -9.1846    5.0370  -18.6386 C   0  0  0  0  0  0  0  0  0  0  0  0
   -7.7850    5.5770  -18.3466 C   0  0  0  0  0  0  0  0  0  0  0  0
   -7.6306    6.6247  -11.5763 C   0  0  0  0  0  0  0  0  0  0  0  0
   -6.1106    6.6343  -11.5494 C   0  0  0  0  0  0  0  0  0  0  0  0
   -5.4845    7.6776  -11.7371 O   0  0  0  0  0  0  0  0  0  0  0  0
   -5.4605    5.4654  -11.2667 N   0  0  0  0  0  0  0  0  0  0  0  0
  1  2  1  0
  2  3  1  0
  3  4  2  0
  4  5  1  0
  5  6  2  0
  6  7  1  0
  7  8  1  6
  8  9  2  0
  8 10  1  0
 10 11  1  0
 11 12  1  0
 12 13  1  0
 13 14  2  0
 14 15  1  0
 15 16  2  0
 16 17  1  0
 17 18  2  0
 12 19  1  0
 19 20  1  0
 20 21  1  0
 21 22  1  0
  7 23  1  0
 23 24  1  0
 24 25  2  0
 24 26  1  0
  6  2  1  0
 22 12  1  0
 26  5  1  0
 18 13  1  0
M  END
>  <fragmenstein_outcome>  (715) 
nan

>  <exports>  (715) 
['/opt/xchem-fragalysis-2/maxwin/openbind-hippo/xx01zvns2b/cycle_01/syndirella/elabs/openbind_xx01zvns2b_c1_elab_chemspace_filtered.sdf']

>  <Energy>  (715) 
nan

>  <alias>  (715) 
None

>  <fragmenstein_runtime>  (715) 
nan

>  <scratch_subdir>  (715) 
nan

>  <HIPPO Compound ID>  (715) 
149121

>  <rmsd(smina/fragmenstein)>  (715) 
1.173

>  <distance_score>  (715) 
1.999095

>  <orig_smiles>  (715) 
nan

>  <fragmenstein_mode>  (715) 
nan

>  <inchikey>  (715) 
XLCUCIHNGHIYNO-CQSZACIVSA-N

>  <ref_pdb>  (715) 
Z0800a

>  <GNINA pK>  (715) 
nan

>  <gnina_score_min>  (715) 
5.387

>  <tags>  (715) 
openbind_xx01zvns2b_c1_elab_nonasap_filtered_scored_top80percent,openbind_xx01zvns2b_c1_elab_chemspace_filtered_scored_top80percent,openbind_xx01zvns2b_c1_elab_chemspace_filtered_scored,openbind_xx01zvns2b_c1_elab_chemspace_filtered_scored_top40percent,openbind_xx01zvns2b_c1_elab_chemspace_filtered_scored_top20percent,openbind_xx01zvns2b_c1_elab_chemspace_filtered_scored_top60percent,openbind_xx01zvns2b_c1_elabs_filtered

>  <smiles>  (715) 
Cn1cnc2c1[C@H](C(=O)NCC1(c3ccncc3)CCCC1)CC(=O)N2

>  <subsites>  (715) 
1 - Z4590/B/203/1

>  <gnina_score>  (715) 
5.671

>  <HIPPO Pose ID>  (715) 
74994

>  <ref_mols>  (715) 
Z0800a,Z1495a

>  <energy_score>  (715) 
-34.078055

>  <inspiration_score>  (715) 
None

>  <smina_score_min>  (715) 
-5.977

>  <fragmenstein_error>  (715) 
nan

>  <name>  (715) 
P74994

$$$$
P74995
     RDKit          3D

 26 29  0  0  0  0  0  0  0  0999 V2000
   -6.5222    2.0191  -11.3584 C   0  0  0  0  0  0  0  0  0  0  0  0
   -7.2678    2.9713  -10.5790 N   0  0  0  0  0  0  0  0  0  0  0  0
   -7.9227    2.7060   -9.4033 C   0  0  0  0  0  0  0  0  0  0  0  0
   -8.4302    3.8005   -8.8774 N   0  0  0  0  0  0  0  0  0  0  0  0
   -8.0893    4.7739   -9.7499 C   0  0  0  0  0  0  0  0  0  0  0  0
   -7.4060    4.3107  -10.8330 C   0  0  0  0  0  0  0  0  0  0  0  0
   -6.9401    5.1640  -11.9579 C   0  0  1  0  0  0  0  0  0  0  0  0
   -7.8566    4.9540  -13.1754 C   0  0  0  0  0  0  0  0  0  0  0  0
   -8.9840    5.2524  -13.1842 O   0  0  0  0  0  0  0  0  0  0  0  0
   -7.0058    4.2157  -14.2381 N   0  0  0  0  0  0  0  0  0  0  0  0
   -7.3872    3.6133  -15.4798 C   0  0  0  0  0  0  0  0  0  0  0  0
   -7.8110    4.5463  -16.6115 C   0  0  0  0  0  0  0  0  0  0  0  0
   -6.5535    5.3221  -17.1920 C   0  0  0  0  0  0  0  0  0  0  0  0
   -5.9598    5.0125  -18.4282 C   0  0  0  0  0  0  0  0  0  0  0  0
   -4.8172    5.6770  -18.8394 C   0  0  0  0  0  0  0  0  0  0  0  0
   -4.1999    6.6292  -18.1133 N   0  0  0  0  0  0  0  0  0  0  0  0
   -4.7854    6.9566  -16.9458 C   0  0  0  0  0  0  0  0  0  0  0  0
   -5.9324    6.3474  -16.4676 C   0  0  0  0  0  0  0  0  0  0  0  0
   -6.4284    6.7526  -15.2899 F   0  0  0  0  0  0  0  0  0  0  0  0
   -9.0777    5.3539  -16.2720 C   0  0  0  0  0  0  0  0  0  0  0  0
   -9.5983    5.0700  -17.7012 C   0  0  0  0  0  0  0  0  0  0  0  0
   -8.7453    3.8053  -17.6637 C   0  0  0  0  0  0  0  0  0  0  0  0
   -6.9870    6.6457  -11.5730 C   0  0  0  0  0  0  0  0  0  0  0  0
   -7.9800    7.0352  -10.4872 C   0  0  0  0  0  0  0  0  0  0  0  0
   -8.3330    8.2093  -10.3613 O   0  0  0  0  0  0  0  0  0  0  0  0
   -8.3627    6.0898   -9.5832 N   0  0  0  0  0  0  0  0  0  0  0  0
  1  2  1  0
  2  3  1  0
  3  4  2  0
  4  5  1  0
  5  6  2  0
  6  7  1  0
  7  8  1  6
  8  9  2  0
  8 10  1  0
 10 11  1  0
 11 12  1  0
 12 13  1  0
 13 14  2  0
 14 15  1  0
 15 16  2  0
 16 17  1  0
 17 18  2  0
 18 19  1  0
 12 20  1  0
 20 21  1  0
 21 22  1  0
  7 23  1  0
 23 24  1  0
 24 25  2  0
 24 26  1  0
  6  2  1  0
 22 12  1  0
 26  5  1  0
 18 13  1  0
M  END
>  <fragmenstein_outcome>  (716) 
nan

>  <exports>  (716) 
['/opt/xchem-fragalysis-2/maxwin/openbind-hippo/xx01zvns2b/cycle_01/syndirella/elabs/openbind_xx01zvns2b_c1_elab_chemspace_filtered.sdf']

>  <Energy>  (716) 
nan

>  <alias>  (716) 
None

>  <fragmenstein_runtime>  (716) 
nan

>  <scratch_subdir>  (716) 
nan

>  <HIPPO Compound ID>  (716) 
149122

>  <rmsd(smina/fragmenstein)>  (716) 
0.688

>  <distance_score>  (716) 
1.654147

>  <orig_smiles>  (716) 
nan

>  <fragmenstein_mode>  (716) 
nan

>  <inchikey>  (716) 
INZAQRHZSSKEQH-NSHDSACASA-N

>  <ref_pdb>  (716) 
Z0800a

>  <GNINA pK>  (716) 
nan

>  <gnina_score_min>  (716) 
5.617

>  <tags>  (716) 
openbind_xx01zvns2b_c1_elab_nonasap_filtered_scored_top80percent,openbind_xx01zvns2b_c1_elab_chemspace_filtered_scored_top80percent,openbind_xx01zvns2b_c1_elab_chemspace_filtered_scored,openbind_xx01zvns2b_c1_elab_chemspace_filtered_scored_top40percent,openbind_xx01zvns2b_c1_elab_chemspace_filtered_scored_top20percent,openbind_xx01zvns2b_c1_elab_chemspace_filtered_scored_top60percent,openbind_xx01zvns2b_c1_elabs_filtered

>  <smiles>  (716) 
Cn1cnc2c1[C@@H](C(=O)NCC1(c3ccncc3F)CCC1)CC(=O)N2

>  <subsites>  (716) 
1 - Z4590/B/203/1

>  <gnina_score>  (716) 
5.782

>  <HIPPO Pose ID>  (716) 
74995

>  <ref_mols>  (716) 
Z1495a,Z0800a

>  <energy_score>  (716) 
-38.362128

>  <inspiration_score>  (716) 
None

>  <smina_score_min>  (716) 
-5.521

>  <fragmenstein_error>  (716) 
nan

>  <name>  (716) 
P74995

$$$$
P74999
     RDKit          3D

 26 28  0  0  0  0  0  0  0  0999 V2000
   -5.1846    7.1248  -12.7570 C   0  0  0  0  0  0  0  0  0  0  0  0
   -5.9130    6.1263  -13.6718 C   0  0  0  0  0  0  0  0  0  0  0  0
   -5.2340    4.7519  -13.5205 C   0  0  0  0  0  0  0  0  0  0  0  0
   -7.4406    6.0576  -13.3771 C   0  0  0  0  0  0  0  0  0  0  0  0
   -7.8011    5.5330  -12.0141 C   0  0  0  0  0  0  0  0  0  0  0  0
   -8.0354    4.1722  -11.7906 C   0  0  0  0  0  0  0  0  0  0  0  0
   -8.2526    3.7436  -10.4896 C   0  0  0  0  0  0  0  0  0  0  0  0
   -8.2541    4.5714   -9.4198 N   0  0  0  0  0  0  0  0  0  0  0  0
   -8.0674    5.8827   -9.6675 C   0  0  0  0  0  0  0  0  0  0  0  0
   -7.8484    6.4066  -10.9276 C   0  0  0  0  0  0  0  0  0  0  0  0
   -5.7582    6.5356  -15.0626 N   0  0  0  0  0  0  0  0  0  0  0  0
   -5.7937    7.9469  -15.7080 C   0  0  0  0  0  0  0  0  0  0  0  0
   -5.8755    9.0037  -15.2144 O   0  0  0  0  0  0  0  0  0  0  0  0
   -5.8076    7.7809  -17.2400 C   0  0  0  0  0  0  0  0  0  0  0  0
   -4.9209    6.7019  -17.7461 C   0  0  0  0  0  0  0  0  0  0  0  0
   -3.6028    6.4194  -17.4558 C   0  0  0  0  0  0  0  0  0  0  0  0
   -3.1969    5.2739  -18.0708 N   0  0  0  0  0  0  0  0  0  0  0  0
   -4.2316    4.8874  -18.7735 C   0  0  0  0  0  0  0  0  0  0  0  0
   -5.3080    5.7007  -18.5991 N   0  0  0  0  0  0  0  0  0  0  0  0
   -6.6045    5.4697  -19.2155 C   0  0  0  0  0  0  0  0  0  0  0  0
   -7.5886    4.8682  -18.2660 C   0  0  0  0  0  0  0  0  0  0  0  0
   -7.1730    4.2478  -17.0840 C   0  0  0  0  0  0  0  0  0  0  0  0
   -8.0980    3.8134  -16.1699 C   0  0  0  0  0  0  0  0  0  0  0  0
   -9.4328    3.9412  -16.4772 C   0  0  0  0  0  0  0  0  0  0  0  0
   -9.8794    4.4534  -17.6825 C   0  0  0  0  0  0  0  0  0  0  0  0
   -8.9511    4.9273  -18.5758 C   0  0  0  0  0  0  0  0  0  0  0  0
  1  2  1  0
  2  3  1  0
  2  4  1  0
  4  5  1  0
  5  6  2  0
  6  7  1  0
  7  8  2  0
  8  9  1  0
  9 10  2  0
  2 11  1  0
 11 12  1  0
 12 13  2  0
 12 14  1  0
 14 15  1  0
 15 16  2  0
 16 17  1  0
 17 18  2  0
 18 19  1  0
 19 20  1  0
 20 21  1  0
 21 22  2  0
 22 23  1  0
 23 24  2  0
 24 25  1  0
 25 26  2  0
 10  5  1  0
 19 15  1  0
 26 21  1  0
M  END
>  <fragmenstein_outcome>  (717) 
nan

>  <exports>  (717) 
['/opt/xchem-fragalysis-2/maxwin/openbind-hippo/xx01zvns2b/cycle_01/syndirella/elabs/openbind_xx01zvns2b_c1_elab_chemspace_filtered.sdf']

>  <Energy>  (717) 
nan

>  <alias>  (717) 
None

>  <fragmenstein_runtime>  (717) 
nan

>  <scratch_subdir>  (717) 
nan

>  <HIPPO Compound ID>  (717) 
149128

>  <rmsd(smina/fragmenstein)>  (717) 
0.937

>  <distance_score>  (717) 
1.808316

>  <orig_smiles>  (717) 
nan

>  <fragmenstein_mode>  (717) 
nan

>  <inchikey>  (717) 
AMHNTTMOBYHKAW-UHFFFAOYSA-N

>  <ref_pdb>  (717) 
Z0800a

>  <GNINA pK>  (717) 
nan

>  <gnina_score_min>  (717) 
5.162

>  <tags>  (717) 
openbind_xx01zvns2b_c1_elab_nonasap_filtered_scored_top80percent,openbind_xx01zvns2b_c1_elab_chemspace_filtered_scored_top80percent,openbind_xx01zvns2b_c1_elab_chemspace_filtered_scored,openbind_xx01zvns2b_c1_elab_chemspace_filtered_scored_top40percent,openbind_xx01zvns2b_c1_elab_chemspace_filtered_scored_top20percent,openbind_xx01zvns2b_c1_elab_chemspace_filtered_scored_top60percent,openbind_xx01zvns2b_c1_elabs_filtered

>  <smiles>  (717) 
CC(C)(Cc1ccncc1)NC(=O)Cc1cncn1Cc1ccccc1

>  <subsites>  (717) 
1 - Z4590/B/203/1

>  <gnina_score>  (717) 
5.278

>  <HIPPO Pose ID>  (717) 
74999

>  <ref_mols>  (717) 
Z1495a,Z0800a

>  <energy_score>  (717) 
-10.514439

>  <inspiration_score>  (717) 
None

>  <smina_score_min>  (717) 
-5.359

>  <fragmenstein_error>  (717) 
nan

>  <name>  (717) 
P74999

$$$$
P75000
     RDKit          3D

 26 28  0  0  0  0  0  0  0  0999 V2000
   -7.5084    7.3804  -15.8210 O   0  0  0  0  0  0  0  0  0  0  0  0
   -6.3795    7.0942  -15.8149 C   0  0  0  0  0  0  0  0  0  0  0  0
   -5.4367    7.6116  -16.9014 C   0  0  0  0  0  0  0  0  0  0  0  0
   -4.7577    6.5043  -17.6159 C   0  0  0  0  0  0  0  0  0  0  0  0
   -3.4592    6.0573  -17.4900 C   0  0  0  0  0  0  0  0  0  0  0  0
   -3.2276    4.9744  -18.2765 N   0  0  0  0  0  0  0  0  0  0  0  0
   -4.3554    4.7821  -18.9120 C   0  0  0  0  0  0  0  0  0  0  0  0
   -5.3206    5.6713  -18.5472 N   0  0  0  0  0  0  0  0  0  0  0  0
   -6.6606    5.6459  -19.1121 C   0  0  0  0  0  0  0  0  0  0  0  0
   -7.6507    4.9321  -18.2506 C   0  0  0  0  0  0  0  0  0  0  0  0
   -9.0066    4.9832  -18.5901 C   0  0  0  0  0  0  0  0  0  0  0  0
   -9.9500    4.4667  -17.7369 C   0  0  0  0  0  0  0  0  0  0  0  0
   -9.5199    3.9118  -16.5450 C   0  0  0  0  0  0  0  0  0  0  0  0
   -8.1939    3.7839  -16.2121 C   0  0  0  0  0  0  0  0  0  0  0  0
   -7.2595    4.2639  -17.0885 C   0  0  0  0  0  0  0  0  0  0  0  0
   -5.5629    6.2652  -14.7992 N   0  0  0  0  0  0  0  0  0  0  0  0
   -5.9860    5.5380  -13.6316 C   0  0  0  0  0  0  0  0  0  0  0  0
   -7.4612    5.7730  -13.2924 C   0  0  0  0  0  0  0  0  0  0  0  0
   -7.7822    5.2527  -11.9281 C   0  0  0  0  0  0  0  0  0  0  0  0
   -7.9487    3.8922  -11.6790 C   0  0  0  0  0  0  0  0  0  0  0  0
   -7.8420    3.0034  -12.6748 F   0  0  0  0  0  0  0  0  0  0  0  0
   -8.1748    3.4629  -10.3796 C   0  0  0  0  0  0  0  0  0  0  0  0
   -8.2298    4.3025   -9.3129 N   0  0  0  0  0  0  0  0  0  0  0  0
   -8.0756    5.6191   -9.5793 C   0  0  0  0  0  0  0  0  0  0  0  0
   -7.8554    6.1254  -10.8468 C   0  0  0  0  0  0  0  0  0  0  0  0
   -7.6831    7.4440  -11.0129 F   0  0  0  0  0  0  0  0  0  0  0  0
  1  2  2  0
  2  3  1  0
  3  4  1  0
  4  5  2  0
  5  6  1  0
  6  7  2  0
  7  8  1  0
  8  9  1  0
  9 10  1  0
 10 11  2  0
 11 12  1  0
 12 13  2  0
 13 14  1  0
 14 15  2  0
  2 16  1  0
 16 17  1  0
 17 18  1  0
 18 19  1  0
 19 20  2  0
 20 21  1  0
 20 22  1  0
 22 23  2  0
 23 24  1  0
 24 25  2  0
 25 26  1  0
  8  4  1  0
 15 10  1  0
 25 19  1  0
M  END
>  <fragmenstein_outcome>  (718) 
nan

>  <exports>  (718) 
['/opt/xchem-fragalysis-2/maxwin/openbind-hippo/xx01zvns2b/cycle_01/syndirella/elabs/openbind_xx01zvns2b_c1_elab_chemspace_filtered.sdf']

>  <Energy>  (718) 
nan

>  <alias>  (718) 
None

>  <fragmenstein_runtime>  (718) 
nan

>  <scratch_subdir>  (718) 
nan

>  <HIPPO Compound ID>  (718) 
149131

>  <rmsd(smina/fragmenstein)>  (718) 
2.263

>  <distance_score>  (718) 
1.635925

>  <orig_smiles>  (718) 
nan

>  <fragmenstein_mode>  (718) 
nan

>  <inchikey>  (718) 
ZTEMKBMIGVJXHQ-UHFFFAOYSA-N

>  <ref_pdb>  (718) 
Z0800a

>  <GNINA pK>  (718) 
nan

>  <gnina_score_min>  (718) 
5.312

>  <tags>  (718) 
openbind_xx01zvns2b_c1_elab_nonasap_filtered_scored_top80percent,openbind_xx01zvns2b_c1_elab_chemspace_filtered_scored_top80percent,openbind_xx01zvns2b_c1_elab_chemspace_filtered_scored,openbind_xx01zvns2b_c1_elab_chemspace_filtered_scored_top40percent,openbind_xx01zvns2b_c1_elab_chemspace_filtered_scored_top20percent,openbind_xx01zvns2b_c1_elab_chemspace_filtered_scored_top60percent,openbind_xx01zvns2b_c1_elabs_filtered

>  <smiles>  (718) 
O=C(Cc1cncn1Cc1ccccc1)NCCc1c(F)cncc1F

>  <subsites>  (718) 
1 - Z4590/B/203/1

>  <gnina_score>  (718) 
5.301

>  <HIPPO Pose ID>  (718) 
75000

>  <ref_mols>  (718) 
Z1495a,Z0800a

>  <energy_score>  (718) 
-1.979888

>  <inspiration_score>  (718) 
None

>  <smina_score_min>  (718) 
-5.529

>  <fragmenstein_error>  (718) 
nan

>  <name>  (718) 
P75000

$$$$
P75001
     RDKit          3D

 26 28  0  0  0  0  0  0  0  0999 V2000
   -7.3942    7.4067  -15.8484 O   0  0  0  0  0  0  0  0  0  0  0  0
   -6.2539    7.1683  -15.8415 C   0  0  0  0  0  0  0  0  0  0  0  0
   -5.3488    7.6271  -16.9833 C   0  0  0  0  0  0  0  0  0  0  0  0
   -4.7037    6.4870  -17.6769 C   0  0  0  0  0  0  0  0  0  0  0  0
   -3.4062    6.0248  -17.5855 C   0  0  0  0  0  0  0  0  0  0  0  0
   -3.1921    4.9574  -18.4037 N   0  0  0  0  0  0  0  0  0  0  0  0
   -4.3490    4.7635  -18.9858 C   0  0  0  0  0  0  0  0  0  0  0  0
   -5.3004    5.6537  -18.5860 N   0  0  0  0  0  0  0  0  0  0  0  0
   -6.6483    5.6576  -19.1342 C   0  0  0  0  0  0  0  0  0  0  0  0
   -7.6485    4.9615  -18.2708 C   0  0  0  0  0  0  0  0  0  0  0  0
   -9.0058    5.0284  -18.6087 C   0  0  0  0  0  0  0  0  0  0  0  0
   -9.9596    4.5068  -17.7697 C   0  0  0  0  0  0  0  0  0  0  0  0
   -9.5381    3.9199  -16.5935 C   0  0  0  0  0  0  0  0  0  0  0  0
   -8.2127    3.7751  -16.2678 C   0  0  0  0  0  0  0  0  0  0  0  0
   -7.2664    4.2783  -17.1183 C   0  0  0  0  0  0  0  0  0  0  0  0
   -5.3779    6.4968  -14.7595 N   0  0  0  0  0  0  0  0  0  0  0  0
   -5.7419    5.8946  -13.5019 C   0  0  0  0  0  0  0  0  0  0  0  0
   -7.2534    5.6957  -13.3390 C   0  0  0  0  0  0  0  0  0  0  0  0
   -7.6058    5.2374  -11.9478 C   0  0  0  0  0  0  0  0  0  0  0  0
   -7.5979    3.8773  -11.5907 C   0  0  0  0  0  0  0  0  0  0  0  0
   -7.1086    2.6322  -12.6773 Cl  0  0  0  0  0  0  0  0  0  0  0  0
   -7.9080    3.5193  -10.2821 C   0  0  0  0  0  0  0  0  0  0  0  0
   -8.1751    4.4126   -9.2995 N   0  0  0  0  0  0  0  0  0  0  0  0
   -8.1600    5.7145   -9.6567 C   0  0  0  0  0  0  0  0  0  0  0  0
   -7.8938    6.1711  -10.9403 C   0  0  0  0  0  0  0  0  0  0  0  0
   -7.8909    7.8780  -11.1997 Cl  0  0  0  0  0  0  0  0  0  0  0  0
  1  2  2  0
  2  3  1  0
  3  4  1  0
  4  5  2  0
  5  6  1  0
  6  7  2  0
  7  8  1  0
  8  9  1  0
  9 10  1  0
 10 11  2  0
 11 12  1  0
 12 13  2  0
 13 14  1  0
 14 15  2  0
  2 16  1  0
 16 17  1  0
 17 18  1  0
 18 19  1  0
 19 20  2  0
 20 21  1  0
 20 22  1  0
 22 23  2  0
 23 24  1  0
 24 25  2  0
 25 26  1  0
  8  4  1  0
 15 10  1  0
 25 19  1  0
M  END
>  <fragmenstein_outcome>  (719) 
nan

>  <exports>  (719) 
['/opt/xchem-fragalysis-2/maxwin/openbind-hippo/xx01zvns2b/cycle_01/syndirella/elabs/openbind_xx01zvns2b_c1_elab_chemspace_filtered.sdf']

>  <Energy>  (719) 
nan

>  <alias>  (719) 
None

>  <fragmenstein_runtime>  (719) 
nan

>  <scratch_subdir>  (719) 
nan

>  <HIPPO Compound ID>  (719) 
149134

>  <rmsd(smina/fragmenstein)>  (719) 
1.413

>  <distance_score>  (719) 
1.954498

>  <orig_smiles>  (719) 
nan

>  <fragmenstein_mode>  (719) 
nan

>  <inchikey>  (719) 
TTXHTENLEHYCLO-UHFFFAOYSA-N

>  <ref_pdb>  (719) 
Z0800a

>  <GNINA pK>  (719) 
nan

>  <gnina_score_min>  (719) 
5.541

>  <tags>  (719) 
openbind_xx01zvns2b_c1_elab_nonasap_filtered_scored_top80percent,openbind_xx01zvns2b_c1_elab_chemspace_filtered_scored_top80percent,openbind_xx01zvns2b_c1_elab_chemspace_filtered_scored,openbind_xx01zvns2b_c1_elab_chemspace_filtered_scored_top40percent,openbind_xx01zvns2b_c1_elab_chemspace_filtered_scored_top20percent,openbind_xx01zvns2b_c1_elab_chemspace_filtered_scored_top60percent,openbind_xx01zvns2b_c1_elabs_filtered

>  <smiles>  (719) 
O=C(Cc1cncn1Cc1ccccc1)NCCc1c(Cl)cncc1Cl

>  <subsites>  (719) 
1 - Z4590/B/203/1

>  <gnina_score>  (719) 
5.67

>  <HIPPO Pose ID>  (719) 
75001

>  <ref_mols>  (719) 
Z1495a,Z0800a

>  <energy_score>  (719) 
-6.346046

>  <inspiration_score>  (719) 
None

>  <smina_score_min>  (719) 
-5.533

>  <fragmenstein_error>  (719) 
nan

>  <name>  (719) 
P75001

$$$$
P75002
     RDKit          3D

 27 29  0  0  0  0  0  0  0  0999 V2000
   -9.1329    6.3432  -14.5477 C   0  0  0  0  0  0  0  0  0  0  0  0
   -8.0512    7.1478  -13.8742 C   0  0  0  0  0  0  0  0  0  0  0  0
   -6.9856    6.3481  -13.0915 C   0  0  2  0  0  0  0  0  0  0  0  0
   -5.9133    7.4065  -12.7290 C   0  0  0  0  0  0  0  0  0  0  0  0
   -6.2497    5.2372  -13.8774 C   0  0  0  0  0  0  0  0  0  0  0  0
   -5.3624    5.6791  -14.9184 N   0  0  0  0  0  0  0  0  0  0  0  0
   -4.1138    4.9939  -15.5369 C   0  0  0  0  0  0  0  0  0  0  0  0
   -3.5706    4.0011  -15.2423 O   0  0  0  0  0  0  0  0  0  0  0  0
   -3.5408    5.8900  -16.6439 C   0  0  0  0  0  0  0  0  0  0  0  0
   -4.5592    6.6229  -17.4483 C   0  0  0  0  0  0  0  0  0  0  0  0
   -4.7019    7.9823  -17.6487 C   0  0  0  0  0  0  0  0  0  0  0  0
   -5.7819    8.2556  -18.4361 N   0  0  0  0  0  0  0  0  0  0  0  0
   -6.2769    7.0777  -18.7451 C   0  0  0  0  0  0  0  0  0  0  0  0
   -5.5922    6.0502  -18.1491 N   0  0  0  0  0  0  0  0  0  0  0  0
   -5.8605    4.6269  -18.3227 C   0  0  0  0  0  0  0  0  0  0  0  0
   -7.3083    4.3034  -18.1918 C   0  0  0  0  0  0  0  0  0  0  0  0
   -7.8895    4.0241  -16.9690 C   0  0  0  0  0  0  0  0  0  0  0  0
   -9.2678    3.9243  -16.8566 C   0  0  0  0  0  0  0  0  0  0  0  0
  -10.0822    4.1396  -17.9576 C   0  0  0  0  0  0  0  0  0  0  0  0
   -9.5011    4.3497  -19.1903 C   0  0  0  0  0  0  0  0  0  0  0  0
   -8.1211    4.3415  -19.3114 C   0  0  0  0  0  0  0  0  0  0  0  0
   -7.5942    5.7384  -11.8099 C   0  0  0  0  0  0  0  0  0  0  0  0
   -7.9084    4.3714  -11.6865 C   0  0  0  0  0  0  0  0  0  0  0  0
   -8.2834    3.8640  -10.4489 C   0  0  0  0  0  0  0  0  0  0  0  0
   -8.3848    4.6174   -9.3359 N   0  0  0  0  0  0  0  0  0  0  0  0
   -8.1666    5.9356   -9.4836 C   0  0  0  0  0  0  0  0  0  0  0  0
   -7.7968    6.5331  -10.6760 C   0  0  0  0  0  0  0  0  0  0  0  0
  1  2  1  0
  3  2  1  0
  3  4  1  1
  3  5  1  0
  5  6  1  0
  6  7  1  0
  7  8  2  0
  7  9  1  0
  9 10  1  0
 10 11  2  0
 11 12  1  0
 12 13  2  0
 13 14  1  0
 14 15  1  0
 15 16  1  0
 16 17  2  0
 17 18  1  0
 18 19  2  0
 19 20  1  0
 20 21  2  0
  3 22  1  0
 22 23  2  0
 23 24  1  0
 24 25  2  0
 25 26  1  0
 26 27  2  0
 14 10  1  0
 21 16  1  0
 27 22  1  0
M  END
>  <fragmenstein_outcome>  (720) 
nan

>  <exports>  (720) 
['/opt/xchem-fragalysis-2/maxwin/openbind-hippo/xx01zvns2b/cycle_01/syndirella/elabs/openbind_xx01zvns2b_c1_elab_chemspace_filtered.sdf']

>  <Energy>  (720) 
nan

>  <alias>  (720) 
None

>  <fragmenstein_runtime>  (720) 
nan

>  <scratch_subdir>  (720) 
nan

>  <HIPPO Compound ID>  (720) 
149135

>  <rmsd(smina/fragmenstein)>  (720) 
0.615

>  <distance_score>  (720) 
1.827978

>  <orig_smiles>  (720) 
nan

>  <fragmenstein_mode>  (720) 
nan

>  <inchikey>  (720) 
QUHSDEHAQCTBCP-JOCHJYFZSA-N

>  <ref_pdb>  (720) 
Z0800a

>  <GNINA pK>  (720) 
nan

>  <gnina_score_min>  (720) 
5.236

>  <tags>  (720) 
openbind_xx01zvns2b_c1_elab_nonasap_filtered_scored_top80percent,openbind_xx01zvns2b_c1_elab_chemspace_filtered_scored_top80percent,openbind_xx01zvns2b_c1_elab_chemspace_filtered_scored,openbind_xx01zvns2b_c1_elab_chemspace_filtered_scored_top40percent,openbind_xx01zvns2b_c1_elab_chemspace_filtered_scored_top20percent,openbind_xx01zvns2b_c1_elab_chemspace_filtered_scored_top60percent,openbind_xx01zvns2b_c1_elabs_filtered

>  <smiles>  (720) 
CC[C@](C)(CNC(=O)Cc1cncn1Cc1ccccc1)c1ccncc1

>  <subsites>  (720) 
1 - Z4590/B/203/1

>  <gnina_score>  (720) 
5.438

>  <HIPPO Pose ID>  (720) 
75002

>  <ref_mols>  (720) 
Z1495a,Z0800a

>  <energy_score>  (720) 
-6.967239

>  <inspiration_score>  (720) 
None

>  <smina_score_min>  (720) 
-5.543

>  <fragmenstein_error>  (720) 
nan

>  <name>  (720) 
P75002

$$$$
P75006
     RDKit          3D

 27 30  0  0  0  0  0  0  0  0999 V2000
   -7.0227    7.7785  -15.0830 O   0  0  0  0  0  0  0  0  0  0  0  0
   -6.4261    6.9844  -15.6997 C   0  0  0  0  0  0  0  0  0  0  0  0
   -5.9858    7.3197  -17.1280 C   0  0  0  0  0  0  0  0  0  0  0  0
   -5.7021    6.1536  -17.9809 C   0  0  0  0  0  0  0  0  0  0  0  0
   -4.4774    5.6428  -18.3500 C   0  0  0  0  0  0  0  0  0  0  0  0
   -4.6325    4.5154  -19.0831 N   0  0  0  0  0  0  0  0  0  0  0  0
   -5.9348    4.3769  -19.2268 C   0  0  0  0  0  0  0  0  0  0  0  0
   -6.6242    5.2957  -18.5204 N   0  0  0  0  0  0  0  0  0  0  0  0
   -8.0918    5.3724  -18.4479 C   0  0  0  0  0  0  0  0  0  0  0  0
   -9.0412    4.2370  -18.7578 C   0  0  0  0  0  0  0  0  0  0  0  0
   -8.8897    4.7141  -17.3516 C   0  0  0  0  0  0  0  0  0  0  0  0
   -5.9580    5.5569  -15.3135 N   0  0  0  0  0  0  0  0  0  0  0  0
   -6.2070    4.7856  -14.1373 C   0  0  0  0  0  0  0  0  0  0  0  0
   -7.7118    4.6694  -13.8959 C   0  0  0  0  0  0  0  0  0  0  0  0
   -7.9854    4.8838  -12.4431 C   0  0  0  0  0  0  0  0  0  0  0  0
   -8.0584    6.1811  -11.9289 C   0  0  0  0  0  0  0  0  0  0  0  0
   -8.1863    6.3346  -10.5651 C   0  0  0  0  0  0  0  0  0  0  0  0
   -8.2416    5.2997   -9.7090 N   0  0  0  0  0  0  0  0  0  0  0  0
   -8.1706    4.0489  -10.2256 C   0  0  0  0  0  0  0  0  0  0  0  0
   -8.1461    2.9228   -9.4118 O   0  0  0  0  0  0  0  0  0  0  0  0
   -8.5495    3.0370   -8.1060 C   0  0  0  0  0  0  0  0  0  0  0  0
   -9.3624    2.0112   -7.6317 C   0  0  0  0  0  0  0  0  0  0  0  0
   -9.8784    2.0667   -6.3372 C   0  0  0  0  0  0  0  0  0  0  0  0
   -9.5487    3.1296   -5.4984 C   0  0  0  0  0  0  0  0  0  0  0  0
   -8.6683    4.1126   -5.9377 C   0  0  0  0  0  0  0  0  0  0  0  0
   -8.1558    4.0539   -7.2346 C   0  0  0  0  0  0  0  0  0  0  0  0
   -8.0464    3.7960  -11.5770 C   0  0  0  0  0  0  0  0  0  0  0  0
  1  2  2  0
  2  3  1  0
  3  4  1  0
  4  5  2  0
  5  6  1  0
  6  7  2  0
  7  8  1  0
  8  9  1  0
  9 10  1  0
 10 11  1  0
  2 12  1  0
 12 13  1  0
 13 14  1  0
 14 15  1  0
 15 16  2  0
 16 17  1  0
 17 18  2  0
 18 19  1  0
 19 20  1  0
 20 21  1  0
 21 22  2  0
 22 23  1  0
 23 24  2  0
 24 25  1  0
 25 26  2  0
 19 27  2  0
  8  4  1  0
 11  9  1  0
 27 15  1  0
 26 21  1  0
M  END
>  <fragmenstein_outcome>  (721) 
nan

>  <exports>  (721) 
['/opt/xchem-fragalysis-2/maxwin/openbind-hippo/xx01zvns2b/cycle_01/syndirella/elabs/openbind_xx01zvns2b_c1_elab_chemspace_filtered.sdf']

>  <Energy>  (721) 
nan

>  <alias>  (721) 
None

>  <fragmenstein_runtime>  (721) 
nan

>  <scratch_subdir>  (721) 
nan

>  <HIPPO Compound ID>  (721) 
149139

>  <rmsd(smina/fragmenstein)>  (721) 
1.278

>  <distance_score>  (721) 
1.54197

>  <orig_smiles>  (721) 
nan

>  <fragmenstein_mode>  (721) 
nan

>  <inchikey>  (721) 
HYYGNCVHVHOBDH-UHFFFAOYSA-N

>  <ref_pdb>  (721) 
Z0800a

>  <GNINA pK>  (721) 
nan

>  <gnina_score_min>  (721) 
5.227

>  <tags>  (721) 
openbind_xx01zvns2b_c1_elab_nonasap_filtered_scored_top80percent,openbind_xx01zvns2b_c1_elab_chemspace_filtered_scored_top80percent,openbind_xx01zvns2b_c1_elab_chemspace_filtered_scored,openbind_xx01zvns2b_c1_elab_chemspace_filtered_scored_top40percent,openbind_xx01zvns2b_c1_elab_chemspace_filtered_scored_top20percent,openbind_xx01zvns2b_c1_elab_chemspace_filtered_scored_top60percent,openbind_xx01zvns2b_c1_elabs_filtered

>  <smiles>  (721) 
O=C(Cc1cncn1C1CC1)NCCc1ccnc(Oc2ccccc2)c1

>  <subsites>  (721) 
1 - Z4590/B/203/1

>  <gnina_score>  (721) 
5.335

>  <HIPPO Pose ID>  (721) 
75006

>  <ref_mols>  (721) 
Z1495a,Z0800a

>  <energy_score>  (721) 
-2.511971

>  <inspiration_score>  (721) 
None

>  <smina_score_min>  (721) 
-6.259

>  <fragmenstein_error>  (721) 
nan

>  <name>  (721) 
P75006

$$$$
P75008
     RDKit          3D

 27 29  0  0  0  0  0  0  0  0999 V2000
   -3.3666    8.2732  -12.9215 C   0  0  0  0  0  0  0  0  0  0  0  0
   -3.6745    6.8780  -12.3563 C   0  0  0  0  0  0  0  0  0  0  0  0
   -4.2028    7.0353  -10.9269 C   0  0  0  0  0  0  0  0  0  0  0  0
   -2.3942    6.0372  -12.4062 C   0  0  0  0  0  0  0  0  0  0  0  0
   -4.6898    6.3439  -13.2410 O   0  0  0  0  0  0  0  0  0  0  0  0
   -5.2073    5.0981  -13.0520 C   0  0  0  0  0  0  0  0  0  0  0  0
   -4.8799    4.3381  -12.1493 O   0  0  0  0  0  0  0  0  0  0  0  0
   -6.2860    4.7577  -14.1017 C   0  0  1  0  0  0  0  0  0  0  0  0
   -7.7404    4.9750  -13.6468 C   0  0  0  0  0  0  0  0  0  0  0  0
   -7.9580    4.8834  -12.1672 C   0  0  0  0  0  0  0  0  0  0  0  0
   -8.1438    3.6511  -11.5427 C   0  0  0  0  0  0  0  0  0  0  0  0
   -8.2552    3.6245  -10.1619 C   0  0  0  0  0  0  0  0  0  0  0  0
   -8.1912    4.7272   -9.3780 N   0  0  0  0  0  0  0  0  0  0  0  0
   -8.0251    5.9072  -10.0093 C   0  0  0  0  0  0  0  0  0  0  0  0
   -7.9071    6.0383  -11.3816 C   0  0  0  0  0  0  0  0  0  0  0  0
   -6.0358    5.4921  -15.3314 N   0  0  0  0  0  0  0  0  0  0  0  0
   -6.4046    6.9447  -15.7295 C   0  0  0  0  0  0  0  0  0  0  0  0
   -6.8979    7.8000  -15.1027 O   0  0  0  0  0  0  0  0  0  0  0  0
   -5.9480    7.2499  -17.1585 C   0  0  0  0  0  0  0  0  0  0  0  0
   -5.6408    6.0910  -18.0170 C   0  0  0  0  0  0  0  0  0  0  0  0
   -4.4157    5.6162  -18.4371 C   0  0  0  0  0  0  0  0  0  0  0  0
   -4.5680    4.5386  -19.2518 N   0  0  0  0  0  0  0  0  0  0  0  0
   -5.8737    4.3790  -19.3589 C   0  0  0  0  0  0  0  0  0  0  0  0
   -6.5604    5.2491  -18.5838 N   0  0  0  0  0  0  0  0  0  0  0  0
   -8.0283    5.3276  -18.4721 C   0  0  0  0  0  0  0  0  0  0  0  0
   -8.9880    4.1976  -18.7567 C   0  0  0  0  0  0  0  0  0  0  0  0
   -8.7978    4.6712  -17.3527 C   0  0  0  0  0  0  0  0  0  0  0  0
  1  2  1  0
  2  3  1  0
  2  4  1  0
  2  5  1  0
  5  6  1  0
  6  7  2  0
  6  8  1  0
  8  9  1  1
  9 10  1  0
 10 11  2  0
 11 12  1  0
 12 13  2  0
 13 14  1  0
 14 15  2  0
  8 16  1  0
 16 17  1  0
 17 18  2  0
 17 19  1  0
 19 20  1  0
 20 21  2  0
 21 22  1  0
 22 23  2  0
 23 24  1  0
 24 25  1  0
 25 26  1  0
 26 27  1  0
 15 10  1  0
 24 20  1  0
 27 25  1  0
M  END
>  <fragmenstein_outcome>  (722) 
nan

>  <exports>  (722) 
['/opt/xchem-fragalysis-2/maxwin/openbind-hippo/xx01zvns2b/cycle_01/syndirella/elabs/openbind_xx01zvns2b_c1_elab_chemspace_filtered.sdf']

>  <Energy>  (722) 
nan

>  <alias>  (722) 
None

>  <fragmenstein_runtime>  (722) 
nan

>  <scratch_subdir>  (722) 
nan

>  <HIPPO Compound ID>  (722) 
149140

>  <rmsd(smina/fragmenstein)>  (722) 
2.776

>  <distance_score>  (722) 
1.716921

>  <orig_smiles>  (722) 
nan

>  <fragmenstein_mode>  (722) 
nan

>  <inchikey>  (722) 
QYIKBJFCRJVCTP-QGZVFWFLSA-N

>  <ref_pdb>  (722) 
Z0800a

>  <GNINA pK>  (722) 
nan

>  <gnina_score_min>  (722) 
5.448

>  <tags>  (722) 
openbind_xx01zvns2b_c1_elab_nonasap_filtered_scored_top80percent,openbind_xx01zvns2b_c1_elab_chemspace_filtered_scored_top80percent,openbind_xx01zvns2b_c1_elab_chemspace_filtered_scored,openbind_xx01zvns2b_c1_elab_chemspace_filtered_scored_top40percent,openbind_xx01zvns2b_c1_elab_chemspace_filtered_scored_top20percent,openbind_xx01zvns2b_c1_elab_chemspace_filtered_scored_top60percent,openbind_xx01zvns2b_c1_elabs_filtered

>  <smiles>  (722) 
CC(C)(C)OC(=O)[C@@H](Cc1ccncc1)NC(=O)Cc1cncn1C1CC1

>  <subsites>  (722) 
1 - Z4590/B/203/1

>  <gnina_score>  (722) 
5.622

>  <HIPPO Pose ID>  (722) 
75008

>  <ref_mols>  (722) 
Z1495a,Z0800a

>  <energy_score>  (722) 
-25.830495

>  <inspiration_score>  (722) 
None

>  <smina_score_min>  (722) 
-5.625

>  <fragmenstein_error>  (722) 
nan

>  <name>  (722) 
P75008

$$$$
P75009
     RDKit          3D

 27 28  0  0  0  0  0  0  0  0999 V2000
   -5.3150    1.2834  -11.2217 C   0  0  0  0  0  0  0  0  0  0  0  0
   -5.5616    2.5281  -11.8888 O   0  0  0  0  0  0  0  0  0  0  0  0
   -6.2717    2.4540  -13.0546 C   0  0  0  0  0  0  0  0  0  0  0  0
   -6.6296    1.4148  -13.5885 O   0  0  0  0  0  0  0  0  0  0  0  0
   -6.5256    3.8701  -13.5827 C   0  0  2  0  0  0  0  0  0  0  0  0
   -7.8484    4.4951  -13.1165 C   0  0  0  0  0  0  0  0  0  0  0  0
   -7.9866    4.6080  -11.6395 C   0  0  0  0  0  0  0  0  0  0  0  0
   -8.4015    3.4962  -10.9140 C   0  0  0  0  0  0  0  0  0  0  0  0
   -8.4740    3.6019   -9.5449 C   0  0  0  0  0  0  0  0  0  0  0  0
   -8.8400    2.5145   -8.8602 F   0  0  0  0  0  0  0  0  0  0  0  0
   -8.1851    4.7220   -8.8519 N   0  0  0  0  0  0  0  0  0  0  0  0
   -7.8233    5.7902   -9.5846 C   0  0  0  0  0  0  0  0  0  0  0  0
   -7.5346    6.9208   -8.9242 F   0  0  0  0  0  0  0  0  0  0  0  0
   -7.7012    5.7897  -10.9619 C   0  0  0  0  0  0  0  0  0  0  0  0
   -6.4871    3.9694  -15.0237 N   0  0  0  0  0  0  0  0  0  0  0  0
   -7.5657    4.4648  -16.0320 C   0  0  0  0  0  0  0  0  0  0  0  0
   -8.6755    4.7942  -15.8542 O   0  0  0  0  0  0  0  0  0  0  0  0
   -6.9045    4.5937  -17.4727 C   0  0  2  0  0  0  0  0  0  0  0  0
   -5.4740    5.0402  -17.3716 C   0  0  0  0  0  0  0  0  0  0  0  0
   -4.3719    4.6670  -18.1112 C   0  0  0  0  0  0  0  0  0  0  0  0
   -3.2487    5.3253  -17.7040 N   0  0  0  0  0  0  0  0  0  0  0  0
   -3.6751    6.1667  -16.7945 C   0  0  0  0  0  0  0  0  0  0  0  0
   -5.0157    6.0623  -16.5817 N   0  0  0  0  0  0  0  0  0  0  0  0
   -5.7675    6.9588  -15.7489 C   0  0  0  0  0  0  0  0  0  0  0  0
   -7.6951    5.6099  -18.2049 N   0  0  0  0  0  0  0  0  0  0  0  0
   -6.9174    6.3683  -19.1812 C   0  0  0  0  0  0  0  0  0  0  0  0
   -8.8640    4.9537  -18.8307 C   0  0  0  0  0  0  0  0  0  0  0  0
  1  2  1  0
  2  3  1  0
  3  4  2  0
  3  5  1  0
  5  6  1  6
  6  7  1  0
  7  8  2  0
  8  9  1  0
  9 10  1  0
  9 11  2  0
 11 12  1  0
 12 13  1  0
 12 14  2  0
  5 15  1  0
 15 16  1  0
 16 17  2  0
 16 18  1  0
 18 19  1  0
 19 20  2  0
 20 21  1  0
 21 22  2  0
 22 23  1  0
 23 24  1  0
 18 25  1  6
 25 26  1  0
 25 27  1  0
 14  7  1  0
 23 19  1  0
M  END
>  <fragmenstein_outcome>  (723) 
nan

>  <exports>  (723) 
['/opt/xchem-fragalysis-2/maxwin/openbind-hippo/xx01zvns2b/cycle_01/syndirella/elabs/openbind_xx01zvns2b_c1_elab_chemspace_filtered.sdf']

>  <Energy>  (723) 
nan

>  <alias>  (723) 
None

>  <fragmenstein_runtime>  (723) 
nan

>  <scratch_subdir>  (723) 
nan

>  <HIPPO Compound ID>  (723) 
149141

>  <rmsd(smina/fragmenstein)>  (723) 
1.123

>  <distance_score>  (723) 
1.835421

>  <orig_smiles>  (723) 
nan

>  <fragmenstein_mode>  (723) 
nan

>  <inchikey>  (723) 
URZIZKXCEWZEGU-NHYWBVRUSA-N

>  <ref_pdb>  (723) 
Z0800a

>  <GNINA pK>  (723) 
nan

>  <gnina_score_min>  (723) 
5.197

>  <tags>  (723) 
openbind_xx01zvns2b_c1_elab_nonasap_filtered_scored_top80percent,openbind_xx01zvns2b_c1_elab_chemspace_filtered_scored_top80percent,openbind_xx01zvns2b_c1_elab_chemspace_filtered_scored,openbind_xx01zvns2b_c1_elab_chemspace_filtered_scored_top40percent,openbind_xx01zvns2b_c1_elab_chemspace_filtered_scored_top20percent,openbind_xx01zvns2b_c1_elab_chemspace_filtered_scored_top60percent,openbind_xx01zvns2b_c1_elabs_filtered

>  <smiles>  (723) 
COC(=O)[C@H](Cc1cc(F)nc(F)c1)NC(=O)[C@H](c1cncn1C)N(C)C

>  <subsites>  (723) 
1 - Z4590/B/203/1

>  <gnina_score>  (723) 
5.392

>  <HIPPO Pose ID>  (723) 
75009

>  <ref_mols>  (723) 
Z1495a,Z0800a

>  <energy_score>  (723) 
-1.996302

>  <inspiration_score>  (723) 
None

>  <smina_score_min>  (723) 
-5.689

>  <fragmenstein_error>  (723) 
nan

>  <name>  (723) 
P75009

$$$$
P75014
     RDKit          3D

 27 30  0  0  0  0  0  0  0  0999 V2000
   -2.1318    6.7190  -17.5796 C   0  0  0  0  0  0  0  0  0  0  0  0
   -3.1750    6.2092  -16.7564 O   0  0  0  0  0  0  0  0  0  0  0  0
   -4.3205    5.9142  -17.4550 C   0  0  0  0  0  0  0  0  0  0  0  0
   -5.3686    5.4229  -16.7051 C   0  0  0  0  0  0  0  0  0  0  0  0
   -6.5664    5.0463  -17.3115 C   0  0  0  0  0  0  0  0  0  0  0  0
   -7.8132    4.4855  -16.4753 C   0  0  0  0  0  0  0  0  0  0  0  0
   -7.3929    3.6209  -15.2802 C   0  0  0  0  0  0  0  0  0  0  0  0
   -7.0050    4.3076  -14.0762 N   0  0  0  0  0  0  0  0  0  0  0  0
   -7.8479    5.1445  -13.0775 C   0  0  0  0  0  0  0  0  0  0  0  0
   -8.9681    5.4687  -13.1202 O   0  0  0  0  0  0  0  0  0  0  0  0
   -6.9374    5.4246  -11.8632 C   0  0  1  0  0  0  0  0  0  0  0  0
   -6.8594    6.9498  -11.6245 C   0  0  0  0  0  0  0  0  0  0  0  0
   -8.0127    7.5152  -10.7775 C   0  0  0  0  0  0  0  0  0  0  0  0
   -8.1284    6.8231   -9.4144 C   0  0  0  0  0  0  0  0  0  0  0  0
   -8.0495    5.3586   -9.5692 C   0  0  0  0  0  0  0  0  0  0  0  0
   -8.4517    4.4709   -8.6219 N   0  0  0  0  0  0  0  0  0  0  0  0
   -8.1574    3.2805   -9.1029 C   0  0  0  0  0  0  0  0  0  0  0  0
   -8.4417    1.9976   -8.4064 C   0  0  0  0  0  0  0  0  0  0  0  0
   -7.5397    3.4009  -10.3332 N   0  0  0  0  0  0  0  0  0  0  0  0
   -7.0044    2.3282  -11.1280 C   0  0  0  0  0  0  0  0  0  0  0  0
   -7.4899    4.7326  -10.6542 C   0  0  0  0  0  0  0  0  0  0  0  0
   -8.9005    3.7463  -17.3484 C   0  0  0  0  0  0  0  0  0  0  0  0
   -9.6238    5.0872  -17.4918 C   0  0  0  0  0  0  0  0  0  0  0  0
   -8.9500    5.4868  -16.1585 C   0  0  0  0  0  0  0  0  0  0  0  0
   -6.5992    5.2258  -18.7018 C   0  0  0  0  0  0  0  0  0  0  0  0
   -5.5216    5.7705  -19.3674 C   0  0  0  0  0  0  0  0  0  0  0  0
   -4.3714    6.1109  -18.7748 N   0  0  0  0  0  0  0  0  0  0  0  0
  1  2  1  0
  2  3  1  0
  3  4  2  0
  4  5  1  0
  5  6  1  0
  6  7  1  0
  7  8  1  0
  8  9  1  0
  9 10  2  0
 11  9  1  6
 11 12  1  0
 12 13  1  0
 13 14  1  0
 14 15  1  0
 15 16  1  0
 16 17  2  0
 17 18  1  0
 17 19  1  0
 19 20  1  0
 19 21  1  0
  6 22  1  0
 22 23  1  0
 23 24  1  0
  5 25  2  0
 25 26  1  0
 26 27  2  0
 27  3  1  0
 24  6  1  0
 21 11  1  0
 21 15  2  0
M  END
>  <fragmenstein_outcome>  (724) 
nan

>  <exports>  (724) 
['/opt/xchem-fragalysis-2/maxwin/openbind-hippo/xx01zvns2b/cycle_01/syndirella/elabs/openbind_xx01zvns2b_c1_elab_chemspace_filtered.sdf']

>  <Energy>  (724) 
nan

>  <alias>  (724) 
None

>  <fragmenstein_runtime>  (724) 
nan

>  <scratch_subdir>  (724) 
nan

>  <HIPPO Compound ID>  (724) 
149144

>  <rmsd(smina/fragmenstein)>  (724) 
0.738

>  <distance_score>  (724) 
1.9344

>  <orig_smiles>  (724) 
nan

>  <fragmenstein_mode>  (724) 
nan

>  <inchikey>  (724) 
DXNAPVPSNGCZOH-INIZCTEOSA-N

>  <ref_pdb>  (724) 
Z0800a

>  <GNINA pK>  (724) 
nan

>  <gnina_score_min>  (724) 
6.003

>  <tags>  (724) 
openbind_xx01zvns2b_c1_elab_nonasap_filtered_scored_top80percent,openbind_xx01zvns2b_c1_elab_chemspace_filtered_scored_top80percent,openbind_xx01zvns2b_c1_elab_chemspace_filtered_scored,openbind_xx01zvns2b_c1_elab_chemspace_filtered_scored_top40percent,openbind_xx01zvns2b_c1_elab_chemspace_filtered_scored_top20percent,openbind_xx01zvns2b_c1_elab_chemspace_filtered_scored_top60percent,openbind_xx01zvns2b_c1_elabs_filtered

>  <smiles>  (724) 
COc1cc(C2(CNC(=O)[C@H]3CCCc4nc(C)n(C)c43)CCC2)ccn1

>  <subsites>  (724) 
1 - Z4590/B/203/1

>  <gnina_score>  (724) 
5.733

>  <HIPPO Pose ID>  (724) 
75014

>  <ref_mols>  (724) 
Z1495a,Z0800a

>  <energy_score>  (724) 
-29.885227

>  <inspiration_score>  (724) 
None

>  <smina_score_min>  (724) 
-5.958

>  <fragmenstein_error>  (724) 
nan

>  <name>  (724) 
P75014

$$$$
P75017
     RDKit          3D

 27 29  0  0  0  0  0  0  0  0999 V2000
   -9.6211    3.5081  -18.3701 C   0  0  0  0  0  0  0  0  0  0  0  0
   -9.7142    4.9711  -18.0337 C   0  0  0  0  0  0  0  0  0  0  0  0
   -8.5054    5.4100  -17.4181 O   0  0  0  0  0  0  0  0  0  0  0  0
   -8.3006    4.9784  -16.1431 C   0  0  0  0  0  0  0  0  0  0  0  0
   -9.0390    4.2372  -15.5146 O   0  0  0  0  0  0  0  0  0  0  0  0
   -6.9855    5.5541  -15.6337 C   0  0  2  0  0  0  0  0  0  0  0  0
   -5.8187    4.8939  -16.3840 C   0  0  0  0  0  0  0  0  0  0  0  0
   -5.4262    5.6873  -17.6022 C   0  0  0  0  0  0  0  0  0  0  0  0
   -4.6615    6.8345  -17.4442 C   0  0  0  0  0  0  0  0  0  0  0  0
   -4.4186    7.6307  -18.5464 C   0  0  0  0  0  0  0  0  0  0  0  0
   -4.8693    7.3796  -19.7842 N   0  0  0  0  0  0  0  0  0  0  0  0
   -5.6042    6.2569  -19.9166 C   0  0  0  0  0  0  0  0  0  0  0  0
   -5.8885    5.3789  -18.8798 C   0  0  0  0  0  0  0  0  0  0  0  0
   -6.8860    5.4035  -14.1921 N   0  0  0  0  0  0  0  0  0  0  0  0
   -7.9035    5.7530  -13.0675 C   0  0  0  0  0  0  0  0  0  0  0  0
   -9.0028    6.1421  -13.1362 O   0  0  0  0  0  0  0  0  0  0  0  0
   -7.1471    5.5933  -11.7368 C   0  0  1  0  0  0  0  0  0  0  0  0
   -6.8445    7.0602  -11.3060 C   0  0  0  0  0  0  0  0  0  0  0  0
   -6.6365    7.2571   -9.7994 C   0  0  0  0  0  0  0  0  0  0  0  0
   -7.8387    6.7564   -8.9952 C   0  0  0  0  0  0  0  0  0  0  0  0
   -8.1264    5.3719   -9.3967 C   0  0  0  0  0  0  0  0  0  0  0  0
   -8.5101    4.4147   -8.5166 N   0  0  0  0  0  0  0  0  0  0  0  0
   -8.5016    3.2933   -9.2018 C   0  0  0  0  0  0  0  0  0  0  0  0
   -8.7340    1.9534   -8.6068 C   0  0  0  0  0  0  0  0  0  0  0  0
   -8.1991    3.5428  -10.5282 N   0  0  0  0  0  0  0  0  0  0  0  0
   -8.1952    2.5692  -11.5832 C   0  0  0  0  0  0  0  0  0  0  0  0
   -7.8709    4.8657  -10.6492 C   0  0  0  0  0  0  0  0  0  0  0  0
  1  2  1  0
  2  3  1  0
  3  4  1  0
  4  5  2  0
  4  6  1  0
  6  7  1  6
  7  8  1  0
  8  9  2  0
  9 10  1  0
 10 11  2  0
 11 12  1  0
 12 13  2  0
  6 14  1  0
 14 15  1  0
 15 16  2  0
 17 15  1  6
 17 18  1  0
 18 19  1  0
 19 20  1  0
 20 21  1  0
 21 22  1  0
 22 23  2  0
 23 24  1  0
 23 25  1  0
 25 26  1  0
 25 27  1  0
 13  8  1  0
 27 17  1  0
 27 21  2  0
M  END
>  <fragmenstein_outcome>  (725) 
nan

>  <exports>  (725) 
['/opt/xchem-fragalysis-2/maxwin/openbind-hippo/xx01zvns2b/cycle_01/syndirella/elabs/openbind_xx01zvns2b_c1_elab_chemspace_filtered.sdf']

>  <Energy>  (725) 
nan

>  <alias>  (725) 
None

>  <fragmenstein_runtime>  (725) 
nan

>  <scratch_subdir>  (725) 
nan

>  <HIPPO Compound ID>  (725) 
149150

>  <rmsd(smina/fragmenstein)>  (725) 
1.157

>  <distance_score>  (725) 
1.867

>  <orig_smiles>  (725) 
nan

>  <fragmenstein_mode>  (725) 
nan

>  <inchikey>  (725) 
DEQIRYNJONWEQJ-RDJZCZTQSA-N

>  <ref_pdb>  (725) 
Z0800a

>  <GNINA pK>  (725) 
nan

>  <gnina_score_min>  (725) 
5.159

>  <tags>  (725) 
openbind_xx01zvns2b_c1_elab_nonasap_filtered_scored_top80percent,openbind_xx01zvns2b_c1_elab_chemspace_filtered_scored_top80percent,openbind_xx01zvns2b_c1_elab_chemspace_filtered_scored,openbind_xx01zvns2b_c1_elab_chemspace_filtered_scored_top40percent,openbind_xx01zvns2b_c1_elab_chemspace_filtered_scored_top20percent,openbind_xx01zvns2b_c1_elab_chemspace_filtered_scored_top60percent,openbind_xx01zvns2b_c1_elabs_filtered

>  <smiles>  (725) 
CCOC(=O)[C@H](Cc1ccncc1)NC(=O)[C@H]1CCCc2nc(C)n(C)c21

>  <subsites>  (725) 
1 - Z4590/B/203/1

>  <gnina_score>  (725) 
5.18

>  <HIPPO Pose ID>  (725) 
75017

>  <ref_mols>  (725) 
Z0800a,Z1495a

>  <energy_score>  (725) 
-2.622394

>  <inspiration_score>  (725) 
None

>  <smina_score_min>  (725) 
-5.601

>  <fragmenstein_error>  (725) 
nan

>  <name>  (725) 
P75017

$$$$
P75020
     RDKit          3D

 27 30  0  0  0  0  0  0  0  0999 V2000
   -8.8115    2.1561   -8.3407 C   0  0  0  0  0  0  0  0  0  0  0  0
   -8.9765    2.4345   -9.7236 O   0  0  0  0  0  0  0  0  0  0  0  0
   -8.4324    3.6474  -10.0678 C   0  0  0  0  0  0  0  0  0  0  0  0
   -8.0758    3.7987  -11.3941 C   0  0  0  0  0  0  0  0  0  0  0  0
   -7.4967    4.9996  -11.8218 C   0  0  0  0  0  0  0  0  0  0  0  0
   -7.0196    5.1966  -13.3410 C   0  0  0  0  0  0  0  0  0  0  0  0
   -5.6976    4.4121  -13.5192 C   0  0  0  0  0  0  0  0  0  0  0  0
   -5.1706    4.5973  -14.8494 N   0  0  0  0  0  0  0  0  0  0  0  0
   -3.9092    5.3701  -15.3390 C   0  0  0  0  0  0  0  0  0  0  0  0
   -3.0662    5.9069  -14.7310 O   0  0  0  0  0  0  0  0  0  0  0  0
   -3.9347    5.3727  -16.8838 C   0  0  0  0  0  0  0  0  0  0  0  0
   -5.2253    5.9494  -17.3484 C   0  0  0  0  0  0  0  0  0  0  0  0
   -5.8476    7.1312  -17.0362 C   0  0  0  0  0  0  0  0  0  0  0  0
   -7.1827    7.0533  -17.3284 N   0  0  0  0  0  0  0  0  0  0  0  0
   -7.3785    5.8906  -17.9153 C   0  0  0  0  0  0  0  0  0  0  0  0
   -6.1576    5.3133  -18.1108 N   0  0  0  0  0  0  0  0  0  0  0  0
   -5.9993    4.1291  -18.8923 C   0  0  0  0  0  0  0  0  0  0  0  0
   -7.0718    4.0425  -19.9468 C   0  0  0  0  0  0  0  0  0  0  0  0
   -8.4500    4.0595  -19.3235 C   0  0  0  0  0  0  0  0  0  0  0  0
   -8.6614    5.2998  -18.4655 C   0  0  1  0  0  0  0  0  0  0  0  0
   -9.7063    4.9371  -17.4274 C   0  0  0  0  0  0  0  0  0  0  0  0
   -7.0425    6.6792  -13.8493 C   0  0  0  0  0  0  0  0  0  0  0  0
   -8.4955    6.4490  -14.2880 C   0  0  0  0  0  0  0  0  0  0  0  0
   -8.1575    4.9518  -14.4019 C   0  0  0  0  0  0  0  0  0  0  0  0
   -7.3523    5.9989  -10.8441 C   0  0  0  0  0  0  0  0  0  0  0  0
   -7.7722    5.7706   -9.5468 C   0  0  0  0  0  0  0  0  0  0  0  0
   -8.3071    4.6134   -9.1342 N   0  0  0  0  0  0  0  0  0  0  0  0
  1  2  1  0
  2  3  1  0
  3  4  2  0
  4  5  1  0
  5  6  1  0
  6  7  1  0
  7  8  1  0
  8  9  1  0
  9 10  2  0
  9 11  1  0
 11 12  1  0
 12 13  2  0
 13 14  1  0
 14 15  2  0
 15 16  1  0
 16 17  1  0
 17 18  1  0
 18 19  1  0
 19 20  1  0
 20 21  1  1
  6 22  1  0
 22 23  1  0
 23 24  1  0
  5 25  2  0
 25 26  1  0
 26 27  2  0
 27  3  1  0
 24  6  1  0
 16 12  1  0
 20 15  1  0
M  END
>  <fragmenstein_outcome>  (726) 
nan

>  <exports>  (726) 
['/opt/xchem-fragalysis-2/maxwin/openbind-hippo/xx01zvns2b/cycle_01/syndirella/elabs/openbind_xx01zvns2b_c1_elab_chemspace_filtered.sdf']

>  <Energy>  (726) 
nan

>  <alias>  (726) 
None

>  <fragmenstein_runtime>  (726) 
nan

>  <scratch_subdir>  (726) 
nan

>  <HIPPO Compound ID>  (726) 
149165

>  <rmsd(smina/fragmenstein)>  (726) 
1.845

>  <distance_score>  (726) 
1.695821

>  <orig_smiles>  (726) 
nan

>  <fragmenstein_mode>  (726) 
nan

>  <inchikey>  (726) 
PYXYTRLAFUGKIB-OAHLLOKOSA-N

>  <ref_pdb>  (726) 
Z0800a

>  <GNINA pK>  (726) 
nan

>  <gnina_score_min>  (726) 
5.239

>  <tags>  (726) 
openbind_xx01zvns2b_c1_elab_nonasap_filtered_scored_top80percent,openbind_xx01zvns2b_c1_elab_chemspace_filtered_scored_top80percent,openbind_xx01zvns2b_c1_elab_chemspace_filtered_scored,openbind_xx01zvns2b_c1_elab_chemspace_filtered_scored_top40percent,openbind_xx01zvns2b_c1_elab_chemspace_filtered_scored_top20percent,openbind_xx01zvns2b_c1_elab_chemspace_filtered_scored_top60percent,openbind_xx01zvns2b_c1_elabs_filtered

>  <smiles>  (726) 
COc1cc(C2(CNC(=O)Cc3cnc4n3CCC[C@H]4C)CCC2)ccn1

>  <subsites>  (726) 
1 - Z4590/B/203/1

>  <gnina_score>  (726) 
5.741

>  <HIPPO Pose ID>  (726) 
75020

>  <ref_mols>  (726) 
Z1495a,Z0800a

>  <energy_score>  (726) 
-52.757307

>  <inspiration_score>  (726) 
None

>  <smina_score_min>  (726) 
-5.467

>  <fragmenstein_error>  (726) 
nan

>  <name>  (726) 
P75020

$$$$
P75025
     RDKit          3D

 27 29  0  0  0  0  0  0  0  0999 V2000
   -5.7409   10.0084  -14.6521 C   0  0  0  0  0  0  0  0  0  0  0  0
   -5.6596    8.5864  -14.5467 O   0  0  0  0  0  0  0  0  0  0  0  0
   -6.0863    8.0904  -13.3428 C   0  0  0  0  0  0  0  0  0  0  0  0
   -6.5464    8.7891  -12.4475 O   0  0  0  0  0  0  0  0  0  0  0  0
   -5.9056    6.5537  -13.2643 C   0  0  1  0  0  0  0  0  0  0  0  0
   -4.9237    6.2535  -12.1230 C   0  0  0  0  0  0  0  0  0  0  0  0
   -7.3077    5.8826  -13.1413 C   0  0  0  0  0  0  0  0  0  0  0  0
   -7.7320    5.4520  -11.7663 C   0  0  0  0  0  0  0  0  0  0  0  0
   -7.8482    4.0899  -11.4594 C   0  0  0  0  0  0  0  0  0  0  0  0
   -8.1319    3.7256  -10.1544 C   0  0  0  0  0  0  0  0  0  0  0  0
   -8.2900    4.6182   -9.1520 N   0  0  0  0  0  0  0  0  0  0  0  0
   -8.2149    5.9230   -9.4834 C   0  0  0  0  0  0  0  0  0  0  0  0
   -7.9664    6.3862  -10.7613 C   0  0  0  0  0  0  0  0  0  0  0  0
   -5.2973    6.0752  -14.5068 N   0  0  0  0  0  0  0  0  0  0  0  0
   -4.8307    4.6566  -14.9166 C   0  0  0  0  0  0  0  0  0  0  0  0
   -4.7883    3.6674  -14.2998 O   0  0  0  0  0  0  0  0  0  0  0  0
   -4.4036    4.7286  -16.3731 C   0  0  0  0  0  0  0  0  0  0  0  0
   -5.4685    5.2672  -17.2697 C   0  0  0  0  0  0  0  0  0  0  0  0
   -5.3995    6.3153  -18.1673 C   0  0  0  0  0  0  0  0  0  0  0  0
   -4.2551    7.1954  -18.4926 C   0  0  0  0  0  0  0  0  0  0  0  0
   -6.6017    6.5001  -18.7911 N   0  0  0  0  0  0  0  0  0  0  0  0
   -7.3751    5.5203  -18.3844 C   0  0  0  0  0  0  0  0  0  0  0  0
   -6.7723    4.8339  -17.3662 N   0  0  0  0  0  0  0  0  0  0  0  0
   -7.5832    4.1329  -16.3949 C   0  0  0  0  0  0  0  0  0  0  0  0
   -8.9354    3.6536  -16.9160 C   0  0  0  0  0  0  0  0  0  0  0  0
   -9.6451    4.7263  -17.7055 C   0  0  0  0  0  0  0  0  0  0  0  0
   -8.7488    5.1637  -18.8413 C   0  0  0  0  0  0  0  0  0  0  0  0
  1  2  1  0
  2  3  1  0
  3  4  2  0
  3  5  1  0
  5  6  1  1
  5  7  1  0
  7  8  1  0
  8  9  2  0
  9 10  1  0
 10 11  2  0
 11 12  1  0
 12 13  2  0
  5 14  1  0
 14 15  1  0
 15 16  2  0
 15 17  1  0
 17 18  1  0
 18 19  2  0
 19 20  1  0
 19 21  1  0
 21 22  2  0
 22 23  1  0
 23 24  1  0
 24 25  1  0
 25 26  1  0
 26 27  1  0
 13  8  1  0
 23 18  1  0
 27 22  1  0
M  END
>  <fragmenstein_outcome>  (727) 
nan

>  <exports>  (727) 
['/opt/xchem-fragalysis-2/maxwin/openbind-hippo/xx01zvns2b/cycle_01/syndirella/elabs/openbind_xx01zvns2b_c1_elab_chemspace_filtered.sdf']

>  <Energy>  (727) 
nan

>  <alias>  (727) 
None

>  <fragmenstein_runtime>  (727) 
nan

>  <scratch_subdir>  (727) 
nan

>  <HIPPO Compound ID>  (727) 
149172

>  <rmsd(smina/fragmenstein)>  (727) 
0.809

>  <distance_score>  (727) 
1.577462

>  <orig_smiles>  (727) 
nan

>  <fragmenstein_mode>  (727) 
nan

>  <inchikey>  (727) 
MZPCCBWFMHYIQN-HXUWFJFHSA-N

>  <ref_pdb>  (727) 
Z0800a

>  <GNINA pK>  (727) 
nan

>  <gnina_score_min>  (727) 
5.418

>  <tags>  (727) 
openbind_xx01zvns2b_c1_elab_nonasap_filtered_scored_top80percent,openbind_xx01zvns2b_c1_elab_chemspace_filtered_scored_top80percent,openbind_xx01zvns2b_c1_elab_chemspace_filtered_scored,openbind_xx01zvns2b_c1_elab_chemspace_filtered_scored_top40percent,openbind_xx01zvns2b_c1_elab_chemspace_filtered_scored_top20percent,openbind_xx01zvns2b_c1_elab_chemspace_filtered_scored_top60percent,openbind_xx01zvns2b_c1_elabs_filtered

>  <smiles>  (727) 
COC(=O)[C@@](C)(Cc1ccncc1)NC(=O)Cc1c(C)nc2n1CCCC2

>  <subsites>  (727) 
1 - Z4590/B/203/1

>  <gnina_score>  (727) 
5.523

>  <HIPPO Pose ID>  (727) 
75025

>  <ref_mols>  (727) 
Z1495a,Z0800a

>  <energy_score>  (727) 
-16.858425

>  <inspiration_score>  (727) 
None

>  <smina_score_min>  (727) 
-4.848

>  <fragmenstein_error>  (727) 
nan

>  <name>  (727) 
P75025

$$$$
P75026
     RDKit          3D

 27 30  0  0  0  0  0  0  0  0999 V2000
   -8.6211    2.5062   -8.0515 C   0  0  0  0  0  0  0  0  0  0  0  0
   -8.5344    2.6317   -9.4592 O   0  0  0  0  0  0  0  0  0  0  0  0
   -8.1543    3.8920   -9.8589 C   0  0  0  0  0  0  0  0  0  0  0  0
   -7.6977    3.9818  -11.1562 C   0  0  0  0  0  0  0  0  0  0  0  0
   -7.3773    5.2304  -11.7122 C   0  0  0  0  0  0  0  0  0  0  0  0
   -6.9566    5.3819  -13.2619 C   0  0  0  0  0  0  0  0  0  0  0  0
   -5.4877    5.8222  -13.3373 C   0  0  0  0  0  0  0  0  0  0  0  0
   -5.0549    5.8349  -14.7109 N   0  0  0  0  0  0  0  0  0  0  0  0
   -4.2935    4.7623  -15.5388 C   0  0  0  0  0  0  0  0  0  0  0  0
   -3.8340    3.7381  -15.2113 O   0  0  0  0  0  0  0  0  0  0  0  0
   -4.1673    5.2547  -16.9852 C   0  0  0  0  0  0  0  0  0  0  0  0
   -5.4053    5.8765  -17.5373 C   0  0  0  0  0  0  0  0  0  0  0  0
   -5.6744    7.1868  -17.8866 C   0  0  0  0  0  0  0  0  0  0  0  0
   -4.7993    8.3771  -17.7910 C   0  0  0  0  0  0  0  0  0  0  0  0
   -6.9430    7.3031  -18.4020 N   0  0  0  0  0  0  0  0  0  0  0  0
   -7.4326    6.0856  -18.4251 C   0  0  0  0  0  0  0  0  0  0  0  0
   -6.5677    5.2288  -17.8376 N   0  0  0  0  0  0  0  0  0  0  0  0
   -6.9686    3.8607  -17.7075 C   0  0  0  0  0  0  0  0  0  0  0  0
   -8.4839    3.6034  -17.4578 C   0  0  0  0  0  0  0  0  0  0  0  0
   -9.3921    4.7682  -17.7676 C   0  0  0  0  0  0  0  0  0  0  0  0
   -8.7340    5.5150  -18.8865 C   0  0  0  0  0  0  0  0  0  0  0  0
   -8.0369    6.1743  -14.1139 C   0  0  0  0  0  0  0  0  0  0  0  0
   -8.7597    4.8218  -14.2244 C   0  0  0  0  0  0  0  0  0  0  0  0
   -7.3718    4.1676  -14.1732 C   0  0  0  0  0  0  0  0  0  0  0  0
   -7.5325    6.3372  -10.8669 C   0  0  0  0  0  0  0  0  0  0  0  0
   -7.9740    6.1505   -9.5661 C   0  0  0  0  0  0  0  0  0  0  0  0
   -8.2923    4.9526   -9.0402 N   0  0  0  0  0  0  0  0  0  0  0  0
  1  2  1  0
  2  3  1  0
  3  4  2  0
  4  5  1  0
  5  6  1  0
  6  7  1  0
  7  8  1  0
  8  9  1  0
  9 10  2  0
  9 11  1  0
 11 12  1  0
 12 13  2  0
 13 14  1  0
 13 15  1  0
 15 16  2  0
 16 17  1  0
 17 18  1  0
 18 19  1  0
 19 20  1  0
 20 21  1  0
  6 22  1  0
 22 23  1  0
 23 24  1  0
  5 25  2  0
 25 26  1  0
 26 27  2  0
 27  3  1  0
 24  6  1  0
 17 12  1  0
 21 16  1  0
M  END
>  <fragmenstein_outcome>  (728) 
nan

>  <exports>  (728) 
['/opt/xchem-fragalysis-2/maxwin/openbind-hippo/xx01zvns2b/cycle_01/syndirella/elabs/openbind_xx01zvns2b_c1_elab_chemspace_filtered.sdf']

>  <Energy>  (728) 
nan

>  <alias>  (728) 
None

>  <fragmenstein_runtime>  (728) 
nan

>  <scratch_subdir>  (728) 
nan

>  <HIPPO Compound ID>  (728) 
149174

>  <rmsd(smina/fragmenstein)>  (728) 
2.349

>  <distance_score>  (728) 
1.377893

>  <orig_smiles>  (728) 
nan

>  <fragmenstein_mode>  (728) 
nan

>  <inchikey>  (728) 
JHBPLTPPEDUYLZ-UHFFFAOYSA-N

>  <ref_pdb>  (728) 
Z0800a

>  <GNINA pK>  (728) 
nan

>  <gnina_score_min>  (728) 
5.502

>  <tags>  (728) 
openbind_xx01zvns2b_c1_elab_nonasap_filtered_scored_top80percent,openbind_xx01zvns2b_c1_elab_chemspace_filtered_scored_top80percent,openbind_xx01zvns2b_c1_elab_chemspace_filtered_scored,openbind_xx01zvns2b_c1_elab_chemspace_filtered_scored_top40percent,openbind_xx01zvns2b_c1_elab_chemspace_filtered_scored_top20percent,openbind_xx01zvns2b_c1_elab_chemspace_filtered_scored_top60percent,openbind_xx01zvns2b_c1_elabs_filtered

>  <smiles>  (728) 
COc1cc(C2(CNC(=O)Cc3c(C)nc4n3CCCC4)CCC2)ccn1

>  <subsites>  (728) 
1 - Z4590/B/203/1

>  <gnina_score>  (728) 
5.345

>  <HIPPO Pose ID>  (728) 
75026

>  <ref_mols>  (728) 
Z1495a,Z0800a

>  <energy_score>  (728) 
-22.729088

>  <inspiration_score>  (728) 
None

>  <smina_score_min>  (728) 
-4.894

>  <fragmenstein_error>  (728) 
nan

>  <name>  (728) 
P75026

$$$$
P75029
     RDKit          3D

 28 31  0  0  0  0  0  0  0  0999 V2000
   -4.0970    3.4526  -15.2805 O   0  0  0  0  0  0  0  0  0  0  0  0
   -4.5553    4.4170  -15.7543 C   0  0  0  0  0  0  0  0  0  0  0  0
   -4.3025    4.7349  -17.2374 C   0  0  0  0  0  0  0  0  0  0  0  0
   -5.2291    5.7060  -17.8569 C   0  0  0  0  0  0  0  0  0  0  0  0
   -4.9779    7.0288  -18.1583 C   0  0  0  0  0  0  0  0  0  0  0  0
   -6.1064    7.6569  -18.5813 N   0  0  0  0  0  0  0  0  0  0  0  0
   -6.9975    6.6984  -18.6758 C   0  0  0  0  0  0  0  0  0  0  0  0
   -6.5434    5.5165  -18.2039 N   0  0  0  0  0  0  0  0  0  0  0  0
   -7.4071    4.3457  -17.9776 C   0  0  0  0  0  0  0  0  0  0  0  0
   -8.6573    4.4131  -17.1257 C   0  0  0  0  0  0  0  0  0  0  0  0
   -8.7780    4.1415  -18.5906 C   0  0  0  0  0  0  0  0  0  0  0  0
   -5.3660    5.5657  -15.1054 N   0  0  0  0  0  0  0  0  0  0  0  0
   -5.8600    5.7179  -13.7637 C   0  0  2  0  0  0  0  0  0  0  0  0
   -7.3813    5.4282  -13.6997 C   0  0  0  0  0  0  0  0  0  0  0  0
   -7.8139    5.1785  -12.2766 C   0  0  0  0  0  0  0  0  0  0  0  0
   -7.9458    3.8735  -11.7935 C   0  0  0  0  0  0  0  0  0  0  0  0
   -8.1917    3.6890  -10.4416 C   0  0  0  0  0  0  0  0  0  0  0  0
   -8.3030    4.7051   -9.5564 N   0  0  0  0  0  0  0  0  0  0  0  0
   -8.2046    5.9544  -10.0497 C   0  0  0  0  0  0  0  0  0  0  0  0
   -7.9812    6.2405  -11.3847 C   0  0  0  0  0  0  0  0  0  0  0  0
   -5.4652    7.0998  -13.2629 C   0  0  0  0  0  0  0  0  0  0  0  0
   -4.6073    7.2243  -12.1600 C   0  0  0  0  0  0  0  0  0  0  0  0
   -4.2354    8.4846  -11.6850 C   0  0  0  0  0  0  0  0  0  0  0  0
   -4.7110    9.6406  -12.3081 C   0  0  0  0  0  0  0  0  0  0  0  0
   -4.2124   11.1653  -11.6672 Cl  0  0  0  0  0  0  0  0  0  0  0  0
   -5.5623    9.5331  -13.4119 C   0  0  0  0  0  0  0  0  0  0  0  0
   -6.1941   10.9155  -14.2348 Cl  0  0  0  0  0  0  0  0  0  0  0  0
   -5.9350    8.2702  -13.8857 C   0  0  0  0  0  0  0  0  0  0  0  0
  1  2  2  0
  2  3  1  0
  3  4  1  0
  4  5  2  0
  5  6  1  0
  6  7  2  0
  7  8  1  0
  8  9  1  0
  9 10  1  0
 10 11  1  0
  2 12  1  0
 12 13  1  0
 13 14  1  6
 14 15  1  0
 15 16  2  0
 16 17  1  0
 17 18  2  0
 18 19  1  0
 19 20  2  0
 13 21  1  0
 21 22  2  0
 22 23  1  0
 23 24  2  0
 24 25  1  0
 24 26  1  0
 26 27  1  0
 26 28  2  0
  8  4  1  0
 11  9  1  0
 20 15  1  0
 28 21  1  0
M  END
>  <fragmenstein_outcome>  (729) 
nan

>  <exports>  (729) 
['/opt/xchem-fragalysis-2/maxwin/openbind-hippo/xx01zvns2b/cycle_01/syndirella/elabs/openbind_xx01zvns2b_c1_elab_chemspace_filtered.sdf']

>  <Energy>  (729) 
nan

>  <alias>  (729) 
None

>  <fragmenstein_runtime>  (729) 
nan

>  <scratch_subdir>  (729) 
nan

>  <HIPPO Compound ID>  (729) 
149185

>  <rmsd(smina/fragmenstein)>  (729) 
2.218

>  <distance_score>  (729) 
1.587268

>  <orig_smiles>  (729) 
nan

>  <fragmenstein_mode>  (729) 
nan

>  <inchikey>  (729) 
PTJFTSSGVXUCFO-HXUWFJFHSA-N

>  <ref_pdb>  (729) 
Z0800a

>  <GNINA pK>  (729) 
nan

>  <gnina_score_min>  (729) 
5.454

>  <tags>  (729) 
openbind_xx01zvns2b_c1_elab_nonasap_filtered_scored_top80percent,openbind_xx01zvns2b_c1_elab_chemspace_filtered_scored_top80percent,openbind_xx01zvns2b_c1_elab_chemspace_filtered_scored,openbind_xx01zvns2b_c1_elab_chemspace_filtered_scored_top40percent,openbind_xx01zvns2b_c1_elab_chemspace_filtered_scored_top20percent,openbind_xx01zvns2b_c1_elab_chemspace_filtered_scored_top60percent,openbind_xx01zvns2b_c1_elabs_filtered

>  <smiles>  (729) 
O=C(Cc1cncn1C1CC1)N[C@H](Cc1ccncc1)c1ccc(Cl)c(Cl)c1

>  <subsites>  (729) 
1 - Z4590/B/203/1

>  <gnina_score>  (729) 
6.029

>  <HIPPO Pose ID>  (729) 
75029

>  <ref_mols>  (729) 
Z1495a,Z0800a

>  <energy_score>  (729) 
-8.205927

>  <inspiration_score>  (729) 
None

>  <smina_score_min>  (729) 
-5.549

>  <fragmenstein_error>  (729) 
nan

>  <name>  (729) 
P75029

$$$$
P75031
     RDKit          3D

 28 30  0  0  0  0  0  0  0  0999 V2000
   -7.4874   11.5868  -11.9057 C   0  0  0  0  0  0  0  0  0  0  0  0
   -6.9035   10.8781  -13.1121 C   0  0  0  0  0  0  0  0  0  0  0  0
   -6.8816    9.4728  -12.8351 O   0  0  0  0  0  0  0  0  0  0  0  0
   -6.4016    8.7043  -13.8550 C   0  0  0  0  0  0  0  0  0  0  0  0
   -6.0095    9.1379  -14.9326 O   0  0  0  0  0  0  0  0  0  0  0  0
   -6.4053    7.2286  -13.4580 C   0  0  1  0  0  0  0  0  0  0  0  0
   -7.8436    6.7123  -13.2674 C   0  0  0  0  0  0  0  0  0  0  0  0
   -7.9812    5.9108  -11.9996 C   0  0  0  0  0  0  0  0  0  0  0  0
   -7.9395    6.5822  -10.7736 C   0  0  0  0  0  0  0  0  0  0  0  0
   -8.0415    5.8487   -9.6060 C   0  0  0  0  0  0  0  0  0  0  0  0
   -8.2033    4.5165   -9.5730 N   0  0  0  0  0  0  0  0  0  0  0  0
   -8.2472    3.8816  -10.7634 C   0  0  0  0  0  0  0  0  0  0  0  0
   -8.4466    2.5585  -10.7458 F   0  0  0  0  0  0  0  0  0  0  0  0
   -8.1315    4.5220  -11.9900 C   0  0  0  0  0  0  0  0  0  0  0  0
   -5.6979    6.4614  -14.4602 N   0  0  0  0  0  0  0  0  0  0  0  0
   -5.1857    5.0014  -14.4316 C   0  0  0  0  0  0  0  0  0  0  0  0
   -5.1867    4.2173  -13.5686 O   0  0  0  0  0  0  0  0  0  0  0  0
   -4.5856    4.6825  -15.8018 C   0  0  0  0  0  0  0  0  0  0  0  0
   -5.4547    5.1161  -16.9352 C   0  0  0  0  0  0  0  0  0  0  0  0
   -5.1923    6.0007  -17.9618 C   0  0  0  0  0  0  0  0  0  0  0  0
   -3.9489    6.7436  -18.2635 C   0  0  0  0  0  0  0  0  0  0  0  0
   -6.3063    6.1858  -18.7330 N   0  0  0  0  0  0  0  0  0  0  0  0
   -7.2200    5.3702  -18.2610 C   0  0  0  0  0  0  0  0  0  0  0  0
   -6.7600    4.7357  -17.1416 N   0  0  0  0  0  0  0  0  0  0  0  0
   -7.6490    4.0414  -16.2393 C   0  0  0  0  0  0  0  0  0  0  0  0
   -8.9899    3.6508  -16.8529 C   0  0  0  0  0  0  0  0  0  0  0  0
   -9.5790    4.7552  -17.6955 C   0  0  0  0  0  0  0  0  0  0  0  0
   -8.5954    5.1380  -18.7803 C   0  0  0  0  0  0  0  0  0  0  0  0
  1  2  1  0
  2  3  1  0
  3  4  1  0
  4  5  2  0
  4  6  1  0
  6  7  1  6
  7  8  1  0
  8  9  2  0
  9 10  1  0
 10 11  2  0
 11 12  1  0
 12 13  1  0
 12 14  2  0
  6 15  1  0
 15 16  1  0
 16 17  2  0
 16 18  1  0
 18 19  1  0
 19 20  2  0
 20 21  1  0
 20 22  1  0
 22 23  2  0
 23 24  1  0
 24 25  1  0
 25 26  1  0
 26 27  1  0
 27 28  1  0
 14  8  1  0
 24 19  1  0
 28 23  1  0
M  END
>  <fragmenstein_outcome>  (730) 
nan

>  <exports>  (730) 
['/opt/xchem-fragalysis-2/maxwin/openbind-hippo/xx01zvns2b/cycle_01/syndirella/elabs/openbind_xx01zvns2b_c1_elab_chemspace_filtered.sdf']

>  <Energy>  (730) 
nan

>  <alias>  (730) 
None

>  <fragmenstein_runtime>  (730) 
nan

>  <scratch_subdir>  (730) 
nan

>  <HIPPO Compound ID>  (730) 
149187

>  <rmsd(smina/fragmenstein)>  (730) 
0.708

>  <distance_score>  (730) 
1.64586

>  <orig_smiles>  (730) 
nan

>  <fragmenstein_mode>  (730) 
nan

>  <inchikey>  (730) 
GPSQAMHDYGRMHD-OAHLLOKOSA-N

>  <ref_pdb>  (730) 
Z0800a

>  <GNINA pK>  (730) 
nan

>  <gnina_score_min>  (730) 
5.564

>  <tags>  (730) 
openbind_xx01zvns2b_c1_elab_nonasap_filtered_scored_top80percent,openbind_xx01zvns2b_c1_elab_chemspace_filtered_scored_top80percent,openbind_xx01zvns2b_c1_elab_chemspace_filtered_scored,openbind_xx01zvns2b_c1_elab_chemspace_filtered_scored_top40percent,openbind_xx01zvns2b_c1_elab_chemspace_filtered_scored_top20percent,openbind_xx01zvns2b_c1_elab_chemspace_filtered_scored_top60percent,openbind_xx01zvns2b_c1_elabs_filtered

>  <smiles>  (730) 
CCOC(=O)[C@@H](Cc1ccnc(F)c1)NC(=O)Cc1c(C)nc2n1CCCC2

>  <subsites>  (730) 
1 - Z4590/B/203/1

>  <gnina_score>  (730) 
5.699

>  <HIPPO Pose ID>  (730) 
75031

>  <ref_mols>  (730) 
Z0800a,Z1495a

>  <energy_score>  (730) 
-27.110399

>  <inspiration_score>  (730) 
None

>  <smina_score_min>  (730) 
-4.89

>  <fragmenstein_error>  (730) 
nan

>  <name>  (730) 
P75031

$$$$
P75032
     RDKit          3D

 28 30  0  0  0  0  0  0  0  0999 V2000
   -6.3089   10.5891  -13.8045 C   0  0  0  0  0  0  0  0  0  0  0  0
   -5.0380    9.7623  -13.8480 C   0  0  0  0  0  0  0  0  0  0  0  0
   -5.3433    8.3748  -14.0564 O   0  0  0  0  0  0  0  0  0  0  0  0
   -5.6487    7.6623  -12.9239 C   0  0  0  0  0  0  0  0  0  0  0  0
   -5.7134    8.1557  -11.8052 O   0  0  0  0  0  0  0  0  0  0  0  0
   -5.9033    6.1858  -13.2518 C   0  0  2  0  0  0  0  0  0  0  0  0
   -5.4044    5.8574  -14.5779 N   0  0  0  0  0  0  0  0  0  0  0  0
   -4.7382    4.5683  -15.1083 C   0  0  0  0  0  0  0  0  0  0  0  0
   -4.5555    3.5428  -14.5857 O   0  0  0  0  0  0  0  0  0  0  0  0
   -4.3663    4.8152  -16.5632 C   0  0  0  0  0  0  0  0  0  0  0  0
   -5.4884    5.3678  -17.3783 C   0  0  0  0  0  0  0  0  0  0  0  0
   -5.5088    6.4940  -18.1786 C   0  0  0  0  0  0  0  0  0  0  0  0
   -4.4291    7.4686  -18.4524 C   0  0  0  0  0  0  0  0  0  0  0  0
   -6.7389    6.6589  -18.7523 N   0  0  0  0  0  0  0  0  0  0  0  0
   -7.4359    5.5951  -18.4257 C   0  0  0  0  0  0  0  0  0  0  0  0
   -6.7679    4.8666  -17.4812 N   0  0  0  0  0  0  0  0  0  0  0  0
   -7.5261    4.0954  -16.5236 C   0  0  0  0  0  0  0  0  0  0  0  0
   -8.8984    3.6211  -16.9941 C   0  0  0  0  0  0  0  0  0  0  0  0
   -9.6532    4.7151  -17.7090 C   0  0  0  0  0  0  0  0  0  0  0  0
   -8.8029    5.1900  -18.8644 C   0  0  0  0  0  0  0  0  0  0  0  0
   -7.3942    5.7767  -13.1678 C   0  0  2  0  0  0  0  0  0  0  0  0
   -8.2706    6.7625  -13.7169 O   0  0  0  0  0  0  0  0  0  0  0  0
   -7.8076    5.4069  -11.7719 C   0  0  0  0  0  0  0  0  0  0  0  0
   -7.9921    6.3762  -10.7898 C   0  0  0  0  0  0  0  0  0  0  0  0
   -8.2026    5.9604   -9.4898 C   0  0  0  0  0  0  0  0  0  0  0  0
   -8.2817    4.6676   -9.1119 N   0  0  0  0  0  0  0  0  0  0  0  0
   -8.1721    3.7403  -10.0883 C   0  0  0  0  0  0  0  0  0  0  0  0
   -7.9278    4.0564  -11.4134 C   0  0  0  0  0  0  0  0  0  0  0  0
  1  2  1  0
  2  3  1  0
  3  4  1  0
  4  5  2  0
  4  6  1  0
  6  7  1  6
  7  8  1  0
  8  9  2  0
  8 10  1  0
 10 11  1  0
 11 12  2  0
 12 13  1  0
 12 14  1  0
 14 15  2  0
 15 16  1  0
 16 17  1  0
 17 18  1  0
 18 19  1  0
 19 20  1  0
  6 21  1  0
 21 22  1  1
 21 23  1  0
 23 24  2  0
 24 25  1  0
 25 26  2  0
 26 27  1  0
 27 28  2  0
 16 11  1  0
 28 23  1  0
 20 15  1  0
M  END
>  <fragmenstein_outcome>  (731) 
nan

>  <exports>  (731) 
['/opt/xchem-fragalysis-2/maxwin/openbind-hippo/xx01zvns2b/cycle_01/syndirella/elabs/openbind_xx01zvns2b_c1_elab_chemspace_filtered.sdf']

>  <Energy>  (731) 
nan

>  <alias>  (731) 
None

>  <fragmenstein_runtime>  (731) 
nan

>  <scratch_subdir>  (731) 
nan

>  <HIPPO Compound ID>  (731) 
149188

>  <rmsd(smina/fragmenstein)>  (731) 
1.41

>  <distance_score>  (731) 
1.525958

>  <orig_smiles>  (731) 
nan

>  <fragmenstein_mode>  (731) 
nan

>  <inchikey>  (731) 
JUBWGCRCDXRYLY-RTBURBONSA-N

>  <ref_pdb>  (731) 
Z0800a

>  <GNINA pK>  (731) 
nan

>  <gnina_score_min>  (731) 
5.157

>  <tags>  (731) 
openbind_xx01zvns2b_c1_elab_nonasap_filtered_scored_top80percent,openbind_xx01zvns2b_c1_elab_chemspace_filtered_scored_top80percent,openbind_xx01zvns2b_c1_elab_chemspace_filtered_scored,openbind_xx01zvns2b_c1_elab_chemspace_filtered_scored_top40percent,openbind_xx01zvns2b_c1_elab_chemspace_filtered_scored_top20percent,openbind_xx01zvns2b_c1_elab_chemspace_filtered_scored_top60percent,openbind_xx01zvns2b_c1_elabs_filtered

>  <smiles>  (731) 
CCOC(=O)[C@H](NC(=O)Cc1c(C)nc2n1CCCC2)[C@H](O)c1ccncc1

>  <subsites>  (731) 
1 - Z4590/B/203/1

>  <gnina_score>  (731) 
5.177

>  <HIPPO Pose ID>  (731) 
75032

>  <ref_mols>  (731) 
Z1495a,Z0800a

>  <energy_score>  (731) 
-25.188934

>  <inspiration_score>  (731) 
None

>  <smina_score_min>  (731) 
-4.968

>  <fragmenstein_error>  (731) 
nan

>  <name>  (731) 
P75032

$$$$
P75039
     RDKit          3D

 28 31  0  0  0  0  0  0  0  0999 V2000
   -9.8739    5.0129  -17.5877 C   0  0  0  0  0  0  0  0  0  0  0  0
   -8.4509    4.5455  -17.8180 C   0  0  1  0  0  0  0  0  0  0  0  0
   -8.3535    3.9990  -19.2326 C   0  0  0  0  0  0  0  0  0  0  0  0
   -6.9734    4.1080  -19.8715 C   0  0  0  0  0  0  0  0  0  0  0  0
   -5.8194    4.4750  -18.9670 C   0  0  0  0  0  0  0  0  0  0  0  0
   -6.1949    5.5773  -18.1237 N   0  0  0  0  0  0  0  0  0  0  0  0
   -5.4396    6.6103  -17.6459 C   0  0  0  0  0  0  0  0  0  0  0  0
   -4.0349    6.9344  -18.0394 C   0  0  0  0  0  0  0  0  0  0  0  0
   -3.0372    6.0439  -17.2867 C   0  0  0  0  0  0  0  0  0  0  0  0
   -2.3065    5.3084  -17.8282 O   0  0  0  0  0  0  0  0  0  0  0  0
   -3.3011    6.2676  -15.7706 N   0  0  0  0  0  0  0  0  0  0  0  0
   -2.7886    5.5642  -14.6133 C   0  0  0  0  0  0  0  0  0  0  0  0
   -3.4899    6.0428  -13.3283 C   0  0  0  0  0  0  0  0  0  0  0  0
   -4.8172    5.2997  -13.0339 C   0  0  0  0  0  0  0  0  0  0  0  0
   -5.4150    4.8118  -14.2677 N   0  0  0  0  0  0  0  0  0  0  0  0
   -6.7856    4.2710  -14.1945 C   0  0  0  0  0  0  0  0  0  0  0  0
   -7.8801    5.2087  -13.6620 C   0  0  0  0  0  0  0  0  0  0  0  0
   -8.0220    5.1446  -12.1620 C   0  0  0  0  0  0  0  0  0  0  0  0
   -7.9188    6.3013  -11.3886 C   0  0  0  0  0  0  0  0  0  0  0  0
   -7.9849    6.1826  -10.0103 C   0  0  0  0  0  0  0  0  0  0  0  0
   -8.1547    5.0134   -9.3577 N   0  0  0  0  0  0  0  0  0  0  0  0
   -8.3010    3.9106  -10.1270 C   0  0  0  0  0  0  0  0  0  0  0  0
   -8.2490    3.9275  -11.5106 C   0  0  0  0  0  0  0  0  0  0  0  0
   -4.5578    3.8016  -14.9001 C   0  0  0  0  0  0  0  0  0  0  0  0
   -3.0556    4.0764  -14.7731 C   0  0  0  0  0  0  0  0  0  0  0  0
   -6.2608    7.1864  -16.7003 C   0  0  0  0  0  0  0  0  0  0  0  0
   -7.4698    6.5569  -16.6232 N   0  0  0  0  0  0  0  0  0  0  0  0
   -7.4288    5.6026  -17.5263 C   0  0  0  0  0  0  0  0  0  0  0  0
  2  1  1  6
  2  3  1  0
  3  4  1  0
  4  5  1  0
  5  6  1  0
  6  7  1  0
  7  8  1  0
  8  9  1  0
  9 10  2  0
  9 11  1  0
 11 12  1  0
 12 13  1  0
 13 14  1  0
 14 15  1  0
 15 16  1  0
 16 17  1  0
 17 18  1  0
 18 19  2  0
 19 20  1  0
 20 21  2  0
 21 22  1  0
 22 23  2  0
 15 24  1  0
 24 25  1  0
  7 26  2  0
 26 27  1  0
 27 28  2  0
 28  2  1  0
 28  6  1  0
 25 12  1  0
 23 18  1  0
M  END
>  <fragmenstein_outcome>  (732) 
nan

>  <exports>  (732) 
['/opt/xchem-fragalysis-2/maxwin/openbind-hippo/xx01zvns2b/cycle_01/syndirella/elabs/openbind_xx01zvns2b_c1_elab_chemspace_filtered.sdf']

>  <Energy>  (732) 
nan

>  <alias>  (732) 
None

>  <fragmenstein_runtime>  (732) 
nan

>  <scratch_subdir>  (732) 
nan

>  <HIPPO Compound ID>  (732) 
149191

>  <rmsd(smina/fragmenstein)>  (732) 
2.592

>  <distance_score>  (732) 
1.565506

>  <orig_smiles>  (732) 
nan

>  <fragmenstein_mode>  (732) 
nan

>  <inchikey>  (732) 
IMHYJBILZXXQPY-KRWDZBQOSA-N

>  <ref_pdb>  (732) 
Z0800a

>  <GNINA pK>  (732) 
nan

>  <gnina_score_min>  (732) 
5.683

>  <tags>  (732) 
openbind_xx01zvns2b_c1_elab_nonasap_filtered_scored_top80percent,openbind_xx01zvns2b_c1_elab_chemspace_filtered_scored_top80percent,openbind_xx01zvns2b_c1_elab_chemspace_filtered_scored,openbind_xx01zvns2b_c1_elab_chemspace_filtered_scored_top40percent,openbind_xx01zvns2b_c1_elab_chemspace_filtered_scored_top20percent,openbind_xx01zvns2b_c1_elab_chemspace_filtered_scored_top60percent,openbind_xx01zvns2b_c1_elabs_filtered

>  <smiles>  (732) 
C[C@H]1CCCn2c(CC(=O)NC3CCN(CCc4ccncc4)CC3)cnc21

>  <subsites>  (732) 
1 - Z4590/B/203/1

>  <gnina_score>  (732) 
5.631

>  <HIPPO Pose ID>  (732) 
75039

>  <ref_mols>  (732) 
Z1495a,Z0800a

>  <energy_score>  (732) 
-28.225755

>  <inspiration_score>  (732) 
None

>  <smina_score_min>  (732) 
-6.424

>  <fragmenstein_error>  (732) 
nan

>  <name>  (732) 
P75039

$$$$
P75043
     RDKit          3D

 28 30  0  0  0  0  0  0  0  0999 V2000
   -7.5025   10.8697  -12.7207 C   0  0  0  0  0  0  0  0  0  0  0  0
   -7.1937    9.4792  -12.6123 O   0  0  0  0  0  0  0  0  0  0  0  0
   -6.6319    8.9365  -13.7300 C   0  0  0  0  0  0  0  0  0  0  0  0
   -6.4064    9.5519  -14.7661 O   0  0  0  0  0  0  0  0  0  0  0  0
   -6.3508    7.4492  -13.5097 C   0  0  1  0  0  0  0  0  0  0  0  0
   -7.6665    6.6222  -13.4866 C   0  0  0  0  0  0  0  0  0  0  0  0
   -7.8594    5.8639  -12.1931 C   0  0  0  0  0  0  0  0  0  0  0  0
   -7.8949    6.5506  -10.9766 C   0  0  0  0  0  0  0  0  0  0  0  0
   -8.0451    5.8342   -9.8014 C   0  0  0  0  0  0  0  0  0  0  0  0
   -8.0534    6.5110   -8.6435 F   0  0  0  0  0  0  0  0  0  0  0  0
   -8.1817    4.5036   -9.7383 N   0  0  0  0  0  0  0  0  0  0  0  0
   -8.1972    3.8594  -10.9213 C   0  0  0  0  0  0  0  0  0  0  0  0
   -8.3816    2.5346  -10.8859 F   0  0  0  0  0  0  0  0  0  0  0  0
   -8.0331    4.4771  -12.1580 C   0  0  0  0  0  0  0  0  0  0  0  0
   -5.4842    6.9688  -14.5651 N   0  0  0  0  0  0  0  0  0  0  0  0
   -3.9934    6.5261  -14.5246 C   0  0  0  0  0  0  0  0  0  0  0  0
   -3.2186    6.5555  -13.6503 O   0  0  0  0  0  0  0  0  0  0  0  0
   -3.6722    5.8850  -15.9017 C   0  0  0  0  0  0  0  0  0  0  0  0
   -4.7901    4.9655  -16.2832 C   0  0  0  0  0  0  0  0  0  0  0  0
   -5.5637    4.1654  -15.4616 C   0  0  0  0  0  0  0  0  0  0  0  0
   -6.7673    3.8945  -16.0419 N   0  0  0  0  0  0  0  0  0  0  0  0
   -6.6572    4.3190  -17.2773 C   0  0  0  0  0  0  0  0  0  0  0  0
   -5.4223    4.8980  -17.4907 N   0  0  0  0  0  0  0  0  0  0  0  0
   -5.1355    5.5754  -18.7356 C   0  0  0  0  0  0  0  0  0  0  0  0
   -6.3002    6.4865  -19.1279 C   0  0  0  0  0  0  0  0  0  0  0  0
   -7.6595    6.0132  -18.5591 C   0  0  0  0  0  0  0  0  0  0  0  0
   -7.7209    4.5074  -18.3059 C   0  0  2  0  0  0  0  0  0  0  0  0
   -9.1084    4.0891  -17.8265 C   0  0  0  0  0  0  0  0  0  0  0  0
  1  2  1  0
  2  3  1  0
  3  4  2  0
  3  5  1  0
  5  6  1  6
  6  7  1  0
  7  8  2  0
  8  9  1  0
  9 10  1  0
  9 11  2  0
 11 12  1  0
 12 13  1  0
 12 14  2  0
  5 15  1  0
 15 16  1  0
 16 17  2  0
 16 18  1  0
 18 19  1  0
 19 20  2  0
 20 21  1  0
 21 22  2  0
 22 23  1  0
 23 24  1  0
 24 25  1  0
 25 26  1  0
 26 27  1  0
 27 28  1  1
 14  7  1  0
 23 19  1  0
 27 22  1  0
M  END
>  <fragmenstein_outcome>  (733) 
nan

>  <exports>  (733) 
['/opt/xchem-fragalysis-2/maxwin/openbind-hippo/xx01zvns2b/cycle_01/syndirella/elabs/openbind_xx01zvns2b_c1_elab_chemspace_filtered.sdf']

>  <Energy>  (733) 
nan

>  <alias>  (733) 
None

>  <fragmenstein_runtime>  (733) 
nan

>  <scratch_subdir>  (733) 
nan

>  <HIPPO Compound ID>  (733) 
149202

>  <rmsd(smina/fragmenstein)>  (733) 
0.708

>  <distance_score>  (733) 
1.927253

>  <orig_smiles>  (733) 
nan

>  <fragmenstein_mode>  (733) 
nan

>  <inchikey>  (733) 
JOXBJLQSPMWBQR-SMDDNHRTSA-N

>  <ref_pdb>  (733) 
Z0800a

>  <GNINA pK>  (733) 
nan

>  <gnina_score_min>  (733) 
5.489

>  <tags>  (733) 
openbind_xx01zvns2b_c1_elab_nonasap_filtered_scored_top80percent,openbind_xx01zvns2b_c1_elab_chemspace_filtered_scored_top80percent,openbind_xx01zvns2b_c1_elab_chemspace_filtered_scored,openbind_xx01zvns2b_c1_elab_chemspace_filtered_scored_top40percent,openbind_xx01zvns2b_c1_elab_chemspace_filtered_scored_top20percent,openbind_xx01zvns2b_c1_elab_chemspace_filtered_scored_top60percent,openbind_xx01zvns2b_c1_elabs_filtered

>  <smiles>  (733) 
COC(=O)[C@@H](Cc1cc(F)nc(F)c1)NC(=O)Cc1cnc2n1CCC[C@@H]2C

>  <subsites>  (733) 
1 - Z4590/B/203/1

>  <gnina_score>  (733) 
5.885

>  <HIPPO Pose ID>  (733) 
75043

>  <ref_mols>  (733) 
Z1495a,Z0800a

>  <energy_score>  (733) 
-22.79118

>  <inspiration_score>  (733) 
None

>  <smina_score_min>  (733) 
-4.729

>  <fragmenstein_error>  (733) 
nan

>  <name>  (733) 
P75043

$$$$
P75045
     RDKit          3D

 28 31  0  0  0  0  0  0  0  0999 V2000
   -9.6580    4.8939  -17.2843 C   0  0  0  0  0  0  0  0  0  0  0  0
   -8.5975    5.2697  -18.3022 C   0  0  2  0  0  0  0  0  0  0  0  0
   -8.3237    4.0516  -19.1640 C   0  0  0  0  0  0  0  0  0  0  0  0
   -6.9734    4.1412  -19.8473 C   0  0  0  0  0  0  0  0  0  0  0  0
   -5.8431    4.3285  -18.8688 C   0  0  0  0  0  0  0  0  0  0  0  0
   -6.0993    5.4147  -17.9690 N   0  0  0  0  0  0  0  0  0  0  0  0
   -5.2200    5.9875  -17.0970 C   0  0  0  0  0  0  0  0  0  0  0  0
   -3.8558    5.4744  -16.7563 C   0  0  0  0  0  0  0  0  0  0  0  0
   -3.8226    5.3871  -15.2217 C   0  0  0  0  0  0  0  0  0  0  0  0
   -3.1034    6.0329  -14.5612 O   0  0  0  0  0  0  0  0  0  0  0  0
   -4.9605    4.3973  -14.8095 N   0  0  0  0  0  0  0  0  0  0  0  0
   -5.5046    4.0779  -13.4998 C   0  0  2  0  0  0  0  0  0  0  0  0
   -6.8442    4.8908  -13.4173 C   0  0  0  0  0  0  0  0  0  0  0  0
   -7.5164    4.8451  -12.0760 C   0  0  0  0  0  0  0  0  0  0  0  0
   -7.9844    3.6425  -11.5457 C   0  0  0  0  0  0  0  0  0  0  0  0
   -8.4185    3.6314  -10.2307 C   0  0  0  0  0  0  0  0  0  0  0  0
   -8.4298    4.7247   -9.4321 N   0  0  0  0  0  0  0  0  0  0  0  0
   -8.0374    5.8869   -9.9911 C   0  0  0  0  0  0  0  0  0  0  0  0
   -7.5832    6.0000  -11.2919 C   0  0  0  0  0  0  0  0  0  0  0  0
   -4.5325    4.3653  -12.3361 C   0  0  0  0  0  0  0  0  0  0  0  0
   -3.3783    3.3804  -12.1008 C   0  0  0  0  0  0  0  0  0  0  0  0
   -2.5141    2.9754  -13.2885 C   0  0  0  0  0  0  0  0  0  0  0  0
   -1.6952    1.8041  -12.7497 C   0  0  0  0  0  0  0  0  0  0  0  0
   -2.5394    1.1784  -11.6385 C   0  0  0  0  0  0  0  0  0  0  0  0
   -3.8115    2.0191  -11.5543 C   0  0  0  0  0  0  0  0  0  0  0  0
   -5.9748    6.9496  -16.4608 C   0  0  0  0  0  0  0  0  0  0  0  0
   -7.2951    6.8045  -16.7677 N   0  0  0  0  0  0  0  0  0  0  0  0
   -7.3630    5.8326  -17.6526 C   0  0  0  0  0  0  0  0  0  0  0  0
  2  1  1  1
  2  3  1  0
  3  4  1  0
  4  5  1  0
  5  6  1  0
  6  7  1  0
  7  8  1  0
  8  9  1  0
  9 10  2  0
  9 11  1  0
 11 12  1  0
 12 13  1  1
 13 14  1  0
 14 15  2  0
 15 16  1  0
 16 17  2  0
 17 18  1  0
 18 19  2  0
 12 20  1  0
 20 21  1  0
 21 22  1  0
 22 23  1  0
 23 24  1  0
 24 25  1  0
  7 26  2  0
 26 27  1  0
 27 28  2  0
 28  2  1  0
 28  6  1  0
 19 14  1  0
 25 21  1  0
M  END
>  <fragmenstein_outcome>  (734) 
nan

>  <exports>  (734) 
['/opt/xchem-fragalysis-2/maxwin/openbind-hippo/xx01zvns2b/cycle_01/syndirella/elabs/openbind_xx01zvns2b_c1_elab_chemspace_filtered.sdf']

>  <Energy>  (734) 
nan

>  <alias>  (734) 
None

>  <fragmenstein_runtime>  (734) 
nan

>  <scratch_subdir>  (734) 
nan

>  <HIPPO Compound ID>  (734) 
149204

>  <rmsd(smina/fragmenstein)>  (734) 
2.47

>  <distance_score>  (734) 
1.540982

>  <orig_smiles>  (734) 
nan

>  <fragmenstein_mode>  (734) 
nan

>  <inchikey>  (734) 
FGEQDFAFPQYYDR-XLIONFOSSA-N

>  <ref_pdb>  (734) 
Z0800a

>  <GNINA pK>  (734) 
nan

>  <gnina_score_min>  (734) 
5.365

>  <tags>  (734) 
openbind_xx01zvns2b_c1_elab_nonasap_filtered_scored_top80percent,openbind_xx01zvns2b_c1_elab_chemspace_filtered_scored_top80percent,openbind_xx01zvns2b_c1_elab_chemspace_filtered_scored,openbind_xx01zvns2b_c1_elab_chemspace_filtered_scored_top40percent,openbind_xx01zvns2b_c1_elab_chemspace_filtered_scored_top20percent,openbind_xx01zvns2b_c1_elab_chemspace_filtered_scored_top60percent,openbind_xx01zvns2b_c1_elabs_filtered

>  <smiles>  (734) 
C[C@@H]1CCCn2c(CC(=O)N[C@H](Cc3ccncc3)CC3CCCC3)cnc21

>  <subsites>  (734) 
1 - Z4590/B/203/1

>  <gnina_score>  (734) 
6.169

>  <HIPPO Pose ID>  (734) 
75045

>  <ref_mols>  (734) 
Z1495a,Z0800a

>  <energy_score>  (734) 
-19.880825

>  <inspiration_score>  (734) 
None

>  <smina_score_min>  (734) 
-5.828

>  <fragmenstein_error>  (734) 
nan

>  <name>  (734) 
P75045

$$$$
P75046
     RDKit          3D

 28 31  0  0  0  0  0  0  0  0999 V2000
   -8.7158    3.9878  -19.7001 C   0  0  0  0  0  0  0  0  0  0  0  0
   -8.5416    5.0514  -18.6457 C   0  0  1  0  0  0  0  0  0  0  0  0
   -9.5592    4.8025  -17.5368 C   0  0  0  0  0  0  0  0  0  0  0  0
   -9.0516    3.7506  -16.5791 C   0  0  0  0  0  0  0  0  0  0  0  0
   -7.7378    4.1775  -15.9603 C   0  0  0  0  0  0  0  0  0  0  0  0
   -6.7677    4.6714  -16.9085 N   0  0  0  0  0  0  0  0  0  0  0  0
   -5.4616    5.0492  -16.6858 C   0  0  0  0  0  0  0  0  0  0  0  0
   -4.7673    5.1008  -15.3643 C   0  0  0  0  0  0  0  0  0  0  0  0
   -5.3729    6.3215  -14.6522 C   0  0  0  0  0  0  0  0  0  0  0  0
   -5.0568    7.4219  -14.8821 O   0  0  0  0  0  0  0  0  0  0  0  0
   -6.4847    5.7681  -13.7203 N   0  0  0  0  0  0  0  0  0  0  0  0
   -7.4981    6.4596  -12.9538 C   0  0  2  0  0  0  0  0  0  0  0  0
   -7.4207    8.0013  -13.0211 C   0  0  0  0  0  0  0  0  0  0  0  0
   -6.3430    8.7609  -12.2691 C   0  0  0  0  0  0  0  0  0  0  0  0
   -5.1888    8.1736  -11.7460 C   0  0  0  0  0  0  0  0  0  0  0  0
   -4.2740    8.9700  -11.0705 C   0  0  0  0  0  0  0  0  0  0  0  0
   -4.4242   10.2969  -10.8777 N   0  0  0  0  0  0  0  0  0  0  0  0
   -5.5300   10.8556  -11.4085 C   0  0  0  0  0  0  0  0  0  0  0  0
   -6.4988   10.1436  -12.1007 C   0  0  0  0  0  0  0  0  0  0  0  0
   -7.7592    5.7507  -11.6432 C   0  0  0  0  0  0  0  0  0  0  0  0
   -8.0222    4.3665  -11.6199 C   0  0  0  0  0  0  0  0  0  0  0  0
   -8.2237    3.7346  -10.4018 C   0  0  0  0  0  0  0  0  0  0  0  0
   -8.1898    4.3813   -9.2197 N   0  0  0  0  0  0  0  0  0  0  0  0
   -7.9877    5.7103   -9.2608 C   0  0  0  0  0  0  0  0  0  0  0  0
   -7.7845    6.4280  -10.4254 C   0  0  0  0  0  0  0  0  0  0  0  0
   -5.0477    5.5454  -17.8991 C   0  0  0  0  0  0  0  0  0  0  0  0
   -6.0852    5.5999  -18.7796 N   0  0  0  0  0  0  0  0  0  0  0  0
   -7.1279    5.1025  -18.1551 C   0  0  0  0  0  0  0  0  0  0  0  0
  2  1  1  6
  2  3  1  0
  3  4  1  0
  4  5  1  0
  5  6  1  0
  6  7  1  0
  7  8  1  0
  8  9  1  0
  9 10  2  0
  9 11  1  0
 11 12  1  0
 12 13  1  1
 13 14  1  0
 14 15  2  0
 15 16  1  0
 16 17  2  0
 17 18  1  0
 18 19  2  0
 12 20  1  0
 20 21  2  0
 21 22  1  0
 22 23  2  0
 23 24  1  0
 24 25  2  0
  7 26  2  0
 26 27  1  0
 27 28  2  0
 28  2  1  0
 28  6  1  0
 19 14  1  0
 25 20  1  0
M  END
>  <fragmenstein_outcome>  (735) 
nan

>  <exports>  (735) 
['/opt/xchem-fragalysis-2/maxwin/openbind-hippo/xx01zvns2b/cycle_01/syndirella/elabs/openbind_xx01zvns2b_c1_elab_chemspace_filtered.sdf']

>  <Energy>  (735) 
nan

>  <alias>  (735) 
None

>  <fragmenstein_runtime>  (735) 
nan

>  <scratch_subdir>  (735) 
nan

>  <HIPPO Compound ID>  (735) 
149206

>  <rmsd(smina/fragmenstein)>  (735) 
2.048

>  <distance_score>  (735) 
1.815305

>  <orig_smiles>  (735) 
nan

>  <fragmenstein_mode>  (735) 
nan

>  <inchikey>  (735) 
VRKXEPNJPGIDNF-OXJNMPFZSA-N

>  <ref_pdb>  (735) 
Z0800a

>  <GNINA pK>  (735) 
nan

>  <gnina_score_min>  (735) 
5.864

>  <tags>  (735) 
openbind_xx01zvns2b_c1_elab_nonasap_filtered_scored_top80percent,openbind_xx01zvns2b_c1_elab_chemspace_filtered_scored_top80percent,openbind_xx01zvns2b_c1_elab_chemspace_filtered_scored,openbind_xx01zvns2b_c1_elab_chemspace_filtered_scored_top40percent,openbind_xx01zvns2b_c1_elab_chemspace_filtered_scored_top20percent,openbind_xx01zvns2b_c1_elab_chemspace_filtered_scored_top60percent,openbind_xx01zvns2b_c1_elabs_filtered

>  <smiles>  (735) 
C[C@H]1CCCn2c(CC(=O)N[C@H](Cc3ccncc3)c3ccncc3)cnc21

>  <subsites>  (735) 
1 - Z4590/B/203/1

>  <gnina_score>  (735) 
5.479

>  <HIPPO Pose ID>  (735) 
75046

>  <ref_mols>  (735) 
Z1495a,Z0800a

>  <energy_score>  (735) 
-3.859834

>  <inspiration_score>  (735) 
None

>  <smina_score_min>  (735) 
-4.624

>  <fragmenstein_error>  (735) 
nan

>  <name>  (735) 
P75046

$$$$
P75048
     RDKit          3D

 28 30  0  0  0  0  0  0  0  0999 V2000
   -3.0250    8.2007  -12.0432 C   0  0  0  0  0  0  0  0  0  0  0  0
   -3.5143    6.8321  -11.6116 C   0  0  0  0  0  0  0  0  0  0  0  0
   -4.2313    6.2519  -12.7073 O   0  0  0  0  0  0  0  0  0  0  0  0
   -4.7246    4.9992  -12.4485 C   0  0  0  0  0  0  0  0  0  0  0  0
   -4.6080    4.4309  -11.3702 O   0  0  0  0  0  0  0  0  0  0  0  0
   -5.5233    4.4499  -13.6445 C   0  0  1  0  0  0  0  0  0  0  0  0
   -7.0355    4.7966  -13.5895 C   0  0  0  0  0  0  0  0  0  0  0  0
   -7.6209    4.8092  -12.2089 C   0  0  0  0  0  0  0  0  0  0  0  0
   -7.6942    6.0043  -11.4856 C   0  0  0  0  0  0  0  0  0  0  0  0
   -8.0807    5.9508  -10.1574 C   0  0  0  0  0  0  0  0  0  0  0  0
   -8.4085    4.8130   -9.5177 N   0  0  0  0  0  0  0  0  0  0  0  0
   -8.3796    3.6782  -10.2536 C   0  0  0  0  0  0  0  0  0  0  0  0
   -8.7331    2.5387   -9.6480 F   0  0  0  0  0  0  0  0  0  0  0  0
   -7.9972    3.6232  -11.5820 C   0  0  0  0  0  0  0  0  0  0  0  0
   -4.9991    5.0450  -14.8583 N   0  0  0  0  0  0  0  0  0  0  0  0
   -3.9341    4.5233  -15.8571 C   0  0  0  0  0  0  0  0  0  0  0  0
   -3.3717    3.5008  -15.8976 O   0  0  0  0  0  0  0  0  0  0  0  0
   -3.7674    5.6108  -16.9549 C   0  0  0  0  0  0  0  0  0  0  0  0
   -5.1120    6.1288  -17.3492 C   0  0  0  0  0  0  0  0  0  0  0  0
   -5.8008    7.2446  -16.9326 C   0  0  0  0  0  0  0  0  0  0  0  0
   -7.1448    7.0582  -17.1006 N   0  0  0  0  0  0  0  0  0  0  0  0
   -7.2865    5.9288  -17.7632 C   0  0  0  0  0  0  0  0  0  0  0  0
   -6.0488    5.4296  -18.0507 N   0  0  0  0  0  0  0  0  0  0  0  0
   -5.8900    4.2282  -18.8136 C   0  0  0  0  0  0  0  0  0  0  0  0
   -6.9839    4.1407  -19.8502 C   0  0  0  0  0  0  0  0  0  0  0  0
   -8.3637    4.1285  -19.2189 C   0  0  0  0  0  0  0  0  0  0  0  0
   -8.5596    5.2371  -18.1927 C   0  0  1  0  0  0  0  0  0  0  0  0
   -9.2914    4.6481  -16.9944 C   0  0  0  0  0  0  0  0  0  0  0  0
  1  2  1  0
  2  3  1  0
  3  4  1  0
  4  5  2  0
  4  6  1  0
  6  7  1  1
  7  8  1  0
  8  9  2  0
  9 10  1  0
 10 11  2  0
 11 12  1  0
 12 13  1  0
 12 14  2  0
  6 15  1  0
 15 16  1  0
 16 17  2  0
 16 18  1  0
 18 19  1  0
 19 20  2  0
 20 21  1  0
 21 22  2  0
 22 23  1  0
 23 24  1  0
 24 25  1  0
 25 26  1  0
 26 27  1  0
 27 28  1  1
 14  8  1  0
 23 19  1  0
 27 22  1  0
M  END
>  <fragmenstein_outcome>  (736) 
nan

>  <exports>  (736) 
['/opt/xchem-fragalysis-2/maxwin/openbind-hippo/xx01zvns2b/cycle_01/syndirella/elabs/openbind_xx01zvns2b_c1_elab_chemspace_filtered.sdf']

>  <Energy>  (736) 
nan

>  <alias>  (736) 
None

>  <fragmenstein_runtime>  (736) 
nan

>  <scratch_subdir>  (736) 
nan

>  <HIPPO Compound ID>  (736) 
149207

>  <rmsd(smina/fragmenstein)>  (736) 
2.438

>  <distance_score>  (736) 
1.737056

>  <orig_smiles>  (736) 
nan

>  <fragmenstein_mode>  (736) 
nan

>  <inchikey>  (736) 
TWEIVOHXZHTGNB-CZUORRHYSA-N

>  <ref_pdb>  (736) 
Z0800a

>  <GNINA pK>  (736) 
nan

>  <gnina_score_min>  (736) 
5.385

>  <tags>  (736) 
openbind_xx01zvns2b_c1_elab_nonasap_filtered_scored_top80percent,openbind_xx01zvns2b_c1_elab_chemspace_filtered_scored_top80percent,openbind_xx01zvns2b_c1_elab_chemspace_filtered_scored,openbind_xx01zvns2b_c1_elab_chemspace_filtered_scored_top40percent,openbind_xx01zvns2b_c1_elab_chemspace_filtered_scored_top20percent,openbind_xx01zvns2b_c1_elab_chemspace_filtered_scored_top60percent,openbind_xx01zvns2b_c1_elabs_filtered

>  <smiles>  (736) 
CCOC(=O)[C@@H](Cc1ccnc(F)c1)NC(=O)Cc1cnc2n1CCC[C@H]2C

>  <subsites>  (736) 
1 - Z4590/B/203/1

>  <gnina_score>  (736) 
5.845

>  <HIPPO Pose ID>  (736) 
75048

>  <ref_mols>  (736) 
Z1495a,Z0800a

>  <energy_score>  (736) 
-18.731826

>  <inspiration_score>  (736) 
None

>  <smina_score_min>  (736) 
-5.795

>  <fragmenstein_error>  (736) 
nan

>  <name>  (736) 
P75048

$$$$
P75051
     RDKit          3D

 28 30  0  0  0  0  0  0  0  0999 V2000
   -2.3473    1.8414  -12.4882 C   0  0  0  0  0  0  0  0  0  0  0  0
   -3.7829    1.7003  -12.9572 C   0  0  0  0  0  0  0  0  0  0  0  0
   -4.2488    2.9223  -13.5394 O   0  0  0  0  0  0  0  0  0  0  0  0
   -4.7234    3.8522  -12.6603 C   0  0  0  0  0  0  0  0  0  0  0  0
   -4.7319    3.7134  -11.4427 O   0  0  0  0  0  0  0  0  0  0  0  0
   -5.2213    5.1067  -13.3774 C   0  0  1  0  0  0  0  0  0  0  0  0
   -4.7823    5.1503  -14.7601 N   0  0  0  0  0  0  0  0  0  0  0  0
   -3.6416    5.9626  -15.4305 C   0  0  0  0  0  0  0  0  0  0  0  0
   -2.8328    6.6607  -14.9599 O   0  0  0  0  0  0  0  0  0  0  0  0
   -3.8218    5.7683  -16.9554 C   0  0  0  0  0  0  0  0  0  0  0  0
   -5.2449    6.1432  -17.2593 C   0  0  0  0  0  0  0  0  0  0  0  0
   -6.0407    7.0833  -16.6379 C   0  0  0  0  0  0  0  0  0  0  0  0
   -7.3567    6.7684  -16.7918 N   0  0  0  0  0  0  0  0  0  0  0  0
   -7.3994    5.7986  -17.6812 C   0  0  0  0  0  0  0  0  0  0  0  0
   -6.1251    5.4419  -18.0309 N   0  0  0  0  0  0  0  0  0  0  0  0
   -5.8615    4.3188  -18.8821 C   0  0  0  0  0  0  0  0  0  0  0  0
   -6.9668    4.1489  -19.8936 C   0  0  0  0  0  0  0  0  0  0  0  0
   -8.3446    4.0578  -19.2685 C   0  0  0  0  0  0  0  0  0  0  0  0
   -8.6285    5.1675  -18.2774 C   0  0  1  0  0  0  0  0  0  0  0  0
   -9.5452    4.6160  -17.1984 C   0  0  0  0  0  0  0  0  0  0  0  0
   -6.7749    5.2701  -13.3959 C   0  0  1  0  0  0  0  0  0  0  0  0
   -7.3625    4.3966  -14.3681 O   0  0  0  0  0  0  0  0  0  0  0  0
   -7.4389    5.0957  -12.0593 C   0  0  0  0  0  0  0  0  0  0  0  0
   -7.4838    6.1713  -11.1675 C   0  0  0  0  0  0  0  0  0  0  0  0
   -7.9695    5.9531   -9.8908 C   0  0  0  0  0  0  0  0  0  0  0  0
   -8.4059    4.7589   -9.4470 N   0  0  0  0  0  0  0  0  0  0  0  0
   -8.3906    3.7376  -10.3355 C   0  0  0  0  0  0  0  0  0  0  0  0
   -7.9359    3.8587  -11.6380 C   0  0  0  0  0  0  0  0  0  0  0  0
  1  2  1  0
  2  3  1  0
  3  4  1  0
  4  5  2  0
  4  6  1  0
  6  7  1  6
  7  8  1  0
  8  9  2  0
  8 10  1  0
 10 11  1  0
 11 12  2  0
 12 13  1  0
 13 14  2  0
 14 15  1  0
 15 16  1  0
 16 17  1  0
 17 18  1  0
 18 19  1  0
 19 20  1  1
  6 21  1  0
 21 22  1  6
 21 23  1  0
 23 24  2  0
 24 25  1  0
 25 26  2  0
 26 27  1  0
 27 28  2  0
 15 11  1  0
 28 23  1  0
 19 14  1  0
M  END
>  <fragmenstein_outcome>  (737) 
nan

>  <exports>  (737) 
['/opt/xchem-fragalysis-2/maxwin/openbind-hippo/xx01zvns2b/cycle_01/syndirella/elabs/openbind_xx01zvns2b_c1_elab_chemspace_filtered.sdf']

>  <Energy>  (737) 
nan

>  <alias>  (737) 
None

>  <fragmenstein_runtime>  (737) 
nan

>  <scratch_subdir>  (737) 
nan

>  <HIPPO Compound ID>  (737) 
149208

>  <rmsd(smina/fragmenstein)>  (737) 
2.505

>  <distance_score>  (737) 
1.535913

>  <orig_smiles>  (737) 
nan

>  <fragmenstein_mode>  (737) 
nan

>  <inchikey>  (737) 
YUYXPXOTIIYTEY-BVGQSLNGSA-N

>  <ref_pdb>  (737) 
Z0800a

>  <GNINA pK>  (737) 
nan

>  <gnina_score_min>  (737) 
5.356

>  <tags>  (737) 
openbind_xx01zvns2b_c1_elab_nonasap_filtered_scored_top80percent,openbind_xx01zvns2b_c1_elab_chemspace_filtered_scored_top80percent,openbind_xx01zvns2b_c1_elab_chemspace_filtered_scored,openbind_xx01zvns2b_c1_elab_chemspace_filtered_scored_top40percent,openbind_xx01zvns2b_c1_elab_chemspace_filtered_scored_top20percent,openbind_xx01zvns2b_c1_elab_chemspace_filtered_scored_top60percent,openbind_xx01zvns2b_c1_elabs_filtered

>  <smiles>  (737) 
CCOC(=O)[C@@H](NC(=O)Cc1cnc2n1CCC[C@H]2C)[C@@H](O)c1ccncc1

>  <subsites>  (737) 
1 - Z4590/B/203/1

>  <gnina_score>  (737) 
5.544

>  <HIPPO Pose ID>  (737) 
75051

>  <ref_mols>  (737) 
Z1495a,Z0800a

>  <energy_score>  (737) 
-17.36816

>  <inspiration_score>  (737) 
None

>  <smina_score_min>  (737) 
-6.515

>  <fragmenstein_error>  (737) 
nan

>  <name>  (737) 
P75051

$$$$
P75052
     RDKit          3D

 28 31  0  0  0  0  0  0  0  0999 V2000
   -9.9569    5.0500  -18.8869 C   0  0  0  0  0  0  0  0  0  0  0  0
   -8.6360    4.5366  -18.3445 C   0  0  2  0  0  0  0  0  0  0  0  0
   -8.9904    3.7945  -17.0436 C   0  0  0  0  0  0  0  0  0  0  0  0
   -8.0137    3.9645  -15.8907 C   0  0  0  0  0  0  0  0  0  0  0  0
   -6.6006    4.1815  -16.3814 C   0  0  0  0  0  0  0  0  0  0  0  0
   -6.5710    5.3611  -17.1965 N   0  0  0  0  0  0  0  0  0  0  0  0
   -5.7119    6.4153  -17.1713 C   0  0  0  0  0  0  0  0  0  0  0  0
   -4.6097    6.6324  -16.2022 C   0  0  0  0  0  0  0  0  0  0  0  0
   -5.0658    7.5663  -15.0803 C   0  0  0  0  0  0  0  0  0  0  0  0
   -5.7815    8.5518  -15.2403 O   0  0  0  0  0  0  0  0  0  0  0  0
   -4.5177    7.2706  -13.8479 N   0  0  0  0  0  0  0  0  0  0  0  0
   -3.2111    7.8264  -13.5242 C   0  0  0  0  0  0  0  0  0  0  0  0
   -2.5408    7.1103  -12.3558 C   0  0  0  0  0  0  0  0  0  0  0  0
   -2.7623    5.6048  -12.4527 C   0  0  0  0  0  0  0  0  0  0  0  0
   -4.2508    5.2320  -12.5260 C   0  0  0  0  0  0  0  0  0  0  0  0
   -5.1758    6.4276  -12.8429 C   0  0  2  0  0  0  0  0  0  0  0  0
   -6.6313    5.9784  -13.1736 C   0  0  0  0  0  0  0  0  0  0  0  0
   -7.3362    5.4325  -11.9554 C   0  0  0  0  0  0  0  0  0  0  0  0
   -7.7676    6.3512  -10.9964 C   0  0  0  0  0  0  0  0  0  0  0  0
   -7.6436    7.6683  -11.2109 F   0  0  0  0  0  0  0  0  0  0  0  0
   -8.2563    5.9047   -9.7849 C   0  0  0  0  0  0  0  0  0  0  0  0
   -8.3826    4.6002   -9.4648 N   0  0  0  0  0  0  0  0  0  0  0  0
   -8.0246    3.7088  -10.4233 C   0  0  0  0  0  0  0  0  0  0  0  0
   -7.4852    4.0693  -11.6568 C   0  0  0  0  0  0  0  0  0  0  0  0
   -6.9149    2.8147  -12.6880 Cl  0  0  0  0  0  0  0  0  0  0  0  0
   -6.1656    7.2077  -18.1960 C   0  0  0  0  0  0  0  0  0  0  0  0
   -7.2950    6.6880  -18.7662 N   0  0  0  0  0  0  0  0  0  0  0  0
   -7.5452    5.5617  -18.1420 C   0  0  0  0  0  0  0  0  0  0  0  0
  2  1  1  1
  2  3  1  0
  3  4  1  0
  4  5  1  0
  5  6  1  0
  6  7  1  0
  7  8  1  0
  8  9  1  0
  9 10  2  0
  9 11  1  0
 11 12  1  0
 12 13  1  0
 13 14  1  0
 14 15  1  0
 15 16  1  0
 16 17  1  6
 17 18  1  0
 18 19  2  0
 19 20  1  0
 19 21  1  0
 21 22  2  0
 22 23  1  0
 23 24  2  0
 24 25  1  0
  7 26  2  0
 26 27  1  0
 27 28  2  0
 28  2  1  0
 28  6  1  0
 16 11  1  0
 24 18  1  0
M  END
>  <fragmenstein_outcome>  (738) 
nan

>  <exports>  (738) 
['/opt/xchem-fragalysis-2/maxwin/openbind-hippo/xx01zvns2b/cycle_01/syndirella/elabs/openbind_xx01zvns2b_c1_elab_chemspace_filtered.sdf']

>  <Energy>  (738) 
nan

>  <alias>  (738) 
None

>  <fragmenstein_runtime>  (738) 
nan

>  <scratch_subdir>  (738) 
nan

>  <HIPPO Compound ID>  (738) 
149211

>  <rmsd(smina/fragmenstein)>  (738) 
0.65

>  <distance_score>  (738) 
1.94377

>  <orig_smiles>  (738) 
nan

>  <fragmenstein_mode>  (738) 
nan

>  <inchikey>  (738) 
JUSAHAOWARVUQK-HUUCEWRRSA-N

>  <ref_pdb>  (738) 
Z0800a

>  <GNINA pK>  (738) 
nan

>  <gnina_score_min>  (738) 
6.092

>  <tags>  (738) 
openbind_xx01zvns2b_c1_elab_nonasap_filtered_scored_top80percent,openbind_xx01zvns2b_c1_elab_chemspace_filtered_scored_top80percent,openbind_xx01zvns2b_c1_elab_chemspace_filtered_scored,openbind_xx01zvns2b_c1_elab_chemspace_filtered_scored_top40percent,openbind_xx01zvns2b_c1_elab_chemspace_filtered_scored_top20percent,openbind_xx01zvns2b_c1_elab_chemspace_filtered_scored_top60percent,openbind_xx01zvns2b_c1_elabs_filtered

>  <smiles>  (738) 
C[C@@H]1CCCn2c(CC(=O)N3CCCC[C@@H]3Cc3c(F)cncc3Cl)cnc21

>  <subsites>  (738) 
1 - Z4590/B/203/1

>  <gnina_score>  (738) 
6.255

>  <HIPPO Pose ID>  (738) 
75052

>  <ref_mols>  (738) 
Z1495a,Z0800a

>  <energy_score>  (738) 
-4.576966

>  <inspiration_score>  (738) 
None

>  <smina_score_min>  (738) 
-4.94

>  <fragmenstein_error>  (738) 
nan

>  <name>  (738) 
P75052

$$$$
P75054
     RDKit          3D

 28 29  0  0  0  0  0  0  0  0999 V2000
   -3.7234    8.7369  -10.8733 C   0  0  0  0  0  0  0  0  0  0  0  0
   -3.8338    7.7545  -12.0229 C   0  0  0  0  0  0  0  0  0  0  0  0
   -5.1280    7.9094  -12.6167 O   0  0  0  0  0  0  0  0  0  0  0  0
   -5.3764    7.0379  -13.6413 C   0  0  0  0  0  0  0  0  0  0  0  0
   -4.5813    6.1992  -14.0457 O   0  0  0  0  0  0  0  0  0  0  0  0
   -6.7976    7.2661  -14.1763 C   0  0  2  0  0  0  0  0  0  0  0  0
   -7.7596    6.1843  -13.6183 C   0  0  0  0  0  0  0  0  0  0  0  0
   -7.8494    5.8952  -12.1491 C   0  0  0  0  0  0  0  0  0  0  0  0
   -7.7417    6.8849  -11.1804 C   0  0  0  0  0  0  0  0  0  0  0  0
   -7.8749    6.5240   -9.8511 C   0  0  0  0  0  0  0  0  0  0  0  0
   -8.1515    5.2754   -9.4294 N   0  0  0  0  0  0  0  0  0  0  0  0
   -8.3110    4.3056  -10.3785 C   0  0  0  0  0  0  0  0  0  0  0  0
   -8.7812    2.9435  -10.0202 N   0  0  0  0  0  0  0  0  0  0  0  0
   -9.2465    2.2454  -10.9344 O   0  0  0  0  0  0  0  0  0  0  0  0
   -8.7331    2.6283   -8.8221 O   0  0  0  0  0  0  0  0  0  0  0  0
   -8.1419    4.5812  -11.7377 C   0  0  0  0  0  0  0  0  0  0  0  0
   -6.8011    7.0302  -15.6072 N   0  0  0  0  0  0  0  0  0  0  0  0
   -5.9586    7.6837  -16.7421 C   0  0  0  0  0  0  0  0  0  0  0  0
   -5.1904    8.5650  -16.7037 O   0  0  0  0  0  0  0  0  0  0  0  0
   -6.2215    6.8538  -18.0658 C   0  0  0  0  0  0  0  0  0  0  0  0
   -6.5293    5.4271  -17.7177 C   0  0  0  0  0  0  0  0  0  0  0  0
   -5.7893    4.5935  -16.9052 C   0  0  0  0  0  0  0  0  0  0  0  0
   -6.6394    3.8100  -16.1749 N   0  0  0  0  0  0  0  0  0  0  0  0
   -7.8144    3.9246  -16.7351 C   0  0  0  0  0  0  0  0  0  0  0  0
   -7.7632    4.8132  -17.7638 N   0  0  0  0  0  0  0  0  0  0  0  0
   -8.8258    5.0016  -18.7228 C   0  0  0  0  0  0  0  0  0  0  0  0
   -8.6939    3.9336  -19.7806 C   0  0  0  0  0  0  0  0  0  0  0  0
  -10.2166    4.9276  -18.1274 C   0  0  0  0  0  0  0  0  0  0  0  0
  1  2  1  0
  2  3  1  0
  3  4  1  0
  4  5  2  0
  4  6  1  0
  6  7  1  1
  7  8  1  0
  8  9  2  0
  9 10  1  0
 10 11  2  0
 11 12  1  0
 12 13  1  0
 13 14  2  0
 13 15  1  0
 12 16  2  0
  6 17  1  0
 17 18  1  0
 18 19  2  0
 18 20  1  0
 20 21  1  0
 21 22  2  0
 22 23  1  0
 23 24  2  0
 24 25  1  0
 25 26  1  0
 26 27  1  0
 26 28  1  0
 16  8  1  0
 25 21  1  0
M  CHG  2  13   1  15  -1
M  END
>  <fragmenstein_outcome>  (739) 
nan

>  <exports>  (739) 
['/opt/xchem-fragalysis-2/maxwin/openbind-hippo/xx01zvns2b/cycle_01/syndirella/elabs/openbind_xx01zvns2b_c1_elab_chemspace_filtered.sdf']

>  <Energy>  (739) 
nan

>  <alias>  (739) 
None

>  <fragmenstein_runtime>  (739) 
nan

>  <scratch_subdir>  (739) 
nan

>  <HIPPO Compound ID>  (739) 
149220

>  <rmsd(smina/fragmenstein)>  (739) 
0.828

>  <distance_score>  (739) 
1.786999

>  <orig_smiles>  (739) 
nan

>  <fragmenstein_mode>  (739) 
nan

>  <inchikey>  (739) 
FPSGSWLOIIHSQH-HNNXBMFYSA-N

>  <ref_pdb>  (739) 
Z0800a

>  <GNINA pK>  (739) 
nan

>  <gnina_score_min>  (739) 
5.368

>  <tags>  (739) 
openbind_xx01zvns2b_c1_elab_nonasap_filtered_scored_top80percent,openbind_xx01zvns2b_c1_elab_chemspace_filtered_scored_top80percent,openbind_xx01zvns2b_c1_elab_chemspace_filtered_scored,openbind_xx01zvns2b_c1_elab_chemspace_filtered_scored_top40percent,openbind_xx01zvns2b_c1_elab_chemspace_filtered_scored_top20percent,openbind_xx01zvns2b_c1_elab_chemspace_filtered_scored_top60percent,openbind_xx01zvns2b_c1_elabs_filtered

>  <smiles>  (739) 
CCOC(=O)[C@H](Cc1ccnc([N+](=O)[O-])c1)NC(=O)Cc1cncn1C(C)C

>  <subsites>  (739) 
1 - Z4590/B/203/1

>  <gnina_score>  (739) 
5.572

>  <HIPPO Pose ID>  (739) 
75054

>  <ref_mols>  (739) 
Z1495a,Z0800a

>  <energy_score>  (739) 
-12.530004

>  <inspiration_score>  (739) 
None

>  <smina_score_min>  (739) 
-4.144

>  <fragmenstein_error>  (739) 
nan

>  <name>  (739) 
P75054

$$$$
P75055
     RDKit          3D

 28 30  0  0  0  0  0  0  0  0999 V2000
   -8.8595    2.1475   -8.2055 C   0  0  0  0  0  0  0  0  0  0  0  0
   -8.3809    2.5769   -9.5783 C   0  0  0  0  0  0  0  0  0  0  0  0
   -8.1868    4.0041   -9.7477 N   0  0  0  0  0  0  0  0  0  0  0  0
   -8.1305    4.9568   -8.7729 C   0  0  0  0  0  0  0  0  0  0  0  0
   -8.0196    6.1677   -9.2709 N   0  0  0  0  0  0  0  0  0  0  0  0
   -7.9622    5.9907  -10.6227 C   0  0  0  0  0  0  0  0  0  0  0  0
   -8.0141    4.6485  -10.9449 C   0  0  0  0  0  0  0  0  0  0  0  0
   -7.9328    3.9567  -12.2450 C   0  0  0  0  0  0  0  0  0  0  0  0
   -7.0561    4.7873  -13.1569 C   0  0  0  0  0  0  0  0  0  0  0  0
   -7.4977    5.6153  -13.8608 O   0  0  0  0  0  0  0  0  0  0  0  0
   -5.5882    4.2669  -13.0001 N   0  0  0  0  0  0  0  0  0  0  0  0
   -4.4391    4.5810  -13.7143 C   0  0  0  0  0  0  0  0  0  0  0  0
   -3.3067    4.1965  -13.0829 N   0  0  0  0  0  0  0  0  0  0  0  0
   -2.1263    4.4283  -13.6976 C   0  0  0  0  0  0  0  0  0  0  0  0
   -2.0071    4.9666  -14.9647 C   0  0  0  0  0  0  0  0  0  0  0  0
   -3.1767    5.2770  -15.6468 C   0  0  0  0  0  0  0  0  0  0  0  0
   -4.4171    5.1214  -14.9989 C   0  0  0  0  0  0  0  0  0  0  0  0
   -5.6559    5.4934  -15.7400 C   0  0  0  0  0  0  0  0  0  0  0  0
   -5.5818    5.4225  -17.1676 N   0  0  0  0  0  0  0  0  0  0  0  0
   -6.7665    5.6304  -17.8075 C   0  0  0  0  0  0  0  0  0  0  0  0
   -7.1264    6.7454  -18.1504 O   0  0  0  0  0  0  0  0  0  0  0  0
   -7.4332    4.4586  -17.8818 O   0  0  0  0  0  0  0  0  0  0  0  0
   -8.7260    4.3079  -18.4927 C   0  0  0  0  0  0  0  0  0  0  0  0
   -9.5261    3.3097  -17.6909 C   0  0  0  0  0  0  0  0  0  0  0  0
   -8.4522    3.8385  -19.8904 C   0  0  0  0  0  0  0  0  0  0  0  0
   -9.6462    5.4913  -18.5094 C   0  0  0  0  0  0  0  0  0  0  0  0
   -4.3424    5.1516  -17.8482 C   0  0  0  0  0  0  0  0  0  0  0  0
   -3.1685    5.7554  -17.0792 C   0  0  0  0  0  0  0  0  0  0  0  0
  1  2  1  0
  2  3  1  0
  3  4  1  0
  4  5  2  0
  5  6  1  0
  6  7  2  0
  7  8  1  0
  8  9  1  0
  9 10  2  0
  9 11  1  0
 11 12  1  0
 12 13  2  0
 13 14  1  0
 14 15  2  0
 15 16  1  0
 16 17  2  0
 17 18  1  0
 18 19  1  0
 19 20  1  0
 20 21  2  0
 20 22  1  0
 22 23  1  0
 23 24  1  0
 23 25  1  0
 23 26  1  0
 19 27  1  0
 27 28  1  0
  7  3  1  0
 17 12  1  0
 28 16  1  0
M  END
>  <fragmenstein_outcome>  (740) 
nan

>  <exports>  (740) 
['/opt/xchem-fragalysis-2/maxwin/openbind-hippo/xx01zvns2b/cycle_01/syndirella/elabs/openbind_xx01zvns2b_c1_elab_chemspace_filtered.sdf']

>  <Energy>  (740) 
nan

>  <alias>  (740) 
None

>  <fragmenstein_runtime>  (740) 
nan

>  <scratch_subdir>  (740) 
nan

>  <HIPPO Compound ID>  (740) 
149222

>  <rmsd(smina/fragmenstein)>  (740) 
1.151

>  <distance_score>  (740) 
1.705779

>  <orig_smiles>  (740) 
nan

>  <fragmenstein_mode>  (740) 
nan

>  <inchikey>  (740) 
BHSQDNRLHJYLCK-UHFFFAOYSA-N

>  <ref_pdb>  (740) 
Z0800a

>  <GNINA pK>  (740) 
nan

>  <gnina_score_min>  (740) 
5.811

>  <tags>  (740) 
openbind_xx01zvns2b_c1_elab_nonasap_filtered_scored_top80percent,openbind_xx01zvns2b_c1_elab_chemspace_filtered_scored_top80percent,openbind_xx01zvns2b_c1_elab_chemspace_filtered_scored,openbind_xx01zvns2b_c1_elab_chemspace_filtered_scored_top40percent,openbind_xx01zvns2b_c1_elab_chemspace_filtered_scored_top20percent,openbind_xx01zvns2b_c1_elab_chemspace_filtered_scored_top60percent,openbind_xx01zvns2b_c1_elabs_filtered

>  <smiles>  (740) 
CCn1cncc1CC(=O)Nc1nccc2c1CN(C(=O)OC(C)(C)C)CC2

>  <subsites>  (740) 
1 - Z4590/B/203/1

>  <gnina_score>  (740) 
5.827

>  <HIPPO Pose ID>  (740) 
75055

>  <ref_mols>  (740) 
Z0800a,Z1495a

>  <energy_score>  (740) 
-1.373083

>  <inspiration_score>  (740) 
None

>  <smina_score_min>  (740) 
-5.245

>  <fragmenstein_error>  (740) 
nan

>  <name>  (740) 
P75055

$$$$
P75058
     RDKit          3D

 29 31  0  0  0  0  0  0  0  0999 V2000
   -9.8912    5.0175  -17.6651 C   0  0  0  0  0  0  0  0  0  0  0  0
   -8.7694    4.0140  -17.8433 C   0  0  1  0  0  0  0  0  0  0  0  0
   -8.4756    3.8715  -19.3317 C   0  0  0  0  0  0  0  0  0  0  0  0
   -7.0908    4.3645  -19.7511 C   0  0  0  0  0  0  0  0  0  0  0  0
   -6.6236    5.5940  -18.9902 C   0  0  0  0  0  0  0  0  0  0  0  0
   -6.5737    5.2008  -17.5985 N   0  0  0  0  0  0  0  0  0  0  0  0
   -5.5872    5.3495  -16.6650 C   0  0  0  0  0  0  0  0  0  0  0  0
   -4.6015    6.4655  -16.6043 C   0  0  0  0  0  0  0  0  0  0  0  0
   -5.3848    7.6946  -16.0925 C   0  0  0  0  0  0  0  0  0  0  0  0
   -5.5312    8.6598  -16.7371 O   0  0  0  0  0  0  0  0  0  0  0  0
   -5.9629    7.3166  -14.6960 N   0  0  0  0  0  0  0  0  0  0  0  0
   -6.9119    8.0083  -13.8560 C   0  0  1  0  0  0  0  0  0  0  0  0
   -8.1215    7.0917  -13.5357 C   0  0  0  0  0  0  0  0  0  0  0  0
   -7.9931    6.1117  -12.3919 C   0  0  0  0  0  0  0  0  0  0  0  0
   -7.9812    4.7271  -12.5864 C   0  0  0  0  0  0  0  0  0  0  0  0
   -7.9168    3.8930  -11.4748 C   0  0  0  0  0  0  0  0  0  0  0  0
   -7.8521    4.3415  -10.2015 N   0  0  0  0  0  0  0  0  0  0  0  0
   -7.8999    5.6733  -10.0317 C   0  0  0  0  0  0  0  0  0  0  0  0
   -7.9806    6.5796  -11.0752 C   0  0  0  0  0  0  0  0  0  0  0  0
   -6.2116    8.6558  -12.6600 C   0  0  0  0  0  0  0  0  0  0  0  0
   -5.1259    8.3151  -12.2097 O   0  0  0  0  0  0  0  0  0  0  0  0
   -6.9702    9.6914  -12.1951 O   0  0  0  0  0  0  0  0  0  0  0  0
   -6.4594   10.5866  -11.1720 C   0  0  0  0  0  0  0  0  0  0  0  0
   -5.1969   11.3102  -11.6552 C   0  0  0  0  0  0  0  0  0  0  0  0
   -6.2257    9.8644   -9.8410 C   0  0  0  0  0  0  0  0  0  0  0  0
   -7.5739   11.6257  -10.9744 C   0  0  0  0  0  0  0  0  0  0  0  0
   -5.8965    4.4017  -15.7121 C   0  0  0  0  0  0  0  0  0  0  0  0
   -7.1570    3.9176  -15.9059 N   0  0  0  0  0  0  0  0  0  0  0  0
   -7.5428    4.3848  -17.0705 C   0  0  0  0  0  0  0  0  0  0  0  0
  2  1  1  6
  2  3  1  0
  3  4  1  0
  4  5  1  0
  5  6  1  0
  6  7  1  0
  7  8  1  0
  8  9  1  0
  9 10  2  0
  9 11  1  0
 11 12  1  0
 12 13  1  1
 13 14  1  0
 14 15  2  0
 15 16  1  0
 16 17  2  0
 17 18  1  0
 18 19  2  0
 12 20  1  0
 20 21  2  0
 20 22  1  0
 22 23  1  0
 23 24  1  0
 23 25  1  0
 23 26  1  0
  7 27  2  0
 27 28  1  0
 28 29  2  0
 29  2  1  0
 29  6  1  0
 19 14  1  0
M  END
>  <fragmenstein_outcome>  (741) 
nan

>  <exports>  (741) 
['/opt/xchem-fragalysis-2/maxwin/openbind-hippo/xx01zvns2b/cycle_01/syndirella/elabs/openbind_xx01zvns2b_c1_elab_chemspace_filtered.sdf']

>  <Energy>  (741) 
nan

>  <alias>  (741) 
None

>  <fragmenstein_runtime>  (741) 
nan

>  <scratch_subdir>  (741) 
nan

>  <HIPPO Compound ID>  (741) 
149233

>  <rmsd(smina/fragmenstein)>  (741) 
1.774

>  <distance_score>  (741) 
1.843296

>  <orig_smiles>  (741) 
nan

>  <fragmenstein_mode>  (741) 
nan

>  <inchikey>  (741) 
NRBKXDMFNFQKSE-YJBOKZPZSA-N

>  <ref_pdb>  (741) 
Z0800a

>  <GNINA pK>  (741) 
nan

>  <gnina_score_min>  (741) 
5.818

>  <tags>  (741) 
openbind_xx01zvns2b_c1_elab_nonasap_filtered_scored_top80percent,openbind_xx01zvns2b_c1_elab_chemspace_filtered_scored_top80percent,openbind_xx01zvns2b_c1_elab_chemspace_filtered_scored,openbind_xx01zvns2b_c1_elab_chemspace_filtered_scored_top40percent,openbind_xx01zvns2b_c1_elab_chemspace_filtered_scored_top20percent,openbind_xx01zvns2b_c1_elab_chemspace_filtered_scored_top60percent,openbind_xx01zvns2b_c1_elabs_filtered

>  <smiles>  (741) 
C[C@H]1CCCn2c(CC(=O)N[C@@H](Cc3ccncc3)C(=O)OC(C)(C)C)cnc21

>  <subsites>  (741) 
1 - Z4590/B/203/1

>  <gnina_score>  (741) 
5.932

>  <HIPPO Pose ID>  (741) 
75058

>  <ref_mols>  (741) 
Z1495a,Z0800a

>  <energy_score>  (741) 
-11.118248

>  <inspiration_score>  (741) 
None

>  <smina_score_min>  (741) 
-4.593

>  <fragmenstein_error>  (741) 
nan

>  <name>  (741) 
P75058

$$$$
P75059
     RDKit          3D

 29 32  0  0  0  0  0  0  0  0999 V2000
   -9.5493    4.9266  -17.2129 C   0  0  0  0  0  0  0  0  0  0  0  0
   -8.5636    5.2994  -18.3077 C   0  0  2  0  0  0  0  0  0  0  0  0
   -8.3477    4.0664  -19.1703 C   0  0  0  0  0  0  0  0  0  0  0  0
   -7.0174    4.1067  -19.8934 C   0  0  0  0  0  0  0  0  0  0  0  0
   -5.8605    4.2879  -18.9477 C   0  0  0  0  0  0  0  0  0  0  0  0
   -6.0483    5.4322  -18.1040 N   0  0  0  0  0  0  0  0  0  0  0  0
   -5.1261    5.9931  -17.2643 C   0  0  0  0  0  0  0  0  0  0  0  0
   -3.7992    5.3918  -16.9011 C   0  0  0  0  0  0  0  0  0  0  0  0
   -3.8458    5.1184  -15.3817 C   0  0  0  0  0  0  0  0  0  0  0  0
   -3.0655    5.5596  -14.6313 O   0  0  0  0  0  0  0  0  0  0  0  0
   -5.1341    4.2823  -15.1222 N   0  0  0  0  0  0  0  0  0  0  0  0
   -5.7667    3.9061  -13.8931 C   0  0  0  0  0  0  0  0  0  0  0  0
   -7.1864    4.5146  -13.8957 C   0  0  0  0  0  0  0  0  0  0  0  0
   -7.6619    4.7810  -12.5042 C   0  0  0  0  0  0  0  0  0  0  0  0
   -7.8081    6.0893  -12.0393 C   0  0  0  0  0  0  0  0  0  0  0  0
   -8.1406    6.2781  -10.7132 C   0  0  0  0  0  0  0  0  0  0  0  0
   -8.3252    5.2682   -9.8448 N   0  0  0  0  0  0  0  0  0  0  0  0
   -8.1812    4.0059  -10.3139 C   0  0  0  0  0  0  0  0  0  0  0  0
   -8.2792    2.8965   -9.4842 O   0  0  0  0  0  0  0  0  0  0  0  0
   -8.5849    3.0601   -8.1579 C   0  0  0  0  0  0  0  0  0  0  0  0
   -9.3881    2.0660   -7.6043 C   0  0  0  0  0  0  0  0  0  0  0  0
   -9.8188    2.1630   -6.2815 C   0  0  0  0  0  0  0  0  0  0  0  0
   -9.4056    3.2335   -5.4908 C   0  0  0  0  0  0  0  0  0  0  0  0
   -8.5340    4.1845   -6.0124 C   0  0  0  0  0  0  0  0  0  0  0  0
   -8.1117    4.0868   -7.3399 C   0  0  0  0  0  0  0  0  0  0  0  0
   -7.8783    3.7187  -11.6299 C   0  0  0  0  0  0  0  0  0  0  0  0
   -5.8276    7.0062  -16.6468 C   0  0  0  0  0  0  0  0  0  0  0  0
   -7.1630    6.9022  -16.9243 N   0  0  0  0  0  0  0  0  0  0  0  0
   -7.2909    5.8884  -17.7553 C   0  0  0  0  0  0  0  0  0  0  0  0
  2  1  1  1
  2  3  1  0
  3  4  1  0
  4  5  1  0
  5  6  1  0
  6  7  1  0
  7  8  1  0
  8  9  1  0
  9 10  2  0
  9 11  1  0
 11 12  1  0
 12 13  1  0
 13 14  1  0
 14 15  2  0
 15 16  1  0
 16 17  2  0
 17 18  1  0
 18 19  1  0
 19 20  1  0
 20 21  2  0
 21 22  1  0
 22 23  2  0
 23 24  1  0
 24 25  2  0
 18 26  2  0
  7 27  2  0
 27 28  1  0
 28 29  2  0
 29  2  1  0
 29  6  1  0
 26 14  1  0
 25 20  1  0
M  END
>  <fragmenstein_outcome>  (742) 
nan

>  <exports>  (742) 
['/opt/xchem-fragalysis-2/maxwin/openbind-hippo/xx01zvns2b/cycle_01/syndirella/elabs/openbind_xx01zvns2b_c1_elab_chemspace_filtered.sdf']

>  <Energy>  (742) 
nan

>  <alias>  (742) 
None

>  <fragmenstein_runtime>  (742) 
nan

>  <scratch_subdir>  (742) 
nan

>  <HIPPO Compound ID>  (742) 
149234

>  <rmsd(smina/fragmenstein)>  (742) 
1.814

>  <distance_score>  (742) 
1.443046

>  <orig_smiles>  (742) 
nan

>  <fragmenstein_mode>  (742) 
nan

>  <inchikey>  (742) 
SWFIDUVFGCFQNX-QGZVFWFLSA-N

>  <ref_pdb>  (742) 
Z0800a

>  <GNINA pK>  (742) 
nan

>  <gnina_score_min>  (742) 
5.454

>  <tags>  (742) 
openbind_xx01zvns2b_c1_elab_nonasap_filtered_scored_top80percent,openbind_xx01zvns2b_c1_elab_chemspace_filtered_scored_top80percent,openbind_xx01zvns2b_c1_elab_chemspace_filtered_scored,openbind_xx01zvns2b_c1_elab_chemspace_filtered_scored_top40percent,openbind_xx01zvns2b_c1_elab_chemspace_filtered_scored_top20percent,openbind_xx01zvns2b_c1_elab_chemspace_filtered_scored_top60percent,openbind_xx01zvns2b_c1_elabs_filtered

>  <smiles>  (742) 
C[C@@H]1CCCn2c(CC(=O)NCCc3ccnc(Oc4ccccc4)c3)cnc21

>  <subsites>  (742) 
1 - Z4590/B/203/1

>  <gnina_score>  (742) 
5.569

>  <HIPPO Pose ID>  (742) 
75059

>  <ref_mols>  (742) 
Z1495a,Z0800a

>  <energy_score>  (742) 
-9.38086

>  <inspiration_score>  (742) 
None

>  <smina_score_min>  (742) 
-7.084

>  <fragmenstein_error>  (742) 
nan

>  <name>  (742) 
P75059

$$$$
P75061
     RDKit          3D

 29 31  0  0  0  0  0  0  0  0999 V2000
   -2.6031    7.9042  -11.4471 C   0  0  0  0  0  0  0  0  0  0  0  0
   -3.4207    6.7923  -10.8176 C   0  0  0  0  0  0  0  0  0  0  0  0
   -4.3725    6.2812  -11.7601 O   0  0  0  0  0  0  0  0  0  0  0  0
   -3.9229    5.2992  -12.5865 C   0  0  0  0  0  0  0  0  0  0  0  0
   -2.7791    4.8520  -12.5748 O   0  0  0  0  0  0  0  0  0  0  0  0
   -4.9937    4.8386  -13.5840 C   0  0  1  0  0  0  0  0  0  0  0  0
   -6.4402    5.4023  -13.4589 C   0  0  0  0  0  0  0  0  0  0  0  0
   -7.1508    5.2866  -12.1316 C   0  0  0  0  0  0  0  0  0  0  0  0
   -7.4761    6.4841  -11.4742 C   0  0  0  0  0  0  0  0  0  0  0  0
   -8.0552    6.4359  -10.2234 C   0  0  0  0  0  0  0  0  0  0  0  0
   -8.3513    5.2905   -9.5926 N   0  0  0  0  0  0  0  0  0  0  0  0
   -8.1010    4.1300  -10.2550 C   0  0  0  0  0  0  0  0  0  0  0  0
   -8.6100    2.5808   -9.2851 Br  0  0  0  0  0  0  0  0  0  0  0  0
   -7.4997    4.0736  -11.5165 C   0  0  0  0  0  0  0  0  0  0  0  0
   -7.1144    2.4245  -12.3694 Br  0  0  0  0  0  0  0  0  0  0  0  0
   -4.5702    5.1251  -14.9418 N   0  0  0  0  0  0  0  0  0  0  0  0
   -3.7185    6.3006  -15.5088 C   0  0  0  0  0  0  0  0  0  0  0  0
   -3.1660    7.1703  -14.9569 O   0  0  0  0  0  0  0  0  0  0  0  0
   -3.8096    6.1884  -17.0466 C   0  0  0  0  0  0  0  0  0  0  0  0
   -5.2761    6.3620  -17.3197 C   0  0  0  0  0  0  0  0  0  0  0  0
   -6.1753    7.1890  -16.6728 C   0  0  0  0  0  0  0  0  0  0  0  0
   -7.4301    6.6492  -16.6959 N   0  0  0  0  0  0  0  0  0  0  0  0
   -7.3463    5.6018  -17.4814 C   0  0  0  0  0  0  0  0  0  0  0  0
   -6.0828    5.5092  -18.0053 N   0  0  0  0  0  0  0  0  0  0  0  0
   -5.7436    4.4331  -18.8940 C   0  0  0  0  0  0  0  0  0  0  0  0
   -6.9103    4.1617  -19.8251 C   0  0  0  0  0  0  0  0  0  0  0  0
   -8.2988    4.0703  -19.1888 C   0  0  0  0  0  0  0  0  0  0  0  0
   -8.3259    4.5028  -17.7365 C   0  0  2  0  0  0  0  0  0  0  0  0
   -9.7409    4.8283  -17.3397 C   0  0  0  0  0  0  0  0  0  0  0  0
  1  2  1  0
  2  3  1  0
  3  4  1  0
  4  5  2  0
  4  6  1  0
  6  7  1  1
  7  8  1  0
  8  9  2  0
  9 10  1  0
 10 11  2  0
 11 12  1  0
 12 13  1  0
 12 14  2  0
 14 15  1  0
  6 16  1  0
 16 17  1  0
 17 18  2  0
 17 19  1  0
 19 20  1  0
 20 21  2  0
 21 22  1  0
 22 23  2  0
 23 24  1  0
 24 25  1  0
 25 26  1  0
 26 27  1  0
 27 28  1  0
 28 29  1  6
 14  8  1  0
 24 20  1  0
 28 23  1  0
M  END
>  <fragmenstein_outcome>  (743) 
nan

>  <exports>  (743) 
['/opt/xchem-fragalysis-2/maxwin/openbind-hippo/xx01zvns2b/cycle_01/syndirella/elabs/openbind_xx01zvns2b_c1_elab_chemspace_filtered.sdf']

>  <Energy>  (743) 
nan

>  <alias>  (743) 
None

>  <fragmenstein_runtime>  (743) 
nan

>  <scratch_subdir>  (743) 
nan

>  <HIPPO Compound ID>  (743) 
149236

>  <rmsd(smina/fragmenstein)>  (743) 
2.351

>  <distance_score>  (743) 
1.608493

>  <orig_smiles>  (743) 
nan

>  <fragmenstein_mode>  (743) 
nan

>  <inchikey>  (743) 
KJSDDJNWVIYEQN-SWLSCSKDSA-N

>  <ref_pdb>  (743) 
Z0800a

>  <GNINA pK>  (743) 
nan

>  <gnina_score_min>  (743) 
5.56

>  <tags>  (743) 
openbind_xx01zvns2b_c1_elab_nonasap_filtered_scored_top80percent,openbind_xx01zvns2b_c1_elab_chemspace_filtered_scored_top80percent,openbind_xx01zvns2b_c1_elab_chemspace_filtered_scored,openbind_xx01zvns2b_c1_elab_chemspace_filtered_scored_top40percent,openbind_xx01zvns2b_c1_elab_chemspace_filtered_scored_top20percent,openbind_xx01zvns2b_c1_elab_chemspace_filtered_scored_top60percent,openbind_xx01zvns2b_c1_elabs_filtered

>  <smiles>  (743) 
CCOC(=O)[C@@H](Cc1ccnc(Br)c1Br)NC(=O)Cc1cnc2n1CCC[C@@H]2C

>  <subsites>  (743) 
1 - Z4590/B/203/1

>  <gnina_score>  (743) 
6.189

>  <HIPPO Pose ID>  (743) 
75061

>  <ref_mols>  (743) 
Z1495a,Z0800a

>  <energy_score>  (743) 
-20.748957

>  <inspiration_score>  (743) 
None

>  <smina_score_min>  (743) 
-5.02

>  <fragmenstein_error>  (743) 
nan

>  <name>  (743) 
P75061

$$$$
P75065
     RDKit          3D

 29 31  0  0  0  0  0  0  0  0999 V2000
   -3.6407    1.2584  -10.7690 C   0  0  0  0  0  0  0  0  0  0  0  0
   -5.0647    1.7741  -10.6760 C   0  0  0  0  0  0  0  0  0  0  0  0
   -5.5522    2.2034  -11.9589 O   0  0  0  0  0  0  0  0  0  0  0  0
   -5.1756    3.4505  -12.3665 C   0  0  0  0  0  0  0  0  0  0  0  0
   -4.3599    4.1672  -11.7989 O   0  0  0  0  0  0  0  0  0  0  0  0
   -5.9089    3.8024  -13.6717 C   0  0  1  0  0  0  0  0  0  0  0  0
   -7.2918    4.4840  -13.5105 C   0  0  0  0  0  0  0  0  0  0  0  0
   -7.7109    4.7421  -12.0939 C   0  0  0  0  0  0  0  0  0  0  0  0
   -8.2508    3.7069  -11.3273 C   0  0  0  0  0  0  0  0  0  0  0  0
   -8.4890    3.9356   -9.9846 C   0  0  0  0  0  0  0  0  0  0  0  0
   -8.2515    5.1167   -9.3708 N   0  0  0  0  0  0  0  0  0  0  0  0
   -7.7654    6.1120  -10.1430 C   0  0  0  0  0  0  0  0  0  0  0  0
   -7.4796    5.9774  -11.4908 C   0  0  0  0  0  0  0  0  0  0  0  0
   -5.0028    4.5570  -14.5333 N   0  0  0  0  0  0  0  0  0  0  0  0
   -4.7149    6.0766  -14.6037 C   0  0  0  0  0  0  0  0  0  0  0  0
   -5.2133    6.9681  -14.0376 O   0  0  0  0  0  0  0  0  0  0  0  0
   -3.6148    6.3044  -15.6405 C   0  0  0  0  0  0  0  0  0  0  0  0
   -3.8212    5.6359  -16.9687 C   0  0  0  0  0  0  0  0  0  0  0  0
   -2.8564    5.1014  -17.8000 C   0  0  0  0  0  0  0  0  0  0  0  0
   -3.3939    4.6356  -18.9618 N   0  0  0  0  0  0  0  0  0  0  0  0
   -4.6798    4.8913  -18.8640 C   0  0  0  0  0  0  0  0  0  0  0  0
   -4.9914    5.5140  -17.6814 N   0  0  0  0  0  0  0  0  0  0  0  0
   -6.2611    6.1561  -17.4106 C   0  0  0  0  0  0  0  0  0  0  0  0
   -7.4550    5.3080  -17.6760 C   0  0  0  0  0  0  0  0  0  0  0  0
   -8.3357    5.6713  -18.6772 C   0  0  0  0  0  0  0  0  0  0  0  0
   -9.5552    5.0297  -18.8738 C   0  0  0  0  0  0  0  0  0  0  0  0
   -9.9315    4.0302  -18.0128 C   0  0  0  0  0  0  0  0  0  0  0  0
   -9.0423    3.6380  -17.0272 C   0  0  0  0  0  0  0  0  0  0  0  0
   -7.7962    4.2330  -16.8912 C   0  0  0  0  0  0  0  0  0  0  0  0
  1  2  1  0
  2  3  1  0
  3  4  1  0
  4  5  2  0
  4  6  1  0
  6  7  1  1
  7  8  1  0
  8  9  2  0
  9 10  1  0
 10 11  2  0
 11 12  1  0
 12 13  2  0
  6 14  1  0
 14 15  1  0
 15 16  2  0
 15 17  1  0
 17 18  1  0
 18 19  2  0
 19 20  1  0
 20 21  2  0
 21 22  1  0
 22 23  1  0
 23 24  1  0
 24 25  2  0
 25 26  1  0
 26 27  2  0
 27 28  1  0
 28 29  2  0
 13  8  1  0
 22 18  1  0
 29 24  1  0
M  END
>  <fragmenstein_outcome>  (744) 
nan

>  <exports>  (744) 
['/opt/xchem-fragalysis-2/maxwin/openbind-hippo/xx01zvns2b/cycle_01/syndirella/elabs/openbind_xx01zvns2b_c1_elab_chemspace_filtered.sdf']

>  <Energy>  (744) 
nan

>  <alias>  (744) 
None

>  <fragmenstein_runtime>  (744) 
nan

>  <scratch_subdir>  (744) 
nan

>  <HIPPO Compound ID>  (744) 
149243

>  <rmsd(smina/fragmenstein)>  (744) 
0.703

>  <distance_score>  (744) 
1.717675

>  <orig_smiles>  (744) 
nan

>  <fragmenstein_mode>  (744) 
nan

>  <inchikey>  (744) 
YPMWHJJBIRJWEI-HXUWFJFHSA-N

>  <ref_pdb>  (744) 
Z0800a

>  <GNINA pK>  (744) 
nan

>  <gnina_score_min>  (744) 
5.37

>  <tags>  (744) 
openbind_xx01zvns2b_c1_elab_nonasap_filtered_scored_top80percent,openbind_xx01zvns2b_c1_elab_chemspace_filtered_scored_top80percent,openbind_xx01zvns2b_c1_elab_chemspace_filtered_scored,openbind_xx01zvns2b_c1_elab_chemspace_filtered_scored_top40percent,openbind_xx01zvns2b_c1_elab_chemspace_filtered_scored_top20percent,openbind_xx01zvns2b_c1_elab_chemspace_filtered_scored_top60percent,openbind_xx01zvns2b_c1_elabs_filtered

>  <smiles>  (744) 
CCOC(=O)[C@@H](Cc1ccncc1)NC(=O)Cc1cncn1Cc1ccccc1

>  <subsites>  (744) 
1 - Z4590/B/203/1

>  <gnina_score>  (744) 
5.761

>  <HIPPO Pose ID>  (744) 
75065

>  <ref_mols>  (744) 
Z1495a,Z0800a

>  <energy_score>  (744) 
-12.229329

>  <inspiration_score>  (744) 
None

>  <smina_score_min>  (744) 
-5.586

>  <fragmenstein_error>  (744) 
nan

>  <name>  (744) 
P75065

$$$$
P75067
     RDKit          3D

 30 33  0  0  0  0  0  0  0  0999 V2000
   -8.4867    3.9700  -16.9551 C   0  0  0  0  0  0  0  0  0  0  0  0
   -8.7956    4.6588  -18.2806 C   0  0  0  0  0  0  0  0  0  0  0  0
  -10.2596    5.0902  -18.2107 C   0  0  0  0  0  0  0  0  0  0  0  0
   -8.7064    3.6979  -19.4396 C   0  0  0  0  0  0  0  0  0  0  0  0
   -7.9460    5.8178  -18.4508 O   0  0  0  0  0  0  0  0  0  0  0  0
   -6.6170    5.5945  -18.2831 C   0  0  0  0  0  0  0  0  0  0  0  0
   -5.9785    4.6228  -18.6606 O   0  0  0  0  0  0  0  0  0  0  0  0
   -6.0464    6.5720  -17.5250 N   0  0  0  0  0  0  0  0  0  0  0  0
   -5.3934    7.7470  -18.0198 C   0  0  0  0  0  0  0  0  0  0  0  0
   -3.9431    7.7224  -17.5192 C   0  0  0  0  0  0  0  0  0  0  0  0
   -3.7768    7.2845  -16.0741 C   0  0  0  0  0  0  0  0  0  0  0  0
   -2.5451    7.4179  -15.4379 C   0  0  0  0  0  0  0  0  0  0  0  0
   -2.3895    6.8422  -14.1889 C   0  0  0  0  0  0  0  0  0  0  0  0
   -3.3557    6.1500  -13.5451 N   0  0  0  0  0  0  0  0  0  0  0  0
   -4.5652    6.0586  -14.1390 C   0  0  0  0  0  0  0  0  0  0  0  0
   -5.4620    5.2533  -13.4426 N   0  0  0  0  0  0  0  0  0  0  0  0
   -7.0269    5.2421  -13.4403 C   0  0  0  0  0  0  0  0  0  0  0  0
   -7.7917    5.8569  -14.0821 O   0  0  0  0  0  0  0  0  0  0  0  0
   -7.4783    4.1551  -12.4787 C   0  0  0  0  0  0  0  0  0  0  0  0
   -7.7312    4.7321  -11.1440 C   0  0  0  0  0  0  0  0  0  0  0  0
   -7.7345    6.0309  -10.6739 C   0  0  0  0  0  0  0  0  0  0  0  0
   -7.9758    6.0668   -9.3262 N   0  0  0  0  0  0  0  0  0  0  0  0
   -8.1594    4.8107   -8.9705 C   0  0  0  0  0  0  0  0  0  0  0  0
   -8.0633    3.9801  -10.0527 N   0  0  0  0  0  0  0  0  0  0  0  0
   -8.3274    2.5583   -9.9779 C   0  0  0  0  0  0  0  0  0  0  0  0
   -8.3526    2.0799   -8.5311 C   0  0  0  0  0  0  0  0  0  0  0  0
   -9.0865    2.9948   -7.7105 O   0  0  0  0  0  0  0  0  0  0  0  0
   -8.4090    4.2586   -7.6096 C   0  0  0  0  0  0  0  0  0  0  0  0
   -4.8133    6.6003  -15.4052 C   0  0  0  0  0  0  0  0  0  0  0  0
   -6.1141    6.3931  -16.1048 C   0  0  0  0  0  0  0  0  0  0  0  0
  1  2  1  0
  2  3  1  0
  2  4  1  0
  2  5  1  0
  5  6  1  0
  6  7  2  0
  6  8  1  0
  8  9  1  0
  9 10  1  0
 10 11  1  0
 11 12  2  0
 12 13  1  0
 13 14  2  0
 14 15  1  0
 15 16  1  0
 16 17  1  0
 17 18  2  0
 17 19  1  0
 19 20  1  0
 20 21  2  0
 21 22  1  0
 22 23  2  0
 23 24  1  0
 24 25  1  0
 25 26  1  0
 26 27  1  0
 27 28  1  0
 15 29  2  0
 29 30  1  0
 30  8  1  0
 29 11  1  0
 24 20  1  0
 28 23  1  0
M  END
>  <fragmenstein_outcome>  (745) 
nan

>  <exports>  (745) 
['/opt/xchem-fragalysis-2/maxwin/openbind-hippo/xx01zvns2b/cycle_01/syndirella/elabs/openbind_xx01zvns2b_c1_elab_chemspace_filtered.sdf']

>  <Energy>  (745) 
nan

>  <alias>  (745) 
None

>  <fragmenstein_runtime>  (745) 
nan

>  <scratch_subdir>  (745) 
nan

>  <HIPPO Compound ID>  (745) 
149246

>  <rmsd(smina/fragmenstein)>  (745) 
0.861

>  <distance_score>  (745) 
1.930217

>  <orig_smiles>  (745) 
nan

>  <fragmenstein_mode>  (745) 
nan

>  <inchikey>  (745) 
VQHHRFIDSUUYEV-UHFFFAOYSA-N

>  <ref_pdb>  (745) 
Z0800a

>  <GNINA pK>  (745) 
nan

>  <gnina_score_min>  (745) 
5.506

>  <tags>  (745) 
openbind_xx01zvns2b_c1_elab_nonasap_filtered_scored_top80percent,openbind_xx01zvns2b_c1_elab_chemspace_filtered_scored_top80percent,openbind_xx01zvns2b_c1_elab_chemspace_filtered_scored,openbind_xx01zvns2b_c1_elab_chemspace_filtered_scored_top40percent,openbind_xx01zvns2b_c1_elab_chemspace_filtered_scored_top20percent,openbind_xx01zvns2b_c1_elab_chemspace_filtered_scored_top60percent,openbind_xx01zvns2b_c1_elabs_filtered

>  <smiles>  (745) 
CC(C)(C)OC(=O)N1CCc2ccnc(NC(=O)Cc3cnc4n3CCOC4)c2C1

>  <subsites>  (745) 
1 - Z4590/B/203/1

>  <gnina_score>  (745) 
5.417

>  <HIPPO Pose ID>  (745) 
75067

>  <ref_mols>  (745) 
Z1495a,Z0800a

>  <energy_score>  (745) 
-18.211291

>  <inspiration_score>  (745) 
None

>  <smina_score_min>  (745) 
-5.852

>  <fragmenstein_error>  (745) 
nan

>  <name>  (745) 
P75067

$$$$
P75068
     RDKit          3D

 30 33  0  0  0  0  0  0  0  0999 V2000
   -9.6534    4.8897  -17.3493 C   0  0  0  0  0  0  0  0  0  0  0  0
   -8.4608    5.3005  -18.1941 C   0  0  2  0  0  0  0  0  0  0  0  0
   -8.0027    4.0953  -18.9833 C   0  0  0  0  0  0  0  0  0  0  0  0
   -6.6416    4.3471  -19.6049 C   0  0  0  0  0  0  0  0  0  0  0  0
   -5.5689    4.6369  -18.5779 C   0  0  0  0  0  0  0  0  0  0  0  0
   -6.0222    5.5879  -17.5969 N   0  0  0  0  0  0  0  0  0  0  0  0
   -5.2747    6.2096  -16.6321 C   0  0  0  0  0  0  0  0  0  0  0  0
   -3.8870    5.8331  -16.2320 C   0  0  0  0  0  0  0  0  0  0  0  0
   -3.9396    4.4650  -15.5211 C   0  0  0  0  0  0  0  0  0  0  0  0
   -3.2784    3.5627  -15.8582 O   0  0  0  0  0  0  0  0  0  0  0  0
   -5.0513    4.5492  -14.4389 N   0  0  0  0  0  0  0  0  0  0  0  0
   -5.6400    3.5193  -13.6195 C   0  0  2  0  0  0  0  0  0  0  0  0
   -7.1772    3.7510  -13.5046 C   0  0  0  0  0  0  0  0  0  0  0  0
   -7.6328    4.4548  -12.2562 C   0  0  0  0  0  0  0  0  0  0  0  0
   -7.6761    5.8443  -12.1551 C   0  0  0  0  0  0  0  0  0  0  0  0
   -7.9879    6.4003  -10.9234 C   0  0  0  0  0  0  0  0  0  0  0  0
   -8.2604    5.6811   -9.8141 N   0  0  0  0  0  0  0  0  0  0  0  0
   -8.2524    4.3371   -9.9489 C   0  0  0  0  0  0  0  0  0  0  0  0
   -7.9561    3.6888  -11.1320 C   0  0  0  0  0  0  0  0  0  0  0  0
   -4.8401    3.3184  -12.3453 C   0  0  0  0  0  0  0  0  0  0  0  0
   -4.5997    2.0256  -11.8576 C   0  0  0  0  0  0  0  0  0  0  0  0
   -3.8014    1.8201  -10.7265 C   0  0  0  0  0  0  0  0  0  0  0  0
   -3.2348    2.9081  -10.0596 C   0  0  0  0  0  0  0  0  0  0  0  0
   -2.1874    2.5956   -8.7202 Cl  0  0  0  0  0  0  0  0  0  0  0  0
   -3.4964    4.2052  -10.5087 C   0  0  0  0  0  0  0  0  0  0  0  0
   -2.8363    5.6072   -9.7392 Cl  0  0  0  0  0  0  0  0  0  0  0  0
   -4.2958    4.4055  -11.6393 C   0  0  0  0  0  0  0  0  0  0  0  0
   -6.1637    7.0617  -16.0210 C   0  0  0  0  0  0  0  0  0  0  0  0
   -7.4365    6.7976  -16.4267 N   0  0  0  0  0  0  0  0  0  0  0  0
   -7.3422    5.8873  -17.3747 C   0  0  0  0  0  0  0  0  0  0  0  0
  2  1  1  1
  2  3  1  0
  3  4  1  0
  4  5  1  0
  5  6  1  0
  6  7  1  0
  7  8  1  0
  8  9  1  0
  9 10  2  0
  9 11  1  0
 11 12  1  0
 12 13  1  1
 13 14  1  0
 14 15  2  0
 15 16  1  0
 16 17  2  0
 17 18  1  0
 18 19  2  0
 12 20  1  0
 20 21  2  0
 21 22  1  0
 22 23  2  0
 23 24  1  0
 23 25  1  0
 25 26  1  0
 25 27  2  0
  7 28  2  0
 28 29  1  0
 29 30  2  0
 30  2  1  0
 30  6  1  0
 19 14  1  0
 27 20  1  0
M  END
>  <fragmenstein_outcome>  (746) 
nan

>  <exports>  (746) 
['/opt/xchem-fragalysis-2/maxwin/openbind-hippo/xx01zvns2b/cycle_01/syndirella/elabs/openbind_xx01zvns2b_c1_elab_chemspace_filtered.sdf']

>  <Energy>  (746) 
nan

>  <alias>  (746) 
None

>  <fragmenstein_runtime>  (746) 
nan

>  <scratch_subdir>  (746) 
nan

>  <HIPPO Compound ID>  (746) 
149249

>  <rmsd(smina/fragmenstein)>  (746) 
2.133

>  <distance_score>  (746) 
1.767998

>  <orig_smiles>  (746) 
nan

>  <fragmenstein_mode>  (746) 
nan

>  <inchikey>  (746) 
XSVIYYJAVXUIIU-QVKFZJNVSA-N

>  <ref_pdb>  (746) 
Z0800a

>  <GNINA pK>  (746) 
nan

>  <gnina_score_min>  (746) 
5.952

>  <tags>  (746) 
openbind_xx01zvns2b_c1_elab_nonasap_filtered_scored_top80percent,openbind_xx01zvns2b_c1_elab_chemspace_filtered_scored_top80percent,openbind_xx01zvns2b_c1_elab_chemspace_filtered_scored,openbind_xx01zvns2b_c1_elab_chemspace_filtered_scored_top40percent,openbind_xx01zvns2b_c1_elab_chemspace_filtered_scored_top20percent,openbind_xx01zvns2b_c1_elab_chemspace_filtered_scored_top60percent,openbind_xx01zvns2b_c1_elabs_filtered

>  <smiles>  (746) 
C[C@@H]1CCCn2c(CC(=O)N[C@H](Cc3ccncc3)c3ccc(Cl)c(Cl)c3)cnc21

>  <subsites>  (746) 
1 - Z4590/B/203/1

>  <gnina_score>  (746) 
6.484

>  <HIPPO Pose ID>  (746) 
75068

>  <ref_mols>  (746) 
Z1495a,Z0800a

>  <energy_score>  (746) 
-16.997056

>  <inspiration_score>  (746) 
None

>  <smina_score_min>  (746) 
-7.273

>  <fragmenstein_error>  (746) 
nan

>  <name>  (746) 
P75068

$$$$
P75070
     RDKit          3D

 30 32  0  0  0  0  0  0  0  0999 V2000
   -4.3735    3.1596  -12.0116 C   0  0  0  0  0  0  0  0  0  0  0  0
   -4.9352    4.4485  -12.2717 O   0  0  0  0  0  0  0  0  0  0  0  0
   -5.3664    4.6162  -13.5534 C   0  0  0  0  0  0  0  0  0  0  0  0
   -5.2413    3.7880  -14.4480 O   0  0  0  0  0  0  0  0  0  0  0  0
   -6.0655    5.9688  -13.7205 C   0  0  2  0  0  0  0  0  0  0  0  0
   -7.5713    5.8601  -13.4426 C   0  0  0  0  0  0  0  0  0  0  0  0
   -7.8761    5.4595  -12.0291 C   0  0  0  0  0  0  0  0  0  0  0  0
   -8.1836    4.1369  -11.6989 C   0  0  0  0  0  0  0  0  0  0  0  0
   -8.3684    3.8170  -10.3627 C   0  0  0  0  0  0  0  0  0  0  0  0
   -8.6655    2.5511  -10.0479 F   0  0  0  0  0  0  0  0  0  0  0  0
   -8.2637    4.6997   -9.3502 N   0  0  0  0  0  0  0  0  0  0  0  0
   -7.9886    5.9668   -9.7000 C   0  0  0  0  0  0  0  0  0  0  0  0
   -7.8876    6.8688   -8.7130 F   0  0  0  0  0  0  0  0  0  0  0  0
   -7.7897    6.3959  -11.0006 C   0  0  0  0  0  0  0  0  0  0  0  0
   -5.8648    6.4149  -15.0833 N   0  0  0  0  0  0  0  0  0  0  0  0
   -5.7652    7.8416  -15.6678 C   0  0  0  0  0  0  0  0  0  0  0  0
   -5.7523    8.8787  -15.1330 O   0  0  0  0  0  0  0  0  0  0  0  0
   -5.7900    7.7353  -17.2025 C   0  0  0  0  0  0  0  0  0  0  0  0
   -4.9209    6.6674  -17.7581 C   0  0  0  0  0  0  0  0  0  0  0  0
   -3.5848    6.3985  -17.5446 C   0  0  0  0  0  0  0  0  0  0  0  0
   -3.1734    5.3137  -18.2619 N   0  0  0  0  0  0  0  0  0  0  0  0
   -4.2463    4.9154  -18.8996 C   0  0  0  0  0  0  0  0  0  0  0  0
   -5.3315    5.6932  -18.6325 N   0  0  0  0  0  0  0  0  0  0  0  0
   -6.6362    5.5023  -19.2511 C   0  0  0  0  0  0  0  0  0  0  0  0
   -7.6442    4.9002  -18.3275 C   0  0  0  0  0  0  0  0  0  0  0  0
   -7.2430    4.1977  -17.1954 C   0  0  0  0  0  0  0  0  0  0  0  0
   -8.1618    3.7636  -16.2777 C   0  0  0  0  0  0  0  0  0  0  0  0
   -9.4942    3.9581  -16.5444 C   0  0  0  0  0  0  0  0  0  0  0  0
   -9.9413    4.5530  -17.7104 C   0  0  0  0  0  0  0  0  0  0  0  0
   -9.0087    5.0289  -18.6010 C   0  0  0  0  0  0  0  0  0  0  0  0
  1  2  1  0
  2  3  1  0
  3  4  2  0
  3  5  1  0
  5  6  1  6
  6  7  1  0
  7  8  2  0
  8  9  1  0
  9 10  1  0
  9 11  2  0
 11 12  1  0
 12 13  1  0
 12 14  2  0
  5 15  1  0
 15 16  1  0
 16 17  2  0
 16 18  1  0
 18 19  1  0
 19 20  2  0
 20 21  1  0
 21 22  2  0
 22 23  1  0
 23 24  1  0
 24 25  1  0
 25 26  2  0
 26 27  1  0
 27 28  2  0
 28 29  1  0
 29 30  2  0
 14  7  1  0
 23 19  1  0
 30 25  1  0
M  END
>  <fragmenstein_outcome>  (747) 
nan

>  <exports>  (747) 
['/opt/xchem-fragalysis-2/maxwin/openbind-hippo/xx01zvns2b/cycle_01/syndirella/elabs/openbind_xx01zvns2b_c1_elab_chemspace_filtered.sdf']

>  <Energy>  (747) 
nan

>  <alias>  (747) 
None

>  <fragmenstein_runtime>  (747) 
nan

>  <scratch_subdir>  (747) 
nan

>  <HIPPO Compound ID>  (747) 
149250

>  <rmsd(smina/fragmenstein)>  (747) 
1.94

>  <distance_score>  (747) 
1.616876

>  <orig_smiles>  (747) 
nan

>  <fragmenstein_mode>  (747) 
nan

>  <inchikey>  (747) 
JPWXAKMKXVPGNV-KRWDZBQOSA-N

>  <ref_pdb>  (747) 
Z0800a

>  <GNINA pK>  (747) 
nan

>  <gnina_score_min>  (747) 
5.46

>  <tags>  (747) 
openbind_xx01zvns2b_c1_elab_nonasap_filtered_scored_top80percent,openbind_xx01zvns2b_c1_elab_chemspace_filtered_scored_top80percent,openbind_xx01zvns2b_c1_elab_chemspace_filtered_scored,openbind_xx01zvns2b_c1_elab_chemspace_filtered_scored_top40percent,openbind_xx01zvns2b_c1_elab_chemspace_filtered_scored_top20percent,openbind_xx01zvns2b_c1_elab_chemspace_filtered_scored_top60percent,openbind_xx01zvns2b_c1_elabs_filtered

>  <smiles>  (747) 
COC(=O)[C@H](Cc1cc(F)nc(F)c1)NC(=O)Cc1cncn1Cc1ccccc1

>  <subsites>  (747) 
1 - Z4590/B/203/1

>  <gnina_score>  (747) 
5.682

>  <HIPPO Pose ID>  (747) 
75070

>  <ref_mols>  (747) 
Z1495a,Z0800a

>  <energy_score>  (747) 
-17.219346

>  <inspiration_score>  (747) 
None

>  <smina_score_min>  (747) 
-6.609

>  <fragmenstein_error>  (747) 
nan

>  <name>  (747) 
P75070

$$$$
P75071
     RDKit          3D

 30 32  0  0  0  0  0  0  0  0999 V2000
   -4.5993    8.1615   -9.0506 C   0  0  0  0  0  0  0  0  0  0  0  0
   -3.5344    7.6623  -10.0076 C   0  0  0  0  0  0  0  0  0  0  0  0
   -4.0737    6.6622  -10.8841 O   0  0  0  0  0  0  0  0  0  0  0  0
   -4.6438    7.1108  -12.0346 C   0  0  0  0  0  0  0  0  0  0  0  0
   -4.7987    8.2899  -12.3395 O   0  0  0  0  0  0  0  0  0  0  0  0
   -5.0684    5.9455  -12.9206 C   0  0  1  0  0  0  0  0  0  0  0  0
   -6.5968    5.7469  -12.9939 C   0  0  0  0  0  0  0  0  0  0  0  0
   -7.2922    5.4968  -11.6961 C   0  0  0  0  0  0  0  0  0  0  0  0
   -7.5038    6.5506  -10.8064 C   0  0  0  0  0  0  0  0  0  0  0  0
   -8.0591    6.2775   -9.5755 C   0  0  0  0  0  0  0  0  0  0  0  0
   -8.4593    5.0534   -9.2011 N   0  0  0  0  0  0  0  0  0  0  0  0
   -8.3490    4.0421  -10.1148 C   0  0  0  0  0  0  0  0  0  0  0  0
   -8.9375    2.7184   -9.8574 N   0  0  0  0  0  0  0  0  0  0  0  0
   -9.4082    2.1197  -10.8367 O   0  0  0  0  0  0  0  0  0  0  0  0
   -8.9689    2.3375   -8.6791 O   0  0  0  0  0  0  0  0  0  0  0  0
   -7.7504    4.2223  -11.3608 C   0  0  0  0  0  0  0  0  0  0  0  0
   -4.6449    6.2801  -14.2665 N   0  0  0  0  0  0  0  0  0  0  0  0
   -3.8751    5.4431  -15.3142 C   0  0  0  0  0  0  0  0  0  0  0  0
   -3.3952    4.3841  -15.2302 O   0  0  0  0  0  0  0  0  0  0  0  0
   -3.9346    6.2505  -16.6241 C   0  0  0  0  0  0  0  0  0  0  0  0
   -4.9736    5.6216  -17.4919 C   0  0  0  0  0  0  0  0  0  0  0  0
   -4.8043    4.8460  -18.6137 C   0  0  0  0  0  0  0  0  0  0  0  0
   -5.9811    4.2919  -19.0165 N   0  0  0  0  0  0  0  0  0  0  0  0
   -6.8874    4.6947  -18.1639 C   0  0  0  0  0  0  0  0  0  0  0  0
   -6.3345    5.6046  -17.3045 N   0  0  0  0  0  0  0  0  0  0  0  0
   -7.1657    6.3858  -16.4282 C   0  0  0  0  0  0  0  0  0  0  0  0
   -8.4013    5.6277  -15.9432 C   0  0  0  0  0  0  0  0  0  0  0  0
   -9.1640    4.9874  -17.0942 C   0  0  0  0  0  0  0  0  0  0  0  0
   -8.2552    4.1359  -17.9599 C   0  0  1  0  0  0  0  0  0  0  0  0
   -8.9801    3.7926  -19.2331 C   0  0  0  0  0  0  0  0  0  0  0  0
  1  2  1  0
  2  3  1  0
  3  4  1  0
  4  5  2  0
  4  6  1  0
  6  7  1  6
  7  8  1  0
  8  9  2  0
  9 10  1  0
 10 11  2  0
 11 12  1  0
 12 13  1  0
 13 14  2  0
 13 15  1  0
 12 16  2  0
  6 17  1  0
 17 18  1  0
 18 19  2  0
 18 20  1  0
 20 21  1  0
 21 22  2  0
 22 23  1  0
 23 24  2  0
 24 25  1  0
 25 26  1  0
 26 27  1  0
 27 28  1  0
 28 29  1  0
 29 30  1  6
 16  8  1  0
 25 21  1  0
 29 24  1  0
M  CHG  2  13   1  15  -1
M  END
>  <fragmenstein_outcome>  (748) 
nan

>  <exports>  (748) 
['/opt/xchem-fragalysis-2/maxwin/openbind-hippo/xx01zvns2b/cycle_01/syndirella/elabs/openbind_xx01zvns2b_c1_elab_chemspace_filtered.sdf']

>  <Energy>  (748) 
nan

>  <alias>  (748) 
None

>  <fragmenstein_runtime>  (748) 
nan

>  <scratch_subdir>  (748) 
nan

>  <HIPPO Compound ID>  (748) 
149254

>  <rmsd(smina/fragmenstein)>  (748) 
1.619

>  <distance_score>  (748) 
1.740936

>  <orig_smiles>  (748) 
nan

>  <fragmenstein_mode>  (748) 
nan

>  <inchikey>  (748) 
PFCXVLISRCCTNY-CZUORRHYSA-N

>  <ref_pdb>  (748) 
Z0800a

>  <GNINA pK>  (748) 
nan

>  <gnina_score_min>  (748) 
5.643

>  <tags>  (748) 
openbind_xx01zvns2b_c1_elab_nonasap_filtered_scored_top80percent,openbind_xx01zvns2b_c1_elab_chemspace_filtered_scored_top80percent,openbind_xx01zvns2b_c1_elab_chemspace_filtered_scored,openbind_xx01zvns2b_c1_elab_chemspace_filtered_scored_top40percent,openbind_xx01zvns2b_c1_elab_chemspace_filtered_scored_top20percent,openbind_xx01zvns2b_c1_elab_chemspace_filtered_scored_top60percent,openbind_xx01zvns2b_c1_elabs_filtered

>  <smiles>  (748) 
CCOC(=O)[C@@H](Cc1ccnc([N+](=O)[O-])c1)NC(=O)Cc1cnc2n1CCC[C@H]2C

>  <subsites>  (748) 
1 - Z4590/B/203/1

>  <gnina_score>  (748) 
6.246

>  <HIPPO Pose ID>  (748) 
75071

>  <ref_mols>  (748) 
Z1495a,Z0800a

>  <energy_score>  (748) 
-19.65079

>  <inspiration_score>  (748) 
None

>  <smina_score_min>  (748) 
-5.015

>  <fragmenstein_error>  (748) 
nan

>  <name>  (748) 
P75071

$$$$
P75073
     RDKit          3D

 30 32  0  0  0  0  0  0  0  0999 V2000
   -2.8480    7.0757  -11.5468 C   0  0  0  0  0  0  0  0  0  0  0  0
   -4.2368    7.4020  -11.0314 C   0  0  0  0  0  0  0  0  0  0  0  0
   -4.9435    8.2366  -11.9723 O   0  0  0  0  0  0  0  0  0  0  0  0
   -5.4901    7.7958  -13.1303 C   0  0  0  0  0  0  0  0  0  0  0  0
   -5.8223    8.6040  -13.9993 O   0  0  0  0  0  0  0  0  0  0  0  0
   -5.7139    6.2984  -13.3222 C   0  0  1  0  0  0  0  0  0  0  0  0
   -7.2106    5.9445  -13.2738 C   0  0  0  0  0  0  0  0  0  0  0  0
   -7.6920    5.6891  -11.8770 C   0  0  0  0  0  0  0  0  0  0  0  0
   -7.7905    6.7251  -10.9519 C   0  0  0  0  0  0  0  0  0  0  0  0
   -8.1147    6.4114   -9.6479 C   0  0  0  0  0  0  0  0  0  0  0  0
   -8.3935    5.1656   -9.2259 N   0  0  0  0  0  0  0  0  0  0  0  0
   -8.3935    4.1636  -10.1560 C   0  0  0  0  0  0  0  0  0  0  0  0
   -8.8856    2.8097   -9.8304 N   0  0  0  0  0  0  0  0  0  0  0  0
   -9.3676    2.1503  -10.7640 O   0  0  0  0  0  0  0  0  0  0  0  0
   -8.8365    2.4641   -8.6417 O   0  0  0  0  0  0  0  0  0  0  0  0
   -8.0182    4.3869  -11.4794 C   0  0  0  0  0  0  0  0  0  0  0  0
   -5.1873    5.9472  -14.6225 N   0  0  0  0  0  0  0  0  0  0  0  0
   -4.6300    4.6063  -15.1504 C   0  0  0  0  0  0  0  0  0  0  0  0
   -4.4375    3.5985  -14.5975 O   0  0  0  0  0  0  0  0  0  0  0  0
   -4.3219    4.7912  -16.6273 C   0  0  0  0  0  0  0  0  0  0  0  0
   -5.4609    5.3363  -17.4219 C   0  0  0  0  0  0  0  0  0  0  0  0
   -5.4793    6.4334  -18.2624 C   0  0  0  0  0  0  0  0  0  0  0  0
   -4.3904    7.3802  -18.5919 C   0  0  0  0  0  0  0  0  0  0  0  0
   -6.7129    6.5914  -18.8278 N   0  0  0  0  0  0  0  0  0  0  0  0
   -7.4228    5.5568  -18.4431 C   0  0  0  0  0  0  0  0  0  0  0  0
   -6.7523    4.8586  -17.4757 N   0  0  0  0  0  0  0  0  0  0  0  0
   -7.5105    4.1438  -16.4725 C   0  0  0  0  0  0  0  0  0  0  0  0
   -8.8813    3.6476  -16.9295 C   0  0  0  0  0  0  0  0  0  0  0  0
   -9.6417    4.7125  -17.6828 C   0  0  0  0  0  0  0  0  0  0  0  0
   -8.7996    5.1586  -18.8559 C   0  0  0  0  0  0  0  0  0  0  0  0
  1  2  1  0
  2  3  1  0
  3  4  1  0
  4  5  2  0
  4  6  1  0
  6  7  1  6
  7  8  1  0
  8  9  2  0
  9 10  1  0
 10 11  2  0
 11 12  1  0
 12 13  1  0
 13 14  2  0
 13 15  1  0
 12 16  2  0
  6 17  1  0
 17 18  1  0
 18 19  2  0
 18 20  1  0
 20 21  1  0
 21 22  2  0
 22 23  1  0
 22 24  1  0
 24 25  2  0
 25 26  1  0
 26 27  1  0
 27 28  1  0
 28 29  1  0
 29 30  1  0
 16  8  1  0
 26 21  1  0
 30 25  1  0
M  CHG  2  13   1  15  -1
M  END
>  <fragmenstein_outcome>  (749) 
nan

>  <exports>  (749) 
['/opt/xchem-fragalysis-2/maxwin/openbind-hippo/xx01zvns2b/cycle_01/syndirella/elabs/openbind_xx01zvns2b_c1_elab_chemspace_filtered.sdf']

>  <Energy>  (749) 
nan

>  <alias>  (749) 
None

>  <fragmenstein_runtime>  (749) 
nan

>  <scratch_subdir>  (749) 
nan

>  <HIPPO Compound ID>  (749) 
149255

>  <rmsd(smina/fragmenstein)>  (749) 
1.659

>  <distance_score>  (749) 
1.456287

>  <orig_smiles>  (749) 
nan

>  <fragmenstein_mode>  (749) 
nan

>  <inchikey>  (749) 
NPZSQAYTJBCAEI-OAHLLOKOSA-N

>  <ref_pdb>  (749) 
Z0800a

>  <GNINA pK>  (749) 
nan

>  <gnina_score_min>  (749) 
5.43

>  <tags>  (749) 
openbind_xx01zvns2b_c1_elab_nonasap_filtered_scored_top80percent,openbind_xx01zvns2b_c1_elab_chemspace_filtered_scored_top80percent,openbind_xx01zvns2b_c1_elab_chemspace_filtered_scored,openbind_xx01zvns2b_c1_elab_chemspace_filtered_scored_top40percent,openbind_xx01zvns2b_c1_elab_chemspace_filtered_scored_top20percent,openbind_xx01zvns2b_c1_elab_chemspace_filtered_scored_top60percent,openbind_xx01zvns2b_c1_elabs_filtered

>  <smiles>  (749) 
CCOC(=O)[C@@H](Cc1ccnc([N+](=O)[O-])c1)NC(=O)Cc1c(C)nc2n1CCCC2

>  <subsites>  (749) 
1 - Z4590/B/203/1

>  <gnina_score>  (749) 
5.84

>  <HIPPO Pose ID>  (749) 
75073

>  <ref_mols>  (749) 
Z0800a,Z1495a

>  <energy_score>  (749) 
-18.682849

>  <inspiration_score>  (749) 
None

>  <smina_score_min>  (749) 
-5.018

>  <fragmenstein_error>  (749) 
nan

>  <name>  (749) 
P75073

$$$$
P75075
     RDKit          3D

 31 33  0  0  0  0  0  0  0  0999 V2000
   -2.6042    4.8262  -11.3565 C   0  0  0  0  0  0  0  0  0  0  0  0
   -3.9538    5.2895  -10.8431 C   0  0  0  0  0  0  0  0  0  0  0  0
   -4.2434    6.6187  -11.3203 O   0  0  0  0  0  0  0  0  0  0  0  0
   -4.7142    6.9154  -12.5534 C   0  0  0  0  0  0  0  0  0  0  0  0
   -4.7658    8.0915  -12.9224 O   0  0  0  0  0  0  0  0  0  0  0  0
   -5.2083    5.7880  -13.4647 C   0  0  1  0  0  0  0  0  0  0  0  0
   -6.7461    5.8264  -13.6015 C   0  0  0  0  0  0  0  0  0  0  0  0
   -7.4380    5.5929  -12.2778 C   0  0  0  0  0  0  0  0  0  0  0  0
   -7.7763    6.7278  -11.5263 C   0  0  0  0  0  0  0  0  0  0  0  0
   -8.2279    6.5666  -10.2338 C   0  0  0  0  0  0  0  0  0  0  0  0
   -8.3935    5.3676   -9.6553 N   0  0  0  0  0  0  0  0  0  0  0  0
   -8.1409    4.2634  -10.4057 C   0  0  0  0  0  0  0  0  0  0  0  0
   -8.4663    2.6379   -9.4891 Br  0  0  0  0  0  0  0  0  0  0  0  0
   -7.6425    4.3203  -11.7103 C   0  0  0  0  0  0  0  0  0  0  0  0
   -7.1249    2.7567  -12.6626 Br  0  0  0  0  0  0  0  0  0  0  0  0
   -4.5639    6.0225  -14.7448 N   0  0  0  0  0  0  0  0  0  0  0  0
   -3.6997    5.0840  -15.6223 C   0  0  0  0  0  0  0  0  0  0  0  0
   -3.3084    4.0036  -15.4161 O   0  0  0  0  0  0  0  0  0  0  0  0
   -3.3176    5.8394  -16.9043 C   0  0  0  0  0  0  0  0  0  0  0  0
   -4.4677    6.5593  -17.5264 C   0  0  0  0  0  0  0  0  0  0  0  0
   -4.6564    7.9118  -17.7349 C   0  0  0  0  0  0  0  0  0  0  0  0
   -5.8690    8.1580  -18.3118 N   0  0  0  0  0  0  0  0  0  0  0  0
   -6.4041    6.9693  -18.4926 C   0  0  0  0  0  0  0  0  0  0  0  0
   -5.6078    5.9678  -18.0119 N   0  0  0  0  0  0  0  0  0  0  0  0
   -5.8802    4.5407  -18.1010 C   0  0  0  0  0  0  0  0  0  0  0  0
   -7.3406    4.2574  -18.1155 C   0  0  0  0  0  0  0  0  0  0  0  0
   -8.0423    4.2653  -19.3130 C   0  0  0  0  0  0  0  0  0  0  0  0
   -9.4288    4.3035  -19.3072 C   0  0  0  0  0  0  0  0  0  0  0  0
  -10.1231    4.2064  -18.1151 C   0  0  0  0  0  0  0  0  0  0  0  0
   -9.4136    4.0478  -16.9353 C   0  0  0  0  0  0  0  0  0  0  0  0
   -8.0342    4.0931  -16.9297 C   0  0  0  0  0  0  0  0  0  0  0  0
  1  2  1  0
  2  3  1  0
  3  4  1  0
  4  5  2  0
  4  6  1  0
  6  7  1  6
  7  8  1  0
  8  9  2  0
  9 10  1  0
 10 11  2  0
 11 12  1  0
 12 13  1  0
 12 14  2  0
 14 15  1  0
  6 16  1  0
 16 17  1  0
 17 18  2  0
 17 19  1  0
 19 20  1  0
 20 21  2  0
 21 22  1  0
 22 23  2  0
 23 24  1  0
 24 25  1  0
 25 26  1  0
 26 27  2  0
 27 28  1  0
 28 29  2  0
 29 30  1  0
 30 31  2  0
 14  8  1  0
 24 20  1  0
 31 26  1  0
M  END
>  <fragmenstein_outcome>  (750) 
nan

>  <exports>  (750) 
['/opt/xchem-fragalysis-2/maxwin/openbind-hippo/xx01zvns2b/cycle_01/syndirella/elabs/openbind_xx01zvns2b_c1_elab_chemspace_filtered.sdf']

>  <Energy>  (750) 
nan

>  <alias>  (750) 
None

>  <fragmenstein_runtime>  (750) 
nan

>  <scratch_subdir>  (750) 
nan

>  <HIPPO Compound ID>  (750) 
149257

>  <rmsd(smina/fragmenstein)>  (750) 
0.974

>  <distance_score>  (750) 
1.942063

>  <orig_smiles>  (750) 
nan

>  <fragmenstein_mode>  (750) 
nan

>  <inchikey>  (750) 
GWOQBPAAJQNJCT-GOSISDBHSA-N

>  <ref_pdb>  (750) 
Z0800a

>  <GNINA pK>  (750) 
nan

>  <gnina_score_min>  (750) 
5.633

>  <tags>  (750) 
openbind_xx01zvns2b_c1_elab_nonasap_filtered_scored_top80percent,openbind_xx01zvns2b_c1_elab_chemspace_filtered_scored_top80percent,openbind_xx01zvns2b_c1_elab_chemspace_filtered_scored,openbind_xx01zvns2b_c1_elab_chemspace_filtered_scored_top40percent,openbind_xx01zvns2b_c1_elab_chemspace_filtered_scored_top20percent,openbind_xx01zvns2b_c1_elab_chemspace_filtered_scored_top60percent,openbind_xx01zvns2b_c1_elabs_filtered

>  <smiles>  (750) 
CCOC(=O)[C@@H](Cc1ccnc(Br)c1Br)NC(=O)Cc1cncn1Cc1ccccc1

>  <subsites>  (750) 
1 - Z4590/B/203/1

>  <gnina_score>  (750) 
6.127

>  <HIPPO Pose ID>  (750) 
75075

>  <ref_mols>  (750) 
Z1495a,Z0800a

>  <energy_score>  (750) 
-11.166045

>  <inspiration_score>  (750) 
None

>  <smina_score_min>  (750) 
-5.368

>  <fragmenstein_error>  (750) 
nan

>  <name>  (750) 
P75075

$$$$
RGHZSASRGFOXQA-UHFFFAOYSA-N-P337-P126-P337-601526
     RDKit          3D

 23 26  0  0  0  0  0  0  0  0999 V2000
   -8.7651    5.1674   -6.7598 O   0  0  0  0  0  0  0  0  0  0  0  0
   -8.8035    4.3223   -7.6318 C   0  0  0  0  0  0  0  0  0  0  0  0
   -9.0254    2.9716   -7.4851 N   0  0  0  0  0  0  0  0  0  0  0  0
   -8.9138    2.2459   -8.7275 C   0  0  0  0  0  0  0  0  0  0  0  0
   -8.7089    3.3390   -9.7218 C   0  0  0  0  0  0  0  0  0  0  0  0
   -8.5951    3.2843  -11.1028 C   0  0  0  0  0  0  0  0  0  0  0  0
   -8.3653    4.4606  -11.8208 C   0  0  0  0  0  0  0  0  0  0  0  0
   -8.2519    4.4037  -13.2119 N   0  0  0  0  0  0  0  0  0  0  0  0
   -7.8537    5.4990  -14.2358 C   0  0  0  0  0  0  0  0  0  0  0  0
   -7.4850    6.5953  -14.0671 O   0  0  0  0  0  0  0  0  0  0  0  0
   -7.9940    5.0318  -15.6334 C   0  0  0  0  0  0  0  0  0  0  0  0
   -9.2164    4.5171  -16.0929 C   0  0  0  0  0  0  0  0  0  0  0  0
   -9.4081    4.2648  -17.4497 C   0  0  0  0  0  0  0  0  0  0  0  0
  -10.5995    3.8224  -17.8712 F   0  0  0  0  0  0  0  0  0  0  0  0
   -8.4091    4.4830  -18.3927 C   0  0  0  0  0  0  0  0  0  0  0  0
   -7.1990    4.9728  -17.9052 C   0  0  0  0  0  0  0  0  0  0  0  0
   -6.0303    5.3143  -18.5225 N   0  0  0  0  0  0  0  0  0  0  0  0
   -5.1153    5.7551  -17.6397 N   0  0  0  0  0  0  0  0  0  0  0  0
   -5.6775    5.7302  -16.4347 N   0  0  0  0  0  0  0  0  0  0  0  0
   -6.9599    5.2538  -16.5634 C   0  0  0  0  0  0  0  0  0  0  0  0
   -8.2536    5.6756  -11.1317 C   0  0  0  0  0  0  0  0  0  0  0  0
   -8.3901    5.7362   -9.7392 C   0  0  0  0  0  0  0  0  0  0  0  0
   -8.6189    4.5592   -9.0659 C   0  0  0  0  0  0  0  0  0  0  0  0
  1  2  2  0
  2  3  1  0
  3  4  1  0
  4  5  1  0
  5  6  2  0
  6  7  1  0
  7  8  1  0
  8  9  1  0
  9 10  2  0
  9 11  1  0
 11 12  2  0
 12 13  1  0
 13 14  1  0
 13 15  2  0
 15 16  1  0
 16 17  1  0
 17 18  1  0
 18 19  2  0
 19 20  1  0
  7 21  2  0
 21 22  1  0
 22 23  2  0
 23  2  1  0
 23  5  1  0
 20 11  1  0
 20 16  2  0
M  END
>  <fragmenstein_outcome>  (751) 
too moved

>  <exports>  (751) 
['/opt/xchem-fragalysis-2/maxwin/openbind-hippo/xx01zvns2b/cycle_01/syndirella/elabs/openbind_xx01zvns2b_c1_elab_chemspace_filtered.sdf']

>  <Energy>  (751) 
28.103515

>  <alias>  (751) 
RGHZSASRGFOXQA-UHFFFAOYSA-N-P337-P126-P337-601526

>  <fragmenstein_runtime>  (751) 
2.671037

>  <scratch_subdir>  (751) 
/opt/xchem-fragalysis-2/maxwin/BulkDock/SCRATCH/601526/RGHZSASRGFOXQA-UHFFFAOYSA-N-P337-P126-P337-601526

>  <HIPPO Compound ID>  (751) 
139365

>  <rmsd(smina/fragmenstein)>  (751) 
0.348

>  <distance_score>  (751) 
1.366365

>  <orig_smiles>  (751) 
O=C1NCc2cc(NC(=O)c3cc(F)cc4[nH]nnc34)ccc21

>  <fragmenstein_mode>  (751) 
expansion

>  <inchikey>  (751) 
RGHZSASRGFOXQA-UHFFFAOYSA-N

>  <ref_pdb>  (751) 
Z3093a

>  <GNINA pK>  (751) 
nan

>  <gnina_score_min>  (751) 
5.677

>  <tags>  (751) 
xx01zvns2b_c1_elab_bulkdock_input,openbind_xx01zvns2b_c1_elab_chemspace_filtered_scored_top80percent,fragmenstein_placed,openbind_xx01zvns2b_c1_elab_chemspace_filtered_scored,openbind_xx01zvns2b_c1_elab_chemspace_filtered_scored_top40percent,openbind_xx01zvns2b_c1_elab_chemspace_filtered_scored_top20percent,openbind_xx01zvns2b_c1_elab_chemspace_filtered_scored_top60percent,openbind_xx01zvns2b_c1_elabs_filtered

>  <smiles>  (751) 
O=C1NCc2cc(NC(=O)c3cc(F)cc4[nH]nnc34)ccc21

>  <subsites>  (751) 
1 - Z4590/B/203/1

>  <gnina_score>  (751) 
5.592

>  <HIPPO Pose ID>  (751) 
76530

>  <ref_mols>  (751) 
Z5348a,Z3093a

>  <energy_score>  (751) 
-15.866481

>  <inspiration_score>  (751) 
None

>  <smina_score_min>  (751) 
-8.834

>  <fragmenstein_error>  (751) 


>  <name>  (751) 
RGHZSASRGFOXQA-UHFFFAOYSA-N-P337-P126-P337-601526

$$$$
GDZAABKVXBSQEZ-UHFFFAOYSA-N-P288-P178-P288-601526
     RDKit          3D

 28 32  0  0  0  0  0  0  0  0999 V2000
   -9.8744    2.2277   -6.0026 C   0  0  0  0  0  0  0  0  0  0  0  0
   -8.8477    2.6754   -6.9205 N   0  0  0  0  0  0  0  0  0  0  0  0
   -8.7666    4.1363   -7.0512 C   0  0  0  0  0  0  0  0  0  0  0  0
   -8.5780    4.4015   -8.5072 C   0  0  0  0  0  0  0  0  0  0  0  0
   -8.3281    5.6012   -9.1441 C   0  0  0  0  0  0  0  0  0  0  0  0
   -8.2552    5.6036  -10.5377 C   0  0  0  0  0  0  0  0  0  0  0  0
   -8.4377    4.4213  -11.2734 C   0  0  0  0  0  0  0  0  0  0  0  0
   -8.3876    4.4472  -12.6650 N   0  0  0  0  0  0  0  0  0  0  0  0
   -8.1314    5.6186  -13.6376 C   0  0  0  0  0  0  0  0  0  0  0  0
   -7.9985    6.7599  -13.4297 O   0  0  0  0  0  0  0  0  0  0  0  0
   -8.0071    5.1612  -15.0370 C   0  0  0  0  0  0  0  0  0  0  0  0
   -9.0587    4.4991  -15.6886 C   0  0  0  0  0  0  0  0  0  0  0  0
   -8.9743    4.2057  -17.0482 C   0  0  0  0  0  0  0  0  0  0  0  0
   -7.8126    4.5652  -17.6933 C   0  0  0  0  0  0  0  0  0  0  0  0
   -6.7528    5.2175  -17.0619 C   0  0  0  0  0  0  0  0  0  0  0  0
   -6.8445    5.5284  -15.7219 C   0  0  0  0  0  0  0  0  0  0  0  0
   -5.6469    5.4711  -18.0628 C   0  0  0  0  0  0  0  0  0  0  0  0
   -4.2833    4.9486  -17.6055 C   0  0  0  0  0  0  0  0  0  0  0  0
   -3.5433    5.9243  -16.7045 C   0  0  0  0  0  0  0  0  0  0  0  0
   -3.4677    7.2163  -17.2970 O   0  0  0  0  0  0  0  0  0  0  0  0
   -4.7553    7.7861  -17.5047 C   0  0  0  0  0  0  0  0  0  0  0  0
   -5.5596    6.9478  -18.4845 C   0  0  0  0  0  0  0  0  0  0  0  0
   -6.1844    4.6807  -19.2813 C   0  0  0  0  0  0  0  0  0  0  0  0
   -5.5772    4.4201  -20.3026 O   0  0  0  0  0  0  0  0  0  0  0  0
   -7.4892    4.3141  -19.0066 N   0  0  0  0  0  0  0  0  0  0  0  0
   -8.6719    3.2125  -10.6142 C   0  0  0  0  0  0  0  0  0  0  0  0
   -8.7368    3.2217   -9.2278 C   0  0  0  0  0  0  0  0  0  0  0  0
   -9.0019    2.0952   -8.2793 C   0  0  0  0  0  0  0  0  0  0  0  0
  1  2  1  0
  2  3  1  0
  3  4  1  0
  4  5  2  0
  5  6  1  0
  6  7  2  0
  7  8  1  0
  8  9  1  0
  9 10  2  0
  9 11  1  0
 11 12  2  0
 12 13  1  0
 13 14  2  0
 14 15  1  0
 15 16  2  0
 15 17  1  0
 17 18  1  0
 18 19  1  0
 19 20  1  0
 20 21  1  0
 21 22  1  0
 17 23  1  0
 23 24  2  0
 23 25  1  0
  7 26  1  0
 26 27  2  0
 27 28  1  0
 28  2  1  0
 27  4  1  0
 16 11  1  0
 22 17  1  0
 25 14  1  0
M  END
>  <fragmenstein_outcome>  (752) 
acceptable

>  <exports>  (752) 
['/opt/xchem-fragalysis-2/maxwin/BulkDock/OUTPUTS/xx01zvns2b_c1_elab_bulkdock_input_1GFT1FD.sdf', '/opt/xchem-fragalysis-2/maxwin/openbind-hippo/xx01zvns2b/cycle_01/syndirella/elabs/openbind_xx01zvns2b_c1_elab_chemspace_filtered.sdf']

>  <Energy>  (752) 
65.853605

>  <alias>  (752) 
GDZAABKVXBSQEZ-UHFFFAOYSA-N-P288-P178-P288-601526

>  <fragmenstein_runtime>  (752) 
4.984282

>  <scratch_subdir>  (752) 
/opt/xchem-fragalysis-2/maxwin/BulkDock/SCRATCH/601526/GDZAABKVXBSQEZ-UHFFFAOYSA-N-P288-P178-P288-601526

>  <HIPPO Compound ID>  (752) 
35875

>  <rmsd(smina/fragmenstein)>  (752) 
0.967

>  <distance_score>  (752) 
0.786998

>  <orig_smiles>  (752) 
CN1Cc2ccc(NC(=O)c3ccc4c(c3)C3(CCOCC3)C(=O)N4)cc2C1

>  <fragmenstein_mode>  (752) 
expansion

>  <inchikey>  (752) 
GDZAABKVXBSQEZ-UHFFFAOYSA-N

>  <ref_pdb>  (752) 
Z3093a

>  <GNINA pK>  (752) 
nan

>  <gnina_score_min>  (752) 
5.809

>  <tags>  (752) 
xx01zvns2b_c1_elab_bulkdock_input,BulkDock Fragalysis export,openbind_xx01zvns2b_c1_elab_chemspace_filtered_scored_top80percent,fragmenstein_placed,openbind_xx01zvns2b_c1_elab_chemspace_filtered_scored,openbind_xx01zvns2b_c1_elab_chemspace_filtered_scored_top40percent,openbind_xx01zvns2b_c1_elab_chemspace_filtered_scored_top20percent,openbind_xx01zvns2b_c1_elab_chemspace_filtered_scored_top60percent,openbind_xx01zvns2b_c1_elabs_filtered

>  <smiles>  (752) 
CN1Cc2ccc(NC(=O)c3ccc4c(c3)C3(CCOCC3)C(=O)N4)cc2C1

>  <subsites>  (752) 
1 - Z4590/B/203/1

>  <gnina_score>  (752) 
5.76

>  <HIPPO Pose ID>  (752) 
76538

>  <ref_mols>  (752) 
Z4590a,Z3677a

>  <energy_score>  (752) 
-45.794142

>  <inspiration_score>  (752) 
None

>  <smina_score_min>  (752) 
-10.529

>  <fragmenstein_error>  (752) 


>  <name>  (752) 
GDZAABKVXBSQEZ-UHFFFAOYSA-N-P288-P178-P288-601526

$$$$
NOAAROLXSJEELS-UHFFFAOYSA-N-P288-P178-P288-601526
     RDKit          3D

 29 33  0  0  0  0  0  0  0  0999 V2000
   -9.3725    2.1431   -5.7889 C   0  0  0  0  0  0  0  0  0  0  0  0
   -9.2527    2.8911   -7.0043 N   0  0  0  0  0  0  0  0  0  0  0  0
   -8.6204    4.1844   -7.0461 C   0  0  0  0  0  0  0  0  0  0  0  0
   -8.4980    4.4294   -8.5071 C   0  0  0  0  0  0  0  0  0  0  0  0
   -8.1019    5.5713   -9.1661 C   0  0  0  0  0  0  0  0  0  0  0  0
   -8.0893    5.5384  -10.5596 C   0  0  0  0  0  0  0  0  0  0  0  0
   -8.4421    4.3736  -11.2725 C   0  0  0  0  0  0  0  0  0  0  0  0
   -8.3967    4.3844  -12.6613 N   0  0  0  0  0  0  0  0  0  0  0  0
   -7.9767    5.4974  -13.6402 C   0  0  0  0  0  0  0  0  0  0  0  0
   -7.6755    6.6073  -13.4403 O   0  0  0  0  0  0  0  0  0  0  0  0
   -7.8668    5.0065  -15.0239 C   0  0  0  0  0  0  0  0  0  0  0  0
   -8.9753    4.4892  -15.7151 C   0  0  0  0  0  0  0  0  0  0  0  0
   -8.8973    4.2432  -17.0862 C   0  0  0  0  0  0  0  0  0  0  0  0
   -7.6978    4.5258  -17.7015 C   0  0  0  0  0  0  0  0  0  0  0  0
   -6.5843    5.0107  -17.0158 C   0  0  0  0  0  0  0  0  0  0  0  0
   -6.6491    5.2429  -15.6626 C   0  0  0  0  0  0  0  0  0  0  0  0
   -5.4659    5.2989  -17.9857 C   0  0  0  0  0  0  0  0  0  0  0  0
   -5.3430    6.8125  -18.1916 C   0  0  0  0  0  0  0  0  0  0  0  0
   -4.6486    7.5048  -17.0228 C   0  0  0  0  0  0  0  0  0  0  0  0
   -3.6507    6.7159  -16.3862 O   0  0  0  0  0  0  0  0  0  0  0  0
   -3.0705    5.7567  -17.2553 C   0  0  0  0  0  0  0  0  0  0  0  0
   -4.1024    4.6950  -17.6185 C   0  0  0  0  0  0  0  0  0  0  0  0
   -6.0574    4.6919  -19.2762 C   0  0  0  0  0  0  0  0  0  0  0  0
   -5.4657    4.5326  -20.3270 O   0  0  0  0  0  0  0  0  0  0  0  0
   -7.3859    4.3844  -19.0356 N   0  0  0  0  0  0  0  0  0  0  0  0
   -8.8258    3.2171  -10.5995 C   0  0  0  0  0  0  0  0  0  0  0  0
   -8.8638    3.2854   -9.2205 C   0  0  0  0  0  0  0  0  0  0  0  0
   -9.3239    2.2886   -8.2481 C   0  0  0  0  0  0  0  0  0  0  0  0
   -9.7307    1.1763   -8.5043 O   0  0  0  0  0  0  0  0  0  0  0  0
  1  2  1  0
  2  3  1  0
  3  4  1  0
  4  5  2  0
  5  6  1  0
  6  7  2  0
  7  8  1  0
  8  9  1  0
  9 10  2  0
  9 11  1  0
 11 12  2  0
 12 13  1  0
 13 14  2  0
 14 15  1  0
 15 16  2  0
 15 17  1  0
 17 18  1  0
 18 19  1  0
 19 20  1  0
 20 21  1  0
 21 22  1  0
 17 23  1  0
 23 24  2  0
 23 25  1  0
  7 26  1  0
 26 27  2  0
 27 28  1  0
 28 29  2  0
 28  2  1  0
 27  4  1  0
 16 11  1  0
 22 17  1  0
 25 14  1  0
M  END
>  <fragmenstein_outcome>  (753) 
too moved

>  <exports>  (753) 
['/opt/xchem-fragalysis-2/maxwin/openbind-hippo/xx01zvns2b/cycle_01/syndirella/elabs/openbind_xx01zvns2b_c1_elab_chemspace_filtered.sdf']

>  <Energy>  (753) 
47.813808

>  <alias>  (753) 
NOAAROLXSJEELS-UHFFFAOYSA-N-P288-P178-P288-601526

>  <fragmenstein_runtime>  (753) 
7.381031

>  <scratch_subdir>  (753) 
/opt/xchem-fragalysis-2/maxwin/BulkDock/SCRATCH/601526/NOAAROLXSJEELS-UHFFFAOYSA-N-P288-P178-P288-601526

>  <HIPPO Compound ID>  (753) 
142806

>  <rmsd(smina/fragmenstein)>  (753) 
0.972

>  <distance_score>  (753) 
1.211931

>  <orig_smiles>  (753) 
CN1Cc2ccc(NC(=O)c3ccc4c(c3)C3(CCOCC3)C(=O)N4)cc2C1=O

>  <fragmenstein_mode>  (753) 
expansion

>  <inchikey>  (753) 
NOAAROLXSJEELS-UHFFFAOYSA-N

>  <ref_pdb>  (753) 
Z3093a

>  <GNINA pK>  (753) 
nan

>  <gnina_score_min>  (753) 
5.805

>  <tags>  (753) 
xx01zvns2b_c1_elab_bulkdock_input,openbind_xx01zvns2b_c1_elab_chemspace_filtered_scored_top80percent,fragmenstein_placed,openbind_xx01zvns2b_c1_elab_chemspace_filtered_scored,openbind_xx01zvns2b_c1_elab_chemspace_filtered_scored_top40percent,openbind_xx01zvns2b_c1_elab_chemspace_filtered_scored_top20percent,openbind_xx01zvns2b_c1_elab_chemspace_filtered_scored_top60percent,openbind_xx01zvns2b_c1_elabs_filtered

>  <smiles>  (753) 
CN1Cc2ccc(NC(=O)c3ccc4c(c3)C3(CCOCC3)C(=O)N4)cc2C1=O

>  <subsites>  (753) 
1 - Z4590/B/203/1

>  <gnina_score>  (753) 
5.788

>  <HIPPO Pose ID>  (753) 
76546

>  <ref_mols>  (753) 
Z4590a,Z3677a

>  <energy_score>  (753) 
-17.434309

>  <inspiration_score>  (753) 
None

>  <smina_score_min>  (753) 
-10.626

>  <fragmenstein_error>  (753) 


>  <name>  (753) 
NOAAROLXSJEELS-UHFFFAOYSA-N-P288-P178-P288-601526

$$$$
VHFCAHLQHNTGFJ-UHFFFAOYSA-N-P288-P178-P288-601526
     RDKit          3D

 29 33  0  0  0  0  0  0  0  0999 V2000
   -9.3075    1.9985   -5.9362 C   0  0  0  0  0  0  0  0  0  0  0  0
   -9.1594    2.7395   -7.1538 N   0  0  0  0  0  0  0  0  0  0  0  0
   -9.0312    2.0632   -8.4349 C   0  0  0  0  0  0  0  0  0  0  0  0
   -8.7350    3.1958   -9.3560 C   0  0  0  0  0  0  0  0  0  0  0  0
   -8.6354    3.2178  -10.7344 C   0  0  0  0  0  0  0  0  0  0  0  0
   -8.3478    4.4393  -11.3511 C   0  0  0  0  0  0  0  0  0  0  0  0
   -8.2469    4.4801  -12.7345 N   0  0  0  0  0  0  0  0  0  0  0  0
   -7.9233    5.6537  -13.6812 C   0  0  0  0  0  0  0  0  0  0  0  0
   -7.6150    6.7541  -13.4444 O   0  0  0  0  0  0  0  0  0  0  0  0
   -7.9331    5.2193  -15.0926 C   0  0  0  0  0  0  0  0  0  0  0  0
   -9.0395    4.5576  -15.6531 C   0  0  0  0  0  0  0  0  0  0  0  0
   -9.0563    4.2244  -17.0060 C   0  0  0  0  0  0  0  0  0  0  0  0
   -7.9353    4.5409  -17.7354 C   0  0  0  0  0  0  0  0  0  0  0  0
   -6.8327    5.1975  -17.1931 C   0  0  0  0  0  0  0  0  0  0  0  0
   -6.8177    5.5505  -15.8624 C   0  0  0  0  0  0  0  0  0  0  0  0
   -5.7797    5.3930  -18.2550 C   0  0  0  0  0  0  0  0  0  0  0  0
   -5.7140    6.8648  -18.7058 C   0  0  0  0  0  0  0  0  0  0  0  0
   -4.3374    7.1584  -19.2828 C   0  0  0  0  0  0  0  0  0  0  0  0
   -3.3041    7.0172  -18.3058 O   0  0  0  0  0  0  0  0  0  0  0  0
   -3.5425    6.0216  -17.3097 C   0  0  0  0  0  0  0  0  0  0  0  0
   -4.4056    4.8777  -17.8139 C   0  0  0  0  0  0  0  0  0  0  0  0
   -6.3913    4.5640  -19.4085 C   0  0  0  0  0  0  0  0  0  0  0  0
   -5.8492    4.2552  -20.4520 O   0  0  0  0  0  0  0  0  0  0  0  0
   -7.6875    4.2300  -19.0516 N   0  0  0  0  0  0  0  0  0  0  0  0
   -8.1481    5.6062  -10.5895 C   0  0  0  0  0  0  0  0  0  0  0  0
   -8.2424    5.5759   -9.2003 C   0  0  0  0  0  0  0  0  0  0  0  0
   -8.5411    4.3629   -8.6192 C   0  0  0  0  0  0  0  0  0  0  0  0
   -8.7524    4.0565   -7.2032 C   0  0  0  0  0  0  0  0  0  0  0  0
   -8.5949    4.8464   -6.2906 O   0  0  0  0  0  0  0  0  0  0  0  0
  1  2  1  0
  2  3  1  0
  3  4  1  0
  4  5  2  0
  5  6  1  0
  6  7  1  0
  7  8  1  0
  8  9  2  0
  8 10  1  0
 10 11  2  0
 11 12  1  0
 12 13  2  0
 13 14  1  0
 14 15  2  0
 14 16  1  0
 16 17  1  0
 17 18  1  0
 18 19  1  0
 19 20  1  0
 20 21  1  0
 16 22  1  0
 22 23  2  0
 22 24  1  0
  6 25  2  0
 25 26  1  0
 26 27  2  0
 27 28  1  0
 28 29  2  0
 28  2  1  0
 27  4  1  0
 15 10  1  0
 21 16  1  0
 24 13  1  0
M  END
>  <fragmenstein_outcome>  (754) 
acceptable

>  <exports>  (754) 
['/opt/xchem-fragalysis-2/maxwin/BulkDock/OUTPUTS/xx01zvns2b_c1_elab_bulkdock_input_1GFT1FD.sdf', '/opt/xchem-fragalysis-2/maxwin/openbind-hippo/xx01zvns2b/cycle_01/syndirella/elabs/openbind_xx01zvns2b_c1_elab_chemspace_filtered.sdf']

>  <Energy>  (754) 
49.765938

>  <alias>  (754) 
VHFCAHLQHNTGFJ-UHFFFAOYSA-N-P288-P178-P288-601526

>  <fragmenstein_runtime>  (754) 
5.734688

>  <scratch_subdir>  (754) 
/opt/xchem-fragalysis-2/maxwin/BulkDock/SCRATCH/601526/VHFCAHLQHNTGFJ-UHFFFAOYSA-N-P288-P178-P288-601526

>  <HIPPO Compound ID>  (754) 
142809

>  <rmsd(smina/fragmenstein)>  (754) 
1.242

>  <distance_score>  (754) 
0.971031

>  <orig_smiles>  (754) 
CN1Cc2cc(NC(=O)c3ccc4c(c3)C3(CCOCC3)C(=O)N4)ccc2C1=O

>  <fragmenstein_mode>  (754) 
expansion

>  <inchikey>  (754) 
VHFCAHLQHNTGFJ-UHFFFAOYSA-N

>  <ref_pdb>  (754) 
Z3093a

>  <GNINA pK>  (754) 
nan

>  <gnina_score_min>  (754) 
5.816

>  <tags>  (754) 
xx01zvns2b_c1_elab_bulkdock_input,BulkDock Fragalysis export,openbind_xx01zvns2b_c1_elab_chemspace_filtered_scored_top80percent,fragmenstein_placed,openbind_xx01zvns2b_c1_elab_chemspace_filtered_scored,openbind_xx01zvns2b_c1_elab_chemspace_filtered_scored_top40percent,openbind_xx01zvns2b_c1_elab_chemspace_filtered_scored_top20percent,openbind_xx01zvns2b_c1_elab_chemspace_filtered_scored_top60percent,openbind_xx01zvns2b_c1_elabs_filtered

>  <smiles>  (754) 
CN1Cc2cc(NC(=O)c3ccc4c(c3)C3(CCOCC3)C(=O)N4)ccc2C1=O

>  <subsites>  (754) 
1 - Z4590/B/203/1

>  <gnina_score>  (754) 
5.765

>  <HIPPO Pose ID>  (754) 
76552

>  <ref_mols>  (754) 
Z4590a,Z3677a

>  <energy_score>  (754) 
-31.908596

>  <inspiration_score>  (754) 
None

>  <smina_score_min>  (754) 
-10.577

>  <fragmenstein_error>  (754) 


>  <name>  (754) 
VHFCAHLQHNTGFJ-UHFFFAOYSA-N-P288-P178-P288-601526

$$$$
SDOQTPUMEXRLDM-UHFFFAOYSA-N-P178-P178-P288-601526
     RDKit          3D

 29 33  0  0  0  0  0  0  0  0999 V2000
   -7.0010    6.1850  -13.4154 O   0  0  0  0  0  0  0  0  0  0  0  0
   -7.4645    5.1334  -13.6339 C   0  0  0  0  0  0  0  0  0  0  0  0
   -8.0853    4.0881  -12.6697 N   0  0  0  0  0  0  0  0  0  0  0  0
   -8.1746    4.0805  -11.2746 C   0  0  0  0  0  0  0  0  0  0  0  0
   -7.7498    5.2074  -10.5378 C   0  0  0  0  0  0  0  0  0  0  0  0
   -7.7881    5.2202   -9.1397 C   0  0  0  0  0  0  0  0  0  0  0  0
   -8.2720    4.0927   -8.5123 C   0  0  0  0  0  0  0  0  0  0  0  0
   -8.7241    2.9957   -9.2242 C   0  0  0  0  0  0  0  0  0  0  0  0
   -8.6778    2.9537  -10.6099 C   0  0  0  0  0  0  0  0  0  0  0  0
   -9.2230    2.0311   -8.2383 C   0  0  0  0  0  0  0  0  0  0  0  0
   -9.7756    0.9805   -8.4849 O   0  0  0  0  0  0  0  0  0  0  0  0
   -9.0092    2.5784   -7.0085 N   0  0  0  0  0  0  0  0  0  0  0  0
   -8.4131    3.7960   -7.0865 C   0  0  0  0  0  0  0  0  0  0  0  0
   -8.0407    4.5202   -6.1819 O   0  0  0  0  0  0  0  0  0  0  0  0
   -7.4971    4.7002  -15.0631 C   0  0  0  0  0  0  0  0  0  0  0  0
   -8.6418    4.1109  -15.6315 C   0  0  0  0  0  0  0  0  0  0  0  0
   -8.7111    3.8554  -17.0059 C   0  0  0  0  0  0  0  0  0  0  0  0
   -7.6209    4.2045  -17.7737 C   0  0  0  0  0  0  0  0  0  0  0  0
   -6.4823    4.8019  -17.2364 C   0  0  0  0  0  0  0  0  0  0  0  0
   -6.4031    5.0429  -15.8738 C   0  0  0  0  0  0  0  0  0  0  0  0
   -5.5246    5.1725  -18.3561 C   0  0  0  0  0  0  0  0  0  0  0  0
   -4.0704    4.7279  -18.1519 C   0  0  0  0  0  0  0  0  0  0  0  0
   -3.0794    5.8833  -18.1771 C   0  0  0  0  0  0  0  0  0  0  0  0
   -3.4905    6.8745  -17.2466 O   0  0  0  0  0  0  0  0  0  0  0  0
   -4.7496    7.4581  -17.5577 C   0  0  0  0  0  0  0  0  0  0  0  0
   -5.5792    6.6858  -18.5798 C   0  0  0  0  0  0  0  0  0  0  0  0
   -6.2206    4.4687  -19.5694 C   0  0  0  0  0  0  0  0  0  0  0  0
   -5.7897    4.3351  -20.7053 O   0  0  0  0  0  0  0  0  0  0  0  0
   -7.4691    4.0308  -19.1368 N   0  0  0  0  0  0  0  0  0  0  0  0
  1  2  2  0
  2  3  1  0
  3  4  1  0
  4  5  2  0
  5  6  1  0
  6  7  2  0
  7  8  1  0
  8  9  2  0
  8 10  1  0
 10 11  2  0
 10 12  1  0
 12 13  1  0
 13 14  2  0
  2 15  1  0
 15 16  2  0
 16 17  1  0
 17 18  2  0
 18 19  1  0
 19 20  2  0
 19 21  1  0
 21 22  1  0
 22 23  1  0
 23 24  1  0
 24 25  1  0
 25 26  1  0
 21 27  1  0
 27 28  2  0
 27 29  1  0
  9  4  1  0
 20 15  1  0
 26 21  1  0
 13  7  1  0
 29 18  1  0
M  END
>  <fragmenstein_outcome>  (755) 
acceptable

>  <exports>  (755) 
['/opt/xchem-fragalysis-2/maxwin/BulkDock/OUTPUTS/xx01zvns2b_c1_elab_bulkdock_input_1GFT1FD.sdf', '/opt/xchem-fragalysis-2/maxwin/openbind-hippo/xx01zvns2b/cycle_01/syndirella/elabs/openbind_xx01zvns2b_c1_elab_chemspace_filtered.sdf']

>  <Energy>  (755) 
20.370203

>  <alias>  (755) 
SDOQTPUMEXRLDM-UHFFFAOYSA-N-P178-P178-P288-601526

>  <fragmenstein_runtime>  (755) 
4.969921

>  <scratch_subdir>  (755) 
/opt/xchem-fragalysis-2/maxwin/BulkDock/SCRATCH/601526/SDOQTPUMEXRLDM-UHFFFAOYSA-N-P178-P178-P288-601526

>  <HIPPO Compound ID>  (755) 
142810

>  <rmsd(smina/fragmenstein)>  (755) 
1.234

>  <distance_score>  (755) 
0.857166

>  <orig_smiles>  (755) 
O=C(Nc1ccc2c(c1)C(=O)NC2=O)c1ccc2c(c1)C1(CCOCC1)C(=O)N2

>  <fragmenstein_mode>  (755) 
expansion

>  <inchikey>  (755) 
SDOQTPUMEXRLDM-UHFFFAOYSA-N

>  <ref_pdb>  (755) 
Z3093a

>  <GNINA pK>  (755) 
nan

>  <gnina_score_min>  (755) 
5.714

>  <tags>  (755) 
xx01zvns2b_c1_elab_bulkdock_input,BulkDock Fragalysis export,openbind_xx01zvns2b_c1_elab_chemspace_filtered_scored_top80percent,fragmenstein_placed,openbind_xx01zvns2b_c1_elab_chemspace_filtered_scored,openbind_xx01zvns2b_c1_elab_chemspace_filtered_scored_top40percent,openbind_xx01zvns2b_c1_elab_chemspace_filtered_scored_top20percent,openbind_xx01zvns2b_c1_elab_chemspace_filtered_scored_top60percent,openbind_xx01zvns2b_c1_elabs_filtered

>  <smiles>  (755) 
O=C(Nc1ccc2c(c1)C(=O)NC2=O)c1ccc2c(c1)C1(CCOCC1)C(=O)N2

>  <subsites>  (755) 
1 - Z4590/B/203/1

>  <gnina_score>  (755) 
5.813

>  <HIPPO Pose ID>  (755) 
76553

>  <ref_mols>  (755) 
Z4590a,Z3677a

>  <energy_score>  (755) 
-31.124973

>  <inspiration_score>  (755) 
None

>  <smina_score_min>  (755) 
-10.346

>  <fragmenstein_error>  (755) 


>  <name>  (755) 
SDOQTPUMEXRLDM-UHFFFAOYSA-N-P178-P178-P288-601526

$$$$
GVWIHBIBEJNYEH-UHFFFAOYSA-N-P178-P178-P288-601526
     RDKit          3D

 30 34  0  0  0  0  0  0  0  0999 V2000
   -9.6649    2.2559   -6.0946 C   0  0  0  0  0  0  0  0  0  0  0  0
   -9.1206    2.8394   -7.2874 N   0  0  0  0  0  0  0  0  0  0  0  0
   -8.6259    4.1054   -7.3708 C   0  0  0  0  0  0  0  0  0  0  0  0
   -8.4774    4.9452   -6.5009 O   0  0  0  0  0  0  0  0  0  0  0  0
   -8.3318    4.3341   -8.7826 C   0  0  0  0  0  0  0  0  0  0  0  0
   -7.8861    5.4720   -9.4182 C   0  0  0  0  0  0  0  0  0  0  0  0
   -7.7650    5.4178  -10.8097 C   0  0  0  0  0  0  0  0  0  0  0  0
   -8.0775    4.2434  -11.5274 C   0  0  0  0  0  0  0  0  0  0  0  0
   -7.9471    4.2121  -12.9145 N   0  0  0  0  0  0  0  0  0  0  0  0
   -7.5258    5.3211  -13.9107 C   0  0  0  0  0  0  0  0  0  0  0  0
   -7.1485    6.4105  -13.7166 O   0  0  0  0  0  0  0  0  0  0  0  0
   -7.5904    4.8619  -15.3276 C   0  0  0  0  0  0  0  0  0  0  0  0
   -8.6830    4.1277  -15.8191 C   0  0  0  0  0  0  0  0  0  0  0  0
   -8.7560    3.7864  -17.1709 C   0  0  0  0  0  0  0  0  0  0  0  0
   -7.7162    4.1830  -17.9849 C   0  0  0  0  0  0  0  0  0  0  0  0
   -6.6365    4.9398  -17.5311 C   0  0  0  0  0  0  0  0  0  0  0  0
   -6.5656    5.2804  -16.1914 C   0  0  0  0  0  0  0  0  0  0  0  0
   -5.7123    5.2524  -18.6971 C   0  0  0  0  0  0  0  0  0  0  0  0
   -4.2452    4.9194  -18.4399 C   0  0  0  0  0  0  0  0  0  0  0  0
   -3.5008    5.9887  -17.6549 C   0  0  0  0  0  0  0  0  0  0  0  0
   -3.6532    7.2688  -18.2607 O   0  0  0  0  0  0  0  0  0  0  0  0
   -5.0143    7.6723  -18.3130 C   0  0  0  0  0  0  0  0  0  0  0  0
   -5.8285    6.7114  -19.1630 C   0  0  0  0  0  0  0  0  0  0  0  0
   -6.3525    4.3588  -19.8138 C   0  0  0  0  0  0  0  0  0  0  0  0
   -5.9288    4.1310  -20.9375 O   0  0  0  0  0  0  0  0  0  0  0  0
   -7.5586    3.8744  -19.3210 N   0  0  0  0  0  0  0  0  0  0  0  0
   -8.5269    3.1012  -10.8552 C   0  0  0  0  0  0  0  0  0  0  0  0
   -8.6545    3.1853   -9.4798 C   0  0  0  0  0  0  0  0  0  0  0  0
   -9.2009    2.2369   -8.5122 C   0  0  0  0  0  0  0  0  0  0  0  0
   -9.7073    1.1738   -8.8043 O   0  0  0  0  0  0  0  0  0  0  0  0
  1  2  1  0
  2  3  1  0
  3  4  2  0
  3  5  1  0
  5  6  2  0
  6  7  1  0
  7  8  2  0
  8  9  1  0
  9 10  1  0
 10 11  2  0
 10 12  1  0
 12 13  2  0
 13 14  1  0
 14 15  2  0
 15 16  1  0
 16 17  2  0
 16 18  1  0
 18 19  1  0
 19 20  1  0
 20 21  1  0
 21 22  1  0
 22 23  1  0
 18 24  1  0
 24 25  2  0
 24 26  1  0
  8 27  1  0
 27 28  2  0
 28 29  1  0
 29 30  2  0
 29  2  1  0
 28  5  1  0
 17 12  1  0
 23 18  1  0
 26 15  1  0
M  END
>  <fragmenstein_outcome>  (756) 
acceptable

>  <exports>  (756) 
['/opt/xchem-fragalysis-2/maxwin/BulkDock/OUTPUTS/xx01zvns2b_c1_elab_bulkdock_input_1GFT1FD.sdf', '/opt/xchem-fragalysis-2/maxwin/openbind-hippo/xx01zvns2b/cycle_01/syndirella/elabs/openbind_xx01zvns2b_c1_elab_chemspace_filtered.sdf']

>  <Energy>  (756) 
22.42018

>  <alias>  (756) 
GVWIHBIBEJNYEH-UHFFFAOYSA-N-P178-P178-P288-601526

>  <fragmenstein_runtime>  (756) 
9.81505

>  <scratch_subdir>  (756) 
/opt/xchem-fragalysis-2/maxwin/BulkDock/SCRATCH/601526/GVWIHBIBEJNYEH-UHFFFAOYSA-N-P178-P178-P288-601526

>  <HIPPO Compound ID>  (756) 
142811

>  <rmsd(smina/fragmenstein)>  (756) 
1.465

>  <distance_score>  (756) 
0.836825

>  <orig_smiles>  (756) 
CN1C(=O)c2ccc(NC(=O)c3ccc4c(c3)C3(CCOCC3)C(=O)N4)cc2C1=O

>  <fragmenstein_mode>  (756) 
expansion

>  <inchikey>  (756) 
GVWIHBIBEJNYEH-UHFFFAOYSA-N

>  <ref_pdb>  (756) 
Z3093a

>  <GNINA pK>  (756) 
nan

>  <gnina_score_min>  (756) 
5.616

>  <tags>  (756) 
xx01zvns2b_c1_elab_bulkdock_input,BulkDock Fragalysis export,openbind_xx01zvns2b_c1_elab_chemspace_filtered_scored_top80percent,fragmenstein_placed,openbind_xx01zvns2b_c1_elab_chemspace_filtered_scored,openbind_xx01zvns2b_c1_elab_chemspace_filtered_scored_top40percent,openbind_xx01zvns2b_c1_elab_chemspace_filtered_scored_top20percent,openbind_xx01zvns2b_c1_elab_chemspace_filtered_scored_top60percent,openbind_xx01zvns2b_c1_elabs_filtered

>  <smiles>  (756) 
CN1C(=O)c2ccc(NC(=O)c3ccc4c(c3)C3(CCOCC3)C(=O)N4)cc2C1=O

>  <subsites>  (756) 
1 - Z4590/B/203/1

>  <gnina_score>  (756) 
5.939

>  <HIPPO Pose ID>  (756) 
76555

>  <ref_mols>  (756) 
Z4590a,Z3677a

>  <energy_score>  (756) 
-26.819702

>  <inspiration_score>  (756) 
None

>  <smina_score_min>  (756) 
-10.085

>  <fragmenstein_error>  (756) 


>  <name>  (756) 
GVWIHBIBEJNYEH-UHFFFAOYSA-N-P178-P178-P288-601526

$$$$
PHSBQOWJNFCZBH-UHFFFAOYSA-N-P288-P178-P288-601526
     RDKit          3D

 30 34  0  0  0  0  0  0  0  0999 V2000
   -9.7167    2.3451   -5.8618 C   0  0  0  0  0  0  0  0  0  0  0  0
   -8.7670    2.8632   -6.8237 N   0  0  0  0  0  0  0  0  0  0  0  0
   -8.9879    2.2827   -8.1738 C   0  0  0  0  0  0  0  0  0  0  0  0
   -8.7558    3.3998   -9.1358 C   0  0  0  0  0  0  0  0  0  0  0  0
   -8.6874    3.3534  -10.5245 C   0  0  0  0  0  0  0  0  0  0  0  0
   -8.4460    4.5433  -11.2136 C   0  0  0  0  0  0  0  0  0  0  0  0
   -8.3056    4.5282  -12.5998 N   0  0  0  0  0  0  0  0  0  0  0  0
   -7.9820    5.6713  -13.5886 C   0  0  0  0  0  0  0  0  0  0  0  0
   -7.7065    6.7891  -13.3900 O   0  0  0  0  0  0  0  0  0  0  0  0
   -7.9323    5.2026  -14.9920 C   0  0  0  0  0  0  0  0  0  0  0  0
   -9.0129    4.5401  -15.5929 C   0  0  0  0  0  0  0  0  0  0  0  0
   -8.9834    4.2279  -16.9523 C   0  0  0  0  0  0  0  0  0  0  0  0
   -7.8460    4.5687  -17.6501 C   0  0  0  0  0  0  0  0  0  0  0  0
   -6.7591    5.2230  -17.0710 C   0  0  0  0  0  0  0  0  0  0  0  0
   -6.7965    5.5512  -15.7324 C   0  0  0  0  0  0  0  0  0  0  0  0
   -5.6893    5.4535  -18.1165 C   0  0  0  0  0  0  0  0  0  0  0  0
   -5.6117    6.9210  -18.5697 C   0  0  0  0  0  0  0  0  0  0  0  0
   -4.7731    7.7759  -17.6342 C   0  0  0  0  0  0  0  0  0  0  0  0
   -3.4797    7.2077  -17.4620 O   0  0  0  0  0  0  0  0  0  0  0  0
   -3.5361    5.9274  -16.8430 C   0  0  0  0  0  0  0  0  0  0  0  0
   -4.3120    4.9363  -17.6960 C   0  0  0  0  0  0  0  0  0  0  0  0
   -6.2762    4.6434  -19.2999 C   0  0  0  0  0  0  0  0  0  0  0  0
   -5.7112    4.3556  -20.3381 O   0  0  0  0  0  0  0  0  0  0  0  0
   -7.5747    4.2940  -18.9710 N   0  0  0  0  0  0  0  0  0  0  0  0
   -8.3007    5.7471  -10.5073 C   0  0  0  0  0  0  0  0  0  0  0  0
   -8.3749    5.7793   -9.1136 C   0  0  0  0  0  0  0  0  0  0  0  0
   -8.5972    4.5941   -8.4339 C   0  0  0  0  0  0  0  0  0  0  0  0
   -8.6151    4.3346   -6.9452 C   0  0  0  0  0  0  0  0  0  0  0  0
   -9.6645    5.1787   -6.1995 C   0  0  0  0  0  0  0  0  0  0  0  0
   -7.2408    4.7219   -6.3649 C   0  0  0  0  0  0  0  0  0  0  0  0
  1  2  1  0
  2  3  1  0
  3  4  1  0
  4  5  2  0
  5  6  1  0
  6  7  1  0
  7  8  1  0
  8  9  2  0
  8 10  1  0
 10 11  2  0
 11 12  1  0
 12 13  2  0
 13 14  1  0
 14 15  2  0
 14 16  1  0
 16 17  1  0
 17 18  1  0
 18 19  1  0
 19 20  1  0
 20 21  1  0
 16 22  1  0
 22 23  2  0
 22 24  1  0
  6 25  2  0
 25 26  1  0
 26 27  2  0
 27 28  1  0
 28 29  1  0
 28 30  1  0
 28  2  1  0
 27  4  1  0
 15 10  1  0
 21 16  1  0
 24 13  1  0
M  END
>  <fragmenstein_outcome>  (757) 
acceptable

>  <exports>  (757) 
['/opt/xchem-fragalysis-2/maxwin/BulkDock/OUTPUTS/xx01zvns2b_c1_elab_bulkdock_input_1GFT1FD.sdf', '/opt/xchem-fragalysis-2/maxwin/openbind-hippo/xx01zvns2b/cycle_01/syndirella/elabs/openbind_xx01zvns2b_c1_elab_chemspace_filtered.sdf']

>  <Energy>  (757) 
73.866066

>  <alias>  (757) 
PHSBQOWJNFCZBH-UHFFFAOYSA-N-P288-P178-P288-601526

>  <fragmenstein_runtime>  (757) 
5.234978

>  <scratch_subdir>  (757) 
/opt/xchem-fragalysis-2/maxwin/BulkDock/SCRATCH/601526/PHSBQOWJNFCZBH-UHFFFAOYSA-N-P288-P178-P288-601526

>  <HIPPO Compound ID>  (757) 
142812

>  <rmsd(smina/fragmenstein)>  (757) 
1.072

>  <distance_score>  (757) 
0.896031

>  <orig_smiles>  (757) 
CN1Cc2cc(NC(=O)c3ccc4c(c3)C3(CCOCC3)C(=O)N4)ccc2C1(C)C

>  <fragmenstein_mode>  (757) 
expansion

>  <inchikey>  (757) 
PHSBQOWJNFCZBH-UHFFFAOYSA-N

>  <ref_pdb>  (757) 
Z3093a

>  <GNINA pK>  (757) 
nan

>  <gnina_score_min>  (757) 
5.934

>  <tags>  (757) 
xx01zvns2b_c1_elab_bulkdock_input,BulkDock Fragalysis export,openbind_xx01zvns2b_c1_elab_chemspace_filtered_scored_top80percent,fragmenstein_placed,openbind_xx01zvns2b_c1_elab_chemspace_filtered_scored,openbind_xx01zvns2b_c1_elab_chemspace_filtered_scored_top40percent,openbind_xx01zvns2b_c1_elab_chemspace_filtered_scored_top20percent,openbind_xx01zvns2b_c1_elab_chemspace_filtered_scored_top60percent,openbind_xx01zvns2b_c1_elabs_filtered

>  <smiles>  (757) 
CN1Cc2cc(NC(=O)c3ccc4c(c3)C3(CCOCC3)C(=O)N4)ccc2C1(C)C

>  <subsites>  (757) 
1 - Z4590/B/203/1

>  <gnina_score>  (757) 
5.906

>  <HIPPO Pose ID>  (757) 
76558

>  <ref_mols>  (757) 
Z4590a,Z3677a

>  <energy_score>  (757) 
-31.844192

>  <inspiration_score>  (757) 
None

>  <smina_score_min>  (757) 
-10.312

>  <fragmenstein_error>  (757) 


>  <name>  (757) 
PHSBQOWJNFCZBH-UHFFFAOYSA-N-P288-P178-P288-601526

$$$$
FWMQLMYBMDGDPT-UHFFFAOYSA-N-P178-P178-P288-601526
     RDKit          3D

 32 36  0  0  0  0  0  0  0  0999 V2000
   -9.1797    5.5086   -3.9617 C   0  0  0  0  0  0  0  0  0  0  0  0
   -9.8578    4.7529   -4.9534 O   0  0  0  0  0  0  0  0  0  0  0  0
  -10.2699    3.4788   -4.4661 C   0  0  0  0  0  0  0  0  0  0  0  0
  -10.7249    2.5418   -5.5713 C   0  0  0  0  0  0  0  0  0  0  0  0
   -9.5937    2.0139   -6.4602 C   0  0  0  0  0  0  0  0  0  0  0  0
   -9.4939    2.7779   -7.6851 N   0  0  0  0  0  0  0  0  0  0  0  0
   -8.7230    4.0256   -7.5934 C   0  0  0  0  0  0  0  0  0  0  0  0
   -8.3312    4.2873   -9.0112 C   0  0  0  0  0  0  0  0  0  0  0  0
   -7.9411    5.4668   -9.6117 C   0  0  0  0  0  0  0  0  0  0  0  0
   -7.7398    5.4573  -10.9922 C   0  0  0  0  0  0  0  0  0  0  0  0
   -7.9202    4.2788  -11.7343 C   0  0  0  0  0  0  0  0  0  0  0  0
   -7.8219    4.2775  -13.1188 N   0  0  0  0  0  0  0  0  0  0  0  0
   -7.4645    5.4144  -14.0999 C   0  0  0  0  0  0  0  0  0  0  0  0
   -7.2716    6.5491  -13.9054 O   0  0  0  0  0  0  0  0  0  0  0  0
   -7.4803    4.9270  -15.4996 C   0  0  0  0  0  0  0  0  0  0  0  0
   -8.5923    4.2040  -15.9819 C   0  0  0  0  0  0  0  0  0  0  0  0
   -8.6635    3.8301  -17.3208 C   0  0  0  0  0  0  0  0  0  0  0  0
   -7.6077    4.1932  -18.1274 C   0  0  0  0  0  0  0  0  0  0  0  0
   -6.5115    4.9298  -17.6741 C   0  0  0  0  0  0  0  0  0  0  0  0
   -6.4306    5.3019  -16.3454 C   0  0  0  0  0  0  0  0  0  0  0  0
   -5.5775    5.2244  -18.8327 C   0  0  0  0  0  0  0  0  0  0  0  0
   -4.1246    4.7982  -18.5850 C   0  0  0  0  0  0  0  0  0  0  0  0
   -3.2283    5.9742  -18.2261 C   0  0  0  0  0  0  0  0  0  0  0  0
   -3.2003    6.9794  -19.2317 O   0  0  0  0  0  0  0  0  0  0  0  0
   -4.3955    7.0930  -20.0003 C   0  0  0  0  0  0  0  0  0  0  0  0
   -5.6334    6.7172  -19.1992 C   0  0  0  0  0  0  0  0  0  0  0  0
   -6.2615    4.3857  -19.9660 C   0  0  0  0  0  0  0  0  0  0  0  0
   -5.8683    4.2028  -21.1085 O   0  0  0  0  0  0  0  0  0  0  0  0
   -7.4563    3.8866  -19.4633 N   0  0  0  0  0  0  0  0  0  0  0  0
   -8.2695    3.0824  -11.1040 C   0  0  0  0  0  0  0  0  0  0  0  0
   -8.4831    3.1092   -9.7424 C   0  0  0  0  0  0  0  0  0  0  0  0
   -8.9486    2.0237   -8.8263 C   0  0  0  0  0  0  0  0  0  0  0  0
  1  2  1  0
  2  3  1  0
  3  4  1  0
  4  5  1  0
  5  6  1  0
  6  7  1  0
  7  8  1  0
  8  9  2  0
  9 10  1  0
 10 11  2  0
 11 12  1  0
 12 13  1  0
 13 14  2  0
 13 15  1  0
 15 16  2  0
 16 17  1  0
 17 18  2  0
 18 19  1  0
 19 20  2  0
 19 21  1  0
 21 22  1  0
 22 23  1  0
 23 24  1  0
 24 25  1  0
 25 26  1  0
 21 27  1  0
 27 28  2  0
 27 29  1  0
 11 30  1  0
 30 31  2  0
 31 32  1  0
 32  6  1  0
 31  8  1  0
 20 15  1  0
 26 21  1  0
 29 18  1  0
M  END
>  <fragmenstein_outcome>  (758) 
acceptable

>  <exports>  (758) 
['/opt/xchem-fragalysis-2/maxwin/BulkDock/OUTPUTS/xx01zvns2b_c1_elab_bulkdock_input_1GFT1FD.sdf', '/opt/xchem-fragalysis-2/maxwin/openbind-hippo/xx01zvns2b/cycle_01/syndirella/elabs/openbind_xx01zvns2b_c1_elab_chemspace_filtered.sdf']

>  <Energy>  (758) 
80.602313

>  <alias>  (758) 
FWMQLMYBMDGDPT-UHFFFAOYSA-N-P178-P178-P288-601526

>  <fragmenstein_runtime>  (758) 
11.59181

>  <scratch_subdir>  (758) 
/opt/xchem-fragalysis-2/maxwin/BulkDock/SCRATCH/601526/FWMQLMYBMDGDPT-UHFFFAOYSA-N-P178-P178-P288-601526

>  <HIPPO Compound ID>  (758) 
142814

>  <rmsd(smina/fragmenstein)>  (758) 
1.286

>  <distance_score>  (758) 
0.818547

>  <orig_smiles>  (758) 
COCCCN1Cc2ccc(NC(=O)c3ccc4c(c3)C3(CCOCC3)C(=O)N4)cc2C1

>  <fragmenstein_mode>  (758) 
expansion

>  <inchikey>  (758) 
FWMQLMYBMDGDPT-UHFFFAOYSA-N

>  <ref_pdb>  (758) 
Z3093a

>  <GNINA pK>  (758) 
nan

>  <gnina_score_min>  (758) 
6.113

>  <tags>  (758) 
xx01zvns2b_c1_elab_bulkdock_input,BulkDock Fragalysis export,openbind_xx01zvns2b_c1_elab_chemspace_filtered_scored_top80percent,fragmenstein_placed,openbind_xx01zvns2b_c1_elab_chemspace_filtered_scored,openbind_xx01zvns2b_c1_elab_chemspace_filtered_scored_top40percent,openbind_xx01zvns2b_c1_elab_chemspace_filtered_scored_top20percent,openbind_xx01zvns2b_c1_elab_chemspace_filtered_scored_top60percent,openbind_xx01zvns2b_c1_elabs_filtered

>  <smiles>  (758) 
COCCCN1Cc2ccc(NC(=O)c3ccc4c(c3)C3(CCOCC3)C(=O)N4)cc2C1

>  <subsites>  (758) 
1 - Z4590/B/203/1

>  <gnina_score>  (758) 
6.175

>  <HIPPO Pose ID>  (758) 
76561

>  <ref_mols>  (758) 
Z4590a,Z3677a

>  <energy_score>  (758) 
-57.005971

>  <inspiration_score>  (758) 
None

>  <smina_score_min>  (758) 
-9.557

>  <fragmenstein_error>  (758) 


>  <name>  (758) 
FWMQLMYBMDGDPT-UHFFFAOYSA-N-P178-P178-P288-601526

$$$$
GHZOWFRCUIOQHF-UHFFFAOYSA-N-P178-P178-P288-601526
     RDKit          3D

 32 36  0  0  0  0  0  0  0  0999 V2000
  -10.3565    1.0593   -6.4864 C   0  0  0  0  0  0  0  0  0  0  0  0
  -10.7024    1.9409   -5.3188 C   0  0  0  0  0  0  0  0  0  0  0  0
  -12.1635    2.2747   -5.2896 C   0  0  0  0  0  0  0  0  0  0  0  0
   -9.8879    3.2214   -5.1789 C   0  0  0  0  0  0  0  0  0  0  0  0
   -8.6114    3.2775   -6.0027 C   0  0  0  0  0  0  0  0  0  0  0  0
   -8.9322    3.8037   -7.3183 N   0  0  0  0  0  0  0  0  0  0  0  0
   -8.2381    5.0648   -7.5843 C   0  0  0  0  0  0  0  0  0  0  0  0
   -8.1458    5.1233   -9.0626 C   0  0  0  0  0  0  0  0  0  0  0  0
   -7.8413    6.2071   -9.8494 C   0  0  0  0  0  0  0  0  0  0  0  0
   -7.7840    6.0035  -11.2204 C   0  0  0  0  0  0  0  0  0  0  0  0
   -8.0160    4.7342  -11.7787 C   0  0  0  0  0  0  0  0  0  0  0  0
   -7.9299    4.5804  -13.1546 N   0  0  0  0  0  0  0  0  0  0  0  0
   -7.4505    5.5617  -14.2449 C   0  0  0  0  0  0  0  0  0  0  0  0
   -7.1249    6.6804  -14.1664 O   0  0  0  0  0  0  0  0  0  0  0  0
   -7.4666    4.9526  -15.5932 C   0  0  0  0  0  0  0  0  0  0  0  0
   -8.5667    4.1935  -16.0389 C   0  0  0  0  0  0  0  0  0  0  0  0
   -8.6355    3.7775  -17.3672 C   0  0  0  0  0  0  0  0  0  0  0  0
   -7.5934    4.1388  -18.1957 C   0  0  0  0  0  0  0  0  0  0  0  0
   -6.5057    4.9027  -17.7737 C   0  0  0  0  0  0  0  0  0  0  0  0
   -6.4228    5.3073  -16.4589 C   0  0  0  0  0  0  0  0  0  0  0  0
   -5.6104    5.2276  -18.9543 C   0  0  0  0  0  0  0  0  0  0  0  0
   -4.1295    4.9244  -18.7019 C   0  0  0  0  0  0  0  0  0  0  0  0
   -3.2428    5.7619  -19.6134 C   0  0  0  0  0  0  0  0  0  0  0  0
   -3.3702    7.1623  -19.3554 O   0  0  0  0  0  0  0  0  0  0  0  0
   -4.6403    7.5649  -18.8523 C   0  0  0  0  0  0  0  0  0  0  0  0
   -5.7753    6.7006  -19.3766 C   0  0  0  0  0  0  0  0  0  0  0  0
   -6.2673    4.3260  -20.0503 C   0  0  0  0  0  0  0  0  0  0  0  0
   -5.8716    4.1180  -21.1872 O   0  0  0  0  0  0  0  0  0  0  0  0
   -7.4497    3.8126  -19.5282 N   0  0  0  0  0  0  0  0  0  0  0  0
   -8.3298    3.6417  -10.9692 C   0  0  0  0  0  0  0  0  0  0  0  0
   -8.3933    3.8637   -9.6048 C   0  0  0  0  0  0  0  0  0  0  0  0
   -8.7301    2.9214   -8.4938 C   0  0  0  0  0  0  0  0  0  0  0  0
  1  2  1  0
  2  3  1  0
  2  4  1  0
  4  5  1  0
  5  6  1  0
  6  7  1  0
  7  8  1  0
  8  9  2  0
  9 10  1  0
 10 11  2  0
 11 12  1  0
 12 13  1  0
 13 14  2  0
 13 15  1  0
 15 16  2  0
 16 17  1  0
 17 18  2  0
 18 19  1  0
 19 20  2  0
 19 21  1  0
 21 22  1  0
 22 23  1  0
 23 24  1  0
 24 25  1  0
 25 26  1  0
 21 27  1  0
 27 28  2  0
 27 29  1  0
 11 30  1  0
 30 31  2  0
 31 32  1  0
 32  6  1  0
 31  8  1  0
 20 15  1  0
 26 21  1  0
 29 18  1  0
M  END
>  <fragmenstein_outcome>  (759) 
acceptable

>  <exports>  (759) 
['/opt/xchem-fragalysis-2/maxwin/BulkDock/OUTPUTS/xx01zvns2b_c1_elab_bulkdock_input_1GFT1FD.sdf', '/opt/xchem-fragalysis-2/maxwin/openbind-hippo/xx01zvns2b/cycle_01/syndirella/elabs/openbind_xx01zvns2b_c1_elab_chemspace_filtered.sdf']

>  <Energy>  (759) 
87.9541

>  <alias>  (759) 
GHZOWFRCUIOQHF-UHFFFAOYSA-N-P178-P178-P288-601526

>  <fragmenstein_runtime>  (759) 
9.169835

>  <scratch_subdir>  (759) 
/opt/xchem-fragalysis-2/maxwin/BulkDock/SCRATCH/601526/GHZOWFRCUIOQHF-UHFFFAOYSA-N-P178-P178-P288-601526

>  <HIPPO Compound ID>  (759) 
142816

>  <rmsd(smina/fragmenstein)>  (759) 
1.824

>  <distance_score>  (759) 
0.999093

>  <orig_smiles>  (759) 
CC(C)CCN1Cc2ccc(NC(=O)c3ccc4c(c3)C3(CCOCC3)C(=O)N4)cc2C1

>  <fragmenstein_mode>  (759) 
expansion

>  <inchikey>  (759) 
GHZOWFRCUIOQHF-UHFFFAOYSA-N

>  <ref_pdb>  (759) 
Z3093a

>  <GNINA pK>  (759) 
nan

>  <gnina_score_min>  (759) 
5.571

>  <tags>  (759) 
xx01zvns2b_c1_elab_bulkdock_input,BulkDock Fragalysis export,openbind_xx01zvns2b_c1_elab_chemspace_filtered_scored_top80percent,fragmenstein_placed,openbind_xx01zvns2b_c1_elab_chemspace_filtered_scored,openbind_xx01zvns2b_c1_elab_chemspace_filtered_scored_top40percent,openbind_xx01zvns2b_c1_elab_chemspace_filtered_scored_top20percent,openbind_xx01zvns2b_c1_elab_chemspace_filtered_scored_top60percent,openbind_xx01zvns2b_c1_elabs_filtered

>  <smiles>  (759) 
CC(C)CCN1Cc2ccc(NC(=O)c3ccc4c(c3)C3(CCOCC3)C(=O)N4)cc2C1

>  <subsites>  (759) 
1 - Z4590/B/203/1

>  <gnina_score>  (759) 
6.219

>  <HIPPO Pose ID>  (759) 
76565

>  <ref_mols>  (759) 
Z4590a,Z3677a

>  <energy_score>  (759) 
-31.076281

>  <inspiration_score>  (759) 
None

>  <smina_score_min>  (759) 
-7.452

>  <fragmenstein_error>  (759) 


>  <name>  (759) 
GHZOWFRCUIOQHF-UHFFFAOYSA-N-P178-P178-P288-601526

$$$$
JQEIDFVBSDOEHZ-UHFFFAOYSA-N-P178-P178-P288-601526
     RDKit          3D

 37 42  0  0  0  0  0  0  0  0999 V2000
   -7.5945    4.5788   -2.9119 C   0  0  0  0  0  0  0  0  0  0  0  0
   -8.4609    3.9201   -3.8718 N   0  0  0  0  0  0  0  0  0  0  0  0
   -9.8164    4.0783   -3.6833 C   0  0  0  0  0  0  0  0  0  0  0  0
  -10.2786    4.5971   -2.6634 O   0  0  0  0  0  0  0  0  0  0  0  0
  -10.7246    3.6715   -4.8148 C   0  0  0  0  0  0  0  0  0  0  0  0
  -10.2419    2.4909   -5.6049 C   0  0  0  0  0  0  0  0  0  0  0  0
   -8.7984    2.6472   -6.0289 C   0  0  1  0  0  0  0  0  0  0  0  0
   -8.6863    3.2081   -7.3618 N   0  0  0  0  0  0  0  0  0  0  0  0
   -8.7150    2.3911   -8.5740 C   0  0  0  0  0  0  0  0  0  0  0  0
   -8.4989    3.4215   -9.6335 C   0  0  0  0  0  0  0  0  0  0  0  0
   -8.2937    3.2835  -10.9950 C   0  0  0  0  0  0  0  0  0  0  0  0
   -8.0747    4.4493  -11.7439 C   0  0  0  0  0  0  0  0  0  0  0  0
   -7.8431    4.3502  -13.1101 N   0  0  0  0  0  0  0  0  0  0  0  0
   -7.4828    5.4367  -14.1485 C   0  0  0  0  0  0  0  0  0  0  0  0
   -7.2486    6.5719  -14.0062 O   0  0  0  0  0  0  0  0  0  0  0  0
   -7.4880    4.8962  -15.5265 C   0  0  0  0  0  0  0  0  0  0  0  0
   -8.5959    4.1562  -15.9869 C   0  0  0  0  0  0  0  0  0  0  0  0
   -8.6773    3.7741  -17.3230 C   0  0  0  0  0  0  0  0  0  0  0  0
   -7.6345    4.1427  -18.1456 C   0  0  0  0  0  0  0  0  0  0  0  0
   -6.5369    4.8881  -17.7118 C   0  0  0  0  0  0  0  0  0  0  0  0
   -6.4476    5.2708  -16.3876 C   0  0  0  0  0  0  0  0  0  0  0  0
   -5.6322    5.2048  -18.8902 C   0  0  0  0  0  0  0  0  0  0  0  0
   -5.7371    6.6940  -19.2456 C   0  0  0  0  0  0  0  0  0  0  0  0
   -4.7661    7.0660  -20.3580 C   0  0  0  0  0  0  0  0  0  0  0  0
   -3.4308    6.7451  -19.9818 O   0  0  0  0  0  0  0  0  0  0  0  0
   -3.2648    5.3403  -19.7835 C   0  0  0  0  0  0  0  0  0  0  0  0
   -4.1608    4.8711  -18.6469 C   0  0  0  0  0  0  0  0  0  0  0  0
   -6.3125    4.3320  -20.0006 C   0  0  0  0  0  0  0  0  0  0  0  0
   -5.9270    4.1211  -21.1407 O   0  0  0  0  0  0  0  0  0  0  0  0
   -7.5007    3.8338  -19.4824 N   0  0  0  0  0  0  0  0  0  0  0  0
   -8.0877    5.7184  -11.1330 C   0  0  0  0  0  0  0  0  0  0  0  0
   -8.3161    5.8524   -9.7694 C   0  0  0  0  0  0  0  0  0  0  0  0
   -8.5129    4.6921   -9.0577 C   0  0  0  0  0  0  0  0  0  0  0  0
   -8.7314    4.5557   -7.6236 C   0  0  0  0  0  0  0  0  0  0  0  0
   -8.9036    5.4770   -6.8482 O   0  0  0  0  0  0  0  0  0  0  0  0
   -7.8898    3.4596   -5.0485 C   0  0  0  0  0  0  0  0  0  0  0  0
   -6.7073    3.7354   -5.2987 O   0  0  0  0  0  0  0  0  0  0  0  0
  1  2  1  0
  2  3  1  0
  3  4  2  0
  3  5  1  0
  5  6  1  0
  6  7  1  0
  7  8  1  6
  8  9  1  0
  9 10  1  0
 10 11  2  0
 11 12  1  0
 12 13  1  0
 13 14  1  0
 14 15  2  0
 14 16  1  0
 16 17  2  0
 17 18  1  0
 18 19  2  0
 19 20  1  0
 20 21  2  0
 20 22  1  0
 22 23  1  0
 23 24  1  0
 24 25  1  0
 25 26  1  0
 26 27  1  0
 22 28  1  0
 28 29  2  0
 28 30  1  0
 12 31  2  0
 31 32  1  0
 32 33  2  0
 33 34  1  0
 34 35  2  0
  7 36  1  0
 36 37  2  0
 36  2  1  0
 34  8  1  0
 33 10  1  0
 21 16  1  0
 27 22  1  0
 30 19  1  0
M  END
>  <fragmenstein_outcome>  (760) 
acceptable

>  <exports>  (760) 
['/opt/xchem-fragalysis-2/maxwin/BulkDock/OUTPUTS/xx01zvns2b_c1_elab_bulkdock_input_1GFT1FD.sdf', '/opt/xchem-fragalysis-2/maxwin/openbind-hippo/xx01zvns2b/cycle_01/syndirella/elabs/openbind_xx01zvns2b_c1_elab_chemspace_filtered.sdf']

>  <Energy>  (760) 
38.302257

>  <alias>  (760) 
JQEIDFVBSDOEHZ-UHFFFAOYSA-N-P178-P178-P288-601526

>  <fragmenstein_runtime>  (760) 
4.830724

>  <scratch_subdir>  (760) 
/opt/xchem-fragalysis-2/maxwin/BulkDock/SCRATCH/601526/JQEIDFVBSDOEHZ-UHFFFAOYSA-N-P178-P178-P288-601526

>  <HIPPO Compound ID>  (760) 
142823

>  <rmsd(smina/fragmenstein)>  (760) 
2.115

>  <distance_score>  (760) 
0.853297

>  <orig_smiles>  (760) 
CN1C(=O)CCC(N2Cc3cc(NC(=O)c4ccc5c(c4)C4(CCOCC4)C(=O)N5)ccc3C2=O)C1=O

>  <fragmenstein_mode>  (760) 
expansion

>  <inchikey>  (760) 
JQEIDFVBSDOEHZ-UHFFFAOYSA-N

>  <ref_pdb>  (760) 
Z3093a

>  <GNINA pK>  (760) 
nan

>  <gnina_score_min>  (760) 
5.57

>  <tags>  (760) 
xx01zvns2b_c1_elab_bulkdock_input,BulkDock Fragalysis export,openbind_xx01zvns2b_c1_elab_chemspace_filtered_scored_top80percent,fragmenstein_placed,openbind_xx01zvns2b_c1_elab_chemspace_filtered_scored,openbind_xx01zvns2b_c1_elab_chemspace_filtered_scored_top40percent,openbind_xx01zvns2b_c1_elab_chemspace_filtered_scored_top20percent,openbind_xx01zvns2b_c1_elab_chemspace_filtered_scored_top60percent,openbind_xx01zvns2b_c1_elabs_filtered

>  <smiles>  (760) 
CN1C(=O)CCC(N2Cc3cc(NC(=O)c4ccc5c(c4)C4(CCOCC4)C(=O)N5)ccc3C2=O)C1=O

>  <subsites>  (760) 
1 - Z4590/B/203/1

>  <gnina_score>  (760) 
6.144

>  <HIPPO Pose ID>  (760) 
76579

>  <ref_mols>  (760) 
Z4590a,Z3677a

>  <energy_score>  (760) 
-46.204831

>  <inspiration_score>  (760) 
None

>  <smina_score_min>  (760) 
-8.24

>  <fragmenstein_error>  (760) 


>  <name>  (760) 
JQEIDFVBSDOEHZ-UHFFFAOYSA-N-P178-P178-P288-601526

$$$$
LHPDRWDWXQABJZ-UHFFFAOYSA-N-P288-P178-P288-601526
     RDKit          3D

 37 42  0  0  0  0  0  0  0  0999 V2000
  -11.8211    2.3251   -4.6459 C   0  0  0  0  0  0  0  0  0  0  0  0
  -10.5309    2.9554   -4.6685 N   0  0  0  0  0  0  0  0  0  0  0  0
   -9.9846    3.6196   -3.5768 C   0  0  0  0  0  0  0  0  0  0  0  0
  -10.6036    4.0707   -2.6143 O   0  0  0  0  0  0  0  0  0  0  0  0
   -8.4945    3.8047   -3.5924 C   0  0  0  0  0  0  0  0  0  0  0  0
   -8.0464    4.2269   -4.9517 C   0  0  0  0  0  0  0  0  0  0  0  0
   -8.5011    3.2163   -6.0056 C   0  0  2  0  0  0  0  0  0  0  0  0
   -8.2266    3.7263   -7.3231 N   0  0  0  0  0  0  0  0  0  0  0  0
   -8.3402    5.1317   -7.5930 C   0  0  0  0  0  0  0  0  0  0  0  0
   -8.3346    5.1755   -9.0559 C   0  0  0  0  0  0  0  0  0  0  0  0
   -8.2840    6.3039   -9.8277 C   0  0  0  0  0  0  0  0  0  0  0  0
   -8.2402    6.1014  -11.1859 C   0  0  0  0  0  0  0  0  0  0  0  0
   -8.2715    4.8014  -11.7334 C   0  0  0  0  0  0  0  0  0  0  0  0
   -8.1285    4.7012  -13.0952 N   0  0  0  0  0  0  0  0  0  0  0  0
   -7.7719    5.7666  -14.1418 C   0  0  0  0  0  0  0  0  0  0  0  0
   -7.4669    6.8836  -14.0098 O   0  0  0  0  0  0  0  0  0  0  0  0
   -7.8201    5.2180  -15.4879 C   0  0  0  0  0  0  0  0  0  0  0  0
   -8.9827    4.5648  -15.9379 C   0  0  0  0  0  0  0  0  0  0  0  0
   -9.0781    4.1785  -17.2608 C   0  0  0  0  0  0  0  0  0  0  0  0
   -7.9834    4.4455  -18.0472 C   0  0  0  0  0  0  0  0  0  0  0  0
   -6.8210    5.0854  -17.6060 C   0  0  0  0  0  0  0  0  0  0  0  0
   -6.7228    5.4861  -16.3040 C   0  0  0  0  0  0  0  0  0  0  0  0
   -5.8249    5.2102  -18.7327 C   0  0  0  0  0  0  0  0  0  0  0  0
   -4.4266    4.6879  -18.3734 C   0  0  0  0  0  0  0  0  0  0  0  0
   -3.4371    5.8159  -18.1227 C   0  0  0  0  0  0  0  0  0  0  0  0
   -3.2705    6.6557  -19.2586 O   0  0  0  0  0  0  0  0  0  0  0  0
   -4.4557    6.8575  -20.0300 C   0  0  0  0  0  0  0  0  0  0  0  0
   -5.7314    6.6658  -19.2194 C   0  0  0  0  0  0  0  0  0  0  0  0
   -6.5529    4.3407  -19.7957 C   0  0  0  0  0  0  0  0  0  0  0  0
   -6.1264    3.9177  -20.8509 O   0  0  0  0  0  0  0  0  0  0  0  0
   -7.8312    4.0672  -19.3509 N   0  0  0  0  0  0  0  0  0  0  0  0
   -8.3850    3.6599  -10.9466 C   0  0  0  0  0  0  0  0  0  0  0  0
   -8.3885    3.8868   -9.5939 C   0  0  0  0  0  0  0  0  0  0  0  0
   -8.4052    2.9491   -8.4710 C   0  0  0  0  0  0  0  0  0  0  0  0
   -8.6009    1.7562   -8.5506 O   0  0  0  0  0  0  0  0  0  0  0  0
   -9.9977    2.9858   -5.9375 C   0  0  0  0  0  0  0  0  0  0  0  0
  -10.7042    2.8404   -6.9344 O   0  0  0  0  0  0  0  0  0  0  0  0
  1  2  1  0
  2  3  1  0
  3  4  2  0
  3  5  1  0
  5  6  1  0
  6  7  1  0
  7  8  1  6
  8  9  1  0
  9 10  1  0
 10 11  2  0
 11 12  1  0
 12 13  2  0
 13 14  1  0
 14 15  1  0
 15 16  2  0
 15 17  1  0
 17 18  2  0
 18 19  1  0
 19 20  2  0
 20 21  1  0
 21 22  2  0
 21 23  1  0
 23 24  1  0
 24 25  1  0
 25 26  1  0
 26 27  1  0
 27 28  1  0
 23 29  1  0
 29 30  2  0
 29 31  1  0
 13 32  1  0
 32 33  2  0
 33 34  1  0
 34 35  2  0
  7 36  1  0
 36 37  2  0
 36  2  1  0
 34  8  1  0
 33 10  1  0
 22 17  1  0
 28 23  1  0
 31 20  1  0
M  END
>  <fragmenstein_outcome>  (761) 
acceptable

>  <exports>  (761) 
['/opt/xchem-fragalysis-2/maxwin/BulkDock/OUTPUTS/xx01zvns2b_c1_elab_bulkdock_input_1GFT1FD.sdf', '/opt/xchem-fragalysis-2/maxwin/openbind-hippo/xx01zvns2b/cycle_01/syndirella/elabs/openbind_xx01zvns2b_c1_elab_chemspace_filtered.sdf']

>  <Energy>  (761) 
54.251009

>  <alias>  (761) 
LHPDRWDWXQABJZ-UHFFFAOYSA-N-P288-P178-P288-601526

>  <fragmenstein_runtime>  (761) 
7.696989

>  <scratch_subdir>  (761) 
/opt/xchem-fragalysis-2/maxwin/BulkDock/SCRATCH/601526/LHPDRWDWXQABJZ-UHFFFAOYSA-N-P288-P178-P288-601526

>  <HIPPO Compound ID>  (761) 
142825

>  <rmsd(smina/fragmenstein)>  (761) 
0.632

>  <distance_score>  (761) 
0.942666

>  <orig_smiles>  (761) 
CN1C(=O)CCC(N2Cc3ccc(NC(=O)c4ccc5c(c4)C4(CCOCC4)C(=O)N5)cc3C2=O)C1=O

>  <fragmenstein_mode>  (761) 
expansion

>  <inchikey>  (761) 
LHPDRWDWXQABJZ-UHFFFAOYSA-N

>  <ref_pdb>  (761) 
Z3093a

>  <GNINA pK>  (761) 
nan

>  <gnina_score_min>  (761) 
6.042

>  <tags>  (761) 
xx01zvns2b_c1_elab_bulkdock_input,BulkDock Fragalysis export,openbind_xx01zvns2b_c1_elab_chemspace_filtered_scored_top80percent,fragmenstein_placed,openbind_xx01zvns2b_c1_elab_chemspace_filtered_scored,openbind_xx01zvns2b_c1_elab_chemspace_filtered_scored_top40percent,openbind_xx01zvns2b_c1_elab_chemspace_filtered_scored_top20percent,openbind_xx01zvns2b_c1_elab_chemspace_filtered_scored_top60percent,openbind_xx01zvns2b_c1_elabs_filtered

>  <smiles>  (761) 
CN1C(=O)CCC(N2Cc3ccc(NC(=O)c4ccc5c(c4)C4(CCOCC4)C(=O)N5)cc3C2=O)C1=O

>  <subsites>  (761) 
1 - Z4590/B/203/1

>  <gnina_score>  (761) 
6.24

>  <HIPPO Pose ID>  (761) 
76584

>  <ref_mols>  (761) 
Z4590a,Z3677a

>  <energy_score>  (761) 
-32.378943

>  <inspiration_score>  (761) 
None

>  <smina_score_min>  (761) 
-6.029

>  <fragmenstein_error>  (761) 


>  <name>  (761) 
LHPDRWDWXQABJZ-UHFFFAOYSA-N-P288-P178-P288-601526

$$$$
RZCCWBLMDPVIBO-UHFFFAOYSA-N-P301-P214-P301-601526
     RDKit          3D

 26 29  0  0  0  0  0  0  0  0999 V2000
  -10.2519    1.2197   -6.2828 C   0  0  0  0  0  0  0  0  0  0  0  0
  -10.2069    2.7263   -6.1997 C   0  0  0  0  0  0  0  0  0  0  0  0
   -9.0342    3.2559   -6.8774 N   0  0  0  0  0  0  0  0  0  0  0  0
   -8.9629    4.7209   -6.8573 C   0  0  0  0  0  0  0  0  0  0  0  0
   -8.4058    5.1027   -8.1887 C   0  0  0  0  0  0  0  0  0  0  0  0
   -8.1019    6.3593   -8.6752 C   0  0  0  0  0  0  0  0  0  0  0  0
   -7.5792    6.4557   -9.9648 C   0  0  0  0  0  0  0  0  0  0  0  0
   -7.2915    5.2989  -10.7033 C   0  0  0  0  0  0  0  0  0  0  0  0
   -6.7746    5.4443  -11.9814 N   0  0  0  0  0  0  0  0  0  0  0  0
   -5.8952    4.4951  -12.8202 C   0  0  0  0  0  0  0  0  0  0  0  0
   -5.4036    3.4768  -12.5406 O   0  0  0  0  0  0  0  0  0  0  0  0
   -5.8055    5.0098  -14.2006 C   0  0  0  0  0  0  0  0  0  0  0  0
   -4.6460    5.4260  -14.8248 C   0  0  0  0  0  0  0  0  0  0  0  0
   -4.6532    5.7778  -16.1781 C   0  0  0  0  0  0  0  0  0  0  0  0
   -5.8068    5.6305  -16.9788 C   0  0  0  0  0  0  0  0  0  0  0  0
   -5.6937    5.8926  -18.4569 C   0  0  0  0  0  0  0  0  0  0  0  0
   -6.9852    5.1518  -16.3478 C   0  0  0  0  0  0  0  0  0  0  0  0
   -8.2701    4.7073  -16.7659 C   0  0  0  0  0  0  0  0  0  0  0  0
   -8.8225    4.4740  -18.0521 C   0  0  0  0  0  0  0  0  0  0  0  0
   -9.4169    4.1905  -19.0034 N   0  0  0  0  0  0  0  0  0  0  0  0
   -9.0160    4.4223  -15.6473 C   0  0  0  0  0  0  0  0  0  0  0  0
   -8.2133    4.5246  -14.5630 N   0  0  0  0  0  0  0  0  0  0  0  0
   -6.9629    4.9262  -14.9680 C   0  0  0  0  0  0  0  0  0  0  0  0
   -7.6236    4.0325  -10.2129 C   0  0  0  0  0  0  0  0  0  0  0  0
   -8.2309    3.9637   -8.9713 C   0  0  0  0  0  0  0  0  0  0  0  0
   -8.8624    2.7997   -8.2794 C   0  0  0  0  0  0  0  0  0  0  0  0
  1  2  1  0
  2  3  1  0
  3  4  1  0
  4  5  1  0
  5  6  2  0
  6  7  1  0
  7  8  2  0
  8  9  1  0
  9 10  1  0
 10 11  2  0
 10 12  1  0
 12 13  2  0
 13 14  1  0
 14 15  2  0
 15 16  1  0
 15 17  1  0
 17 18  1  0
 18 19  1  0
 19 20  3  0
 18 21  2  0
 21 22  1  0
 22 23  1  0
  8 24  1  0
 24 25  2  0
 25 26  1  0
 26  3  1  0
 25  5  1  0
 23 12  1  0
 23 17  2  0
M  END
>  <fragmenstein_outcome>  (762) 
too moved

>  <exports>  (762) 
['/opt/xchem-fragalysis-2/maxwin/openbind-hippo/xx01zvns2b/cycle_01/syndirella/elabs/openbind_xx01zvns2b_c1_elab_chemspace_filtered.sdf']

>  <Energy>  (762) 
93.709939

>  <alias>  (762) 
RZCCWBLMDPVIBO-UHFFFAOYSA-N-P301-P214-P301-601526

>  <fragmenstein_runtime>  (762) 
6.976845

>  <scratch_subdir>  (762) 
/opt/xchem-fragalysis-2/maxwin/BulkDock/SCRATCH/601526/RZCCWBLMDPVIBO-UHFFFAOYSA-N-P301-P214-P301-601526

>  <HIPPO Compound ID>  (762) 
142778

>  <rmsd(smina/fragmenstein)>  (762) 
0.553

>  <distance_score>  (762) 
1.908493

>  <orig_smiles>  (762) 
CCN1Cc2ccc(NC(=O)c3ccc(C)c4c(C#N)c[nH]c34)cc2C1

>  <fragmenstein_mode>  (762) 
expansion

>  <inchikey>  (762) 
RZCCWBLMDPVIBO-UHFFFAOYSA-N

>  <ref_pdb>  (762) 
Z3093a

>  <GNINA pK>  (762) 
nan

>  <gnina_score_min>  (762) 
5.453

>  <tags>  (762) 
xx01zvns2b_c1_elab_bulkdock_input,openbind_xx01zvns2b_c1_elab_chemspace_filtered_scored_top80percent,fragmenstein_placed,openbind_xx01zvns2b_c1_elab_chemspace_filtered_scored,openbind_xx01zvns2b_c1_elab_chemspace_filtered_scored_top40percent,openbind_xx01zvns2b_c1_elab_chemspace_filtered_scored_top20percent,openbind_xx01zvns2b_c1_elab_chemspace_filtered_scored_top60percent,openbind_xx01zvns2b_c1_elabs_filtered

>  <smiles>  (762) 
CCN1Cc2ccc(NC(=O)c3ccc(C)c4c(C#N)c[nH]c34)cc2C1

>  <subsites>  (762) 
1 - Z4590/B/203/1

>  <gnina_score>  (762) 
5.558

>  <HIPPO Pose ID>  (762) 
76592

>  <ref_mols>  (762) 
Z4983a,Z3842a

>  <energy_score>  (762) 
-19.750343

>  <inspiration_score>  (762) 
None

>  <smina_score_min>  (762) 
-7.55

>  <fragmenstein_error>  (762) 


>  <name>  (762) 
RZCCWBLMDPVIBO-UHFFFAOYSA-N-P301-P214-P301-601526

$$$$
RAJDPSICUSKCMO-UHFFFAOYSA-N-P301-P214-P301-601526
     RDKit          3D

 26 29  0  0  0  0  0  0  0  0999 V2000
   -4.4567    7.1044  -17.1954 C   0  0  0  0  0  0  0  0  0  0  0  0
   -5.2661    6.2724  -16.2418 C   0  0  0  0  0  0  0  0  0  0  0  0
   -4.8406    6.1928  -14.9168 C   0  0  0  0  0  0  0  0  0  0  0  0
   -5.5842    5.4929  -13.9779 C   0  0  0  0  0  0  0  0  0  0  0  0
   -6.8069    4.8895  -14.2913 C   0  0  0  0  0  0  0  0  0  0  0  0
   -7.5119    4.1864  -13.1932 C   0  0  0  0  0  0  0  0  0  0  0  0
   -7.8364    3.0753  -13.3201 O   0  0  0  0  0  0  0  0  0  0  0  0
   -7.5975    5.1211  -11.9647 N   0  0  0  0  0  0  0  0  0  0  0  0
   -7.9982    4.8617  -10.6593 C   0  0  0  0  0  0  0  0  0  0  0  0
   -7.8391    5.9243   -9.7418 C   0  0  0  0  0  0  0  0  0  0  0  0
   -8.1320    5.7656   -8.3874 C   0  0  0  0  0  0  0  0  0  0  0  0
   -8.5931    4.5335   -7.9737 C   0  0  0  0  0  0  0  0  0  0  0  0
   -8.7533    3.4889   -8.8890 C   0  0  0  0  0  0  0  0  0  0  0  0
   -8.4666    3.6195  -10.2379 C   0  0  0  0  0  0  0  0  0  0  0  0
   -9.3520    2.3601   -8.1645 C   0  0  0  0  0  0  0  0  0  0  0  0
   -9.7402    1.3284   -8.6668 O   0  0  0  0  0  0  0  0  0  0  0  0
   -9.4941    2.7578   -6.8441 N   0  0  0  0  0  0  0  0  0  0  0  0
  -10.3486    2.0661   -5.9128 C   0  0  0  0  0  0  0  0  0  0  0  0
   -9.0414    4.1062   -6.6184 C   0  0  0  0  0  0  0  0  0  0  0  0
   -7.1962    4.8949  -15.6342 C   0  0  0  0  0  0  0  0  0  0  0  0
   -8.2878    4.3444  -16.2843 N   0  0  0  0  0  0  0  0  0  0  0  0
   -8.1343    4.4676  -17.6447 C   0  0  0  0  0  0  0  0  0  0  0  0
   -6.9447    5.1236  -17.8702 C   0  0  0  0  0  0  0  0  0  0  0  0
   -6.2505    5.3126  -19.1048 C   0  0  0  0  0  0  0  0  0  0  0  0
   -5.5125    5.5130  -19.9789 N   0  0  0  0  0  0  0  0  0  0  0  0
   -6.4087    5.5146  -16.6127 C   0  0  0  0  0  0  0  0  0  0  0  0
  1  2  1  0
  2  3  2  0
  3  4  1  0
  4  5  2  0
  5  6  1  0
  6  7  2  0
  6  8  1  0
  8  9  1  0
  9 10  2  0
 10 11  1  0
 11 12  2  0
 12 13  1  0
 13 14  2  0
 13 15  1  0
 15 16  2  0
 15 17  1  0
 17 18  1  0
 17 19  1  0
  5 20  1  0
 20 21  1  0
 21 22  1  0
 22 23  2  0
 23 24  1  0
 24 25  3  0
 23 26  1  0
 26  2  1  0
 14  9  1  0
 26 20  2  0
 19 12  1  0
M  END
>  <fragmenstein_outcome>  (763) 
too moved

>  <exports>  (763) 
['/opt/xchem-fragalysis-2/maxwin/openbind-hippo/xx01zvns2b/cycle_01/syndirella/elabs/openbind_xx01zvns2b_c1_elab_chemspace_filtered.sdf']

>  <Energy>  (763) 
69.406216

>  <alias>  (763) 
RAJDPSICUSKCMO-UHFFFAOYSA-N-P301-P214-P301-601526

>  <fragmenstein_runtime>  (763) 
6.080284

>  <scratch_subdir>  (763) 
/opt/xchem-fragalysis-2/maxwin/BulkDock/SCRATCH/601526/RAJDPSICUSKCMO-UHFFFAOYSA-N-P301-P214-P301-601526

>  <HIPPO Compound ID>  (763) 
142779

>  <rmsd(smina/fragmenstein)>  (763) 
1.234

>  <distance_score>  (763) 
1.773527

>  <orig_smiles>  (763) 
Cc1ccc(C(=O)Nc2ccc3c(c2)C(=O)N(C)C3)c2[nH]cc(C#N)c12

>  <fragmenstein_mode>  (763) 
expansion

>  <inchikey>  (763) 
RAJDPSICUSKCMO-UHFFFAOYSA-N

>  <ref_pdb>  (763) 
Z3093a

>  <GNINA pK>  (763) 
nan

>  <gnina_score_min>  (763) 
5.265

>  <tags>  (763) 
xx01zvns2b_c1_elab_bulkdock_input,openbind_xx01zvns2b_c1_elab_chemspace_filtered_scored_top80percent,fragmenstein_placed,openbind_xx01zvns2b_c1_elab_chemspace_filtered_scored,openbind_xx01zvns2b_c1_elab_chemspace_filtered_scored_top40percent,openbind_xx01zvns2b_c1_elab_chemspace_filtered_scored_top20percent,openbind_xx01zvns2b_c1_elab_chemspace_filtered_scored_top60percent,openbind_xx01zvns2b_c1_elabs_filtered

>  <smiles>  (763) 
Cc1ccc(C(=O)Nc2ccc3c(c2)C(=O)N(C)C3)c2[nH]cc(C#N)c12

>  <subsites>  (763) 
1 - Z4590/B/203/1

>  <gnina_score>  (763) 
5.624

>  <HIPPO Pose ID>  (763) 
76594

>  <ref_mols>  (763) 
Z4983a,Z3842a

>  <energy_score>  (763) 
-24.081802

>  <inspiration_score>  (763) 
None

>  <smina_score_min>  (763) 
-7.929

>  <fragmenstein_error>  (763) 


>  <name>  (763) 
RAJDPSICUSKCMO-UHFFFAOYSA-N-P301-P214-P301-601526

$$$$
ADGHGTBLPQHOCM-UHFFFAOYSA-N-P214-P214-P301-601526
     RDKit          3D

 26 29  0  0  0  0  0  0  0  0999 V2000
   -4.4594    7.0547  -17.1429 C   0  0  0  0  0  0  0  0  0  0  0  0
   -5.2893    6.1957  -16.2313 C   0  0  0  0  0  0  0  0  0  0  0  0
   -4.8961    6.0771  -14.9010 C   0  0  0  0  0  0  0  0  0  0  0  0
   -5.6640    5.3517  -14.0008 C   0  0  0  0  0  0  0  0  0  0  0  0
   -6.8881    4.7666  -14.3525 C   0  0  0  0  0  0  0  0  0  0  0  0
   -7.6363    4.0480  -13.2862 C   0  0  0  0  0  0  0  0  0  0  0  0
   -8.0384    2.9688  -13.4684 O   0  0  0  0  0  0  0  0  0  0  0  0
   -7.6489    4.9215  -12.0066 N   0  0  0  0  0  0  0  0  0  0  0  0
   -8.0587    4.6205  -10.7097 C   0  0  0  0  0  0  0  0  0  0  0  0
   -8.6306    3.4170  -10.3099 C   0  0  0  0  0  0  0  0  0  0  0  0
   -8.8693    3.2678   -8.9478 C   0  0  0  0  0  0  0  0  0  0  0  0
   -8.5358    4.2447   -7.9980 C   0  0  0  0  0  0  0  0  0  0  0  0
   -7.9875    5.4459   -8.3908 C   0  0  0  0  0  0  0  0  0  0  0  0
   -7.7620    5.6199   -9.7507 C   0  0  0  0  0  0  0  0  0  0  0  0
   -7.1967    6.7699  -10.1594 F   0  0  0  0  0  0  0  0  0  0  0  0
   -8.8682    3.7687   -6.6251 C   0  0  0  0  0  0  0  0  0  0  0  0
   -9.5048    2.5122   -6.8759 N   0  0  0  0  0  0  0  0  0  0  0  0
   -9.5102    2.1671   -8.2116 C   0  0  0  0  0  0  0  0  0  0  0  0
  -10.0106    1.1685   -8.6778 O   0  0  0  0  0  0  0  0  0  0  0  0
   -7.2334    4.7996  -15.7069 C   0  0  0  0  0  0  0  0  0  0  0  0
   -8.3030    4.2626  -16.4030 N   0  0  0  0  0  0  0  0  0  0  0  0
   -8.1077    4.4186  -17.7545 C   0  0  0  0  0  0  0  0  0  0  0  0
   -6.9080    5.0713  -17.9290 C   0  0  0  0  0  0  0  0  0  0  0  0
   -6.1688    5.2711  -19.1365 C   0  0  0  0  0  0  0  0  0  0  0  0
   -5.4191    5.4700  -20.0017 N   0  0  0  0  0  0  0  0  0  0  0  0
   -6.4173    5.4419  -16.6484 C   0  0  0  0  0  0  0  0  0  0  0  0
  1  2  1  0
  2  3  2  0
  3  4  1  0
  4  5  2  0
  5  6  1  0
  6  7  2  0
  6  8  1  0
  8  9  1  0
  9 10  2  0
 10 11  1  0
 11 12  2  0
 12 13  1  0
 13 14  2  0
 14 15  1  0
 12 16  1  0
 16 17  1  0
 17 18  1  0
 18 19  2  0
  5 20  1  0
 20 21  1  0
 21 22  1  0
 22 23  2  0
 23 24  1  0
 24 25  3  0
 23 26  1  0
 26  2  1  0
 14  9  1  0
 26 20  2  0
 18 11  1  0
M  END
>  <fragmenstein_outcome>  (764) 
too moved

>  <exports>  (764) 
['/opt/xchem-fragalysis-2/maxwin/openbind-hippo/xx01zvns2b/cycle_01/syndirella/elabs/openbind_xx01zvns2b_c1_elab_chemspace_filtered.sdf']

>  <Energy>  (764) 
69.865784

>  <alias>  (764) 
ADGHGTBLPQHOCM-UHFFFAOYSA-N-P214-P214-P301-601526

>  <fragmenstein_runtime>  (764) 
6.395613

>  <scratch_subdir>  (764) 
/opt/xchem-fragalysis-2/maxwin/BulkDock/SCRATCH/601526/ADGHGTBLPQHOCM-UHFFFAOYSA-N-P214-P214-P301-601526

>  <HIPPO Compound ID>  (764) 
142781

>  <rmsd(smina/fragmenstein)>  (764) 
1.492

>  <distance_score>  (764) 
1.741742

>  <orig_smiles>  (764) 
Cc1ccc(C(=O)Nc2cc3c(cc2F)CNC3=O)c2[nH]cc(C#N)c12

>  <fragmenstein_mode>  (764) 
expansion

>  <inchikey>  (764) 
ADGHGTBLPQHOCM-UHFFFAOYSA-N

>  <ref_pdb>  (764) 
Z3093a

>  <GNINA pK>  (764) 
nan

>  <gnina_score_min>  (764) 
5.191

>  <tags>  (764) 
xx01zvns2b_c1_elab_bulkdock_input,openbind_xx01zvns2b_c1_elab_chemspace_filtered_scored_top80percent,fragmenstein_placed,openbind_xx01zvns2b_c1_elab_chemspace_filtered_scored,openbind_xx01zvns2b_c1_elab_chemspace_filtered_scored_top40percent,openbind_xx01zvns2b_c1_elab_chemspace_filtered_scored_top20percent,openbind_xx01zvns2b_c1_elab_chemspace_filtered_scored_top60percent,openbind_xx01zvns2b_c1_elabs_filtered

>  <smiles>  (764) 
Cc1ccc(C(=O)Nc2cc3c(cc2F)CNC3=O)c2[nH]cc(C#N)c12

>  <subsites>  (764) 
1 - Z4590/B/203/1

>  <gnina_score>  (764) 
5.842

>  <HIPPO Pose ID>  (764) 
76597

>  <ref_mols>  (764) 
Z4983a,Z3842a

>  <energy_score>  (764) 
-24.575351

>  <inspiration_score>  (764) 
None

>  <smina_score_min>  (764) 
-8.328

>  <fragmenstein_error>  (764) 


>  <name>  (764) 
ADGHGTBLPQHOCM-UHFFFAOYSA-N-P214-P214-P301-601526

$$$$
RWQRSTJNVOGQIH-UHFFFAOYSA-N-P301-P214-P301-601526
     RDKit          3D

 27 30  0  0  0  0  0  0  0  0999 V2000
  -11.5973    1.9550   -5.0009 C   0  0  0  0  0  0  0  0  0  0  0  0
  -10.4715    2.8431   -5.4603 C   0  0  0  0  0  0  0  0  0  0  0  0
   -9.9921    2.3366   -6.8121 C   0  0  0  0  0  0  0  0  0  0  0  0
   -8.8089    3.0164   -7.2869 N   0  0  0  0  0  0  0  0  0  0  0  0
   -8.8110    4.4790   -7.2045 C   0  0  0  0  0  0  0  0  0  0  0  0
   -8.2205    4.9492   -8.4863 C   0  0  0  0  0  0  0  0  0  0  0  0
   -7.9910    6.2424   -8.9158 C   0  0  0  0  0  0  0  0  0  0  0  0
   -7.4337    6.4193  -10.1804 C   0  0  0  0  0  0  0  0  0  0  0  0
   -7.0369    5.3075  -10.9348 C   0  0  0  0  0  0  0  0  0  0  0  0
   -6.5684    5.4900  -12.2205 N   0  0  0  0  0  0  0  0  0  0  0  0
   -5.6135    4.6279  -13.0700 C   0  0  0  0  0  0  0  0  0  0  0  0
   -5.0121    3.6703  -12.7923 O   0  0  0  0  0  0  0  0  0  0  0  0
   -5.6145    5.1374  -14.4496 C   0  0  0  0  0  0  0  0  0  0  0  0
   -4.5031    5.5566  -15.1494 C   0  0  0  0  0  0  0  0  0  0  0  0
   -4.6042    5.8758  -16.5039 C   0  0  0  0  0  0  0  0  0  0  0  0
   -5.8046    5.6878  -17.2241 C   0  0  0  0  0  0  0  0  0  0  0  0
   -5.7889    5.9192  -18.7096 C   0  0  0  0  0  0  0  0  0  0  0  0
   -6.9346    5.2011  -16.5144 C   0  0  0  0  0  0  0  0  0  0  0  0
   -8.2386    4.7319  -16.8389 C   0  0  0  0  0  0  0  0  0  0  0  0
   -8.8696    4.4879  -18.0859 C   0  0  0  0  0  0  0  0  0  0  0  0
   -9.5187    4.2091  -19.0021 N   0  0  0  0  0  0  0  0  0  0  0  0
   -8.9091    4.4550  -15.6700 C   0  0  0  0  0  0  0  0  0  0  0  0
   -8.0327    4.5770  -14.6466 N   0  0  0  0  0  0  0  0  0  0  0  0
   -6.8200    5.0059  -15.1374 C   0  0  0  0  0  0  0  0  0  0  0  0
   -7.2794    4.0050  -10.4939 C   0  0  0  0  0  0  0  0  0  0  0  0
   -7.9268    3.8518   -9.2891 C   0  0  0  0  0  0  0  0  0  0  0  0
   -8.4973    2.6172   -8.6800 C   0  0  0  0  0  0  0  0  0  0  0  0
  1  2  1  0
  2  3  1  0
  3  4  1  0
  4  5  1  0
  5  6  1  0
  6  7  2  0
  7  8  1  0
  8  9  2  0
  9 10  1  0
 10 11  1  0
 11 12  2  0
 11 13  1  0
 13 14  2  0
 14 15  1  0
 15 16  2  0
 16 17  1  0
 16 18  1  0
 18 19  1  0
 19 20  1  0
 20 21  3  0
 19 22  2  0
 22 23  1  0
 23 24  1  0
  9 25  1  0
 25 26  2  0
 26 27  1  0
 27  4  1  0
 26  6  1  0
 24 13  1  0
 24 18  2  0
M  END
>  <fragmenstein_outcome>  (765) 
too moved

>  <exports>  (765) 
['/opt/xchem-fragalysis-2/maxwin/openbind-hippo/xx01zvns2b/cycle_01/syndirella/elabs/openbind_xx01zvns2b_c1_elab_chemspace_filtered.sdf']

>  <Energy>  (765) 
96.743995

>  <alias>  (765) 
RWQRSTJNVOGQIH-UHFFFAOYSA-N-P301-P214-P301-601526

>  <fragmenstein_runtime>  (765) 
7.138625

>  <scratch_subdir>  (765) 
/opt/xchem-fragalysis-2/maxwin/BulkDock/SCRATCH/601526/RWQRSTJNVOGQIH-UHFFFAOYSA-N-P301-P214-P301-601526

>  <HIPPO Compound ID>  (765) 
142786

>  <rmsd(smina/fragmenstein)>  (765) 
0.405

>  <distance_score>  (765) 
1.950393

>  <orig_smiles>  (765) 
CCCN1Cc2ccc(NC(=O)c3ccc(C)c4c(C#N)c[nH]c34)cc2C1

>  <fragmenstein_mode>  (765) 
expansion

>  <inchikey>  (765) 
RWQRSTJNVOGQIH-UHFFFAOYSA-N

>  <ref_pdb>  (765) 
Z3093a

>  <GNINA pK>  (765) 
nan

>  <gnina_score_min>  (765) 
5.603

>  <tags>  (765) 
xx01zvns2b_c1_elab_bulkdock_input,openbind_xx01zvns2b_c1_elab_chemspace_filtered_scored_top80percent,fragmenstein_placed,openbind_xx01zvns2b_c1_elab_chemspace_filtered_scored,openbind_xx01zvns2b_c1_elab_chemspace_filtered_scored_top40percent,openbind_xx01zvns2b_c1_elab_chemspace_filtered_scored_top20percent,openbind_xx01zvns2b_c1_elab_chemspace_filtered_scored_top60percent,openbind_xx01zvns2b_c1_elabs_filtered

>  <smiles>  (765) 
CCCN1Cc2ccc(NC(=O)c3ccc(C)c4c(C#N)c[nH]c34)cc2C1

>  <subsites>  (765) 
1 - Z4590/B/203/1

>  <gnina_score>  (765) 
5.704

>  <HIPPO Pose ID>  (765) 
76608

>  <ref_mols>  (765) 
Z4983a,Z3842a

>  <energy_score>  (765) 
-28.653767

>  <inspiration_score>  (765) 
None

>  <smina_score_min>  (765) 
-7.247

>  <fragmenstein_error>  (765) 


>  <name>  (765) 
RWQRSTJNVOGQIH-UHFFFAOYSA-N-P301-P214-P301-601526

$$$$
NUAAYKYDGCZRCQ-UHFFFAOYSA-N-P301-P214-P301-601526
     RDKit          3D

 27 30  0  0  0  0  0  0  0  0999 V2000
  -10.3412    2.8582   -4.9027 C   0  0  0  0  0  0  0  0  0  0  0  0
  -10.1492    2.3163   -6.2996 C   0  0  0  0  0  0  0  0  0  0  0  0
   -9.2229    3.0833   -7.1026 N   0  0  0  0  0  0  0  0  0  0  0  0
   -8.9374    4.4841   -6.8870 C   0  0  0  0  0  0  0  0  0  0  0  0
   -8.3352    4.9034   -8.1820 C   0  0  0  0  0  0  0  0  0  0  0  0
   -7.9745    6.1645   -8.6141 C   0  0  0  0  0  0  0  0  0  0  0  0
   -7.4585    6.2905   -9.9060 C   0  0  0  0  0  0  0  0  0  0  0  0
   -7.2302    5.1546  -10.7015 C   0  0  0  0  0  0  0  0  0  0  0  0
   -6.7289    5.3355  -11.9807 N   0  0  0  0  0  0  0  0  0  0  0  0
   -5.8571    4.4117  -12.8544 C   0  0  0  0  0  0  0  0  0  0  0  0
   -5.3596    3.3881  -12.6078 O   0  0  0  0  0  0  0  0  0  0  0  0
   -5.7843    4.9619  -14.2219 C   0  0  0  0  0  0  0  0  0  0  0  0
   -4.6291    5.3827  -14.8514 C   0  0  0  0  0  0  0  0  0  0  0  0
   -4.6485    5.7576  -16.1982 C   0  0  0  0  0  0  0  0  0  0  0  0
   -5.8106    5.6270  -16.9892 C   0  0  0  0  0  0  0  0  0  0  0  0
   -5.7094    5.9065  -18.4649 C   0  0  0  0  0  0  0  0  0  0  0  0
   -6.9853    5.1451  -16.3536 C   0  0  0  0  0  0  0  0  0  0  0  0
   -8.2744    4.7079  -16.7666 C   0  0  0  0  0  0  0  0  0  0  0  0
   -8.8356    4.4846  -18.0509 C   0  0  0  0  0  0  0  0  0  0  0  0
   -9.4366    4.2096  -19.0007 N   0  0  0  0  0  0  0  0  0  0  0  0
   -9.0132    4.4157  -15.6455 C   0  0  0  0  0  0  0  0  0  0  0  0
   -8.1996    4.4952  -14.5672 N   0  0  0  0  0  0  0  0  0  0  0  0
   -6.9512    4.8991  -14.9773 C   0  0  0  0  0  0  0  0  0  0  0  0
   -7.6103    3.8822  -10.2685 C   0  0  0  0  0  0  0  0  0  0  0  0
   -8.2048    3.8019   -9.0253 C   0  0  0  0  0  0  0  0  0  0  0  0
   -8.8999    2.6791   -8.3905 C   0  0  0  0  0  0  0  0  0  0  0  0
   -9.2381    1.6643   -8.9604 O   0  0  0  0  0  0  0  0  0  0  0  0
  1  2  1  0
  2  3  1  0
  3  4  1  0
  4  5  1  0
  5  6  2  0
  6  7  1  0
  7  8  2  0
  8  9  1  0
  9 10  1  0
 10 11  2  0
 10 12  1  0
 12 13  2  0
 13 14  1  0
 14 15  2  0
 15 16  1  0
 15 17  1  0
 17 18  1  0
 18 19  1  0
 19 20  3  0
 18 21  2  0
 21 22  1  0
 22 23  1  0
  8 24  1  0
 24 25  2  0
 25 26  1  0
 26 27  2  0
 26  3  1  0
 25  5  1  0
 23 12  1  0
 23 17  2  0
M  END
>  <fragmenstein_outcome>  (766) 
too moved

>  <exports>  (766) 
['/opt/xchem-fragalysis-2/maxwin/openbind-hippo/xx01zvns2b/cycle_01/syndirella/elabs/openbind_xx01zvns2b_c1_elab_chemspace_filtered.sdf']

>  <Energy>  (766) 
76.285264

>  <alias>  (766) 
NUAAYKYDGCZRCQ-UHFFFAOYSA-N-P301-P214-P301-601526

>  <fragmenstein_runtime>  (766) 
13.573133

>  <scratch_subdir>  (766) 
/opt/xchem-fragalysis-2/maxwin/BulkDock/SCRATCH/601526/NUAAYKYDGCZRCQ-UHFFFAOYSA-N-P301-P214-P301-601526

>  <HIPPO Compound ID>  (766) 
142787

>  <rmsd(smina/fragmenstein)>  (766) 
0.478

>  <distance_score>  (766) 
1.880563

>  <orig_smiles>  (766) 
CCN1Cc2ccc(NC(=O)c3ccc(C)c4c(C#N)c[nH]c34)cc2C1=O

>  <fragmenstein_mode>  (766) 
expansion

>  <inchikey>  (766) 
NUAAYKYDGCZRCQ-UHFFFAOYSA-N

>  <ref_pdb>  (766) 
Z3093a

>  <GNINA pK>  (766) 
nan

>  <gnina_score_min>  (766) 
5.394

>  <tags>  (766) 
xx01zvns2b_c1_elab_bulkdock_input,openbind_xx01zvns2b_c1_elab_chemspace_filtered_scored_top80percent,fragmenstein_placed,openbind_xx01zvns2b_c1_elab_chemspace_filtered_scored,openbind_xx01zvns2b_c1_elab_chemspace_filtered_scored_top40percent,openbind_xx01zvns2b_c1_elab_chemspace_filtered_scored_top20percent,openbind_xx01zvns2b_c1_elab_chemspace_filtered_scored_top60percent,openbind_xx01zvns2b_c1_elabs_filtered

>  <smiles>  (766) 
CCN1Cc2ccc(NC(=O)c3ccc(C)c4c(C#N)c[nH]c34)cc2C1=O

>  <subsites>  (766) 
1 - Z4590/B/203/1

>  <gnina_score>  (766) 
5.503

>  <HIPPO Pose ID>  (766) 
76610

>  <ref_mols>  (766) 
Z4983a,Z3842a

>  <energy_score>  (766) 
-10.536486

>  <inspiration_score>  (766) 
None

>  <smina_score_min>  (766) 
-8.118

>  <fragmenstein_error>  (766) 


>  <name>  (766) 
NUAAYKYDGCZRCQ-UHFFFAOYSA-N-P301-P214-P301-601526

$$$$
PISLUNXJGWEFNY-UHFFFAOYSA-N-P301-P214-P301-601526
     RDKit          3D

 27 30  0  0  0  0  0  0  0  0999 V2000
   -4.4256    7.1267  -17.3433 C   0  0  0  0  0  0  0  0  0  0  0  0
   -5.2512    6.3270  -16.3770 C   0  0  0  0  0  0  0  0  0  0  0  0
   -4.8464    6.2957  -15.0444 C   0  0  0  0  0  0  0  0  0  0  0  0
   -5.6090    5.6345  -14.0960 C   0  0  0  0  0  0  0  0  0  0  0  0
   -6.8285    5.0257  -14.4127 C   0  0  0  0  0  0  0  0  0  0  0  0
   -7.5463    4.3758  -13.2996 C   0  0  0  0  0  0  0  0  0  0  0  0
   -7.8507    3.2535  -13.3658 O   0  0  0  0  0  0  0  0  0  0  0  0
   -7.6762    5.3818  -12.1334 N   0  0  0  0  0  0  0  0  0  0  0  0
   -8.1035    5.1964  -10.8281 C   0  0  0  0  0  0  0  0  0  0  0  0
   -7.9833    6.2998   -9.9623 C   0  0  0  0  0  0  0  0  0  0  0  0
   -8.2245    6.1705   -8.5963 C   0  0  0  0  0  0  0  0  0  0  0  0
   -8.5985    4.9293   -8.1200 C   0  0  0  0  0  0  0  0  0  0  0  0
   -8.7580    3.8459   -8.9945 C   0  0  0  0  0  0  0  0  0  0  0  0
   -8.5093    3.9551  -10.3517 C   0  0  0  0  0  0  0  0  0  0  0  0
   -9.1886    2.6429   -8.2249 C   0  0  0  0  0  0  0  0  0  0  0  0
   -9.5743    3.1923   -6.9055 N   0  0  0  0  0  0  0  0  0  0  0  0
   -9.4858    2.1983   -5.8645 C   0  0  0  0  0  0  0  0  0  0  0  0
   -8.8505    4.4699   -6.7026 C   0  0  0  0  0  0  0  0  0  0  0  0
   -9.7371    5.4271   -5.8931 C   0  0  0  0  0  0  0  0  0  0  0  0
   -7.4937    4.4040   -5.9793 C   0  0  0  0  0  0  0  0  0  0  0  0
   -7.1959    4.9753  -15.7569 C   0  0  0  0  0  0  0  0  0  0  0  0
   -8.2777    4.4023  -16.4022 N   0  0  0  0  0  0  0  0  0  0  0  0
   -8.1029    4.4794  -17.7626 C   0  0  0  0  0  0  0  0  0  0  0  0
   -6.9089    5.1266  -17.9904 C   0  0  0  0  0  0  0  0  0  0  0  0
   -6.1943    5.2748  -19.2169 C   0  0  0  0  0  0  0  0  0  0  0  0
   -5.4356    5.4415  -20.0799 N   0  0  0  0  0  0  0  0  0  0  0  0
   -6.3898    5.5582  -16.7409 C   0  0  0  0  0  0  0  0  0  0  0  0
  1  2  1  0
  2  3  2  0
  3  4  1  0
  4  5  2  0
  5  6  1  0
  6  7  2  0
  6  8  1  0
  8  9  1  0
  9 10  2  0
 10 11  1  0
 11 12  2  0
 12 13  1  0
 13 14  2  0
 13 15  1  0
 15 16  1  0
 16 17  1  0
 16 18  1  0
 18 19  1  0
 18 20  1  0
  5 21  1  0
 21 22  1  0
 22 23  1  0
 23 24  2  0
 24 25  1  0
 25 26  3  0
 24 27  1  0
 27  2  1  0
 14  9  1  0
 27 21  2  0
 18 12  1  0
M  END
>  <fragmenstein_outcome>  (767) 
too moved

>  <exports>  (767) 
['/opt/xchem-fragalysis-2/maxwin/openbind-hippo/xx01zvns2b/cycle_01/syndirella/elabs/openbind_xx01zvns2b_c1_elab_chemspace_filtered.sdf']

>  <Energy>  (767) 
98.379316

>  <alias>  (767) 
PISLUNXJGWEFNY-UHFFFAOYSA-N-P301-P214-P301-601526

>  <fragmenstein_runtime>  (767) 
6.915658

>  <scratch_subdir>  (767) 
/opt/xchem-fragalysis-2/maxwin/BulkDock/SCRATCH/601526/PISLUNXJGWEFNY-UHFFFAOYSA-N-P301-P214-P301-601526

>  <HIPPO Compound ID>  (767) 
142788

>  <rmsd(smina/fragmenstein)>  (767) 
0.952

>  <distance_score>  (767) 
1.795127

>  <orig_smiles>  (767) 
Cc1ccc(C(=O)Nc2ccc3c(c2)CN(C)C3(C)C)c2[nH]cc(C#N)c12

>  <fragmenstein_mode>  (767) 
expansion

>  <inchikey>  (767) 
PISLUNXJGWEFNY-UHFFFAOYSA-N

>  <ref_pdb>  (767) 
Z3093a

>  <GNINA pK>  (767) 
nan

>  <gnina_score_min>  (767) 
5.354

>  <tags>  (767) 
xx01zvns2b_c1_elab_bulkdock_input,openbind_xx01zvns2b_c1_elab_chemspace_filtered_scored_top80percent,fragmenstein_placed,openbind_xx01zvns2b_c1_elab_chemspace_filtered_scored,openbind_xx01zvns2b_c1_elab_chemspace_filtered_scored_top40percent,openbind_xx01zvns2b_c1_elab_chemspace_filtered_scored_top20percent,openbind_xx01zvns2b_c1_elab_chemspace_filtered_scored_top60percent,openbind_xx01zvns2b_c1_elabs_filtered

>  <smiles>  (767) 
Cc1ccc(C(=O)Nc2ccc3c(c2)CN(C)C3(C)C)c2[nH]cc(C#N)c12

>  <subsites>  (767) 
1 - Z4590/B/203/1

>  <gnina_score>  (767) 
5.746

>  <HIPPO Pose ID>  (767) 
76612

>  <ref_mols>  (767) 
Z4983a,Z3842a

>  <energy_score>  (767) 
-48.61991

>  <inspiration_score>  (767) 
None

>  <smina_score_min>  (767) 
-7.332

>  <fragmenstein_error>  (767) 


>  <name>  (767) 
PISLUNXJGWEFNY-UHFFFAOYSA-N-P301-P214-P301-601526

$$$$
YRIPQWNIHSFYGM-UHFFFAOYSA-N-P301-P214-P301-601526
     RDKit          3D

 27 30  0  0  0  0  0  0  0  0999 V2000
  -10.9089    2.2117   -5.4890 C   0  0  0  0  0  0  0  0  0  0  0  0
   -9.7845    1.7486   -6.3932 C   0  0  0  0  0  0  0  0  0  0  0  0
   -9.4003    2.7106   -7.4015 N   0  0  0  0  0  0  0  0  0  0  0  0
   -8.8239    2.2429   -8.6554 C   0  0  0  0  0  0  0  0  0  0  0  0
   -8.2300    3.4865   -9.2205 C   0  0  0  0  0  0  0  0  0  0  0  0
   -7.5523    3.6855  -10.4064 C   0  0  0  0  0  0  0  0  0  0  0  0
   -7.2444    5.0037  -10.7712 C   0  0  0  0  0  0  0  0  0  0  0  0
   -6.7370    5.2486  -12.0357 N   0  0  0  0  0  0  0  0  0  0  0  0
   -5.8150    4.3926  -12.9282 C   0  0  0  0  0  0  0  0  0  0  0  0
   -5.2759    3.3834  -12.7087 O   0  0  0  0  0  0  0  0  0  0  0  0
   -5.7495    4.9894  -14.2757 C   0  0  0  0  0  0  0  0  0  0  0  0
   -4.5986    5.4022  -14.9164 C   0  0  0  0  0  0  0  0  0  0  0  0
   -4.6319    5.7804  -16.2618 C   0  0  0  0  0  0  0  0  0  0  0  0
   -5.8020    5.6511  -17.0419 C   0  0  0  0  0  0  0  0  0  0  0  0
   -5.7131    5.9273  -18.5186 C   0  0  0  0  0  0  0  0  0  0  0  0
   -6.9716    5.1708  -16.3965 C   0  0  0  0  0  0  0  0  0  0  0  0
   -8.2624    4.7252  -16.7968 C   0  0  0  0  0  0  0  0  0  0  0  0
   -8.8313    4.4900  -18.0752 C   0  0  0  0  0  0  0  0  0  0  0  0
   -9.4380    4.2023  -19.0175 N   0  0  0  0  0  0  0  0  0  0  0  0
   -8.9933    4.4371  -15.6690 C   0  0  0  0  0  0  0  0  0  0  0  0
   -8.1724    4.5319  -14.5983 N   0  0  0  0  0  0  0  0  0  0  0  0
   -6.9258    4.9319  -15.0202 C   0  0  0  0  0  0  0  0  0  0  0  0
   -7.5901    6.0897   -9.9509 C   0  0  0  0  0  0  0  0  0  0  0  0
   -8.1734    5.8659   -8.7046 C   0  0  0  0  0  0  0  0  0  0  0  0
   -8.4797    4.5594   -8.3733 C   0  0  0  0  0  0  0  0  0  0  0  0
   -9.1242    4.0459   -7.1635 C   0  0  0  0  0  0  0  0  0  0  0  0
   -9.3423    4.7351   -6.1836 O   0  0  0  0  0  0  0  0  0  0  0  0
  1  2  1  0
  2  3  1  0
  3  4  1  0
  4  5  1  0
  5  6  2  0
  6  7  1  0
  7  8  1  0
  8  9  1  0
  9 10  2  0
  9 11  1  0
 11 12  2  0
 12 13  1  0
 13 14  2  0
 14 15  1  0
 14 16  1  0
 16 17  1  0
 17 18  1  0
 18 19  3  0
 17 20  2  0
 20 21  1  0
 21 22  1  0
  7 23  2  0
 23 24  1  0
 24 25  2  0
 25 26  1  0
 26 27  2  0
 26  3  1  0
 25  5  1  0
 22 11  1  0
 22 16  2  0
M  END
>  <fragmenstein_outcome>  (768) 
too moved

>  <exports>  (768) 
['/opt/xchem-fragalysis-2/maxwin/openbind-hippo/xx01zvns2b/cycle_01/syndirella/elabs/openbind_xx01zvns2b_c1_elab_chemspace_filtered.sdf']

>  <Energy>  (768) 
78.720577

>  <alias>  (768) 
YRIPQWNIHSFYGM-UHFFFAOYSA-N-P301-P214-P301-601526

>  <fragmenstein_runtime>  (768) 
5.671515

>  <scratch_subdir>  (768) 
/opt/xchem-fragalysis-2/maxwin/BulkDock/SCRATCH/601526/YRIPQWNIHSFYGM-UHFFFAOYSA-N-P301-P214-P301-601526

>  <HIPPO Compound ID>  (768) 
142790

>  <rmsd(smina/fragmenstein)>  (768) 
0.488

>  <distance_score>  (768) 
1.894937

>  <orig_smiles>  (768) 
CCN1Cc2cc(NC(=O)c3ccc(C)c4c(C#N)c[nH]c34)ccc2C1=O

>  <fragmenstein_mode>  (768) 
expansion

>  <inchikey>  (768) 
YRIPQWNIHSFYGM-UHFFFAOYSA-N

>  <ref_pdb>  (768) 
Z3093a

>  <GNINA pK>  (768) 
nan

>  <gnina_score_min>  (768) 
5.607

>  <tags>  (768) 
xx01zvns2b_c1_elab_bulkdock_input,openbind_xx01zvns2b_c1_elab_chemspace_filtered_scored_top80percent,fragmenstein_placed,openbind_xx01zvns2b_c1_elab_chemspace_filtered_scored,openbind_xx01zvns2b_c1_elab_chemspace_filtered_scored_top40percent,openbind_xx01zvns2b_c1_elab_chemspace_filtered_scored_top20percent,openbind_xx01zvns2b_c1_elab_chemspace_filtered_scored_top60percent,openbind_xx01zvns2b_c1_elabs_filtered

>  <smiles>  (768) 
CCN1Cc2cc(NC(=O)c3ccc(C)c4c(C#N)c[nH]c34)ccc2C1=O

>  <subsites>  (768) 
1 - Z4590/B/203/1

>  <gnina_score>  (768) 
5.717

>  <HIPPO Pose ID>  (768) 
76616

>  <ref_mols>  (768) 
Z4983a,Z3842a

>  <energy_score>  (768) 
-15.87938

>  <inspiration_score>  (768) 
None

>  <smina_score_min>  (768) 
-8.268

>  <fragmenstein_error>  (768) 


>  <name>  (768) 
YRIPQWNIHSFYGM-UHFFFAOYSA-N-P301-P214-P301-601526

$$$$
MYSYHPXYYCVQOW-UHFFFAOYSA-N-P214-P214-P301-601526
     RDKit          3D

 28 31  0  0  0  0  0  0  0  0999 V2000
   -4.2736    6.9568  -17.2564 C   0  0  0  0  0  0  0  0  0  0  0  0
   -5.0856    6.0121  -16.4167 C   0  0  0  0  0  0  0  0  0  0  0  0
   -4.6295    5.7124  -15.1364 C   0  0  0  0  0  0  0  0  0  0  0  0
   -5.3998    4.9332  -14.2910 C   0  0  0  0  0  0  0  0  0  0  0  0
   -6.6783    4.4821  -14.6507 C   0  0  0  0  0  0  0  0  0  0  0  0
   -7.4610    3.8829  -13.5556 C   0  0  0  0  0  0  0  0  0  0  0  0
   -7.8503    2.7864  -13.5710 O   0  0  0  0  0  0  0  0  0  0  0  0
   -7.5262    4.9526  -12.4441 N   0  0  0  0  0  0  0  0  0  0  0  0
   -7.9808    4.8673  -11.1406 C   0  0  0  0  0  0  0  0  0  0  0  0
   -7.7358    6.0388  -10.3835 C   0  0  0  0  0  0  0  0  0  0  0  0
   -7.9320    6.0665   -9.0151 C   0  0  0  0  0  0  0  0  0  0  0  0
   -8.3985    4.9113   -8.4365 C   0  0  0  0  0  0  0  0  0  0  0  0
   -8.7047    3.7730   -9.1888 C   0  0  0  0  0  0  0  0  0  0  0  0
   -8.4932    3.7135  -10.5541 C   0  0  0  0  0  0  0  0  0  0  0  0
   -9.2758    2.7831   -8.2587 C   0  0  0  0  0  0  0  0  0  0  0  0
   -9.6599    1.6747   -8.5666 O   0  0  0  0  0  0  0  0  0  0  0  0
   -9.3183    3.3975   -7.0010 N   0  0  0  0  0  0  0  0  0  0  0  0
   -9.5599    2.6734   -5.7653 C   0  0  0  0  0  0  0  0  0  0  0  0
   -9.4326    3.5721   -4.5241 C   0  0  0  0  0  0  0  0  0  0  0  0
  -10.9287    2.0097   -5.7465 C   0  0  0  0  0  0  0  0  0  0  0  0
   -8.6411    4.6660   -7.0016 C   0  0  0  0  0  0  0  0  0  0  0  0
   -7.0863    4.6683  -15.9648 C   0  0  0  0  0  0  0  0  0  0  0  0
   -8.2194    4.2848  -16.6580 N   0  0  0  0  0  0  0  0  0  0  0  0
   -8.0415    4.5332  -17.9985 C   0  0  0  0  0  0  0  0  0  0  0  0
   -6.8118    5.1351  -18.1502 C   0  0  0  0  0  0  0  0  0  0  0  0
   -6.0840    5.4148  -19.3462 C   0  0  0  0  0  0  0  0  0  0  0  0
   -5.3396    5.6829  -20.1973 N   0  0  0  0  0  0  0  0  0  0  0  0
   -6.2639    5.3564  -16.8634 C   0  0  0  0  0  0  0  0  0  0  0  0
  1  2  1  0
  2  3  2  0
  3  4  1  0
  4  5  2  0
  5  6  1  0
  6  7  2  0
  6  8  1  0
  8  9  1  0
  9 10  2  0
 10 11  1  0
 11 12  2  0
 12 13  1  0
 13 14  2  0
 13 15  1  0
 15 16  2  0
 15 17  1  0
 17 18  1  0
 18 19  1  0
 18 20  1  0
 17 21  1  0
  5 22  1  0
 22 23  1  0
 23 24  1  0
 24 25  2  0
 25 26  1  0
 26 27  3  0
 25 28  1  0
 28  2  1  0
 14  9  1  0
 28 22  2  0
 21 12  1  0
M  END
>  <fragmenstein_outcome>  (769) 
too moved

>  <exports>  (769) 
['/opt/xchem-fragalysis-2/maxwin/openbind-hippo/xx01zvns2b/cycle_01/syndirella/elabs/openbind_xx01zvns2b_c1_elab_chemspace_filtered.sdf']

>  <Energy>  (769) 
80.971242

>  <alias>  (769) 
MYSYHPXYYCVQOW-UHFFFAOYSA-N-P214-P214-P301-601526

>  <fragmenstein_runtime>  (769) 
6.260308

>  <scratch_subdir>  (769) 
/opt/xchem-fragalysis-2/maxwin/BulkDock/SCRATCH/601526/MYSYHPXYYCVQOW-UHFFFAOYSA-N-P214-P214-P301-601526

>  <HIPPO Compound ID>  (769) 
142792

>  <rmsd(smina/fragmenstein)>  (769) 
0.882

>  <distance_score>  (769) 
1.733016

>  <orig_smiles>  (769) 
Cc1ccc(C(=O)Nc2ccc3c(c2)C(=O)N(C(C)C)C3)c2[nH]cc(C#N)c12

>  <fragmenstein_mode>  (769) 
expansion

>  <inchikey>  (769) 
MYSYHPXYYCVQOW-UHFFFAOYSA-N

>  <ref_pdb>  (769) 
Z3093a

>  <GNINA pK>  (769) 
nan

>  <gnina_score_min>  (769) 
5.29

>  <tags>  (769) 
xx01zvns2b_c1_elab_bulkdock_input,openbind_xx01zvns2b_c1_elab_chemspace_filtered_scored_top80percent,fragmenstein_placed,openbind_xx01zvns2b_c1_elab_chemspace_filtered_scored,openbind_xx01zvns2b_c1_elab_chemspace_filtered_scored_top40percent,openbind_xx01zvns2b_c1_elab_chemspace_filtered_scored_top20percent,openbind_xx01zvns2b_c1_elab_chemspace_filtered_scored_top60percent,openbind_xx01zvns2b_c1_elabs_filtered

>  <smiles>  (769) 
Cc1ccc(C(=O)Nc2ccc3c(c2)C(=O)N(C(C)C)C3)c2[nH]cc(C#N)c12

>  <subsites>  (769) 
1 - Z4590/B/203/1

>  <gnina_score>  (769) 
5.626

>  <HIPPO Pose ID>  (769) 
76619

>  <ref_mols>  (769) 
Z4983a,Z3842a

>  <energy_score>  (769) 
-16.664239

>  <inspiration_score>  (769) 
None

>  <smina_score_min>  (769) 
-7.408

>  <fragmenstein_error>  (769) 


>  <name>  (769) 
MYSYHPXYYCVQOW-UHFFFAOYSA-N-P214-P214-P301-601526

$$$$
ZSYOCLOOTAWKGX-UHFFFAOYSA-N-P224-P110-P224-601526
     RDKit          3D

 28 31  0  0  0  0  0  0  0  0999 V2000
   -3.7343    4.7493  -14.3897 C   0  0  0  0  0  0  0  0  0  0  0  0
   -3.9854    5.0397  -12.9125 C   0  0  0  0  0  0  0  0  0  0  0  0
   -4.4735    6.4814  -12.7393 C   0  0  0  0  0  0  0  0  0  0  0  0
   -4.9754    4.0507  -12.2006 C   0  0  0  0  0  0  0  0  0  0  0  0
   -4.6461    3.8800  -10.6454 C   0  0  0  0  0  0  0  0  0  0  0  0
   -5.5170    3.2677   -9.5702 N   0  0  0  0  0  0  0  0  0  0  0  0
   -6.3223    4.2980   -8.8401 C   0  0  0  0  0  0  0  0  0  0  0  0
   -7.5441    4.4384   -9.6830 C   0  0  0  0  0  0  0  0  0  0  0  0
   -8.1223    5.6167  -10.0957 C   0  0  0  0  0  0  0  0  0  0  0  0
   -8.6557    5.5971  -11.3753 C   0  0  0  0  0  0  0  0  0  0  0  0
   -8.7453    4.3888  -12.0971 C   0  0  0  0  0  0  0  0  0  0  0  0
   -8.6652    4.4102  -13.4766 N   0  0  0  0  0  0  0  0  0  0  0  0
   -8.2402    5.5289  -14.4309 C   0  0  0  0  0  0  0  0  0  0  0  0
   -7.9624    6.6377  -14.2171 O   0  0  0  0  0  0  0  0  0  0  0  0
   -8.0923    5.0158  -15.8080 C   0  0  0  0  0  0  0  0  0  0  0  0
   -9.0473    4.2200  -16.4184 C   0  0  0  0  0  0  0  0  0  0  0  0
   -8.8421    3.7680  -17.7188 C   0  0  0  0  0  0  0  0  0  0  0  0
   -7.6480    4.1151  -18.3792 C   0  0  0  0  0  0  0  0  0  0  0  0
   -7.1779    3.6492  -19.9576 S   0  0  0  0  0  0  0  0  0  0  0  0
   -5.7322    4.5307  -19.8908 C   0  0  0  0  0  0  0  0  0  0  0  0
   -5.5482    5.1057  -18.6583 C   0  0  0  0  0  0  0  0  0  0  0  0
   -4.3574    5.8266  -18.3373 C   0  0  0  0  0  0  0  0  0  0  0  0
   -3.3843    6.4128  -18.0981 N   0  0  0  0  0  0  0  0  0  0  0  0
   -6.6642    4.9028  -17.7790 C   0  0  0  0  0  0  0  0  0  0  0  0
   -6.9049    5.3578  -16.4680 C   0  0  0  0  0  0  0  0  0  0  0  0
   -8.4709    3.1580  -11.5214 C   0  0  0  0  0  0  0  0  0  0  0  0
   -7.7156    3.2348  -10.3822 C   0  0  0  0  0  0  0  0  0  0  0  0
   -6.5629    2.3255  -10.0677 C   0  0  0  0  0  0  0  0  0  0  0  0
  1  2  1  0
  2  3  1  0
  2  4  1  0
  4  5  1  0
  5  6  1  0
  6  7  1  0
  7  8  1  0
  8  9  2  0
  9 10  1  0
 10 11  2  0
 11 12  1  0
 12 13  1  0
 13 14  2  0
 13 15  1  0
 15 16  2  0
 16 17  1  0
 17 18  2  0
 18 19  1  0
 19 20  1  0
 20 21  2  0
 21 22  1  0
 22 23  3  0
 21 24  1  0
 24 25  2  0
 11 26  1  0
 26 27  2  0
 27 28  1  0
 28  6  1  0
 27  8  1  0
 25 15  1  0
 24 18  1  0
M  END
>  <fragmenstein_outcome>  (770) 
too moved

>  <exports>  (770) 
['/opt/xchem-fragalysis-2/maxwin/openbind-hippo/xx01zvns2b/cycle_01/syndirella/elabs/openbind_xx01zvns2b_c1_elab_chemspace_filtered.sdf']

>  <Energy>  (770) 
114.577786

>  <alias>  (770) 
ZSYOCLOOTAWKGX-UHFFFAOYSA-N-P224-P110-P224-601526

>  <fragmenstein_runtime>  (770) 
4.12208

>  <scratch_subdir>  (770) 
/opt/xchem-fragalysis-2/maxwin/BulkDock/SCRATCH/601526/ZSYOCLOOTAWKGX-UHFFFAOYSA-N-P224-P110-P224-601526

>  <HIPPO Compound ID>  (770) 
141006

>  <rmsd(smina/fragmenstein)>  (770) 
2.396

>  <distance_score>  (770) 
1.758953

>  <orig_smiles>  (770) 
CC(C)CCN1Cc2ccc(NC(=O)c3ccc4scc(C#N)c4c3)cc2C1

>  <fragmenstein_mode>  (770) 
expansion

>  <inchikey>  (770) 
ZSYOCLOOTAWKGX-UHFFFAOYSA-N

>  <ref_pdb>  (770) 
Z3093a

>  <GNINA pK>  (770) 
nan

>  <gnina_score_min>  (770) 
5.26

>  <tags>  (770) 
xx01zvns2b_c1_elab_bulkdock_input,openbind_xx01zvns2b_c1_elab_nonasap_filtered_scored_top80percent,openbind_xx01zvns2b_c1_elab_chemspace_filtered_scored_top80percent,fragmenstein_placed,openbind_xx01zvns2b_c1_elab_chemspace_filtered_scored,openbind_xx01zvns2b_c1_elab_chemspace_filtered_scored_top40percent,openbind_xx01zvns2b_c1_elab_chemspace_filtered_scored_top20percent,openbind_xx01zvns2b_c1_elab_chemspace_filtered_scored_top60percent,openbind_xx01zvns2b_c1_elabs_filtered

>  <smiles>  (770) 
CC(C)CCN1Cc2ccc(NC(=O)c3ccc4scc(C#N)c4c3)cc2C1

>  <subsites>  (770) 
1 - Z4590/B/203/1

>  <gnina_score>  (770) 
5.989

>  <HIPPO Pose ID>  (770) 
76654

>  <ref_mols>  (770) 
Z3970a,Z2057a

>  <energy_score>  (770) 
-2.467417

>  <inspiration_score>  (770) 
None

>  <smina_score_min>  (770) 
-6.617

>  <fragmenstein_error>  (770) 


>  <name>  (770) 
ZSYOCLOOTAWKGX-UHFFFAOYSA-N-P224-P110-P224-601526

$$$$
IJJIQIFRAHDFRB-UHFFFAOYSA-N-P224-P110-P224-601526
     RDKit          3D

 29 32  0  0  0  0  0  0  0  0999 V2000
   -3.3226    5.4317  -14.9978 C   0  0  0  0  0  0  0  0  0  0  0  0
   -4.2981    5.2775  -13.8462 C   0  0  0  0  0  0  0  0  0  0  0  0
   -4.2249    3.9361  -13.3834 O   0  0  0  0  0  0  0  0  0  0  0  0
   -5.0963    3.6012  -12.2800 C   0  0  0  0  0  0  0  0  0  0  0  0
   -4.7315    4.2898  -10.9558 C   0  0  0  0  0  0  0  0  0  0  0  0
   -4.9095    3.4480   -9.6607 C   0  0  0  0  0  0  0  0  0  0  0  0
   -6.1658    3.2784   -8.9131 N   0  0  0  0  0  0  0  0  0  0  0  0
   -6.8651    4.5064   -8.5048 C   0  0  0  0  0  0  0  0  0  0  0  0
   -7.8470    4.6998   -9.6070 C   0  0  0  0  0  0  0  0  0  0  0  0
   -8.2199    5.8879  -10.1836 C   0  0  0  0  0  0  0  0  0  0  0  0
   -8.5998    5.8110  -11.5134 C   0  0  0  0  0  0  0  0  0  0  0  0
   -8.7269    4.5630  -12.1613 C   0  0  0  0  0  0  0  0  0  0  0  0
   -8.6322    4.5063  -13.5354 N   0  0  0  0  0  0  0  0  0  0  0  0
   -8.1496    5.5530  -14.5435 C   0  0  0  0  0  0  0  0  0  0  0  0
   -7.8264    6.6592  -14.3858 O   0  0  0  0  0  0  0  0  0  0  0  0
   -8.0014    4.9813  -15.8979 C   0  0  0  0  0  0  0  0  0  0  0  0
   -8.9723    4.1832  -16.4813 C   0  0  0  0  0  0  0  0  0  0  0  0
   -8.7910    3.7173  -17.7805 C   0  0  0  0  0  0  0  0  0  0  0  0
   -7.6151    4.0669  -18.4731 C   0  0  0  0  0  0  0  0  0  0  0  0
   -7.1737    3.5878  -20.0537 S   0  0  0  0  0  0  0  0  0  0  0  0
   -5.7444    4.4938  -20.0413 C   0  0  0  0  0  0  0  0  0  0  0  0
   -5.5464    5.1022  -18.8280 C   0  0  0  0  0  0  0  0  0  0  0  0
   -4.3743    5.8744  -18.5658 C   0  0  0  0  0  0  0  0  0  0  0  0
   -3.4156    6.5019  -18.3780 N   0  0  0  0  0  0  0  0  0  0  0  0
   -6.6271    4.8747  -17.9104 C   0  0  0  0  0  0  0  0  0  0  0  0
   -6.8395    5.3349  -16.5986 C   0  0  0  0  0  0  0  0  0  0  0  0
   -8.6088    3.3596  -11.4850 C   0  0  0  0  0  0  0  0  0  0  0  0
   -8.0493    3.4621  -10.2395 C   0  0  0  0  0  0  0  0  0  0  0  0
   -7.1945    2.4379   -9.5725 C   0  0  0  0  0  0  0  0  0  0  0  0
  1  2  1  0
  2  3  1  0
  3  4  1  0
  4  5  1  0
  5  6  1  0
  6  7  1  0
  7  8  1  0
  8  9  1  0
  9 10  2  0
 10 11  1  0
 11 12  2  0
 12 13  1  0
 13 14  1  0
 14 15  2  0
 14 16  1  0
 16 17  2  0
 17 18  1  0
 18 19  2  0
 19 20  1  0
 20 21  1  0
 21 22  2  0
 22 23  1  0
 23 24  3  0
 22 25  1  0
 25 26  2  0
 12 27  1  0
 27 28  2  0
 28 29  1  0
 29  7  1  0
 28  9  1  0
 26 16  1  0
 25 19  1  0
M  END
>  <fragmenstein_outcome>  (771) 
too moved

>  <exports>  (771) 
['/opt/xchem-fragalysis-2/maxwin/openbind-hippo/xx01zvns2b/cycle_01/syndirella/elabs/openbind_xx01zvns2b_c1_elab_chemspace_filtered.sdf']

>  <Energy>  (771) 
104.684422

>  <alias>  (771) 
IJJIQIFRAHDFRB-UHFFFAOYSA-N-P224-P110-P224-601526

>  <fragmenstein_runtime>  (771) 
6.614795

>  <scratch_subdir>  (771) 
/opt/xchem-fragalysis-2/maxwin/BulkDock/SCRATCH/601526/IJJIQIFRAHDFRB-UHFFFAOYSA-N-P224-P110-P224-601526

>  <HIPPO Compound ID>  (771) 
141009

>  <rmsd(smina/fragmenstein)>  (771) 
2.266

>  <distance_score>  (771) 
1.775483

>  <orig_smiles>  (771) 
CCOCCCN1Cc2ccc(NC(=O)c3ccc4scc(C#N)c4c3)cc2C1

>  <fragmenstein_mode>  (771) 
expansion

>  <inchikey>  (771) 
IJJIQIFRAHDFRB-UHFFFAOYSA-N

>  <ref_pdb>  (771) 
Z3093a

>  <GNINA pK>  (771) 
nan

>  <gnina_score_min>  (771) 
5.318

>  <tags>  (771) 
xx01zvns2b_c1_elab_bulkdock_input,openbind_xx01zvns2b_c1_elab_nonasap_filtered_scored_top80percent,openbind_xx01zvns2b_c1_elab_chemspace_filtered_scored_top80percent,fragmenstein_placed,openbind_xx01zvns2b_c1_elab_chemspace_filtered_scored,openbind_xx01zvns2b_c1_elab_chemspace_filtered_scored_top40percent,openbind_xx01zvns2b_c1_elab_chemspace_filtered_scored_top20percent,openbind_xx01zvns2b_c1_elab_chemspace_filtered_scored_top60percent,openbind_xx01zvns2b_c1_elabs_filtered

>  <smiles>  (771) 
CCOCCCN1Cc2ccc(NC(=O)c3ccc4scc(C#N)c4c3)cc2C1

>  <subsites>  (771) 
1 - Z4590/B/203/1

>  <gnina_score>  (771) 
5.872

>  <HIPPO Pose ID>  (771) 
76660

>  <ref_mols>  (771) 
Z3970a,Z2057a

>  <energy_score>  (771) 
-22.218604

>  <inspiration_score>  (771) 
None

>  <smina_score_min>  (771) 
-5.556

>  <fragmenstein_error>  (771) 


>  <name>  (771) 
IJJIQIFRAHDFRB-UHFFFAOYSA-N-P224-P110-P224-601526

$$$$
LTGNPPWXLXHJLJ-UHFFFAOYSA-N-P110-P110-P224-601526
     RDKit          3D

 32 36  0  0  0  0  0  0  0  0999 V2000
   -3.4637    3.6200  -15.4248 C   0  0  0  0  0  0  0  0  0  0  0  0
   -3.3321    4.6008  -14.2657 C   0  0  0  0  0  0  0  0  0  0  0  0
   -1.8608    4.8062  -13.9000 C   0  0  0  0  0  0  0  0  0  0  0  0
   -4.1198    4.1775  -13.0345 C   0  0  0  0  0  0  0  0  0  0  0  0
   -4.6611    5.1570  -12.2014 C   0  0  0  0  0  0  0  0  0  0  0  0
   -5.2753    4.8259  -10.9677 C   0  0  0  0  0  0  0  0  0  0  0  0
   -5.4635    3.4995  -10.5398 C   0  0  0  0  0  0  0  0  0  0  0  0
   -6.1699    3.1113   -9.3427 N   0  0  0  0  0  0  0  0  0  0  0  0
   -6.8334    4.1915   -8.5305 C   0  0  0  0  0  0  0  0  0  0  0  0
   -8.0780    4.4453   -9.3591 C   0  0  0  0  0  0  0  0  0  0  0  0
   -8.4316    5.7000   -9.8226 C   0  0  0  0  0  0  0  0  0  0  0  0
   -8.7379    5.7827  -11.1765 C   0  0  0  0  0  0  0  0  0  0  0  0
   -8.8211    4.6200  -11.9649 C   0  0  0  0  0  0  0  0  0  0  0  0
   -8.6315    4.6869  -13.3363 N   0  0  0  0  0  0  0  0  0  0  0  0
   -8.1898    5.8582  -14.2269 C   0  0  0  0  0  0  0  0  0  0  0  0
   -7.9889    6.9751  -13.9619 O   0  0  0  0  0  0  0  0  0  0  0  0
   -7.9057    5.3942  -15.5992 C   0  0  0  0  0  0  0  0  0  0  0  0
   -8.8243    4.6632  -16.3373 C   0  0  0  0  0  0  0  0  0  0  0  0
   -8.5343    4.3293  -17.6569 C   0  0  0  0  0  0  0  0  0  0  0  0
   -7.2795    4.6891  -18.1895 C   0  0  0  0  0  0  0  0  0  0  0  0
   -6.6927    4.3572  -19.7601 S   0  0  0  0  0  0  0  0  0  0  0  0
   -5.2196    5.1242  -19.5055 C   0  0  0  0  0  0  0  0  0  0  0  0
   -5.1354    5.6150  -18.2293 C   0  0  0  0  0  0  0  0  0  0  0  0
   -3.9602    6.2836  -17.7806 C   0  0  0  0  0  0  0  0  0  0  0  0
   -2.9964    6.8239  -17.4240 N   0  0  0  0  0  0  0  0  0  0  0  0
   -6.3234    5.3864  -17.4516 C   0  0  0  0  0  0  0  0  0  0  0  0
   -6.6597    5.7523  -16.1322 C   0  0  0  0  0  0  0  0  0  0  0  0
   -8.7892    3.3481  -11.4010 C   0  0  0  0  0  0  0  0  0  0  0  0
   -8.3263    3.2696  -10.1043 C   0  0  0  0  0  0  0  0  0  0  0  0
   -7.3254    2.2123   -9.6826 C   0  0  0  0  0  0  0  0  0  0  0  0
   -4.9137    2.5231  -11.3894 C   0  0  0  0  0  0  0  0  0  0  0  0
   -4.2523    2.8499  -12.5989 C   0  0  0  0  0  0  0  0  0  0  0  0
  1  2  1  0
  2  3  1  0
  2  4  1  0
  4  5  2  0
  5  6  1  0
  6  7  2  0
  7  8  1  0
  8  9  1  0
  9 10  1  0
 10 11  2  0
 11 12  1  0
 12 13  2  0
 13 14  1  0
 14 15  1  0
 15 16  2  0
 15 17  1  0
 17 18  2  0
 18 19  1  0
 19 20  2  0
 20 21  1  0
 21 22  1  0
 22 23  2  0
 23 24  1  0
 24 25  3  0
 23 26  1  0
 26 27  2  0
 13 28  1  0
 28 29  2  0
 29 30  1  0
  7 31  1  0
 31 32  2  0
 32  4  1  0
 30  8  1  0
 29 10  1  0
 27 17  1  0
 26 20  1  0
M  END
>  <fragmenstein_outcome>  (772) 
too moved

>  <exports>  (772) 
['/opt/xchem-fragalysis-2/maxwin/openbind-hippo/xx01zvns2b/cycle_01/syndirella/elabs/openbind_xx01zvns2b_c1_elab_chemspace_filtered.sdf']

>  <Energy>  (772) 
136.00392

>  <alias>  (772) 
LTGNPPWXLXHJLJ-UHFFFAOYSA-N-P110-P110-P224-601526

>  <fragmenstein_runtime>  (772) 
4.561813

>  <scratch_subdir>  (772) 
/opt/xchem-fragalysis-2/maxwin/BulkDock/SCRATCH/601526/LTGNPPWXLXHJLJ-UHFFFAOYSA-N-P110-P110-P224-601526

>  <HIPPO Compound ID>  (772) 
141013

>  <rmsd(smina/fragmenstein)>  (772) 
1.433

>  <distance_score>  (772) 
1.678245

>  <orig_smiles>  (772) 
CC(C)c1ccc(N2Cc3ccc(NC(=O)c4ccc5scc(C#N)c5c4)cc3C2)cc1

>  <fragmenstein_mode>  (772) 
expansion

>  <inchikey>  (772) 
LTGNPPWXLXHJLJ-UHFFFAOYSA-N

>  <ref_pdb>  (772) 
Z3093a

>  <GNINA pK>  (772) 
nan

>  <gnina_score_min>  (772) 
5.826

>  <tags>  (772) 
xx01zvns2b_c1_elab_bulkdock_input,openbind_xx01zvns2b_c1_elab_nonasap_filtered_scored_top80percent,openbind_xx01zvns2b_c1_elab_chemspace_filtered_scored_top80percent,fragmenstein_placed,openbind_xx01zvns2b_c1_elab_chemspace_filtered_scored,openbind_xx01zvns2b_c1_elab_chemspace_filtered_scored_top40percent,openbind_xx01zvns2b_c1_elab_chemspace_filtered_scored_top20percent,openbind_xx01zvns2b_c1_elab_chemspace_filtered_scored_top60percent,openbind_xx01zvns2b_c1_elabs_filtered

>  <smiles>  (772) 
CC(C)c1ccc(N2Cc3ccc(NC(=O)c4ccc5scc(C#N)c5c4)cc3C2)cc1

>  <subsites>  (772) 
1 - Z4590/B/203/1

>  <gnina_score>  (772) 
6.327

>  <HIPPO Pose ID>  (772) 
76667

>  <ref_mols>  (772) 
Z3970a,Z2057a

>  <energy_score>  (772) 
-9.660864

>  <inspiration_score>  (772) 
None

>  <smina_score_min>  (772) 
-5.764

>  <fragmenstein_error>  (772) 


>  <name>  (772) 
LTGNPPWXLXHJLJ-UHFFFAOYSA-N-P110-P110-P224-601526

$$$$
WDJKIIXSCMGOCX-UHFFFAOYSA-N-P308-P269-P308-601526
     RDKit          3D

 30 35  0  0  0  0  0  0  0  0999 V2000
   -9.3819    6.0858  -14.4501 O   0  0  0  0  0  0  0  0  0  0  0  0
   -8.4835    5.3438  -14.4290 C   0  0  0  0  0  0  0  0  0  0  0  0
   -7.6926    4.7696  -13.2423 N   0  0  0  0  0  0  0  0  0  0  0  0
   -7.7734    5.0475  -11.8901 C   0  0  0  0  0  0  0  0  0  0  0  0
   -8.5517    6.1273  -11.4402 C   0  0  0  0  0  0  0  0  0  0  0  0
   -8.6436    6.4461  -10.0882 C   0  0  0  0  0  0  0  0  0  0  0  0
   -7.9510    5.6576   -9.2071 C   0  0  0  0  0  0  0  0  0  0  0  0
   -7.1343    4.6196   -9.6632 C   0  0  0  0  0  0  0  0  0  0  0  0
   -7.0352    4.2858  -10.9988 C   0  0  0  0  0  0  0  0  0  0  0  0
   -6.4882    3.9650   -8.4907 C   0  0  0  0  0  0  0  0  0  0  0  0
   -7.3497    4.3918   -7.3497 N   0  0  0  0  0  0  0  0  0  0  0  0
   -8.4157    3.4892   -7.0930 C   0  0  0  0  0  0  0  0  0  0  0  0
   -8.8285    2.5240   -8.0231 C   0  0  0  0  0  0  0  0  0  0  0  0
   -9.8283    1.6355   -7.7198 C   0  0  0  0  0  0  0  0  0  0  0  0
  -10.4838    1.7542   -6.5097 C   0  0  0  0  0  0  0  0  0  0  0  0
  -10.1347    2.7289   -5.5811 C   0  0  0  0  0  0  0  0  0  0  0  0
   -9.0856    3.5862   -5.8674 C   0  0  0  0  0  0  0  0  0  0  0  0
   -7.9471    5.7004   -7.7141 C   0  0  0  0  0  0  0  0  0  0  0  0
   -7.8915    4.9145  -15.7133 C   0  0  0  0  0  0  0  0  0  0  0  0
   -8.7355    4.4712  -16.7449 C   0  0  0  0  0  0  0  0  0  0  0  0
   -8.2491    4.3703  -18.0466 C   0  0  0  0  0  0  0  0  0  0  0  0
   -6.9277    4.7120  -18.2554 C   0  0  0  0  0  0  0  0  0  0  0  0
   -6.0540    5.1032  -17.2292 C   0  0  0  0  0  0  0  0  0  0  0  0
   -6.5367    5.2130  -15.9405 C   0  0  0  0  0  0  0  0  0  0  0  0
   -4.7360    5.4352  -17.8497 C   0  0  0  0  0  0  0  0  0  0  0  0
   -3.8605    6.5519  -17.3462 C   0  0  0  0  0  0  0  0  0  0  0  0
   -3.4156    5.1215  -17.1998 C   0  0  0  0  0  0  0  0  0  0  0  0
   -4.9552    5.2326  -19.3282 C   0  0  0  0  0  0  0  0  0  0  0  0
   -4.1026    5.4352  -20.1766 O   0  0  0  0  0  0  0  0  0  0  0  0
   -6.2621    4.8041  -19.4818 N   0  0  0  0  0  0  0  0  0  0  0  0
  1  2  2  0
  2  3  1  0
  3  4  1  0
  4  5  2  0
  5  6  1  0
  6  7  2  0
  7  8  1  0
  8  9  2  0
  8 10  1  0
 10 11  1  0
 11 12  1  0
 12 13  2  0
 13 14  1  0
 14 15  2  0
 15 16  1  0
 16 17  2  0
 11 18  1  0
  2 19  1  0
 19 20  2  0
 20 21  1  0
 21 22  2  0
 22 23  1  0
 23 24  2  0
 23 25  1  0
 25 26  1  0
 26 27  1  0
 25 28  1  0
 28 29  2  0
 28 30  1  0
  9  4  1  0
 17 12  1  0
 24 19  1  0
 27 25  1  0
 18  7  1  0
 30 22  1  0
M  END
>  <fragmenstein_outcome>  (773) 
too moved

>  <exports>  (773) 
['/opt/xchem-fragalysis-2/maxwin/openbind-hippo/xx01zvns2b/cycle_01/syndirella/elabs/openbind_xx01zvns2b_c1_elab_chemspace_filtered.sdf']

>  <Energy>  (773) 
109.013706

>  <alias>  (773) 
WDJKIIXSCMGOCX-UHFFFAOYSA-N-P308-P269-P308-601526

>  <fragmenstein_runtime>  (773) 
17.664171

>  <scratch_subdir>  (773) 
/opt/xchem-fragalysis-2/maxwin/BulkDock/SCRATCH/601526/WDJKIIXSCMGOCX-UHFFFAOYSA-N-P308-P269-P308-601526

>  <HIPPO Compound ID>  (773) 
141605

>  <rmsd(smina/fragmenstein)>  (773) 
0.69

>  <distance_score>  (773) 
1.864056

>  <orig_smiles>  (773) 
O=C(Nc1ccc2c(c1)CN(c1ccccc1)C2)c1ccc2c(c1)C1(CC1)C(=O)N2

>  <fragmenstein_mode>  (773) 
expansion

>  <inchikey>  (773) 
WDJKIIXSCMGOCX-UHFFFAOYSA-N

>  <ref_pdb>  (773) 
Z3093a

>  <GNINA pK>  (773) 
nan

>  <gnina_score_min>  (773) 
5.825

>  <tags>  (773) 
xx01zvns2b_c1_elab_bulkdock_input,openbind_xx01zvns2b_c1_elab_chemspace_filtered_scored_top80percent,fragmenstein_placed,openbind_xx01zvns2b_c1_elab_chemspace_filtered_scored,openbind_xx01zvns2b_c1_elab_chemspace_filtered_scored_top40percent,openbind_xx01zvns2b_c1_elab_chemspace_filtered_scored_top20percent,openbind_xx01zvns2b_c1_elab_chemspace_filtered_scored_top60percent,openbind_xx01zvns2b_c1_elabs_filtered

>  <smiles>  (773) 
O=C(Nc1ccc2c(c1)CN(c1ccccc1)C2)c1ccc2c(c1)C1(CC1)C(=O)N2

>  <subsites>  (773) 
1 - Z4590/B/203/1

>  <gnina_score>  (773) 
5.972

>  <HIPPO Pose ID>  (773) 
76676

>  <ref_mols>  (773) 
Z5011a,Z4429a

>  <energy_score>  (773) 
-20.55741

>  <inspiration_score>  (773) 
None

>  <smina_score_min>  (773) 
-9.896

>  <fragmenstein_error>  (773) 


>  <name>  (773) 
WDJKIIXSCMGOCX-UHFFFAOYSA-N-P308-P269-P308-601526

$$$$
ULDLPYGZHWOFJD-UHFFFAOYSA-N-P308-P269-P308-601526
     RDKit          3D

 34 38  0  0  0  0  0  0  0  0999 V2000
   -7.0987    9.6640  -10.4948 C   0  0  0  0  0  0  0  0  0  0  0  0
   -8.2991    9.6035   -9.5454 C   0  0  0  0  0  0  0  0  0  0  0  0
   -8.3698   10.8831   -8.7056 C   0  0  0  0  0  0  0  0  0  0  0  0
   -8.2580    8.3130   -8.7400 C   0  0  0  0  0  0  0  0  0  0  0  0
   -8.8225    7.1689   -9.2884 C   0  0  0  0  0  0  0  0  0  0  0  0
   -8.7696    5.9788   -8.5917 C   0  0  0  0  0  0  0  0  0  0  0  0
   -8.0899    5.8586   -7.3705 C   0  0  0  0  0  0  0  0  0  0  0  0
   -7.6172    4.5857   -6.8822 N   0  0  0  0  0  0  0  0  0  0  0  0
   -8.5714    3.4362   -7.0879 C   0  0  0  0  0  0  0  0  0  0  0  0
   -8.2871    2.9906   -8.4943 C   0  0  0  0  0  0  0  0  0  0  0  0
   -9.1503    2.4227   -9.3990 C   0  0  0  0  0  0  0  0  0  0  0  0
   -8.8605    2.5542  -10.7595 C   0  0  0  0  0  0  0  0  0  0  0  0
   -7.7195    3.2383  -11.1773 C   0  0  0  0  0  0  0  0  0  0  0  0
   -7.6126    3.6513  -12.4900 N   0  0  0  0  0  0  0  0  0  0  0  0
   -6.8549    4.8513  -13.1075 C   0  0  0  0  0  0  0  0  0  0  0  0
   -6.1406    5.6322  -12.6118 O   0  0  0  0  0  0  0  0  0  0  0  0
   -7.0615    4.9545  -14.5779 C   0  0  0  0  0  0  0  0  0  0  0  0
   -8.2216    4.4910  -15.2306 C   0  0  0  0  0  0  0  0  0  0  0  0
   -8.2605    4.4142  -16.6187 C   0  0  0  0  0  0  0  0  0  0  0  0
   -7.1452    4.8466  -17.3094 C   0  0  0  0  0  0  0  0  0  0  0  0
   -6.0611    5.4541  -16.6835 C   0  0  0  0  0  0  0  0  0  0  0  0
   -5.9990    5.5039  -15.3108 C   0  0  0  0  0  0  0  0  0  0  0  0
   -5.0566    5.8851  -17.7151 C   0  0  0  0  0  0  0  0  0  0  0  0
   -3.6138    5.5285  -17.3825 C   0  0  0  0  0  0  0  0  0  0  0  0
   -5.1798    7.3867  -17.9963 C   0  0  0  0  0  0  0  0  0  0  0  0
   -5.5556    5.1110  -18.9494 C   0  0  0  0  0  0  0  0  0  0  0  0
   -4.8856    4.9404  -19.9541 O   0  0  0  0  0  0  0  0  0  0  0  0
   -6.8529    4.6735  -18.6582 N   0  0  0  0  0  0  0  0  0  0  0  0
   -7.6658    3.8379  -19.4976 C   0  0  0  0  0  0  0  0  0  0  0  0
   -6.7744    3.6613  -10.2611 C   0  0  0  0  0  0  0  0  0  0  0  0
   -7.0829    3.5427   -8.9240 C   0  0  0  0  0  0  0  0  0  0  0  0
   -6.4569    4.3080   -7.8061 C   0  0  0  0  0  0  0  0  0  0  0  0
   -7.5706    7.0179   -6.7924 C   0  0  0  0  0  0  0  0  0  0  0  0
   -7.6559    8.2357   -7.4716 C   0  0  0  0  0  0  0  0  0  0  0  0
  1  2  1  0
  2  3  1  0
  2  4  1  0
  4  5  2  0
  5  6  1  0
  6  7  2  0
  7  8  1  0
  8  9  1  0
  9 10  1  0
 10 11  2  0
 11 12  1  0
 12 13  2  0
 13 14  1  0
 14 15  1  0
 15 16  2  0
 15 17  1  0
 17 18  2  0
 18 19  1  0
 19 20  2  0
 20 21  1  0
 21 22  2  0
 21 23  1  0
 23 24  1  0
 23 25  1  0
 23 26  1  0
 26 27  2  0
 26 28  1  0
 28 29  1  0
 13 30  1  0
 30 31  2  0
 31 32  1  0
  7 33  1  0
 33 34  2  0
 34  4  1  0
 32  8  1  0
 31 10  1  0
 22 17  1  0
 28 20  1  0
M  END
>  <fragmenstein_outcome>  (774) 
too moved

>  <exports>  (774) 
['/opt/xchem-fragalysis-2/maxwin/openbind-hippo/xx01zvns2b/cycle_01/syndirella/elabs/openbind_xx01zvns2b_c1_elab_chemspace_filtered.sdf']

>  <Energy>  (774) 
137.960829

>  <alias>  (774) 
ULDLPYGZHWOFJD-UHFFFAOYSA-N-P308-P269-P308-601526

>  <fragmenstein_runtime>  (774) 
25.063449

>  <scratch_subdir>  (774) 
/opt/xchem-fragalysis-2/maxwin/BulkDock/SCRATCH/601526/ULDLPYGZHWOFJD-UHFFFAOYSA-N-P308-P269-P308-601526

>  <HIPPO Compound ID>  (774) 
141608

>  <rmsd(smina/fragmenstein)>  (774) 
1.456

>  <distance_score>  (774) 
1.99997

>  <orig_smiles>  (774) 
CC(C)c1ccc(N2Cc3ccc(NC(=O)c4ccc5c(c4)C(C)(C)C(=O)N5C)cc3C2)cc1

>  <fragmenstein_mode>  (774) 
expansion

>  <inchikey>  (774) 
ULDLPYGZHWOFJD-UHFFFAOYSA-N

>  <ref_pdb>  (774) 
Z3093a

>  <GNINA pK>  (774) 
nan

>  <gnina_score_min>  (774) 
5.935

>  <tags>  (774) 
xx01zvns2b_c1_elab_bulkdock_input,openbind_xx01zvns2b_c1_elab_chemspace_filtered_scored_top80percent,fragmenstein_placed,openbind_xx01zvns2b_c1_elab_chemspace_filtered_scored,openbind_xx01zvns2b_c1_elab_chemspace_filtered_scored_top40percent,openbind_xx01zvns2b_c1_elab_chemspace_filtered_scored_top20percent,openbind_xx01zvns2b_c1_elab_chemspace_filtered_scored_top60percent,openbind_xx01zvns2b_c1_elabs_filtered

>  <smiles>  (774) 
CC(C)c1ccc(N2Cc3ccc(NC(=O)c4ccc5c(c4)C(C)(C)C(=O)N5C)cc3C2)cc1

>  <subsites>  (774) 
1 - Z4590/B/203/1

>  <gnina_score>  (774) 
6.325

>  <HIPPO Pose ID>  (774) 
76682

>  <ref_mols>  (774) 
Z5011a,Z4429a

>  <energy_score>  (774) 
-1.886856

>  <inspiration_score>  (774) 
None

>  <smina_score_min>  (774) 
-7.726

>  <fragmenstein_error>  (774) 


>  <name>  (774) 
ULDLPYGZHWOFJD-UHFFFAOYSA-N-P308-P269-P308-601526

$$$$
PJTOUAKFIMDBTO-UHFFFAOYSA-N-P24-P24-P295-601526
     RDKit          3D

 25 28  0  0  0  0  0  0  0  0999 V2000
  -10.6672    4.6449  -17.9549 C   0  0  0  0  0  0  0  0  0  0  0  0
   -9.2026    4.4825  -17.9255 C   0  0  0  0  0  0  0  0  0  0  0  0
   -8.4368    4.1914  -19.0233 C   0  0  0  0  0  0  0  0  0  0  0  0
   -7.1248    4.3828  -18.7196 N   0  0  0  0  0  0  0  0  0  0  0  0
   -7.0056    4.6946  -17.3938 C   0  0  0  0  0  0  0  0  0  0  0  0
   -5.8609    4.9977  -16.6596 C   0  0  0  0  0  0  0  0  0  0  0  0
   -4.3267    5.0337  -17.4216 Cl  0  0  0  0  0  0  0  0  0  0  0  0
   -6.0099    5.3129  -15.3180 C   0  0  0  0  0  0  0  0  0  0  0  0
   -7.2824    5.3070  -14.7517 C   0  0  0  0  0  0  0  0  0  0  0  0
   -7.4238    5.7417  -13.3543 C   0  0  0  0  0  0  0  0  0  0  0  0
   -7.2329    6.8616  -13.0897 O   0  0  0  0  0  0  0  0  0  0  0  0
   -7.8494    4.5605  -12.4576 N   0  0  0  0  0  0  0  0  0  0  0  0
   -8.0306    4.4915  -11.0816 C   0  0  0  0  0  0  0  0  0  0  0  0
   -7.8979    5.6461  -10.2891 C   0  0  0  0  0  0  0  0  0  0  0  0
   -8.1214    5.5977   -8.9145 C   0  0  0  0  0  0  0  0  0  0  0  0
   -8.4606    4.3762   -8.3729 C   0  0  0  0  0  0  0  0  0  0  0  0
   -8.5761    3.2176   -9.1365 C   0  0  0  0  0  0  0  0  0  0  0  0
   -8.3644    3.2604  -10.5044 C   0  0  0  0  0  0  0  0  0  0  0  0
   -8.9904    2.0814   -8.2643 C   0  0  0  0  0  0  0  0  0  0  0  0
   -9.1972    2.7307   -6.9772 N   0  0  0  0  0  0  0  0  0  0  0  0
  -10.0642    2.1595   -5.9801 C   0  0  0  0  0  0  0  0  0  0  0  0
   -8.8955    4.0787   -7.0054 C   0  0  0  0  0  0  0  0  0  0  0  0
   -9.0425    4.9169   -6.1338 O   0  0  0  0  0  0  0  0  0  0  0  0
   -8.4346    5.0020  -15.4884 C   0  0  0  0  0  0  0  0  0  0  0  0
   -8.2925    4.7013  -16.8514 C   0  0  0  0  0  0  0  0  0  0  0  0
  1  2  1  0
  2  3  2  0
  3  4  1  0
  4  5  1  0
  5  6  2  0
  6  7  1  0
  6  8  1  0
  8  9  2  0
  9 10  1  0
 10 11  2  0
 10 12  1  0
 12 13  1  0
 13 14  2  0
 14 15  1  0
 15 16  2  0
 16 17  1  0
 17 18  2  0
 17 19  1  0
 19 20  1  0
 20 21  1  0
 20 22  1  0
 22 23  2  0
  9 24  1  0
 24 25  2  0
 25  2  1  0
 25  5  1  0
 18 13  1  0
 22 16  1  0
M  END
>  <fragmenstein_outcome>  (775) 
too moved

>  <exports>  (775) 
['/opt/xchem-fragalysis-2/maxwin/openbind-hippo/xx01zvns2b/cycle_01/syndirella/elabs/openbind_xx01zvns2b_c1_elab_chemspace_filtered.sdf']

>  <Energy>  (775) 
35.7683

>  <alias>  (775) 
PJTOUAKFIMDBTO-UHFFFAOYSA-N-P24-P24-P295-601526

>  <fragmenstein_runtime>  (775) 
5.054215

>  <scratch_subdir>  (775) 
/opt/xchem-fragalysis-2/maxwin/BulkDock/SCRATCH/601526/PJTOUAKFIMDBTO-UHFFFAOYSA-N-P24-P24-P295-601526

>  <HIPPO Compound ID>  (775) 
141757

>  <rmsd(smina/fragmenstein)>  (775) 
0.579

>  <distance_score>  (775) 
1.163693

>  <orig_smiles>  (775) 
Cc1c[nH]c2c(Cl)cc(C(=O)Nc3ccc4c(c3)CN(C)C4=O)cc12

>  <fragmenstein_mode>  (775) 
expansion

>  <inchikey>  (775) 
PJTOUAKFIMDBTO-UHFFFAOYSA-N

>  <ref_pdb>  (775) 
Z3093a

>  <GNINA pK>  (775) 
nan

>  <gnina_score_min>  (775) 
6.003

>  <tags>  (775) 
xx01zvns2b_c1_elab_bulkdock_input,openbind_xx01zvns2b_c1_elab_nonasap_filtered_scored_top80percent,openbind_xx01zvns2b_c1_elab_chemspace_filtered_scored_top80percent,fragmenstein_placed,openbind_xx01zvns2b_c1_elab_chemspace_filtered_scored,openbind_xx01zvns2b_c1_elab_chemspace_filtered_scored_top40percent,openbind_xx01zvns2b_c1_elab_chemspace_filtered_scored_top20percent,openbind_xx01zvns2b_c1_elab_chemspace_filtered_scored_top60percent,openbind_xx01zvns2b_c1_elabs_filtered

>  <smiles>  (775) 
Cc1c[nH]c2c(Cl)cc(C(=O)Nc3ccc4c(c3)CN(C)C4=O)cc12

>  <subsites>  (775) 
1 - Z4590/B/203/1

>  <gnina_score>  (775) 
5.994

>  <HIPPO Pose ID>  (775) 
76683

>  <ref_mols>  (775) 
Z0553a,Z4959a

>  <energy_score>  (775) 
-19.369387

>  <inspiration_score>  (775) 
None

>  <smina_score_min>  (775) 
-8.76

>  <fragmenstein_error>  (775) 


>  <name>  (775) 
PJTOUAKFIMDBTO-UHFFFAOYSA-N-P24-P24-P295-601526

$$$$
QSWOAURHZNNATI-UHFFFAOYSA-N-P24-P24-P295-601526
     RDKit          3D

 26 29  0  0  0  0  0  0  0  0999 V2000
  -10.6768    4.6326  -17.8912 C   0  0  0  0  0  0  0  0  0  0  0  0
   -9.2143    4.4657  -17.8698 C   0  0  0  0  0  0  0  0  0  0  0  0
   -8.4653    4.2171  -18.9895 C   0  0  0  0  0  0  0  0  0  0  0  0
   -7.1503    4.3949  -18.6968 N   0  0  0  0  0  0  0  0  0  0  0  0
   -7.0135    4.6481  -17.3599 C   0  0  0  0  0  0  0  0  0  0  0  0
   -5.8554    4.9127  -16.6353 C   0  0  0  0  0  0  0  0  0  0  0  0
   -4.3370    5.0016  -17.4246 Cl  0  0  0  0  0  0  0  0  0  0  0  0
   -5.9790    5.1495  -15.2765 C   0  0  0  0  0  0  0  0  0  0  0  0
   -7.2381    5.1098  -14.6744 C   0  0  0  0  0  0  0  0  0  0  0  0
   -7.3093    5.5104  -13.2556 C   0  0  0  0  0  0  0  0  0  0  0  0
   -6.8948    6.5656  -12.9745 O   0  0  0  0  0  0  0  0  0  0  0  0
   -7.8514    4.3744  -12.3573 N   0  0  0  0  0  0  0  0  0  0  0  0
   -8.0768    4.3371  -10.9824 C   0  0  0  0  0  0  0  0  0  0  0  0
   -7.8143    5.4867  -10.2072 C   0  0  0  0  0  0  0  0  0  0  0  0
   -8.0230    5.4950   -8.8284 C   0  0  0  0  0  0  0  0  0  0  0  0
   -8.4881    4.3305   -8.2592 C   0  0  0  0  0  0  0  0  0  0  0  0
   -8.7438    3.1935   -9.0044 C   0  0  0  0  0  0  0  0  0  0  0  0
   -8.5515    3.1674  -10.3773 C   0  0  0  0  0  0  0  0  0  0  0  0
   -9.3320    2.2135   -8.0859 C   0  0  0  0  0  0  0  0  0  0  0  0
   -9.7638    1.1249   -8.4021 O   0  0  0  0  0  0  0  0  0  0  0  0
   -9.3931    2.8115   -6.8556 N   0  0  0  0  0  0  0  0  0  0  0  0
  -10.1614    2.2741   -5.7634 C   0  0  0  0  0  0  0  0  0  0  0  0
   -8.9301    4.0919   -6.8889 C   0  0  0  0  0  0  0  0  0  0  0  0
   -8.9478    4.9485   -6.0226 O   0  0  0  0  0  0  0  0  0  0  0  0
   -8.4061    4.8508  -15.4070 C   0  0  0  0  0  0  0  0  0  0  0  0
   -8.2909    4.6276  -16.7930 C   0  0  0  0  0  0  0  0  0  0  0  0
  1  2  1  0
  2  3  2  0
  3  4  1  0
  4  5  1  0
  5  6  2  0
  6  7  1  0
  6  8  1  0
  8  9  2  0
  9 10  1  0
 10 11  2  0
 10 12  1  0
 12 13  1  0
 13 14  2  0
 14 15  1  0
 15 16  2  0
 16 17  1  0
 17 18  2  0
 17 19  1  0
 19 20  2  0
 19 21  1  0
 21 22  1  0
 21 23  1  0
 23 24  2  0
  9 25  1  0
 25 26  2  0
 26  2  1  0
 26  5  1  0
 18 13  1  0
 23 16  1  0
M  END
>  <fragmenstein_outcome>  (776) 
too moved

>  <exports>  (776) 
['/opt/xchem-fragalysis-2/maxwin/openbind-hippo/xx01zvns2b/cycle_01/syndirella/elabs/openbind_xx01zvns2b_c1_elab_chemspace_filtered.sdf']

>  <Energy>  (776) 
11.421898

>  <alias>  (776) 
QSWOAURHZNNATI-UHFFFAOYSA-N-P24-P24-P295-601526

>  <fragmenstein_runtime>  (776) 
5.857008

>  <scratch_subdir>  (776) 
/opt/xchem-fragalysis-2/maxwin/BulkDock/SCRATCH/601526/QSWOAURHZNNATI-UHFFFAOYSA-N-P24-P24-P295-601526

>  <HIPPO Compound ID>  (776) 
141758

>  <rmsd(smina/fragmenstein)>  (776) 
0.407

>  <distance_score>  (776) 
1.450107

>  <orig_smiles>  (776) 
Cc1c[nH]c2c(Cl)cc(C(=O)Nc3ccc4c(c3)C(=O)N(C)C4=O)cc12

>  <fragmenstein_mode>  (776) 
expansion

>  <inchikey>  (776) 
QSWOAURHZNNATI-UHFFFAOYSA-N

>  <ref_pdb>  (776) 
Z3093a

>  <GNINA pK>  (776) 
nan

>  <gnina_score_min>  (776) 
5.965

>  <tags>  (776) 
xx01zvns2b_c1_elab_bulkdock_input,openbind_xx01zvns2b_c1_elab_nonasap_filtered_scored_top80percent,openbind_xx01zvns2b_c1_elab_chemspace_filtered_scored_top80percent,fragmenstein_placed,openbind_xx01zvns2b_c1_elab_chemspace_filtered_scored,openbind_xx01zvns2b_c1_elab_chemspace_filtered_scored_top40percent,openbind_xx01zvns2b_c1_elab_chemspace_filtered_scored_top20percent,openbind_xx01zvns2b_c1_elab_chemspace_filtered_scored_top60percent,openbind_xx01zvns2b_c1_elabs_filtered

>  <smiles>  (776) 
Cc1c[nH]c2c(Cl)cc(C(=O)Nc3ccc4c(c3)C(=O)N(C)C4=O)cc12

>  <subsites>  (776) 
1 - Z4590/B/203/1

>  <gnina_score>  (776) 
5.934

>  <HIPPO Pose ID>  (776) 
76685

>  <ref_mols>  (776) 
Z0553a,Z4959a

>  <energy_score>  (776) 
-8.555416

>  <inspiration_score>  (776) 
None

>  <smina_score_min>  (776) 
-8.611

>  <fragmenstein_error>  (776) 


>  <name>  (776) 
QSWOAURHZNNATI-UHFFFAOYSA-N-P24-P24-P295-601526

$$$$
WKISXCHXHAFHMX-UHFFFAOYSA-N-P94-P91-P94-601526
     RDKit          3D

 25 28  0  0  0  0  0  0  0  0999 V2000
   -5.2608    8.4519  -13.1933 O   0  0  0  0  0  0  0  0  0  0  0  0
   -4.6948    7.5383  -12.6088 C   0  0  0  0  0  0  0  0  0  0  0  0
   -3.5274    6.7673  -13.1650 C   0  0  0  0  0  0  0  0  0  0  0  0
   -3.9193    5.3312  -13.5157 C   0  0  0  0  0  0  0  0  0  0  0  0
   -4.7835    5.2135  -14.7448 C   0  0  0  0  0  0  0  0  0  0  0  0
   -6.0733    4.8419  -14.7026 C   0  0  0  0  0  0  0  0  0  0  0  0
   -6.8854    4.7438  -15.9130 C   0  0  0  0  0  0  0  0  0  0  0  0
   -8.2416    4.4106  -15.8699 C   0  0  0  0  0  0  0  0  0  0  0  0
   -8.9763    4.3132  -17.0522 C   0  0  0  0  0  0  0  0  0  0  0  0
   -8.3542    4.5301  -18.2793 C   0  0  0  0  0  0  0  0  0  0  0  0
   -7.0015    4.8670  -18.3310 C   0  0  0  0  0  0  0  0  0  0  0  0
   -6.2765    4.9804  -17.1476 C   0  0  0  0  0  0  0  0  0  0  0  0
   -4.9212    5.3280  -17.1860 N   0  0  0  0  0  0  0  0  0  0  0  0
   -4.1365    5.4541  -16.0725 C   0  0  0  0  0  0  0  0  0  0  0  0
   -2.9447    5.7404  -16.1603 O   0  0  0  0  0  0  0  0  0  0  0  0
   -5.0250    7.0558  -11.3778 O   0  0  0  0  0  0  0  0  0  0  0  0
   -6.2904    7.4930  -10.8710 C   0  0  0  0  0  0  0  0  0  0  0  0
   -7.2855    6.5416  -11.4038 C   0  0  0  0  0  0  0  0  0  0  0  0
   -8.1587    6.6277  -12.4770 C   0  0  0  0  0  0  0  0  0  0  0  0
   -8.8008    5.4251  -12.7091 N   0  0  0  0  0  0  0  0  0  0  0  0
   -8.3326    4.6286  -11.7802 C   0  0  0  0  0  0  0  0  0  0  0  0
   -7.4673    5.2794  -10.9568 N   0  0  0  0  0  0  0  0  0  0  0  0
   -6.8673    4.4129   -9.9627 C   0  0  0  0  0  0  0  0  0  0  0  0
   -7.7730    3.1721  -10.0275 C   0  0  0  0  0  0  0  0  0  0  0  0
   -8.4139    3.1916  -11.4362 C   0  0  0  0  0  0  0  0  0  0  0  0
  1  2  2  0
  2  3  1  0
  3  4  1  0
  4  5  1  0
  5  6  2  0
  6  7  1  0
  7  8  2  0
  8  9  1  0
  9 10  2  0
 10 11  1  0
 11 12  2  0
 12 13  1  0
 13 14  1  0
 14 15  2  0
  2 16  1  0
 16 17  1  0
 17 18  1  0
 18 19  2  0
 19 20  1  0
 20 21  2  0
 21 22  1  0
 22 23  1  0
 23 24  1  0
 24 25  1  0
 14  5  1  0
 22 18  1  0
 12  7  1  0
 25 21  1  0
M  END
>  <fragmenstein_outcome>  (777) 
acceptable

>  <exports>  (777) 
['/opt/xchem-fragalysis-2/maxwin/BulkDock/OUTPUTS/xx01zvns2b_c1_elab_bulkdock_input_1GFT1FD.sdf', '/opt/xchem-fragalysis-2/maxwin/openbind-hippo/xx01zvns2b/cycle_01/syndirella/elabs/openbind_xx01zvns2b_c1_elab_chemspace_filtered.sdf']

>  <Energy>  (777) 
-11.595315

>  <alias>  (777) 
WKISXCHXHAFHMX-UHFFFAOYSA-N-P94-P91-P94-601526

>  <fragmenstein_runtime>  (777) 
1.328348

>  <scratch_subdir>  (777) 
/opt/xchem-fragalysis-2/maxwin/BulkDock/SCRATCH/601526/WKISXCHXHAFHMX-UHFFFAOYSA-N-P94-P91-P94-601526

>  <HIPPO Compound ID>  (777) 
138877

>  <rmsd(smina/fragmenstein)>  (777) 
0.948

>  <distance_score>  (777) 
0.689974

>  <orig_smiles>  (777) 
O=C(CCc1cc2ccccc2[nH]c1=O)OCc1cnc2n1CCC2

>  <fragmenstein_mode>  (777) 
expansion

>  <inchikey>  (777) 
WKISXCHXHAFHMX-UHFFFAOYSA-N

>  <ref_pdb>  (777) 
Z3093a

>  <GNINA pK>  (777) 
nan

>  <gnina_score_min>  (777) 
5.375

>  <tags>  (777) 
xx01zvns2b_c1_elab_bulkdock_input,openbind_xx01zvns2b_c1_elab_nonasap_filtered_scored_top80percent,BulkDock Fragalysis export,openbind_xx01zvns2b_c1_elab_chemspace_filtered_scored_top80percent,fragmenstein_placed,openbind_xx01zvns2b_c1_elab_chemspace_filtered_scored,openbind_xx01zvns2b_c1_elab_chemspace_filtered_scored_top40percent,openbind_xx01zvns2b_c1_elab_chemspace_filtered_scored_top20percent,openbind_xx01zvns2b_c1_elab_chemspace_filtered_scored_top60percent,openbind_xx01zvns2b_c1_elabs_filtered

>  <smiles>  (777) 
O=C(CCc1cc2ccccc2[nH]c1=O)OCc1cnc2n1CCC2

>  <subsites>  (777) 
1 - Z4590/B/203/1

>  <gnina_score>  (777) 
5.382

>  <HIPPO Pose ID>  (777) 
76814

>  <ref_mols>  (777) 
Z1688a,Z1716a

>  <energy_score>  (777) 
-45.682643

>  <inspiration_score>  (777) 
None

>  <smina_score_min>  (777) 
-5.933

>  <fragmenstein_error>  (777) 


>  <name>  (777) 
WKISXCHXHAFHMX-UHFFFAOYSA-N-P94-P91-P94-601526

$$$$
LKUWXKKWWGPMMT-UHFFFAOYSA-N-P94-P91-P94-601526
     RDKit          3D

 25 27  0  0  0  0  0  0  0  0999 V2000
   -6.5426    2.9402  -10.6061 C   0  0  0  0  0  0  0  0  0  0  0  0
   -7.1164    4.2429  -10.0441 C   0  0  0  0  0  0  0  0  0  0  0  0
   -8.1975    3.9648   -9.0001 C   0  0  0  0  0  0  0  0  0  0  0  0
   -7.6095    5.1264  -11.0980 N   0  0  0  0  0  0  0  0  0  0  0  0
   -8.5633    4.7815  -12.0177 C   0  0  0  0  0  0  0  0  0  0  0  0
   -8.8087    5.7570  -12.8643 N   0  0  0  0  0  0  0  0  0  0  0  0
   -7.9776    6.7720  -12.4870 C   0  0  0  0  0  0  0  0  0  0  0  0
   -7.2110    6.4107  -11.3969 C   0  0  0  0  0  0  0  0  0  0  0  0
   -6.1316    7.1699  -10.7235 C   0  0  0  0  0  0  0  0  0  0  0  0
   -4.9072    6.6942  -11.2898 O   0  0  0  0  0  0  0  0  0  0  0  0
   -4.5214    7.3154  -12.4403 C   0  0  0  0  0  0  0  0  0  0  0  0
   -4.9984    8.3495  -12.8878 O   0  0  0  0  0  0  0  0  0  0  0  0
   -3.4074    6.5452  -13.0957 C   0  0  0  0  0  0  0  0  0  0  0  0
   -3.8590    5.1498  -13.5250 C   0  0  0  0  0  0  0  0  0  0  0  0
   -4.7492    5.1240  -14.7414 C   0  0  0  0  0  0  0  0  0  0  0  0
   -6.0476    4.7821  -14.6968 C   0  0  0  0  0  0  0  0  0  0  0  0
   -6.8693    4.7261  -15.9049 C   0  0  0  0  0  0  0  0  0  0  0  0
   -8.2282    4.4035  -15.8640 C   0  0  0  0  0  0  0  0  0  0  0  0
   -8.9673    4.3259  -17.0452 C   0  0  0  0  0  0  0  0  0  0  0  0
   -8.3474    4.5545  -18.2709 C   0  0  0  0  0  0  0  0  0  0  0  0
   -6.9933    4.8856  -18.3213 C   0  0  0  0  0  0  0  0  0  0  0  0
   -6.2636    4.9765  -17.1384 C   0  0  0  0  0  0  0  0  0  0  0  0
   -4.9052    5.3108  -17.1775 N   0  0  0  0  0  0  0  0  0  0  0  0
   -4.1110    5.3978  -16.0673 C   0  0  0  0  0  0  0  0  0  0  0  0
   -2.9164    5.6712  -16.1582 O   0  0  0  0  0  0  0  0  0  0  0  0
  1  2  1  0
  2  3  1  0
  2  4  1  0
  4  5  1  0
  5  6  2  0
  6  7  1  0
  7  8  2  0
  8  9  1  0
  9 10  1  0
 10 11  1  0
 11 12  2  0
 11 13  1  0
 13 14  1  0
 14 15  1  0
 15 16  2  0
 16 17  1  0
 17 18  2  0
 18 19  1  0
 19 20  2  0
 20 21  1  0
 21 22  2  0
 22 23  1  0
 23 24  1  0
 24 25  2  0
  8  4  1  0
 24 15  1  0
 22 17  1  0
M  END
>  <fragmenstein_outcome>  (778) 
acceptable

>  <exports>  (778) 
['/opt/xchem-fragalysis-2/maxwin/BulkDock/OUTPUTS/xx01zvns2b_c1_elab_bulkdock_input_1GFT1FD.sdf', '/opt/xchem-fragalysis-2/maxwin/openbind-hippo/xx01zvns2b/cycle_01/syndirella/elabs/openbind_xx01zvns2b_c1_elab_chemspace_filtered.sdf']

>  <Energy>  (778) 
-17.154534

>  <alias>  (778) 
LKUWXKKWWGPMMT-UHFFFAOYSA-N-P94-P91-P94-601526

>  <fragmenstein_runtime>  (778) 
2.980287

>  <scratch_subdir>  (778) 
/opt/xchem-fragalysis-2/maxwin/BulkDock/SCRATCH/601526/LKUWXKKWWGPMMT-UHFFFAOYSA-N-P94-P91-P94-601526

>  <HIPPO Compound ID>  (778) 
138879

>  <rmsd(smina/fragmenstein)>  (778) 
1.113

>  <distance_score>  (778) 
0.715775

>  <orig_smiles>  (778) 
CC(C)n1cncc1COC(=O)CCc1cc2ccccc2[nH]c1=O

>  <fragmenstein_mode>  (778) 
expansion

>  <inchikey>  (778) 
LKUWXKKWWGPMMT-UHFFFAOYSA-N

>  <ref_pdb>  (778) 
Z3093a

>  <GNINA pK>  (778) 
nan

>  <gnina_score_min>  (778) 
5.306

>  <tags>  (778) 
xx01zvns2b_c1_elab_bulkdock_input,openbind_xx01zvns2b_c1_elab_nonasap_filtered_scored_top80percent,BulkDock Fragalysis export,openbind_xx01zvns2b_c1_elab_chemspace_filtered_scored_top80percent,fragmenstein_placed,openbind_xx01zvns2b_c1_elab_chemspace_filtered_scored,openbind_xx01zvns2b_c1_elab_chemspace_filtered_scored_top40percent,openbind_xx01zvns2b_c1_elab_chemspace_filtered_scored_top20percent,openbind_xx01zvns2b_c1_elab_chemspace_filtered_scored_top60percent,openbind_xx01zvns2b_c1_elabs_filtered

>  <smiles>  (778) 
CC(C)n1cncc1COC(=O)CCc1cc2ccccc2[nH]c1=O

>  <subsites>  (778) 
1 - Z4590/B/203/1

>  <gnina_score>  (778) 
5.506

>  <HIPPO Pose ID>  (778) 
76818

>  <ref_mols>  (778) 
Z1688a,Z1716a

>  <energy_score>  (778) 
-50.02058

>  <inspiration_score>  (778) 
None

>  <smina_score_min>  (778) 
-5.704

>  <fragmenstein_error>  (778) 


>  <name>  (778) 
LKUWXKKWWGPMMT-UHFFFAOYSA-N-P94-P91-P94-601526

$$$$
LBFGHCVOTUMGIL-UHFFFAOYSA-N-P94-P91-P94-601526
     RDKit          3D

 26 29  0  0  0  0  0  0  0  0999 V2000
   -5.2814    8.5035  -13.5638 O   0  0  0  0  0  0  0  0  0  0  0  0
   -4.7085    7.6951  -12.8466 C   0  0  0  0  0  0  0  0  0  0  0  0
   -3.5236    6.8684  -13.2702 C   0  0  0  0  0  0  0  0  0  0  0  0
   -3.9254    5.4157  -13.5360 C   0  0  0  0  0  0  0  0  0  0  0  0
   -4.7829    5.2353  -14.7624 C   0  0  0  0  0  0  0  0  0  0  0  0
   -6.0686    4.8506  -14.7100 C   0  0  0  0  0  0  0  0  0  0  0  0
   -6.8850    4.7367  -15.9164 C   0  0  0  0  0  0  0  0  0  0  0  0
   -8.2418    4.4071  -15.8640 C   0  0  0  0  0  0  0  0  0  0  0  0
   -8.9832    4.3076  -17.0422 C   0  0  0  0  0  0  0  0  0  0  0  0
   -8.3677    4.5181  -18.2739 C   0  0  0  0  0  0  0  0  0  0  0  0
   -7.0144    4.8496  -18.3347 C   0  0  0  0  0  0  0  0  0  0  0  0
   -6.2828    4.9664  -17.1558 C   0  0  0  0  0  0  0  0  0  0  0  0
   -4.9275    5.3117  -17.2041 N   0  0  0  0  0  0  0  0  0  0  0  0
   -4.1380    5.4484  -16.0958 C   0  0  0  0  0  0  0  0  0  0  0  0
   -2.9445    5.7251  -16.1915 O   0  0  0  0  0  0  0  0  0  0  0  0
   -5.0584    7.3784  -11.5683 O   0  0  0  0  0  0  0  0  0  0  0  0
   -6.3567    7.8261  -11.1652 C   0  0  0  0  0  0  0  0  0  0  0  0
   -7.2861    6.7415  -11.5528 C   0  0  0  0  0  0  0  0  0  0  0  0
   -8.1621    6.6461  -12.6121 C   0  0  0  0  0  0  0  0  0  0  0  0
   -8.7419    5.4040  -12.6633 N   0  0  0  0  0  0  0  0  0  0  0  0
   -8.2460    4.7340  -11.6387 C   0  0  0  0  0  0  0  0  0  0  0  0
   -7.3845    5.5297  -10.9234 N   0  0  0  0  0  0  0  0  0  0  0  0
   -6.7316    5.0846   -9.7068 C   0  0  0  0  0  0  0  0  0  0  0  0
   -6.7942    3.5683   -9.5884 C   0  0  0  0  0  0  0  0  0  0  0  0
   -8.1231    3.1332   -9.8674 O   0  0  0  0  0  0  0  0  0  0  0  0
   -8.4495    3.2993  -11.2577 C   0  0  0  0  0  0  0  0  0  0  0  0
  1  2  2  0
  2  3  1  0
  3  4  1  0
  4  5  1  0
  5  6  2  0
  6  7  1  0
  7  8  2  0
  8  9  1  0
  9 10  2  0
 10 11  1  0
 11 12  2  0
 12 13  1  0
 13 14  1  0
 14 15  2  0
  2 16  1  0
 16 17  1  0
 17 18  1  0
 18 19  2  0
 19 20  1  0
 20 21  2  0
 21 22  1  0
 22 23  1  0
 23 24  1  0
 24 25  1  0
 25 26  1  0
 14  5  1  0
 22 18  1  0
 12  7  1  0
 26 21  1  0
M  END
>  <fragmenstein_outcome>  (779) 
acceptable

>  <exports>  (779) 
['/opt/xchem-fragalysis-2/maxwin/BulkDock/OUTPUTS/xx01zvns2b_c1_elab_bulkdock_input_1GFT1FD.sdf', '/opt/xchem-fragalysis-2/maxwin/openbind-hippo/xx01zvns2b/cycle_01/syndirella/elabs/openbind_xx01zvns2b_c1_elab_chemspace_filtered.sdf']

>  <Energy>  (779) 
4.952005

>  <alias>  (779) 
LBFGHCVOTUMGIL-UHFFFAOYSA-N-P94-P91-P94-601526

>  <fragmenstein_runtime>  (779) 
2.555009

>  <scratch_subdir>  (779) 
/opt/xchem-fragalysis-2/maxwin/BulkDock/SCRATCH/601526/LBFGHCVOTUMGIL-UHFFFAOYSA-N-P94-P91-P94-601526

>  <HIPPO Compound ID>  (779) 
138883

>  <rmsd(smina/fragmenstein)>  (779) 
1.012

>  <distance_score>  (779) 
0.697999

>  <orig_smiles>  (779) 
O=C(CCc1cc2ccccc2[nH]c1=O)OCc1cnc2n1CCOC2

>  <fragmenstein_mode>  (779) 
expansion

>  <inchikey>  (779) 
LBFGHCVOTUMGIL-UHFFFAOYSA-N

>  <ref_pdb>  (779) 
Z3093a

>  <GNINA pK>  (779) 
nan

>  <gnina_score_min>  (779) 
5.257

>  <tags>  (779) 
xx01zvns2b_c1_elab_bulkdock_input,openbind_xx01zvns2b_c1_elab_nonasap_filtered_scored_top80percent,BulkDock Fragalysis export,openbind_xx01zvns2b_c1_elab_chemspace_filtered_scored_top80percent,fragmenstein_placed,openbind_xx01zvns2b_c1_elab_chemspace_filtered_scored,openbind_xx01zvns2b_c1_elab_chemspace_filtered_scored_top40percent,openbind_xx01zvns2b_c1_elab_chemspace_filtered_scored_top20percent,openbind_xx01zvns2b_c1_elab_chemspace_filtered_scored_top60percent,openbind_xx01zvns2b_c1_elabs_filtered

>  <smiles>  (779) 
O=C(CCc1cc2ccccc2[nH]c1=O)OCc1cnc2n1CCOC2

>  <subsites>  (779) 
1 - Z4590/B/203/1

>  <gnina_score>  (779) 
5.247

>  <HIPPO Pose ID>  (779) 
76826

>  <ref_mols>  (779) 
Z1688a,Z1716a

>  <energy_score>  (779) 
-43.989197

>  <inspiration_score>  (779) 
None

>  <smina_score_min>  (779) 
-6.152

>  <fragmenstein_error>  (779) 


>  <name>  (779) 
LBFGHCVOTUMGIL-UHFFFAOYSA-N-P94-P91-P94-601526

$$$$
FYATZSXLEPKAGQ-UHFFFAOYSA-N-P94-P91-P94-601526
     RDKit          3D

 26 29  0  0  0  0  0  0  0  0999 V2000
   -5.8652    8.2712  -13.0060 O   0  0  0  0  0  0  0  0  0  0  0  0
   -5.2190    7.4366  -12.3880 C   0  0  0  0  0  0  0  0  0  0  0  0
   -3.9473    6.8024  -12.8853 C   0  0  0  0  0  0  0  0  0  0  0  0
   -4.1837    5.3513  -13.2986 C   0  0  0  0  0  0  0  0  0  0  0  0
   -5.0021    5.2195  -14.5571 C   0  0  0  0  0  0  0  0  0  0  0  0
   -6.2986    4.8640  -14.5606 C   0  0  0  0  0  0  0  0  0  0  0  0
   -7.0474    4.7547  -15.8113 C   0  0  0  0  0  0  0  0  0  0  0  0
   -8.4047    4.4274  -15.8258 C   0  0  0  0  0  0  0  0  0  0  0  0
   -9.0815    4.3178  -17.0423 C   0  0  0  0  0  0  0  0  0  0  0  0
   -8.4032    4.5204  -18.2427 C   0  0  0  0  0  0  0  0  0  0  0  0
   -7.0495    4.8528  -18.2362 C   0  0  0  0  0  0  0  0  0  0  0  0
   -6.3805    4.9746  -17.0211 C   0  0  0  0  0  0  0  0  0  0  0  0
   -5.0246    5.3184  -17.0019 N   0  0  0  0  0  0  0  0  0  0  0  0
   -4.2929    5.4567  -15.8556 C   0  0  0  0  0  0  0  0  0  0  0  0
   -3.1029    5.7588  -15.8870 O   0  0  0  0  0  0  0  0  0  0  0  0
   -5.5574    6.9186  -11.1760 O   0  0  0  0  0  0  0  0  0  0  0  0
   -6.8328    7.3307  -10.6703 C   0  0  1  0  0  0  0  0  0  0  0  0
   -7.9462    6.4944  -11.3203 C   0  0  0  0  0  0  0  0  0  0  0  0
   -7.8362    5.0224  -10.9024 C   0  0  0  0  0  0  0  0  0  0  0  0
   -7.9489    4.8553   -9.3853 C   0  0  0  0  0  0  0  0  0  0  0  0
   -7.2834    5.9114   -8.6478 N   0  0  0  0  0  0  0  0  0  0  0  0
   -6.7814    7.0626   -9.2073 C   0  0  0  0  0  0  0  0  0  0  0  0
   -6.2970    7.7848   -8.1401 C   0  0  0  0  0  0  0  0  0  0  0  0
   -6.5280    7.1261   -6.9589 N   0  0  0  0  0  0  0  0  0  0  0  0
   -7.1359    6.0069   -7.2914 C   0  0  0  0  0  0  0  0  0  0  0  0
   -7.7517    4.7462   -5.9960 Br  0  0  0  0  0  0  0  0  0  0  0  0
  1  2  2  0
  2  3  1  0
  3  4  1  0
  4  5  1  0
  5  6  2  0
  6  7  1  0
  7  8  2  0
  8  9  1  0
  9 10  2  0
 10 11  1  0
 11 12  2  0
 12 13  1  0
 13 14  1  0
 14 15  2  0
  2 16  1  0
 17 16  1  6
 17 18  1  0
 18 19  1  0
 19 20  1  0
 20 21  1  0
 21 22  1  0
 22 23  2  0
 23 24  1  0
 24 25  2  0
 25 26  1  0
 14  5  1  0
 22 17  1  0
 12  7  1  0
 25 21  1  0
M  END
>  <fragmenstein_outcome>  (780) 
acceptable

>  <exports>  (780) 
['/opt/xchem-fragalysis-2/maxwin/BulkDock/OUTPUTS/xx01zvns2b_c1_elab_bulkdock_input_1GFT1FD.sdf', '/opt/xchem-fragalysis-2/maxwin/openbind-hippo/xx01zvns2b/cycle_01/syndirella/elabs/openbind_xx01zvns2b_c1_elab_chemspace_filtered.sdf']

>  <Energy>  (780) 
-18.090444

>  <alias>  (780) 
FYATZSXLEPKAGQ-UHFFFAOYSA-N-P94-P91-P94-601526

>  <fragmenstein_runtime>  (780) 
4.275487

>  <scratch_subdir>  (780) 
/opt/xchem-fragalysis-2/maxwin/BulkDock/SCRATCH/601526/FYATZSXLEPKAGQ-UHFFFAOYSA-N-P94-P91-P94-601526

>  <HIPPO Compound ID>  (780) 
138884

>  <rmsd(smina/fragmenstein)>  (780) 
1.444

>  <distance_score>  (780) 
0.860459

>  <orig_smiles>  (780) 
O=C(CCc1cc2ccccc2[nH]c1=O)OC1CCCn2c1cnc2Br

>  <fragmenstein_mode>  (780) 
expansion

>  <inchikey>  (780) 
FYATZSXLEPKAGQ-UHFFFAOYSA-N

>  <ref_pdb>  (780) 
Z3093a

>  <GNINA pK>  (780) 
nan

>  <gnina_score_min>  (780) 
5.358

>  <tags>  (780) 
xx01zvns2b_c1_elab_bulkdock_input,openbind_xx01zvns2b_c1_elab_nonasap_filtered_scored_top80percent,BulkDock Fragalysis export,openbind_xx01zvns2b_c1_elab_chemspace_filtered_scored_top80percent,fragmenstein_placed,openbind_xx01zvns2b_c1_elab_chemspace_filtered_scored,openbind_xx01zvns2b_c1_elab_chemspace_filtered_scored_top40percent,openbind_xx01zvns2b_c1_elab_chemspace_filtered_scored_top20percent,openbind_xx01zvns2b_c1_elab_chemspace_filtered_scored_top60percent,openbind_xx01zvns2b_c1_elabs_filtered

>  <smiles>  (780) 
O=C(CCc1cc2ccccc2[nH]c1=O)OC1CCCn2c1cnc2Br

>  <subsites>  (780) 
1 - Z4590/B/203/1

>  <gnina_score>  (780) 
5.092

>  <HIPPO Pose ID>  (780) 
76828

>  <ref_mols>  (780) 
Z1688a,Z1716a

>  <energy_score>  (780) 
-38.650955

>  <inspiration_score>  (780) 
None

>  <smina_score_min>  (780) 
-6.616

>  <fragmenstein_error>  (780) 


>  <name>  (780) 
FYATZSXLEPKAGQ-UHFFFAOYSA-N-P94-P91-P94-601526

$$$$
OYKFPACNNGTTDU-UHFFFAOYSA-N-P91-P91-P94-601526
     RDKit          3D

 26 28  0  0  0  0  0  0  0  0999 V2000
   -5.0122    8.4398  -13.3890 O   0  0  0  0  0  0  0  0  0  0  0  0
   -4.5468    7.5347  -12.7104 C   0  0  0  0  0  0  0  0  0  0  0  0
   -3.4290    6.6311  -13.1520 C   0  0  0  0  0  0  0  0  0  0  0  0
   -3.9428    5.2301  -13.4864 C   0  0  0  0  0  0  0  0  0  0  0  0
   -4.8034    5.1544  -14.7221 C   0  0  0  0  0  0  0  0  0  0  0  0
   -6.1011    4.8076  -14.6931 C   0  0  0  0  0  0  0  0  0  0  0  0
   -6.9034    4.7343  -15.9133 C   0  0  0  0  0  0  0  0  0  0  0  0
   -8.2600    4.4012  -15.8877 C   0  0  0  0  0  0  0  0  0  0  0  0
   -8.9814    4.3056  -17.0795 C   0  0  0  0  0  0  0  0  0  0  0  0
   -8.3492    4.5395  -18.2996 C   0  0  0  0  0  0  0  0  0  0  0  0
   -6.9968    4.8810  -18.3326 C   0  0  0  0  0  0  0  0  0  0  0  0
   -6.2822    4.9796  -17.1402 C   0  0  0  0  0  0  0  0  0  0  0  0
   -4.9225    5.3119  -17.1633 N   0  0  0  0  0  0  0  0  0  0  0  0
   -4.1422    5.3976  -16.0430 C   0  0  0  0  0  0  0  0  0  0  0  0
   -2.9421    5.6512  -16.1182 O   0  0  0  0  0  0  0  0  0  0  0  0
   -4.9723    7.1758  -11.4643 O   0  0  0  0  0  0  0  0  0  0  0  0
   -6.2282    7.7377  -11.0754 C   0  0  0  0  0  0  0  0  0  0  0  0
   -7.2458    6.7460  -11.4964 C   0  0  0  0  0  0  0  0  0  0  0  0
   -8.0269    6.8118  -12.6349 C   0  0  0  0  0  0  0  0  0  0  0  0
   -8.7710    5.6853  -12.7943 N   0  0  0  0  0  0  0  0  0  0  0  0
   -8.4708    4.9299  -11.7639 C   0  0  0  0  0  0  0  0  0  0  0  0
   -7.5662    5.5355  -10.9200 N   0  0  0  0  0  0  0  0  0  0  0  0
   -7.1156    4.8559   -9.7171 C   0  0  0  0  0  0  0  0  0  0  0  0
   -6.2219    5.6000   -8.7502 C   0  0  0  0  0  0  0  0  0  0  0  0
   -5.8857    4.8022   -7.7020 F   0  0  0  0  0  0  0  0  0  0  0  0
   -6.8821    6.6563   -8.2070 F   0  0  0  0  0  0  0  0  0  0  0  0
  1  2  2  0
  2  3  1  0
  3  4  1  0
  4  5  1  0
  5  6  2  0
  6  7  1  0
  7  8  2  0
  8  9  1  0
  9 10  2  0
 10 11  1  0
 11 12  2  0
 12 13  1  0
 13 14  1  0
 14 15  2  0
  2 16  1  0
 16 17  1  0
 17 18  1  0
 18 19  2  0
 19 20  1  0
 20 21  2  0
 21 22  1  0
 22 23  1  0
 23 24  1  0
 24 25  1  0
 24 26  1  0
 14  5  1  0
 22 18  1  0
 12  7  1  0
M  END
>  <fragmenstein_outcome>  (781) 
acceptable

>  <exports>  (781) 
['/opt/xchem-fragalysis-2/maxwin/BulkDock/OUTPUTS/xx01zvns2b_c1_elab_bulkdock_input_1GFT1FD.sdf', '/opt/xchem-fragalysis-2/maxwin/openbind-hippo/xx01zvns2b/cycle_01/syndirella/elabs/openbind_xx01zvns2b_c1_elab_chemspace_filtered.sdf']

>  <Energy>  (781) 
-11.539099

>  <alias>  (781) 
OYKFPACNNGTTDU-UHFFFAOYSA-N-P91-P91-P94-601526

>  <fragmenstein_runtime>  (781) 
2.139842

>  <scratch_subdir>  (781) 
/opt/xchem-fragalysis-2/maxwin/BulkDock/SCRATCH/601526/OYKFPACNNGTTDU-UHFFFAOYSA-N-P91-P91-P94-601526

>  <HIPPO Compound ID>  (781) 
138885

>  <rmsd(smina/fragmenstein)>  (781) 
1.132

>  <distance_score>  (781) 
0.676735

>  <orig_smiles>  (781) 
O=C(CCc1cc2ccccc2[nH]c1=O)OCc1cncn1CC(F)F

>  <fragmenstein_mode>  (781) 
expansion

>  <inchikey>  (781) 
OYKFPACNNGTTDU-UHFFFAOYSA-N

>  <ref_pdb>  (781) 
Z3093a

>  <GNINA pK>  (781) 
nan

>  <gnina_score_min>  (781) 
5.347

>  <tags>  (781) 
xx01zvns2b_c1_elab_bulkdock_input,openbind_xx01zvns2b_c1_elab_nonasap_filtered_scored_top80percent,BulkDock Fragalysis export,openbind_xx01zvns2b_c1_elab_chemspace_filtered_scored_top80percent,fragmenstein_placed,openbind_xx01zvns2b_c1_elab_chemspace_filtered_scored,openbind_xx01zvns2b_c1_elab_chemspace_filtered_scored_top40percent,openbind_xx01zvns2b_c1_elab_chemspace_filtered_scored_top20percent,openbind_xx01zvns2b_c1_elab_chemspace_filtered_scored_top60percent,openbind_xx01zvns2b_c1_elabs_filtered

>  <smiles>  (781) 
O=C(CCc1cc2ccccc2[nH]c1=O)OCc1cncn1CC(F)F

>  <subsites>  (781) 
1 - Z4590/B/203/1

>  <gnina_score>  (781) 
5.409

>  <HIPPO Pose ID>  (781) 
76829

>  <ref_mols>  (781) 
Z1688a,Z1716a

>  <energy_score>  (781) 
-31.716251

>  <inspiration_score>  (781) 
None

>  <smina_score_min>  (781) 
-5.463

>  <fragmenstein_error>  (781) 


>  <name>  (781) 
OYKFPACNNGTTDU-UHFFFAOYSA-N-P91-P91-P94-601526

$$$$
WTMJGLVTKCGDIS-UHFFFAOYSA-N-P94-P91-P94-601526
     RDKit          3D

 27 30  0  0  0  0  0  0  0  0999 V2000
   -5.2104    8.5024  -12.8338 O   0  0  0  0  0  0  0  0  0  0  0  0
   -4.6149    7.5284  -12.3962 C   0  0  0  0  0  0  0  0  0  0  0  0
   -3.4961    6.8240  -13.1188 C   0  0  0  0  0  0  0  0  0  0  0  0
   -3.8826    5.4005  -13.5210 C   0  0  0  0  0  0  0  0  0  0  0  0
   -4.7607    5.3153  -14.7433 C   0  0  0  0  0  0  0  0  0  0  0  0
   -6.0605    4.9850  -14.6897 C   0  0  0  0  0  0  0  0  0  0  0  0
   -6.8750    4.8443  -15.8928 C   0  0  0  0  0  0  0  0  0  0  0  0
   -8.2330    4.5198  -15.8338 C   0  0  0  0  0  0  0  0  0  0  0  0
   -8.9639    4.3625  -17.0125 C   0  0  0  0  0  0  0  0  0  0  0  0
   -8.3399    4.5244  -18.2481 C   0  0  0  0  0  0  0  0  0  0  0  0
   -6.9865    4.8567  -18.3136 C   0  0  0  0  0  0  0  0  0  0  0  0
   -6.2616    5.0179  -17.1357 C   0  0  0  0  0  0  0  0  0  0  0  0
   -4.9026    5.3516  -17.1865 N   0  0  0  0  0  0  0  0  0  0  0  0
   -4.1153    5.5123  -16.0783 C   0  0  0  0  0  0  0  0  0  0  0  0
   -2.9234    5.7949  -16.1758 O   0  0  0  0  0  0  0  0  0  0  0  0
   -4.8555    6.9241  -11.1978 O   0  0  0  0  0  0  0  0  0  0  0  0
   -6.0826    7.2931  -10.5514 C   0  0  0  0  0  0  0  0  0  0  0  0
   -7.1105    6.3783  -11.0974 C   0  0  0  0  0  0  0  0  0  0  0  0
   -8.1557    6.5893  -11.9699 C   0  0  0  0  0  0  0  0  0  0  0  0
   -8.7821    8.2580  -12.5681 Br  0  0  0  0  0  0  0  0  0  0  0  0
   -8.6977    5.4052  -12.3961 N   0  0  0  0  0  0  0  0  0  0  0  0
   -8.0487    4.4657  -11.7344 C   0  0  0  0  0  0  0  0  0  0  0  0
   -7.1492    5.0269  -10.8618 N   0  0  0  0  0  0  0  0  0  0  0  0
   -6.2886    4.2307  -10.0019 C   0  0  0  0  0  0  0  0  0  0  0  0
   -6.7203    2.7683  -10.0131 C   0  0  0  0  0  0  0  0  0  0  0  0
   -6.9389    2.3774  -11.3716 O   0  0  0  0  0  0  0  0  0  0  0  0
   -8.1395    2.9817  -11.8892 C   0  0  0  0  0  0  0  0  0  0  0  0
  1  2  2  0
  2  3  1  0
  3  4  1  0
  4  5  1  0
  5  6  2  0
  6  7  1  0
  7  8  2  0
  8  9  1  0
  9 10  2  0
 10 11  1  0
 11 12  2  0
 12 13  1  0
 13 14  1  0
 14 15  2  0
  2 16  1  0
 16 17  1  0
 17 18  1  0
 18 19  2  0
 19 20  1  0
 19 21  1  0
 21 22  2  0
 22 23  1  0
 23 24  1  0
 24 25  1  0
 25 26  1  0
 26 27  1  0
 14  5  1  0
 23 18  1  0
 12  7  1  0
 27 22  1  0
M  END
>  <fragmenstein_outcome>  (782) 
acceptable

>  <exports>  (782) 
['/opt/xchem-fragalysis-2/maxwin/BulkDock/OUTPUTS/xx01zvns2b_c1_elab_bulkdock_input_1GFT1FD.sdf', '/opt/xchem-fragalysis-2/maxwin/openbind-hippo/xx01zvns2b/cycle_01/syndirella/elabs/openbind_xx01zvns2b_c1_elab_chemspace_filtered.sdf']

>  <Energy>  (782) 
-0.435168

>  <alias>  (782) 
WTMJGLVTKCGDIS-UHFFFAOYSA-N-P94-P91-P94-601526

>  <fragmenstein_runtime>  (782) 
2.616199

>  <scratch_subdir>  (782) 
/opt/xchem-fragalysis-2/maxwin/BulkDock/SCRATCH/601526/WTMJGLVTKCGDIS-UHFFFAOYSA-N-P94-P91-P94-601526

>  <HIPPO Compound ID>  (782) 
138897

>  <rmsd(smina/fragmenstein)>  (782) 
0.965

>  <distance_score>  (782) 
0.746591

>  <orig_smiles>  (782) 
O=C(CCc1cc2ccccc2[nH]c1=O)OCc1c(Br)nc2n1CCOC2

>  <fragmenstein_mode>  (782) 
expansion

>  <inchikey>  (782) 
WTMJGLVTKCGDIS-UHFFFAOYSA-N

>  <ref_pdb>  (782) 
Z3093a

>  <GNINA pK>  (782) 
nan

>  <gnina_score_min>  (782) 
5.462

>  <tags>  (782) 
xx01zvns2b_c1_elab_bulkdock_input,openbind_xx01zvns2b_c1_elab_nonasap_filtered_scored_top80percent,BulkDock Fragalysis export,openbind_xx01zvns2b_c1_elab_chemspace_filtered_scored_top80percent,fragmenstein_placed,openbind_xx01zvns2b_c1_elab_chemspace_filtered_scored,openbind_xx01zvns2b_c1_elab_chemspace_filtered_scored_top40percent,openbind_xx01zvns2b_c1_elab_chemspace_filtered_scored_top20percent,openbind_xx01zvns2b_c1_elab_chemspace_filtered_scored_top60percent,openbind_xx01zvns2b_c1_elabs_filtered

>  <smiles>  (782) 
O=C(CCc1cc2ccccc2[nH]c1=O)OCc1c(Br)nc2n1CCOC2

>  <subsites>  (782) 
1 - Z4590/B/203/1

>  <gnina_score>  (782) 
5.279

>  <HIPPO Pose ID>  (782) 
76854

>  <ref_mols>  (782) 
Z1688a,Z1716a

>  <energy_score>  (782) 
-54.548288

>  <inspiration_score>  (782) 
None

>  <smina_score_min>  (782) 
-6.202

>  <fragmenstein_error>  (782) 


>  <name>  (782) 
WTMJGLVTKCGDIS-UHFFFAOYSA-N-P94-P91-P94-601526

$$$$
RXAQOAJDTXGSMN-UHFFFAOYSA-N-P94-P91-P94-601526
     RDKit          3D

 29 32  0  0  0  0  0  0  0  0999 V2000
   -4.6019    8.4599  -14.3874 O   0  0  0  0  0  0  0  0  0  0  0  0
   -4.5603    7.8269  -13.3344 C   0  0  0  0  0  0  0  0  0  0  0  0
   -3.5831    6.6928  -13.1387 C   0  0  0  0  0  0  0  0  0  0  0  0
   -4.1197    5.2894  -13.4174 C   0  0  0  0  0  0  0  0  0  0  0  0
   -4.9036    5.1293  -14.6904 C   0  0  0  0  0  0  0  0  0  0  0  0
   -6.1925    4.7546  -14.6989 C   0  0  0  0  0  0  0  0  0  0  0  0
   -6.9643    4.6854  -15.9334 C   0  0  0  0  0  0  0  0  0  0  0  0
   -8.3293    4.3877  -15.9260 C   0  0  0  0  0  0  0  0  0  0  0  0
   -9.0308    4.3118  -17.1280 C   0  0  0  0  0  0  0  0  0  0  0  0
   -8.3666    4.5227  -18.3343 C   0  0  0  0  0  0  0  0  0  0  0  0
   -7.0063    4.8369  -18.3471 C   0  0  0  0  0  0  0  0  0  0  0  0
   -6.3126    4.9263  -17.1442 C   0  0  0  0  0  0  0  0  0  0  0  0
   -4.9491    5.2480  -17.1341 N   0  0  0  0  0  0  0  0  0  0  0  0
   -4.1989    5.3436  -15.9927 C   0  0  0  0  0  0  0  0  0  0  0  0
   -2.9915    5.5677  -16.0319 O   0  0  0  0  0  0  0  0  0  0  0  0
   -5.3419    8.1990  -12.2969 O   0  0  0  0  0  0  0  0  0  0  0  0
   -5.7293    7.3319  -11.2159 C   0  0  0  0  0  0  0  0  0  0  0  0
   -6.9442    6.5950  -11.6475 C   0  0  0  0  0  0  0  0  0  0  0  0
   -7.8289    6.8425  -12.6806 C   0  0  0  0  0  0  0  0  0  0  0  0
   -8.7623    5.8484  -12.7837 N   0  0  0  0  0  0  0  0  0  0  0  0
   -8.4932    5.0209  -11.7996 C   0  0  0  0  0  0  0  0  0  0  0  0
   -7.4425    5.4605  -11.0418 N   0  0  0  0  0  0  0  0  0  0  0  0
   -6.9610    4.7678   -9.8510 C   0  0  0  0  0  0  0  0  0  0  0  0
   -6.8371    5.6612   -8.6382 C   0  0  0  0  0  0  0  0  0  0  0  0
   -7.8047    6.6298   -8.3279 C   0  0  0  0  0  0  0  0  0  0  0  0
   -7.6532    7.4540   -7.2122 C   0  0  0  0  0  0  0  0  0  0  0  0
   -6.5520    7.3002   -6.3738 C   0  0  0  0  0  0  0  0  0  0  0  0
   -5.6028    6.3180   -6.6472 C   0  0  0  0  0  0  0  0  0  0  0  0
   -5.7470    5.4987   -7.7686 C   0  0  0  0  0  0  0  0  0  0  0  0
  1  2  2  0
  2  3  1  0
  3  4  1  0
  4  5  1  0
  5  6  2  0
  6  7  1  0
  7  8  2  0
  8  9  1  0
  9 10  2  0
 10 11  1  0
 11 12  2  0
 12 13  1  0
 13 14  1  0
 14 15  2  0
  2 16  1  0
 16 17  1  0
 17 18  1  0
 18 19  2  0
 19 20  1  0
 20 21  2  0
 21 22  1  0
 22 23  1  0
 23 24  1  0
 24 25  2  0
 25 26  1  0
 26 27  2  0
 27 28  1  0
 28 29  2  0
 14  5  1  0
 22 18  1  0
 29 24  1  0
 12  7  1  0
M  END
>  <fragmenstein_outcome>  (783) 
acceptable

>  <exports>  (783) 
['/opt/xchem-fragalysis-2/maxwin/BulkDock/OUTPUTS/xx01zvns2b_c1_elab_bulkdock_input_1GFT1FD.sdf', '/opt/xchem-fragalysis-2/maxwin/openbind-hippo/xx01zvns2b/cycle_01/syndirella/elabs/openbind_xx01zvns2b_c1_elab_chemspace_filtered.sdf']

>  <Energy>  (783) 
27.073133

>  <alias>  (783) 
RXAQOAJDTXGSMN-UHFFFAOYSA-N-P94-P91-P94-601526

>  <fragmenstein_runtime>  (783) 
4.087981

>  <scratch_subdir>  (783) 
/opt/xchem-fragalysis-2/maxwin/BulkDock/SCRATCH/601526/RXAQOAJDTXGSMN-UHFFFAOYSA-N-P94-P91-P94-601526

>  <HIPPO Compound ID>  (783) 
138902

>  <rmsd(smina/fragmenstein)>  (783) 
1.189

>  <distance_score>  (783) 
0.725508

>  <orig_smiles>  (783) 
O=C(CCc1cc2ccccc2[nH]c1=O)OCc1cncn1Cc1ccccc1

>  <fragmenstein_mode>  (783) 
expansion

>  <inchikey>  (783) 
RXAQOAJDTXGSMN-UHFFFAOYSA-N

>  <ref_pdb>  (783) 
Z3093a

>  <GNINA pK>  (783) 
nan

>  <gnina_score_min>  (783) 
5.546

>  <tags>  (783) 
xx01zvns2b_c1_elab_bulkdock_input,openbind_xx01zvns2b_c1_elab_nonasap_filtered_scored_top80percent,BulkDock Fragalysis export,openbind_xx01zvns2b_c1_elab_chemspace_filtered_scored_top80percent,fragmenstein_placed,openbind_xx01zvns2b_c1_elab_chemspace_filtered_scored,openbind_xx01zvns2b_c1_elab_chemspace_filtered_scored_top40percent,openbind_xx01zvns2b_c1_elab_chemspace_filtered_scored_top20percent,openbind_xx01zvns2b_c1_elab_chemspace_filtered_scored_top60percent,openbind_xx01zvns2b_c1_elabs_filtered

>  <smiles>  (783) 
O=C(CCc1cc2ccccc2[nH]c1=O)OCc1cncn1Cc1ccccc1

>  <subsites>  (783) 
1 - Z4590/B/203/1

>  <gnina_score>  (783) 
5.582

>  <HIPPO Pose ID>  (783) 
76864

>  <ref_mols>  (783) 
Z1688a,Z1716a

>  <energy_score>  (783) 
-16.314312

>  <inspiration_score>  (783) 
None

>  <smina_score_min>  (783) 
-5.887

>  <fragmenstein_error>  (783) 


>  <name>  (783) 
RXAQOAJDTXGSMN-UHFFFAOYSA-N-P94-P91-P94-601526

$$$$
IXQYOKHGBOSDNI-UHFFFAOYSA-N-P91-P91-P94-601526
     RDKit          3D

 30 33  0  0  0  0  0  0  0  0999 V2000
   -3.6719    6.9261  -10.8064 O   0  0  0  0  0  0  0  0  0  0  0  0
   -4.0926    7.1876  -11.9257 C   0  0  0  0  0  0  0  0  0  0  0  0
   -3.4125    6.7657  -13.1987 C   0  0  0  0  0  0  0  0  0  0  0  0
   -3.8505    5.3453  -13.5674 C   0  0  0  0  0  0  0  0  0  0  0  0
   -4.7504    5.2744  -14.7754 C   0  0  0  0  0  0  0  0  0  0  0  0
   -6.0346    4.8853  -14.7219 C   0  0  0  0  0  0  0  0  0  0  0  0
   -6.8608    4.7873  -15.9239 C   0  0  0  0  0  0  0  0  0  0  0  0
   -8.2102    4.4281  -15.8708 C   0  0  0  0  0  0  0  0  0  0  0  0
   -8.9495    4.3042  -17.0492 C   0  0  0  0  0  0  0  0  0  0  0  0
   -8.3419    4.5324  -18.2828 C   0  0  0  0  0  0  0  0  0  0  0  0
   -6.9973    4.9002  -18.3428 C   0  0  0  0  0  0  0  0  0  0  0  0
   -6.2662    5.0318  -17.1641 C   0  0  0  0  0  0  0  0  0  0  0  0
   -4.9201    5.4126  -17.2136 N   0  0  0  0  0  0  0  0  0  0  0  0
   -4.1307    5.5635  -16.1065 C   0  0  0  0  0  0  0  0  0  0  0  0
   -2.9568    5.9137  -16.1997 O   0  0  0  0  0  0  0  0  0  0  0  0
   -5.2675    7.8039  -12.2034 O   0  0  0  0  0  0  0  0  0  0  0  0
   -6.2309    7.8253  -11.1431 C   0  0  0  0  0  0  0  0  0  0  0  0
   -7.1876    6.7506  -11.4998 C   0  0  0  0  0  0  0  0  0  0  0  0
   -8.1326    6.7401  -12.5052 C   0  0  0  0  0  0  0  0  0  0  0  0
   -8.6921    5.5048  -12.6447 N   0  0  0  0  0  0  0  0  0  0  0  0
   -8.1288    4.7675  -11.7155 C   0  0  0  0  0  0  0  0  0  0  0  0
   -8.3617    3.0652  -11.5783 S   0  0  0  0  0  0  0  0  0  0  0  0
   -7.2466    5.4831  -10.9424 N   0  0  0  0  0  0  0  0  0  0  0  0
   -6.4235    4.9646   -9.8536 C   0  0  0  0  0  0  0  0  0  0  0  0
   -6.9051    5.4067   -8.4930 C   0  0  0  0  0  0  0  0  0  0  0  0
   -6.1096    6.2415   -7.6930 C   0  0  0  0  0  0  0  0  0  0  0  0
   -6.5432    6.6370   -6.4262 C   0  0  0  0  0  0  0  0  0  0  0  0
   -7.7691    6.1911   -5.9373 C   0  0  0  0  0  0  0  0  0  0  0  0
   -8.5600    5.3465   -6.7131 C   0  0  0  0  0  0  0  0  0  0  0  0
   -8.1317    4.9559   -7.9834 C   0  0  0  0  0  0  0  0  0  0  0  0
  1  2  2  0
  2  3  1  0
  3  4  1  0
  4  5  1  0
  5  6  2  0
  6  7  1  0
  7  8  2  0
  8  9  1  0
  9 10  2  0
 10 11  1  0
 11 12  2  0
 12 13  1  0
 13 14  1  0
 14 15  2  0
  2 16  1  0
 16 17  1  0
 17 18  1  0
 18 19  2  0
 19 20  1  0
 20 21  2  0
 21 22  1  0
 21 23  1  0
 23 24  1  0
 24 25  1  0
 25 26  2  0
 26 27  1  0
 27 28  2  0
 28 29  1  0
 29 30  2  0
 14  5  1  0
 23 18  1  0
 30 25  1  0
 12  7  1  0
M  END
>  <fragmenstein_outcome>  (784) 
acceptable

>  <exports>  (784) 
['/opt/xchem-fragalysis-2/maxwin/BulkDock/OUTPUTS/xx01zvns2b_c1_elab_bulkdock_input_1GFT1FD.sdf', '/opt/xchem-fragalysis-2/maxwin/openbind-hippo/xx01zvns2b/cycle_01/syndirella/elabs/openbind_xx01zvns2b_c1_elab_chemspace_filtered.sdf']

>  <Energy>  (784) 
2.779479

>  <alias>  (784) 
IXQYOKHGBOSDNI-UHFFFAOYSA-N-P91-P91-P94-601526

>  <fragmenstein_runtime>  (784) 
3.166316

>  <scratch_subdir>  (784) 
/opt/xchem-fragalysis-2/maxwin/BulkDock/SCRATCH/601526/IXQYOKHGBOSDNI-UHFFFAOYSA-N-P91-P91-P94-601526

>  <HIPPO Compound ID>  (784) 
138903

>  <rmsd(smina/fragmenstein)>  (784) 
1.309

>  <distance_score>  (784) 
0.851221

>  <orig_smiles>  (784) 
O=C(CCc1cc2ccccc2[nH]c1=O)OCc1cnc(S)n1Cc1ccccc1

>  <fragmenstein_mode>  (784) 
expansion

>  <inchikey>  (784) 
IXQYOKHGBOSDNI-UHFFFAOYSA-N

>  <ref_pdb>  (784) 
Z3093a

>  <GNINA pK>  (784) 
nan

>  <gnina_score_min>  (784) 
5.731

>  <tags>  (784) 
xx01zvns2b_c1_elab_bulkdock_input,openbind_xx01zvns2b_c1_elab_nonasap_filtered_scored_top80percent,BulkDock Fragalysis export,openbind_xx01zvns2b_c1_elab_chemspace_filtered_scored_top80percent,fragmenstein_placed,openbind_xx01zvns2b_c1_elab_chemspace_filtered_scored,openbind_xx01zvns2b_c1_elab_chemspace_filtered_scored_top40percent,openbind_xx01zvns2b_c1_elab_chemspace_filtered_scored_top20percent,openbind_xx01zvns2b_c1_elab_chemspace_filtered_scored_top60percent,openbind_xx01zvns2b_c1_elabs_filtered

>  <smiles>  (784) 
O=C(CCc1cc2ccccc2[nH]c1=O)OCc1cnc(S)n1Cc1ccccc1

>  <subsites>  (784) 
1 - Z4590/B/203/1

>  <gnina_score>  (784) 
5.661

>  <HIPPO Pose ID>  (784) 
76865

>  <ref_mols>  (784) 
Z1688a,Z1716a

>  <energy_score>  (784) 
-42.826788

>  <inspiration_score>  (784) 
None

>  <smina_score_min>  (784) 
-6.598

>  <fragmenstein_error>  (784) 


>  <name>  (784) 
IXQYOKHGBOSDNI-UHFFFAOYSA-N-P91-P91-P94-601526

$$$$
UXGFPEUNXVFLIG-UHFFFAOYSA-N-P94-P91-P94-601526
     RDKit          3D

 30 33  0  0  0  0  0  0  0  0999 V2000
   -2.7990    7.7371  -14.2661 N   0  0  0  0  0  0  0  0  0  0  0  0
   -3.4891    7.0049  -13.1713 C   0  0  2  0  0  0  0  0  0  0  0  0
   -3.8546    5.5454  -13.5255 C   0  0  0  0  0  0  0  0  0  0  0  0
   -4.6816    5.3363  -14.7697 C   0  0  0  0  0  0  0  0  0  0  0  0
   -4.1440    5.4965  -16.0369 C   0  0  0  0  0  0  0  0  0  0  0  0
   -4.8360    5.3535  -17.1899 N   0  0  0  0  0  0  0  0  0  0  0  0
   -6.1387    5.0174  -17.1124 C   0  0  0  0  0  0  0  0  0  0  0  0
   -6.8875    4.8699  -18.2726 C   0  0  0  0  0  0  0  0  0  0  0  0
   -8.2431    4.5274  -18.2383 C   0  0  0  0  0  0  0  0  0  0  0  0
   -8.8763    4.3259  -17.0203 C   0  0  0  0  0  0  0  0  0  0  0  0
   -8.1460    4.4532  -15.8423 C   0  0  0  0  0  0  0  0  0  0  0  0
   -6.7823    4.8024  -15.8793 C   0  0  0  0  0  0  0  0  0  0  0  0
   -6.0183    4.9482  -14.7109 C   0  0  0  0  0  0  0  0  0  0  0  0
   -4.7309    7.7825  -12.7147 C   0  0  0  0  0  0  0  0  0  0  0  0
   -5.3313    8.6033  -13.3985 O   0  0  0  0  0  0  0  0  0  0  0  0
   -5.0537    7.4261  -11.4420 O   0  0  0  0  0  0  0  0  0  0  0  0
   -6.3518    7.8169  -10.9904 C   0  0  0  0  0  0  0  0  0  0  0  0
   -7.2590    6.7300  -11.4224 C   0  0  0  0  0  0  0  0  0  0  0  0
   -8.1087    6.6957  -12.5080 C   0  0  0  0  0  0  0  0  0  0  0  0
   -8.6751    5.4628  -12.6487 N   0  0  0  0  0  0  0  0  0  0  0  0
   -8.1904    4.7451  -11.6613 C   0  0  0  0  0  0  0  0  0  0  0  0
   -8.5022    3.0637  -11.4527 S   0  0  0  0  0  0  0  0  0  0  0  0
   -7.3527    5.4710  -10.8509 N   0  0  0  0  0  0  0  0  0  0  0  0
   -6.7611    5.0345   -9.5873 C   0  0  0  0  0  0  0  0  0  0  0  0
   -5.3202    4.5940   -9.7083 C   0  0  0  0  0  0  0  0  0  0  0  0
   -4.9866    3.3430  -10.2481 C   0  0  0  0  0  0  0  0  0  0  0  0
   -3.6534    2.9407  -10.3555 C   0  0  0  0  0  0  0  0  0  0  0  0
   -2.6331    3.7792   -9.9160 C   0  0  0  0  0  0  0  0  0  0  0  0
   -2.9462    5.0158   -9.3580 C   0  0  0  0  0  0  0  0  0  0  0  0
   -4.2799    5.4168   -9.2480 C   0  0  0  0  0  0  0  0  0  0  0  0
  2  1  1  6
  2  3  1  0
  3  4  1  0
  4  5  2  0
  5  6  1  0
  6  7  2  0
  7  8  1  0
  8  9  2  0
  9 10  1  0
 10 11  2  0
 11 12  1  0
 12 13  2  0
  2 14  1  0
 14 15  2  0
 14 16  1  0
 16 17  1  0
 17 18  1  0
 18 19  2  0
 19 20  1  0
 20 21  2  0
 21 22  1  0
 21 23  1  0
 23 24  1  0
 24 25  1  0
 25 26  2  0
 26 27  1  0
 27 28  2  0
 28 29  1  0
 29 30  2  0
 13  4  1  0
 23 18  1  0
 30 25  1  0
 12  7  1  0
M  END
>  <fragmenstein_outcome>  (785) 
acceptable

>  <exports>  (785) 
['/opt/xchem-fragalysis-2/maxwin/BulkDock/OUTPUTS/xx01zvns2b_c1_elab_bulkdock_input_1GFT1FD.sdf', '/opt/xchem-fragalysis-2/maxwin/openbind-hippo/xx01zvns2b/cycle_01/syndirella/elabs/openbind_xx01zvns2b_c1_elab_chemspace_filtered.sdf']

>  <Energy>  (785) 
95.857516

>  <alias>  (785) 
UXGFPEUNXVFLIG-UHFFFAOYSA-N-P94-P91-P94-601526

>  <fragmenstein_runtime>  (785) 
3.170235

>  <scratch_subdir>  (785) 
/opt/xchem-fragalysis-2/maxwin/BulkDock/SCRATCH/601526/UXGFPEUNXVFLIG-UHFFFAOYSA-N-P94-P91-P94-601526

>  <HIPPO Compound ID>  (785) 
138904

>  <rmsd(smina/fragmenstein)>  (785) 
1.703

>  <distance_score>  (785) 
0.701731

>  <orig_smiles>  (785) 
NC(Cc1cnc2ccccc2c1)C(=O)OCc1cnc(S)n1Cc1ccccc1

>  <fragmenstein_mode>  (785) 
expansion

>  <inchikey>  (785) 
UXGFPEUNXVFLIG-UHFFFAOYSA-N

>  <ref_pdb>  (785) 
Z3093a

>  <GNINA pK>  (785) 
nan

>  <gnina_score_min>  (785) 
5.759

>  <tags>  (785) 
xx01zvns2b_c1_elab_bulkdock_input,openbind_xx01zvns2b_c1_elab_nonasap_filtered_scored_top80percent,BulkDock Fragalysis export,openbind_xx01zvns2b_c1_elab_chemspace_filtered_scored_top80percent,fragmenstein_placed,openbind_xx01zvns2b_c1_elab_chemspace_filtered_scored,openbind_xx01zvns2b_c1_elab_chemspace_filtered_scored_top40percent,openbind_xx01zvns2b_c1_elab_chemspace_filtered_scored_top20percent,openbind_xx01zvns2b_c1_elab_chemspace_filtered_scored_top60percent,openbind_xx01zvns2b_c1_elabs_filtered

>  <smiles>  (785) 
NC(Cc1cnc2ccccc2c1)C(=O)OCc1cnc(S)n1Cc1ccccc1

>  <subsites>  (785) 
1 - Z4590/B/203/1

>  <gnina_score>  (785) 
5.746

>  <HIPPO Pose ID>  (785) 
76868

>  <ref_mols>  (785) 
Z1688a,Z1716a

>  <energy_score>  (785) 
-43.536486

>  <inspiration_score>  (785) 
None

>  <smina_score_min>  (785) 
-5.787

>  <fragmenstein_error>  (785) 


>  <name>  (785) 
UXGFPEUNXVFLIG-UHFFFAOYSA-N-P94-P91-P94-601526

$$$$
KVVMYNRLQLZVKW-UHFFFAOYSA-N-P94-P91-P94-601526
     RDKit          3D

 31 34  0  0  0  0  0  0  0  0999 V2000
   -2.8267    7.7290  -14.1809 N   0  0  0  0  0  0  0  0  0  0  0  0
   -3.5359    7.0013  -13.0972 C   0  0  2  0  0  0  0  0  0  0  0  0
   -3.9045    5.5448  -13.4614 C   0  0  0  0  0  0  0  0  0  0  0  0
   -4.7169    5.3439  -14.7166 C   0  0  0  0  0  0  0  0  0  0  0  0
   -4.1595    5.4928  -15.9771 C   0  0  0  0  0  0  0  0  0  0  0  0
   -4.8353    5.3479  -17.1397 N   0  0  0  0  0  0  0  0  0  0  0  0
   -6.1411    5.0191  -17.0803 C   0  0  0  0  0  0  0  0  0  0  0  0
   -6.8735    4.8649  -18.2504 C   0  0  0  0  0  0  0  0  0  0  0  0
   -8.2304    4.5259  -18.2331 C   0  0  0  0  0  0  0  0  0  0  0  0
   -8.8820    4.3361  -17.0229 C   0  0  0  0  0  0  0  0  0  0  0  0
   -8.1694    4.4737  -15.8352 C   0  0  0  0  0  0  0  0  0  0  0  0
   -6.8043    4.8181  -15.8552 C   0  0  0  0  0  0  0  0  0  0  0  0
   -6.0586    4.9715  -14.6760 C   0  0  0  0  0  0  0  0  0  0  0  0
   -4.7759    7.7872  -12.6505 C   0  0  0  0  0  0  0  0  0  0  0  0
   -5.3412    8.6372  -13.3280 O   0  0  0  0  0  0  0  0  0  0  0  0
   -5.1392    7.4026  -11.3939 O   0  0  0  0  0  0  0  0  0  0  0  0
   -6.4272    7.8547  -10.9593 C   0  0  0  0  0  0  0  0  0  0  0  0
   -7.3635    6.7883  -11.3790 C   0  0  0  0  0  0  0  0  0  0  0  0
   -8.2087    6.7509  -12.4679 C   0  0  0  0  0  0  0  0  0  0  0  0
   -8.7371    5.5030  -12.6335 N   0  0  0  0  0  0  0  0  0  0  0  0
   -8.2475    4.7870  -11.6463 C   0  0  0  0  0  0  0  0  0  0  0  0
   -8.4184    3.0771  -11.5107 S   0  0  0  0  0  0  0  0  0  0  0  0
   -7.4768    5.5381  -10.7945 N   0  0  0  0  0  0  0  0  0  0  0  0
   -6.7620    5.0613   -9.6159 C   0  0  0  0  0  0  0  0  0  0  0  0
   -7.6277    4.9867   -8.3810 C   0  0  0  0  0  0  0  0  0  0  0  0
   -8.0173    3.7380   -7.8681 C   0  0  0  0  0  0  0  0  0  0  0  0
   -8.7665    3.6418   -6.6913 C   0  0  0  0  0  0  0  0  0  0  0  0
   -9.1403    4.7943   -6.0086 C   0  0  0  0  0  0  0  0  0  0  0  0
   -8.7640    6.0321   -6.5124 C   0  0  0  0  0  0  0  0  0  0  0  0
   -9.1158    7.1426   -5.8499 F   0  0  0  0  0  0  0  0  0  0  0  0
   -8.0209    6.1410   -7.6879 C   0  0  0  0  0  0  0  0  0  0  0  0
  2  1  1  6
  2  3  1  0
  3  4  1  0
  4  5  2  0
  5  6  1  0
  6  7  2  0
  7  8  1  0
  8  9  2  0
  9 10  1  0
 10 11  2  0
 11 12  1  0
 12 13  2  0
  2 14  1  0
 14 15  2  0
 14 16  1  0
 16 17  1  0
 17 18  1  0
 18 19  2  0
 19 20  1  0
 20 21  2  0
 21 22  1  0
 21 23  1  0
 23 24  1  0
 24 25  1  0
 25 26  2  0
 26 27  1  0
 27 28  2  0
 28 29  1  0
 29 30  1  0
 29 31  2  0
 13  4  1  0
 23 18  1  0
 31 25  1  0
 12  7  1  0
M  END
>  <fragmenstein_outcome>  (786) 
acceptable

>  <exports>  (786) 
['/opt/xchem-fragalysis-2/maxwin/BulkDock/OUTPUTS/xx01zvns2b_c1_elab_bulkdock_input_1GFT1FD.sdf', '/opt/xchem-fragalysis-2/maxwin/openbind-hippo/xx01zvns2b/cycle_01/syndirella/elabs/openbind_xx01zvns2b_c1_elab_chemspace_filtered.sdf']

>  <Energy>  (786) 
94.446122

>  <alias>  (786) 
KVVMYNRLQLZVKW-UHFFFAOYSA-N-P94-P91-P94-601526

>  <fragmenstein_runtime>  (786) 
4.164453

>  <scratch_subdir>  (786) 
/opt/xchem-fragalysis-2/maxwin/BulkDock/SCRATCH/601526/KVVMYNRLQLZVKW-UHFFFAOYSA-N-P94-P91-P94-601526

>  <HIPPO Compound ID>  (786) 
138906

>  <rmsd(smina/fragmenstein)>  (786) 
0.906

>  <distance_score>  (786) 
0.808288

>  <orig_smiles>  (786) 
NC(Cc1cnc2ccccc2c1)C(=O)OCc1cnc(S)n1Cc1cccc(F)c1

>  <fragmenstein_mode>  (786) 
expansion

>  <inchikey>  (786) 
KVVMYNRLQLZVKW-UHFFFAOYSA-N

>  <ref_pdb>  (786) 
Z3093a

>  <GNINA pK>  (786) 
nan

>  <gnina_score_min>  (786) 
5.875

>  <tags>  (786) 
xx01zvns2b_c1_elab_bulkdock_input,openbind_xx01zvns2b_c1_elab_nonasap_filtered_scored_top80percent,BulkDock Fragalysis export,openbind_xx01zvns2b_c1_elab_chemspace_filtered_scored_top80percent,fragmenstein_placed,openbind_xx01zvns2b_c1_elab_chemspace_filtered_scored,openbind_xx01zvns2b_c1_elab_chemspace_filtered_scored_top40percent,openbind_xx01zvns2b_c1_elab_chemspace_filtered_scored_top20percent,openbind_xx01zvns2b_c1_elab_chemspace_filtered_scored_top60percent,openbind_xx01zvns2b_c1_elabs_filtered

>  <smiles>  (786) 
NC(Cc1cnc2ccccc2c1)C(=O)OCc1cnc(S)n1Cc1cccc(F)c1

>  <subsites>  (786) 
1 - Z4590/B/203/1

>  <gnina_score>  (786) 
5.653

>  <HIPPO Pose ID>  (786) 
76872

>  <ref_mols>  (786) 
Z1688a,Z1716a

>  <energy_score>  (786) 
-37.699845

>  <inspiration_score>  (786) 
None

>  <smina_score_min>  (786) 
-6.436

>  <fragmenstein_error>  (786) 


>  <name>  (786) 
KVVMYNRLQLZVKW-UHFFFAOYSA-N-P94-P91-P94-601526

$$$$
GARGFVQINWBCSB-UHFFFAOYSA-N-P91-P91-P94-601526
     RDKit          3D

 31 34  0  0  0  0  0  0  0  0999 V2000
   -5.1013    8.6266  -14.4693 O   0  0  0  0  0  0  0  0  0  0  0  0
   -4.8832    8.0567  -13.4016 C   0  0  0  0  0  0  0  0  0  0  0  0
   -3.7602    7.0536  -13.2609 C   0  0  0  0  0  0  0  0  0  0  0  0
   -4.1320    5.5931  -13.5209 C   0  0  0  0  0  0  0  0  0  0  0  0
   -4.9031    5.3411  -14.7873 C   0  0  0  0  0  0  0  0  0  0  0  0
   -6.1640    4.8821  -14.7832 C   0  0  0  0  0  0  0  0  0  0  0  0
   -6.9407    4.7474  -16.0079 C   0  0  0  0  0  0  0  0  0  0  0  0
   -8.2932    4.3957  -15.9846 C   0  0  0  0  0  0  0  0  0  0  0  0
   -8.9997    4.2696  -17.1807 C   0  0  0  0  0  0  0  0  0  0  0  0
   -8.3532    4.4870  -18.3968 C   0  0  0  0  0  0  0  0  0  0  0  0
   -7.0043    4.8493  -18.4230 C   0  0  0  0  0  0  0  0  0  0  0  0
   -6.3067    4.9898  -17.2271 C   0  0  0  0  0  0  0  0  0  0  0  0
   -4.9612    5.3808  -17.2320 N   0  0  0  0  0  0  0  0  0  0  0  0
   -4.2185    5.5695  -16.0963 C   0  0  0  0  0  0  0  0  0  0  0  0
   -3.0333    5.8883  -16.1469 O   0  0  0  0  0  0  0  0  0  0  0  0
   -5.6076    8.3889  -12.3069 O   0  0  0  0  0  0  0  0  0  0  0  0
   -5.8071    7.5214  -11.1760 C   0  0  0  0  0  0  0  0  0  0  0  0
   -6.8982    6.5779  -11.5201 C   0  0  0  0  0  0  0  0  0  0  0  0
   -7.8877    6.6754  -12.4812 C   0  0  0  0  0  0  0  0  0  0  0  0
   -8.5966    5.5127  -12.5806 N   0  0  0  0  0  0  0  0  0  0  0  0
   -8.0948    4.7275  -11.6568 C   0  0  0  0  0  0  0  0  0  0  0  0
   -8.5155    3.0688  -11.4728 S   0  0  0  0  0  0  0  0  0  0  0  0
   -7.1176    5.3478  -10.9192 N   0  0  0  0  0  0  0  0  0  0  0  0
   -6.5182    4.8568   -9.6789 C   0  0  0  0  0  0  0  0  0  0  0  0
   -5.1229    4.3031   -9.8526 C   0  0  0  0  0  0  0  0  0  0  0  0
   -4.8916    3.1015  -10.5425 C   0  0  0  0  0  0  0  0  0  0  0  0
   -3.5980    2.5911  -10.6906 C   0  0  0  0  0  0  0  0  0  0  0  0
   -2.5153    3.2697  -10.1395 C   0  0  0  0  0  0  0  0  0  0  0  0
   -2.7383    4.4449   -9.4354 C   0  0  0  0  0  0  0  0  0  0  0  0
   -1.7022    5.0964   -8.8915 F   0  0  0  0  0  0  0  0  0  0  0  0
   -4.0226    4.9608   -9.2817 C   0  0  0  0  0  0  0  0  0  0  0  0
  1  2  2  0
  2  3  1  0
  3  4  1  0
  4  5  1  0
  5  6  2  0
  6  7  1  0
  7  8  2  0
  8  9  1  0
  9 10  2  0
 10 11  1  0
 11 12  2  0
 12 13  1  0
 13 14  1  0
 14 15  2  0
  2 16  1  0
 16 17  1  0
 17 18  1  0
 18 19  2  0
 19 20  1  0
 20 21  2  0
 21 22  1  0
 21 23  1  0
 23 24  1  0
 24 25  1  0
 25 26  2  0
 26 27  1  0
 27 28  2  0
 28 29  1  0
 29 30  1  0
 29 31  2  0
 14  5  1  0
 23 18  1  0
 31 25  1  0
 12  7  1  0
M  END
>  <fragmenstein_outcome>  (787) 
acceptable

>  <exports>  (787) 
['/opt/xchem-fragalysis-2/maxwin/BulkDock/OUTPUTS/xx01zvns2b_c1_elab_bulkdock_input_1GFT1FD.sdf', '/opt/xchem-fragalysis-2/maxwin/openbind-hippo/xx01zvns2b/cycle_01/syndirella/elabs/openbind_xx01zvns2b_c1_elab_chemspace_filtered.sdf']

>  <Energy>  (787) 
14.529059

>  <alias>  (787) 
GARGFVQINWBCSB-UHFFFAOYSA-N-P91-P91-P94-601526

>  <fragmenstein_runtime>  (787) 
3.014695

>  <scratch_subdir>  (787) 
/opt/xchem-fragalysis-2/maxwin/BulkDock/SCRATCH/601526/GARGFVQINWBCSB-UHFFFAOYSA-N-P91-P91-P94-601526

>  <HIPPO Compound ID>  (787) 
138908

>  <rmsd(smina/fragmenstein)>  (787) 
1.659

>  <distance_score>  (787) 
0.761684

>  <orig_smiles>  (787) 
O=C(CCc1cc2ccccc2[nH]c1=O)OCc1cnc(S)n1Cc1cccc(F)c1

>  <fragmenstein_mode>  (787) 
expansion

>  <inchikey>  (787) 
GARGFVQINWBCSB-UHFFFAOYSA-N

>  <ref_pdb>  (787) 
Z3093a

>  <GNINA pK>  (787) 
nan

>  <gnina_score_min>  (787) 
6.005

>  <tags>  (787) 
xx01zvns2b_c1_elab_bulkdock_input,openbind_xx01zvns2b_c1_elab_nonasap_filtered_scored_top80percent,BulkDock Fragalysis export,openbind_xx01zvns2b_c1_elab_chemspace_filtered_scored_top80percent,fragmenstein_placed,openbind_xx01zvns2b_c1_elab_chemspace_filtered_scored,openbind_xx01zvns2b_c1_elab_chemspace_filtered_scored_top40percent,openbind_xx01zvns2b_c1_elab_chemspace_filtered_scored_top20percent,openbind_xx01zvns2b_c1_elab_chemspace_filtered_scored_top60percent,openbind_xx01zvns2b_c1_elabs_filtered

>  <smiles>  (787) 
O=C(CCc1cc2ccccc2[nH]c1=O)OCc1cnc(S)n1Cc1cccc(F)c1

>  <subsites>  (787) 
1 - Z4590/B/203/1

>  <gnina_score>  (787) 
5.909

>  <HIPPO Pose ID>  (787) 
76875

>  <ref_mols>  (787) 
Z1688a,Z1716a

>  <energy_score>  (787) 
-31.761537

>  <inspiration_score>  (787) 
None

>  <smina_score_min>  (787) 
-5.946

>  <fragmenstein_error>  (787) 


>  <name>  (787) 
GARGFVQINWBCSB-UHFFFAOYSA-N-P91-P91-P94-601526

$$$$
OYGSLWRIBKJOON-UHFFFAOYSA-N-P91-P91-P94-601526
     RDKit          3D

 32 35  0  0  0  0  0  0  0  0999 V2000
   -5.6727    3.9981   -9.8268 C   0  0  0  0  0  0  0  0  0  0  0  0
   -6.5937    5.2192   -9.6992 C   0  0  2  0  0  0  0  0  0  0  0  0
   -7.5159    5.2299   -8.4842 C   0  0  0  0  0  0  0  0  0  0  0  0
   -8.1628    4.0744   -8.0215 C   0  0  0  0  0  0  0  0  0  0  0  0
   -8.9689    4.1059   -6.8791 C   0  0  0  0  0  0  0  0  0  0  0  0
   -9.1515    5.2999   -6.1919 C   0  0  0  0  0  0  0  0  0  0  0  0
  -10.1445    5.3427   -4.7887 Cl  0  0  0  0  0  0  0  0  0  0  0  0
   -8.5383    6.4653   -6.6409 C   0  0  0  0  0  0  0  0  0  0  0  0
   -7.7288    6.4304   -7.7804 C   0  0  0  0  0  0  0  0  0  0  0  0
   -7.3087    5.6078  -10.9227 N   0  0  0  0  0  0  0  0  0  0  0  0
   -7.2094    6.8482  -11.5476 C   0  0  0  0  0  0  0  0  0  0  0  0
   -6.2544    7.9306  -11.2038 C   0  0  0  0  0  0  0  0  0  0  0  0
   -4.9739    7.4544  -11.6284 O   0  0  0  0  0  0  0  0  0  0  0  0
   -4.6484    7.7489  -12.9195 C   0  0  0  0  0  0  0  0  0  0  0  0
   -5.2357    8.5477  -13.6361 O   0  0  0  0  0  0  0  0  0  0  0  0
   -3.4783    6.9098  -13.3575 C   0  0  0  0  0  0  0  0  0  0  0  0
   -3.9004    5.4627  -13.6189 C   0  0  0  0  0  0  0  0  0  0  0  0
   -4.7729    5.2872  -14.8352 C   0  0  0  0  0  0  0  0  0  0  0  0
   -6.0591    4.9059  -14.7697 C   0  0  0  0  0  0  0  0  0  0  0  0
   -6.8836    4.7720  -15.9685 C   0  0  0  0  0  0  0  0  0  0  0  0
   -8.2365    4.4280  -15.9048 C   0  0  0  0  0  0  0  0  0  0  0  0
   -8.9809    4.2928  -17.0788 C   0  0  0  0  0  0  0  0  0  0  0  0
   -8.3751    4.4957  -18.3176 C   0  0  0  0  0  0  0  0  0  0  0  0
   -7.0260    4.8439  -18.3879 C   0  0  0  0  0  0  0  0  0  0  0  0
   -6.2893    4.9856  -17.2143 C   0  0  0  0  0  0  0  0  0  0  0  0
   -4.9362    5.3381  -17.2758 N   0  0  0  0  0  0  0  0  0  0  0  0
   -4.1391    5.4903  -16.1749 C   0  0  0  0  0  0  0  0  0  0  0  0
   -2.9483    5.7735  -16.2810 O   0  0  0  0  0  0  0  0  0  0  0  0
   -8.1012    6.7968  -12.5963 C   0  0  0  0  0  0  0  0  0  0  0  0
   -8.6762    5.5665  -12.6895 N   0  0  0  0  0  0  0  0  0  0  0  0
   -8.1549    4.8620  -11.7098 C   0  0  0  0  0  0  0  0  0  0  0  0
   -8.4178    3.1677  -11.5483 S   0  0  0  0  0  0  0  0  0  0  0  0
  2  1  1  6
  2  3  1  0
  3  4  2  0
  4  5  1  0
  5  6  2  0
  6  7  1  0
  6  8  1  0
  8  9  2  0
  2 10  1  0
 10 11  1  0
 11 12  1  0
 12 13  1  0
 13 14  1  0
 14 15  2  0
 14 16  1  0
 16 17  1  0
 17 18  1  0
 18 19  2  0
 19 20  1  0
 20 21  2  0
 21 22  1  0
 22 23  2  0
 23 24  1  0
 24 25  2  0
 25 26  1  0
 26 27  1  0
 27 28  2  0
 11 29  2  0
 29 30  1  0
 30 31  2  0
 31 32  1  0
  9  3  1  0
 31 10  1  0
 27 18  1  0
 25 20  1  0
M  END
>  <fragmenstein_outcome>  (788) 
acceptable

>  <exports>  (788) 
['/opt/xchem-fragalysis-2/maxwin/BulkDock/OUTPUTS/xx01zvns2b_c1_elab_bulkdock_input_1GFT1FD.sdf', '/opt/xchem-fragalysis-2/maxwin/openbind-hippo/xx01zvns2b/cycle_01/syndirella/elabs/openbind_xx01zvns2b_c1_elab_chemspace_filtered.sdf']

>  <Energy>  (788) 
9.685046

>  <alias>  (788) 
OYGSLWRIBKJOON-UHFFFAOYSA-N-P91-P91-P94-601526

>  <fragmenstein_runtime>  (788) 
6.26913

>  <scratch_subdir>  (788) 
/opt/xchem-fragalysis-2/maxwin/BulkDock/SCRATCH/601526/OYGSLWRIBKJOON-UHFFFAOYSA-N-P91-P91-P94-601526

>  <HIPPO Compound ID>  (788) 
138910

>  <rmsd(smina/fragmenstein)>  (788) 
0.964

>  <distance_score>  (788) 
0.830393

>  <orig_smiles>  (788) 
CC(c1ccc(Cl)cc1)n1c(COC(=O)CCc2cc3ccccc3[nH]c2=O)cnc1S

>  <fragmenstein_mode>  (788) 
expansion

>  <inchikey>  (788) 
OYGSLWRIBKJOON-UHFFFAOYSA-N

>  <ref_pdb>  (788) 
Z3093a

>  <GNINA pK>  (788) 
nan

>  <gnina_score_min>  (788) 
6.162

>  <tags>  (788) 
xx01zvns2b_c1_elab_bulkdock_input,openbind_xx01zvns2b_c1_elab_nonasap_filtered_scored_top80percent,BulkDock Fragalysis export,openbind_xx01zvns2b_c1_elab_chemspace_filtered_scored_top80percent,fragmenstein_placed,openbind_xx01zvns2b_c1_elab_chemspace_filtered_scored,openbind_xx01zvns2b_c1_elab_chemspace_filtered_scored_top40percent,openbind_xx01zvns2b_c1_elab_chemspace_filtered_scored_top20percent,openbind_xx01zvns2b_c1_elab_chemspace_filtered_scored_top60percent,openbind_xx01zvns2b_c1_elabs_filtered

>  <smiles>  (788) 
CC(c1ccc(Cl)cc1)n1c(COC(=O)CCc2cc3ccccc3[nH]c2=O)cnc1S

>  <subsites>  (788) 
1 - Z4590/B/203/1

>  <gnina_score>  (788) 
5.883

>  <HIPPO Pose ID>  (788) 
76879

>  <ref_mols>  (788) 
Z1688a,Z1716a

>  <energy_score>  (788) 
-74.981559

>  <inspiration_score>  (788) 
None

>  <smina_score_min>  (788) 
-6.666

>  <fragmenstein_error>  (788) 


>  <name>  (788) 
OYGSLWRIBKJOON-UHFFFAOYSA-N-P91-P91-P94-601526

$$$$
HQDXLFQUKACCNC-UHFFFAOYSA-N-P29-P29-P84-601526
     RDKit          3D

 24 26  0  0  0  0  0  0  0  0999 V2000
   -9.2952    4.0701  -18.4144 C   0  0  0  0  0  0  0  0  0  0  0  0
   -8.0600    4.6685  -17.7889 C   0  0  0  0  0  0  0  0  0  0  0  0
   -7.4105    5.5413  -18.7401 O   0  0  0  0  0  0  0  0  0  0  0  0
   -6.1297    5.9944  -18.5472 C   0  0  0  0  0  0  0  0  0  0  0  0
   -5.5135    6.5934  -19.4223 O   0  0  0  0  0  0  0  0  0  0  0  0
   -5.5633    5.7649  -17.2240 C   0  0  0  0  0  0  0  0  0  0  0  0
   -6.3449    5.9941  -16.1061 N   0  0  0  0  0  0  0  0  0  0  0  0
   -5.7653    5.5034  -15.0540 C   0  0  0  0  0  0  0  0  0  0  0  0
   -6.3810    5.3500  -13.8705 N   0  0  0  0  0  0  0  0  0  0  0  0
   -7.8280    5.6792  -13.4432 C   0  0  0  0  0  0  0  0  0  0  0  0
   -8.7327    6.0627  -14.0705 O   0  0  0  0  0  0  0  0  0  0  0  0
   -7.9561    5.3309  -12.0194 C   0  0  0  0  0  0  0  0  0  0  0  0
   -8.3228    4.0681  -11.7306 C   0  0  0  0  0  0  0  0  0  0  0  0
   -8.4474    3.6947  -10.3672 C   0  0  0  0  0  0  0  0  0  0  0  0
   -8.7784    2.5549   -9.8166 N   0  0  0  0  0  0  0  0  0  0  0  0
   -8.6753    2.7518   -8.4656 C   0  0  0  0  0  0  0  0  0  0  0  0
   -8.3203    4.0519   -8.1849 C   0  0  0  0  0  0  0  0  0  0  0  0
   -8.1788    4.6605   -9.4026 N   0  0  0  0  0  0  0  0  0  0  0  0
   -7.8172    5.9697   -9.7045 C   0  0  0  0  0  0  0  0  0  0  0  0
   -7.7048    6.3176  -10.9930 C   0  0  0  0  0  0  0  0  0  0  0  0
   -7.3316    7.5631  -11.3427 F   0  0  0  0  0  0  0  0  0  0  0  0
   -4.1761    4.9521  -15.2448 S   0  0  0  0  0  0  0  0  0  0  0  0
   -4.3024    5.2974  -16.9198 C   0  0  0  0  0  0  0  0  0  0  0  0
   -2.9175    4.9292  -18.1713 Br  0  0  0  0  0  0  0  0  0  0  0  0
  1  2  1  0
  2  3  1  0
  3  4  1  0
  4  5  2  0
  4  6  1  0
  6  7  1  0
  7  8  2  0
  8  9  1  0
  9 10  1  0
 10 11  2  0
 10 12  1  0
 12 13  2  0
 13 14  1  0
 14 15  2  0
 15 16  1  0
 16 17  2  0
 17 18  1  0
 18 19  1  0
 19 20  2  0
 20 21  1  0
  8 22  1  0
 22 23  1  0
 23 24  1  0
 23  6  2  0
 20 12  1  0
 18 14  1  0
M  END
>  <fragmenstein_outcome>  (789) 
too moved

>  <exports>  (789) 
['/opt/xchem-fragalysis-2/maxwin/openbind-hippo/xx01zvns2b/cycle_01/syndirella/elabs/openbind_xx01zvns2b_c1_elab_chemspace_filtered.sdf']

>  <Energy>  (789) 
24.308459

>  <alias>  (789) 
HQDXLFQUKACCNC-UHFFFAOYSA-N-P29-P29-P84-601526

>  <fragmenstein_runtime>  (789) 
3.617183

>  <scratch_subdir>  (789) 
/opt/xchem-fragalysis-2/maxwin/BulkDock/SCRATCH/601526/HQDXLFQUKACCNC-UHFFFAOYSA-N-P29-P29-P84-601526

>  <HIPPO Compound ID>  (789) 
141827

>  <rmsd(smina/fragmenstein)>  (789) 
1.013

>  <distance_score>  (789) 
1.003262

>  <orig_smiles>  (789) 
CCOC(=O)c1nc(NC(=O)c2cc3nccn3cc2F)sc1Br

>  <fragmenstein_mode>  (789) 
expansion

>  <inchikey>  (789) 
HQDXLFQUKACCNC-UHFFFAOYSA-N

>  <ref_pdb>  (789) 
Z3093a

>  <GNINA pK>  (789) 
nan

>  <gnina_score_min>  (789) 
5.244

>  <tags>  (789) 
xx01zvns2b_c1_elab_bulkdock_input,openbind_xx01zvns2b_c1_elab_nonasap_filtered_scored_top80percent,openbind_xx01zvns2b_c1_elab_chemspace_filtered_scored_top80percent,fragmenstein_placed,openbind_xx01zvns2b_c1_elab_chemspace_filtered_scored,openbind_xx01zvns2b_c1_elab_chemspace_filtered_scored_top40percent,openbind_xx01zvns2b_c1_elab_chemspace_filtered_scored_top20percent,openbind_xx01zvns2b_c1_elab_chemspace_filtered_scored_top60percent,openbind_xx01zvns2b_c1_elabs_filtered

>  <smiles>  (789) 
CCOC(=O)c1nc(NC(=O)c2cc3nccn3cc2F)sc1Br

>  <subsites>  (789) 
1 - Z4590/B/203/1

>  <gnina_score>  (789) 
5.424

>  <HIPPO Pose ID>  (789) 
76909

>  <ref_mols>  (789) 
Z1495a,Z0673a

>  <energy_score>  (789) 
-84.604225

>  <inspiration_score>  (789) 
None

>  <smina_score_min>  (789) 
-6.104

>  <fragmenstein_error>  (789) 


>  <name>  (789) 
HQDXLFQUKACCNC-UHFFFAOYSA-N-P29-P29-P84-601526

$$$$
XDLSOORXGLUXRB-UHFFFAOYSA-N-P84-P29-P84-601526
     RDKit          3D

 24 26  0  0  0  0  0  0  0  0999 V2000
   -9.1574    4.1682  -18.2341 C   0  0  0  0  0  0  0  0  0  0  0  0
   -7.8936    4.7501  -17.6516 C   0  0  0  0  0  0  0  0  0  0  0  0
   -7.2333    5.5924  -18.6245 O   0  0  0  0  0  0  0  0  0  0  0  0
   -5.9124    5.9377  -18.4792 C   0  0  0  0  0  0  0  0  0  0  0  0
   -5.2544    6.4237  -19.3938 O   0  0  0  0  0  0  0  0  0  0  0  0
   -5.3475    5.7292  -17.1511 C   0  0  0  0  0  0  0  0  0  0  0  0
   -6.1031    6.0450  -16.0376 N   0  0  0  0  0  0  0  0  0  0  0  0
   -5.5671    5.5179  -14.9787 C   0  0  0  0  0  0  0  0  0  0  0  0
   -6.2066    5.4234  -13.8015 N   0  0  0  0  0  0  0  0  0  0  0  0
   -7.6096    5.9081  -13.3824 C   0  0  0  0  0  0  0  0  0  0  0  0
   -8.3996    6.5324  -13.9687 O   0  0  0  0  0  0  0  0  0  0  0  0
   -7.8435    5.4748  -11.9884 C   0  0  0  0  0  0  0  0  0  0  0  0
   -7.8385    6.4537  -10.9163 C   0  0  0  0  0  0  0  0  0  0  0  0
   -8.0386    6.0416   -9.6497 C   0  0  0  0  0  0  0  0  0  0  0  0
   -8.0212    7.2571   -8.2304 Br  0  0  0  0  0  0  0  0  0  0  0  0
   -8.2611    4.6734   -9.4194 N   0  0  0  0  0  0  0  0  0  0  0  0
   -8.4550    3.9715   -8.2523 C   0  0  0  0  0  0  0  0  0  0  0  0
   -8.6204    2.6586   -8.6264 C   0  0  0  0  0  0  0  0  0  0  0  0
   -8.5462    2.5294   -9.9840 N   0  0  0  0  0  0  0  0  0  0  0  0
   -8.3107    3.7306  -10.4446 C   0  0  0  0  0  0  0  0  0  0  0  0
   -8.0960    4.1714  -11.7744 C   0  0  0  0  0  0  0  0  0  0  0  0
   -4.0233    4.8484  -15.1602 S   0  0  0  0  0  0  0  0  0  0  0  0
   -4.1165    5.1950  -16.8377 C   0  0  0  0  0  0  0  0  0  0  0  0
   -2.7501    4.7445  -18.0826 Br  0  0  0  0  0  0  0  0  0  0  0  0
  1  2  1  0
  2  3  1  0
  3  4  1  0
  4  5  2  0
  4  6  1  0
  6  7  1  0
  7  8  2  0
  8  9  1  0
  9 10  1  0
 10 11  2  0
 10 12  1  0
 12 13  1  0
 13 14  2  0
 14 15  1  0
 14 16  1  0
 16 17  1  0
 17 18  2  0
 18 19  1  0
 19 20  2  0
 20 21  1  0
  8 22  1  0
 22 23  1  0
 23 24  1  0
 23  6  2  0
 21 12  2  0
 20 16  1  0
M  END
>  <fragmenstein_outcome>  (790) 
too moved

>  <exports>  (790) 
['/opt/xchem-fragalysis-2/maxwin/openbind-hippo/xx01zvns2b/cycle_01/syndirella/elabs/openbind_xx01zvns2b_c1_elab_chemspace_filtered.sdf']

>  <Energy>  (790) 
43.253083

>  <alias>  (790) 
XDLSOORXGLUXRB-UHFFFAOYSA-N-P84-P29-P84-601526

>  <fragmenstein_runtime>  (790) 
4.037315

>  <scratch_subdir>  (790) 
/opt/xchem-fragalysis-2/maxwin/BulkDock/SCRATCH/601526/XDLSOORXGLUXRB-UHFFFAOYSA-N-P84-P29-P84-601526

>  <HIPPO Compound ID>  (790) 
141831

>  <rmsd(smina/fragmenstein)>  (790) 
1.079

>  <distance_score>  (790) 
1.09409

>  <orig_smiles>  (790) 
CCOC(=O)c1nc(NC(=O)c2cc(Br)n3ccnc3c2)sc1Br

>  <fragmenstein_mode>  (790) 
expansion

>  <inchikey>  (790) 
XDLSOORXGLUXRB-UHFFFAOYSA-N

>  <ref_pdb>  (790) 
Z3093a

>  <GNINA pK>  (790) 
nan

>  <gnina_score_min>  (790) 
5.145

>  <tags>  (790) 
xx01zvns2b_c1_elab_bulkdock_input,openbind_xx01zvns2b_c1_elab_nonasap_filtered_scored_top80percent,openbind_xx01zvns2b_c1_elab_chemspace_filtered_scored_top80percent,fragmenstein_placed,openbind_xx01zvns2b_c1_elab_chemspace_filtered_scored,openbind_xx01zvns2b_c1_elab_chemspace_filtered_scored_top40percent,openbind_xx01zvns2b_c1_elab_chemspace_filtered_scored_top20percent,openbind_xx01zvns2b_c1_elab_chemspace_filtered_scored_top60percent,openbind_xx01zvns2b_c1_elabs_filtered

>  <smiles>  (790) 
CCOC(=O)c1nc(NC(=O)c2cc(Br)n3ccnc3c2)sc1Br

>  <subsites>  (790) 
1 - Z4590/B/203/1

>  <gnina_score>  (790) 
5.276

>  <HIPPO Pose ID>  (790) 
76918

>  <ref_mols>  (790) 
Z1495a,Z0673a

>  <energy_score>  (790) 
-33.588739

>  <inspiration_score>  (790) 
None

>  <smina_score_min>  (790) 
-6.112

>  <fragmenstein_error>  (790) 


>  <name>  (790) 
XDLSOORXGLUXRB-UHFFFAOYSA-N-P84-P29-P84-601526

$$$$
SPZUELNJYLVVHO-UHFFFAOYSA-N-P29-P29-P84-601526
     RDKit          3D

 24 26  0  0  0  0  0  0  0  0999 V2000
   -9.7106    3.9263  -18.1145 C   0  0  0  0  0  0  0  0  0  0  0  0
   -8.3454    4.3901  -17.6845 C   0  0  0  0  0  0  0  0  0  0  0  0
   -7.4942    4.5169  -18.8395 O   0  0  0  0  0  0  0  0  0  0  0  0
   -6.1628    4.8488  -18.7515 C   0  0  0  0  0  0  0  0  0  0  0  0
   -5.4615    4.8405  -19.7577 O   0  0  0  0  0  0  0  0  0  0  0  0
   -5.6052    5.1486  -17.4265 C   0  0  0  0  0  0  0  0  0  0  0  0
   -6.4067    5.5522  -16.3695 N   0  0  0  0  0  0  0  0  0  0  0  0
   -5.7588    5.4578  -15.2492 C   0  0  0  0  0  0  0  0  0  0  0  0
   -6.3423    5.4916  -14.0381 N   0  0  0  0  0  0  0  0  0  0  0  0
   -7.8157    5.7329  -13.6412 C   0  0  0  0  0  0  0  0  0  0  0  0
   -8.7382    6.0159  -14.2955 O   0  0  0  0  0  0  0  0  0  0  0  0
   -7.9366    5.4557  -12.1937 C   0  0  0  0  0  0  0  0  0  0  0  0
   -8.2324    4.1743  -11.8957 C   0  0  0  0  0  0  0  0  0  0  0  0
   -8.3532    3.7976  -10.5353 C   0  0  0  0  0  0  0  0  0  0  0  0
   -8.6077    2.6386   -9.9848 N   0  0  0  0  0  0  0  0  0  0  0  0
   -8.5517    2.8494   -8.6327 C   0  0  0  0  0  0  0  0  0  0  0  0
   -8.2897    4.1722   -8.3553 C   0  0  0  0  0  0  0  0  0  0  0  0
   -8.1650    4.7818   -9.5755 N   0  0  0  0  0  0  0  0  0  0  0  0
   -7.8835    6.1105   -9.8809 C   0  0  0  0  0  0  0  0  0  0  0  0
   -7.7658    6.4799  -11.1700 C   0  0  0  0  0  0  0  0  0  0  0  0
   -7.3777    8.2387  -11.6477 Br  0  0  0  0  0  0  0  0  0  0  0  0
   -4.0970    5.1678  -15.3610 S   0  0  0  0  0  0  0  0  0  0  0  0
   -4.2764    5.0620  -17.0612 C   0  0  0  0  0  0  0  0  0  0  0  0
   -2.8962    4.7695  -18.0295 Cl  0  0  0  0  0  0  0  0  0  0  0  0
  1  2  1  0
  2  3  1  0
  3  4  1  0
  4  5  2  0
  4  6  1  0
  6  7  1  0
  7  8  2  0
  8  9  1  0
  9 10  1  0
 10 11  2  0
 10 12  1  0
 12 13  2  0
 13 14  1  0
 14 15  2  0
 15 16  1  0
 16 17  2  0
 17 18  1  0
 18 19  1  0
 19 20  2  0
 20 21  1  0
  8 22  1  0
 22 23  1  0
 23 24  1  0
 23  6  2  0
 20 12  1  0
 18 14  1  0
M  END
>  <fragmenstein_outcome>  (791) 
acceptable

>  <exports>  (791) 
['/opt/xchem-fragalysis-2/maxwin/BulkDock/OUTPUTS/xx01zvns2b_c1_elab_bulkdock_input_1GFT1FD.sdf', '/opt/xchem-fragalysis-2/maxwin/openbind-hippo/xx01zvns2b/cycle_01/syndirella/elabs/openbind_xx01zvns2b_c1_elab_chemspace_filtered.sdf']

>  <Energy>  (791) 
25.465858

>  <alias>  (791) 
SPZUELNJYLVVHO-UHFFFAOYSA-N-P29-P29-P84-601526

>  <fragmenstein_runtime>  (791) 
4.62605

>  <scratch_subdir>  (791) 
/opt/xchem-fragalysis-2/maxwin/BulkDock/SCRATCH/601526/SPZUELNJYLVVHO-UHFFFAOYSA-N-P29-P29-P84-601526

>  <HIPPO Compound ID>  (791) 
141833

>  <rmsd(smina/fragmenstein)>  (791) 
1.674

>  <distance_score>  (791) 
0.887529

>  <orig_smiles>  (791) 
CCOC(=O)c1nc(NC(=O)c2cc3nccn3cc2Br)sc1Cl

>  <fragmenstein_mode>  (791) 
expansion

>  <inchikey>  (791) 
SPZUELNJYLVVHO-UHFFFAOYSA-N

>  <ref_pdb>  (791) 
Z3093a

>  <GNINA pK>  (791) 
nan

>  <gnina_score_min>  (791) 
5.214

>  <tags>  (791) 
xx01zvns2b_c1_elab_bulkdock_input,openbind_xx01zvns2b_c1_elab_nonasap_filtered_scored_top80percent,BulkDock Fragalysis export,openbind_xx01zvns2b_c1_elab_chemspace_filtered_scored_top80percent,fragmenstein_placed,openbind_xx01zvns2b_c1_elab_chemspace_filtered_scored,openbind_xx01zvns2b_c1_elab_chemspace_filtered_scored_top40percent,openbind_xx01zvns2b_c1_elab_chemspace_filtered_scored_top20percent,openbind_xx01zvns2b_c1_elab_chemspace_filtered_scored_top60percent,openbind_xx01zvns2b_c1_elabs_filtered

>  <smiles>  (791) 
CCOC(=O)c1nc(NC(=O)c2cc3nccn3cc2Br)sc1Cl

>  <subsites>  (791) 
1 - Z4590/B/203/1

>  <gnina_score>  (791) 
5.471

>  <HIPPO Pose ID>  (791) 
76921

>  <ref_mols>  (791) 
Z1495a,Z0673a

>  <energy_score>  (791) 
-26.645551

>  <inspiration_score>  (791) 
None

>  <smina_score_min>  (791) 
-6.272

>  <fragmenstein_error>  (791) 


>  <name>  (791) 
SPZUELNJYLVVHO-UHFFFAOYSA-N-P29-P29-P84-601526

$$$$
UIFLPKYZUNBPIN-UHFFFAOYSA-N-P29-P29-P84-601526
     RDKit          3D

 24 26  0  0  0  0  0  0  0  0999 V2000
   -9.3419    4.0601  -18.3240 C   0  0  0  0  0  0  0  0  0  0  0  0
   -8.0724    4.6366  -17.7489 C   0  0  0  0  0  0  0  0  0  0  0  0
   -7.3627    5.3617  -18.7766 O   0  0  0  0  0  0  0  0  0  0  0  0
   -6.0562    5.7505  -18.6186 C   0  0  0  0  0  0  0  0  0  0  0  0
   -5.3938    6.1907  -19.5516 O   0  0  0  0  0  0  0  0  0  0  0  0
   -5.5056    5.6340  -17.2752 C   0  0  0  0  0  0  0  0  0  0  0  0
   -6.2784    5.9591  -16.1736 N   0  0  0  0  0  0  0  0  0  0  0  0
   -5.6977    5.5379  -15.0910 C   0  0  0  0  0  0  0  0  0  0  0  0
   -6.3054    5.4860  -13.8928 N   0  0  0  0  0  0  0  0  0  0  0  0
   -7.7582    5.8163  -13.4915 C   0  0  0  0  0  0  0  0  0  0  0  0
   -8.6340    6.2577  -14.1204 O   0  0  0  0  0  0  0  0  0  0  0  0
   -7.9221    5.4488  -12.0708 C   0  0  0  0  0  0  0  0  0  0  0  0
   -7.7859    6.4502  -11.0301 C   0  0  0  0  0  0  0  0  0  0  0  0
   -7.9220    6.0782   -9.7422 C   0  0  0  0  0  0  0  0  0  0  0  0
   -7.7512    7.3253   -8.3607 Br  0  0  0  0  0  0  0  0  0  0  0  0
   -8.1969    4.7284   -9.4608 N   0  0  0  0  0  0  0  0  0  0  0  0
   -8.3407    4.0633   -8.2656 C   0  0  0  0  0  0  0  0  0  0  0  0
   -8.5958    2.7520   -8.5926 C   0  0  0  0  0  0  0  0  0  0  0  0
   -8.6303    2.5894   -9.9488 N   0  0  0  0  0  0  0  0  0  0  0  0
   -8.3652    3.7659  -10.4550 C   0  0  0  0  0  0  0  0  0  0  0  0
   -8.2203    4.1650  -11.8067 C   0  0  0  0  0  0  0  0  0  0  0  0
   -4.1172    4.9494  -15.2508 S   0  0  0  0  0  0  0  0  0  0  0  0
   -4.2454    5.1927  -16.9401 C   0  0  0  0  0  0  0  0  0  0  0  0
   -2.9464    4.7716  -17.9697 Cl  0  0  0  0  0  0  0  0  0  0  0  0
  1  2  1  0
  2  3  1  0
  3  4  1  0
  4  5  2  0
  4  6  1  0
  6  7  1  0
  7  8  2  0
  8  9  1  0
  9 10  1  0
 10 11  2  0
 10 12  1  0
 12 13  1  0
 13 14  2  0
 14 15  1  0
 14 16  1  0
 16 17  1  0
 17 18  2  0
 18 19  1  0
 19 20  2  0
 20 21  1  0
  8 22  1  0
 22 23  1  0
 23 24  1  0
 23  6  2  0
 21 12  2  0
 20 16  1  0
M  END
>  <fragmenstein_outcome>  (792) 
acceptable

>  <exports>  (792) 
['/opt/xchem-fragalysis-2/maxwin/BulkDock/OUTPUTS/xx01zvns2b_c1_elab_bulkdock_input_1GFT1FD.sdf', '/opt/xchem-fragalysis-2/maxwin/openbind-hippo/xx01zvns2b/cycle_01/syndirella/elabs/openbind_xx01zvns2b_c1_elab_chemspace_filtered.sdf']

>  <Energy>  (792) 
39.756912

>  <alias>  (792) 
UIFLPKYZUNBPIN-UHFFFAOYSA-N-P29-P29-P84-601526

>  <fragmenstein_runtime>  (792) 
2.087054

>  <scratch_subdir>  (792) 
/opt/xchem-fragalysis-2/maxwin/BulkDock/SCRATCH/601526/UIFLPKYZUNBPIN-UHFFFAOYSA-N-P29-P29-P84-601526

>  <HIPPO Compound ID>  (792) 
141839

>  <rmsd(smina/fragmenstein)>  (792) 
1.393

>  <distance_score>  (792) 
0.927476

>  <orig_smiles>  (792) 
CCOC(=O)c1nc(NC(=O)c2cc(Br)n3ccnc3c2)sc1Cl

>  <fragmenstein_mode>  (792) 
expansion

>  <inchikey>  (792) 
UIFLPKYZUNBPIN-UHFFFAOYSA-N

>  <ref_pdb>  (792) 
Z3093a

>  <GNINA pK>  (792) 
nan

>  <gnina_score_min>  (792) 
5.156

>  <tags>  (792) 
xx01zvns2b_c1_elab_bulkdock_input,openbind_xx01zvns2b_c1_elab_nonasap_filtered_scored_top80percent,BulkDock Fragalysis export,openbind_xx01zvns2b_c1_elab_chemspace_filtered_scored_top80percent,fragmenstein_placed,openbind_xx01zvns2b_c1_elab_chemspace_filtered_scored,openbind_xx01zvns2b_c1_elab_chemspace_filtered_scored_top40percent,openbind_xx01zvns2b_c1_elab_chemspace_filtered_scored_top20percent,openbind_xx01zvns2b_c1_elab_chemspace_filtered_scored_top60percent,openbind_xx01zvns2b_c1_elabs_filtered

>  <smiles>  (792) 
CCOC(=O)c1nc(NC(=O)c2cc(Br)n3ccnc3c2)sc1Cl

>  <subsites>  (792) 
1 - Z4590/B/203/1

>  <gnina_score>  (792) 
5.305

>  <HIPPO Pose ID>  (792) 
76933

>  <ref_mols>  (792) 
Z1495a,Z0673a

>  <energy_score>  (792) 
-37.802952

>  <inspiration_score>  (792) 
None

>  <smina_score_min>  (792) 
-6.152

>  <fragmenstein_error>  (792) 


>  <name>  (792) 
UIFLPKYZUNBPIN-UHFFFAOYSA-N-P29-P29-P84-601526

$$$$
LWKCJZTWADOCPA-UHFFFAOYSA-N-P29-P29-P84-601526
     RDKit          3D

 25 27  0  0  0  0  0  0  0  0999 V2000
   -8.8333    4.1980  -18.5355 C   0  0  0  0  0  0  0  0  0  0  0  0
   -7.8083    4.7650  -17.5719 C   0  0  0  0  0  0  0  0  0  0  0  0
   -7.0872    5.8140  -18.2446 O   0  0  0  0  0  0  0  0  0  0  0  0
   -5.9381    6.3692  -17.7589 C   0  0  0  0  0  0  0  0  0  0  0  0
   -5.2536    7.0900  -18.4834 O   0  0  0  0  0  0  0  0  0  0  0  0
   -5.5644    6.1633  -16.3481 C   0  0  0  0  0  0  0  0  0  0  0  0
   -4.3372    6.5667  -15.8414 C   0  0  0  0  0  0  0  0  0  0  0  0
   -4.2850    6.3673  -14.1392 S   0  0  0  0  0  0  0  0  0  0  0  0
   -5.8420    5.6251  -14.2020 C   0  0  0  0  0  0  0  0  0  0  0  0
   -6.4742    5.4049  -12.9513 N   0  0  0  0  0  0  0  0  0  0  0  0
   -5.9401    3.9075  -13.2135 C   0  0  0  0  0  0  0  0  0  0  0  0
   -6.8972    2.9540  -13.9300 C   0  0  0  0  0  0  0  0  0  0  0  0
   -7.8557    5.3824  -12.5987 C   0  0  0  0  0  0  0  0  0  0  0  0
   -8.8411    5.4562  -13.2848 O   0  0  0  0  0  0  0  0  0  0  0  0
   -7.9667    5.1299  -11.1309 C   0  0  0  0  0  0  0  0  0  0  0  0
   -7.4068    6.0543  -10.1562 C   0  0  0  0  0  0  0  0  0  0  0  0
   -7.4599    5.7432   -8.8455 C   0  0  0  0  0  0  0  0  0  0  0  0
   -6.7564    6.9014   -7.5577 Br  0  0  0  0  0  0  0  0  0  0  0  0
   -8.0562    4.5272   -8.4660 N   0  0  0  0  0  0  0  0  0  0  0  0
   -8.2285    3.9512   -7.2289 C   0  0  0  0  0  0  0  0  0  0  0  0
   -8.8541    2.7477   -7.4568 C   0  0  0  0  0  0  0  0  0  0  0  0
   -9.1174    2.5793   -8.7866 N   0  0  0  0  0  0  0  0  0  0  0  0
   -8.6132    3.6359   -9.3810 C   0  0  0  0  0  0  0  0  0  0  0  0
   -8.5562    3.9780  -10.7565 C   0  0  0  0  0  0  0  0  0  0  0  0
   -6.4211    5.6504  -15.3779 N   0  0  0  0  0  0  0  0  0  0  0  0
  1  2  1  0
  2  3  1  0
  3  4  1  0
  4  5  2  0
  4  6  1  0
  6  7  2  0
  7  8  1  0
  8  9  1  0
  9 10  1  0
 10 11  1  0
 11 12  1  0
 10 13  1  0
 13 14  2  0
 13 15  1  0
 15 16  1  0
 16 17  2  0
 17 18  1  0
 17 19  1  0
 19 20  1  0
 20 21  2  0
 21 22  1  0
 22 23  2  0
 23 24  1  0
  9 25  2  0
 25  6  1  0
 24 15  2  0
 23 19  1  0
M  END
>  <fragmenstein_outcome>  (793) 
too moved

>  <exports>  (793) 
['/opt/xchem-fragalysis-2/maxwin/openbind-hippo/xx01zvns2b/cycle_01/syndirella/elabs/openbind_xx01zvns2b_c1_elab_chemspace_filtered.sdf']

>  <Energy>  (793) 
123.608154

>  <alias>  (793) 
LWKCJZTWADOCPA-UHFFFAOYSA-N-P29-P29-P84-601526

>  <fragmenstein_runtime>  (793) 
6.483914

>  <scratch_subdir>  (793) 
/opt/xchem-fragalysis-2/maxwin/BulkDock/SCRATCH/601526/LWKCJZTWADOCPA-UHFFFAOYSA-N-P29-P29-P84-601526

>  <HIPPO Compound ID>  (793) 
141843

>  <rmsd(smina/fragmenstein)>  (793) 
2.324

>  <distance_score>  (793) 
1.573946

>  <orig_smiles>  (793) 
CCOC(=O)c1csc(N(CC)C(=O)c2cc(Br)n3ccnc3c2)n1

>  <fragmenstein_mode>  (793) 
expansion

>  <inchikey>  (793) 
LWKCJZTWADOCPA-UHFFFAOYSA-N

>  <ref_pdb>  (793) 
Z3093a

>  <GNINA pK>  (793) 
nan

>  <gnina_score_min>  (793) 
5.269

>  <tags>  (793) 
xx01zvns2b_c1_elab_bulkdock_input,openbind_xx01zvns2b_c1_elab_nonasap_filtered_scored_top80percent,openbind_xx01zvns2b_c1_elab_chemspace_filtered_scored_top80percent,fragmenstein_placed,openbind_xx01zvns2b_c1_elab_chemspace_filtered_scored,openbind_xx01zvns2b_c1_elab_chemspace_filtered_scored_top40percent,openbind_xx01zvns2b_c1_elab_chemspace_filtered_scored_top20percent,openbind_xx01zvns2b_c1_elab_chemspace_filtered_scored_top60percent,openbind_xx01zvns2b_c1_elabs_filtered

>  <smiles>  (793) 
CCOC(=O)c1csc(N(CC)C(=O)c2cc(Br)n3ccnc3c2)n1

>  <subsites>  (793) 
1 - Z4590/B/203/1

>  <gnina_score>  (793) 
5.162

>  <HIPPO Pose ID>  (793) 
76941

>  <ref_mols>  (793) 
Z1495a,Z0673a

>  <energy_score>  (793) 
-26.333414

>  <inspiration_score>  (793) 
None

>  <smina_score_min>  (793) 
-6.322

>  <fragmenstein_error>  (793) 


>  <name>  (793) 
LWKCJZTWADOCPA-UHFFFAOYSA-N-P29-P29-P84-601526

$$$$
ZBROLQGYBONJND-UHFFFAOYSA-N-P29-P29-P84-601526
     RDKit          3D

 25 27  0  0  0  0  0  0  0  0999 V2000
   -9.7108    3.9317  -18.1138 C   0  0  0  0  0  0  0  0  0  0  0  0
   -8.3458    4.3920  -17.6792 C   0  0  0  0  0  0  0  0  0  0  0  0
   -7.4934    4.5241  -18.8328 O   0  0  0  0  0  0  0  0  0  0  0  0
   -6.1615    4.8530  -18.7430 C   0  0  0  0  0  0  0  0  0  0  0  0
   -5.4612    4.8523  -19.7500 O   0  0  0  0  0  0  0  0  0  0  0  0
   -5.6019    5.1411  -17.4162 C   0  0  0  0  0  0  0  0  0  0  0  0
   -6.4024    5.5288  -16.3526 N   0  0  0  0  0  0  0  0  0  0  0  0
   -5.7502    5.4292  -15.2352 C   0  0  0  0  0  0  0  0  0  0  0  0
   -6.3303    5.4481  -14.0219 N   0  0  0  0  0  0  0  0  0  0  0  0
   -7.8045    5.6716  -13.6187 C   0  0  0  0  0  0  0  0  0  0  0  0
   -8.7318    5.9502  -14.2681 O   0  0  0  0  0  0  0  0  0  0  0  0
   -7.9219    5.3757  -12.1783 C   0  0  0  0  0  0  0  0  0  0  0  0
   -8.2366    4.1086  -11.8473 C   0  0  0  0  0  0  0  0  0  0  0  0
   -8.3648    3.7718  -10.4731 C   0  0  0  0  0  0  0  0  0  0  0  0
   -8.6378    2.6246   -9.9004 N   0  0  0  0  0  0  0  0  0  0  0  0
   -8.5946    2.8597   -8.5494 C   0  0  0  0  0  0  0  0  0  0  0  0
   -8.3243    4.1808   -8.3094 C   0  0  0  0  0  0  0  0  0  0  0  0
   -8.1711    5.0478   -6.8551 Cl  0  0  0  0  0  0  0  0  0  0  0  0
   -8.1694    4.7842   -9.5305 N   0  0  0  0  0  0  0  0  0  0  0  0
   -7.8617    6.1000   -9.8841 C   0  0  0  0  0  0  0  0  0  0  0  0
   -7.7351    6.4051  -11.1826 C   0  0  0  0  0  0  0  0  0  0  0  0
   -7.4115    7.6529  -11.5712 F   0  0  0  0  0  0  0  0  0  0  0  0
   -4.0871    5.1498  -15.3550 S   0  0  0  0  0  0  0  0  0  0  0  0
   -4.2716    5.0567  -17.0555 C   0  0  0  0  0  0  0  0  0  0  0  0
   -2.8931    4.7772  -18.0301 Cl  0  0  0  0  0  0  0  0  0  0  0  0
  1  2  1  0
  2  3  1  0
  3  4  1  0
  4  5  2  0
  4  6  1  0
  6  7  1  0
  7  8  2  0
  8  9  1  0
  9 10  1  0
 10 11  2  0
 10 12  1  0
 12 13  2  0
 13 14  1  0
 14 15  2  0
 15 16  1  0
 16 17  2  0
 17 18  1  0
 17 19  1  0
 19 20  1  0
 20 21  2  0
 21 22  1  0
  8 23  1  0
 23 24  1  0
 24 25  1  0
 24  6  2  0
 21 12  1  0
 19 14  1  0
M  END
>  <fragmenstein_outcome>  (794) 
acceptable

>  <exports>  (794) 
['/opt/xchem-fragalysis-2/maxwin/BulkDock/OUTPUTS/xx01zvns2b_c1_elab_bulkdock_input_1GFT1FD.sdf', '/opt/xchem-fragalysis-2/maxwin/openbind-hippo/xx01zvns2b/cycle_01/syndirella/elabs/openbind_xx01zvns2b_c1_elab_chemspace_filtered.sdf']

>  <Energy>  (794) 
31.832512

>  <alias>  (794) 
ZBROLQGYBONJND-UHFFFAOYSA-N-P29-P29-P84-601526

>  <fragmenstein_runtime>  (794) 
3.310909

>  <scratch_subdir>  (794) 
/opt/xchem-fragalysis-2/maxwin/BulkDock/SCRATCH/601526/ZBROLQGYBONJND-UHFFFAOYSA-N-P29-P29-P84-601526

>  <HIPPO Compound ID>  (794) 
141853

>  <rmsd(smina/fragmenstein)>  (794) 
1.558

>  <distance_score>  (794) 
0.862535

>  <orig_smiles>  (794) 
CCOC(=O)c1nc(NC(=O)c2cc3ncc(Cl)n3cc2F)sc1Cl

>  <fragmenstein_mode>  (794) 
expansion

>  <inchikey>  (794) 
ZBROLQGYBONJND-UHFFFAOYSA-N

>  <ref_pdb>  (794) 
Z3093a

>  <GNINA pK>  (794) 
nan

>  <gnina_score_min>  (794) 
5.326

>  <tags>  (794) 
xx01zvns2b_c1_elab_bulkdock_input,openbind_xx01zvns2b_c1_elab_nonasap_filtered_scored_top80percent,BulkDock Fragalysis export,openbind_xx01zvns2b_c1_elab_chemspace_filtered_scored_top80percent,fragmenstein_placed,openbind_xx01zvns2b_c1_elab_chemspace_filtered_scored,openbind_xx01zvns2b_c1_elab_chemspace_filtered_scored_top40percent,openbind_xx01zvns2b_c1_elab_chemspace_filtered_scored_top20percent,openbind_xx01zvns2b_c1_elab_chemspace_filtered_scored_top60percent,openbind_xx01zvns2b_c1_elabs_filtered

>  <smiles>  (794) 
CCOC(=O)c1nc(NC(=O)c2cc3ncc(Cl)n3cc2F)sc1Cl

>  <subsites>  (794) 
1 - Z4590/B/203/1

>  <gnina_score>  (794) 
5.42

>  <HIPPO Pose ID>  (794) 
76960

>  <ref_mols>  (794) 
Z1495a,Z0673a

>  <energy_score>  (794) 
-86.151875

>  <inspiration_score>  (794) 
None

>  <smina_score_min>  (794) 
-6.521

>  <fragmenstein_error>  (794) 


>  <name>  (794) 
ZBROLQGYBONJND-UHFFFAOYSA-N-P29-P29-P84-601526

$$$$
SUXFJNHVYRXINY-UHFFFAOYSA-N-P84-P29-P84-601526
     RDKit          3D

 25 27  0  0  0  0  0  0  0  0999 V2000
   -8.9204    4.1455  -18.3514 C   0  0  0  0  0  0  0  0  0  0  0  0
   -7.5819    4.6638  -17.8704 C   0  0  0  0  0  0  0  0  0  0  0  0
   -6.5929    4.6872  -18.9267 O   0  0  0  0  0  0  0  0  0  0  0  0
   -5.2707    5.0008  -18.6958 C   0  0  0  0  0  0  0  0  0  0  0  0
   -4.4266    4.9414  -19.5920 O   0  0  0  0  0  0  0  0  0  0  0  0
   -4.8544    5.3331  -17.3221 C   0  0  0  0  0  0  0  0  0  0  0  0
   -5.7588    5.7104  -16.3468 N   0  0  0  0  0  0  0  0  0  0  0  0
   -5.2167    5.6251  -15.1718 C   0  0  0  0  0  0  0  0  0  0  0  0
   -5.9136    5.6104  -14.0197 N   0  0  0  0  0  0  0  0  0  0  0  0
   -7.4220    5.8215  -13.7568 C   0  0  0  0  0  0  0  0  0  0  0  0
   -8.2825    6.1167  -14.4863 O   0  0  0  0  0  0  0  0  0  0  0  0
   -7.6867    5.4770  -12.3417 C   0  0  0  0  0  0  0  0  0  0  0  0
   -7.9629    4.1863  -12.0677 C   0  0  0  0  0  0  0  0  0  0  0  0
   -8.1981    3.8047  -10.7178 C   0  0  0  0  0  0  0  0  0  0  0  0
   -8.4210    2.6232  -10.1950 N   0  0  0  0  0  0  0  0  0  0  0  0
   -8.5397    2.8258   -8.8427 C   0  0  0  0  0  0  0  0  0  0  0  0
   -8.3862    4.1550   -8.5503 C   0  0  0  0  0  0  0  0  0  0  0  0
   -8.4106    4.9868   -7.0680 Cl  0  0  0  0  0  0  0  0  0  0  0  0
   -8.1670    4.8018   -9.7397 N   0  0  0  0  0  0  0  0  0  0  0  0
   -7.9174    6.1435  -10.0364 C   0  0  0  0  0  0  0  0  0  0  0  0
   -7.6778    6.4892  -11.3093 C   0  0  0  0  0  0  0  0  0  0  0  0
   -7.4009    7.7658  -11.6362 F   0  0  0  0  0  0  0  0  0  0  0  0
   -3.5409    5.4062  -15.1427 S   0  0  0  0  0  0  0  0  0  0  0  0
   -3.5419    5.2990  -16.8606 C   0  0  0  0  0  0  0  0  0  0  0  0
   -2.2740    5.1049  -17.6122 C   0  0  0  0  0  0  0  0  0  0  0  0
  1  2  1  0
  2  3  1  0
  3  4  1  0
  4  5  2  0
  4  6  1  0
  6  7  1  0
  7  8  2  0
  8  9  1  0
  9 10  1  0
 10 11  2  0
 10 12  1  0
 12 13  2  0
 13 14  1  0
 14 15  2  0
 15 16  1  0
 16 17  2  0
 17 18  1  0
 17 19  1  0
 19 20  1  0
 20 21  2  0
 21 22  1  0
  8 23  1  0
 23 24  1  0
 24 25  1  0
 24  6  2  0
 21 12  1  0
 19 14  1  0
M  END
>  <fragmenstein_outcome>  (795) 
too moved

>  <exports>  (795) 
['/opt/xchem-fragalysis-2/maxwin/openbind-hippo/xx01zvns2b/cycle_01/syndirella/elabs/openbind_xx01zvns2b_c1_elab_chemspace_filtered.sdf']

>  <Energy>  (795) 
41.53253

>  <alias>  (795) 
SUXFJNHVYRXINY-UHFFFAOYSA-N-P84-P29-P84-601526

>  <fragmenstein_runtime>  (795) 
2.817094

>  <scratch_subdir>  (795) 
/opt/xchem-fragalysis-2/maxwin/BulkDock/SCRATCH/601526/SUXFJNHVYRXINY-UHFFFAOYSA-N-P84-P29-P84-601526

>  <HIPPO Compound ID>  (795) 
141854

>  <rmsd(smina/fragmenstein)>  (795) 
2.155

>  <distance_score>  (795) 
1.429554

>  <orig_smiles>  (795) 
CCOC(=O)c1nc(NC(=O)c2cc3ncc(Cl)n3cc2F)sc1C

>  <fragmenstein_mode>  (795) 
expansion

>  <inchikey>  (795) 
SUXFJNHVYRXINY-UHFFFAOYSA-N

>  <ref_pdb>  (795) 
Z3093a

>  <GNINA pK>  (795) 
nan

>  <gnina_score_min>  (795) 
5.178

>  <tags>  (795) 
xx01zvns2b_c1_elab_bulkdock_input,openbind_xx01zvns2b_c1_elab_nonasap_filtered_scored_top80percent,openbind_xx01zvns2b_c1_elab_chemspace_filtered_scored_top80percent,fragmenstein_placed,openbind_xx01zvns2b_c1_elab_chemspace_filtered_scored,openbind_xx01zvns2b_c1_elab_chemspace_filtered_scored_top40percent,openbind_xx01zvns2b_c1_elab_chemspace_filtered_scored_top20percent,openbind_xx01zvns2b_c1_elab_chemspace_filtered_scored_top60percent,openbind_xx01zvns2b_c1_elabs_filtered

>  <smiles>  (795) 
CCOC(=O)c1nc(NC(=O)c2cc3ncc(Cl)n3cc2F)sc1C

>  <subsites>  (795) 
1 - Z4590/B/203/1

>  <gnina_score>  (795) 
5.215

>  <HIPPO Pose ID>  (795) 
76963

>  <ref_mols>  (795) 
Z1495a,Z0673a

>  <energy_score>  (795) 
-66.508202

>  <inspiration_score>  (795) 
None

>  <smina_score_min>  (795) 
-6.503

>  <fragmenstein_error>  (795) 


>  <name>  (795) 
SUXFJNHVYRXINY-UHFFFAOYSA-N-P84-P29-P84-601526

$$$$
WTLMDQHHDUHLRB-UHFFFAOYSA-N-P29-P29-P84-601526
     RDKit          3D

 25 27  0  0  0  0  0  0  0  0999 V2000
   -9.3168    4.0707  -18.4355 C   0  0  0  0  0  0  0  0  0  0  0  0
   -8.0829    4.6574  -17.7978 C   0  0  0  0  0  0  0  0  0  0  0  0
   -7.4179    5.5265  -18.7415 O   0  0  0  0  0  0  0  0  0  0  0  0
   -6.1299    5.9574  -18.5459 C   0  0  0  0  0  0  0  0  0  0  0  0
   -5.5048    6.5492  -19.4196 O   0  0  0  0  0  0  0  0  0  0  0  0
   -5.5668    5.7164  -17.2226 C   0  0  0  0  0  0  0  0  0  0  0  0
   -6.3586    5.9146  -16.1065 N   0  0  0  0  0  0  0  0  0  0  0  0
   -5.7721    5.4345  -15.0540 C   0  0  0  0  0  0  0  0  0  0  0  0
   -6.3915    5.2686  -13.8736 N   0  0  0  0  0  0  0  0  0  0  0  0
   -7.8217    5.6454  -13.4306 C   0  0  0  0  0  0  0  0  0  0  0  0
   -8.7102    6.0881  -14.0415 O   0  0  0  0  0  0  0  0  0  0  0  0
   -7.9474    5.3110  -12.0029 C   0  0  0  0  0  0  0  0  0  0  0  0
   -8.2765    4.0433  -11.6929 C   0  0  0  0  0  0  0  0  0  0  0  0
   -8.4151    3.6925  -10.3237 C   0  0  0  0  0  0  0  0  0  0  0  0
   -8.7136    2.5445   -9.7663 N   0  0  0  0  0  0  0  0  0  0  0  0
   -8.6656    2.7609   -8.4128 C   0  0  0  0  0  0  0  0  0  0  0  0
   -8.3743    4.0739   -8.1550 C   0  0  0  0  0  0  0  0  0  0  0  0
   -8.2136    4.9195   -6.6890 Cl  0  0  0  0  0  0  0  0  0  0  0  0
   -8.2073    4.6900   -9.3675 N   0  0  0  0  0  0  0  0  0  0  0  0
   -7.8832    6.0060   -9.7010 C   0  0  0  0  0  0  0  0  0  0  0  0
   -7.7525    6.3266  -10.9943 C   0  0  0  0  0  0  0  0  0  0  0  0
   -7.4137    7.5760  -11.3644 F   0  0  0  0  0  0  0  0  0  0  0  0
   -4.1694    4.9237  -15.2404 S   0  0  0  0  0  0  0  0  0  0  0  0
   -4.2977    5.2734  -16.9151 C   0  0  0  0  0  0  0  0  0  0  0  0
   -2.8987    4.9432  -18.1617 Br  0  0  0  0  0  0  0  0  0  0  0  0
  1  2  1  0
  2  3  1  0
  3  4  1  0
  4  5  2  0
  4  6  1  0
  6  7  1  0
  7  8  2  0
  8  9  1  0
  9 10  1  0
 10 11  2  0
 10 12  1  0
 12 13  2  0
 13 14  1  0
 14 15  2  0
 15 16  1  0
 16 17  2  0
 17 18  1  0
 17 19  1  0
 19 20  1  0
 20 21  2  0
 21 22  1  0
  8 23  1  0
 23 24  1  0
 24 25  1  0
 24  6  2  0
 21 12  1  0
 19 14  1  0
M  END
>  <fragmenstein_outcome>  (796) 
too moved

>  <exports>  (796) 
['/opt/xchem-fragalysis-2/maxwin/openbind-hippo/xx01zvns2b/cycle_01/syndirella/elabs/openbind_xx01zvns2b_c1_elab_chemspace_filtered.sdf']

>  <Energy>  (796) 
35.066652

>  <alias>  (796) 
WTLMDQHHDUHLRB-UHFFFAOYSA-N-P29-P29-P84-601526

>  <fragmenstein_runtime>  (796) 
3.282593

>  <scratch_subdir>  (796) 
/opt/xchem-fragalysis-2/maxwin/BulkDock/SCRATCH/601526/WTLMDQHHDUHLRB-UHFFFAOYSA-N-P29-P29-P84-601526

>  <HIPPO Compound ID>  (796) 
141856

>  <rmsd(smina/fragmenstein)>  (796) 
1.025

>  <distance_score>  (796) 
1.023525

>  <orig_smiles>  (796) 
CCOC(=O)c1nc(NC(=O)c2cc3ncc(Cl)n3cc2F)sc1Br

>  <fragmenstein_mode>  (796) 
expansion

>  <inchikey>  (796) 
WTLMDQHHDUHLRB-UHFFFAOYSA-N

>  <ref_pdb>  (796) 
Z3093a

>  <GNINA pK>  (796) 
nan

>  <gnina_score_min>  (796) 
5.297

>  <tags>  (796) 
xx01zvns2b_c1_elab_bulkdock_input,openbind_xx01zvns2b_c1_elab_nonasap_filtered_scored_top80percent,openbind_xx01zvns2b_c1_elab_chemspace_filtered_scored_top80percent,fragmenstein_placed,openbind_xx01zvns2b_c1_elab_chemspace_filtered_scored,openbind_xx01zvns2b_c1_elab_chemspace_filtered_scored_top40percent,openbind_xx01zvns2b_c1_elab_chemspace_filtered_scored_top20percent,openbind_xx01zvns2b_c1_elab_chemspace_filtered_scored_top60percent,openbind_xx01zvns2b_c1_elabs_filtered

>  <smiles>  (796) 
CCOC(=O)c1nc(NC(=O)c2cc3ncc(Cl)n3cc2F)sc1Br

>  <subsites>  (796) 
1 - Z4590/B/203/1

>  <gnina_score>  (796) 
5.402

>  <HIPPO Pose ID>  (796) 
76966

>  <ref_mols>  (796) 
Z1495a,Z0673a

>  <energy_score>  (796) 
-77.882302

>  <inspiration_score>  (796) 
None

>  <smina_score_min>  (796) 
-6.394

>  <fragmenstein_error>  (796) 


>  <name>  (796) 
WTLMDQHHDUHLRB-UHFFFAOYSA-N-P29-P29-P84-601526

$$$$
JJUYFRHAYYPQEA-UHFFFAOYSA-N-P84-P29-P84-601526
     RDKit          3D

 25 27  0  0  0  0  0  0  0  0999 V2000
   -8.9928    4.1074  -18.3738 C   0  0  0  0  0  0  0  0  0  0  0  0
   -7.6812    4.6405  -17.8436 C   0  0  0  0  0  0  0  0  0  0  0  0
   -6.6524    4.6774  -18.8594 O   0  0  0  0  0  0  0  0  0  0  0  0
   -5.3478    5.0249  -18.5770 C   0  0  0  0  0  0  0  0  0  0  0  0
   -4.4719    4.9617  -19.4417 O   0  0  0  0  0  0  0  0  0  0  0  0
   -4.9998    5.3882  -17.1879 C   0  0  0  0  0  0  0  0  0  0  0  0
   -5.9646    5.7392  -16.2572 N   0  0  0  0  0  0  0  0  0  0  0  0
   -5.4895    5.6239  -15.0574 C   0  0  0  0  0  0  0  0  0  0  0  0
   -6.2149    5.6213  -13.9271 N   0  0  0  0  0  0  0  0  0  0  0  0
   -7.7324    5.7904  -13.7109 C   0  0  0  0  0  0  0  0  0  0  0  0
   -8.5807    6.0349  -14.4704 O   0  0  0  0  0  0  0  0  0  0  0  0
   -7.9876    5.4975  -12.2821 C   0  0  0  0  0  0  0  0  0  0  0  0
   -7.9914    6.5596  -11.2881 C   0  0  0  0  0  0  0  0  0  0  0  0
   -8.1428    6.2228   -9.9955 C   0  0  0  0  0  0  0  0  0  0  0  0
   -8.2906    4.8779   -9.6582 N   0  0  0  0  0  0  0  0  0  0  0  0
   -8.4377    4.2971   -8.4272 C   0  0  0  0  0  0  0  0  0  0  0  0
   -8.5371    2.9420   -8.6673 C   0  0  0  0  0  0  0  0  0  0  0  0
   -8.7238    1.8317   -7.7102 C   0  0  0  0  0  0  0  0  0  0  0  0
   -8.4257    2.6826  -10.0117 N   0  0  0  0  0  0  0  0  0  0  0  0
   -8.2994    3.8495  -10.5916 C   0  0  0  0  0  0  0  0  0  0  0  0
   -8.1496    4.1992  -11.9585 C   0  0  0  0  0  0  0  0  0  0  0  0
   -3.8300    5.3698  -14.9366 S   0  0  0  0  0  0  0  0  0  0  0  0
   -3.7108    5.4291  -16.6572 C   0  0  0  0  0  0  0  0  0  0  0  0
   -2.3791    5.3974  -17.3366 C   0  0  0  0  0  0  0  0  0  0  0  0
   -1.2980    6.1640  -16.5803 C   0  0  0  0  0  0  0  0  0  0  0  0
  1  2  1  0
  2  3  1  0
  3  4  1  0
  4  5  2  0
  4  6  1  0
  6  7  1  0
  7  8  2  0
  8  9  1  0
  9 10  1  0
 10 11  2  0
 10 12  1  0
 12 13  1  0
 13 14  2  0
 14 15  1  0
 15 16  1  0
 16 17  2  0
 17 18  1  0
 17 19  1  0
 19 20  2  0
 20 21  1  0
  8 22  1  0
 22 23  1  0
 23 24  1  0
 24 25  1  0
 23  6  2  0
 21 12  2  0
 20 15  1  0
M  END
>  <fragmenstein_outcome>  (797) 
too moved

>  <exports>  (797) 
['/opt/xchem-fragalysis-2/maxwin/openbind-hippo/xx01zvns2b/cycle_01/syndirella/elabs/openbind_xx01zvns2b_c1_elab_chemspace_filtered.sdf']

>  <Energy>  (797) 
52.025855

>  <alias>  (797) 
JJUYFRHAYYPQEA-UHFFFAOYSA-N-P84-P29-P84-601526

>  <fragmenstein_runtime>  (797) 
6.048727

>  <scratch_subdir>  (797) 
/opt/xchem-fragalysis-2/maxwin/BulkDock/SCRATCH/601526/JJUYFRHAYYPQEA-UHFFFAOYSA-N-P84-P29-P84-601526

>  <HIPPO Compound ID>  (797) 
141859

>  <rmsd(smina/fragmenstein)>  (797) 
1.372

>  <distance_score>  (797) 
1.395534

>  <orig_smiles>  (797) 
CCOC(=O)c1nc(NC(=O)c2ccn3cc(C)nc3c2)sc1CC

>  <fragmenstein_mode>  (797) 
expansion

>  <inchikey>  (797) 
JJUYFRHAYYPQEA-UHFFFAOYSA-N

>  <ref_pdb>  (797) 
Z3093a

>  <GNINA pK>  (797) 
nan

>  <gnina_score_min>  (797) 
5.161

>  <tags>  (797) 
xx01zvns2b_c1_elab_bulkdock_input,openbind_xx01zvns2b_c1_elab_nonasap_filtered_scored_top80percent,openbind_xx01zvns2b_c1_elab_chemspace_filtered_scored_top80percent,fragmenstein_placed,openbind_xx01zvns2b_c1_elab_chemspace_filtered_scored,openbind_xx01zvns2b_c1_elab_chemspace_filtered_scored_top40percent,openbind_xx01zvns2b_c1_elab_chemspace_filtered_scored_top20percent,openbind_xx01zvns2b_c1_elab_chemspace_filtered_scored_top60percent,openbind_xx01zvns2b_c1_elabs_filtered

>  <smiles>  (797) 
CCOC(=O)c1nc(NC(=O)c2ccn3cc(C)nc3c2)sc1CC

>  <subsites>  (797) 
1 - Z4590/B/203/1

>  <gnina_score>  (797) 
5.169

>  <HIPPO Pose ID>  (797) 
76973

>  <ref_mols>  (797) 
Z1495a,Z0673a

>  <energy_score>  (797) 
-33.737097

>  <inspiration_score>  (797) 
None

>  <smina_score_min>  (797) 
-5.938

>  <fragmenstein_error>  (797) 


>  <name>  (797) 
JJUYFRHAYYPQEA-UHFFFAOYSA-N-P84-P29-P84-601526

$$$$
GJTIMWBHYAGVBN-UHFFFAOYSA-N-P29-P29-P84-601526
     RDKit          3D

 25 27  0  0  0  0  0  0  0  0999 V2000
   -9.7436    3.9247  -18.0918 C   0  0  0  0  0  0  0  0  0  0  0  0
   -8.3813    4.3880  -17.6537 C   0  0  0  0  0  0  0  0  0  0  0  0
   -7.5378    4.5405  -18.8108 O   0  0  0  0  0  0  0  0  0  0  0  0
   -6.2089    4.8821  -18.7327 C   0  0  0  0  0  0  0  0  0  0  0  0
   -5.5248    4.8975  -19.7509 O   0  0  0  0  0  0  0  0  0  0  0  0
   -5.6354    5.1662  -17.4071 C   0  0  0  0  0  0  0  0  0  0  0  0
   -6.4409    5.5275  -16.3374 N   0  0  0  0  0  0  0  0  0  0  0  0
   -5.7870    5.4403  -15.2209 C   0  0  0  0  0  0  0  0  0  0  0  0
   -6.3643    5.4540  -14.0067 N   0  0  0  0  0  0  0  0  0  0  0  0
   -7.8396    5.6621  -13.6004 C   0  0  0  0  0  0  0  0  0  0  0  0
   -8.7714    5.9303  -14.2477 O   0  0  0  0  0  0  0  0  0  0  0  0
   -7.9485    5.3662  -12.1599 C   0  0  0  0  0  0  0  0  0  0  0  0
   -8.2593    4.0980  -11.8294 C   0  0  0  0  0  0  0  0  0  0  0  0
   -8.3788    3.7600  -10.4552 C   0  0  0  0  0  0  0  0  0  0  0  0
   -8.6496    2.6160   -9.8787 N   0  0  0  0  0  0  0  0  0  0  0  0
   -8.5964    2.8564   -8.5297 C   0  0  0  0  0  0  0  0  0  0  0  0
   -8.3222    4.1806   -8.2854 C   0  0  0  0  0  0  0  0  0  0  0  0
   -8.1760    4.9866   -6.5737 Br  0  0  0  0  0  0  0  0  0  0  0  0
   -8.1771    4.7699   -9.5157 N   0  0  0  0  0  0  0  0  0  0  0  0
   -7.8710    6.0854   -9.8649 C   0  0  0  0  0  0  0  0  0  0  0  0
   -7.7537    6.3940  -11.1635 C   0  0  0  0  0  0  0  0  0  0  0  0
   -7.4324    7.6426  -11.5516 F   0  0  0  0  0  0  0  0  0  0  0  0
   -4.1209    5.1929  -15.3425 S   0  0  0  0  0  0  0  0  0  0  0  0
   -4.3000    5.1160  -17.0481 C   0  0  0  0  0  0  0  0  0  0  0  0
   -2.8104    4.8877  -18.2111 Br  0  0  0  0  0  0  0  0  0  0  0  0
  1  2  1  0
  2  3  1  0
  3  4  1  0
  4  5  2  0
  4  6  1  0
  6  7  1  0
  7  8  2  0
  8  9  1  0
  9 10  1  0
 10 11  2  0
 10 12  1  0
 12 13  2  0
 13 14  1  0
 14 15  2  0
 15 16  1  0
 16 17  2  0
 17 18  1  0
 17 19  1  0
 19 20  1  0
 20 21  2  0
 21 22  1  0
  8 23  1  0
 23 24  1  0
 24 25  1  0
 24  6  2  0
 21 12  1  0
 19 14  1  0
M  END
>  <fragmenstein_outcome>  (798) 
acceptable

>  <exports>  (798) 
['/opt/xchem-fragalysis-2/maxwin/BulkDock/OUTPUTS/xx01zvns2b_c1_elab_bulkdock_input_1GFT1FD.sdf', '/opt/xchem-fragalysis-2/maxwin/openbind-hippo/xx01zvns2b/cycle_01/syndirella/elabs/openbind_xx01zvns2b_c1_elab_chemspace_filtered.sdf']

>  <Energy>  (798) 
30.652777

>  <alias>  (798) 
GJTIMWBHYAGVBN-UHFFFAOYSA-N-P29-P29-P84-601526

>  <fragmenstein_runtime>  (798) 
3.115118

>  <scratch_subdir>  (798) 
/opt/xchem-fragalysis-2/maxwin/BulkDock/SCRATCH/601526/GJTIMWBHYAGVBN-UHFFFAOYSA-N-P29-P29-P84-601526

>  <HIPPO Compound ID>  (798) 
141863

>  <rmsd(smina/fragmenstein)>  (798) 
1.626

>  <distance_score>  (798) 
0.862678

>  <orig_smiles>  (798) 
CCOC(=O)c1nc(NC(=O)c2cc3ncc(Br)n3cc2F)sc1Br

>  <fragmenstein_mode>  (798) 
expansion

>  <inchikey>  (798) 
GJTIMWBHYAGVBN-UHFFFAOYSA-N

>  <ref_pdb>  (798) 
Z3093a

>  <GNINA pK>  (798) 
nan

>  <gnina_score_min>  (798) 
5.236

>  <tags>  (798) 
xx01zvns2b_c1_elab_bulkdock_input,openbind_xx01zvns2b_c1_elab_nonasap_filtered_scored_top80percent,BulkDock Fragalysis export,openbind_xx01zvns2b_c1_elab_chemspace_filtered_scored_top80percent,fragmenstein_placed,openbind_xx01zvns2b_c1_elab_chemspace_filtered_scored,openbind_xx01zvns2b_c1_elab_chemspace_filtered_scored_top40percent,openbind_xx01zvns2b_c1_elab_chemspace_filtered_scored_top20percent,openbind_xx01zvns2b_c1_elab_chemspace_filtered_scored_top60percent,openbind_xx01zvns2b_c1_elabs_filtered

>  <smiles>  (798) 
CCOC(=O)c1nc(NC(=O)c2cc3ncc(Br)n3cc2F)sc1Br

>  <subsites>  (798) 
1 - Z4590/B/203/1

>  <gnina_score>  (798) 
5.454

>  <HIPPO Pose ID>  (798) 
76980

>  <ref_mols>  (798) 
Z1495a,Z0673a

>  <energy_score>  (798) 
-52.567388

>  <inspiration_score>  (798) 
None

>  <smina_score_min>  (798) 
-6.593

>  <fragmenstein_error>  (798) 


>  <name>  (798) 
GJTIMWBHYAGVBN-UHFFFAOYSA-N-P29-P29-P84-601526

$$$$
XBLIUXJNNVAESD-UHFFFAOYSA-N-P84-P29-P84-601526
     RDKit          3D

 26 28  0  0  0  0  0  0  0  0999 V2000
   -9.1239    4.1505  -18.1565 C   0  0  0  0  0  0  0  0  0  0  0  0
   -7.8644    4.7754  -17.6062 C   0  0  0  0  0  0  0  0  0  0  0  0
   -7.2763    5.6533  -18.5927 O   0  0  0  0  0  0  0  0  0  0  0  0
   -5.9819    6.0889  -18.4656 C   0  0  0  0  0  0  0  0  0  0  0  0
   -5.3669    6.6097  -19.3908 O   0  0  0  0  0  0  0  0  0  0  0  0
   -5.3926    5.9379  -17.1414 C   0  0  0  0  0  0  0  0  0  0  0  0
   -6.1295    6.2941  -16.0232 N   0  0  0  0  0  0  0  0  0  0  0  0
   -5.5541    5.8248  -14.9572 C   0  0  0  0  0  0  0  0  0  0  0  0
   -6.1579    5.7010  -13.7631 N   0  0  0  0  0  0  0  0  0  0  0  0
   -7.5810    6.1102  -13.3091 C   0  0  0  0  0  0  0  0  0  0  0  0
   -8.4198    6.6864  -13.8788 O   0  0  0  0  0  0  0  0  0  0  0  0
   -7.7994    5.5334  -11.9580 C   0  0  0  0  0  0  0  0  0  0  0  0
   -7.7182    4.1897  -11.9255 C   0  0  0  0  0  0  0  0  0  0  0  0
   -7.8342    3.5266  -10.6890 C   0  0  0  0  0  0  0  0  0  0  0  0
   -7.5199    2.3031  -10.3821 N   0  0  0  0  0  0  0  0  0  0  0  0
   -7.8693    2.1598   -9.0732 C   0  0  0  0  0  0  0  0  0  0  0  0
   -8.3470    3.3364   -8.5463 C   0  0  0  0  0  0  0  0  0  0  0  0
   -8.8210    3.5338   -7.2135 C   0  0  0  0  0  0  0  0  0  0  0  0
   -9.1609    4.6215   -6.7504 O   0  0  0  0  0  0  0  0  0  0  0  0
   -8.2282    4.2508   -9.5753 N   0  0  0  0  0  0  0  0  0  0  0  0
   -8.3717    5.6418   -9.6172 C   0  0  0  0  0  0  0  0  0  0  0  0
   -8.1501    6.3070  -10.7708 C   0  0  0  0  0  0  0  0  0  0  0  0
   -8.2676    8.1657  -10.8485 Br  0  0  0  0  0  0  0  0  0  0  0  0
   -4.0075    5.1573  -15.1528 S   0  0  0  0  0  0  0  0  0  0  0  0
   -4.1571    5.4058  -16.8398 C   0  0  0  0  0  0  0  0  0  0  0  0
   -2.8410    4.8518  -18.0991 Br  0  0  0  0  0  0  0  0  0  0  0  0
  1  2  1  0
  2  3  1  0
  3  4  1  0
  4  5  2  0
  4  6  1  0
  6  7  1  0
  7  8  2  0
  8  9  1  0
  9 10  1  0
 10 11  2  0
 10 12  1  0
 12 13  2  0
 13 14  1  0
 14 15  2  0
 15 16  1  0
 16 17  2  0
 17 18  1  0
 18 19  2  0
 17 20  1  0
 20 21  1  0
 21 22  2  0
 22 23  1  0
  8 24  1  0
 24 25  1  0
 25 26  1  0
 25  6  2  0
 22 12  1  0
 20 14  1  0
M  END
>  <fragmenstein_outcome>  (799) 
too moved

>  <exports>  (799) 
['/opt/xchem-fragalysis-2/maxwin/openbind-hippo/xx01zvns2b/cycle_01/syndirella/elabs/openbind_xx01zvns2b_c1_elab_chemspace_filtered.sdf']

>  <Energy>  (799) 
24.12288

>  <alias>  (799) 
XBLIUXJNNVAESD-UHFFFAOYSA-N-P84-P29-P84-601526

>  <fragmenstein_runtime>  (799) 
3.44515

>  <scratch_subdir>  (799) 
/opt/xchem-fragalysis-2/maxwin/BulkDock/SCRATCH/601526/XBLIUXJNNVAESD-UHFFFAOYSA-N-P84-P29-P84-601526

>  <HIPPO Compound ID>  (799) 
141866

>  <rmsd(smina/fragmenstein)>  (799) 
1.037

>  <distance_score>  (799) 
1.343008

>  <orig_smiles>  (799) 
CCOC(=O)c1nc(NC(=O)c2cc3ncc(C=O)n3cc2Br)sc1Br

>  <fragmenstein_mode>  (799) 
expansion

>  <inchikey>  (799) 
XBLIUXJNNVAESD-UHFFFAOYSA-N

>  <ref_pdb>  (799) 
Z3093a

>  <GNINA pK>  (799) 
nan

>  <gnina_score_min>  (799) 
5.38

>  <tags>  (799) 
xx01zvns2b_c1_elab_bulkdock_input,openbind_xx01zvns2b_c1_elab_nonasap_filtered_scored_top80percent,openbind_xx01zvns2b_c1_elab_chemspace_filtered_scored_top80percent,fragmenstein_placed,openbind_xx01zvns2b_c1_elab_chemspace_filtered_scored,openbind_xx01zvns2b_c1_elab_chemspace_filtered_scored_top40percent,openbind_xx01zvns2b_c1_elab_chemspace_filtered_scored_top20percent,openbind_xx01zvns2b_c1_elab_chemspace_filtered_scored_top60percent,openbind_xx01zvns2b_c1_elabs_filtered

>  <smiles>  (799) 
CCOC(=O)c1nc(NC(=O)c2cc3ncc(C=O)n3cc2Br)sc1Br

>  <subsites>  (799) 
1 - Z4590/B/203/1

>  <gnina_score>  (799) 
5.534

>  <HIPPO Pose ID>  (799) 
76987

>  <ref_mols>  (799) 
Z1495a,Z0673a

>  <energy_score>  (799) 
-79.779447

>  <inspiration_score>  (799) 
None

>  <smina_score_min>  (799) 
-5.696

>  <fragmenstein_error>  (799) 


>  <name>  (799) 
XBLIUXJNNVAESD-UHFFFAOYSA-N-P84-P29-P84-601526

$$$$
TXKCQXXYHFSUFV-UHFFFAOYSA-N-P84-P29-P84-601526
     RDKit          3D

 26 28  0  0  0  0  0  0  0  0999 V2000
   -3.4373    3.6021  -15.1857 C   0  0  0  0  0  0  0  0  0  0  0  0
   -4.5557    4.1039  -14.6539 C   0  0  0  0  0  0  0  0  0  0  0  0
   -4.8904    5.5608  -14.7181 C   0  0  0  0  0  0  0  0  0  0  0  0
   -6.4447    5.8245  -14.7794 N   0  0  0  0  0  0  0  0  0  0  0  0
   -6.7843    6.9311  -13.9672 C   0  0  0  0  0  0  0  0  0  0  0  0
   -6.8618    8.1015  -14.2307 O   0  0  0  0  0  0  0  0  0  0  0  0
   -7.1878    6.4195  -12.5866 C   0  0  0  0  0  0  0  0  0  0  0  0
   -7.2302    7.3447  -11.4528 C   0  0  0  0  0  0  0  0  0  0  0  0
   -7.5654    6.9002  -10.2225 C   0  0  0  0  0  0  0  0  0  0  0  0
   -7.6187    8.0661   -8.7625 Br  0  0  0  0  0  0  0  0  0  0  0  0
   -7.8697    5.5386  -10.0568 N   0  0  0  0  0  0  0  0  0  0  0  0
   -8.1906    4.8015   -8.9381 C   0  0  0  0  0  0  0  0  0  0  0  0
   -8.3589    3.5065   -9.3738 C   0  0  0  0  0  0  0  0  0  0  0  0
   -8.1576    3.4202  -10.7238 N   0  0  0  0  0  0  0  0  0  0  0  0
   -7.8724    4.6387  -11.1164 C   0  0  0  0  0  0  0  0  0  0  0  0
   -7.5504    5.1273  -12.4094 C   0  0  0  0  0  0  0  0  0  0  0  0
   -6.1913    5.7368  -16.1889 C   0  0  0  0  0  0  0  0  0  0  0  0
   -6.6461    4.6799  -16.8201 N   0  0  0  0  0  0  0  0  0  0  0  0
   -6.8874    4.9412  -18.1611 C   0  0  0  0  0  0  0  0  0  0  0  0
   -7.6535    4.0046  -18.9929 C   0  0  0  0  0  0  0  0  0  0  0  0
   -7.2697    3.6132  -20.0852 O   0  0  0  0  0  0  0  0  0  0  0  0
   -8.8018    3.4813  -18.4586 O   0  0  0  0  0  0  0  0  0  0  0  0
   -9.6690    4.3322  -17.7133 C   0  0  0  0  0  0  0  0  0  0  0  0
   -9.3909    4.2003  -16.2360 C   0  0  0  0  0  0  0  0  0  0  0  0
   -6.3373    6.1348  -18.5870 C   0  0  0  0  0  0  0  0  0  0  0  0
   -5.8707    7.0759  -17.2173 S   0  0  0  0  0  0  0  0  0  0  0  0
  1  2  2  0
  2  3  1  0
  3  4  1  0
  4  5  1  0
  5  6  2  0
  5  7  1  0
  7  8  1  0
  8  9  2  0
  9 10  1  0
  9 11  1  0
 11 12  1  0
 12 13  2  0
 13 14  1  0
 14 15  2  0
 15 16  1  0
  4 17  1  0
 17 18  2  0
 18 19  1  0
 19 20  1  0
 20 21  2  0
 20 22  1  0
 22 23  1  0
 23 24  1  0
 19 25  2  0
 25 26  1  0
 16  7  2  0
 26 17  1  0
 15 11  1  0
M  END
>  <fragmenstein_outcome>  (800) 
too moved

>  <exports>  (800) 
['/opt/xchem-fragalysis-2/maxwin/openbind-hippo/xx01zvns2b/cycle_01/syndirella/elabs/openbind_xx01zvns2b_c1_elab_chemspace_filtered.sdf']

>  <Energy>  (800) 
142.147369

>  <alias>  (800) 
TXKCQXXYHFSUFV-UHFFFAOYSA-N-P84-P29-P84-601526

>  <fragmenstein_runtime>  (800) 
4.923872

>  <scratch_subdir>  (800) 
/opt/xchem-fragalysis-2/maxwin/BulkDock/SCRATCH/601526/TXKCQXXYHFSUFV-UHFFFAOYSA-N-P84-P29-P84-601526

>  <HIPPO Compound ID>  (800) 
141871

>  <rmsd(smina/fragmenstein)>  (800) 
1.729

>  <distance_score>  (800) 
1.783919

>  <orig_smiles>  (800) 
C=CCN(C(=O)c1cc(Br)n2ccnc2c1)c1nc(C(=O)OCC)cs1

>  <fragmenstein_mode>  (800) 
expansion

>  <inchikey>  (800) 
TXKCQXXYHFSUFV-UHFFFAOYSA-N

>  <ref_pdb>  (800) 
Z3093a

>  <GNINA pK>  (800) 
nan

>  <gnina_score_min>  (800) 
5.248

>  <tags>  (800) 
xx01zvns2b_c1_elab_bulkdock_input,openbind_xx01zvns2b_c1_elab_nonasap_filtered_scored_top80percent,openbind_xx01zvns2b_c1_elab_chemspace_filtered_scored_top80percent,fragmenstein_placed,openbind_xx01zvns2b_c1_elab_chemspace_filtered_scored,openbind_xx01zvns2b_c1_elab_chemspace_filtered_scored_top40percent,openbind_xx01zvns2b_c1_elab_chemspace_filtered_scored_top20percent,openbind_xx01zvns2b_c1_elab_chemspace_filtered_scored_top60percent,openbind_xx01zvns2b_c1_elabs_filtered

>  <smiles>  (800) 
C=CCN(C(=O)c1cc(Br)n2ccnc2c1)c1nc(C(=O)OCC)cs1

>  <subsites>  (800) 
1 - Z4590/B/203/1

>  <gnina_score>  (800) 
5.539

>  <HIPPO Pose ID>  (800) 
76997

>  <ref_mols>  (800) 
Z1495a,Z0673a

>  <energy_score>  (800) 
-17.761565

>  <inspiration_score>  (800) 
None

>  <smina_score_min>  (800) 
-4.881

>  <fragmenstein_error>  (800) 


>  <name>  (800) 
TXKCQXXYHFSUFV-UHFFFAOYSA-N-P84-P29-P84-601526

$$$$
JRYGQCXTOUQVLA-UHFFFAOYSA-N-P84-P29-P84-601526
     RDKit          3D

 26 28  0  0  0  0  0  0  0  0999 V2000
   -9.1472    4.1290  -18.1956 C   0  0  0  0  0  0  0  0  0  0  0  0
   -7.8657    4.7196  -17.6611 C   0  0  0  0  0  0  0  0  0  0  0  0
   -7.1660    5.4355  -18.7040 O   0  0  0  0  0  0  0  0  0  0  0  0
   -5.8506    5.8020  -18.5655 C   0  0  0  0  0  0  0  0  0  0  0  0
   -5.1816    6.2218  -19.5048 O   0  0  0  0  0  0  0  0  0  0  0  0
   -5.2906    5.6839  -17.2237 C   0  0  0  0  0  0  0  0  0  0  0  0
   -6.0539    6.0427  -16.1289 N   0  0  0  0  0  0  0  0  0  0  0  0
   -5.4979    5.6023  -15.0418 C   0  0  0  0  0  0  0  0  0  0  0  0
   -6.1312    5.5561  -13.8586 N   0  0  0  0  0  0  0  0  0  0  0  0
   -7.5931    5.8851  -13.4917 C   0  0  0  0  0  0  0  0  0  0  0  0
   -8.4558    6.3207  -14.1428 O   0  0  0  0  0  0  0  0  0  0  0  0
   -7.7954    5.5210  -12.0749 C   0  0  0  0  0  0  0  0  0  0  0  0
   -8.0664    4.2197  -11.8465 C   0  0  0  0  0  0  0  0  0  0  0  0
   -8.3041    3.7969  -10.5149 C   0  0  0  0  0  0  0  0  0  0  0  0
   -8.5777    2.6143  -10.0253 N   0  0  0  0  0  0  0  0  0  0  0  0
   -8.7543    2.8032   -8.6723 C   0  0  0  0  0  0  0  0  0  0  0  0
   -9.1526    1.7387   -7.7756 C   0  0  0  0  0  0  0  0  0  0  0  0
   -9.4784    1.9222   -6.6052 O   0  0  0  0  0  0  0  0  0  0  0  0
   -8.5364    4.1257   -8.3390 C   0  0  0  0  0  0  0  0  0  0  0  0
   -8.2657    4.7612   -9.5173 N   0  0  0  0  0  0  0  0  0  0  0  0
   -7.9974    6.1046   -9.7521 C   0  0  0  0  0  0  0  0  0  0  0  0
   -7.7585    6.5172  -11.0094 C   0  0  0  0  0  0  0  0  0  0  0  0
   -7.3709    8.3019  -11.3842 Br  0  0  0  0  0  0  0  0  0  0  0  0
   -3.9345    4.9730  -15.1854 S   0  0  0  0  0  0  0  0  0  0  0  0
   -4.0429    5.2094  -16.8801 C   0  0  0  0  0  0  0  0  0  0  0  0
   -2.6620    4.7314  -18.0980 Br  0  0  0  0  0  0  0  0  0  0  0  0
  1  2  1  0
  2  3  1  0
  3  4  1  0
  4  5  2  0
  4  6  1  0
  6  7  1  0
  7  8  2  0
  8  9  1  0
  9 10  1  0
 10 11  2  0
 10 12  1  0
 12 13  2  0
 13 14  1  0
 14 15  2  0
 15 16  1  0
 16 17  1  0
 17 18  2  0
 16 19  2  0
 19 20  1  0
 20 21  1  0
 21 22  2  0
 22 23  1  0
  8 24  1  0
 24 25  1  0
 25 26  1  0
 25  6  2  0
 22 12  1  0
 20 14  1  0
M  END
>  <fragmenstein_outcome>  (801) 
too moved

>  <exports>  (801) 
['/opt/xchem-fragalysis-2/maxwin/openbind-hippo/xx01zvns2b/cycle_01/syndirella/elabs/openbind_xx01zvns2b_c1_elab_chemspace_filtered.sdf']

>  <Energy>  (801) 
55.995159

>  <alias>  (801) 
JRYGQCXTOUQVLA-UHFFFAOYSA-N-P84-P29-P84-601526

>  <fragmenstein_runtime>  (801) 
2.453535

>  <scratch_subdir>  (801) 
/opt/xchem-fragalysis-2/maxwin/BulkDock/SCRATCH/601526/JRYGQCXTOUQVLA-UHFFFAOYSA-N-P84-P29-P84-601526

>  <HIPPO Compound ID>  (801) 
141873

>  <rmsd(smina/fragmenstein)>  (801) 
1.102

>  <distance_score>  (801) 
1.053557

>  <orig_smiles>  (801) 
CCOC(=O)c1nc(NC(=O)c2cc3nc(C=O)cn3cc2Br)sc1Br

>  <fragmenstein_mode>  (801) 
expansion

>  <inchikey>  (801) 
JRYGQCXTOUQVLA-UHFFFAOYSA-N

>  <ref_pdb>  (801) 
Z3093a

>  <GNINA pK>  (801) 
nan

>  <gnina_score_min>  (801) 
5.386

>  <tags>  (801) 
xx01zvns2b_c1_elab_bulkdock_input,openbind_xx01zvns2b_c1_elab_nonasap_filtered_scored_top80percent,openbind_xx01zvns2b_c1_elab_chemspace_filtered_scored_top80percent,fragmenstein_placed,openbind_xx01zvns2b_c1_elab_chemspace_filtered_scored,openbind_xx01zvns2b_c1_elab_chemspace_filtered_scored_top40percent,openbind_xx01zvns2b_c1_elab_chemspace_filtered_scored_top20percent,openbind_xx01zvns2b_c1_elab_chemspace_filtered_scored_top60percent,openbind_xx01zvns2b_c1_elabs_filtered

>  <smiles>  (801) 
CCOC(=O)c1nc(NC(=O)c2cc3nc(C=O)cn3cc2Br)sc1Br

>  <subsites>  (801) 
1 - Z4590/B/203/1

>  <gnina_score>  (801) 
5.456

>  <HIPPO Pose ID>  (801) 
77001

>  <ref_mols>  (801) 
Z1495a,Z0673a

>  <energy_score>  (801) 
-277.402189

>  <inspiration_score>  (801) 
None

>  <smina_score_min>  (801) 
-6.438

>  <fragmenstein_error>  (801) 


>  <name>  (801) 
JRYGQCXTOUQVLA-UHFFFAOYSA-N-P84-P29-P84-601526

$$$$
NBMVIWGQXWVSLH-UHFFFAOYSA-N-P84-P29-P84-601526
     RDKit          3D

 26 28  0  0  0  0  0  0  0  0999 V2000
   -4.5765    8.4909  -15.1822 C   0  0  0  0  0  0  0  0  0  0  0  0
   -5.5039    7.9865  -14.3548 C   0  0  0  0  0  0  0  0  0  0  0  0
   -5.2820    6.7550  -13.4959 C   0  0  0  0  0  0  0  0  0  0  0  0
   -6.3492    5.5531  -13.5982 N   0  0  0  0  0  0  0  0  0  0  0  0
   -7.6179    5.9807  -13.1152 C   0  0  0  0  0  0  0  0  0  0  0  0
   -8.5498    6.4783  -13.6913 O   0  0  0  0  0  0  0  0  0  0  0  0
   -7.7562    5.6277  -11.6733 C   0  0  0  0  0  0  0  0  0  0  0  0
   -8.0732    6.6459  -10.6798 C   0  0  0  0  0  0  0  0  0  0  0  0
   -8.2686    6.2661   -9.4047 C   0  0  0  0  0  0  0  0  0  0  0  0
   -8.1752    4.9119   -9.0724 N   0  0  0  0  0  0  0  0  0  0  0  0
   -8.3332    4.2697   -7.8693 C   0  0  0  0  0  0  0  0  0  0  0  0
   -8.7524    5.0246   -6.1791 Br  0  0  0  0  0  0  0  0  0  0  0  0
   -8.1222    2.9354   -8.1230 C   0  0  0  0  0  0  0  0  0  0  0  0
   -7.8200    2.7341   -9.4453 N   0  0  0  0  0  0  0  0  0  0  0  0
   -7.8799    3.9201  -10.0033 C   0  0  0  0  0  0  0  0  0  0  0  0
   -7.6877    4.3188  -11.3520 C   0  0  0  0  0  0  0  0  0  0  0  0
   -5.8358    5.4854  -14.9232 C   0  0  0  0  0  0  0  0  0  0  0  0
   -6.6003    5.6945  -15.9672 N   0  0  0  0  0  0  0  0  0  0  0  0
   -6.0794    5.0620  -17.0853 C   0  0  0  0  0  0  0  0  0  0  0  0
   -6.9060    4.7845  -18.2529 C   0  0  0  0  0  0  0  0  0  0  0  0
   -6.4915    4.1800  -19.2296 O   0  0  0  0  0  0  0  0  0  0  0  0
   -8.1809    5.1975  -18.0536 O   0  0  0  0  0  0  0  0  0  0  0  0
   -9.1889    4.3816  -18.6468 C   0  0  0  0  0  0  0  0  0  0  0  0
  -10.3616    4.3872  -17.6908 C   0  0  0  0  0  0  0  0  0  0  0  0
   -4.7889    4.5952  -16.9222 C   0  0  0  0  0  0  0  0  0  0  0  0
   -4.4167    4.5426  -15.2471 S   0  0  0  0  0  0  0  0  0  0  0  0
  1  2  2  0
  2  3  1  0
  3  4  1  0
  4  5  1  0
  5  6  2  0
  5  7  1  0
  7  8  1  0
  8  9  2  0
  9 10  1  0
 10 11  1  0
 11 12  1  0
 11 13  2  0
 13 14  1  0
 14 15  2  0
 15 16  1  0
  4 17  1  0
 17 18  2  0
 18 19  1  0
 19 20  1  0
 20 21  2  0
 20 22  1  0
 22 23  1  0
 23 24  1  0
 19 25  2  0
 25 26  1  0
 16  7  2  0
 26 17  1  0
 15 10  1  0
M  END
>  <fragmenstein_outcome>  (802) 
too moved

>  <exports>  (802) 
['/opt/xchem-fragalysis-2/maxwin/openbind-hippo/xx01zvns2b/cycle_01/syndirella/elabs/openbind_xx01zvns2b_c1_elab_chemspace_filtered.sdf']

>  <Energy>  (802) 
141.598147

>  <alias>  (802) 
NBMVIWGQXWVSLH-UHFFFAOYSA-N-P84-P29-P84-601526

>  <fragmenstein_runtime>  (802) 
6.179108

>  <scratch_subdir>  (802) 
/opt/xchem-fragalysis-2/maxwin/BulkDock/SCRATCH/601526/NBMVIWGQXWVSLH-UHFFFAOYSA-N-P84-P29-P84-601526

>  <HIPPO Compound ID>  (802) 
141876

>  <rmsd(smina/fragmenstein)>  (802) 
1.032

>  <distance_score>  (802) 
1.719155

>  <orig_smiles>  (802) 
C=CCN(C(=O)c1ccn2c(Br)cnc2c1)c1nc(C(=O)OCC)cs1

>  <fragmenstein_mode>  (802) 
expansion

>  <inchikey>  (802) 
NBMVIWGQXWVSLH-UHFFFAOYSA-N

>  <ref_pdb>  (802) 
Z3093a

>  <GNINA pK>  (802) 
nan

>  <gnina_score_min>  (802) 
5.297

>  <tags>  (802) 
xx01zvns2b_c1_elab_bulkdock_input,openbind_xx01zvns2b_c1_elab_nonasap_filtered_scored_top80percent,openbind_xx01zvns2b_c1_elab_chemspace_filtered_scored_top80percent,fragmenstein_placed,openbind_xx01zvns2b_c1_elab_chemspace_filtered_scored,openbind_xx01zvns2b_c1_elab_chemspace_filtered_scored_top40percent,openbind_xx01zvns2b_c1_elab_chemspace_filtered_scored_top20percent,openbind_xx01zvns2b_c1_elab_chemspace_filtered_scored_top60percent,openbind_xx01zvns2b_c1_elabs_filtered

>  <smiles>  (802) 
C=CCN(C(=O)c1ccn2c(Br)cnc2c1)c1nc(C(=O)OCC)cs1

>  <subsites>  (802) 
1 - Z4590/B/203/1

>  <gnina_score>  (802) 
5.544

>  <HIPPO Pose ID>  (802) 
77007

>  <ref_mols>  (802) 
Z1495a,Z0673a

>  <energy_score>  (802) 
-13.996329

>  <inspiration_score>  (802) 
None

>  <smina_score_min>  (802) 
-5.765

>  <fragmenstein_error>  (802) 


>  <name>  (802) 
NBMVIWGQXWVSLH-UHFFFAOYSA-N-P84-P29-P84-601526

$$$$
CNAQHLYJGMHFSP-UHFFFAOYSA-N-P84-P29-P84-601526
     RDKit          3D

 26 28  0  0  0  0  0  0  0  0999 V2000
   -8.8226    4.1851  -18.3943 C   0  0  0  0  0  0  0  0  0  0  0  0
   -7.5708    4.8180  -17.8300 C   0  0  0  0  0  0  0  0  0  0  0  0
   -6.8089    5.4934  -18.8606 O   0  0  0  0  0  0  0  0  0  0  0  0
   -5.5018    5.8772  -18.6753 C   0  0  0  0  0  0  0  0  0  0  0  0
   -4.7925    6.2404  -19.6111 O   0  0  0  0  0  0  0  0  0  0  0  0
   -4.9792    5.8229  -17.3047 C   0  0  0  0  0  0  0  0  0  0  0  0
   -5.8378    5.9970  -16.2375 N   0  0  0  0  0  0  0  0  0  0  0  0
   -5.2726    5.6321  -15.1308 C   0  0  0  0  0  0  0  0  0  0  0  0
   -5.9527    5.4576  -13.9824 N   0  0  0  0  0  0  0  0  0  0  0  0
   -7.4458    5.6900  -13.6550 C   0  0  0  0  0  0  0  0  0  0  0  0
   -8.3333    5.9949  -14.3478 O   0  0  0  0  0  0  0  0  0  0  0  0
   -7.6673    5.3522  -12.2338 C   0  0  0  0  0  0  0  0  0  0  0  0
   -7.9953    4.0784  -11.9424 C   0  0  0  0  0  0  0  0  0  0  0  0
   -8.2389    3.7268  -10.5859 C   0  0  0  0  0  0  0  0  0  0  0  0
   -8.5188    2.5658  -10.0452 N   0  0  0  0  0  0  0  0  0  0  0  0
   -8.6225    2.7930   -8.6963 C   0  0  0  0  0  0  0  0  0  0  0  0
   -8.4109    4.1183   -8.4242 C   0  0  0  0  0  0  0  0  0  0  0  0
   -8.4050    4.9736   -6.9551 Cl  0  0  0  0  0  0  0  0  0  0  0  0
   -8.1626    4.7361   -9.6227 N   0  0  0  0  0  0  0  0  0  0  0  0
   -7.8563    6.0611   -9.9379 C   0  0  0  0  0  0  0  0  0  0  0  0
   -7.6073    6.3776  -11.2157 C   0  0  0  0  0  0  0  0  0  0  0  0
   -7.2798    7.6372  -11.5618 F   0  0  0  0  0  0  0  0  0  0  0  0
   -3.6167    5.3058  -15.2188 S   0  0  0  0  0  0  0  0  0  0  0  0
   -3.6557    5.6384  -16.9178 C   0  0  0  0  0  0  0  0  0  0  0  0
   -2.3906    5.6437  -17.7163 C   0  0  0  0  0  0  0  0  0  0  0  0
   -2.2460    4.4226  -18.6042 C   0  0  0  0  0  0  0  0  0  0  0  0
  1  2  1  0
  2  3  1  0
  3  4  1  0
  4  5  2  0
  4  6  1  0
  6  7  1  0
  7  8  2  0
  8  9  1  0
  9 10  1  0
 10 11  2  0
 10 12  1  0
 12 13  2  0
 13 14  1  0
 14 15  2  0
 15 16  1  0
 16 17  2  0
 17 18  1  0
 17 19  1  0
 19 20  1  0
 20 21  2  0
 21 22  1  0
  8 23  1  0
 23 24  1  0
 24 25  1  0
 25 26  1  0
 24  6  2  0
 21 12  1  0
 19 14  1  0
M  END
>  <fragmenstein_outcome>  (803) 
too moved

>  <exports>  (803) 
['/opt/xchem-fragalysis-2/maxwin/openbind-hippo/xx01zvns2b/cycle_01/syndirella/elabs/openbind_xx01zvns2b_c1_elab_chemspace_filtered.sdf']

>  <Energy>  (803) 
41.234181

>  <alias>  (803) 
CNAQHLYJGMHFSP-UHFFFAOYSA-N-P84-P29-P84-601526

>  <fragmenstein_runtime>  (803) 
3.384479

>  <scratch_subdir>  (803) 
/opt/xchem-fragalysis-2/maxwin/BulkDock/SCRATCH/601526/CNAQHLYJGMHFSP-UHFFFAOYSA-N-P84-P29-P84-601526

>  <HIPPO Compound ID>  (803) 
141878

>  <rmsd(smina/fragmenstein)>  (803) 
1.259

>  <distance_score>  (803) 
1.4556

>  <orig_smiles>  (803) 
CCOC(=O)c1nc(NC(=O)c2cc3ncc(Cl)n3cc2F)sc1CC

>  <fragmenstein_mode>  (803) 
expansion

>  <inchikey>  (803) 
CNAQHLYJGMHFSP-UHFFFAOYSA-N

>  <ref_pdb>  (803) 
Z3093a

>  <GNINA pK>  (803) 
nan

>  <gnina_score_min>  (803) 
5.356

>  <tags>  (803) 
xx01zvns2b_c1_elab_bulkdock_input,openbind_xx01zvns2b_c1_elab_nonasap_filtered_scored_top80percent,openbind_xx01zvns2b_c1_elab_chemspace_filtered_scored_top80percent,fragmenstein_placed,openbind_xx01zvns2b_c1_elab_chemspace_filtered_scored,openbind_xx01zvns2b_c1_elab_chemspace_filtered_scored_top40percent,openbind_xx01zvns2b_c1_elab_chemspace_filtered_scored_top20percent,openbind_xx01zvns2b_c1_elab_chemspace_filtered_scored_top60percent,openbind_xx01zvns2b_c1_elabs_filtered

>  <smiles>  (803) 
CCOC(=O)c1nc(NC(=O)c2cc3ncc(Cl)n3cc2F)sc1CC

>  <subsites>  (803) 
1 - Z4590/B/203/1

>  <gnina_score>  (803) 
5.372

>  <HIPPO Pose ID>  (803) 
77010

>  <ref_mols>  (803) 
Z1495a,Z0673a

>  <energy_score>  (803) 
-79.931243

>  <inspiration_score>  (803) 
None

>  <smina_score_min>  (803) 
-6.366

>  <fragmenstein_error>  (803) 


>  <name>  (803) 
CNAQHLYJGMHFSP-UHFFFAOYSA-N-P84-P29-P84-601526

$$$$
GFENYIPTFGNEEO-UHFFFAOYSA-N-P84-P29-P84-601526
     RDKit          3D

 26 28  0  0  0  0  0  0  0  0999 V2000
   -9.0030    4.1891  -18.2687 C   0  0  0  0  0  0  0  0  0  0  0  0
   -7.7136    4.7895  -17.7581 C   0  0  0  0  0  0  0  0  0  0  0  0
   -7.0179    5.4985  -18.8110 O   0  0  0  0  0  0  0  0  0  0  0  0
   -5.6864    5.8150  -18.7024 C   0  0  0  0  0  0  0  0  0  0  0  0
   -5.0107    6.1887  -19.6574 O   0  0  0  0  0  0  0  0  0  0  0  0
   -5.0975    5.6762  -17.3707 C   0  0  0  0  0  0  0  0  0  0  0  0
   -5.8345    6.0214  -16.2559 N   0  0  0  0  0  0  0  0  0  0  0  0
   -5.2945    5.5067  -15.1949 C   0  0  0  0  0  0  0  0  0  0  0  0
   -5.9558    5.3645  -14.0302 N   0  0  0  0  0  0  0  0  0  0  0  0
   -7.3914    5.7805  -13.6339 C   0  0  0  0  0  0  0  0  0  0  0  0
   -8.2497    6.2410  -14.2758 O   0  0  0  0  0  0  0  0  0  0  0  0
   -7.6176    5.4008  -12.2230 C   0  0  0  0  0  0  0  0  0  0  0  0
   -7.9488    4.1199  -11.9663 C   0  0  0  0  0  0  0  0  0  0  0  0
   -8.2097    3.7366  -10.6219 C   0  0  0  0  0  0  0  0  0  0  0  0
   -8.4935    2.5654  -10.1102 N   0  0  0  0  0  0  0  0  0  0  0  0
   -8.6117    2.7659   -8.7584 C   0  0  0  0  0  0  0  0  0  0  0  0
   -8.4047    4.0879   -8.4463 C   0  0  0  0  0  0  0  0  0  0  0  0
   -8.4490    4.8362   -6.7030 Br  0  0  0  0  0  0  0  0  0  0  0  0
   -8.1489    4.7210   -9.6367 N   0  0  0  0  0  0  0  0  0  0  0  0
   -7.8455    6.0531   -9.9125 C   0  0  0  0  0  0  0  0  0  0  0  0
   -7.5803    6.4022  -11.1788 C   0  0  0  0  0  0  0  0  0  0  0  0
   -7.2537    7.6716  -11.4880 F   0  0  0  0  0  0  0  0  0  0  0  0
   -3.7275    4.8909  -15.3808 S   0  0  0  0  0  0  0  0  0  0  0  0
   -3.8329    5.1832  -17.0808 C   0  0  0  0  0  0  0  0  0  0  0  0
   -2.7216    4.8055  -18.0039 C   0  0  0  0  0  0  0  0  0  0  0  0
   -1.6868    5.9119  -18.1287 C   0  0  0  0  0  0  0  0  0  0  0  0
  1  2  1  0
  2  3  1  0
  3  4  1  0
  4  5  2  0
  4  6  1  0
  6  7  1  0
  7  8  2  0
  8  9  1  0
  9 10  1  0
 10 11  2  0
 10 12  1  0
 12 13  2  0
 13 14  1  0
 14 15  2  0
 15 16  1  0
 16 17  2  0
 17 18  1  0
 17 19  1  0
 19 20  1  0
 20 21  2  0
 21 22  1  0
  8 23  1  0
 23 24  1  0
 24 25  1  0
 25 26  1  0
 24  6  2  0
 21 12  1  0
 19 14  1  0
M  END
>  <fragmenstein_outcome>  (804) 
too moved

>  <exports>  (804) 
['/opt/xchem-fragalysis-2/maxwin/openbind-hippo/xx01zvns2b/cycle_01/syndirella/elabs/openbind_xx01zvns2b_c1_elab_chemspace_filtered.sdf']

>  <Energy>  (804) 
38.432675

>  <alias>  (804) 
GFENYIPTFGNEEO-UHFFFAOYSA-N-P84-P29-P84-601526

>  <fragmenstein_runtime>  (804) 
3.62007

>  <scratch_subdir>  (804) 
/opt/xchem-fragalysis-2/maxwin/BulkDock/SCRATCH/601526/GFENYIPTFGNEEO-UHFFFAOYSA-N-P84-P29-P84-601526

>  <HIPPO Compound ID>  (804) 
141882

>  <rmsd(smina/fragmenstein)>  (804) 
1.636

>  <distance_score>  (804) 
1.437427

>  <orig_smiles>  (804) 
CCOC(=O)c1nc(NC(=O)c2cc3ncc(Br)n3cc2F)sc1CC

>  <fragmenstein_mode>  (804) 
expansion

>  <inchikey>  (804) 
GFENYIPTFGNEEO-UHFFFAOYSA-N

>  <ref_pdb>  (804) 
Z3093a

>  <GNINA pK>  (804) 
nan

>  <gnina_score_min>  (804) 
5.332

>  <tags>  (804) 
xx01zvns2b_c1_elab_bulkdock_input,openbind_xx01zvns2b_c1_elab_nonasap_filtered_scored_top80percent,openbind_xx01zvns2b_c1_elab_chemspace_filtered_scored_top80percent,fragmenstein_placed,openbind_xx01zvns2b_c1_elab_chemspace_filtered_scored,openbind_xx01zvns2b_c1_elab_chemspace_filtered_scored_top40percent,openbind_xx01zvns2b_c1_elab_chemspace_filtered_scored_top20percent,openbind_xx01zvns2b_c1_elab_chemspace_filtered_scored_top60percent,openbind_xx01zvns2b_c1_elabs_filtered

>  <smiles>  (804) 
CCOC(=O)c1nc(NC(=O)c2cc3ncc(Br)n3cc2F)sc1CC

>  <subsites>  (804) 
1 - Z4590/B/203/1

>  <gnina_score>  (804) 
5.472

>  <HIPPO Pose ID>  (804) 
77017

>  <ref_mols>  (804) 
Z1495a,Z0673a

>  <energy_score>  (804) 
-78.458832

>  <inspiration_score>  (804) 
None

>  <smina_score_min>  (804) 
-6.254

>  <fragmenstein_error>  (804) 


>  <name>  (804) 
GFENYIPTFGNEEO-UHFFFAOYSA-N-P84-P29-P84-601526

$$$$
BDGMXKVFMNVKBS-UHFFFAOYSA-N-P29-P29-P84-601526
     RDKit          3D

 27 29  0  0  0  0  0  0  0  0999 V2000
   -9.6377    4.2838  -18.4973 C   0  0  0  0  0  0  0  0  0  0  0  0
   -8.3486    4.5352  -17.7613 C   0  0  0  0  0  0  0  0  0  0  0  0
   -7.6027    5.5761  -18.4186 O   0  0  0  0  0  0  0  0  0  0  0  0
   -6.3158    5.9017  -18.0838 C   0  0  0  0  0  0  0  0  0  0  0  0
   -5.7342    6.8051  -18.6775 O   0  0  0  0  0  0  0  0  0  0  0  0
   -5.6794    5.2100  -16.9497 C   0  0  0  0  0  0  0  0  0  0  0  0
   -6.4267    4.5116  -16.0092 N   0  0  0  0  0  0  0  0  0  0  0  0
   -5.6958    4.2765  -14.9611 C   0  0  0  0  0  0  0  0  0  0  0  0
   -6.2173    4.1912  -13.7280 N   0  0  0  0  0  0  0  0  0  0  0  0
   -5.5330    4.1726  -12.3560 C   0  0  0  0  0  0  0  0  0  0  0  0
   -4.4047    4.1507  -12.0762 O   0  0  0  0  0  0  0  0  0  0  0  0
   -6.6062    4.2967  -11.3444 C   0  0  0  0  0  0  0  0  0  0  0  0
   -6.8067    5.5859  -10.6931 C   0  0  0  0  0  0  0  0  0  0  0  0
   -7.5527    5.6399   -9.5745 C   0  0  0  0  0  0  0  0  0  0  0  0
   -7.7531    7.2326   -8.6204 Br  0  0  0  0  0  0  0  0  0  0  0  0
   -8.1564    4.4541   -9.1316 N   0  0  0  0  0  0  0  0  0  0  0  0
   -8.7910    4.1521   -7.9525 C   0  0  0  0  0  0  0  0  0  0  0  0
   -9.2294    2.8556   -8.0865 C   0  0  0  0  0  0  0  0  0  0  0  0
   -8.8857    2.3487   -9.3034 N   0  0  0  0  0  0  0  0  0  0  0  0
   -8.1496    3.2720   -9.8699 C   0  0  0  0  0  0  0  0  0  0  0  0
   -7.3124    3.2043  -11.0116 C   0  0  0  0  0  0  0  0  0  0  0  0
   -4.0283    4.3883  -15.1914 S   0  0  0  0  0  0  0  0  0  0  0  0
   -4.3556    5.3613  -16.5597 C   0  0  0  0  0  0  0  0  0  0  0  0
   -3.3692    6.3647  -16.9657 C   0  0  0  0  0  0  0  0  0  0  0  0
   -3.8357    7.5730  -16.5704 F   0  0  0  0  0  0  0  0  0  0  0  0
   -3.1131    6.3973  -18.2896 F   0  0  0  0  0  0  0  0  0  0  0  0
   -2.1756    6.2013  -16.3347 F   0  0  0  0  0  0  0  0  0  0  0  0
  1  2  1  0
  2  3  1  0
  3  4  1  0
  4  5  2  0
  4  6  1  0
  6  7  1  0
  7  8  2  0
  8  9  1  0
  9 10  1  0
 10 11  2  0
 10 12  1  0
 12 13  1  0
 13 14  2  0
 14 15  1  0
 14 16  1  0
 16 17  1  0
 17 18  2  0
 18 19  1  0
 19 20  2  0
 20 21  1  0
  8 22  1  0
 22 23  1  0
 23 24  1  0
 24 25  1  0
 24 26  1  0
 24 27  1  0
 23  6  2  0
 21 12  2  0
 20 16  1  0
M  END
>  <fragmenstein_outcome>  (805) 
too moved

>  <exports>  (805) 
['/opt/xchem-fragalysis-2/maxwin/openbind-hippo/xx01zvns2b/cycle_01/syndirella/elabs/openbind_xx01zvns2b_c1_elab_chemspace_filtered.sdf']

>  <Energy>  (805) 
39.099114

>  <alias>  (805) 
BDGMXKVFMNVKBS-UHFFFAOYSA-N-P29-P29-P84-601526

>  <fragmenstein_runtime>  (805) 
4.544123

>  <scratch_subdir>  (805) 
/opt/xchem-fragalysis-2/maxwin/BulkDock/SCRATCH/601526/BDGMXKVFMNVKBS-UHFFFAOYSA-N-P29-P29-P84-601526

>  <HIPPO Compound ID>  (805) 
141886

>  <rmsd(smina/fragmenstein)>  (805) 
2.894

>  <distance_score>  (805) 
1.983732

>  <orig_smiles>  (805) 
CCOC(=O)c1nc(NC(=O)c2cc(Br)n3ccnc3c2)sc1C(F)(F)F

>  <fragmenstein_mode>  (805) 
expansion

>  <inchikey>  (805) 
BDGMXKVFMNVKBS-UHFFFAOYSA-N

>  <ref_pdb>  (805) 
Z3093a

>  <GNINA pK>  (805) 
nan

>  <gnina_score_min>  (805) 
5.249

>  <tags>  (805) 
xx01zvns2b_c1_elab_bulkdock_input,openbind_xx01zvns2b_c1_elab_nonasap_filtered_scored_top80percent,openbind_xx01zvns2b_c1_elab_chemspace_filtered_scored_top80percent,fragmenstein_placed,openbind_xx01zvns2b_c1_elab_chemspace_filtered_scored,openbind_xx01zvns2b_c1_elab_chemspace_filtered_scored_top40percent,openbind_xx01zvns2b_c1_elab_chemspace_filtered_scored_top20percent,openbind_xx01zvns2b_c1_elab_chemspace_filtered_scored_top60percent,openbind_xx01zvns2b_c1_elabs_filtered

>  <smiles>  (805) 
CCOC(=O)c1nc(NC(=O)c2cc(Br)n3ccnc3c2)sc1C(F)(F)F

>  <subsites>  (805) 
1 - Z4590/B/203/1

>  <gnina_score>  (805) 
5.739

>  <HIPPO Pose ID>  (805) 
77023

>  <ref_mols>  (805) 
Z1495a,Z0673a

>  <energy_score>  (805) 
-50.249986

>  <inspiration_score>  (805) 
None

>  <smina_score_min>  (805) 
-5.511

>  <fragmenstein_error>  (805) 


>  <name>  (805) 
BDGMXKVFMNVKBS-UHFFFAOYSA-N-P29-P29-P84-601526

$$$$
HFPVCDUSEFCRJC-UHFFFAOYSA-N-P84-P29-P84-601526
     RDKit          3D

 27 29  0  0  0  0  0  0  0  0999 V2000
   -9.2543    4.0704  -18.2964 C   0  0  0  0  0  0  0  0  0  0  0  0
   -7.9753    4.5301  -17.6468 C   0  0  0  0  0  0  0  0  0  0  0  0
   -6.9415    4.7619  -18.6275 O   0  0  0  0  0  0  0  0  0  0  0  0
   -5.6480    5.0479  -18.2646 C   0  0  0  0  0  0  0  0  0  0  0  0
   -4.7536    5.1506  -19.1011 O   0  0  0  0  0  0  0  0  0  0  0  0
   -5.3372    5.1547  -16.8311 C   0  0  0  0  0  0  0  0  0  0  0  0
   -6.2984    5.4226  -15.8770 N   0  0  0  0  0  0  0  0  0  0  0  0
   -5.8195    5.1862  -14.6964 C   0  0  0  0  0  0  0  0  0  0  0  0
   -6.5296    5.1005  -13.5715 N   0  0  0  0  0  0  0  0  0  0  0  0
   -7.9811    5.5157  -13.2718 C   0  0  0  0  0  0  0  0  0  0  0  0
   -8.7604    6.0675  -13.9362 O   0  0  0  0  0  0  0  0  0  0  0  0
   -8.2465    4.9608  -11.9338 C   0  0  0  0  0  0  0  0  0  0  0  0
   -8.4138    3.5283  -11.8388 C   0  0  0  0  0  0  0  0  0  0  0  0
   -8.5277    2.9713  -10.6303 C   0  0  0  0  0  0  0  0  0  0  0  0
   -8.4661    3.7604   -9.5015 N   0  0  0  0  0  0  0  0  0  0  0  0
   -8.5305    3.4149   -8.1739 C   0  0  0  0  0  0  0  0  0  0  0  0
   -8.7181    2.0272   -7.6862 C   0  0  0  0  0  0  0  0  0  0  0  0
   -8.3744    4.6058   -7.4990 C   0  0  0  0  0  0  0  0  0  0  0  0
   -8.2241    5.6648   -8.3598 N   0  0  0  0  0  0  0  0  0  0  0  0
   -8.2895    5.1390   -9.5614 C   0  0  0  0  0  0  0  0  0  0  0  0
   -8.1836    5.7436  -10.8467 C   0  0  0  0  0  0  0  0  0  0  0  0
   -4.1792    4.8305  -14.5928 S   0  0  0  0  0  0  0  0  0  0  0  0
   -4.0715    5.0887  -16.2764 C   0  0  0  0  0  0  0  0  0  0  0  0
   -2.7769    5.3037  -16.9074 C   0  0  0  0  0  0  0  0  0  0  0  0
   -2.7876    6.5405  -17.4424 F   0  0  0  0  0  0  0  0  0  0  0  0
   -1.7617    5.2942  -16.0051 F   0  0  0  0  0  0  0  0  0  0  0  0
   -2.4628    4.4071  -17.8683 F   0  0  0  0  0  0  0  0  0  0  0  0
  1  2  1  0
  2  3  1  0
  3  4  1  0
  4  5  2  0
  4  6  1  0
  6  7  1  0
  7  8  2  0
  8  9  1  0
  9 10  1  0
 10 11  2  0
 10 12  1  0
 12 13  1  0
 13 14  2  0
 14 15  1  0
 15 16  1  0
 16 17  1  0
 16 18  2  0
 18 19  1  0
 19 20  2  0
 20 21  1  0
  8 22  1  0
 22 23  1  0
 23 24  1  0
 24 25  1  0
 24 26  1  0
 24 27  1  0
 23  6  2  0
 21 12  2  0
 20 15  1  0
M  END
>  <fragmenstein_outcome>  (806) 
too moved

>  <exports>  (806) 
['/opt/xchem-fragalysis-2/maxwin/openbind-hippo/xx01zvns2b/cycle_01/syndirella/elabs/openbind_xx01zvns2b_c1_elab_chemspace_filtered.sdf']

>  <Energy>  (806) 
35.630385

>  <alias>  (806) 
HFPVCDUSEFCRJC-UHFFFAOYSA-N-P84-P29-P84-601526

>  <fragmenstein_runtime>  (806) 
4.813349

>  <scratch_subdir>  (806) 
/opt/xchem-fragalysis-2/maxwin/BulkDock/SCRATCH/601526/HFPVCDUSEFCRJC-UHFFFAOYSA-N-P84-P29-P84-601526

>  <HIPPO Compound ID>  (806) 
141887

>  <rmsd(smina/fragmenstein)>  (806) 
1.12

>  <distance_score>  (806) 
1.773967

>  <orig_smiles>  (806) 
CCOC(=O)c1nc(NC(=O)c2ccn3c(C)cnc3c2)sc1C(F)(F)F

>  <fragmenstein_mode>  (806) 
expansion

>  <inchikey>  (806) 
HFPVCDUSEFCRJC-UHFFFAOYSA-N

>  <ref_pdb>  (806) 
Z3093a

>  <GNINA pK>  (806) 
nan

>  <gnina_score_min>  (806) 
5.372

>  <tags>  (806) 
xx01zvns2b_c1_elab_bulkdock_input,openbind_xx01zvns2b_c1_elab_nonasap_filtered_scored_top80percent,openbind_xx01zvns2b_c1_elab_chemspace_filtered_scored_top80percent,fragmenstein_placed,openbind_xx01zvns2b_c1_elab_chemspace_filtered_scored,openbind_xx01zvns2b_c1_elab_chemspace_filtered_scored_top40percent,openbind_xx01zvns2b_c1_elab_chemspace_filtered_scored_top20percent,openbind_xx01zvns2b_c1_elab_chemspace_filtered_scored_top60percent,openbind_xx01zvns2b_c1_elabs_filtered

>  <smiles>  (806) 
CCOC(=O)c1nc(NC(=O)c2ccn3c(C)cnc3c2)sc1C(F)(F)F

>  <subsites>  (806) 
1 - Z4590/B/203/1

>  <gnina_score>  (806) 
5.338

>  <HIPPO Pose ID>  (806) 
77025

>  <ref_mols>  (806) 
Z1495a,Z0673a

>  <energy_score>  (806) 
-68.125806

>  <inspiration_score>  (806) 
None

>  <smina_score_min>  (806) 
-5.913

>  <fragmenstein_error>  (806) 


>  <name>  (806) 
HFPVCDUSEFCRJC-UHFFFAOYSA-N-P84-P29-P84-601526

$$$$
ZOJFWVXHPFLAFA-UHFFFAOYSA-N-P84-P29-P84-601526
     RDKit          3D

 27 29  0  0  0  0  0  0  0  0999 V2000
   -9.0014    3.8976  -17.4784 C   0  0  0  0  0  0  0  0  0  0  0  0
   -8.3238    4.5492  -18.6690 C   0  0  0  0  0  0  0  0  0  0  0  0
   -7.4787    5.5891  -18.1784 O   0  0  0  0  0  0  0  0  0  0  0  0
   -6.1624    5.2950  -18.0305 C   0  0  0  0  0  0  0  0  0  0  0  0
   -5.5076    4.5146  -18.7061 O   0  0  0  0  0  0  0  0  0  0  0  0
   -5.6241    5.9754  -16.8537 C   0  0  0  0  0  0  0  0  0  0  0  0
   -6.4814    6.7081  -16.0369 N   0  0  0  0  0  0  0  0  0  0  0  0
   -5.9681    6.7150  -14.8424 C   0  0  0  0  0  0  0  0  0  0  0  0
   -6.6133    6.4594  -13.6919 N   0  0  0  0  0  0  0  0  0  0  0  0
   -8.1155    6.2676  -13.4087 C   0  0  0  0  0  0  0  0  0  0  0  0
   -9.0363    6.3770  -14.1124 O   0  0  0  0  0  0  0  0  0  0  0  0
   -8.2196    5.7876  -12.0177 C   0  0  0  0  0  0  0  0  0  0  0  0
   -8.3300    4.4505  -11.8760 C   0  0  0  0  0  0  0  0  0  0  0  0
   -8.3585    3.9033  -10.5666 C   0  0  0  0  0  0  0  0  0  0  0  0
   -8.4394    2.6639  -10.1560 N   0  0  0  0  0  0  0  0  0  0  0  0
   -8.4037    2.7222   -8.7879 C   0  0  0  0  0  0  0  0  0  0  0  0
   -8.3039    4.0259   -8.3558 C   0  0  0  0  0  0  0  0  0  0  0  0
   -8.2691    4.7847   -9.4953 N   0  0  0  0  0  0  0  0  0  0  0  0
   -8.1458    6.1642   -9.6443 C   0  0  0  0  0  0  0  0  0  0  0  0
   -8.1184    6.6746  -10.8834 C   0  0  0  0  0  0  0  0  0  0  0  0
   -7.9691    7.9974  -11.0848 F   0  0  0  0  0  0  0  0  0  0  0  0
   -4.2813    6.5865  -14.7816 S   0  0  0  0  0  0  0  0  0  0  0  0
   -4.3726    5.7685  -16.2906 C   0  0  0  0  0  0  0  0  0  0  0  0
   -3.3428    4.7778  -16.6091 C   0  0  0  0  0  0  0  0  0  0  0  0
   -3.7883    3.5712  -16.1958 F   0  0  0  0  0  0  0  0  0  0  0  0
   -3.0062    4.6973  -17.9157 F   0  0  0  0  0  0  0  0  0  0  0  0
   -2.1873    4.9848  -15.9247 F   0  0  0  0  0  0  0  0  0  0  0  0
  1  2  1  0
  2  3  1  0
  3  4  1  0
  4  5  2  0
  4  6  1  0
  6  7  1  0
  7  8  2  0
  8  9  1  0
  9 10  1  0
 10 11  2  0
 10 12  1  0
 12 13  2  0
 13 14  1  0
 14 15  2  0
 15 16  1  0
 16 17  2  0
 17 18  1  0
 18 19  1  0
 19 20  2  0
 20 21  1  0
  8 22  1  0
 22 23  1  0
 23 24  1  0
 24 25  1  0
 24 26  1  0
 24 27  1  0
 23  6  2  0
 20 12  1  0
 18 14  1  0
M  END
>  <fragmenstein_outcome>  (807) 
too moved

>  <exports>  (807) 
['/opt/xchem-fragalysis-2/maxwin/openbind-hippo/xx01zvns2b/cycle_01/syndirella/elabs/openbind_xx01zvns2b_c1_elab_chemspace_filtered.sdf']

>  <Energy>  (807) 
20.325654

>  <alias>  (807) 
ZOJFWVXHPFLAFA-UHFFFAOYSA-N-P84-P29-P84-601526

>  <fragmenstein_runtime>  (807) 
4.318448

>  <scratch_subdir>  (807) 
/opt/xchem-fragalysis-2/maxwin/BulkDock/SCRATCH/601526/ZOJFWVXHPFLAFA-UHFFFAOYSA-N-P84-P29-P84-601526

>  <HIPPO Compound ID>  (807) 
141889

>  <rmsd(smina/fragmenstein)>  (807) 
1.093

>  <distance_score>  (807) 
1.657087

>  <orig_smiles>  (807) 
CCOC(=O)c1nc(NC(=O)c2cc3nccn3cc2F)sc1C(F)(F)F

>  <fragmenstein_mode>  (807) 
expansion

>  <inchikey>  (807) 
ZOJFWVXHPFLAFA-UHFFFAOYSA-N

>  <ref_pdb>  (807) 
Z3093a

>  <GNINA pK>  (807) 
nan

>  <gnina_score_min>  (807) 
5.397

>  <tags>  (807) 
xx01zvns2b_c1_elab_bulkdock_input,openbind_xx01zvns2b_c1_elab_nonasap_filtered_scored_top80percent,openbind_xx01zvns2b_c1_elab_chemspace_filtered_scored_top80percent,fragmenstein_placed,openbind_xx01zvns2b_c1_elab_chemspace_filtered_scored,openbind_xx01zvns2b_c1_elab_chemspace_filtered_scored_top40percent,openbind_xx01zvns2b_c1_elab_chemspace_filtered_scored_top20percent,openbind_xx01zvns2b_c1_elab_chemspace_filtered_scored_top60percent,openbind_xx01zvns2b_c1_elabs_filtered

>  <smiles>  (807) 
CCOC(=O)c1nc(NC(=O)c2cc3nccn3cc2F)sc1C(F)(F)F

>  <subsites>  (807) 
1 - Z4590/B/203/1

>  <gnina_score>  (807) 
5.509

>  <HIPPO Pose ID>  (807) 
77029

>  <ref_mols>  (807) 
Z1495a,Z0673a

>  <energy_score>  (807) 
-30.397898

>  <inspiration_score>  (807) 
None

>  <smina_score_min>  (807) 
-5.158

>  <fragmenstein_error>  (807) 


>  <name>  (807) 
ZOJFWVXHPFLAFA-UHFFFAOYSA-N-P84-P29-P84-601526

$$$$
DQRIAKFQXXXWOW-UHFFFAOYSA-N-P29-P29-P84-601526
     RDKit          3D

 27 29  0  0  0  0  0  0  0  0999 V2000
   -9.1946    4.3257  -17.9458 C   0  0  0  0  0  0  0  0  0  0  0  0
   -7.8858    4.4449  -18.7108 C   0  0  0  0  0  0  0  0  0  0  0  0
   -7.3963    5.8033  -18.7301 O   0  0  0  0  0  0  0  0  0  0  0  0
   -6.1925    6.1342  -18.1783 C   0  0  0  0  0  0  0  0  0  0  0  0
   -5.5119    7.0519  -18.6254 O   0  0  0  0  0  0  0  0  0  0  0  0
   -5.8057    5.4134  -16.9651 C   0  0  0  0  0  0  0  0  0  0  0  0
   -6.7870    4.9135  -16.1281 N   0  0  0  0  0  0  0  0  0  0  0  0
   -6.2549    4.5309  -15.0095 C   0  0  0  0  0  0  0  0  0  0  0  0
   -6.8716    4.4582  -13.8234 N   0  0  0  0  0  0  0  0  0  0  0  0
   -8.3138    4.8227  -13.4217 C   0  0  0  0  0  0  0  0  0  0  0  0
   -9.2145    5.1702  -14.0732 O   0  0  0  0  0  0  0  0  0  0  0  0
   -8.3495    4.7497  -11.9494 C   0  0  0  0  0  0  0  0  0  0  0  0
   -8.0791    5.9487  -11.1667 C   0  0  0  0  0  0  0  0  0  0  0  0
   -8.0436    5.8410   -9.8289 C   0  0  0  0  0  0  0  0  0  0  0  0
   -8.2726    4.5936   -9.2441 N   0  0  0  0  0  0  0  0  0  0  0  0
   -8.2919    4.2158   -7.9263 C   0  0  0  0  0  0  0  0  0  0  0  0
   -8.0127    5.2943   -6.3903 Br  0  0  0  0  0  0  0  0  0  0  0  0
   -8.5599    2.8682   -7.9227 C   0  0  0  0  0  0  0  0  0  0  0  0
   -8.7358    2.4060   -9.1987 N   0  0  0  0  0  0  0  0  0  0  0  0
   -8.5410    3.4408   -9.9789 C   0  0  0  0  0  0  0  0  0  0  0  0
   -8.5620    3.5470  -11.3914 C   0  0  0  0  0  0  0  0  0  0  0  0
   -4.5702    4.3869  -14.9899 S   0  0  0  0  0  0  0  0  0  0  0  0
   -4.5371    5.3466  -16.4120 C   0  0  0  0  0  0  0  0  0  0  0  0
   -3.3360    6.1175  -16.7394 C   0  0  0  0  0  0  0  0  0  0  0  0
   -3.5437    7.3925  -16.3395 F   0  0  0  0  0  0  0  0  0  0  0  0
   -2.2396    5.6908  -16.0583 F   0  0  0  0  0  0  0  0  0  0  0  0
   -3.0110    6.1106  -18.0491 F   0  0  0  0  0  0  0  0  0  0  0  0
  1  2  1  0
  2  3  1  0
  3  4  1  0
  4  5  2  0
  4  6  1  0
  6  7  1  0
  7  8  2  0
  8  9  1  0
  9 10  1  0
 10 11  2  0
 10 12  1  0
 12 13  1  0
 13 14  2  0
 14 15  1  0
 15 16  1  0
 16 17  1  0
 16 18  2  0
 18 19  1  0
 19 20  2  0
 20 21  1  0
  8 22  1  0
 22 23  1  0
 23 24  1  0
 24 25  1  0
 24 26  1  0
 24 27  1  0
 23  6  2  0
 21 12  2  0
 20 15  1  0
M  END
>  <fragmenstein_outcome>  (808) 
too moved

>  <exports>  (808) 
['/opt/xchem-fragalysis-2/maxwin/openbind-hippo/xx01zvns2b/cycle_01/syndirella/elabs/openbind_xx01zvns2b_c1_elab_chemspace_filtered.sdf']

>  <Energy>  (808) 
44.086071

>  <alias>  (808) 
DQRIAKFQXXXWOW-UHFFFAOYSA-N-P29-P29-P84-601526

>  <fragmenstein_runtime>  (808) 
5.074487

>  <scratch_subdir>  (808) 
/opt/xchem-fragalysis-2/maxwin/BulkDock/SCRATCH/601526/DQRIAKFQXXXWOW-UHFFFAOYSA-N-P29-P29-P84-601526

>  <HIPPO Compound ID>  (808) 
141890

>  <rmsd(smina/fragmenstein)>  (808) 
2.316

>  <distance_score>  (808) 
1.557125

>  <orig_smiles>  (808) 
CCOC(=O)c1nc(NC(=O)c2ccn3c(Br)cnc3c2)sc1C(F)(F)F

>  <fragmenstein_mode>  (808) 
expansion

>  <inchikey>  (808) 
DQRIAKFQXXXWOW-UHFFFAOYSA-N

>  <ref_pdb>  (808) 
Z3093a

>  <GNINA pK>  (808) 
nan

>  <gnina_score_min>  (808) 
5.216

>  <tags>  (808) 
xx01zvns2b_c1_elab_bulkdock_input,openbind_xx01zvns2b_c1_elab_nonasap_filtered_scored_top80percent,openbind_xx01zvns2b_c1_elab_chemspace_filtered_scored_top80percent,fragmenstein_placed,openbind_xx01zvns2b_c1_elab_chemspace_filtered_scored,openbind_xx01zvns2b_c1_elab_chemspace_filtered_scored_top40percent,openbind_xx01zvns2b_c1_elab_chemspace_filtered_scored_top20percent,openbind_xx01zvns2b_c1_elab_chemspace_filtered_scored_top60percent,openbind_xx01zvns2b_c1_elabs_filtered

>  <smiles>  (808) 
CCOC(=O)c1nc(NC(=O)c2ccn3c(Br)cnc3c2)sc1C(F)(F)F

>  <subsites>  (808) 
1 - Z4590/B/203/1

>  <gnina_score>  (808) 
5.537

>  <HIPPO Pose ID>  (808) 
77030

>  <ref_mols>  (808) 
Z1495a,Z0673a

>  <energy_score>  (808) 
-74.227931

>  <inspiration_score>  (808) 
None

>  <smina_score_min>  (808) 
-6.179

>  <fragmenstein_error>  (808) 


>  <name>  (808) 
DQRIAKFQXXXWOW-UHFFFAOYSA-N-P29-P29-P84-601526

$$$$
VHLOPYRIYFFLAH-UHFFFAOYSA-N-P84-P29-P84-601526
     RDKit          3D

 27 29  0  0  0  0  0  0  0  0999 V2000
   -9.5291    3.8761  -18.0340 C   0  0  0  0  0  0  0  0  0  0  0  0
   -8.2461    4.4119  -17.4590 C   0  0  0  0  0  0  0  0  0  0  0  0
   -7.2361    4.4636  -18.4818 O   0  0  0  0  0  0  0  0  0  0  0  0
   -5.9907    4.9813  -18.2494 C   0  0  0  0  0  0  0  0  0  0  0  0
   -5.0732    4.7995  -19.0479 O   0  0  0  0  0  0  0  0  0  0  0  0
   -5.7354    5.7164  -16.9980 C   0  0  0  0  0  0  0  0  0  0  0  0
   -6.7336    6.2361  -16.1821 N   0  0  0  0  0  0  0  0  0  0  0  0
   -6.2409    6.4213  -14.9921 C   0  0  0  0  0  0  0  0  0  0  0  0
   -6.8529    6.2214  -13.8164 N   0  0  0  0  0  0  0  0  0  0  0  0
   -8.3277    5.9296  -13.4955 C   0  0  0  0  0  0  0  0  0  0  0  0
   -9.2583    5.8928  -14.1922 O   0  0  0  0  0  0  0  0  0  0  0  0
   -8.3666    5.5786  -12.0630 C   0  0  0  0  0  0  0  0  0  0  0  0
   -8.3836    4.2573  -11.7952 C   0  0  0  0  0  0  0  0  0  0  0  0
   -8.3460    3.8319  -10.4411 C   0  0  0  0  0  0  0  0  0  0  0  0
   -8.3277    2.6258   -9.9274 N   0  0  0  0  0  0  0  0  0  0  0  0
   -8.3020    2.7987   -8.5670 C   0  0  0  0  0  0  0  0  0  0  0  0
   -8.2863    4.1339   -8.2615 C   0  0  0  0  0  0  0  0  0  0  0  0
   -8.2502    4.9415   -6.7663 Cl  0  0  0  0  0  0  0  0  0  0  0  0
   -8.2983    4.8155   -9.4507 N   0  0  0  0  0  0  0  0  0  0  0  0
   -8.2549    6.1825   -9.7392 C   0  0  0  0  0  0  0  0  0  0  0  0
   -8.2831    6.5725  -11.0206 C   0  0  0  0  0  0  0  0  0  0  0  0
   -8.2154    7.8761  -11.3500 F   0  0  0  0  0  0  0  0  0  0  0  0
   -4.5682    6.5989  -14.8988 S   0  0  0  0  0  0  0  0  0  0  0  0
   -4.4809    5.8585  -16.4330 C   0  0  0  0  0  0  0  0  0  0  0  0
   -3.2250    5.2961  -16.7803 C   0  0  0  0  0  0  0  0  0  0  0  0
   -2.5421    5.7538  -18.0409 C   0  0  0  0  0  0  0  0  0  0  0  0
   -2.6962    4.4819  -16.0283 O   0  0  0  0  0  0  0  0  0  0  0  0
  1  2  1  0
  2  3  1  0
  3  4  1  0
  4  5  2  0
  4  6  1  0
  6  7  1  0
  7  8  2  0
  8  9  1  0
  9 10  1  0
 10 11  2  0
 10 12  1  0
 12 13  2  0
 13 14  1  0
 14 15  2  0
 15 16  1  0
 16 17  2  0
 17 18  1  0
 17 19  1  0
 19 20  1  0
 20 21  2  0
 21 22  1  0
  8 23  1  0
 23 24  1  0
 24 25  1  0
 25 26  1  0
 25 27  2  0
 24  6  2  0
 21 12  1  0
 19 14  1  0
M  END
>  <fragmenstein_outcome>  (809) 
too moved

>  <exports>  (809) 
['/opt/xchem-fragalysis-2/maxwin/openbind-hippo/xx01zvns2b/cycle_01/syndirella/elabs/openbind_xx01zvns2b_c1_elab_chemspace_filtered.sdf']

>  <Energy>  (809) 
44.305189

>  <alias>  (809) 
VHLOPYRIYFFLAH-UHFFFAOYSA-N-P84-P29-P84-601526

>  <fragmenstein_runtime>  (809) 
3.085531

>  <scratch_subdir>  (809) 
/opt/xchem-fragalysis-2/maxwin/BulkDock/SCRATCH/601526/VHLOPYRIYFFLAH-UHFFFAOYSA-N-P84-P29-P84-601526

>  <HIPPO Compound ID>  (809) 
141895

>  <rmsd(smina/fragmenstein)>  (809) 
0.465

>  <distance_score>  (809) 
1.382389

>  <orig_smiles>  (809) 
CCOC(=O)c1nc(NC(=O)c2cc3ncc(Cl)n3cc2F)sc1C(C)=O

>  <fragmenstein_mode>  (809) 
expansion

>  <inchikey>  (809) 
VHLOPYRIYFFLAH-UHFFFAOYSA-N

>  <ref_pdb>  (809) 
Z3093a

>  <GNINA pK>  (809) 
nan

>  <gnina_score_min>  (809) 
5.387

>  <tags>  (809) 
xx01zvns2b_c1_elab_bulkdock_input,openbind_xx01zvns2b_c1_elab_nonasap_filtered_scored_top80percent,openbind_xx01zvns2b_c1_elab_chemspace_filtered_scored_top80percent,fragmenstein_placed,openbind_xx01zvns2b_c1_elab_chemspace_filtered_scored,openbind_xx01zvns2b_c1_elab_chemspace_filtered_scored_top40percent,openbind_xx01zvns2b_c1_elab_chemspace_filtered_scored_top20percent,openbind_xx01zvns2b_c1_elab_chemspace_filtered_scored_top60percent,openbind_xx01zvns2b_c1_elabs_filtered

>  <smiles>  (809) 
CCOC(=O)c1nc(NC(=O)c2cc3ncc(Cl)n3cc2F)sc1C(C)=O

>  <subsites>  (809) 
1 - Z4590/B/203/1

>  <gnina_score>  (809) 
5.546

>  <HIPPO Pose ID>  (809) 
77040

>  <ref_mols>  (809) 
Z1495a,Z0673a

>  <energy_score>  (809) 
-38.341639

>  <inspiration_score>  (809) 
None

>  <smina_score_min>  (809) 
-5.279

>  <fragmenstein_error>  (809) 


>  <name>  (809) 
VHLOPYRIYFFLAH-UHFFFAOYSA-N-P84-P29-P84-601526

$$$$
URWBNBSQXPVUGU-UHFFFAOYSA-N-P84-P29-P84-601526
     RDKit          3D

 27 29  0  0  0  0  0  0  0  0999 V2000
   -9.3071    4.0708  -18.3458 C   0  0  0  0  0  0  0  0  0  0  0  0
   -8.0121    4.4783  -17.6959 C   0  0  0  0  0  0  0  0  0  0  0  0
   -6.9393    4.5772  -18.6573 O   0  0  0  0  0  0  0  0  0  0  0  0
   -5.6462    4.8512  -18.2776 C   0  0  0  0  0  0  0  0  0  0  0  0
   -4.7406    4.9396  -19.1042 O   0  0  0  0  0  0  0  0  0  0  0  0
   -5.3473    4.9736  -16.8413 C   0  0  0  0  0  0  0  0  0  0  0  0
   -6.3301    5.1703  -15.8961 N   0  0  0  0  0  0  0  0  0  0  0  0
   -5.8405    5.0637  -14.7036 C   0  0  0  0  0  0  0  0  0  0  0  0
   -6.5440    5.1370  -13.5736 N   0  0  0  0  0  0  0  0  0  0  0  0
   -8.0150    5.5230  -13.3353 C   0  0  0  0  0  0  0  0  0  0  0  0
   -8.8229    5.9115  -14.0771 O   0  0  0  0  0  0  0  0  0  0  0  0
   -8.2429    5.2982  -11.9013 C   0  0  0  0  0  0  0  0  0  0  0  0
   -8.1184    6.3798  -10.9405 C   0  0  0  0  0  0  0  0  0  0  0  0
   -8.1794    6.0697   -9.6348 C   0  0  0  0  0  0  0  0  0  0  0  0
   -8.3753    4.7388   -9.2652 N   0  0  0  0  0  0  0  0  0  0  0  0
   -8.4883    4.1868   -8.0187 C   0  0  0  0  0  0  0  0  0  0  0  0
   -8.7205    2.8430   -8.2316 C   0  0  0  0  0  0  0  0  0  0  0  0
   -8.9674    1.7713   -7.2496 C   0  0  0  0  0  0  0  0  0  0  0  0
   -8.7078    2.5560   -9.5704 N   0  0  0  0  0  0  0  0  0  0  0  0
   -8.5108    3.6983  -10.1741 C   0  0  0  0  0  0  0  0  0  0  0  0
   -8.4226    4.0120  -11.5487 C   0  0  0  0  0  0  0  0  0  0  0  0
   -4.1824    4.8207  -14.5814 S   0  0  0  0  0  0  0  0  0  0  0  0
   -4.0838    5.0209  -16.2769 C   0  0  0  0  0  0  0  0  0  0  0  0
   -2.8089    5.3456  -16.9044 C   0  0  0  0  0  0  0  0  0  0  0  0
   -1.8010    5.4446  -15.9983 F   0  0  0  0  0  0  0  0  0  0  0  0
   -2.4057    4.4726  -17.8532 F   0  0  0  0  0  0  0  0  0  0  0  0
   -2.9314    6.5717  -17.4537 F   0  0  0  0  0  0  0  0  0  0  0  0
  1  2  1  0
  2  3  1  0
  3  4  1  0
  4  5  2  0
  4  6  1  0
  6  7  1  0
  7  8  2  0
  8  9  1  0
  9 10  1  0
 10 11  2  0
 10 12  1  0
 12 13  1  0
 13 14  2  0
 14 15  1  0
 15 16  1  0
 16 17  2  0
 17 18  1  0
 17 19  1  0
 19 20  2  0
 20 21  1  0
  8 22  1  0
 22 23  1  0
 23 24  1  0
 24 25  1  0
 24 26  1  0
 24 27  1  0
 23  6  2  0
 21 12  2  0
 20 15  1  0
M  END
>  <fragmenstein_outcome>  (810) 
too moved

>  <exports>  (810) 
['/opt/xchem-fragalysis-2/maxwin/openbind-hippo/xx01zvns2b/cycle_01/syndirella/elabs/openbind_xx01zvns2b_c1_elab_chemspace_filtered.sdf']

>  <Energy>  (810) 
33.510338

>  <alias>  (810) 
URWBNBSQXPVUGU-UHFFFAOYSA-N-P84-P29-P84-601526

>  <fragmenstein_runtime>  (810) 
4.68526

>  <scratch_subdir>  (810) 
/opt/xchem-fragalysis-2/maxwin/BulkDock/SCRATCH/601526/URWBNBSQXPVUGU-UHFFFAOYSA-N-P84-P29-P84-601526

>  <HIPPO Compound ID>  (810) 
141898

>  <rmsd(smina/fragmenstein)>  (810) 
1.023

>  <distance_score>  (810) 
1.423415

>  <orig_smiles>  (810) 
CCOC(=O)c1nc(NC(=O)c2ccn3cc(C)nc3c2)sc1C(F)(F)F

>  <fragmenstein_mode>  (810) 
expansion

>  <inchikey>  (810) 
URWBNBSQXPVUGU-UHFFFAOYSA-N

>  <ref_pdb>  (810) 
Z3093a

>  <GNINA pK>  (810) 
nan

>  <gnina_score_min>  (810) 
5.221

>  <tags>  (810) 
xx01zvns2b_c1_elab_bulkdock_input,openbind_xx01zvns2b_c1_elab_nonasap_filtered_scored_top80percent,openbind_xx01zvns2b_c1_elab_chemspace_filtered_scored_top80percent,fragmenstein_placed,openbind_xx01zvns2b_c1_elab_chemspace_filtered_scored,openbind_xx01zvns2b_c1_elab_chemspace_filtered_scored_top40percent,openbind_xx01zvns2b_c1_elab_chemspace_filtered_scored_top20percent,openbind_xx01zvns2b_c1_elab_chemspace_filtered_scored_top60percent,openbind_xx01zvns2b_c1_elabs_filtered

>  <smiles>  (810) 
CCOC(=O)c1nc(NC(=O)c2ccn3cc(C)nc3c2)sc1C(F)(F)F

>  <subsites>  (810) 
1 - Z4590/B/203/1

>  <gnina_score>  (810) 
5.406

>  <HIPPO Pose ID>  (810) 
77046

>  <ref_mols>  (810) 
Z1495a,Z0673a

>  <energy_score>  (810) 
-83.356909

>  <inspiration_score>  (810) 
None

>  <smina_score_min>  (810) 
-6.302

>  <fragmenstein_error>  (810) 


>  <name>  (810) 
URWBNBSQXPVUGU-UHFFFAOYSA-N-P84-P29-P84-601526

$$$$
OPIAANXHCHHUGR-UHFFFAOYSA-N-P84-P29-P84-601526
     RDKit          3D

 27 29  0  0  0  0  0  0  0  0999 V2000
   -9.6677    4.4340  -18.4165 C   0  0  0  0  0  0  0  0  0  0  0  0
   -8.3627    4.5864  -17.6883 C   0  0  0  0  0  0  0  0  0  0  0  0
   -7.5202    5.5775  -18.3145 O   0  0  0  0  0  0  0  0  0  0  0  0
   -6.2043    5.7515  -17.9590 C   0  0  0  0  0  0  0  0  0  0  0  0
   -5.4836    6.5223  -18.5872 O   0  0  0  0  0  0  0  0  0  0  0  0
   -5.7029    5.0728  -16.7503 C   0  0  0  0  0  0  0  0  0  0  0  0
   -6.5630    4.4054  -15.9134 N   0  0  0  0  0  0  0  0  0  0  0  0
   -6.0099    4.1996  -14.7644 C   0  0  0  0  0  0  0  0  0  0  0  0
   -6.6763    4.2012  -13.6054 N   0  0  0  0  0  0  0  0  0  0  0  0
   -8.1314    4.6058  -13.2869 C   0  0  0  0  0  0  0  0  0  0  0  0
   -8.9988    4.9271  -13.9957 O   0  0  0  0  0  0  0  0  0  0  0  0
   -8.2490    4.6228  -11.8215 C   0  0  0  0  0  0  0  0  0  0  0  0
   -8.4326    3.4223  -11.2447 C   0  0  0  0  0  0  0  0  0  0  0  0
   -8.4912    3.3541   -9.8338 C   0  0  0  0  0  0  0  0  0  0  0  0
   -8.6483    2.3334   -9.0292 N   0  0  0  0  0  0  0  0  0  0  0  0
   -8.5904    2.8485   -7.7653 C   0  0  0  0  0  0  0  0  0  0  0  0
   -8.4107    4.2126   -7.7973 C   0  0  0  0  0  0  0  0  0  0  0  0
   -8.3456    4.5389   -9.1249 N   0  0  0  0  0  0  0  0  0  0  0  0
   -8.1572    5.7822   -9.7193 C   0  0  0  0  0  0  0  0  0  0  0  0
   -8.1079    5.8632  -11.0600 C   0  0  0  0  0  0  0  0  0  0  0  0
   -7.8412    7.4950  -11.9219 Br  0  0  0  0  0  0  0  0  0  0  0  0
   -4.3286    4.2779  -14.7393 S   0  0  0  0  0  0  0  0  0  0  0  0
   -4.4345    5.1900  -16.1987 C   0  0  0  0  0  0  0  0  0  0  0  0
   -3.3672    6.1280  -16.5375 C   0  0  0  0  0  0  0  0  0  0  0  0
   -2.2548    5.9525  -15.7751 F   0  0  0  0  0  0  0  0  0  0  0  0
   -2.9619    6.0619  -17.8255 F   0  0  0  0  0  0  0  0  0  0  0  0
   -3.8055    7.3799  -16.2748 F   0  0  0  0  0  0  0  0  0  0  0  0
  1  2  1  0
  2  3  1  0
  3  4  1  0
  4  5  2  0
  4  6  1  0
  6  7  1  0
  7  8  2  0
  8  9  1  0
  9 10  1  0
 10 11  2  0
 10 12  1  0
 12 13  2  0
 13 14  1  0
 14 15  2  0
 15 16  1  0
 16 17  2  0
 17 18  1  0
 18 19  1  0
 19 20  2  0
 20 21  1  0
  8 22  1  0
 22 23  1  0
 23 24  1  0
 24 25  1  0
 24 26  1  0
 24 27  1  0
 23  6  2  0
 20 12  1  0
 18 14  1  0
M  END
>  <fragmenstein_outcome>  (811) 
too moved

>  <exports>  (811) 
['/opt/xchem-fragalysis-2/maxwin/openbind-hippo/xx01zvns2b/cycle_01/syndirella/elabs/openbind_xx01zvns2b_c1_elab_chemspace_filtered.sdf']

>  <Energy>  (811) 
25.421379

>  <alias>  (811) 
OPIAANXHCHHUGR-UHFFFAOYSA-N-P84-P29-P84-601526

>  <fragmenstein_runtime>  (811) 
3.818312

>  <scratch_subdir>  (811) 
/opt/xchem-fragalysis-2/maxwin/BulkDock/SCRATCH/601526/OPIAANXHCHHUGR-UHFFFAOYSA-N-P84-P29-P84-601526

>  <HIPPO Compound ID>  (811) 
141899

>  <rmsd(smina/fragmenstein)>  (811) 
1.947

>  <distance_score>  (811) 
1.521628

>  <orig_smiles>  (811) 
CCOC(=O)c1nc(NC(=O)c2cc3nccn3cc2Br)sc1C(F)(F)F

>  <fragmenstein_mode>  (811) 
expansion

>  <inchikey>  (811) 
OPIAANXHCHHUGR-UHFFFAOYSA-N

>  <ref_pdb>  (811) 
Z3093a

>  <GNINA pK>  (811) 
nan

>  <gnina_score_min>  (811) 
5.342

>  <tags>  (811) 
xx01zvns2b_c1_elab_bulkdock_input,openbind_xx01zvns2b_c1_elab_nonasap_filtered_scored_top80percent,openbind_xx01zvns2b_c1_elab_chemspace_filtered_scored_top80percent,fragmenstein_placed,openbind_xx01zvns2b_c1_elab_chemspace_filtered_scored,openbind_xx01zvns2b_c1_elab_chemspace_filtered_scored_top40percent,openbind_xx01zvns2b_c1_elab_chemspace_filtered_scored_top20percent,openbind_xx01zvns2b_c1_elab_chemspace_filtered_scored_top60percent,openbind_xx01zvns2b_c1_elabs_filtered

>  <smiles>  (811) 
CCOC(=O)c1nc(NC(=O)c2cc3nccn3cc2Br)sc1C(F)(F)F

>  <subsites>  (811) 
1 - Z4590/B/203/1

>  <gnina_score>  (811) 
5.686

>  <HIPPO Pose ID>  (811) 
77048

>  <ref_mols>  (811) 
Z1495a,Z0673a

>  <energy_score>  (811) 
-36.303425

>  <inspiration_score>  (811) 
None

>  <smina_score_min>  (811) 
-6.142

>  <fragmenstein_error>  (811) 


>  <name>  (811) 
OPIAANXHCHHUGR-UHFFFAOYSA-N-P84-P29-P84-601526

$$$$
KNLACQXEJULGTC-UHFFFAOYSA-N-P84-P29-P84-601526
     RDKit          3D

 27 30  0  0  0  0  0  0  0  0999 V2000
   -8.8432    4.1682  -18.4612 C   0  0  0  0  0  0  0  0  0  0  0  0
   -7.5012    4.6157  -17.9245 C   0  0  0  0  0  0  0  0  0  0  0  0
   -6.4505    4.6033  -18.9252 O   0  0  0  0  0  0  0  0  0  0  0  0
   -5.1398    4.9421  -18.6426 C   0  0  0  0  0  0  0  0  0  0  0  0
   -4.2674    4.9378  -19.5132 O   0  0  0  0  0  0  0  0  0  0  0  0
   -4.7744    5.2554  -17.2508 C   0  0  0  0  0  0  0  0  0  0  0  0
   -3.4948    5.5270  -16.7861 C   0  0  0  0  0  0  0  0  0  0  0  0
   -3.5129    5.7537  -15.0658 S   0  0  0  0  0  0  0  0  0  0  0  0
   -5.1742    5.3635  -15.0721 C   0  0  0  0  0  0  0  0  0  0  0  0
   -5.9625    5.3951  -13.9148 N   0  0  0  0  0  0  0  0  0  0  0  0
   -5.6187    3.7978  -13.9745 C   0  0  0  0  0  0  0  0  0  0  0  0
   -4.9276    3.3965  -12.6656 C   0  0  0  0  0  0  0  0  0  0  0  0
   -7.4485    5.6307  -13.7406 C   0  0  0  0  0  0  0  0  0  0  0  0
   -8.2975    5.7628  -14.5434 O   0  0  0  0  0  0  0  0  0  0  0  0
   -7.7436    5.5708  -12.2978 C   0  0  0  0  0  0  0  0  0  0  0  0
   -7.4587    6.6930  -11.4220 C   0  0  0  0  0  0  0  0  0  0  0  0
   -7.6602    6.5333  -10.1047 C   0  0  0  0  0  0  0  0  0  0  0  0
   -8.1184    5.3049   -9.6376 N   0  0  0  0  0  0  0  0  0  0  0  0
   -8.3474    4.9059   -8.3540 C   0  0  0  0  0  0  0  0  0  0  0  0
   -8.7646    3.6031   -8.4656 C   0  0  0  0  0  0  0  0  0  0  0  0
   -9.1071    2.7259   -7.2580 C   0  0  0  0  0  0  0  0  0  0  0  0
   -8.2592    1.5089   -7.0981 C   0  0  0  0  0  0  0  0  0  0  0  0
   -9.7120    1.3651   -7.4167 C   0  0  0  0  0  0  0  0  0  0  0  0
   -8.7778    3.1744   -9.7613 N   0  0  0  0  0  0  0  0  0  0  0  0
   -8.4100    4.2214  -10.4582 C   0  0  0  0  0  0  0  0  0  0  0  0
   -8.2393    4.3994  -11.8517 C   0  0  0  0  0  0  0  0  0  0  0  0
   -5.7132    5.2927  -16.2527 N   0  0  0  0  0  0  0  0  0  0  0  0
  1  2  1  0
  2  3  1  0
  3  4  1  0
  4  5  2  0
  4  6  1  0
  6  7  2  0
  7  8  1  0
  8  9  1  0
  9 10  1  0
 10 11  1  0
 11 12  1  0
 10 13  1  0
 13 14  2  0
 13 15  1  0
 15 16  1  0
 16 17  2  0
 17 18  1  0
 18 19  1  0
 19 20  2  0
 20 21  1  0
 21 22  1  0
 22 23  1  0
 20 24  1  0
 24 25  2  0
 25 26  1  0
  9 27  2  0
 27  6  1  0
 26 15  2  0
 25 18  1  0
 23 21  1  0
M  END
>  <fragmenstein_outcome>  (812) 
too moved

>  <exports>  (812) 
['/opt/xchem-fragalysis-2/maxwin/openbind-hippo/xx01zvns2b/cycle_01/syndirella/elabs/openbind_xx01zvns2b_c1_elab_chemspace_filtered.sdf']

>  <Energy>  (812) 
144.613793

>  <alias>  (812) 
KNLACQXEJULGTC-UHFFFAOYSA-N-P84-P29-P84-601526

>  <fragmenstein_runtime>  (812) 
11.222839

>  <scratch_subdir>  (812) 
/opt/xchem-fragalysis-2/maxwin/BulkDock/SCRATCH/601526/KNLACQXEJULGTC-UHFFFAOYSA-N-P84-P29-P84-601526

>  <HIPPO Compound ID>  (812) 
141904

>  <rmsd(smina/fragmenstein)>  (812) 
1.21

>  <distance_score>  (812) 
1.168194

>  <orig_smiles>  (812) 
CCOC(=O)c1csc(N(CC)C(=O)c2ccn3cc(C4CC4)nc3c2)n1

>  <fragmenstein_mode>  (812) 
expansion

>  <inchikey>  (812) 
KNLACQXEJULGTC-UHFFFAOYSA-N

>  <ref_pdb>  (812) 
Z3093a

>  <GNINA pK>  (812) 
nan

>  <gnina_score_min>  (812) 
5.314

>  <tags>  (812) 
xx01zvns2b_c1_elab_bulkdock_input,openbind_xx01zvns2b_c1_elab_nonasap_filtered_scored_top80percent,openbind_xx01zvns2b_c1_elab_chemspace_filtered_scored_top80percent,fragmenstein_placed,openbind_xx01zvns2b_c1_elab_chemspace_filtered_scored,openbind_xx01zvns2b_c1_elab_chemspace_filtered_scored_top40percent,openbind_xx01zvns2b_c1_elab_chemspace_filtered_scored_top20percent,openbind_xx01zvns2b_c1_elab_chemspace_filtered_scored_top60percent,openbind_xx01zvns2b_c1_elabs_filtered

>  <smiles>  (812) 
CCOC(=O)c1csc(N(CC)C(=O)c2ccn3cc(C4CC4)nc3c2)n1

>  <subsites>  (812) 
1 - Z4590/B/203/1

>  <gnina_score>  (812) 
5.471

>  <HIPPO Pose ID>  (812) 
77058

>  <ref_mols>  (812) 
Z1495a,Z0673a

>  <energy_score>  (812) 
-37.999855

>  <inspiration_score>  (812) 
None

>  <smina_score_min>  (812) 
-6.315

>  <fragmenstein_error>  (812) 


>  <name>  (812) 
KNLACQXEJULGTC-UHFFFAOYSA-N-P84-P29-P84-601526

$$$$
DPYCUGBZTADEGM-UHFFFAOYSA-N-P84-P29-P84-601526
     RDKit          3D

 28 30  0  0  0  0  0  0  0  0999 V2000
   -9.0360    4.2588  -18.3086 C   0  0  0  0  0  0  0  0  0  0  0  0
   -7.7659    4.5680  -17.5461 C   0  0  0  0  0  0  0  0  0  0  0  0
   -6.6345    4.5156  -18.4368 O   0  0  0  0  0  0  0  0  0  0  0  0
   -5.3663    4.8715  -18.0576 C   0  0  0  0  0  0  0  0  0  0  0  0
   -4.4519    4.8880  -18.8833 O   0  0  0  0  0  0  0  0  0  0  0  0
   -5.0922    5.2158  -16.6471 C   0  0  0  0  0  0  0  0  0  0  0  0
   -3.8687    5.7119  -16.2184 C   0  0  0  0  0  0  0  0  0  0  0  0
   -3.8917    6.0191  -14.5275 S   0  0  0  0  0  0  0  0  0  0  0  0
   -5.4726    5.3411  -14.4533 C   0  0  0  0  0  0  0  0  0  0  0  0
   -6.1358    5.4227  -13.2051 N   0  0  0  0  0  0  0  0  0  0  0  0
   -5.7206    3.8597  -13.1527 C   0  0  0  0  0  0  0  0  0  0  0  0
   -6.7544    2.8506  -13.6625 C   0  0  0  0  0  0  0  0  0  0  0  0
   -7.5204    5.5780  -12.8950 C   0  0  0  0  0  0  0  0  0  0  0  0
   -8.4870    5.5910  -13.6104 O   0  0  0  0  0  0  0  0  0  0  0  0
   -7.6667    5.6297  -11.4113 C   0  0  0  0  0  0  0  0  0  0  0  0
   -7.0081    6.6492  -10.6034 C   0  0  0  0  0  0  0  0  0  0  0  0
   -7.0101    6.5077   -9.2663 C   0  0  0  0  0  0  0  0  0  0  0  0
   -7.6319    5.3943   -8.7035 N   0  0  0  0  0  0  0  0  0  0  0  0
   -7.6946    5.0007   -7.3948 C   0  0  0  0  0  0  0  0  0  0  0  0
   -8.3397    3.7717   -7.3929 C   0  0  0  0  0  0  0  0  0  0  0  0
   -8.5951    2.8660   -6.2222 C   0  0  0  0  0  0  0  0  0  0  0  0
   -9.8026    3.1310   -5.6537 F   0  0  0  0  0  0  0  0  0  0  0  0
   -7.6620    3.0812   -5.2466 F   0  0  0  0  0  0  0  0  0  0  0  0
   -8.5616    1.5526   -6.5425 F   0  0  0  0  0  0  0  0  0  0  0  0
   -8.7389    3.4576   -8.6819 N   0  0  0  0  0  0  0  0  0  0  0  0
   -8.2932    4.4268   -9.4449 C   0  0  0  0  0  0  0  0  0  0  0  0
   -8.3205    4.5902  -10.8527 C   0  0  0  0  0  0  0  0  0  0  0  0
   -6.0117    5.0730  -15.6145 N   0  0  0  0  0  0  0  0  0  0  0  0
  1  2  1  0
  2  3  1  0
  3  4  1  0
  4  5  2  0
  4  6  1  0
  6  7  2  0
  7  8  1  0
  8  9  1  0
  9 10  1  0
 10 11  1  0
 11 12  1  0
 10 13  1  0
 13 14  2  0
 13 15  1  0
 15 16  1  0
 16 17  2  0
 17 18  1  0
 18 19  1  0
 19 20  2  0
 20 21  1  0
 21 22  1  0
 21 23  1  0
 21 24  1  0
 20 25  1  0
 25 26  2  0
 26 27  1  0
  9 28  2  0
 28  6  1  0
 27 15  2  0
 26 18  1  0
M  END
>  <fragmenstein_outcome>  (813) 
too moved

>  <exports>  (813) 
['/opt/xchem-fragalysis-2/maxwin/openbind-hippo/xx01zvns2b/cycle_01/syndirella/elabs/openbind_xx01zvns2b_c1_elab_chemspace_filtered.sdf']

>  <Energy>  (813) 
187.746854

>  <alias>  (813) 
DPYCUGBZTADEGM-UHFFFAOYSA-N-P84-P29-P84-601526

>  <fragmenstein_runtime>  (813) 
7.61444

>  <scratch_subdir>  (813) 
/opt/xchem-fragalysis-2/maxwin/BulkDock/SCRATCH/601526/DPYCUGBZTADEGM-UHFFFAOYSA-N-P84-P29-P84-601526

>  <HIPPO Compound ID>  (813) 
141909

>  <rmsd(smina/fragmenstein)>  (813) 
1.362

>  <distance_score>  (813) 
1.502164

>  <orig_smiles>  (813) 
CCOC(=O)c1csc(N(CC)C(=O)c2ccn3cc(C(F)(F)F)nc3c2)n1

>  <fragmenstein_mode>  (813) 
expansion

>  <inchikey>  (813) 
DPYCUGBZTADEGM-UHFFFAOYSA-N

>  <ref_pdb>  (813) 
Z3093a

>  <GNINA pK>  (813) 
nan

>  <gnina_score_min>  (813) 
5.168

>  <tags>  (813) 
xx01zvns2b_c1_elab_bulkdock_input,openbind_xx01zvns2b_c1_elab_nonasap_filtered_scored_top80percent,openbind_xx01zvns2b_c1_elab_chemspace_filtered_scored_top80percent,fragmenstein_placed,openbind_xx01zvns2b_c1_elab_chemspace_filtered_scored,openbind_xx01zvns2b_c1_elab_chemspace_filtered_scored_top40percent,openbind_xx01zvns2b_c1_elab_chemspace_filtered_scored_top20percent,openbind_xx01zvns2b_c1_elab_chemspace_filtered_scored_top60percent,openbind_xx01zvns2b_c1_elabs_filtered

>  <smiles>  (813) 
CCOC(=O)c1csc(N(CC)C(=O)c2ccn3cc(C(F)(F)F)nc3c2)n1

>  <subsites>  (813) 
1 - Z4590/B/203/1

>  <gnina_score>  (813) 
5.456

>  <HIPPO Pose ID>  (813) 
77066

>  <ref_mols>  (813) 
Z1495a,Z0673a

>  <energy_score>  (813) 
-6.912763

>  <inspiration_score>  (813) 
None

>  <smina_score_min>  (813) 
-5.768

>  <fragmenstein_error>  (813) 


>  <name>  (813) 
DPYCUGBZTADEGM-UHFFFAOYSA-N-P84-P29-P84-601526

$$$$
GBTNAKZNVGAUNQ-UHFFFAOYSA-N-P84-P29-P84-601526
     RDKit          3D

 28 30  0  0  0  0  0  0  0  0999 V2000
   -9.4028    4.1896  -18.1606 C   0  0  0  0  0  0  0  0  0  0  0  0
   -8.0189    4.4092  -17.6026 C   0  0  0  0  0  0  0  0  0  0  0  0
   -7.0349    4.3403  -18.6537 O   0  0  0  0  0  0  0  0  0  0  0  0
   -5.7158    4.6465  -18.4332 C   0  0  0  0  0  0  0  0  0  0  0  0
   -4.9222    4.7964  -19.3590 O   0  0  0  0  0  0  0  0  0  0  0  0
   -5.2314    4.7676  -17.0560 C   0  0  0  0  0  0  0  0  0  0  0  0
   -5.9748    4.3839  -15.9543 N   0  0  0  0  0  0  0  0  0  0  0  0
   -5.3685    4.7432  -14.8634 C   0  0  0  0  0  0  0  0  0  0  0  0
   -5.9771    4.7367  -13.6708 N   0  0  0  0  0  0  0  0  0  0  0  0
   -5.5672    5.3823  -12.3366 C   0  0  0  0  0  0  0  0  0  0  0  0
   -4.5988    5.9572  -12.0422 O   0  0  0  0  0  0  0  0  0  0  0  0
   -6.6931    5.1770  -11.3949 C   0  0  0  0  0  0  0  0  0  0  0  0
   -6.9673    3.8875  -11.1117 C   0  0  0  0  0  0  0  0  0  0  0  0
   -7.8162    3.5980  -10.0239 C   0  0  0  0  0  0  0  0  0  0  0  0
   -8.2077    2.4514   -9.5373 N   0  0  0  0  0  0  0  0  0  0  0  0
   -8.8497    2.7545   -8.3637 C   0  0  0  0  0  0  0  0  0  0  0  0
   -9.4196    1.7390   -7.5093 C   0  0  0  0  0  0  0  0  0  0  0  0
  -10.0282    1.9857   -6.4712 O   0  0  0  0  0  0  0  0  0  0  0  0
   -8.8549    4.1197   -8.1540 C   0  0  0  0  0  0  0  0  0  0  0  0
   -8.2613    4.6614   -9.2567 N   0  0  0  0  0  0  0  0  0  0  0  0
   -8.0768    5.9939   -9.6072 C   0  0  0  0  0  0  0  0  0  0  0  0
   -7.3371    6.2859  -10.6919 C   0  0  0  0  0  0  0  0  0  0  0  0
   -7.1344    8.0414  -11.2838 Br  0  0  0  0  0  0  0  0  0  0  0  0
   -3.7910    5.3066  -15.0218 S   0  0  0  0  0  0  0  0  0  0  0  0
   -4.0163    5.3248  -16.7067 C   0  0  0  0  0  0  0  0  0  0  0  0
   -3.0581    6.0485  -17.4736 C   0  0  0  0  0  0  0  0  0  0  0  0
   -2.1944    5.2945  -18.4489 C   0  0  0  0  0  0  0  0  0  0  0  0
   -2.9254    7.2522  -17.2822 O   0  0  0  0  0  0  0  0  0  0  0  0
  1  2  1  0
  2  3  1  0
  3  4  1  0
  4  5  2  0
  4  6  1  0
  6  7  1  0
  7  8  2  0
  8  9  1  0
  9 10  1  0
 10 11  2  0
 10 12  1  0
 12 13  2  0
 13 14  1  0
 14 15  2  0
 15 16  1  0
 16 17  1  0
 17 18  2  0
 16 19  2  0
 19 20  1  0
 20 21  1  0
 21 22  2  0
 22 23  1  0
  8 24  1  0
 24 25  1  0
 25 26  1  0
 26 27  1  0
 26 28  2  0
 25  6  2  0
 22 12  1  0
 20 14  1  0
M  END
>  <fragmenstein_outcome>  (814) 
too moved

>  <exports>  (814) 
['/opt/xchem-fragalysis-2/maxwin/openbind-hippo/xx01zvns2b/cycle_01/syndirella/elabs/openbind_xx01zvns2b_c1_elab_chemspace_filtered.sdf']

>  <Energy>  (814) 
60.592768

>  <alias>  (814) 
GBTNAKZNVGAUNQ-UHFFFAOYSA-N-P84-P29-P84-601526

>  <fragmenstein_runtime>  (814) 
3.871805

>  <scratch_subdir>  (814) 
/opt/xchem-fragalysis-2/maxwin/BulkDock/SCRATCH/601526/GBTNAKZNVGAUNQ-UHFFFAOYSA-N-P84-P29-P84-601526

>  <HIPPO Compound ID>  (814) 
141913

>  <rmsd(smina/fragmenstein)>  (814) 
1.697

>  <distance_score>  (814) 
1.933991

>  <orig_smiles>  (814) 
CCOC(=O)c1nc(NC(=O)c2cc3nc(C=O)cn3cc2Br)sc1C(C)=O

>  <fragmenstein_mode>  (814) 
expansion

>  <inchikey>  (814) 
GBTNAKZNVGAUNQ-UHFFFAOYSA-N

>  <ref_pdb>  (814) 
Z3093a

>  <GNINA pK>  (814) 
nan

>  <gnina_score_min>  (814) 
5.208

>  <tags>  (814) 
xx01zvns2b_c1_elab_bulkdock_input,openbind_xx01zvns2b_c1_elab_nonasap_filtered_scored_top80percent,openbind_xx01zvns2b_c1_elab_chemspace_filtered_scored_top80percent,fragmenstein_placed,openbind_xx01zvns2b_c1_elab_chemspace_filtered_scored,openbind_xx01zvns2b_c1_elab_chemspace_filtered_scored_top40percent,openbind_xx01zvns2b_c1_elab_chemspace_filtered_scored_top20percent,openbind_xx01zvns2b_c1_elab_chemspace_filtered_scored_top60percent,openbind_xx01zvns2b_c1_elabs_filtered

>  <smiles>  (814) 
CCOC(=O)c1nc(NC(=O)c2cc3nc(C=O)cn3cc2Br)sc1C(C)=O

>  <subsites>  (814) 
1 - Z4590/B/203/1

>  <gnina_score>  (814) 
5.613

>  <HIPPO Pose ID>  (814) 
77072

>  <ref_mols>  (814) 
Z1495a,Z0673a

>  <energy_score>  (814) 
-84.39302

>  <inspiration_score>  (814) 
None

>  <smina_score_min>  (814) 
-6.003

>  <fragmenstein_error>  (814) 


>  <name>  (814) 
GBTNAKZNVGAUNQ-UHFFFAOYSA-N-P84-P29-P84-601526

$$$$
MTOSJZWYYLWSEZ-UHFFFAOYSA-N-P29-P29-P84-601526
     RDKit          3D

 28 30  0  0  0  0  0  0  0  0999 V2000
   -9.5384    4.2956  -18.6790 C   0  0  0  0  0  0  0  0  0  0  0  0
   -8.3331    4.5812  -17.8275 C   0  0  0  0  0  0  0  0  0  0  0  0
   -7.4418    5.5012  -18.4939 O   0  0  0  0  0  0  0  0  0  0  0  0
   -6.1751    5.7665  -18.0354 C   0  0  0  0  0  0  0  0  0  0  0  0
   -5.4335    6.5267  -18.6504 O   0  0  0  0  0  0  0  0  0  0  0  0
   -5.7501    5.1668  -16.7615 C   0  0  0  0  0  0  0  0  0  0  0  0
   -6.6799    4.6607  -15.8818 N   0  0  0  0  0  0  0  0  0  0  0  0
   -6.1328    4.3816  -14.7454 C   0  0  0  0  0  0  0  0  0  0  0  0
   -6.7889    4.3268  -13.5833 N   0  0  0  0  0  0  0  0  0  0  0  0
   -8.2425    4.7090  -13.2347 C   0  0  0  0  0  0  0  0  0  0  0  0
   -9.1173    5.0585  -13.9208 O   0  0  0  0  0  0  0  0  0  0  0  0
   -8.3326    4.6528  -11.7727 C   0  0  0  0  0  0  0  0  0  0  0  0
   -8.5893    3.4586  -11.2161 C   0  0  0  0  0  0  0  0  0  0  0  0
   -8.6021    3.3643   -9.8027 C   0  0  0  0  0  0  0  0  0  0  0  0
   -8.8369    2.3404   -9.0204 N   0  0  0  0  0  0  0  0  0  0  0  0
   -8.6662    2.8051   -7.7447 C   0  0  0  0  0  0  0  0  0  0  0  0
   -8.3670    4.1461   -7.7509 C   0  0  0  0  0  0  0  0  0  0  0  0
   -8.0859    5.2260   -6.2162 Br  0  0  0  0  0  0  0  0  0  0  0  0
   -8.3190    4.5166   -9.0692 N   0  0  0  0  0  0  0  0  0  0  0  0
   -8.0475    5.7527   -9.6540 C   0  0  0  0  0  0  0  0  0  0  0  0
   -8.0558    5.8380  -10.9892 C   0  0  0  0  0  0  0  0  0  0  0  0
   -7.7775    7.0001  -11.6096 F   0  0  0  0  0  0  0  0  0  0  0  0
   -4.4505    4.3499  -14.7162 S   0  0  0  0  0  0  0  0  0  0  0  0
   -4.4822    5.2166  -16.2015 C   0  0  0  0  0  0  0  0  0  0  0  0
   -3.3382    6.0467  -16.5698 C   0  0  0  0  0  0  0  0  0  0  0  0
   -2.9457    5.9150  -17.8548 F   0  0  0  0  0  0  0  0  0  0  0  0
   -2.2426    5.7943  -15.8038 F   0  0  0  0  0  0  0  0  0  0  0  0
   -3.6651    7.3374  -16.3356 F   0  0  0  0  0  0  0  0  0  0  0  0
  1  2  1  0
  2  3  1  0
  3  4  1  0
  4  5  2  0
  4  6  1  0
  6  7  1  0
  7  8  2  0
  8  9  1  0
  9 10  1  0
 10 11  2  0
 10 12  1  0
 12 13  2  0
 13 14  1  0
 14 15  2  0
 15 16  1  0
 16 17  2  0
 17 18  1  0
 17 19  1  0
 19 20  1  0
 20 21  2  0
 21 22  1  0
  8 23  1  0
 23 24  1  0
 24 25  1  0
 25 26  1  0
 25 27  1  0
 25 28  1  0
 24  6  2  0
 21 12  1  0
 19 14  1  0
M  END
>  <fragmenstein_outcome>  (815) 
too moved

>  <exports>  (815) 
['/opt/xchem-fragalysis-2/maxwin/openbind-hippo/xx01zvns2b/cycle_01/syndirella/elabs/openbind_xx01zvns2b_c1_elab_chemspace_filtered.sdf']

>  <Energy>  (815) 
24.551407

>  <alias>  (815) 
MTOSJZWYYLWSEZ-UHFFFAOYSA-N-P29-P29-P84-601526

>  <fragmenstein_runtime>  (815) 
4.207729

>  <scratch_subdir>  (815) 
/opt/xchem-fragalysis-2/maxwin/BulkDock/SCRATCH/601526/MTOSJZWYYLWSEZ-UHFFFAOYSA-N-P29-P29-P84-601526

>  <HIPPO Compound ID>  (815) 
141914

>  <rmsd(smina/fragmenstein)>  (815) 
2.074

>  <distance_score>  (815) 
1.492633

>  <orig_smiles>  (815) 
CCOC(=O)c1nc(NC(=O)c2cc3ncc(Br)n3cc2F)sc1C(F)(F)F

>  <fragmenstein_mode>  (815) 
expansion

>  <inchikey>  (815) 
MTOSJZWYYLWSEZ-UHFFFAOYSA-N

>  <ref_pdb>  (815) 
Z3093a

>  <GNINA pK>  (815) 
nan

>  <gnina_score_min>  (815) 
5.291

>  <tags>  (815) 
xx01zvns2b_c1_elab_bulkdock_input,openbind_xx01zvns2b_c1_elab_nonasap_filtered_scored_top80percent,openbind_xx01zvns2b_c1_elab_chemspace_filtered_scored_top80percent,fragmenstein_placed,openbind_xx01zvns2b_c1_elab_chemspace_filtered_scored,openbind_xx01zvns2b_c1_elab_chemspace_filtered_scored_top40percent,openbind_xx01zvns2b_c1_elab_chemspace_filtered_scored_top20percent,openbind_xx01zvns2b_c1_elab_chemspace_filtered_scored_top60percent,openbind_xx01zvns2b_c1_elabs_filtered

>  <smiles>  (815) 
CCOC(=O)c1nc(NC(=O)c2cc3ncc(Br)n3cc2F)sc1C(F)(F)F

>  <subsites>  (815) 
1 - Z4590/B/203/1

>  <gnina_score>  (815) 
5.684

>  <HIPPO Pose ID>  (815) 
77073

>  <ref_mols>  (815) 
Z1495a,Z0673a

>  <energy_score>  (815) 
-35.27929

>  <inspiration_score>  (815) 
None

>  <smina_score_min>  (815) 
-6.181

>  <fragmenstein_error>  (815) 


>  <name>  (815) 
MTOSJZWYYLWSEZ-UHFFFAOYSA-N-P29-P29-P84-601526

$$$$
XSPPWEOPEVXPCX-UHFFFAOYSA-N-P84-P29-P84-601526
     RDKit          3D

 28 31  0  0  0  0  0  0  0  0999 V2000
   -3.4906    6.0178  -13.0476 C   0  0  0  0  0  0  0  0  0  0  0  0
   -3.8933    7.1148  -13.7037 C   0  0  0  0  0  0  0  0  0  0  0  0
   -5.1660    7.3104  -14.5076 C   0  0  0  0  0  0  0  0  0  0  0  0
   -6.0475    5.9852  -14.5216 N   0  0  0  0  0  0  0  0  0  0  0  0
   -7.3319    6.2450  -13.9822 C   0  0  0  0  0  0  0  0  0  0  0  0
   -8.3520    6.5896  -14.5178 O   0  0  0  0  0  0  0  0  0  0  0  0
   -7.3926    5.9325  -12.5332 C   0  0  0  0  0  0  0  0  0  0  0  0
   -7.8383    6.9380  -11.5736 C   0  0  0  0  0  0  0  0  0  0  0  0
   -8.1396    6.5475  -10.3237 C   0  0  0  0  0  0  0  0  0  0  0  0
   -8.0111    5.2014   -9.9903 N   0  0  0  0  0  0  0  0  0  0  0  0
   -8.2947    4.5653   -8.8143 C   0  0  0  0  0  0  0  0  0  0  0  0
   -8.0342    3.2371   -9.0607 C   0  0  0  0  0  0  0  0  0  0  0  0
   -8.2479    2.0644   -8.0887 C   0  0  0  0  0  0  0  0  0  0  0  0
   -9.5977    1.8152   -7.4774 C   0  0  0  0  0  0  0  0  0  0  0  0
   -8.4745    2.3234   -6.6281 C   0  0  0  0  0  0  0  0  0  0  0  0
   -7.5338    3.0454  -10.3162 N   0  0  0  0  0  0  0  0  0  0  0  0
   -7.5637    4.2287  -10.8757 C   0  0  0  0  0  0  0  0  0  0  0  0
   -7.2674    4.6320  -12.2012 C   0  0  0  0  0  0  0  0  0  0  0  0
   -5.6002    5.9503  -15.8647 C   0  0  0  0  0  0  0  0  0  0  0  0
   -6.4270    6.1597  -16.8576 N   0  0  0  0  0  0  0  0  0  0  0  0
   -6.1296    5.2623  -17.8721 C   0  0  0  0  0  0  0  0  0  0  0  0
   -7.1751    4.7040  -18.7163 C   0  0  0  0  0  0  0  0  0  0  0  0
   -6.9699    3.8818  -19.5963 O   0  0  0  0  0  0  0  0  0  0  0  0
   -8.3940    5.1485  -18.3239 O   0  0  0  0  0  0  0  0  0  0  0  0
   -9.4660    4.3174  -18.7419 C   0  0  0  0  0  0  0  0  0  0  0  0
  -10.5677    4.4622  -17.7244 C   0  0  0  0  0  0  0  0  0  0  0  0
   -4.8237    4.8126  -17.8548 C   0  0  0  0  0  0  0  0  0  0  0  0
   -4.1904    5.0393  -16.2746 S   0  0  0  0  0  0  0  0  0  0  0  0
  1  2  2  0
  2  3  1  0
  3  4  1  0
  4  5  1  0
  5  6  2  0
  5  7  1  0
  7  8  1  0
  8  9  2  0
  9 10  1  0
 10 11  1  0
 11 12  2  0
 12 13  1  0
 13 14  1  0
 14 15  1  0
 12 16  1  0
 16 17  2  0
 17 18  1  0
  4 19  1  0
 19 20  2  0
 20 21  1  0
 21 22  1  0
 22 23  2  0
 22 24  1  0
 24 25  1  0
 25 26  1  0
 21 27  2  0
 27 28  1  0
 18  7  2  0
 28 19  1  0
 17 10  1  0
 15 13  1  0
M  END
>  <fragmenstein_outcome>  (816) 
too moved

>  <exports>  (816) 
['/opt/xchem-fragalysis-2/maxwin/openbind-hippo/xx01zvns2b/cycle_01/syndirella/elabs/openbind_xx01zvns2b_c1_elab_chemspace_filtered.sdf']

>  <Energy>  (816) 
137.906084

>  <alias>  (816) 
XSPPWEOPEVXPCX-UHFFFAOYSA-N-P84-P29-P84-601526

>  <fragmenstein_runtime>  (816) 
10.88682

>  <scratch_subdir>  (816) 
/opt/xchem-fragalysis-2/maxwin/BulkDock/SCRATCH/601526/XSPPWEOPEVXPCX-UHFFFAOYSA-N-P84-P29-P84-601526

>  <HIPPO Compound ID>  (816) 
141915

>  <rmsd(smina/fragmenstein)>  (816) 
1.557

>  <distance_score>  (816) 
1.711295

>  <orig_smiles>  (816) 
C=CCN(C(=O)c1ccn2cc(C3CC3)nc2c1)c1nc(C(=O)OCC)cs1

>  <fragmenstein_mode>  (816) 
expansion

>  <inchikey>  (816) 
XSPPWEOPEVXPCX-UHFFFAOYSA-N

>  <ref_pdb>  (816) 
Z3093a

>  <GNINA pK>  (816) 
nan

>  <gnina_score_min>  (816) 
5.225

>  <tags>  (816) 
xx01zvns2b_c1_elab_bulkdock_input,openbind_xx01zvns2b_c1_elab_nonasap_filtered_scored_top80percent,openbind_xx01zvns2b_c1_elab_chemspace_filtered_scored_top80percent,fragmenstein_placed,openbind_xx01zvns2b_c1_elab_chemspace_filtered_scored,openbind_xx01zvns2b_c1_elab_chemspace_filtered_scored_top40percent,openbind_xx01zvns2b_c1_elab_chemspace_filtered_scored_top20percent,openbind_xx01zvns2b_c1_elab_chemspace_filtered_scored_top60percent,openbind_xx01zvns2b_c1_elabs_filtered

>  <smiles>  (816) 
C=CCN(C(=O)c1ccn2cc(C3CC3)nc2c1)c1nc(C(=O)OCC)cs1

>  <subsites>  (816) 
1 - Z4590/B/203/1

>  <gnina_score>  (816) 
5.755

>  <HIPPO Pose ID>  (816) 
77076

>  <ref_mols>  (816) 
Z1495a,Z0673a

>  <energy_score>  (816) 
-10.518523

>  <inspiration_score>  (816) 
None

>  <smina_score_min>  (816) 
-5.161

>  <fragmenstein_error>  (816) 


>  <name>  (816) 
XSPPWEOPEVXPCX-UHFFFAOYSA-N-P84-P29-P84-601526

$$$$
QRLOOALLCAKYGI-UHFFFAOYSA-N-P29-P29-P84-601526
     RDKit          3D

 28 30  0  0  0  0  0  0  0  0999 V2000
   -9.6079    3.8612  -18.0122 C   0  0  0  0  0  0  0  0  0  0  0  0
   -8.2896    4.3715  -17.4887 C   0  0  0  0  0  0  0  0  0  0  0  0
   -7.3499    4.4443  -18.5741 O   0  0  0  0  0  0  0  0  0  0  0  0
   -6.0492    4.8356  -18.3970 C   0  0  0  0  0  0  0  0  0  0  0  0
   -5.2063    4.6116  -19.2578 O   0  0  0  0  0  0  0  0  0  0  0  0
   -5.6838    5.5549  -17.1667 C   0  0  0  0  0  0  0  0  0  0  0  0
   -6.6253    6.2143  -16.3760 N   0  0  0  0  0  0  0  0  0  0  0  0
   -6.0748    6.5177  -15.2347 C   0  0  0  0  0  0  0  0  0  0  0  0
   -6.6982    6.3746  -14.0485 N   0  0  0  0  0  0  0  0  0  0  0  0
   -6.1859    6.6049  -12.6159 C   0  0  0  0  0  0  0  0  0  0  0  0
   -5.1694    7.0284  -12.2362 O   0  0  0  0  0  0  0  0  0  0  0  0
   -7.2052    6.0776  -11.6632 C   0  0  0  0  0  0  0  0  0  0  0  0
   -7.4862    4.7558  -11.7470 C   0  0  0  0  0  0  0  0  0  0  0  0
   -8.0650    4.0967  -10.6260 C   0  0  0  0  0  0  0  0  0  0  0  0
   -8.3912    2.8375  -10.4547 N   0  0  0  0  0  0  0  0  0  0  0  0
   -8.6906    2.7155   -9.1165 C   0  0  0  0  0  0  0  0  0  0  0  0
   -8.5792    3.9293   -8.4922 C   0  0  0  0  0  0  0  0  0  0  0  0
   -8.7551    4.3749   -6.8600 Cl  0  0  0  0  0  0  0  0  0  0  0  0
   -8.2354    4.8391   -9.4566 N   0  0  0  0  0  0  0  0  0  0  0  0
   -8.0350    6.2179   -9.4042 C   0  0  0  0  0  0  0  0  0  0  0  0
   -7.5627    6.8435  -10.4899 C   0  0  0  0  0  0  0  0  0  0  0  0
   -7.3584    8.1746  -10.4807 F   0  0  0  0  0  0  0  0  0  0  0  0
   -4.3903    6.6683  -15.2823 S   0  0  0  0  0  0  0  0  0  0  0  0
   -4.4216    5.5528  -16.5854 C   0  0  0  0  0  0  0  0  0  0  0  0
   -3.3251    4.5864  -16.6923 C   0  0  0  0  0  0  0  0  0  0  0  0
   -2.1824    5.0080  -16.0923 F   0  0  0  0  0  0  0  0  0  0  0  0
   -2.9945    4.1977  -17.9392 F   0  0  0  0  0  0  0  0  0  0  0  0
   -3.7046    3.4867  -15.9916 F   0  0  0  0  0  0  0  0  0  0  0  0
  1  2  1  0
  2  3  1  0
  3  4  1  0
  4  5  2  0
  4  6  1  0
  6  7  1  0
  7  8  2  0
  8  9  1  0
  9 10  1  0
 10 11  2  0
 10 12  1  0
 12 13  2  0
 13 14  1  0
 14 15  2  0
 15 16  1  0
 16 17  2  0
 17 18  1  0
 17 19  1  0
 19 20  1  0
 20 21  2  0
 21 22  1  0
  8 23  1  0
 23 24  1  0
 24 25  1  0
 25 26  1  0
 25 27  1  0
 25 28  1  0
 24  6  2  0
 21 12  1  0
 19 14  1  0
M  END
>  <fragmenstein_outcome>  (817) 
too moved

>  <exports>  (817) 
['/opt/xchem-fragalysis-2/maxwin/openbind-hippo/xx01zvns2b/cycle_01/syndirella/elabs/openbind_xx01zvns2b_c1_elab_chemspace_filtered.sdf']

>  <Energy>  (817) 
42.194142

>  <alias>  (817) 
QRLOOALLCAKYGI-UHFFFAOYSA-N-P29-P29-P84-601526

>  <fragmenstein_runtime>  (817) 
3.676907

>  <scratch_subdir>  (817) 
/opt/xchem-fragalysis-2/maxwin/BulkDock/SCRATCH/601526/QRLOOALLCAKYGI-UHFFFAOYSA-N-P29-P29-P84-601526

>  <HIPPO Compound ID>  (817) 
141916

>  <rmsd(smina/fragmenstein)>  (817) 
1.429

>  <distance_score>  (817) 
1.703911

>  <orig_smiles>  (817) 
CCOC(=O)c1nc(NC(=O)c2cc3ncc(Cl)n3cc2F)sc1C(F)(F)F

>  <fragmenstein_mode>  (817) 
expansion

>  <inchikey>  (817) 
QRLOOALLCAKYGI-UHFFFAOYSA-N

>  <ref_pdb>  (817) 
Z3093a

>  <GNINA pK>  (817) 
nan

>  <gnina_score_min>  (817) 
5.465

>  <tags>  (817) 
xx01zvns2b_c1_elab_bulkdock_input,openbind_xx01zvns2b_c1_elab_nonasap_filtered_scored_top80percent,openbind_xx01zvns2b_c1_elab_chemspace_filtered_scored_top80percent,fragmenstein_placed,openbind_xx01zvns2b_c1_elab_chemspace_filtered_scored,openbind_xx01zvns2b_c1_elab_chemspace_filtered_scored_top40percent,openbind_xx01zvns2b_c1_elab_chemspace_filtered_scored_top20percent,openbind_xx01zvns2b_c1_elab_chemspace_filtered_scored_top60percent,openbind_xx01zvns2b_c1_elabs_filtered

>  <smiles>  (817) 
CCOC(=O)c1nc(NC(=O)c2cc3ncc(Cl)n3cc2F)sc1C(F)(F)F

>  <subsites>  (817) 
1 - Z4590/B/203/1

>  <gnina_score>  (817) 
5.815

>  <HIPPO Pose ID>  (817) 
77077

>  <ref_mols>  (817) 
Z1495a,Z0673a

>  <energy_score>  (817) 
-36.152137

>  <inspiration_score>  (817) 
None

>  <smina_score_min>  (817) 
-5.835

>  <fragmenstein_error>  (817) 


>  <name>  (817) 
QRLOOALLCAKYGI-UHFFFAOYSA-N-P29-P29-P84-601526

$$$$
ZQGNFABOKRATLF-UHFFFAOYSA-N-P29-P29-P84-601526
     RDKit          3D

 28 31  0  0  0  0  0  0  0  0999 V2000
   -9.6187    4.0630  -18.5676 C   0  0  0  0  0  0  0  0  0  0  0  0
   -8.2708    4.3347  -17.9697 C   0  0  0  0  0  0  0  0  0  0  0  0
   -7.2182    4.1421  -18.9340 O   0  0  0  0  0  0  0  0  0  0  0  0
   -5.9316    4.5402  -18.6429 C   0  0  0  0  0  0  0  0  0  0  0  0
   -5.0730    4.6208  -19.5143 O   0  0  0  0  0  0  0  0  0  0  0  0
   -5.6257    4.8897  -17.2598 C   0  0  0  0  0  0  0  0  0  0  0  0
   -6.3545    4.4989  -16.1607 N   0  0  0  0  0  0  0  0  0  0  0  0
   -6.4737    5.5746  -15.4246 C   0  0  0  0  0  0  0  0  0  0  0  0
   -7.0553    5.5623  -14.2245 N   0  0  0  0  0  0  0  0  0  0  0  0
   -7.4621    6.7191  -13.3010 C   0  0  0  0  0  0  0  0  0  0  0  0
   -7.4253    7.8704  -13.4718 O   0  0  0  0  0  0  0  0  0  0  0  0
   -7.8644    6.1361  -11.9674 C   0  0  0  0  0  0  0  0  0  0  0  0
   -7.6216    6.9910  -10.8037 C   0  0  0  0  0  0  0  0  0  0  0  0
   -7.7888    6.4927   -9.5722 C   0  0  0  0  0  0  0  0  0  0  0  0
   -8.1993    5.1772   -9.4346 N   0  0  0  0  0  0  0  0  0  0  0  0
   -8.3964    4.4580   -8.2976 C   0  0  0  0  0  0  0  0  0  0  0  0
   -8.7861    3.2124   -8.7297 C   0  0  0  0  0  0  0  0  0  0  0  0
   -9.1006    2.0213   -7.8103 C   0  0  0  0  0  0  0  0  0  0  0  0
   -8.5634    2.0600   -6.4120 C   0  0  0  0  0  0  0  0  0  0  0  0
  -10.0373    2.1476   -6.6352 C   0  0  0  0  0  0  0  0  0  0  0  0
   -8.8389    3.1438  -10.0942 N   0  0  0  0  0  0  0  0  0  0  0  0
   -8.4912    4.3423  -10.5011 C   0  0  0  0  0  0  0  0  0  0  0  0
   -8.3543    4.8825  -11.8075 C   0  0  0  0  0  0  0  0  0  0  0  0
   -5.6118    6.9374  -16.0211 S   0  0  0  0  0  0  0  0  0  0  0  0
   -4.6031    5.7029  -16.7913 C   0  0  0  0  0  0  0  0  0  0  0  0
   -3.5006    5.3419  -15.9226 C   0  0  0  0  0  0  0  0  0  0  0  0
   -3.3317    3.8930  -15.5750 C   0  0  0  0  0  0  0  0  0  0  0  0
   -2.7912    6.1791  -15.3694 O   0  0  0  0  0  0  0  0  0  0  0  0
  1  2  1  0
  2  3  1  0
  3  4  1  0
  4  5  2  0
  4  6  1  0
  6  7  1  0
  7  8  2  0
  8  9  1  0
  9 10  1  0
 10 11  2  0
 10 12  1  0
 12 13  1  0
 13 14  2  0
 14 15  1  0
 15 16  1  0
 16 17  2  0
 17 18  1  0
 18 19  1  0
 19 20  1  0
 17 21  1  0
 21 22  2  0
 22 23  1  0
  8 24  1  0
 24 25  1  0
 25 26  1  0
 26 27  1  0
 26 28  2  0
 25  6  2  0
 23 12  2  0
 22 15  1  0
 20 18  1  0
M  END
>  <fragmenstein_outcome>  (818) 
too moved

>  <exports>  (818) 
['/opt/xchem-fragalysis-2/maxwin/openbind-hippo/xx01zvns2b/cycle_01/syndirella/elabs/openbind_xx01zvns2b_c1_elab_chemspace_filtered.sdf']

>  <Energy>  (818) 
106.087402

>  <alias>  (818) 
ZQGNFABOKRATLF-UHFFFAOYSA-N-P29-P29-P84-601526

>  <fragmenstein_runtime>  (818) 
4.173383

>  <scratch_subdir>  (818) 
/opt/xchem-fragalysis-2/maxwin/BulkDock/SCRATCH/601526/ZQGNFABOKRATLF-UHFFFAOYSA-N-P29-P29-P84-601526

>  <HIPPO Compound ID>  (818) 
141917

>  <rmsd(smina/fragmenstein)>  (818) 
1.723

>  <distance_score>  (818) 
1.516426

>  <orig_smiles>  (818) 
CCOC(=O)c1nc(NC(=O)c2ccn3cc(C4CC4)nc3c2)sc1C(C)=O

>  <fragmenstein_mode>  (818) 
expansion

>  <inchikey>  (818) 
ZQGNFABOKRATLF-UHFFFAOYSA-N

>  <ref_pdb>  (818) 
Z3093a

>  <GNINA pK>  (818) 
nan

>  <gnina_score_min>  (818) 
5.36

>  <tags>  (818) 
xx01zvns2b_c1_elab_bulkdock_input,openbind_xx01zvns2b_c1_elab_nonasap_filtered_scored_top80percent,openbind_xx01zvns2b_c1_elab_chemspace_filtered_scored_top80percent,fragmenstein_placed,openbind_xx01zvns2b_c1_elab_chemspace_filtered_scored,openbind_xx01zvns2b_c1_elab_chemspace_filtered_scored_top40percent,openbind_xx01zvns2b_c1_elab_chemspace_filtered_scored_top20percent,openbind_xx01zvns2b_c1_elab_chemspace_filtered_scored_top60percent,openbind_xx01zvns2b_c1_elabs_filtered

>  <smiles>  (818) 
CCOC(=O)c1nc(NC(=O)c2ccn3cc(C4CC4)nc3c2)sc1C(C)=O

>  <subsites>  (818) 
1 - Z4590/B/203/1

>  <gnina_score>  (818) 
5.691

>  <HIPPO Pose ID>  (818) 
77079

>  <ref_mols>  (818) 
Z1495a,Z0673a

>  <energy_score>  (818) 
-26.440774

>  <inspiration_score>  (818) 
None

>  <smina_score_min>  (818) 
-5.537

>  <fragmenstein_error>  (818) 


>  <name>  (818) 
ZQGNFABOKRATLF-UHFFFAOYSA-N-P29-P29-P84-601526

$$$$
OILFHAGLQLLAHT-UHFFFAOYSA-N-P29-P29-P84-601526
     RDKit          3D

 29 32  0  0  0  0  0  0  0  0999 V2000
   -9.4583    3.9306  -17.9586 C   0  0  0  0  0  0  0  0  0  0  0  0
   -8.1282    4.4520  -17.4686 C   0  0  0  0  0  0  0  0  0  0  0  0
   -7.2072    4.5344  -18.5733 O   0  0  0  0  0  0  0  0  0  0  0  0
   -5.9024    4.9179  -18.4023 C   0  0  0  0  0  0  0  0  0  0  0  0
   -5.0586    4.6841  -19.2598 O   0  0  0  0  0  0  0  0  0  0  0  0
   -5.5295    5.6242  -17.1669 C   0  0  0  0  0  0  0  0  0  0  0  0
   -6.4417    6.3885  -16.4468 N   0  0  0  0  0  0  0  0  0  0  0  0
   -5.9663    6.5591  -15.2485 C   0  0  0  0  0  0  0  0  0  0  0  0
   -6.6247    6.4100  -14.0886 N   0  0  0  0  0  0  0  0  0  0  0  0
   -8.1202    6.1859  -13.8109 C   0  0  0  0  0  0  0  0  0  0  0  0
   -9.0283    6.1718  -14.5373 O   0  0  0  0  0  0  0  0  0  0  0  0
   -8.2248    5.8670  -12.3719 C   0  0  0  0  0  0  0  0  0  0  0  0
   -8.0549    6.8724  -11.3371 C   0  0  0  0  0  0  0  0  0  0  0  0
   -8.0781    6.4701  -10.0554 C   0  0  0  0  0  0  0  0  0  0  0  0
   -8.2731    5.1191   -9.7720 N   0  0  0  0  0  0  0  0  0  0  0  0
   -8.3678    4.4950   -8.5620 C   0  0  0  0  0  0  0  0  0  0  0  0
   -8.6275    3.1775   -8.8621 C   0  0  0  0  0  0  0  0  0  0  0  0
   -8.8587    2.0460   -7.8456 C   0  0  0  0  0  0  0  0  0  0  0  0
   -8.4674    2.2604   -6.4152 C   0  0  0  0  0  0  0  0  0  0  0  0
   -9.9125    2.1417   -6.7733 C   0  0  0  0  0  0  0  0  0  0  0  0
   -8.6367    2.9610  -10.2114 N   0  0  0  0  0  0  0  0  0  0  0  0
   -8.4373    4.1407  -10.7447 C   0  0  0  0  0  0  0  0  0  0  0  0
   -8.3906    4.5564  -12.0987 C   0  0  0  0  0  0  0  0  0  0  0  0
   -4.2839    6.5340  -15.1322 S   0  0  0  0  0  0  0  0  0  0  0  0
   -4.3033    5.5198  -16.5218 C   0  0  0  0  0  0  0  0  0  0  0  0
   -3.2443    4.5173  -16.6339 C   0  0  0  0  0  0  0  0  0  0  0  0
   -2.0948    4.9081  -16.0247 F   0  0  0  0  0  0  0  0  0  0  0  0
   -2.9177    4.1282  -17.8805 F   0  0  0  0  0  0  0  0  0  0  0  0
   -3.6600    3.4279  -15.9395 F   0  0  0  0  0  0  0  0  0  0  0  0
  1  2  1  0
  2  3  1  0
  3  4  1  0
  4  5  2  0
  4  6  1  0
  6  7  1  0
  7  8  2  0
  8  9  1  0
  9 10  1  0
 10 11  2  0
 10 12  1  0
 12 13  1  0
 13 14  2  0
 14 15  1  0
 15 16  1  0
 16 17  2  0
 17 18  1  0
 18 19  1  0
 19 20  1  0
 17 21  1  0
 21 22  2  0
 22 23  1  0
  8 24  1  0
 24 25  1  0
 25 26  1  0
 26 27  1  0
 26 28  1  0
 26 29  1  0
 25  6  2  0
 23 12  2  0
 22 15  1  0
 20 18  1  0
M  END
>  <fragmenstein_outcome>  (819) 
too moved

>  <exports>  (819) 
['/opt/xchem-fragalysis-2/maxwin/openbind-hippo/xx01zvns2b/cycle_01/syndirella/elabs/openbind_xx01zvns2b_c1_elab_chemspace_filtered.sdf']

>  <Energy>  (819) 
49.042651

>  <alias>  (819) 
OILFHAGLQLLAHT-UHFFFAOYSA-N-P29-P29-P84-601526

>  <fragmenstein_runtime>  (819) 
7.632491

>  <scratch_subdir>  (819) 
/opt/xchem-fragalysis-2/maxwin/BulkDock/SCRATCH/601526/OILFHAGLQLLAHT-UHFFFAOYSA-N-P29-P29-P84-601526

>  <HIPPO Compound ID>  (819) 
141919

>  <rmsd(smina/fragmenstein)>  (819) 
1.936

>  <distance_score>  (819) 
1.218986

>  <orig_smiles>  (819) 
CCOC(=O)c1nc(NC(=O)c2ccn3cc(C4CC4)nc3c2)sc1C(F)(F)F

>  <fragmenstein_mode>  (819) 
expansion

>  <inchikey>  (819) 
OILFHAGLQLLAHT-UHFFFAOYSA-N

>  <ref_pdb>  (819) 
Z3093a

>  <GNINA pK>  (819) 
nan

>  <gnina_score_min>  (819) 
5.28

>  <tags>  (819) 
xx01zvns2b_c1_elab_bulkdock_input,openbind_xx01zvns2b_c1_elab_nonasap_filtered_scored_top80percent,openbind_xx01zvns2b_c1_elab_chemspace_filtered_scored_top80percent,fragmenstein_placed,openbind_xx01zvns2b_c1_elab_chemspace_filtered_scored,openbind_xx01zvns2b_c1_elab_chemspace_filtered_scored_top40percent,openbind_xx01zvns2b_c1_elab_chemspace_filtered_scored_top20percent,openbind_xx01zvns2b_c1_elab_chemspace_filtered_scored_top60percent,openbind_xx01zvns2b_c1_elabs_filtered

>  <smiles>  (819) 
CCOC(=O)c1nc(NC(=O)c2ccn3cc(C4CC4)nc3c2)sc1C(F)(F)F

>  <subsites>  (819) 
1 - Z4590/B/203/1

>  <gnina_score>  (819) 
5.514

>  <HIPPO Pose ID>  (819) 
77083

>  <ref_mols>  (819) 
Z1495a,Z0673a

>  <energy_score>  (819) 
-31.503349

>  <inspiration_score>  (819) 
None

>  <smina_score_min>  (819) 
-6.341

>  <fragmenstein_error>  (819) 


>  <name>  (819) 
OILFHAGLQLLAHT-UHFFFAOYSA-N-P29-P29-P84-601526

$$$$
PTIRTZVAUQIROX-UHFFFAOYSA-N-P84-P29-P84-601526
     RDKit          3D

 29 32  0  0  0  0  0  0  0  0999 V2000
   -9.2830    3.8461  -17.5394 C   0  0  0  0  0  0  0  0  0  0  0  0
   -8.6599    4.6262  -18.6749 C   0  0  0  0  0  0  0  0  0  0  0  0
   -7.3980    4.0553  -19.0600 O   0  0  0  0  0  0  0  0  0  0  0  0
   -6.1959    4.6210  -18.7353 C   0  0  0  0  0  0  0  0  0  0  0  0
   -5.1798    4.3398  -19.3639 O   0  0  0  0  0  0  0  0  0  0  0  0
   -6.0866    5.4852  -17.5629 C   0  0  0  0  0  0  0  0  0  0  0  0
   -7.0600    5.6085  -16.5898 N   0  0  0  0  0  0  0  0  0  0  0  0
   -6.5237    6.1278  -15.5260 C   0  0  0  0  0  0  0  0  0  0  0  0
   -7.0480    6.1122  -14.3019 N   0  0  0  0  0  0  0  0  0  0  0  0
   -8.4865    5.8700  -13.8398 C   0  0  0  0  0  0  0  0  0  0  0  0
   -9.4594    5.7214  -14.4541 O   0  0  0  0  0  0  0  0  0  0  0  0
   -8.3961    5.7542  -12.3820 C   0  0  0  0  0  0  0  0  0  0  0  0
   -8.2120    6.9072  -11.5204 C   0  0  0  0  0  0  0  0  0  0  0  0
   -8.0252    6.6834  -10.2108 C   0  0  0  0  0  0  0  0  0  0  0  0
   -8.0339    5.3704   -9.7475 N   0  0  0  0  0  0  0  0  0  0  0  0
   -8.0050    4.9212   -8.4608 C   0  0  0  0  0  0  0  0  0  0  0  0
   -8.3014    3.5825   -8.5746 C   0  0  0  0  0  0  0  0  0  0  0  0
   -8.9354    2.7719   -7.5760 C   0  0  0  0  0  0  0  0  0  0  0  0
   -9.2904    1.4288   -7.7141 C   0  0  0  0  0  0  0  0  0  0  0  0
  -10.1325    1.0447   -6.7523 N   0  0  0  0  0  0  0  0  0  0  0  0
  -10.3115    2.1650   -6.0431 N   0  0  0  0  0  0  0  0  0  0  0  0
  -11.2952    2.1869   -5.0086 C   0  0  0  0  0  0  0  0  0  0  0  0
   -9.5365    3.2086   -6.4237 C   0  0  0  0  0  0  0  0  0  0  0  0
   -8.2659    3.1536   -9.8670 N   0  0  0  0  0  0  0  0  0  0  0  0
   -8.1908    4.2564  -10.5637 C   0  0  0  0  0  0  0  0  0  0  0  0
   -8.3430    4.4812  -11.9474 C   0  0  0  0  0  0  0  0  0  0  0  0
   -4.9622    6.7469  -15.6394 S   0  0  0  0  0  0  0  0  0  0  0  0
   -4.9377    6.1671  -17.2312 C   0  0  0  0  0  0  0  0  0  0  0  0
   -3.5249    6.4286  -18.1371 Cl  0  0  0  0  0  0  0  0  0  0  0  0
  1  2  1  0
  2  3  1  0
  3  4  1  0
  4  5  2  0
  4  6  1  0
  6  7  1  0
  7  8  2  0
  8  9  1  0
  9 10  1  0
 10 11  2  0
 10 12  1  0
 12 13  1  0
 13 14  2  0
 14 15  1  0
 15 16  1  0
 16 17  2  0
 17 18  1  0
 18 19  1  0
 19 20  2  0
 20 21  1  0
 21 22  1  0
 21 23  1  0
 17 24  1  0
 24 25  2  0
 25 26  1  0
  8 27  1  0
 27 28  1  0
 28 29  1  0
 28  6  2  0
 26 12  2  0
 25 15  1  0
 23 18  2  0
M  END
>  <fragmenstein_outcome>  (820) 
too moved

>  <exports>  (820) 
['/opt/xchem-fragalysis-2/maxwin/openbind-hippo/xx01zvns2b/cycle_01/syndirella/elabs/openbind_xx01zvns2b_c1_elab_chemspace_filtered.sdf']

>  <Energy>  (820) 
58.432223

>  <alias>  (820) 
PTIRTZVAUQIROX-UHFFFAOYSA-N-P84-P29-P84-601526

>  <fragmenstein_runtime>  (820) 
5.975727

>  <scratch_subdir>  (820) 
/opt/xchem-fragalysis-2/maxwin/BulkDock/SCRATCH/601526/PTIRTZVAUQIROX-UHFFFAOYSA-N-P84-P29-P84-601526

>  <HIPPO Compound ID>  (820) 
141922

>  <rmsd(smina/fragmenstein)>  (820) 
0.707

>  <distance_score>  (820) 
1.381975

>  <orig_smiles>  (820) 
CCOC(=O)c1nc(NC(=O)c2ccn3cc(-c4cnn(C)c4)nc3c2)sc1Cl

>  <fragmenstein_mode>  (820) 
expansion

>  <inchikey>  (820) 
PTIRTZVAUQIROX-UHFFFAOYSA-N

>  <ref_pdb>  (820) 
Z3093a

>  <GNINA pK>  (820) 
nan

>  <gnina_score_min>  (820) 
5.741

>  <tags>  (820) 
xx01zvns2b_c1_elab_bulkdock_input,openbind_xx01zvns2b_c1_elab_nonasap_filtered_scored_top80percent,openbind_xx01zvns2b_c1_elab_chemspace_filtered_scored_top80percent,fragmenstein_placed,openbind_xx01zvns2b_c1_elab_chemspace_filtered_scored,openbind_xx01zvns2b_c1_elab_chemspace_filtered_scored_top40percent,openbind_xx01zvns2b_c1_elab_chemspace_filtered_scored_top20percent,openbind_xx01zvns2b_c1_elab_chemspace_filtered_scored_top60percent,openbind_xx01zvns2b_c1_elabs_filtered

>  <smiles>  (820) 
CCOC(=O)c1nc(NC(=O)c2ccn3cc(-c4cnn(C)c4)nc3c2)sc1Cl

>  <subsites>  (820) 
1 - Z4590/B/203/1

>  <gnina_score>  (820) 
5.647

>  <HIPPO Pose ID>  (820) 
77089

>  <ref_mols>  (820) 
Z1495a,Z0673a

>  <energy_score>  (820) 
-51.285983

>  <inspiration_score>  (820) 
None

>  <smina_score_min>  (820) 
-6.521

>  <fragmenstein_error>  (820) 


>  <name>  (820) 
PTIRTZVAUQIROX-UHFFFAOYSA-N-P84-P29-P84-601526

$$$$
BHZQMFAAQYMVEG-UHFFFAOYSA-N-P29-P29-P84-601526
     RDKit          3D

 29 32  0  0  0  0  0  0  0  0999 V2000
   -9.1288    3.9393  -17.6614 C   0  0  0  0  0  0  0  0  0  0  0  0
   -8.5073    4.6731  -18.8355 C   0  0  0  0  0  0  0  0  0  0  0  0
   -7.2476    4.1070  -19.2261 O   0  0  0  0  0  0  0  0  0  0  0  0
   -6.0713    4.7892  -19.0343 C   0  0  0  0  0  0  0  0  0  0  0  0
   -5.1997    4.7577  -19.8989 O   0  0  0  0  0  0  0  0  0  0  0  0
   -5.8327    5.4621  -17.7369 C   0  0  0  0  0  0  0  0  0  0  0  0
   -6.8300    5.6764  -16.7905 N   0  0  0  0  0  0  0  0  0  0  0  0
   -6.2944    5.9597  -15.6395 C   0  0  0  0  0  0  0  0  0  0  0  0
   -6.9139    5.9714  -14.4456 N   0  0  0  0  0  0  0  0  0  0  0  0
   -8.4133    5.9816  -14.0976 C   0  0  0  0  0  0  0  0  0  0  0  0
   -9.3471    6.0590  -14.7868 O   0  0  0  0  0  0  0  0  0  0  0  0
   -8.5150    5.7606  -12.6406 C   0  0  0  0  0  0  0  0  0  0  0  0
   -8.2548    6.7683  -11.6251 C   0  0  0  0  0  0  0  0  0  0  0  0
   -8.0752    6.3571  -10.3539 C   0  0  0  0  0  0  0  0  0  0  0  0
   -8.1442    4.9890  -10.0726 N   0  0  0  0  0  0  0  0  0  0  0  0
   -7.5962    4.2847   -9.0089 C   0  0  0  0  0  0  0  0  0  0  0  0
   -7.3562    3.0495   -9.6086 C   0  0  0  0  0  0  0  0  0  0  0  0
   -6.0236    2.6472  -10.0899 C   0  0  0  0  0  0  0  0  0  0  0  0
   -5.2291    3.5107  -10.8947 C   0  0  0  0  0  0  0  0  0  0  0  0
   -4.2421    2.8796  -11.5351 N   0  0  0  0  0  0  0  0  0  0  0  0
   -4.3190    1.6302  -11.0042 N   0  0  0  0  0  0  0  0  0  0  0  0
   -3.2546    0.6905  -11.2515 C   0  0  0  0  0  0  0  0  0  0  0  0
   -5.4267    1.4228  -10.2282 C   0  0  0  0  0  0  0  0  0  0  0  0
   -8.3223    2.8267  -10.5518 N   0  0  0  0  0  0  0  0  0  0  0  0
   -8.5179    4.0347  -11.0134 C   0  0  0  0  0  0  0  0  0  0  0  0
   -8.6979    4.4602  -12.3462 C   0  0  0  0  0  0  0  0  0  0  0  0
   -4.6257    6.2203  -15.6133 S   0  0  0  0  0  0  0  0  0  0  0  0
   -4.5779    5.8976  -17.3043 C   0  0  0  0  0  0  0  0  0  0  0  0
   -3.2896    6.0005  -18.0412 C   0  0  0  0  0  0  0  0  0  0  0  0
  1  2  1  0
  2  3  1  0
  3  4  1  0
  4  5  2  0
  4  6  1  0
  6  7  1  0
  7  8  2  0
  8  9  1  0
  9 10  1  0
 10 11  2  0
 10 12  1  0
 12 13  1  0
 13 14  2  0
 14 15  1  0
 15 16  1  0
 16 17  2  0
 17 18  1  0
 18 19  1  0
 19 20  2  0
 20 21  1  0
 21 22  1  0
 21 23  1  0
 17 24  1  0
 24 25  2  0
 25 26  1  0
  8 27  1  0
 27 28  1  0
 28 29  1  0
 28  6  2  0
 26 12  2  0
 25 15  1  0
 23 18  2  0
M  END
>  <fragmenstein_outcome>  (821) 
too moved

>  <exports>  (821) 
['/opt/xchem-fragalysis-2/maxwin/openbind-hippo/xx01zvns2b/cycle_01/syndirella/elabs/openbind_xx01zvns2b_c1_elab_chemspace_filtered.sdf']

>  <Energy>  (821) 
107.872819

>  <alias>  (821) 
BHZQMFAAQYMVEG-UHFFFAOYSA-N-P29-P29-P84-601526

>  <fragmenstein_runtime>  (821) 
5.470366

>  <scratch_subdir>  (821) 
/opt/xchem-fragalysis-2/maxwin/BulkDock/SCRATCH/601526/BHZQMFAAQYMVEG-UHFFFAOYSA-N-P29-P29-P84-601526

>  <HIPPO Compound ID>  (821) 
141923

>  <rmsd(smina/fragmenstein)>  (821) 
1.658

>  <distance_score>  (821) 
1.780696

>  <orig_smiles>  (821) 
CCOC(=O)c1nc(NC(=O)c2ccn3cc(-c4cnn(C)c4)nc3c2)sc1C

>  <fragmenstein_mode>  (821) 
expansion

>  <inchikey>  (821) 
BHZQMFAAQYMVEG-UHFFFAOYSA-N

>  <ref_pdb>  (821) 
Z3093a

>  <GNINA pK>  (821) 
nan

>  <gnina_score_min>  (821) 
5.674

>  <tags>  (821) 
xx01zvns2b_c1_elab_bulkdock_input,openbind_xx01zvns2b_c1_elab_nonasap_filtered_scored_top80percent,openbind_xx01zvns2b_c1_elab_chemspace_filtered_scored_top80percent,fragmenstein_placed,openbind_xx01zvns2b_c1_elab_chemspace_filtered_scored,openbind_xx01zvns2b_c1_elab_chemspace_filtered_scored_top40percent,openbind_xx01zvns2b_c1_elab_chemspace_filtered_scored_top20percent,openbind_xx01zvns2b_c1_elab_chemspace_filtered_scored_top60percent,openbind_xx01zvns2b_c1_elabs_filtered

>  <smiles>  (821) 
CCOC(=O)c1nc(NC(=O)c2ccn3cc(-c4cnn(C)c4)nc3c2)sc1C

>  <subsites>  (821) 
1 - Z4590/B/203/1

>  <gnina_score>  (821) 
5.888

>  <HIPPO Pose ID>  (821) 
77090

>  <ref_mols>  (821) 
Z1495a,Z0673a

>  <energy_score>  (821) 
-27.946018

>  <inspiration_score>  (821) 
None

>  <smina_score_min>  (821) 
-5.411

>  <fragmenstein_error>  (821) 


>  <name>  (821) 
BHZQMFAAQYMVEG-UHFFFAOYSA-N-P29-P29-P84-601526

$$$$
DSAUVGXYBPDVLR-UHFFFAOYSA-N-P84-P29-P84-601526
     RDKit          3D

 29 32  0  0  0  0  0  0  0  0999 V2000
   -9.3390    4.2242  -17.6178 C   0  0  0  0  0  0  0  0  0  0  0  0
   -8.1773    4.3980  -18.5725 C   0  0  0  0  0  0  0  0  0  0  0  0
   -7.9243    5.7904  -18.8207 O   0  0  0  0  0  0  0  0  0  0  0  0
   -6.7064    6.3282  -18.5523 C   0  0  0  0  0  0  0  0  0  0  0  0
   -6.1673    7.1801  -19.2515 O   0  0  0  0  0  0  0  0  0  0  0  0
   -6.1491    5.8754  -17.3022 C   0  0  0  0  0  0  0  0  0  0  0  0
   -6.9595    5.8767  -16.1971 N   0  0  0  0  0  0  0  0  0  0  0  0
   -6.3141    5.3740  -15.1955 C   0  0  0  0  0  0  0  0  0  0  0  0
   -6.8537    5.2427  -13.9869 N   0  0  0  0  0  0  0  0  0  0  0  0
   -8.2331    5.6661  -13.4588 C   0  0  0  0  0  0  0  0  0  0  0  0
   -9.1446    6.1271  -14.0146 O   0  0  0  0  0  0  0  0  0  0  0  0
   -8.1729    5.4685  -12.0126 C   0  0  0  0  0  0  0  0  0  0  0  0
   -7.8793    6.6016  -11.1549 C   0  0  0  0  0  0  0  0  0  0  0  0
   -7.7368    6.3706   -9.8436 C   0  0  0  0  0  0  0  0  0  0  0  0
   -7.9013    5.0717   -9.3763 N   0  0  0  0  0  0  0  0  0  0  0  0
   -7.9228    4.6345   -8.0873 C   0  0  0  0  0  0  0  0  0  0  0  0
   -8.3864    3.3428   -8.1843 C   0  0  0  0  0  0  0  0  0  0  0  0
   -9.1408    2.6550   -7.1709 C   0  0  0  0  0  0  0  0  0  0  0  0
   -9.6776    1.3694   -7.2672 C   0  0  0  0  0  0  0  0  0  0  0  0
  -10.6152    1.1604   -6.3365 N   0  0  0  0  0  0  0  0  0  0  0  0
  -10.7050    2.3475   -5.7153 N   0  0  0  0  0  0  0  0  0  0  0  0
  -11.9028    2.7143   -5.0098 C   0  0  0  0  0  0  0  0  0  0  0  0
   -9.7291    3.2287   -6.0686 C   0  0  0  0  0  0  0  0  0  0  0  0
   -8.4042    2.8976   -9.4758 N   0  0  0  0  0  0  0  0  0  0  0  0
   -8.1878    3.9758  -10.1846 C   0  0  0  0  0  0  0  0  0  0  0  0
   -8.2951    4.2038  -11.5735 C   0  0  0  0  0  0  0  0  0  0  0  0
   -4.7107    4.9095  -15.4360 S   0  0  0  0  0  0  0  0  0  0  0  0
   -4.8905    5.3944  -17.0610 C   0  0  0  0  0  0  0  0  0  0  0  0
   -3.5327    5.2362  -18.3541 Br  0  0  0  0  0  0  0  0  0  0  0  0
  1  2  1  0
  2  3  1  0
  3  4  1  0
  4  5  2  0
  4  6  1  0
  6  7  1  0
  7  8  2  0
  8  9  1  0
  9 10  1  0
 10 11  2  0
 10 12  1  0
 12 13  1  0
 13 14  2  0
 14 15  1  0
 15 16  1  0
 16 17  2  0
 17 18  1  0
 18 19  1  0
 19 20  2  0
 20 21  1  0
 21 22  1  0
 21 23  1  0
 17 24  1  0
 24 25  2  0
 25 26  1  0
  8 27  1  0
 27 28  1  0
 28 29  1  0
 28  6  2  0
 26 12  2  0
 25 15  1  0
 23 18  2  0
M  END
>  <fragmenstein_outcome>  (822) 
too moved

>  <exports>  (822) 
['/opt/xchem-fragalysis-2/maxwin/openbind-hippo/xx01zvns2b/cycle_01/syndirella/elabs/openbind_xx01zvns2b_c1_elab_chemspace_filtered.sdf']

>  <Energy>  (822) 
64.72829

>  <alias>  (822) 
DSAUVGXYBPDVLR-UHFFFAOYSA-N-P84-P29-P84-601526

>  <fragmenstein_runtime>  (822) 
5.803925

>  <scratch_subdir>  (822) 
/opt/xchem-fragalysis-2/maxwin/BulkDock/SCRATCH/601526/DSAUVGXYBPDVLR-UHFFFAOYSA-N-P84-P29-P84-601526

>  <HIPPO Compound ID>  (822) 
141924

>  <rmsd(smina/fragmenstein)>  (822) 
0.564

>  <distance_score>  (822) 
1.472949

>  <orig_smiles>  (822) 
CCOC(=O)c1nc(NC(=O)c2ccn3cc(-c4cnn(C)c4)nc3c2)sc1Br

>  <fragmenstein_mode>  (822) 
expansion

>  <inchikey>  (822) 
DSAUVGXYBPDVLR-UHFFFAOYSA-N

>  <ref_pdb>  (822) 
Z3093a

>  <GNINA pK>  (822) 
nan

>  <gnina_score_min>  (822) 
5.837

>  <tags>  (822) 
xx01zvns2b_c1_elab_bulkdock_input,openbind_xx01zvns2b_c1_elab_nonasap_filtered_scored_top80percent,openbind_xx01zvns2b_c1_elab_chemspace_filtered_scored_top80percent,fragmenstein_placed,openbind_xx01zvns2b_c1_elab_chemspace_filtered_scored,openbind_xx01zvns2b_c1_elab_chemspace_filtered_scored_top40percent,openbind_xx01zvns2b_c1_elab_chemspace_filtered_scored_top20percent,openbind_xx01zvns2b_c1_elab_chemspace_filtered_scored_top60percent,openbind_xx01zvns2b_c1_elabs_filtered

>  <smiles>  (822) 
CCOC(=O)c1nc(NC(=O)c2ccn3cc(-c4cnn(C)c4)nc3c2)sc1Br

>  <subsites>  (822) 
1 - Z4590/B/203/1

>  <gnina_score>  (822) 
5.951

>  <HIPPO Pose ID>  (822) 
77093

>  <ref_mols>  (822) 
Z1495a,Z0673a

>  <energy_score>  (822) 
-45.193769

>  <inspiration_score>  (822) 
None

>  <smina_score_min>  (822) 
-6.001

>  <fragmenstein_error>  (822) 


>  <name>  (822) 
DSAUVGXYBPDVLR-UHFFFAOYSA-N-P84-P29-P84-601526

$$$$
JIWVFBQRMQSJFP-UHFFFAOYSA-N-P29-P29-P84-601526
     RDKit          3D

 30 33  0  0  0  0  0  0  0  0999 V2000
   -9.5887    3.9144  -18.1526 C   0  0  0  0  0  0  0  0  0  0  0  0
   -8.1779    4.4059  -17.9494 C   0  0  0  0  0  0  0  0  0  0  0  0
   -7.4175    4.2963  -19.1667 O   0  0  0  0  0  0  0  0  0  0  0  0
   -6.0970    4.6855  -19.2483 C   0  0  0  0  0  0  0  0  0  0  0  0
   -5.4879    4.5399  -20.3021 O   0  0  0  0  0  0  0  0  0  0  0  0
   -5.4148    5.1754  -18.0327 C   0  0  0  0  0  0  0  0  0  0  0  0
   -6.1359    5.6671  -16.9663 N   0  0  0  0  0  0  0  0  0  0  0  0
   -5.4134    5.6810  -15.8936 C   0  0  0  0  0  0  0  0  0  0  0  0
   -5.9595    5.7531  -14.6679 N   0  0  0  0  0  0  0  0  0  0  0  0
   -7.4367    5.8326  -14.2335 C   0  0  0  0  0  0  0  0  0  0  0  0
   -8.4074    5.9255  -14.8707 O   0  0  0  0  0  0  0  0  0  0  0  0
   -7.4945    5.6982  -12.7638 C   0  0  0  0  0  0  0  0  0  0  0  0
   -7.3602    6.8693  -11.9132 C   0  0  0  0  0  0  0  0  0  0  0  0
   -7.5161    6.7153  -10.5896 C   0  0  0  0  0  0  0  0  0  0  0  0
   -7.7880    5.4477  -10.0881 N   0  0  0  0  0  0  0  0  0  0  0  0
   -8.0106    5.0738   -8.7980 C   0  0  0  0  0  0  0  0  0  0  0  0
   -8.3107    3.7356   -8.8722 C   0  0  0  0  0  0  0  0  0  0  0  0
   -8.8795    2.9356   -7.8244 C   0  0  0  0  0  0  0  0  0  0  0  0
   -9.0704    1.5563   -7.8522 C   0  0  0  0  0  0  0  0  0  0  0  0
   -9.8193    1.1396   -6.8321 N   0  0  0  0  0  0  0  0  0  0  0  0
  -10.0657    2.2638   -6.1551 N   0  0  0  0  0  0  0  0  0  0  0  0
  -10.9429    2.2164   -5.0290 C   0  0  0  0  0  0  0  0  0  0  0  0
   -9.4587    3.3678   -6.6574 C   0  0  0  0  0  0  0  0  0  0  0  0
   -8.1868    3.2530  -10.1473 N   0  0  0  0  0  0  0  0  0  0  0  0
   -7.9138    4.3082  -10.8763 C   0  0  0  0  0  0  0  0  0  0  0  0
   -7.7717    4.4703  -12.2794 C   0  0  0  0  0  0  0  0  0  0  0  0
   -3.7529    5.4922  -16.1124 S   0  0  0  0  0  0  0  0  0  0  0  0
   -4.0389    5.2139  -17.8002 C   0  0  0  0  0  0  0  0  0  0  0  0
   -2.8901    4.9799  -18.7283 C   0  0  0  0  0  0  0  0  0  0  0  0
   -2.5807    6.2168  -19.5586 C   0  0  0  0  0  0  0  0  0  0  0  0
  1  2  1  0
  2  3  1  0
  3  4  1  0
  4  5  2  0
  4  6  1  0
  6  7  1  0
  7  8  2  0
  8  9  1  0
  9 10  1  0
 10 11  2  0
 10 12  1  0
 12 13  1  0
 13 14  2  0
 14 15  1  0
 15 16  1  0
 16 17  2  0
 17 18  1  0
 18 19  1  0
 19 20  2  0
 20 21  1  0
 21 22  1  0
 21 23  1  0
 17 24  1  0
 24 25  2  0
 25 26  1  0
  8 27  1  0
 27 28  1  0
 28 29  1  0
 29 30  1  0
 28  6  2  0
 26 12  2  0
 25 15  1  0
 23 18  2  0
M  END
>  <fragmenstein_outcome>  (823) 
too moved

>  <exports>  (823) 
['/opt/xchem-fragalysis-2/maxwin/openbind-hippo/xx01zvns2b/cycle_01/syndirella/elabs/openbind_xx01zvns2b_c1_elab_chemspace_filtered.sdf']

>  <Energy>  (823) 
57.825496

>  <alias>  (823) 
JIWVFBQRMQSJFP-UHFFFAOYSA-N-P29-P29-P84-601526

>  <fragmenstein_runtime>  (823) 
6.384622

>  <scratch_subdir>  (823) 
/opt/xchem-fragalysis-2/maxwin/BulkDock/SCRATCH/601526/JIWVFBQRMQSJFP-UHFFFAOYSA-N-P29-P29-P84-601526

>  <HIPPO Compound ID>  (823) 
141926

>  <rmsd(smina/fragmenstein)>  (823) 
0.782

>  <distance_score>  (823) 
1.509779

>  <orig_smiles>  (823) 
CCOC(=O)c1nc(NC(=O)c2ccn3cc(-c4cnn(C)c4)nc3c2)sc1CC

>  <fragmenstein_mode>  (823) 
expansion

>  <inchikey>  (823) 
JIWVFBQRMQSJFP-UHFFFAOYSA-N

>  <ref_pdb>  (823) 
Z3093a

>  <GNINA pK>  (823) 
nan

>  <gnina_score_min>  (823) 
5.446

>  <tags>  (823) 
xx01zvns2b_c1_elab_bulkdock_input,openbind_xx01zvns2b_c1_elab_nonasap_filtered_scored_top80percent,openbind_xx01zvns2b_c1_elab_chemspace_filtered_scored_top80percent,fragmenstein_placed,openbind_xx01zvns2b_c1_elab_chemspace_filtered_scored,openbind_xx01zvns2b_c1_elab_chemspace_filtered_scored_top40percent,openbind_xx01zvns2b_c1_elab_chemspace_filtered_scored_top20percent,openbind_xx01zvns2b_c1_elab_chemspace_filtered_scored_top60percent,openbind_xx01zvns2b_c1_elabs_filtered

>  <smiles>  (823) 
CCOC(=O)c1nc(NC(=O)c2ccn3cc(-c4cnn(C)c4)nc3c2)sc1CC

>  <subsites>  (823) 
1 - Z4590/B/203/1

>  <gnina_score>  (823) 
5.57

>  <HIPPO Pose ID>  (823) 
77096

>  <ref_mols>  (823) 
Z1495a,Z0673a

>  <energy_score>  (823) 
-63.050579

>  <inspiration_score>  (823) 
None

>  <smina_score_min>  (823) 
-6.171

>  <fragmenstein_error>  (823) 


>  <name>  (823) 
JIWVFBQRMQSJFP-UHFFFAOYSA-N-P29-P29-P84-601526

$$$$
YEROUSOGYPTTST-UHFFFAOYSA-N-P84-P29-P84-601526
     RDKit          3D

 30 33  0  0  0  0  0  0  0  0999 V2000
   -9.4681    3.7570  -17.6597 C   0  0  0  0  0  0  0  0  0  0  0  0
   -8.6662    4.5596  -18.6554 C   0  0  0  0  0  0  0  0  0  0  0  0
   -7.4447    3.8929  -19.0156 O   0  0  0  0  0  0  0  0  0  0  0  0
   -6.2434    4.4008  -18.6057 C   0  0  0  0  0  0  0  0  0  0  0  0
   -5.2275    4.3085  -19.2862 O   0  0  0  0  0  0  0  0  0  0  0  0
   -6.2067    5.0610  -17.3091 C   0  0  0  0  0  0  0  0  0  0  0  0
   -6.8783    4.5687  -16.1995 N   0  0  0  0  0  0  0  0  0  0  0  0
   -6.8309    5.4557  -15.2513 C   0  0  0  0  0  0  0  0  0  0  0  0
   -7.3246    5.3213  -14.0137 N   0  0  0  0  0  0  0  0  0  0  0  0
   -7.6421    6.3809  -12.9430 C   0  0  0  0  0  0  0  0  0  0  0  0
   -7.5972    7.5460  -12.9947 O   0  0  0  0  0  0  0  0  0  0  0  0
   -7.9593    5.7219  -11.6262 C   0  0  0  0  0  0  0  0  0  0  0  0
   -7.7365    6.5706  -10.4472 C   0  0  0  0  0  0  0  0  0  0  0  0
   -7.8846    6.0585   -9.2200 C   0  0  0  0  0  0  0  0  0  0  0  0
   -8.2608    4.7329   -9.0951 N   0  0  0  0  0  0  0  0  0  0  0  0
   -8.4453    3.9970   -7.9625 C   0  0  0  0  0  0  0  0  0  0  0  0
   -8.8149    2.7447   -8.4000 C   0  0  0  0  0  0  0  0  0  0  0  0
   -9.1171    1.5560   -7.5866 C   0  0  0  0  0  0  0  0  0  0  0  0
   -8.8684    2.7030   -9.7715 N   0  0  0  0  0  0  0  0  0  0  0  0
   -8.5235    3.9025  -10.1719 C   0  0  0  0  0  0  0  0  0  0  0  0
   -8.3818    4.4459  -11.4775 C   0  0  0  0  0  0  0  0  0  0  0  0
   -5.9346    6.8504  -15.5564 S   0  0  0  0  0  0  0  0  0  0  0  0
   -5.4701    6.2020  -17.0535 C   0  0  0  0  0  0  0  0  0  0  0  0
   -4.4859    6.9204  -17.8843 C   0  0  0  0  0  0  0  0  0  0  0  0
   -3.0727    6.4281  -17.7016 C   0  0  0  0  0  0  0  0  0  0  0  0
   -2.4825    5.6356  -18.6928 C   0  0  0  0  0  0  0  0  0  0  0  0
   -1.1475    5.2617  -18.5981 C   0  0  0  0  0  0  0  0  0  0  0  0
   -0.3881    5.6810  -17.5093 C   0  0  0  0  0  0  0  0  0  0  0  0
   -0.9728    6.4295  -16.4905 C   0  0  0  0  0  0  0  0  0  0  0  0
   -2.3141    6.7963  -16.5814 C   0  0  0  0  0  0  0  0  0  0  0  0
  1  2  1  0
  2  3  1  0
  3  4  1  0
  4  5  2  0
  4  6  1  0
  6  7  1  0
  7  8  2  0
  8  9  1  0
  9 10  1  0
 10 11  2  0
 10 12  1  0
 12 13  1  0
 13 14  2  0
 14 15  1  0
 15 16  1  0
 16 17  2  0
 17 18  1  0
 17 19  1  0
 19 20  2  0
 20 21  1  0
  8 22  1  0
 22 23  1  0
 23 24  1  0
 24 25  1  0
 25 26  2  0
 26 27  1  0
 27 28  2  0
 28 29  1  0
 29 30  2  0
 23  6  2  0
 30 25  1  0
 21 12  2  0
 20 15  1  0
M  END
>  <fragmenstein_outcome>  (824) 
too moved

>  <exports>  (824) 
['/opt/xchem-fragalysis-2/maxwin/openbind-hippo/xx01zvns2b/cycle_01/syndirella/elabs/openbind_xx01zvns2b_c1_elab_chemspace_filtered.sdf']

>  <Energy>  (824) 
79.497444

>  <alias>  (824) 
YEROUSOGYPTTST-UHFFFAOYSA-N-P84-P29-P84-601526

>  <fragmenstein_runtime>  (824) 
5.747246

>  <scratch_subdir>  (824) 
/opt/xchem-fragalysis-2/maxwin/BulkDock/SCRATCH/601526/YEROUSOGYPTTST-UHFFFAOYSA-N-P84-P29-P84-601526

>  <HIPPO Compound ID>  (824) 
141929

>  <rmsd(smina/fragmenstein)>  (824) 
1.714

>  <distance_score>  (824) 
1.578796

>  <orig_smiles>  (824) 
CCOC(=O)c1nc(NC(=O)c2ccn3cc(C)nc3c2)sc1Cc1ccccc1

>  <fragmenstein_mode>  (824) 
expansion

>  <inchikey>  (824) 
YEROUSOGYPTTST-UHFFFAOYSA-N

>  <ref_pdb>  (824) 
Z3093a

>  <GNINA pK>  (824) 
nan

>  <gnina_score_min>  (824) 
5.548

>  <tags>  (824) 
xx01zvns2b_c1_elab_bulkdock_input,openbind_xx01zvns2b_c1_elab_nonasap_filtered_scored_top80percent,openbind_xx01zvns2b_c1_elab_chemspace_filtered_scored_top80percent,fragmenstein_placed,openbind_xx01zvns2b_c1_elab_chemspace_filtered_scored,openbind_xx01zvns2b_c1_elab_chemspace_filtered_scored_top40percent,openbind_xx01zvns2b_c1_elab_chemspace_filtered_scored_top20percent,openbind_xx01zvns2b_c1_elab_chemspace_filtered_scored_top60percent,openbind_xx01zvns2b_c1_elabs_filtered

>  <smiles>  (824) 
CCOC(=O)c1nc(NC(=O)c2ccn3cc(C)nc3c2)sc1Cc1ccccc1

>  <subsites>  (824) 
1 - Z4590/B/203/1

>  <gnina_score>  (824) 
5.912

>  <HIPPO Pose ID>  (824) 
77103

>  <ref_mols>  (824) 
Z1495a,Z0673a

>  <energy_score>  (824) 
-24.744673

>  <inspiration_score>  (824) 
None

>  <smina_score_min>  (824) 
-7.017

>  <fragmenstein_error>  (824) 


>  <name>  (824) 
YEROUSOGYPTTST-UHFFFAOYSA-N-P84-P29-P84-601526

$$$$
AJRALRLBZHYVHD-UHFFFAOYSA-N-P29-P29-P84-601526
     RDKit          3D

 30 33  0  0  0  0  0  0  0  0999 V2000
   -9.5146    4.0571  -17.8559 C   0  0  0  0  0  0  0  0  0  0  0  0
   -8.3403    4.2988  -18.7806 C   0  0  0  0  0  0  0  0  0  0  0  0
   -8.0989    5.7030  -18.9393 O   0  0  0  0  0  0  0  0  0  0  0  0
   -6.9613    6.2784  -18.4756 C   0  0  0  0  0  0  0  0  0  0  0  0
   -6.4021    7.2207  -19.0309 O   0  0  0  0  0  0  0  0  0  0  0  0
   -6.5061    5.7595  -17.2021 C   0  0  0  0  0  0  0  0  0  0  0  0
   -7.3548    5.7312  -16.1157 N   0  0  0  0  0  0  0  0  0  0  0  0
   -6.7380    5.1600  -15.1277 C   0  0  0  0  0  0  0  0  0  0  0  0
   -7.2018    5.0171  -13.8857 N   0  0  0  0  0  0  0  0  0  0  0  0
   -8.5509    5.4142  -13.2743 C   0  0  0  0  0  0  0  0  0  0  0  0
   -9.5031    5.8595  -13.7721 O   0  0  0  0  0  0  0  0  0  0  0  0
   -8.4184    5.1767  -11.8261 C   0  0  0  0  0  0  0  0  0  0  0  0
   -8.5993    3.8998  -11.4383 C   0  0  0  0  0  0  0  0  0  0  0  0
   -8.5100    3.5913  -10.0615 C   0  0  0  0  0  0  0  0  0  0  0  0
   -8.6891    2.4649   -9.4209 N   0  0  0  0  0  0  0  0  0  0  0  0
   -8.4514    2.7473   -8.1047 C   0  0  0  0  0  0  0  0  0  0  0  0
   -8.1599    4.0818   -7.9346 C   0  0  0  0  0  0  0  0  0  0  0  0
   -8.2006    4.6253   -9.1896 N   0  0  0  0  0  0  0  0  0  0  0  0
   -7.9833    5.9390   -9.5916 C   0  0  0  0  0  0  0  0  0  0  0  0
   -8.0853    6.2506  -10.8954 C   0  0  0  0  0  0  0  0  0  0  0  0
   -7.7968    7.9898  -11.5005 Br  0  0  0  0  0  0  0  0  0  0  0  0
   -5.1815    4.5784  -15.3995 S   0  0  0  0  0  0  0  0  0  0  0  0
   -5.2599    5.2115  -16.9838 C   0  0  0  0  0  0  0  0  0  0  0  0
   -4.1948    4.9945  -17.9798 C   0  0  0  0  0  0  0  0  0  0  0  0
   -2.8257    5.5541  -17.7247 C   0  0  0  0  0  0  0  0  0  0  0  0
   -2.4746    6.4165  -16.6811 C   0  0  0  0  0  0  0  0  0  0  0  0
   -1.1575    6.8601  -16.5531 C   0  0  0  0  0  0  0  0  0  0  0  0
   -0.1912    6.4585  -17.4739 C   0  0  0  0  0  0  0  0  0  0  0  0
   -0.5373    5.6277  -18.5332 C   0  0  0  0  0  0  0  0  0  0  0  0
   -1.8445    5.1787  -18.6559 C   0  0  0  0  0  0  0  0  0  0  0  0
  1  2  1  0
  2  3  1  0
  3  4  1  0
  4  5  2  0
  4  6  1  0
  6  7  1  0
  7  8  2  0
  8  9  1  0
  9 10  1  0
 10 11  2  0
 10 12  1  0
 12 13  2  0
 13 14  1  0
 14 15  2  0
 15 16  1  0
 16 17  2  0
 17 18  1  0
 18 19  1  0
 19 20  2  0
 20 21  1  0
  8 22  1  0
 22 23  1  0
 23 24  1  0
 24 25  1  0
 25 26  2  0
 26 27  1  0
 27 28  2  0
 28 29  1  0
 29 30  2  0
 23  6  2  0
 30 25  1  0
 20 12  1  0
 18 14  1  0
M  END
>  <fragmenstein_outcome>  (825) 
too moved

>  <exports>  (825) 
['/opt/xchem-fragalysis-2/maxwin/openbind-hippo/xx01zvns2b/cycle_01/syndirella/elabs/openbind_xx01zvns2b_c1_elab_chemspace_filtered.sdf']

>  <Energy>  (825) 
65.063645

>  <alias>  (825) 
AJRALRLBZHYVHD-UHFFFAOYSA-N-P29-P29-P84-601526

>  <fragmenstein_runtime>  (825) 
3.735051

>  <scratch_subdir>  (825) 
/opt/xchem-fragalysis-2/maxwin/BulkDock/SCRATCH/601526/AJRALRLBZHYVHD-UHFFFAOYSA-N-P29-P29-P84-601526

>  <HIPPO Compound ID>  (825) 
141932

>  <rmsd(smina/fragmenstein)>  (825) 
1.569

>  <distance_score>  (825) 
1.464218

>  <orig_smiles>  (825) 
CCOC(=O)c1nc(NC(=O)c2cc3nccn3cc2Br)sc1Cc1ccccc1

>  <fragmenstein_mode>  (825) 
expansion

>  <inchikey>  (825) 
AJRALRLBZHYVHD-UHFFFAOYSA-N

>  <ref_pdb>  (825) 
Z3093a

>  <GNINA pK>  (825) 
nan

>  <gnina_score_min>  (825) 
5.656

>  <tags>  (825) 
xx01zvns2b_c1_elab_bulkdock_input,openbind_xx01zvns2b_c1_elab_nonasap_filtered_scored_top80percent,openbind_xx01zvns2b_c1_elab_chemspace_filtered_scored_top80percent,fragmenstein_placed,openbind_xx01zvns2b_c1_elab_chemspace_filtered_scored,openbind_xx01zvns2b_c1_elab_chemspace_filtered_scored_top40percent,openbind_xx01zvns2b_c1_elab_chemspace_filtered_scored_top20percent,openbind_xx01zvns2b_c1_elab_chemspace_filtered_scored_top60percent,openbind_xx01zvns2b_c1_elabs_filtered

>  <smiles>  (825) 
CCOC(=O)c1nc(NC(=O)c2cc3nccn3cc2Br)sc1Cc1ccccc1

>  <subsites>  (825) 
1 - Z4590/B/203/1

>  <gnina_score>  (825) 
6.232

>  <HIPPO Pose ID>  (825) 
77108

>  <ref_mols>  (825) 
Z1495a,Z0673a

>  <energy_score>  (825) 
-76.36742

>  <inspiration_score>  (825) 
None

>  <smina_score_min>  (825) 
-6.066

>  <fragmenstein_error>  (825) 


>  <name>  (825) 
AJRALRLBZHYVHD-UHFFFAOYSA-N-P29-P29-P84-601526

$$$$
ZWMKNXWDQLYGSI-UHFFFAOYSA-N-P84-P29-P84-601526
     RDKit          3D

 30 33  0  0  0  0  0  0  0  0999 V2000
   -9.3935    4.2382  -17.6472 C   0  0  0  0  0  0  0  0  0  0  0  0
   -8.1748    4.4055  -18.5272 C   0  0  0  0  0  0  0  0  0  0  0  0
   -7.8660    5.7930  -18.7275 O   0  0  0  0  0  0  0  0  0  0  0  0
   -6.7040    6.3092  -18.2563 C   0  0  0  0  0  0  0  0  0  0  0  0
   -6.0578    7.1601  -18.8601 O   0  0  0  0  0  0  0  0  0  0  0  0
   -6.3463    5.8463  -16.9298 C   0  0  0  0  0  0  0  0  0  0  0  0
   -7.2282    6.0049  -15.8731 N   0  0  0  0  0  0  0  0  0  0  0  0
   -6.7196    5.4230  -14.8302 C   0  0  0  0  0  0  0  0  0  0  0  0
   -7.2051    5.3495  -13.5932 N   0  0  0  0  0  0  0  0  0  0  0  0
   -8.5032    5.9042  -12.9990 C   0  0  0  0  0  0  0  0  0  0  0  0
   -9.3211    6.5795  -13.4733 O   0  0  0  0  0  0  0  0  0  0  0  0
   -8.4822    5.4789  -11.5854 C   0  0  0  0  0  0  0  0  0  0  0  0
   -8.3047    6.4600  -10.5342 C   0  0  0  0  0  0  0  0  0  0  0  0
   -8.2071    6.0348   -9.2606 C   0  0  0  0  0  0  0  0  0  0  0  0
   -7.9794    7.2480   -7.8573 Br  0  0  0  0  0  0  0  0  0  0  0  0
   -8.2963    4.6544   -9.0068 N   0  0  0  0  0  0  0  0  0  0  0  0
   -8.2466    3.9467   -7.8296 C   0  0  0  0  0  0  0  0  0  0  0  0
   -8.3892    2.6237   -8.1782 C   0  0  0  0  0  0  0  0  0  0  0  0
   -8.5381    2.4909   -9.5272 N   0  0  0  0  0  0  0  0  0  0  0  0
   -8.4717    3.7045  -10.0100 C   0  0  0  0  0  0  0  0  0  0  0  0
   -8.5520    4.1563  -11.3457 C   0  0  0  0  0  0  0  0  0  0  0  0
   -5.2539    4.6191  -15.0050 S   0  0  0  0  0  0  0  0  0  0  0  0
   -5.2072    5.1271  -16.6284 C   0  0  0  0  0  0  0  0  0  0  0  0
   -4.1343    4.6421  -17.5065 C   0  0  0  0  0  0  0  0  0  0  0  0
   -2.9136    5.5046  -17.5901 C   0  0  0  0  0  0  0  0  0  0  0  0
   -2.5499    6.0315  -18.8311 C   0  0  0  0  0  0  0  0  0  0  0  0
   -1.3210    6.6605  -18.9836 C   0  0  0  0  0  0  0  0  0  0  0  0
   -0.4637    6.7988  -17.8939 C   0  0  0  0  0  0  0  0  0  0  0  0
   -0.8402    6.3273  -16.6410 C   0  0  0  0  0  0  0  0  0  0  0  0
   -2.0612    5.6763  -16.4887 C   0  0  0  0  0  0  0  0  0  0  0  0
  1  2  1  0
  2  3  1  0
  3  4  1  0
  4  5  2  0
  4  6  1  0
  6  7  1  0
  7  8  2  0
  8  9  1  0
  9 10  1  0
 10 11  2  0
 10 12  1  0
 12 13  1  0
 13 14  2  0
 14 15  1  0
 14 16  1  0
 16 17  1  0
 17 18  2  0
 18 19  1  0
 19 20  2  0
 20 21  1  0
  8 22  1  0
 22 23  1  0
 23 24  1  0
 24 25  1  0
 25 26  2  0
 26 27  1  0
 27 28  2  0
 28 29  1  0
 29 30  2  0
 23  6  2  0
 30 25  1  0
 21 12  2  0
 20 16  1  0
M  END
>  <fragmenstein_outcome>  (826) 
too moved

>  <exports>  (826) 
['/opt/xchem-fragalysis-2/maxwin/openbind-hippo/xx01zvns2b/cycle_01/syndirella/elabs/openbind_xx01zvns2b_c1_elab_chemspace_filtered.sdf']

>  <Energy>  (826) 
77.575984

>  <alias>  (826) 
ZWMKNXWDQLYGSI-UHFFFAOYSA-N-P84-P29-P84-601526

>  <fragmenstein_runtime>  (826) 
4.025516

>  <scratch_subdir>  (826) 
/opt/xchem-fragalysis-2/maxwin/BulkDock/SCRATCH/601526/ZWMKNXWDQLYGSI-UHFFFAOYSA-N-P84-P29-P84-601526

>  <HIPPO Compound ID>  (826) 
141933

>  <rmsd(smina/fragmenstein)>  (826) 
1.555

>  <distance_score>  (826) 
1.489503

>  <orig_smiles>  (826) 
CCOC(=O)c1nc(NC(=O)c2cc(Br)n3ccnc3c2)sc1Cc1ccccc1

>  <fragmenstein_mode>  (826) 
expansion

>  <inchikey>  (826) 
ZWMKNXWDQLYGSI-UHFFFAOYSA-N

>  <ref_pdb>  (826) 
Z3093a

>  <GNINA pK>  (826) 
nan

>  <gnina_score_min>  (826) 
5.423

>  <tags>  (826) 
xx01zvns2b_c1_elab_bulkdock_input,openbind_xx01zvns2b_c1_elab_nonasap_filtered_scored_top80percent,openbind_xx01zvns2b_c1_elab_chemspace_filtered_scored_top80percent,fragmenstein_placed,openbind_xx01zvns2b_c1_elab_chemspace_filtered_scored,openbind_xx01zvns2b_c1_elab_chemspace_filtered_scored_top40percent,openbind_xx01zvns2b_c1_elab_chemspace_filtered_scored_top20percent,openbind_xx01zvns2b_c1_elab_chemspace_filtered_scored_top60percent,openbind_xx01zvns2b_c1_elabs_filtered

>  <smiles>  (826) 
CCOC(=O)c1nc(NC(=O)c2cc(Br)n3ccnc3c2)sc1Cc1ccccc1

>  <subsites>  (826) 
1 - Z4590/B/203/1

>  <gnina_score>  (826) 
6.204

>  <HIPPO Pose ID>  (826) 
77111

>  <ref_mols>  (826) 
Z1495a,Z0673a

>  <energy_score>  (826) 
-23.031856

>  <inspiration_score>  (826) 
None

>  <smina_score_min>  (826) 
-5.918

>  <fragmenstein_error>  (826) 


>  <name>  (826) 
ZWMKNXWDQLYGSI-UHFFFAOYSA-N-P84-P29-P84-601526

$$$$
DOXQJTOVLPIJRZ-UHFFFAOYSA-N-P84-P29-P84-601526
     RDKit          3D

 30 32  0  0  0  0  0  0  0  0999 V2000
   -9.6088    4.4670  -18.4753 C   0  0  0  0  0  0  0  0  0  0  0  0
   -8.2785    4.6199  -17.7926 C   0  0  0  0  0  0  0  0  0  0  0  0
   -7.4615    5.6505  -18.3908 O   0  0  0  0  0  0  0  0  0  0  0  0
   -6.1430    5.8375  -18.0387 C   0  0  0  0  0  0  0  0  0  0  0  0
   -5.4472    6.6558  -18.6344 O   0  0  0  0  0  0  0  0  0  0  0  0
   -5.6134    5.1098  -16.8705 C   0  0  0  0  0  0  0  0  0  0  0  0
   -6.4565    4.3839  -16.0727 N   0  0  0  0  0  0  0  0  0  0  0  0
   -5.9119    4.1560  -14.9246 C   0  0  0  0  0  0  0  0  0  0  0  0
   -6.5947    4.1699  -13.7782 N   0  0  0  0  0  0  0  0  0  0  0  0
   -8.0330    4.6339  -13.4758 C   0  0  0  0  0  0  0  0  0  0  0  0
   -8.8733    5.0046  -14.1919 O   0  0  0  0  0  0  0  0  0  0  0  0
   -8.1731    4.6336  -12.0174 C   0  0  0  0  0  0  0  0  0  0  0  0
   -7.9982    5.8572  -11.2487 C   0  0  0  0  0  0  0  0  0  0  0  0
   -8.0888    5.7763   -9.9111 C   0  0  0  0  0  0  0  0  0  0  0  0
   -8.3621    4.5374   -9.3329 N   0  0  0  0  0  0  0  0  0  0  0  0
   -8.5114    4.2038   -8.0162 C   0  0  0  0  0  0  0  0  0  0  0  0
   -8.8284    2.8525   -8.0007 C   0  0  0  0  0  0  0  0  0  0  0  0
   -9.1176    1.9812   -6.8245 C   0  0  0  0  0  0  0  0  0  0  0  0
   -8.0098    1.3297   -6.4040 F   0  0  0  0  0  0  0  0  0  0  0  0
   -9.5546    2.7348   -5.7727 F   0  0  0  0  0  0  0  0  0  0  0  0
  -10.0800    1.0505   -7.0524 F   0  0  0  0  0  0  0  0  0  0  0  0
   -8.8408    2.3598   -9.2863 N   0  0  0  0  0  0  0  0  0  0  0  0
   -8.5506    3.3706  -10.0596 C   0  0  0  0  0  0  0  0  0  0  0  0
   -8.4282    3.4401  -11.4617 C   0  0  0  0  0  0  0  0  0  0  0  0
   -4.2324    4.2287  -14.8945 S   0  0  0  0  0  0  0  0  0  0  0  0
   -4.3520    5.2265  -16.3022 C   0  0  0  0  0  0  0  0  0  0  0  0
   -3.3145    6.2203  -16.5579 C   0  0  0  0  0  0  0  0  0  0  0  0
   -2.1955    6.0112  -15.8147 F   0  0  0  0  0  0  0  0  0  0  0  0
   -2.9129    6.2817  -17.8470 F   0  0  0  0  0  0  0  0  0  0  0  0
   -3.7911    7.4309  -16.1856 F   0  0  0  0  0  0  0  0  0  0  0  0
  1  2  1  0
  2  3  1  0
  3  4  1  0
  4  5  2  0
  4  6  1  0
  6  7  1  0
  7  8  2  0
  8  9  1  0
  9 10  1  0
 10 11  2  0
 10 12  1  0
 12 13  1  0
 13 14  2  0
 14 15  1  0
 15 16  1  0
 16 17  2  0
 17 18  1  0
 18 19  1  0
 18 20  1  0
 18 21  1  0
 17 22  1  0
 22 23  2  0
 23 24  1  0
  8 25  1  0
 25 26  1  0
 26 27  1  0
 27 28  1  0
 27 29  1  0
 27 30  1  0
 26  6  2  0
 24 12  2  0
 23 15  1  0
M  END
>  <fragmenstein_outcome>  (827) 
too moved

>  <exports>  (827) 
['/opt/xchem-fragalysis-2/maxwin/openbind-hippo/xx01zvns2b/cycle_01/syndirella/elabs/openbind_xx01zvns2b_c1_elab_chemspace_filtered.sdf']

>  <Energy>  (827) 
107.753156

>  <alias>  (827) 
DOXQJTOVLPIJRZ-UHFFFAOYSA-N-P84-P29-P84-601526

>  <fragmenstein_runtime>  (827) 
4.34855

>  <scratch_subdir>  (827) 
/opt/xchem-fragalysis-2/maxwin/BulkDock/SCRATCH/601526/DOXQJTOVLPIJRZ-UHFFFAOYSA-N-P84-P29-P84-601526

>  <HIPPO Compound ID>  (827) 
141934

>  <rmsd(smina/fragmenstein)>  (827) 
1.506

>  <distance_score>  (827) 
1.390413

>  <orig_smiles>  (827) 
CCOC(=O)c1nc(NC(=O)c2ccn3cc(C(F)(F)F)nc3c2)sc1C(F)(F)F

>  <fragmenstein_mode>  (827) 
expansion

>  <inchikey>  (827) 
DOXQJTOVLPIJRZ-UHFFFAOYSA-N

>  <ref_pdb>  (827) 
Z3093a

>  <GNINA pK>  (827) 
nan

>  <gnina_score_min>  (827) 
5.361

>  <tags>  (827) 
xx01zvns2b_c1_elab_bulkdock_input,openbind_xx01zvns2b_c1_elab_nonasap_filtered_scored_top80percent,openbind_xx01zvns2b_c1_elab_chemspace_filtered_scored_top80percent,fragmenstein_placed,openbind_xx01zvns2b_c1_elab_chemspace_filtered_scored,openbind_xx01zvns2b_c1_elab_chemspace_filtered_scored_top40percent,openbind_xx01zvns2b_c1_elab_chemspace_filtered_scored_top20percent,openbind_xx01zvns2b_c1_elab_chemspace_filtered_scored_top60percent,openbind_xx01zvns2b_c1_elabs_filtered

>  <smiles>  (827) 
CCOC(=O)c1nc(NC(=O)c2ccn3cc(C(F)(F)F)nc3c2)sc1C(F)(F)F

>  <subsites>  (827) 
1 - Z4590/B/203/1

>  <gnina_score>  (827) 
5.469

>  <HIPPO Pose ID>  (827) 
77113

>  <ref_mols>  (827) 
Z1495a,Z0673a

>  <energy_score>  (827) 
-17.155566

>  <inspiration_score>  (827) 
None

>  <smina_score_min>  (827) 
-6.048

>  <fragmenstein_error>  (827) 


>  <name>  (827) 
DOXQJTOVLPIJRZ-UHFFFAOYSA-N-P84-P29-P84-601526

$$$$
ZJCZNIXTNNUWKP-UHFFFAOYSA-N-P84-P29-P84-601526
     RDKit          3D

 31 34  0  0  0  0  0  0  0  0999 V2000
  -10.7003    4.5663  -17.8979 C   0  0  0  0  0  0  0  0  0  0  0  0
   -9.4038    4.2320  -17.2153 C   0  0  0  0  0  0  0  0  0  0  0  0
   -8.5927    3.5741  -18.1940 O   0  0  0  0  0  0  0  0  0  0  0  0
   -7.4229    4.1393  -18.6237 C   0  0  0  0  0  0  0  0  0  0  0  0
   -6.9742    3.8476  -19.7219 O   0  0  0  0  0  0  0  0  0  0  0  0
   -6.7187    4.9965  -17.6738 C   0  0  0  0  0  0  0  0  0  0  0  0
   -6.6681    4.6099  -16.3431 N   0  0  0  0  0  0  0  0  0  0  0  0
   -6.1122    5.5348  -15.6003 C   0  0  0  0  0  0  0  0  0  0  0  0
   -6.1985    5.4654  -14.1893 N   0  0  0  0  0  0  0  0  0  0  0  0
   -4.8954    4.4991  -14.4016 C   0  0  0  0  0  0  0  0  0  0  0  0
   -3.5767    5.0501  -14.9627 C   0  0  0  0  0  0  0  0  0  0  0  0
   -3.1720    4.7019  -16.2657 C   0  0  0  0  0  0  0  0  0  0  0  0
   -2.0413    5.2803  -16.8422 C   0  0  0  0  0  0  0  0  0  0  0  0
   -1.2692    6.1744  -16.1065 C   0  0  0  0  0  0  0  0  0  0  0  0
   -1.6341    6.4968  -14.8000 C   0  0  0  0  0  0  0  0  0  0  0  0
   -2.7823    5.9408  -14.2306 C   0  0  0  0  0  0  0  0  0  0  0  0
   -5.9348    6.4372  -13.1962 C   0  0  0  0  0  0  0  0  0  0  0  0
   -5.4828    7.5488  -13.2877 O   0  0  0  0  0  0  0  0  0  0  0  0
   -6.4316    5.9120  -11.8552 C   0  0  0  0  0  0  0  0  0  0  0  0
   -5.9894    6.5588  -10.6196 C   0  0  0  0  0  0  0  0  0  0  0  0
   -6.3997    6.0913   -9.4216 C   0  0  0  0  0  0  0  0  0  0  0  0
   -5.8283    6.8945   -7.8328 Br  0  0  0  0  0  0  0  0  0  0  0  0
   -7.2653    4.9854   -9.3901 N   0  0  0  0  0  0  0  0  0  0  0  0
   -7.8074    4.2776   -8.3409 C   0  0  0  0  0  0  0  0  0  0  0  0
   -8.5645    3.2797   -8.9103 C   0  0  0  0  0  0  0  0  0  0  0  0
   -8.5424    3.3718  -10.2741 N   0  0  0  0  0  0  0  0  0  0  0  0
   -7.7432    4.3759  -10.5445 C   0  0  0  0  0  0  0  0  0  0  0  0
   -7.3078    4.8818  -11.7965 C   0  0  0  0  0  0  0  0  0  0  0  0
   -5.7303    6.9828  -16.4340 S   0  0  0  0  0  0  0  0  0  0  0  0
   -6.0695    6.1924  -17.9346 C   0  0  0  0  0  0  0  0  0  0  0  0
   -5.7587    6.8651  -19.2203 C   0  0  0  0  0  0  0  0  0  0  0  0
  1  2  1  0
  2  3  1  0
  3  4  1  0
  4  5  2  0
  4  6  1  0
  6  7  1  0
  7  8  2  0
  8  9  1  0
  9 10  1  0
 10 11  1  0
 11 12  2  0
 12 13  1  0
 13 14  2  0
 14 15  1  0
 15 16  2  0
  9 17  1  0
 17 18  2  0
 17 19  1  0
 19 20  1  0
 20 21  2  0
 21 22  1  0
 21 23  1  0
 23 24  1  0
 24 25  2  0
 25 26  1  0
 26 27  2  0
 27 28  1  0
  8 29  1  0
 29 30  1  0
 30 31  1  0
 30  6  2  0
 16 11  1  0
 28 19  2  0
 27 23  1  0
M  END
>  <fragmenstein_outcome>  (828) 
too moved

>  <exports>  (828) 
['/opt/xchem-fragalysis-2/maxwin/openbind-hippo/xx01zvns2b/cycle_01/syndirella/elabs/openbind_xx01zvns2b_c1_elab_chemspace_filtered.sdf']

>  <Energy>  (828) 
150.662789

>  <alias>  (828) 
ZJCZNIXTNNUWKP-UHFFFAOYSA-N-P84-P29-P84-601526

>  <fragmenstein_runtime>  (828) 
9.312674

>  <scratch_subdir>  (828) 
/opt/xchem-fragalysis-2/maxwin/BulkDock/SCRATCH/601526/ZJCZNIXTNNUWKP-UHFFFAOYSA-N-P84-P29-P84-601526

>  <HIPPO Compound ID>  (828) 
141935

>  <rmsd(smina/fragmenstein)>  (828) 
3.46

>  <distance_score>  (828) 
1.756287

>  <orig_smiles>  (828) 
CCOC(=O)c1nc(N(Cc2ccccc2)C(=O)c2cc(Br)n3ccnc3c2)sc1C

>  <fragmenstein_mode>  (828) 
expansion

>  <inchikey>  (828) 
ZJCZNIXTNNUWKP-UHFFFAOYSA-N

>  <ref_pdb>  (828) 
Z3093a

>  <GNINA pK>  (828) 
nan

>  <gnina_score_min>  (828) 
5.807

>  <tags>  (828) 
xx01zvns2b_c1_elab_bulkdock_input,openbind_xx01zvns2b_c1_elab_nonasap_filtered_scored_top80percent,openbind_xx01zvns2b_c1_elab_chemspace_filtered_scored_top80percent,fragmenstein_placed,openbind_xx01zvns2b_c1_elab_chemspace_filtered_scored,openbind_xx01zvns2b_c1_elab_chemspace_filtered_scored_top40percent,openbind_xx01zvns2b_c1_elab_chemspace_filtered_scored_top20percent,openbind_xx01zvns2b_c1_elab_chemspace_filtered_scored_top60percent,openbind_xx01zvns2b_c1_elabs_filtered

>  <smiles>  (828) 
CCOC(=O)c1nc(N(Cc2ccccc2)C(=O)c2cc(Br)n3ccnc3c2)sc1C

>  <subsites>  (828) 
1 - Z4590/B/203/1

>  <gnina_score>  (828) 
6.043

>  <HIPPO Pose ID>  (828) 
77115

>  <ref_mols>  (828) 
Z1495a,Z0673a

>  <energy_score>  (828) 
-5.108633

>  <inspiration_score>  (828) 
None

>  <smina_score_min>  (828) 
-6.922

>  <fragmenstein_error>  (828) 


>  <name>  (828) 
ZJCZNIXTNNUWKP-UHFFFAOYSA-N-P84-P29-P84-601526

$$$$
ZAEKCVTZSLEHJZ-UHFFFAOYSA-N-P84-P29-P84-601526
     RDKit          3D

 31 34  0  0  0  0  0  0  0  0999 V2000
   -9.4036    4.2029  -17.6876 C   0  0  0  0  0  0  0  0  0  0  0  0
   -8.1980    4.4147  -18.5775 C   0  0  0  0  0  0  0  0  0  0  0  0
   -7.8973    5.8118  -18.7126 O   0  0  0  0  0  0  0  0  0  0  0  0
   -6.7232    6.2969  -18.2428 C   0  0  0  0  0  0  0  0  0  0  0  0
   -6.0632    7.1485  -18.8310 O   0  0  0  0  0  0  0  0  0  0  0  0
   -6.3642    5.7986  -16.9289 C   0  0  0  0  0  0  0  0  0  0  0  0
   -7.2500    5.9192  -15.8702 N   0  0  0  0  0  0  0  0  0  0  0  0
   -6.7225    5.3467  -14.8327 C   0  0  0  0  0  0  0  0  0  0  0  0
   -7.1983    5.2788  -13.5918 N   0  0  0  0  0  0  0  0  0  0  0  0
   -8.5054    5.8125  -12.9963 C   0  0  0  0  0  0  0  0  0  0  0  0
   -9.3414    6.4631  -13.4742 O   0  0  0  0  0  0  0  0  0  0  0  0
   -8.4731    5.3982  -11.5842 C   0  0  0  0  0  0  0  0  0  0  0  0
   -8.5533    4.0777  -11.3253 C   0  0  0  0  0  0  0  0  0  0  0  0
   -8.4881    3.6469   -9.9779 C   0  0  0  0  0  0  0  0  0  0  0  0
   -8.5662    2.4461   -9.4636 N   0  0  0  0  0  0  0  0  0  0  0  0
   -8.4461    2.6155   -8.1106 C   0  0  0  0  0  0  0  0  0  0  0  0
   -8.3079    3.9464   -7.7986 C   0  0  0  0  0  0  0  0  0  0  0  0
   -8.1370    4.6638   -6.0503 Br  0  0  0  0  0  0  0  0  0  0  0  0
   -8.3217    4.6178   -8.9931 N   0  0  0  0  0  0  0  0  0  0  0  0
   -8.2054    5.9789   -9.2701 C   0  0  0  0  0  0  0  0  0  0  0  0
   -8.2815    6.3812  -10.5441 C   0  0  0  0  0  0  0  0  0  0  0  0
   -8.1587    7.6833  -10.8631 F   0  0  0  0  0  0  0  0  0  0  0  0
   -5.2431    4.5724  -15.0193 S   0  0  0  0  0  0  0  0  0  0  0  0
   -5.2115    5.0971  -16.6387 C   0  0  0  0  0  0  0  0  0  0  0  0
   -4.1344    4.6446  -17.5290 C   0  0  0  0  0  0  0  0  0  0  0  0
   -2.9154    5.5123  -17.5889 C   0  0  0  0  0  0  0  0  0  0  0  0
   -2.0711    5.6713  -16.4794 C   0  0  0  0  0  0  0  0  0  0  0  0
   -0.8483    6.3228  -16.6153 C   0  0  0  0  0  0  0  0  0  0  0  0
   -0.4612    6.8065  -17.8603 C   0  0  0  0  0  0  0  0  0  0  0  0
   -1.3101    6.6802  -18.9580 C   0  0  0  0  0  0  0  0  0  0  0  0
   -2.5408    6.0512  -18.8215 C   0  0  0  0  0  0  0  0  0  0  0  0
  1  2  1  0
  2  3  1  0
  3  4  1  0
  4  5  2  0
  4  6  1  0
  6  7  1  0
  7  8  2  0
  8  9  1  0
  9 10  1  0
 10 11  2  0
 10 12  1  0
 12 13  2  0
 13 14  1  0
 14 15  2  0
 15 16  1  0
 16 17  2  0
 17 18  1  0
 17 19  1  0
 19 20  1  0
 20 21  2  0
 21 22  1  0
  8 23  1  0
 23 24  1  0
 24 25  1  0
 25 26  1  0
 26 27  2  0
 27 28  1  0
 28 29  2  0
 29 30  1  0
 30 31  2  0
 24  6  2  0
 31 26  1  0
 21 12  1  0
 19 14  1  0
M  END
>  <fragmenstein_outcome>  (829) 
too moved

>  <exports>  (829) 
['/opt/xchem-fragalysis-2/maxwin/openbind-hippo/xx01zvns2b/cycle_01/syndirella/elabs/openbind_xx01zvns2b_c1_elab_chemspace_filtered.sdf']

>  <Energy>  (829) 
67.197513

>  <alias>  (829) 
ZAEKCVTZSLEHJZ-UHFFFAOYSA-N-P84-P29-P84-601526

>  <fragmenstein_runtime>  (829) 
4.511822

>  <scratch_subdir>  (829) 
/opt/xchem-fragalysis-2/maxwin/BulkDock/SCRATCH/601526/ZAEKCVTZSLEHJZ-UHFFFAOYSA-N-P84-P29-P84-601526

>  <HIPPO Compound ID>  (829) 
141936

>  <rmsd(smina/fragmenstein)>  (829) 
1.499

>  <distance_score>  (829) 
1.607991

>  <orig_smiles>  (829) 
CCOC(=O)c1nc(NC(=O)c2cc3ncc(Br)n3cc2F)sc1Cc1ccccc1

>  <fragmenstein_mode>  (829) 
expansion

>  <inchikey>  (829) 
ZAEKCVTZSLEHJZ-UHFFFAOYSA-N

>  <ref_pdb>  (829) 
Z3093a

>  <GNINA pK>  (829) 
nan

>  <gnina_score_min>  (829) 
5.595

>  <tags>  (829) 
xx01zvns2b_c1_elab_bulkdock_input,openbind_xx01zvns2b_c1_elab_nonasap_filtered_scored_top80percent,openbind_xx01zvns2b_c1_elab_chemspace_filtered_scored_top80percent,fragmenstein_placed,openbind_xx01zvns2b_c1_elab_chemspace_filtered_scored,openbind_xx01zvns2b_c1_elab_chemspace_filtered_scored_top40percent,openbind_xx01zvns2b_c1_elab_chemspace_filtered_scored_top20percent,openbind_xx01zvns2b_c1_elab_chemspace_filtered_scored_top60percent,openbind_xx01zvns2b_c1_elabs_filtered

>  <smiles>  (829) 
CCOC(=O)c1nc(NC(=O)c2cc3ncc(Br)n3cc2F)sc1Cc1ccccc1

>  <subsites>  (829) 
1 - Z4590/B/203/1

>  <gnina_score>  (829) 
6.289

>  <HIPPO Pose ID>  (829) 
77117

>  <ref_mols>  (829) 
Z1495a,Z0673a

>  <energy_score>  (829) 
-25.756778

>  <inspiration_score>  (829) 
None

>  <smina_score_min>  (829) 
-6.142

>  <fragmenstein_error>  (829) 


>  <name>  (829) 
ZAEKCVTZSLEHJZ-UHFFFAOYSA-N-P84-P29-P84-601526

$$$$
ZFZOIUFYEFPDCY-UHFFFAOYSA-N-P84-P29-P84-601526
     RDKit          3D

 31 34  0  0  0  0  0  0  0  0999 V2000
   -9.2605    3.9848  -18.2542 C   0  0  0  0  0  0  0  0  0  0  0  0
   -7.9677    4.6469  -17.8473 C   0  0  0  0  0  0  0  0  0  0  0  0
   -6.9000    4.3788  -18.7767 O   0  0  0  0  0  0  0  0  0  0  0  0
   -5.6436    4.9006  -18.5811 C   0  0  0  0  0  0  0  0  0  0  0  0
   -4.7146    4.6411  -19.3449 O   0  0  0  0  0  0  0  0  0  0  0  0
   -5.3776    5.7212  -17.3887 C   0  0  0  0  0  0  0  0  0  0  0  0
   -6.3687    6.3828  -16.6723 N   0  0  0  0  0  0  0  0  0  0  0  0
   -5.9161    6.6060  -15.4740 C   0  0  0  0  0  0  0  0  0  0  0  0
   -6.5808    6.4843  -14.3173 N   0  0  0  0  0  0  0  0  0  0  0  0
   -8.0559    6.1492  -14.0442 C   0  0  0  0  0  0  0  0  0  0  0  0
   -8.9437    6.0018  -14.7792 O   0  0  0  0  0  0  0  0  0  0  0  0
   -8.1487    5.9314  -12.5834 C   0  0  0  0  0  0  0  0  0  0  0  0
   -8.0239    7.0527  -11.6649 C   0  0  0  0  0  0  0  0  0  0  0  0
   -7.9700    6.7935  -10.3508 C   0  0  0  0  0  0  0  0  0  0  0  0
   -8.0680    5.4749   -9.9216 N   0  0  0  0  0  0  0  0  0  0  0  0
   -8.1153    5.0058   -8.6446 C   0  0  0  0  0  0  0  0  0  0  0  0
   -8.4248    3.6738   -8.7828 C   0  0  0  0  0  0  0  0  0  0  0  0
   -9.0010    2.8428   -7.7603 C   0  0  0  0  0  0  0  0  0  0  0  0
   -9.2887    1.4811   -7.8514 C   0  0  0  0  0  0  0  0  0  0  0  0
  -10.0652    1.0711   -6.8448 N   0  0  0  0  0  0  0  0  0  0  0  0
  -10.2429    2.1837   -6.1247 N   0  0  0  0  0  0  0  0  0  0  0  0
  -11.1552    2.1665   -5.0240 C   0  0  0  0  0  0  0  0  0  0  0  0
   -9.5544    3.2613   -6.5749 C   0  0  0  0  0  0  0  0  0  0  0  0
   -8.3893    3.2751  -10.0914 N   0  0  0  0  0  0  0  0  0  0  0  0
   -8.2194    4.3845  -10.7715 C   0  0  0  0  0  0  0  0  0  0  0  0
   -8.2299    4.6497  -12.1674 C   0  0  0  0  0  0  0  0  0  0  0  0
   -4.2423    6.7342  -15.3333 S   0  0  0  0  0  0  0  0  0  0  0  0
   -4.1427    5.7975  -16.7639 C   0  0  0  0  0  0  0  0  0  0  0  0
   -2.9442    5.0430  -16.9325 C   0  0  0  0  0  0  0  0  0  0  0  0
   -2.1430    5.1935  -18.1955 C   0  0  0  0  0  0  0  0  0  0  0  0
   -2.5763    4.3117  -16.0177 O   0  0  0  0  0  0  0  0  0  0  0  0
  1  2  1  0
  2  3  1  0
  3  4  1  0
  4  5  2  0
  4  6  1  0
  6  7  1  0
  7  8  2  0
  8  9  1  0
  9 10  1  0
 10 11  2  0
 10 12  1  0
 12 13  1  0
 13 14  2  0
 14 15  1  0
 15 16  1  0
 16 17  2  0
 17 18  1  0
 18 19  1  0
 19 20  2  0
 20 21  1  0
 21 22  1  0
 21 23  1  0
 17 24  1  0
 24 25  2  0
 25 26  1  0
  8 27  1  0
 27 28  1  0
 28 29  1  0
 29 30  1  0
 29 31  2  0
 28  6  2  0
 26 12  2  0
 25 15  1  0
 23 18  2  0
M  END
>  <fragmenstein_outcome>  (830) 
too moved

>  <exports>  (830) 
['/opt/xchem-fragalysis-2/maxwin/openbind-hippo/xx01zvns2b/cycle_01/syndirella/elabs/openbind_xx01zvns2b_c1_elab_chemspace_filtered.sdf']

>  <Energy>  (830) 
66.652882

>  <alias>  (830) 
ZFZOIUFYEFPDCY-UHFFFAOYSA-N-P84-P29-P84-601526

>  <fragmenstein_runtime>  (830) 
6.595346

>  <scratch_subdir>  (830) 
/opt/xchem-fragalysis-2/maxwin/BulkDock/SCRATCH/601526/ZFZOIUFYEFPDCY-UHFFFAOYSA-N-P84-P29-P84-601526

>  <HIPPO Compound ID>  (830) 
141940

>  <rmsd(smina/fragmenstein)>  (830) 
0.534

>  <distance_score>  (830) 
1.401703

>  <orig_smiles>  (830) 
CCOC(=O)c1nc(NC(=O)c2ccn3cc(-c4cnn(C)c4)nc3c2)sc1C(C)=O

>  <fragmenstein_mode>  (830) 
expansion

>  <inchikey>  (830) 
ZFZOIUFYEFPDCY-UHFFFAOYSA-N

>  <ref_pdb>  (830) 
Z3093a

>  <GNINA pK>  (830) 
nan

>  <gnina_score_min>  (830) 
5.525

>  <tags>  (830) 
xx01zvns2b_c1_elab_bulkdock_input,openbind_xx01zvns2b_c1_elab_nonasap_filtered_scored_top80percent,openbind_xx01zvns2b_c1_elab_chemspace_filtered_scored_top80percent,fragmenstein_placed,openbind_xx01zvns2b_c1_elab_chemspace_filtered_scored,openbind_xx01zvns2b_c1_elab_chemspace_filtered_scored_top40percent,openbind_xx01zvns2b_c1_elab_chemspace_filtered_scored_top20percent,openbind_xx01zvns2b_c1_elab_chemspace_filtered_scored_top60percent,openbind_xx01zvns2b_c1_elabs_filtered

>  <smiles>  (830) 
CCOC(=O)c1nc(NC(=O)c2ccn3cc(-c4cnn(C)c4)nc3c2)sc1C(C)=O

>  <subsites>  (830) 
1 - Z4590/B/203/1

>  <gnina_score>  (830) 
5.736

>  <HIPPO Pose ID>  (830) 
77125

>  <ref_mols>  (830) 
Z1495a,Z0673a

>  <energy_score>  (830) 
-29.796592

>  <inspiration_score>  (830) 
None

>  <smina_score_min>  (830) 
-5.986

>  <fragmenstein_error>  (830) 


>  <name>  (830) 
ZFZOIUFYEFPDCY-UHFFFAOYSA-N-P84-P29-P84-601526

$$$$
ABQWUBOVTVUJDV-UHFFFAOYSA-N-P29-P29-P84-601526
     RDKit          3D

 32 36  0  0  0  0  0  0  0  0999 V2000
   -9.6574    4.0411  -18.0207 C   0  0  0  0  0  0  0  0  0  0  0  0
   -8.4019    4.2511  -18.8422 C   0  0  0  0  0  0  0  0  0  0  0  0
   -8.0701    5.6439  -18.8854 O   0  0  0  0  0  0  0  0  0  0  0  0
   -6.9084    6.1311  -18.3794 C   0  0  0  0  0  0  0  0  0  0  0  0
   -6.3555    7.1078  -18.8825 O   0  0  0  0  0  0  0  0  0  0  0  0
   -6.4154    5.5040  -17.1531 C   0  0  0  0  0  0  0  0  0  0  0  0
   -7.2795    4.8092  -16.3128 N   0  0  0  0  0  0  0  0  0  0  0  0
   -6.6549    4.5319  -15.2111 C   0  0  0  0  0  0  0  0  0  0  0  0
   -7.1652    4.4751  -13.9788 N   0  0  0  0  0  0  0  0  0  0  0  0
   -8.5662    4.8209  -13.4651 C   0  0  0  0  0  0  0  0  0  0  0  0
   -9.5241    5.1373  -14.0421 O   0  0  0  0  0  0  0  0  0  0  0  0
   -8.4606    4.7762  -11.9982 C   0  0  0  0  0  0  0  0  0  0  0  0
   -8.0569    5.9995  -11.3114 C   0  0  0  0  0  0  0  0  0  0  0  0
   -7.9122    5.9600   -9.9804 C   0  0  0  0  0  0  0  0  0  0  0  0
   -8.1743    4.7654   -9.3194 N   0  0  0  0  0  0  0  0  0  0  0  0
   -8.1414    4.5086   -7.9820 C   0  0  0  0  0  0  0  0  0  0  0  0
   -8.6011    3.2197   -7.8615 C   0  0  0  0  0  0  0  0  0  0  0  0
   -8.8461    2.5163   -6.5133 C   0  0  0  0  0  0  0  0  0  0  0  0
  -10.2495    2.3709   -5.9933 C   0  0  0  0  0  0  0  0  0  0  0  0
   -9.3219    3.3439   -5.3363 C   0  0  0  0  0  0  0  0  0  0  0  0
   -8.8421    2.6489   -9.0762 N   0  0  0  0  0  0  0  0  0  0  0  0
   -8.5701    3.5893   -9.9503 C   0  0  0  0  0  0  0  0  0  0  0  0
   -8.6697    3.6108  -11.3640 C   0  0  0  0  0  0  0  0  0  0  0  0
   -4.9771    4.6818  -15.2287 S   0  0  0  0  0  0  0  0  0  0  0  0
   -5.1619    5.7039  -16.5940 C   0  0  0  0  0  0  0  0  0  0  0  0
   -4.0872    6.6624  -16.9314 C   0  0  0  0  0  0  0  0  0  0  0  0
   -2.8686    6.0562  -17.5638 C   0  0  0  0  0  0  0  0  0  0  0  0
   -2.9690    5.2962  -18.7360 C   0  0  0  0  0  0  0  0  0  0  0  0
   -1.8170    4.8601  -19.3828 C   0  0  0  0  0  0  0  0  0  0  0  0
   -0.5619    5.1948  -18.8784 C   0  0  0  0  0  0  0  0  0  0  0  0
   -0.4505    5.9375  -17.7063 C   0  0  0  0  0  0  0  0  0  0  0  0
   -1.6011    6.3562  -17.0422 C   0  0  0  0  0  0  0  0  0  0  0  0
  1  2  1  0
  2  3  1  0
  3  4  1  0
  4  5  2  0
  4  6  1  0
  6  7  1  0
  7  8  2  0
  8  9  1  0
  9 10  1  0
 10 11  2  0
 10 12  1  0
 12 13  1  0
 13 14  2  0
 14 15  1  0
 15 16  1  0
 16 17  2  0
 17 18  1  0
 18 19  1  0
 19 20  1  0
 17 21  1  0
 21 22  2  0
 22 23  1  0
  8 24  1  0
 24 25  1  0
 25 26  1  0
 26 27  1  0
 27 28  2  0
 28 29  1  0
 29 30  2  0
 30 31  1  0
 31 32  2  0
 25  6  2  0
 32 27  1  0
 23 12  2  0
 22 15  1  0
 20 18  1  0
M  END
>  <fragmenstein_outcome>  (831) 
too moved

>  <exports>  (831) 
['/opt/xchem-fragalysis-2/maxwin/openbind-hippo/xx01zvns2b/cycle_01/syndirella/elabs/openbind_xx01zvns2b_c1_elab_chemspace_filtered.sdf']

>  <Energy>  (831) 
84.127141

>  <alias>  (831) 
ABQWUBOVTVUJDV-UHFFFAOYSA-N-P29-P29-P84-601526

>  <fragmenstein_runtime>  (831) 
6.708073

>  <scratch_subdir>  (831) 
/opt/xchem-fragalysis-2/maxwin/BulkDock/SCRATCH/601526/ABQWUBOVTVUJDV-UHFFFAOYSA-N-P29-P29-P84-601526

>  <HIPPO Compound ID>  (831) 
141948

>  <rmsd(smina/fragmenstein)>  (831) 
1.25

>  <distance_score>  (831) 
1.342048

>  <orig_smiles>  (831) 
CCOC(=O)c1nc(NC(=O)c2ccn3cc(C4CC4)nc3c2)sc1Cc1ccccc1

>  <fragmenstein_mode>  (831) 
expansion

>  <inchikey>  (831) 
ABQWUBOVTVUJDV-UHFFFAOYSA-N

>  <ref_pdb>  (831) 
Z3093a

>  <GNINA pK>  (831) 
nan

>  <gnina_score_min>  (831) 
5.835

>  <tags>  (831) 
xx01zvns2b_c1_elab_bulkdock_input,openbind_xx01zvns2b_c1_elab_nonasap_filtered_scored_top80percent,openbind_xx01zvns2b_c1_elab_chemspace_filtered_scored_top80percent,fragmenstein_placed,openbind_xx01zvns2b_c1_elab_chemspace_filtered_scored,openbind_xx01zvns2b_c1_elab_chemspace_filtered_scored_top40percent,openbind_xx01zvns2b_c1_elab_chemspace_filtered_scored_top20percent,openbind_xx01zvns2b_c1_elab_chemspace_filtered_scored_top60percent,openbind_xx01zvns2b_c1_elabs_filtered

>  <smiles>  (831) 
CCOC(=O)c1nc(NC(=O)c2ccn3cc(C4CC4)nc3c2)sc1Cc1ccccc1

>  <subsites>  (831) 
1 - Z4590/B/203/1

>  <gnina_score>  (831) 
6.139

>  <HIPPO Pose ID>  (831) 
77140

>  <ref_mols>  (831) 
Z1495a,Z0673a

>  <energy_score>  (831) 
-52.977969

>  <inspiration_score>  (831) 
None

>  <smina_score_min>  (831) 
-7.017

>  <fragmenstein_error>  (831) 


>  <name>  (831) 
ABQWUBOVTVUJDV-UHFFFAOYSA-N-P29-P29-P84-601526

$$$$
VOGXJSKNDDUTAF-UHFFFAOYSA-N-P29-P29-P84-601526
     RDKit          3D

 32 35  0  0  0  0  0  0  0  0999 V2000
   -8.5083    4.5652  -18.4732 C   0  0  0  0  0  0  0  0  0  0  0  0
   -7.1172    4.4594  -19.0921 C   0  0  0  0  0  0  0  0  0  0  0  0
   -6.3907    5.7111  -19.1296 O   0  0  0  0  0  0  0  0  0  0  0  0
   -5.1779    5.7888  -18.4939 C   0  0  0  0  0  0  0  0  0  0  0  0
   -4.2157    6.3675  -18.9858 O   0  0  0  0  0  0  0  0  0  0  0  0
   -5.1335    5.2302  -17.1433 C   0  0  0  0  0  0  0  0  0  0  0  0
   -6.3141    5.0362  -16.4601 N   0  0  0  0  0  0  0  0  0  0  0  0
   -6.0445    4.6644  -15.2540 C   0  0  0  0  0  0  0  0  0  0  0  0
   -6.8249    4.7974  -14.1914 N   0  0  0  0  0  0  0  0  0  0  0  0
   -8.1864    5.4952  -14.0333 C   0  0  0  0  0  0  0  0  0  0  0  0
   -8.8731    5.9958  -14.8256 O   0  0  0  0  0  0  0  0  0  0  0  0
   -8.4225    5.4936  -12.5855 C   0  0  0  0  0  0  0  0  0  0  0  0
   -8.2354    6.7154  -11.8171 C   0  0  0  0  0  0  0  0  0  0  0  0
   -8.0837    6.6078  -10.4880 C   0  0  0  0  0  0  0  0  0  0  0  0
   -8.1236    5.3411   -9.9160 N   0  0  0  0  0  0  0  0  0  0  0  0
   -8.0517    4.9843   -8.6021 C   0  0  0  0  0  0  0  0  0  0  0  0
   -8.2910    3.6306   -8.6187 C   0  0  0  0  0  0  0  0  0  0  0  0
   -8.8283    2.8382   -7.5600 C   0  0  0  0  0  0  0  0  0  0  0  0
   -9.1200    1.4778   -7.6538 C   0  0  0  0  0  0  0  0  0  0  0  0
   -9.9195    1.0862   -6.6646 N   0  0  0  0  0  0  0  0  0  0  0  0
  -10.1279    2.2172   -5.9849 N   0  0  0  0  0  0  0  0  0  0  0  0
  -11.1110    2.2297   -4.9556 C   0  0  0  0  0  0  0  0  0  0  0  0
   -9.4068    3.2832   -6.4028 C   0  0  0  0  0  0  0  0  0  0  0  0
   -8.3061    3.1163   -9.8760 N   0  0  0  0  0  0  0  0  0  0  0  0
   -8.3192    4.1709  -10.6390 C   0  0  0  0  0  0  0  0  0  0  0  0
   -8.4927    4.2725  -12.0285 C   0  0  0  0  0  0  0  0  0  0  0  0
   -4.4576    4.2364  -14.9028 S   0  0  0  0  0  0  0  0  0  0  0  0
   -4.0155    5.0155  -16.3518 C   0  0  0  0  0  0  0  0  0  0  0  0
   -2.6448    5.4747  -16.5156 C   0  0  0  0  0  0  0  0  0  0  0  0
   -1.8209    5.1079  -15.4958 F   0  0  0  0  0  0  0  0  0  0  0  0
   -2.6482    6.8226  -16.5232 F   0  0  0  0  0  0  0  0  0  0  0  0
   -2.0792    5.0028  -17.6350 F   0  0  0  0  0  0  0  0  0  0  0  0
  1  2  1  0
  2  3  1  0
  3  4  1  0
  4  5  2  0
  4  6  1  0
  6  7  1  0
  7  8  2  0
  8  9  1  0
  9 10  1  0
 10 11  2  0
 10 12  1  0
 12 13  1  0
 13 14  2  0
 14 15  1  0
 15 16  1  0
 16 17  2  0
 17 18  1  0
 18 19  1  0
 19 20  2  0
 20 21  1  0
 21 22  1  0
 21 23  1  0
 17 24  1  0
 24 25  2  0
 25 26  1  0
  8 27  1  0
 27 28  1  0
 28 29  1  0
 29 30  1  0
 29 31  1  0
 29 32  1  0
 28  6  2  0
 26 12  2  0
 25 15  1  0
 23 18  2  0
M  END
>  <fragmenstein_outcome>  (832) 
too moved

>  <exports>  (832) 
['/opt/xchem-fragalysis-2/maxwin/openbind-hippo/xx01zvns2b/cycle_01/syndirella/elabs/openbind_xx01zvns2b_c1_elab_chemspace_filtered.sdf']

>  <Energy>  (832) 
56.906789

>  <alias>  (832) 
VOGXJSKNDDUTAF-UHFFFAOYSA-N-P29-P29-P84-601526

>  <fragmenstein_runtime>  (832) 
7.524885

>  <scratch_subdir>  (832) 
/opt/xchem-fragalysis-2/maxwin/BulkDock/SCRATCH/601526/VOGXJSKNDDUTAF-UHFFFAOYSA-N-P29-P29-P84-601526

>  <HIPPO Compound ID>  (832) 
141950

>  <rmsd(smina/fragmenstein)>  (832) 
1.32

>  <distance_score>  (832) 
1.525642

>  <orig_smiles>  (832) 
CCOC(=O)c1nc(NC(=O)c2ccn3cc(-c4cnn(C)c4)nc3c2)sc1C(F)(F)F

>  <fragmenstein_mode>  (832) 
expansion

>  <inchikey>  (832) 
VOGXJSKNDDUTAF-UHFFFAOYSA-N

>  <ref_pdb>  (832) 
Z3093a

>  <GNINA pK>  (832) 
nan

>  <gnina_score_min>  (832) 
5.691

>  <tags>  (832) 
xx01zvns2b_c1_elab_bulkdock_input,openbind_xx01zvns2b_c1_elab_nonasap_filtered_scored_top80percent,openbind_xx01zvns2b_c1_elab_chemspace_filtered_scored_top80percent,fragmenstein_placed,openbind_xx01zvns2b_c1_elab_chemspace_filtered_scored,openbind_xx01zvns2b_c1_elab_chemspace_filtered_scored_top40percent,openbind_xx01zvns2b_c1_elab_chemspace_filtered_scored_top20percent,openbind_xx01zvns2b_c1_elab_chemspace_filtered_scored_top60percent,openbind_xx01zvns2b_c1_elabs_filtered

>  <smiles>  (832) 
CCOC(=O)c1nc(NC(=O)c2ccn3cc(-c4cnn(C)c4)nc3c2)sc1C(F)(F)F

>  <subsites>  (832) 
1 - Z4590/B/203/1

>  <gnina_score>  (832) 
5.589

>  <HIPPO Pose ID>  (832) 
77144

>  <ref_mols>  (832) 
Z1495a,Z0673a

>  <energy_score>  (832) 
-47.758153

>  <inspiration_score>  (832) 
None

>  <smina_score_min>  (832) 
-5.724

>  <fragmenstein_error>  (832) 


>  <name>  (832) 
VOGXJSKNDDUTAF-UHFFFAOYSA-N-P29-P29-P84-601526

$$$$
YHGOGNUBBZUEQK-UHFFFAOYSA-N-P84-P29-P84-601526
     RDKit          3D

 32 35  0  0  0  0  0  0  0  0999 V2000
  -10.2583    4.5026  -17.6421 C   0  0  0  0  0  0  0  0  0  0  0  0
   -9.0439    3.6500  -17.8810 C   0  0  0  0  0  0  0  0  0  0  0  0
   -8.1387    4.2741  -18.7954 O   0  0  0  0  0  0  0  0  0  0  0  0
   -6.8652    4.5640  -18.4140 C   0  0  0  0  0  0  0  0  0  0  0  0
   -5.9087    4.3302  -19.1455 O   0  0  0  0  0  0  0  0  0  0  0  0
   -6.6747    5.2515  -17.1343 C   0  0  0  0  0  0  0  0  0  0  0  0
   -7.7179    5.6297  -16.2858 N   0  0  0  0  0  0  0  0  0  0  0  0
   -7.1997    6.1677  -15.2144 C   0  0  0  0  0  0  0  0  0  0  0  0
   -7.6502    5.9842  -13.9613 N   0  0  0  0  0  0  0  0  0  0  0  0
   -7.1446    6.5599  -12.6182 C   0  0  0  0  0  0  0  0  0  0  0  0
   -6.3083    7.3427  -12.3980 O   0  0  0  0  0  0  0  0  0  0  0  0
   -7.8582    5.8499  -11.5230 C   0  0  0  0  0  0  0  0  0  0  0  0
   -7.6672    4.5140  -11.5935 C   0  0  0  0  0  0  0  0  0  0  0  0
   -7.9193    3.7086  -10.4677 C   0  0  0  0  0  0  0  0  0  0  0  0
   -7.6968    2.4376  -10.3070 N   0  0  0  0  0  0  0  0  0  0  0  0
   -8.0435    2.1742   -9.0163 C   0  0  0  0  0  0  0  0  0  0  0  0
   -8.4788    3.3055   -8.3676 C   0  0  0  0  0  0  0  0  0  0  0  0
   -8.9411    3.3837   -7.0180 C   0  0  0  0  0  0  0  0  0  0  0  0
   -9.2953    4.4241   -6.4651 O   0  0  0  0  0  0  0  0  0  0  0  0
   -8.3415    4.3161   -9.2987 N   0  0  0  0  0  0  0  0  0  0  0  0
   -8.5248    5.7002   -9.2139 C   0  0  0  0  0  0  0  0  0  0  0  0
   -8.3198    6.4803  -10.2949 C   0  0  0  0  0  0  0  0  0  0  0  0
   -8.6525    8.3140  -10.2419 Br  0  0  0  0  0  0  0  0  0  0  0  0
   -5.5888    6.6693  -15.3605 S   0  0  0  0  0  0  0  0  0  0  0  0
   -5.4282    5.4677  -16.5579 C   0  0  0  0  0  0  0  0  0  0  0  0
   -4.1667    4.7093  -16.6927 C   0  0  0  0  0  0  0  0  0  0  0  0
   -2.9730    5.4298  -17.2350 C   0  0  0  0  0  0  0  0  0  0  0  0
   -2.0711    6.0730  -16.3772 C   0  0  0  0  0  0  0  0  0  0  0  0
   -0.8809    6.5926  -16.8800 C   0  0  0  0  0  0  0  0  0  0  0  0
   -0.5874    6.4638  -18.2357 C   0  0  0  0  0  0  0  0  0  0  0  0
   -1.4956    5.8532  -19.0986 C   0  0  0  0  0  0  0  0  0  0  0  0
   -2.6936    5.3530  -18.6034 C   0  0  0  0  0  0  0  0  0  0  0  0
  1  2  1  0
  2  3  1  0
  3  4  1  0
  4  5  2  0
  4  6  1  0
  6  7  1  0
  7  8  2  0
  8  9  1  0
  9 10  1  0
 10 11  2  0
 10 12  1  0
 12 13  2  0
 13 14  1  0
 14 15  2  0
 15 16  1  0
 16 17  2  0
 17 18  1  0
 18 19  2  0
 17 20  1  0
 20 21  1  0
 21 22  2  0
 22 23  1  0
  8 24  1  0
 24 25  1  0
 25 26  1  0
 26 27  1  0
 27 28  2  0
 28 29  1  0
 29 30  2  0
 30 31  1  0
 31 32  2  0
 25  6  2  0
 32 27  1  0
 22 12  1  0
 20 14  1  0
M  END
>  <fragmenstein_outcome>  (833) 
too moved

>  <exports>  (833) 
['/opt/xchem-fragalysis-2/maxwin/openbind-hippo/xx01zvns2b/cycle_01/syndirella/elabs/openbind_xx01zvns2b_c1_elab_chemspace_filtered.sdf']

>  <Energy>  (833) 
72.531212

>  <alias>  (833) 
YHGOGNUBBZUEQK-UHFFFAOYSA-N-P84-P29-P84-601526

>  <fragmenstein_runtime>  (833) 
5.112341

>  <scratch_subdir>  (833) 
/opt/xchem-fragalysis-2/maxwin/BulkDock/SCRATCH/601526/YHGOGNUBBZUEQK-UHFFFAOYSA-N-P84-P29-P84-601526

>  <HIPPO Compound ID>  (833) 
141958

>  <rmsd(smina/fragmenstein)>  (833) 
2.099

>  <distance_score>  (833) 
1.695319

>  <orig_smiles>  (833) 
CCOC(=O)c1nc(NC(=O)c2cc3ncc(C=O)n3cc2Br)sc1Cc1ccccc1

>  <fragmenstein_mode>  (833) 
expansion

>  <inchikey>  (833) 
YHGOGNUBBZUEQK-UHFFFAOYSA-N

>  <ref_pdb>  (833) 
Z3093a

>  <GNINA pK>  (833) 
nan

>  <gnina_score_min>  (833) 
5.728

>  <tags>  (833) 
xx01zvns2b_c1_elab_bulkdock_input,openbind_xx01zvns2b_c1_elab_nonasap_filtered_scored_top80percent,openbind_xx01zvns2b_c1_elab_chemspace_filtered_scored_top80percent,fragmenstein_placed,openbind_xx01zvns2b_c1_elab_chemspace_filtered_scored,openbind_xx01zvns2b_c1_elab_chemspace_filtered_scored_top40percent,openbind_xx01zvns2b_c1_elab_chemspace_filtered_scored_top20percent,openbind_xx01zvns2b_c1_elab_chemspace_filtered_scored_top60percent,openbind_xx01zvns2b_c1_elabs_filtered

>  <smiles>  (833) 
CCOC(=O)c1nc(NC(=O)c2cc3ncc(C=O)n3cc2Br)sc1Cc1ccccc1

>  <subsites>  (833) 
1 - Z4590/B/203/1

>  <gnina_score>  (833) 
6.237

>  <HIPPO Pose ID>  (833) 
77160

>  <ref_mols>  (833) 
Z1495a,Z0673a

>  <energy_score>  (833) 
-55.258212

>  <inspiration_score>  (833) 
None

>  <smina_score_min>  (833) 
-6.21

>  <fragmenstein_error>  (833) 


>  <name>  (833) 
YHGOGNUBBZUEQK-UHFFFAOYSA-N-P84-P29-P84-601526

$$$$
ACAQSIDENPBCPT-UHFFFAOYSA-N-P8-P8-P48-601530
     RDKit          3D

 29 31  0  0  0  0  0  0  0  0999 V2000
   -0.4649    9.6774  -25.6509 C   0  0  0  0  0  0  0  0  0  0  0  0
   -0.1110    9.3780  -24.3087 O   0  0  0  0  0  0  0  0  0  0  0  0
   -1.0821    8.8374  -23.5020 C   0  0  0  0  0  0  0  0  0  0  0  0
   -2.3877    8.5554  -23.9158 C   0  0  0  0  0  0  0  0  0  0  0  0
   -3.3091    7.9984  -23.0251 C   0  0  0  0  0  0  0  0  0  0  0  0
   -2.9441    7.7163  -21.7057 C   0  0  0  0  0  0  0  0  0  0  0  0
   -3.9386    7.1046  -20.7435 C   0  0  0  0  0  0  0  0  0  0  0  0
   -3.9722    5.5505  -20.6606 C   0  0  2  0  0  0  0  0  0  0  0  0
   -2.6233    4.9912  -20.1817 C   0  0  0  0  0  0  0  0  0  0  0  0
   -4.3048    4.8986  -22.0254 C   0  0  0  0  0  0  0  0  0  0  0  0
   -5.4485    5.4757  -22.6442 O   0  0  0  0  0  0  0  0  0  0  0  0
   -4.9880    5.1779  -19.6585 N   0  0  0  0  0  0  0  0  0  0  0  0
   -5.0158    5.3940  -18.1327 C   0  0  0  0  0  0  0  0  0  0  0  0
   -4.2052    5.8323  -17.4157 O   0  0  0  0  0  0  0  0  0  0  0  0
   -6.3113    4.9831  -17.4883 C   0  0  0  0  0  0  0  0  0  0  0  0
   -7.3989    4.4115  -18.1557 C   0  0  0  0  0  0  0  0  0  0  0  0
   -7.2978    4.1221  -19.4612 F   0  0  0  0  0  0  0  0  0  0  0  0
   -8.5927    4.1268  -17.4956 C   0  0  0  0  0  0  0  0  0  0  0  0
   -9.9817    3.6336  -18.3796 Cl  0  0  0  0  0  0  0  0  0  0  0  0
   -8.7186    4.3132  -16.1191 C   0  0  0  0  0  0  0  0  0  0  0  0
   -7.6560    4.8929  -15.4129 C   0  0  0  0  0  0  0  0  0  0  0  0
   -7.4764    5.2895  -14.0594 C   0  0  0  0  0  0  0  0  0  0  0  0
   -6.2311    5.8645  -13.9559 C   0  0  0  0  0  0  0  0  0  0  0  0
   -5.6370    5.7948  -15.1867 N   0  0  0  0  0  0  0  0  0  0  0  0
   -6.4923    5.2205  -16.1064 C   0  0  0  0  0  0  0  0  0  0  0  0
   -1.6367    8.0079  -21.2883 C   0  0  0  0  0  0  0  0  0  0  0  0
   -0.7005    8.5529  -22.1766 C   0  0  0  0  0  0  0  0  0  0  0  0
    0.5978    8.8528  -21.8404 O   0  0  0  0  0  0  0  0  0  0  0  0
    1.0807    8.3475  -20.6037 C   0  0  0  0  0  0  0  0  0  0  0  0
  1  2  1  0
  2  3  1  0
  3  4  2  0
  4  5  1  0
  5  6  2  0
  6  7  1  0
  7  8  1  0
  8  9  1  1
  8 10  1  0
 10 11  1  0
  8 12  1  0
 12 13  1  0
 13 14  2  0
 13 15  1  0
 15 16  2  0
 16 17  1  0
 16 18  1  0
 18 19  1  0
 18 20  2  0
 20 21  1  0
 21 22  1  0
 22 23  2  0
 23 24  1  0
 24 25  1  0
  6 26  1  0
 26 27  2  0
 27 28  1  0
 28 29  1  0
 27  3  1  0
 25 15  1  0
 25 21  2  0
M  END
>  <fragmenstein_outcome>  (834) 
acceptable

>  <exports>  (834) 
['/opt/xchem-fragalysis-2/maxwin/BulkDock/OUTPUTS/xx01zvns2b_c1_elab_bulkdock_input_1GFT1FD.sdf', '/opt/xchem-fragalysis-2/maxwin/openbind-hippo/xx01zvns2b/cycle_01/syndirella/elabs/openbind_xx01zvns2b_c1_elab_chemspace_filtered.sdf']

>  <Energy>  (834) 
96.266648

>  <alias>  (834) 
ACAQSIDENPBCPT-UHFFFAOYSA-N-P8-P8-P48-601530

>  <fragmenstein_runtime>  (834) 
3.685492

>  <scratch_subdir>  (834) 
/opt/xchem-fragalysis-2/maxwin/BulkDock/SCRATCH/601530/ACAQSIDENPBCPT-UHFFFAOYSA-N-P8-P8-P48-601530

>  <HIPPO Compound ID>  (834) 
145837

>  <rmsd(smina/fragmenstein)>  (834) 
2.975

>  <distance_score>  (834) 
0.573682

>  <orig_smiles>  (834) 
COc1ccc(CC(C)(CO)NC(=O)c2c(F)c(Cl)cc3cc[nH]c23)cc1OC

>  <fragmenstein_mode>  (834) 
expansion

>  <inchikey>  (834) 
ACAQSIDENPBCPT-UHFFFAOYSA-N

>  <ref_pdb>  (834) 
Z0089a

>  <GNINA pK>  (834) 
nan

>  <gnina_score_min>  (834) 
5.329

>  <tags>  (834) 
xx01zvns2b_c1_elab_bulkdock_input,openbind_xx01zvns2b_c1_elab_nonasap_filtered_scored_top80percent,BulkDock Fragalysis export,openbind_xx01zvns2b_c1_elab_chemspace_filtered_scored_top80percent,fragmenstein_placed,openbind_xx01zvns2b_c1_elab_chemspace_filtered_scored,openbind_xx01zvns2b_c1_elab_chemspace_filtered_scored_top40percent,openbind_xx01zvns2b_c1_elab_chemspace_filtered_scored_top20percent,openbind_xx01zvns2b_c1_elab_chemspace_filtered_scored_top60percent,openbind_xx01zvns2b_c1_elabs_filtered

>  <smiles>  (834) 
COc1ccc(CC(C)(CO)NC(=O)c2c(F)c(Cl)cc3cc[nH]c23)cc1OC

>  <subsites>  (834) 
1 - Z4590/B/203/1

>  <gnina_score>  (834) 
4.97

>  <HIPPO Pose ID>  (834) 
84781

>  <ref_mols>  (834) 
Z0101a,Z0827a

>  <energy_score>  (834) 
-43.326869

>  <inspiration_score>  (834) 
None

>  <smina_score_min>  (834) 
-5.239

>  <fragmenstein_error>  (834) 


>  <name>  (834) 
ACAQSIDENPBCPT-UHFFFAOYSA-N-P8-P8-P48-601530

$$$$
GFSLUJHUJDQALZ-UHFFFAOYSA-N-P8-P8-P48-601530
     RDKit          3D

 27 29  0  0  0  0  0  0  0  0999 V2000
   -2.8255    9.2046  -21.1135 C   0  0  0  0  0  0  0  0  0  0  0  0
   -2.8874    7.7833  -21.0094 O   0  0  0  0  0  0  0  0  0  0  0  0
   -4.1215    7.2882  -20.7047 C   0  0  0  0  0  0  0  0  0  0  0  0
   -5.1139    7.9934  -20.5313 O   0  0  0  0  0  0  0  0  0  0  0  0
   -4.1263    5.7391  -20.6681 C   0  0  2  0  0  0  0  0  0  0  0  0
   -2.7651    5.1745  -20.2337 C   0  0  0  0  0  0  0  0  0  0  0  0
   -4.5556    5.1598  -22.0370 C   0  0  0  0  0  0  0  0  0  0  0  0
   -3.9070    5.7467  -23.2651 C   0  0  0  0  0  0  0  0  0  0  0  0
   -4.5590    6.7555  -23.9939 C   0  0  0  0  0  0  0  0  0  0  0  0
   -3.9633    7.3009  -25.1311 C   0  0  0  0  0  0  0  0  0  0  0  0
   -2.7164    6.8432  -25.5380 C   0  0  0  0  0  0  0  0  0  0  0  0
   -2.1433    7.3703  -26.6279 F   0  0  0  0  0  0  0  0  0  0  0  0
   -2.0546    5.8474  -24.8309 C   0  0  0  0  0  0  0  0  0  0  0  0
   -2.6499    5.2963  -23.6961 C   0  0  0  0  0  0  0  0  0  0  0  0
   -5.1497    5.3719  -19.6772 N   0  0  0  0  0  0  0  0  0  0  0  0
   -5.0418    5.1735  -18.1555 C   0  0  0  0  0  0  0  0  0  0  0  0
   -4.1099    5.1937  -17.4547 O   0  0  0  0  0  0  0  0  0  0  0  0
   -6.3690    4.9088  -17.5075 C   0  0  0  0  0  0  0  0  0  0  0  0
   -7.4973    4.4068  -18.1710 C   0  0  0  0  0  0  0  0  0  0  0  0
   -8.6751    4.1537  -17.4733 C   0  0  0  0  0  0  0  0  0  0  0  0
  -10.0820    3.6784  -18.3359 Cl  0  0  0  0  0  0  0  0  0  0  0  0
   -8.7620    4.3384  -16.0941 C   0  0  0  0  0  0  0  0  0  0  0  0
   -7.6684    4.8847  -15.4096 C   0  0  0  0  0  0  0  0  0  0  0  0
   -7.4445    5.2772  -14.0614 C   0  0  0  0  0  0  0  0  0  0  0  0
   -6.1662    5.7800  -13.9814 C   0  0  0  0  0  0  0  0  0  0  0  0
   -5.5949    5.6625  -15.2208 N   0  0  0  0  0  0  0  0  0  0  0  0
   -6.5047    5.1540  -16.1250 C   0  0  0  0  0  0  0  0  0  0  0  0
  1  2  1  0
  2  3  1  0
  3  4  2  0
  3  5  1  0
  5  6  1  1
  5  7  1  0
  7  8  1  0
  8  9  2  0
  9 10  1  0
 10 11  2  0
 11 12  1  0
 11 13  1  0
 13 14  2  0
  5 15  1  0
 15 16  1  0
 16 17  2  0
 16 18  1  0
 18 19  2  0
 19 20  1  0
 20 21  1  0
 20 22  2  0
 22 23  1  0
 23 24  1  0
 24 25  2  0
 25 26  1  0
 26 27  1  0
 14  8  1  0
 27 18  1  0
 27 23  2  0
M  END
>  <fragmenstein_outcome>  (835) 
acceptable

>  <exports>  (835) 
['/opt/xchem-fragalysis-2/maxwin/BulkDock/OUTPUTS/xx01zvns2b_c1_elab_bulkdock_input_1GFT1FD.sdf', '/opt/xchem-fragalysis-2/maxwin/openbind-hippo/xx01zvns2b/cycle_01/syndirella/elabs/openbind_xx01zvns2b_c1_elab_chemspace_filtered.sdf']

>  <Energy>  (835) 
72.44112

>  <alias>  (835) 
GFSLUJHUJDQALZ-UHFFFAOYSA-N-P8-P8-P48-601530

>  <fragmenstein_runtime>  (835) 
5.004705

>  <scratch_subdir>  (835) 
/opt/xchem-fragalysis-2/maxwin/BulkDock/SCRATCH/601530/GFSLUJHUJDQALZ-UHFFFAOYSA-N-P8-P8-P48-601530

>  <HIPPO Compound ID>  (835) 
145863

>  <rmsd(smina/fragmenstein)>  (835) 
2.375

>  <distance_score>  (835) 
0.67486

>  <orig_smiles>  (835) 
COC(=O)C(C)(Cc1ccc(F)cc1)NC(=O)c1cc(Cl)cc2cc[nH]c12

>  <fragmenstein_mode>  (835) 
expansion

>  <inchikey>  (835) 
GFSLUJHUJDQALZ-UHFFFAOYSA-N

>  <ref_pdb>  (835) 
Z0089a

>  <GNINA pK>  (835) 
nan

>  <gnina_score_min>  (835) 
5.146

>  <tags>  (835) 
xx01zvns2b_c1_elab_bulkdock_input,openbind_xx01zvns2b_c1_elab_nonasap_filtered_scored_top80percent,BulkDock Fragalysis export,openbind_xx01zvns2b_c1_elab_chemspace_filtered_scored_top80percent,fragmenstein_placed,openbind_xx01zvns2b_c1_elab_chemspace_filtered_scored,openbind_xx01zvns2b_c1_elab_chemspace_filtered_scored_top40percent,openbind_xx01zvns2b_c1_elab_chemspace_filtered_scored_top20percent,openbind_xx01zvns2b_c1_elab_chemspace_filtered_scored_top60percent,openbind_xx01zvns2b_c1_elabs_filtered

>  <smiles>  (835) 
COC(=O)C(C)(Cc1ccc(F)cc1)NC(=O)c1cc(Cl)cc2cc[nH]c12

>  <subsites>  (835) 
1 - Z4590/B/203/1

>  <gnina_score>  (835) 
5.08

>  <HIPPO Pose ID>  (835) 
84829

>  <ref_mols>  (835) 
Z0101a,Z0827a

>  <energy_score>  (835) 
-18.361612

>  <inspiration_score>  (835) 
None

>  <smina_score_min>  (835) 
-5.414

>  <fragmenstein_error>  (835) 


>  <name>  (835) 
GFSLUJHUJDQALZ-UHFFFAOYSA-N-P8-P8-P48-601530

$$$$
IDILWGAGURJTJU-UHFFFAOYSA-N-P8-P8-P48-601530
     RDKit          3D

 27 29  0  0  0  0  0  0  0  0999 V2000
   -2.9623    9.2754  -21.1017 C   0  0  0  0  0  0  0  0  0  0  0  0
   -2.9802    7.8604  -20.9213 O   0  0  0  0  0  0  0  0  0  0  0  0
   -4.1853    7.3494  -20.5413 C   0  0  0  0  0  0  0  0  0  0  0  0
   -5.1896    8.0358  -20.3578 O   0  0  0  0  0  0  0  0  0  0  0  0
   -4.1520    5.8053  -20.4231 C   0  0  2  0  0  0  0  0  0  0  0  0
   -2.7641    5.3040  -19.9942 C   0  0  0  0  0  0  0  0  0  0  0  0
   -4.5823    5.1353  -21.7518 C   0  0  0  0  0  0  0  0  0  0  0  0
   -4.0034    5.6949  -23.0270 C   0  0  0  0  0  0  0  0  0  0  0  0
   -4.7189    6.6457  -23.7730 C   0  0  0  0  0  0  0  0  0  0  0  0
   -4.1815    7.1674  -24.9498 C   0  0  0  0  0  0  0  0  0  0  0  0
   -2.9291    6.7445  -25.3778 C   0  0  0  0  0  0  0  0  0  0  0  0
   -2.4122    7.2490  -26.5057 F   0  0  0  0  0  0  0  0  0  0  0  0
   -2.2047    5.8066  -24.6529 C   0  0  0  0  0  0  0  0  0  0  0  0
   -2.7419    5.2790  -23.4787 C   0  0  0  0  0  0  0  0  0  0  0  0
   -5.1603    5.4901  -19.3904 N   0  0  0  0  0  0  0  0  0  0  0  0
   -5.0221    4.7391  -18.0543 C   0  0  0  0  0  0  0  0  0  0  0  0
   -4.1086    4.1829  -17.5914 O   0  0  0  0  0  0  0  0  0  0  0  0
   -6.2992    4.7158  -17.2882 C   0  0  0  0  0  0  0  0  0  0  0  0
   -6.2426    4.9363  -15.9008 C   0  0  0  0  0  0  0  0  0  0  0  0
   -7.3823    4.8492  -15.0999 C   0  0  0  0  0  0  0  0  0  0  0  0
   -7.3223    5.1171  -13.6279 C   0  0  0  0  0  0  0  0  0  0  0  0
   -8.5953    4.4571  -15.6730 C   0  0  0  0  0  0  0  0  0  0  0  0
   -8.6982    4.2643  -17.0594 C   0  0  0  0  0  0  0  0  0  0  0  0
   -9.7954    3.9897  -17.9192 C   0  0  0  0  0  0  0  0  0  0  0  0
   -9.3048    3.9797  -19.1959 C   0  0  0  0  0  0  0  0  0  0  0  0
   -7.9494    4.1446  -19.1355 N   0  0  0  0  0  0  0  0  0  0  0  0
   -7.5518    4.4084  -17.8481 C   0  0  0  0  0  0  0  0  0  0  0  0
  1  2  1  0
  2  3  1  0
  3  4  2  0
  3  5  1  0
  5  6  1  1
  5  7  1  0
  7  8  1  0
  8  9  2  0
  9 10  1  0
 10 11  2  0
 11 12  1  0
 11 13  1  0
 13 14  2  0
  5 15  1  0
 15 16  1  0
 16 17  2  0
 16 18  1  0
 18 19  2  0
 19 20  1  0
 20 21  1  0
 20 22  2  0
 22 23  1  0
 23 24  1  0
 24 25  2  0
 25 26  1  0
 26 27  1  0
 14  8  1  0
 27 18  1  0
 27 23  2  0
M  END
>  <fragmenstein_outcome>  (836) 
too moved

>  <exports>  (836) 
['/opt/xchem-fragalysis-2/maxwin/openbind-hippo/xx01zvns2b/cycle_01/syndirella/elabs/openbind_xx01zvns2b_c1_elab_chemspace_filtered.sdf']

>  <Energy>  (836) 
93.099496

>  <alias>  (836) 
IDILWGAGURJTJU-UHFFFAOYSA-N-P8-P8-P48-601530

>  <fragmenstein_runtime>  (836) 
4.586999

>  <scratch_subdir>  (836) 
/opt/xchem-fragalysis-2/maxwin/BulkDock/SCRATCH/601530/IDILWGAGURJTJU-UHFFFAOYSA-N-P8-P8-P48-601530

>  <HIPPO Compound ID>  (836) 
145865

>  <rmsd(smina/fragmenstein)>  (836) 
2.25

>  <distance_score>  (836) 
1.030354

>  <orig_smiles>  (836) 
COC(=O)C(C)(Cc1ccc(F)cc1)NC(=O)c1cc(C)cc2cc[nH]c12

>  <fragmenstein_mode>  (836) 
expansion

>  <inchikey>  (836) 
IDILWGAGURJTJU-UHFFFAOYSA-N

>  <ref_pdb>  (836) 
Z0089a

>  <GNINA pK>  (836) 
nan

>  <gnina_score_min>  (836) 
5.179

>  <tags>  (836) 
xx01zvns2b_c1_elab_bulkdock_input,openbind_xx01zvns2b_c1_elab_nonasap_filtered_scored_top80percent,openbind_xx01zvns2b_c1_elab_chemspace_filtered_scored_top80percent,fragmenstein_placed,openbind_xx01zvns2b_c1_elab_chemspace_filtered_scored,openbind_xx01zvns2b_c1_elab_chemspace_filtered_scored_top40percent,openbind_xx01zvns2b_c1_elab_chemspace_filtered_scored_top20percent,openbind_xx01zvns2b_c1_elab_chemspace_filtered_scored_top60percent,openbind_xx01zvns2b_c1_elabs_filtered

>  <smiles>  (836) 
COC(=O)C(C)(Cc1ccc(F)cc1)NC(=O)c1cc(C)cc2cc[nH]c12

>  <subsites>  (836) 
1 - Z4590/B/203/1

>  <gnina_score>  (836) 
4.806

>  <HIPPO Pose ID>  (836) 
84833

>  <ref_mols>  (836) 
Z0101a,Z0827a

>  <energy_score>  (836) 
-13.299993

>  <inspiration_score>  (836) 
None

>  <smina_score_min>  (836) 
-5.929

>  <fragmenstein_error>  (836) 


>  <name>  (836) 
IDILWGAGURJTJU-UHFFFAOYSA-N-P8-P8-P48-601530

$$$$
VJFAPMXZUZCTKP-UHFFFAOYSA-N-P8-P8-P48-601530
     RDKit          3D

 27 29  0  0  0  0  0  0  0  0999 V2000
   -4.9255    9.4195  -19.7603 C   0  0  0  0  0  0  0  0  0  0  0  0
   -5.0750    7.9996  -19.8065 O   0  0  0  0  0  0  0  0  0  0  0  0
   -4.0636    7.3684  -20.4870 C   0  0  0  0  0  0  0  0  0  0  0  0
   -3.1843    7.9776  -21.0857 O   0  0  0  0  0  0  0  0  0  0  0  0
   -4.1972    5.8226  -20.4359 C   0  0  2  0  0  0  0  0  0  0  0  0
   -2.8319    5.2480  -20.0313 C   0  0  0  0  0  0  0  0  0  0  0  0
   -4.6662    5.2757  -21.8088 C   0  0  0  0  0  0  0  0  0  0  0  0
   -3.8685    5.6231  -23.0402 C   0  0  0  0  0  0  0  0  0  0  0  0
   -4.3063    6.6358  -23.9100 C   0  0  0  0  0  0  0  0  0  0  0  0
   -3.5649    6.9610  -25.0471 C   0  0  0  0  0  0  0  0  0  0  0  0
   -2.3838    6.2805  -25.3139 C   0  0  0  0  0  0  0  0  0  0  0  0
   -1.6711    6.5955  -26.4034 F   0  0  0  0  0  0  0  0  0  0  0  0
   -1.9340    5.2753  -24.4689 C   0  0  0  0  0  0  0  0  0  0  0  0
   -2.6806    4.9401  -23.3389 C   0  0  0  0  0  0  0  0  0  0  0  0
   -5.2293    5.4607  -19.4354 N   0  0  0  0  0  0  0  0  0  0  0  0
   -5.0913    4.8142  -18.0450 C   0  0  0  0  0  0  0  0  0  0  0  0
   -4.1524    4.3932  -17.4976 O   0  0  0  0  0  0  0  0  0  0  0  0
   -6.3824    4.7623  -17.3046 C   0  0  0  0  0  0  0  0  0  0  0  0
   -6.3544    5.0282  -15.9265 C   0  0  0  0  0  0  0  0  0  0  0  0
   -7.4994    4.8987  -15.1543 C   0  0  0  0  0  0  0  0  0  0  0  0
   -7.4736    5.3799  -13.3311 Br  0  0  0  0  0  0  0  0  0  0  0  0
   -8.6947    4.4596  -15.7099 C   0  0  0  0  0  0  0  0  0  0  0  0
   -8.7753    4.2519  -17.0942 C   0  0  0  0  0  0  0  0  0  0  0  0
   -9.8557    3.9591  -17.9675 C   0  0  0  0  0  0  0  0  0  0  0  0
   -9.3471    3.9608  -19.2370 C   0  0  0  0  0  0  0  0  0  0  0  0
   -7.9929    4.1226  -19.1593 N   0  0  0  0  0  0  0  0  0  0  0  0
   -7.6207    4.4122  -17.8708 C   0  0  0  0  0  0  0  0  0  0  0  0
  1  2  1  0
  2  3  1  0
  3  4  2  0
  3  5  1  0
  5  6  1  1
  5  7  1  0
  7  8  1  0
  8  9  2  0
  9 10  1  0
 10 11  2  0
 11 12  1  0
 11 13  1  0
 13 14  2  0
  5 15  1  0
 15 16  1  0
 16 17  2  0
 16 18  1  0
 18 19  2  0
 19 20  1  0
 20 21  1  0
 20 22  2  0
 22 23  1  0
 23 24  1  0
 24 25  2  0
 25 26  1  0
 26 27  1  0
 14  8  1  0
 27 18  1  0
 27 23  2  0
M  END
>  <fragmenstein_outcome>  (837) 
acceptable

>  <exports>  (837) 
['/opt/xchem-fragalysis-2/maxwin/BulkDock/OUTPUTS/xx01zvns2b_c1_elab_bulkdock_input_1GFT1FD.sdf', '/opt/xchem-fragalysis-2/maxwin/openbind-hippo/xx01zvns2b/cycle_01/syndirella/elabs/openbind_xx01zvns2b_c1_elab_chemspace_filtered.sdf']

>  <Energy>  (837) 
82.69781

>  <alias>  (837) 
VJFAPMXZUZCTKP-UHFFFAOYSA-N-P8-P8-P48-601530

>  <fragmenstein_runtime>  (837) 
4.901402

>  <scratch_subdir>  (837) 
/opt/xchem-fragalysis-2/maxwin/BulkDock/SCRATCH/601530/VJFAPMXZUZCTKP-UHFFFAOYSA-N-P8-P8-P48-601530

>  <HIPPO Compound ID>  (837) 
145867

>  <rmsd(smina/fragmenstein)>  (837) 
2.579

>  <distance_score>  (837) 
0.811953

>  <orig_smiles>  (837) 
COC(=O)C(C)(Cc1ccc(F)cc1)NC(=O)c1cc(Br)cc2cc[nH]c12

>  <fragmenstein_mode>  (837) 
expansion

>  <inchikey>  (837) 
VJFAPMXZUZCTKP-UHFFFAOYSA-N

>  <ref_pdb>  (837) 
Z0089a

>  <GNINA pK>  (837) 
nan

>  <gnina_score_min>  (837) 
5.223

>  <tags>  (837) 
xx01zvns2b_c1_elab_bulkdock_input,openbind_xx01zvns2b_c1_elab_nonasap_filtered_scored_top80percent,BulkDock Fragalysis export,openbind_xx01zvns2b_c1_elab_chemspace_filtered_scored_top80percent,fragmenstein_placed,openbind_xx01zvns2b_c1_elab_chemspace_filtered_scored,openbind_xx01zvns2b_c1_elab_chemspace_filtered_scored_top40percent,openbind_xx01zvns2b_c1_elab_chemspace_filtered_scored_top20percent,openbind_xx01zvns2b_c1_elab_chemspace_filtered_scored_top60percent,openbind_xx01zvns2b_c1_elabs_filtered

>  <smiles>  (837) 
COC(=O)C(C)(Cc1ccc(F)cc1)NC(=O)c1cc(Br)cc2cc[nH]c12

>  <subsites>  (837) 
1 - Z4590/B/203/1

>  <gnina_score>  (837) 
4.91

>  <HIPPO Pose ID>  (837) 
84837

>  <ref_mols>  (837) 
Z0101a,Z0827a

>  <energy_score>  (837) 
-9.823583

>  <inspiration_score>  (837) 
None

>  <smina_score_min>  (837) 
-6.019

>  <fragmenstein_error>  (837) 


>  <name>  (837) 
VJFAPMXZUZCTKP-UHFFFAOYSA-N-P8-P8-P48-601530

$$$$
DZQAMTUFHQKHSR-UHFFFAOYSA-N-P8-P8-P48-601530
     RDKit          3D

 27 29  0  0  0  0  0  0  0  0999 V2000
   -2.9050    9.2144  -21.2995 C   0  0  0  0  0  0  0  0  0  0  0  0
   -2.9178    7.7928  -21.1829 O   0  0  0  0  0  0  0  0  0  0  0  0
   -4.1087    7.2659  -20.7772 C   0  0  0  0  0  0  0  0  0  0  0  0
   -5.1024    7.9448  -20.5226 O   0  0  0  0  0  0  0  0  0  0  0  0
   -4.0711    5.7154  -20.7329 C   0  0  2  0  0  0  0  0  0  0  0  0
   -2.6595    5.1956  -20.4191 C   0  0  0  0  0  0  0  0  0  0  0  0
   -4.5940    5.1113  -22.0522 C   0  0  0  0  0  0  0  0  0  0  0  0
   -4.0987    5.7585  -23.3231 C   0  0  0  0  0  0  0  0  0  0  0  0
   -4.8781    6.7324  -23.9696 C   0  0  0  0  0  0  0  0  0  0  0  0
   -4.4220    7.3386  -25.1402 C   0  0  0  0  0  0  0  0  0  0  0  0
   -3.1862    6.9780  -25.6619 C   0  0  0  0  0  0  0  0  0  0  0  0
   -2.7469    7.5638  -26.7834 F   0  0  0  0  0  0  0  0  0  0  0  0
   -2.3985    6.0194  -25.0372 C   0  0  0  0  0  0  0  0  0  0  0  0
   -2.8539    5.4074  -23.8690 C   0  0  0  0  0  0  0  0  0  0  0  0
   -4.9783    5.3591  -19.6312 N   0  0  0  0  0  0  0  0  0  0  0  0
   -4.6834    5.0447  -18.1595 C   0  0  0  0  0  0  0  0  0  0  0  0
   -3.6678    4.9413  -17.5981 O   0  0  0  0  0  0  0  0  0  0  0  0
   -5.9169    4.9599  -17.3248 C   0  0  0  0  0  0  0  0  0  0  0  0
   -7.1486    4.4177  -17.7345 C   0  0  0  0  0  0  0  0  0  0  0  0
   -8.2113    4.2990  -16.8288 C   0  0  0  0  0  0  0  0  0  0  0  0
   -8.0478    4.7488  -15.5186 C   0  0  0  0  0  0  0  0  0  0  0  0
   -9.2035    4.6580  -14.2866 Cl  0  0  0  0  0  0  0  0  0  0  0  0
   -6.8670    5.3608  -15.0909 C   0  0  0  0  0  0  0  0  0  0  0  0
   -6.4233    5.9719  -13.8808 C   0  0  0  0  0  0  0  0  0  0  0  0
   -5.1331    6.3969  -14.0780 C   0  0  0  0  0  0  0  0  0  0  0  0
   -4.7689    6.0370  -15.3471 N   0  0  0  0  0  0  0  0  0  0  0  0
   -5.8250    5.4403  -16.0034 C   0  0  0  0  0  0  0  0  0  0  0  0
  1  2  1  0
  2  3  1  0
  3  4  2  0
  3  5  1  0
  5  6  1  1
  5  7  1  0
  7  8  1  0
  8  9  2  0
  9 10  1  0
 10 11  2  0
 11 12  1  0
 11 13  1  0
 13 14  2  0
  5 15  1  0
 15 16  1  0
 16 17  2  0
 16 18  1  0
 18 19  2  0
 19 20  1  0
 20 21  2  0
 21 22  1  0
 21 23  1  0
 23 24  1  0
 24 25  2  0
 25 26  1  0
 26 27  1  0
 14  8  1  0
 27 18  1  0
 27 23  2  0
M  END
>  <fragmenstein_outcome>  (838) 
too moved

>  <exports>  (838) 
['/opt/xchem-fragalysis-2/maxwin/openbind-hippo/xx01zvns2b/cycle_01/syndirella/elabs/openbind_xx01zvns2b_c1_elab_chemspace_filtered.sdf']

>  <Energy>  (838) 
96.938757

>  <alias>  (838) 
DZQAMTUFHQKHSR-UHFFFAOYSA-N-P8-P8-P48-601530

>  <fragmenstein_runtime>  (838) 
4.591938

>  <scratch_subdir>  (838) 
/opt/xchem-fragalysis-2/maxwin/BulkDock/SCRATCH/601530/DZQAMTUFHQKHSR-UHFFFAOYSA-N-P8-P8-P48-601530

>  <HIPPO Compound ID>  (838) 
145868

>  <rmsd(smina/fragmenstein)>  (838) 
2.756

>  <distance_score>  (838) 
1.231268

>  <orig_smiles>  (838) 
COC(=O)C(C)(Cc1ccc(F)cc1)NC(=O)c1ccc(Cl)c2cc[nH]c12

>  <fragmenstein_mode>  (838) 
expansion

>  <inchikey>  (838) 
DZQAMTUFHQKHSR-UHFFFAOYSA-N

>  <ref_pdb>  (838) 
Z0089a

>  <GNINA pK>  (838) 
nan

>  <gnina_score_min>  (838) 
5.227

>  <tags>  (838) 
xx01zvns2b_c1_elab_bulkdock_input,openbind_xx01zvns2b_c1_elab_nonasap_filtered_scored_top80percent,openbind_xx01zvns2b_c1_elab_chemspace_filtered_scored_top80percent,fragmenstein_placed,openbind_xx01zvns2b_c1_elab_chemspace_filtered_scored,openbind_xx01zvns2b_c1_elab_chemspace_filtered_scored_top40percent,openbind_xx01zvns2b_c1_elab_chemspace_filtered_scored_top20percent,openbind_xx01zvns2b_c1_elab_chemspace_filtered_scored_top60percent,openbind_xx01zvns2b_c1_elabs_filtered

>  <smiles>  (838) 
COC(=O)C(C)(Cc1ccc(F)cc1)NC(=O)c1ccc(Cl)c2cc[nH]c12

>  <subsites>  (838) 
1 - Z4590/B/203/1

>  <gnina_score>  (838) 
4.948

>  <HIPPO Pose ID>  (838) 
84839

>  <ref_mols>  (838) 
Z0101a,Z0827a

>  <energy_score>  (838) 
-12.094131

>  <inspiration_score>  (838) 
None

>  <smina_score_min>  (838) 
-4.352

>  <fragmenstein_error>  (838) 


>  <name>  (838) 
DZQAMTUFHQKHSR-UHFFFAOYSA-N-P8-P8-P48-601530

$$$$
KVIGAVQUYDBNNO-UHFFFAOYSA-N-P8-P8-P48-601530
     RDKit          3D

 28 30  0  0  0  0  0  0  0  0999 V2000
   -4.8463    9.3126  -19.9002 C   0  0  0  0  0  0  0  0  0  0  0  0
   -4.9854    7.8933  -19.9561 O   0  0  0  0  0  0  0  0  0  0  0  0
   -3.9602    7.2702  -20.6191 C   0  0  0  0  0  0  0  0  0  0  0  0
   -3.0630    7.8875  -21.1845 O   0  0  0  0  0  0  0  0  0  0  0  0
   -4.0876    5.7226  -20.5997 C   0  0  2  0  0  0  0  0  0  0  0  0
   -2.7247    5.1331  -20.2137 C   0  0  0  0  0  0  0  0  0  0  0  0
   -4.5678    5.2032  -21.9798 C   0  0  0  0  0  0  0  0  0  0  0  0
   -3.8492    5.6747  -23.2181 C   0  0  0  0  0  0  0  0  0  0  0  0
   -2.6211    5.1101  -23.5943 C   0  0  0  0  0  0  0  0  0  0  0  0
   -1.9610    5.5514  -24.7415 C   0  0  0  0  0  0  0  0  0  0  0  0
   -2.5322    6.5490  -25.5204 C   0  0  0  0  0  0  0  0  0  0  0  0
   -1.9001    6.9670  -26.6250 F   0  0  0  0  0  0  0  0  0  0  0  0
   -3.7513    7.1163  -25.1726 C   0  0  0  0  0  0  0  0  0  0  0  0
   -4.4096    6.6822  -24.0213 C   0  0  0  0  0  0  0  0  0  0  0  0
   -5.0941    5.3147  -19.6051 N   0  0  0  0  0  0  0  0  0  0  0  0
   -5.0080    5.2333  -18.0718 C   0  0  0  0  0  0  0  0  0  0  0  0
   -4.1033    5.4023  -17.3553 O   0  0  0  0  0  0  0  0  0  0  0  0
   -6.3213    4.9055  -17.4308 C   0  0  0  0  0  0  0  0  0  0  0  0
   -7.4259    4.3753  -18.1039 C   0  0  0  0  0  0  0  0  0  0  0  0
   -7.3288    4.0842  -19.4098 F   0  0  0  0  0  0  0  0  0  0  0  0
   -8.6264    4.1258  -17.4463 C   0  0  0  0  0  0  0  0  0  0  0  0
  -10.0221    3.6537  -18.3318 Cl  0  0  0  0  0  0  0  0  0  0  0  0
   -8.7456    4.3242  -16.0707 C   0  0  0  0  0  0  0  0  0  0  0  0
   -7.6702    4.8827  -15.3649 C   0  0  0  0  0  0  0  0  0  0  0  0
   -7.4815    5.2883  -14.0155 C   0  0  0  0  0  0  0  0  0  0  0  0
   -6.2155    5.8174  -13.9127 C   0  0  0  0  0  0  0  0  0  0  0  0
   -5.6165    5.7077  -15.1389 N   0  0  0  0  0  0  0  0  0  0  0  0
   -6.4929    5.1628  -16.0549 C   0  0  0  0  0  0  0  0  0  0  0  0
  1  2  1  0
  2  3  1  0
  3  4  2  0
  3  5  1  0
  5  6  1  1
  5  7  1  0
  7  8  1  0
  8  9  2  0
  9 10  1  0
 10 11  2  0
 11 12  1  0
 11 13  1  0
 13 14  2  0
  5 15  1  0
 15 16  1  0
 16 17  2  0
 16 18  1  0
 18 19  2  0
 19 20  1  0
 19 21  1  0
 21 22  1  0
 21 23  2  0
 23 24  1  0
 24 25  1  0
 25 26  2  0
 26 27  1  0
 27 28  1  0
 14  8  1  0
 28 18  1  0
 28 24  2  0
M  END
>  <fragmenstein_outcome>  (839) 
acceptable

>  <exports>  (839) 
['/opt/xchem-fragalysis-2/maxwin/BulkDock/OUTPUTS/xx01zvns2b_c1_elab_bulkdock_input_1GFT1FD.sdf', '/opt/xchem-fragalysis-2/maxwin/openbind-hippo/xx01zvns2b/cycle_01/syndirella/elabs/openbind_xx01zvns2b_c1_elab_chemspace_filtered.sdf']

>  <Energy>  (839) 
77.182762

>  <alias>  (839) 
KVIGAVQUYDBNNO-UHFFFAOYSA-N-P8-P8-P48-601530

>  <fragmenstein_runtime>  (839) 
4.0249

>  <scratch_subdir>  (839) 
/opt/xchem-fragalysis-2/maxwin/BulkDock/SCRATCH/601530/KVIGAVQUYDBNNO-UHFFFAOYSA-N-P8-P8-P48-601530

>  <HIPPO Compound ID>  (839) 
145880

>  <rmsd(smina/fragmenstein)>  (839) 
2.338

>  <distance_score>  (839) 
0.69241

>  <orig_smiles>  (839) 
COC(=O)C(C)(Cc1ccc(F)cc1)NC(=O)c1c(F)c(Cl)cc2cc[nH]c12

>  <fragmenstein_mode>  (839) 
expansion

>  <inchikey>  (839) 
KVIGAVQUYDBNNO-UHFFFAOYSA-N

>  <ref_pdb>  (839) 
Z0089a

>  <GNINA pK>  (839) 
nan

>  <gnina_score_min>  (839) 
5.442

>  <tags>  (839) 
xx01zvns2b_c1_elab_bulkdock_input,openbind_xx01zvns2b_c1_elab_nonasap_filtered_scored_top80percent,BulkDock Fragalysis export,openbind_xx01zvns2b_c1_elab_chemspace_filtered_scored_top80percent,fragmenstein_placed,openbind_xx01zvns2b_c1_elab_chemspace_filtered_scored,openbind_xx01zvns2b_c1_elab_chemspace_filtered_scored_top40percent,openbind_xx01zvns2b_c1_elab_chemspace_filtered_scored_top20percent,openbind_xx01zvns2b_c1_elab_chemspace_filtered_scored_top60percent,openbind_xx01zvns2b_c1_elabs_filtered

>  <smiles>  (839) 
COC(=O)C(C)(Cc1ccc(F)cc1)NC(=O)c1c(F)c(Cl)cc2cc[nH]c12

>  <subsites>  (839) 
1 - Z4590/B/203/1

>  <gnina_score>  (839) 
5.221

>  <HIPPO Pose ID>  (839) 
84863

>  <ref_mols>  (839) 
Z0101a,Z0827a

>  <energy_score>  (839) 
-11.36887

>  <inspiration_score>  (839) 
None

>  <smina_score_min>  (839) 
-5.519

>  <fragmenstein_error>  (839) 


>  <name>  (839) 
KVIGAVQUYDBNNO-UHFFFAOYSA-N-P8-P8-P48-601530

$$$$
QSZWWCYUPYIBOT-UHFFFAOYSA-N-P8-P8-P48-601530
     RDKit          3D

 28 31  0  0  0  0  0  0  0  0999 V2000
   -6.3844    4.9872  -11.3426 C   0  0  0  0  0  0  0  0  0  0  0  0
   -6.1802    5.9559  -12.4925 C   0  0  0  0  0  0  0  0  0  0  0  0
   -6.7240    5.4589  -13.7894 C   0  0  0  0  0  0  0  0  0  0  0  0
   -7.9474    4.8927  -14.0472 C   0  0  0  0  0  0  0  0  0  0  0  0
   -8.0209    4.6416  -15.4328 C   0  0  0  0  0  0  0  0  0  0  0  0
   -9.0409    4.1250  -16.2277 C   0  0  0  0  0  0  0  0  0  0  0  0
   -8.8649    4.0660  -17.5952 C   0  0  0  0  0  0  0  0  0  0  0  0
  -10.2048    3.6542  -18.5618 Cl  0  0  0  0  0  0  0  0  0  0  0  0
   -7.6604    4.4112  -18.1852 C   0  0  0  0  0  0  0  0  0  0  0  0
   -6.6069    4.9496  -17.4257 C   0  0  0  0  0  0  0  0  0  0  0  0
   -5.3131    5.3958  -18.0543 C   0  0  0  0  0  0  0  0  0  0  0  0
   -4.3700    5.4677  -17.3674 O   0  0  0  0  0  0  0  0  0  0  0  0
   -5.4764    5.6822  -19.5721 N   0  0  0  0  0  0  0  0  0  0  0  0
   -4.4694    6.0315  -20.5971 C   0  0  0  0  0  0  0  0  0  0  0  0
   -4.1283    7.5146  -20.4610 C   0  0  0  0  0  0  0  0  0  0  0  0
   -3.4501    8.1257  -21.6636 C   0  0  0  0  0  0  0  0  0  0  0  0
   -2.0569    8.0758  -21.8152 C   0  0  0  0  0  0  0  0  0  0  0  0
   -1.4506    8.6396  -22.9399 C   0  0  0  0  0  0  0  0  0  0  0  0
   -2.2331    9.2581  -23.9091 C   0  0  0  0  0  0  0  0  0  0  0  0
   -1.6454    9.7992  -24.9841 F   0  0  0  0  0  0  0  0  0  0  0  0
   -3.6117    9.3280  -23.7778 C   0  0  0  0  0  0  0  0  0  0  0  0
   -4.2072    8.7637  -22.6568 C   0  0  0  0  0  0  0  0  0  0  0  0
   -5.5413    8.8357  -22.5327 F   0  0  0  0  0  0  0  0  0  0  0  0
   -3.2780    5.0493  -20.7059 C   0  0  0  0  0  0  0  0  0  0  0  0
   -3.5612    4.8058  -22.1147 O   0  0  0  0  0  0  0  0  0  0  0  0
   -4.8560    5.4234  -21.9747 C   0  0  0  0  0  0  0  0  0  0  0  0
   -6.8264    5.0501  -16.0284 C   0  0  0  0  0  0  0  0  0  0  0  0
   -6.0355    5.5152  -14.9916 N   0  0  0  0  0  0  0  0  0  0  0  0
  1  2  1  0
  2  3  1  0
  3  4  2  0
  4  5  1  0
  5  6  2  0
  6  7  1  0
  7  8  1  0
  7  9  2  0
  9 10  1  0
 10 11  1  0
 11 12  2  0
 11 13  1  0
 13 14  1  0
 14 15  1  0
 15 16  1  0
 16 17  2  0
 17 18  1  0
 18 19  2  0
 19 20  1  0
 19 21  1  0
 21 22  2  0
 22 23  1  0
 14 24  1  0
 24 25  1  0
 25 26  1  0
 10 27  2  0
 27 28  1  0
 28  3  1  0
 27  5  1  0
 26 14  1  0
 22 16  1  0
M  END
>  <fragmenstein_outcome>  (840) 
too moved

>  <exports>  (840) 
['/opt/xchem-fragalysis-2/maxwin/openbind-hippo/xx01zvns2b/cycle_01/syndirella/elabs/openbind_xx01zvns2b_c1_elab_chemspace_filtered.sdf']

>  <Energy>  (840) 
61.407557

>  <alias>  (840) 
QSZWWCYUPYIBOT-UHFFFAOYSA-N-P8-P8-P48-601530

>  <fragmenstein_runtime>  (840) 
3.483378

>  <scratch_subdir>  (840) 
/opt/xchem-fragalysis-2/maxwin/BulkDock/SCRATCH/601530/QSZWWCYUPYIBOT-UHFFFAOYSA-N-P8-P8-P48-601530

>  <HIPPO Compound ID>  (840) 
145884

>  <rmsd(smina/fragmenstein)>  (840) 
2.264

>  <distance_score>  (840) 
1.234081

>  <orig_smiles>  (840) 
CCc1cc2cc(Cl)cc(C(=O)NC3(Cc4ccc(F)cc4F)COC3)c2[nH]1

>  <fragmenstein_mode>  (840) 
expansion

>  <inchikey>  (840) 
QSZWWCYUPYIBOT-UHFFFAOYSA-N

>  <ref_pdb>  (840) 
Z0089a

>  <GNINA pK>  (840) 
nan

>  <gnina_score_min>  (840) 
5.303

>  <tags>  (840) 
xx01zvns2b_c1_elab_bulkdock_input,openbind_xx01zvns2b_c1_elab_nonasap_filtered_scored_top80percent,openbind_xx01zvns2b_c1_elab_chemspace_filtered_scored_top80percent,fragmenstein_placed,openbind_xx01zvns2b_c1_elab_chemspace_filtered_scored,openbind_xx01zvns2b_c1_elab_chemspace_filtered_scored_top40percent,openbind_xx01zvns2b_c1_elab_chemspace_filtered_scored_top20percent,openbind_xx01zvns2b_c1_elab_chemspace_filtered_scored_top60percent,openbind_xx01zvns2b_c1_elabs_filtered

>  <smiles>  (840) 
CCc1cc2cc(Cl)cc(C(=O)NC3(Cc4ccc(F)cc4F)COC3)c2[nH]1

>  <subsites>  (840) 
1 - Z4590/B/203/1

>  <gnina_score>  (840) 
5.208

>  <HIPPO Pose ID>  (840) 
84871

>  <ref_mols>  (840) 
Z0101a,Z0827a

>  <energy_score>  (840) 
-32.277048

>  <inspiration_score>  (840) 
None

>  <smina_score_min>  (840) 
-5.582

>  <fragmenstein_error>  (840) 


>  <name>  (840) 
QSZWWCYUPYIBOT-UHFFFAOYSA-N-P8-P8-P48-601530

$$$$
CSVZMMGQPGIBDX-UHFFFAOYSA-N-P8-P8-P48-601530
     RDKit          3D

 28 31  0  0  0  0  0  0  0  0999 V2000
   -5.8958    5.6456  -13.0780 C   0  0  0  0  0  0  0  0  0  0  0  0
   -6.3429    5.3832  -14.4773 C   0  0  0  0  0  0  0  0  0  0  0  0
   -5.5003    5.3479  -15.5650 N   0  0  0  0  0  0  0  0  0  0  0  0
   -6.1971    4.9882  -16.6989 C   0  0  0  0  0  0  0  0  0  0  0  0
   -5.7825    4.8285  -18.0304 C   0  0  0  0  0  0  0  0  0  0  0  0
   -4.4485    5.1703  -18.5607 C   0  0  0  0  0  0  0  0  0  0  0  0
   -3.4765    4.8687  -17.9891 O   0  0  0  0  0  0  0  0  0  0  0  0
   -4.6320    5.8436  -19.9488 N   0  0  0  0  0  0  0  0  0  0  0  0
   -3.6445    6.2006  -20.9710 C   0  0  0  0  0  0  0  0  0  0  0  0
   -2.9665    7.5284  -20.6975 C   0  0  0  0  0  0  0  0  0  0  0  0
   -2.1973    7.5313  -19.4000 C   0  0  0  0  0  0  0  0  0  0  0  0
   -0.9683    6.8631  -19.2854 C   0  0  0  0  0  0  0  0  0  0  0  0
   -0.2893    6.8478  -18.0652 C   0  0  0  0  0  0  0  0  0  0  0  0
   -0.8329    7.5022  -16.9647 C   0  0  0  0  0  0  0  0  0  0  0  0
   -0.1753    7.4867  -15.7976 F   0  0  0  0  0  0  0  0  0  0  0  0
   -2.0425    8.1747  -17.0559 C   0  0  0  0  0  0  0  0  0  0  0  0
   -2.7158    8.1812  -18.2710 C   0  0  0  0  0  0  0  0  0  0  0  0
   -3.8920    8.8233  -18.3507 F   0  0  0  0  0  0  0  0  0  0  0  0
   -2.8492    4.9840  -21.5044 C   0  0  0  0  0  0  0  0  0  0  0  0
   -3.8418    4.7742  -22.5642 O   0  0  0  0  0  0  0  0  0  0  0  0
   -4.2791    6.1446  -22.3912 C   0  0  0  0  0  0  0  0  0  0  0  0
   -6.6780    4.2910  -18.9588 C   0  0  0  0  0  0  0  0  0  0  0  0
   -7.9846    4.0774  -18.6382 C   0  0  0  0  0  0  0  0  0  0  0  0
   -8.4183    4.3234  -17.3461 C   0  0  0  0  0  0  0  0  0  0  0  0
  -10.2479    4.0319  -17.2251 Br  0  0  0  0  0  0  0  0  0  0  0  0
   -7.5341    4.7690  -16.3249 C   0  0  0  0  0  0  0  0  0  0  0  0
   -7.6211    5.1370  -14.9372 C   0  0  0  0  0  0  0  0  0  0  0  0
   -8.8127    5.2190  -14.0786 C   0  0  0  0  0  0  0  0  0  0  0  0
  1  2  1  0
  2  3  1  0
  3  4  1  0
  4  5  2  0
  5  6  1  0
  6  7  2  0
  6  8  1  0
  8  9  1  0
  9 10  1  0
 10 11  1  0
 11 12  2  0
 12 13  1  0
 13 14  2  0
 14 15  1  0
 14 16  1  0
 16 17  2  0
 17 18  1  0
  9 19  1  0
 19 20  1  0
 20 21  1  0
  5 22  1  0
 22 23  2  0
 23 24  1  0
 24 25  1  0
 24 26  2  0
 26 27  1  0
 27 28  1  0
 27  2  2  0
 26  4  1  0
 21  9  1  0
 17 11  1  0
M  END
>  <fragmenstein_outcome>  (841) 
too moved

>  <exports>  (841) 
['/opt/xchem-fragalysis-2/maxwin/openbind-hippo/xx01zvns2b/cycle_01/syndirella/elabs/openbind_xx01zvns2b_c1_elab_chemspace_filtered.sdf']

>  <Energy>  (841) 
91.591046

>  <alias>  (841) 
CSVZMMGQPGIBDX-UHFFFAOYSA-N-P8-P8-P48-601530

>  <fragmenstein_runtime>  (841) 
3.257897

>  <scratch_subdir>  (841) 
/opt/xchem-fragalysis-2/maxwin/BulkDock/SCRATCH/601530/CSVZMMGQPGIBDX-UHFFFAOYSA-N-P8-P8-P48-601530

>  <HIPPO Compound ID>  (841) 
145887

>  <rmsd(smina/fragmenstein)>  (841) 
1.795

>  <distance_score>  (841) 
1.633495

>  <orig_smiles>  (841) 
Cc1[nH]c2c(C(=O)NC3(Cc4ccc(F)cc4F)COC3)ccc(Br)c2c1C

>  <fragmenstein_mode>  (841) 
expansion

>  <inchikey>  (841) 
CSVZMMGQPGIBDX-UHFFFAOYSA-N

>  <ref_pdb>  (841) 
Z0089a

>  <GNINA pK>  (841) 
nan

>  <gnina_score_min>  (841) 
5.4

>  <tags>  (841) 
xx01zvns2b_c1_elab_bulkdock_input,openbind_xx01zvns2b_c1_elab_nonasap_filtered_scored_top80percent,openbind_xx01zvns2b_c1_elab_chemspace_filtered_scored_top80percent,fragmenstein_placed,openbind_xx01zvns2b_c1_elab_chemspace_filtered_scored,openbind_xx01zvns2b_c1_elab_chemspace_filtered_scored_top40percent,openbind_xx01zvns2b_c1_elab_chemspace_filtered_scored_top20percent,openbind_xx01zvns2b_c1_elab_chemspace_filtered_scored_top60percent,openbind_xx01zvns2b_c1_elabs_filtered

>  <smiles>  (841) 
Cc1[nH]c2c(C(=O)NC3(Cc4ccc(F)cc4F)COC3)ccc(Br)c2c1C

>  <subsites>  (841) 
1 - Z4590/B/203/1

>  <gnina_score>  (841) 
5.482

>  <HIPPO Pose ID>  (841) 
84877

>  <ref_mols>  (841) 
Z0101a,Z0827a

>  <energy_score>  (841) 
-18.986819

>  <inspiration_score>  (841) 
None

>  <smina_score_min>  (841) 
-6.244

>  <fragmenstein_error>  (841) 


>  <name>  (841) 
CSVZMMGQPGIBDX-UHFFFAOYSA-N-P8-P8-P48-601530

$$$$
JACGMNOJMMBRFC-UHFFFAOYSA-N-P8-P8-P48-601530
     RDKit          3D

 29 32  0  0  0  0  0  0  0  0999 V2000
   -4.8914    9.3370  -19.8483 C   0  0  0  0  0  0  0  0  0  0  0  0
   -5.0514    7.9226  -19.9563 O   0  0  0  0  0  0  0  0  0  0  0  0
   -4.0553    7.3131  -20.6739 C   0  0  0  0  0  0  0  0  0  0  0  0
   -3.1736    7.9415  -21.2505 O   0  0  0  0  0  0  0  0  0  0  0  0
   -4.1879    5.7661  -20.6830 C   0  0  2  0  0  0  0  0  0  0  0  0
   -2.8332    5.1814  -20.2550 C   0  0  0  0  0  0  0  0  0  0  0  0
   -4.6179    5.2606  -22.0823 C   0  0  0  0  0  0  0  0  0  0  0  0
   -3.8056    5.6788  -23.2813 C   0  0  0  0  0  0  0  0  0  0  0  0
   -2.5937    5.0400  -23.5849 C   0  0  0  0  0  0  0  0  0  0  0  0
   -1.8441    5.4314  -24.6946 C   0  0  0  0  0  0  0  0  0  0  0  0
   -2.3110    6.4523  -25.5113 C   0  0  0  0  0  0  0  0  0  0  0  0
   -1.5938    6.8228  -26.5804 F   0  0  0  0  0  0  0  0  0  0  0  0
   -3.5128    7.0923  -25.2372 C   0  0  0  0  0  0  0  0  0  0  0  0
   -4.2595    6.7085  -24.1223 C   0  0  0  0  0  0  0  0  0  0  0  0
   -5.2373    5.3494  -19.7339 N   0  0  0  0  0  0  0  0  0  0  0  0
   -5.1512    5.0022  -18.2371 C   0  0  0  0  0  0  0  0  0  0  0  0
   -4.2251    4.9153  -17.5330 O   0  0  0  0  0  0  0  0  0  0  0  0
   -6.5009    4.7832  -17.6224 C   0  0  0  0  0  0  0  0  0  0  0  0
   -7.6264    4.3106  -18.3187 C   0  0  0  0  0  0  0  0  0  0  0  0
   -8.8306    4.0569  -17.6629 C   0  0  0  0  0  0  0  0  0  0  0  0
   -8.9469    4.2702  -16.2882 C   0  0  0  0  0  0  0  0  0  0  0  0
   -7.8619    4.7846  -15.5648 C   0  0  0  0  0  0  0  0  0  0  0  0
   -7.6349    5.1441  -14.2281 C   0  0  0  0  0  0  0  0  0  0  0  0
   -6.3224    5.4774  -14.0937 C   0  0  0  0  0  0  0  0  0  0  0  0
   -5.7134    5.4206  -15.2989 N   0  0  0  0  0  0  0  0  0  0  0  0
   -6.6525    5.0083  -16.2400 C   0  0  0  0  0  0  0  0  0  0  0  0
   -5.8880    5.7787  -12.7211 C   0  0  0  0  0  0  0  0  0  0  0  0
   -7.2650    5.9098  -12.0145 C   0  0  0  0  0  0  0  0  0  0  0  0
   -8.3281    5.2168  -12.9333 C   0  0  0  0  0  0  0  0  0  0  0  0
  1  2  1  0
  2  3  1  0
  3  4  2  0
  3  5  1  0
  5  6  1  1
  5  7  1  0
  7  8  1  0
  8  9  2  0
  9 10  1  0
 10 11  2  0
 11 12  1  0
 11 13  1  0
 13 14  2  0
  5 15  1  0
 15 16  1  0
 16 17  2  0
 16 18  1  0
 18 19  2  0
 19 20  1  0
 20 21  2  0
 21 22  1  0
 22 23  1  0
 23 24  2  0
 24 25  1  0
 25 26  1  0
 24 27  1  0
 27 28  1  0
 28 29  1  0
 14  8  1  0
 26 18  1  0
 26 22  2  0
 29 23  1  0
M  END
>  <fragmenstein_outcome>  (842) 
too moved

>  <exports>  (842) 
['/opt/xchem-fragalysis-2/maxwin/openbind-hippo/xx01zvns2b/cycle_01/syndirella/elabs/openbind_xx01zvns2b_c1_elab_chemspace_filtered.sdf']

>  <Energy>  (842) 
108.713757

>  <alias>  (842) 
JACGMNOJMMBRFC-UHFFFAOYSA-N-P8-P8-P48-601530

>  <fragmenstein_runtime>  (842) 
4.749126

>  <scratch_subdir>  (842) 
/opt/xchem-fragalysis-2/maxwin/BulkDock/SCRATCH/601530/JACGMNOJMMBRFC-UHFFFAOYSA-N-P8-P8-P48-601530

>  <HIPPO Compound ID>  (842) 
145888

>  <rmsd(smina/fragmenstein)>  (842) 
2.234

>  <distance_score>  (842) 
1.124418

>  <orig_smiles>  (842) 
COC(=O)C(C)(Cc1ccc(F)cc1)NC(=O)c1cccc2c3c([nH]c12)CCC3

>  <fragmenstein_mode>  (842) 
expansion

>  <inchikey>  (842) 
JACGMNOJMMBRFC-UHFFFAOYSA-N

>  <ref_pdb>  (842) 
Z0089a

>  <GNINA pK>  (842) 
nan

>  <gnina_score_min>  (842) 
5.209

>  <tags>  (842) 
xx01zvns2b_c1_elab_bulkdock_input,openbind_xx01zvns2b_c1_elab_nonasap_filtered_scored_top80percent,openbind_xx01zvns2b_c1_elab_chemspace_filtered_scored_top80percent,fragmenstein_placed,openbind_xx01zvns2b_c1_elab_chemspace_filtered_scored,openbind_xx01zvns2b_c1_elab_chemspace_filtered_scored_top40percent,openbind_xx01zvns2b_c1_elab_chemspace_filtered_scored_top20percent,openbind_xx01zvns2b_c1_elab_chemspace_filtered_scored_top60percent,openbind_xx01zvns2b_c1_elabs_filtered

>  <smiles>  (842) 
COC(=O)C(C)(Cc1ccc(F)cc1)NC(=O)c1cccc2c3c([nH]c12)CCC3

>  <subsites>  (842) 
1 - Z4590/B/203/1

>  <gnina_score>  (842) 
5.152

>  <HIPPO Pose ID>  (842) 
84879

>  <ref_mols>  (842) 
Z0101a,Z0827a

>  <energy_score>  (842) 
-28.720481

>  <inspiration_score>  (842) 
None

>  <smina_score_min>  (842) 
-5.531

>  <fragmenstein_error>  (842) 


>  <name>  (842) 
JACGMNOJMMBRFC-UHFFFAOYSA-N-P8-P8-P48-601530

$$$$
HUEBXJIZLLPOHQ-UHFFFAOYSA-N-P8-P8-P48-601530
     RDKit          3D

 29 31  0  0  0  0  0  0  0  0999 V2000
   -6.1194    5.5860  -11.4745 C   0  0  0  0  0  0  0  0  0  0  0  0
   -5.5974    6.1528  -12.7873 C   0  0  0  0  0  0  0  0  0  0  0  0
   -6.3501    5.6658  -13.9795 C   0  0  0  0  0  0  0  0  0  0  0  0
   -7.6286    5.1663  -14.1136 C   0  0  0  0  0  0  0  0  0  0  0  0
   -7.8244    4.8226  -15.4755 C   0  0  0  0  0  0  0  0  0  0  0  0
   -8.8976    4.2790  -16.1844 C   0  0  0  0  0  0  0  0  0  0  0  0
   -8.7919    4.1393  -17.5643 C   0  0  0  0  0  0  0  0  0  0  0  0
  -10.1874    3.6813  -18.4420 Cl  0  0  0  0  0  0  0  0  0  0  0  0
   -7.6123    4.4312  -18.2459 C   0  0  0  0  0  0  0  0  0  0  0  0
   -6.4981    4.9351  -17.5612 C   0  0  0  0  0  0  0  0  0  0  0  0
   -5.1720    5.2893  -18.1793 C   0  0  0  0  0  0  0  0  0  0  0  0
   -4.2824    5.3990  -17.4313 O   0  0  0  0  0  0  0  0  0  0  0  0
   -5.2275    5.5072  -19.7045 N   0  0  0  0  0  0  0  0  0  0  0  0
   -4.2043    6.0078  -20.6367 C   0  0  1  0  0  0  0  0  0  0  0  0
   -4.0800    7.5135  -20.3505 C   0  0  0  0  0  0  0  0  0  0  0  0
   -2.8751    5.2046  -20.4634 C   0  0  0  0  0  0  0  0  0  0  0  0
   -1.6333    6.0108  -20.1382 C   0  0  0  0  0  0  0  0  0  0  0  0
   -0.8548    6.5651  -21.1670 C   0  0  0  0  0  0  0  0  0  0  0  0
    0.2897    7.3043  -20.8660 C   0  0  0  0  0  0  0  0  0  0  0  0
    0.6543    7.4922  -19.5388 C   0  0  0  0  0  0  0  0  0  0  0  0
    1.7541    8.2006  -19.2502 F   0  0  0  0  0  0  0  0  0  0  0  0
   -0.1029    6.9544  -18.5057 C   0  0  0  0  0  0  0  0  0  0  0  0
   -1.2462    6.2133  -18.8049 C   0  0  0  0  0  0  0  0  0  0  0  0
   -4.6928    5.7554  -22.0854 C   0  0  0  0  0  0  0  0  0  0  0  0
   -5.1280    4.6816  -22.4906 O   0  0  0  0  0  0  0  0  0  0  0  0
   -4.5474    6.8656  -22.8656 O   0  0  0  0  0  0  0  0  0  0  0  0
   -4.9842    6.7347  -24.2178 C   0  0  0  0  0  0  0  0  0  0  0  0
   -6.6596    5.1342  -16.1678 C   0  0  0  0  0  0  0  0  0  0  0  0
   -5.7754    5.6297  -15.2291 N   0  0  0  0  0  0  0  0  0  0  0  0
  1  2  1  0
  2  3  1  0
  3  4  2  0
  4  5  1  0
  5  6  2  0
  6  7  1  0
  7  8  1  0
  7  9  2  0
  9 10  1  0
 10 11  1  0
 11 12  2  0
 11 13  1  0
 13 14  1  0
 14 15  1  6
 14 16  1  0
 16 17  1  0
 17 18  2  0
 18 19  1  0
 19 20  2  0
 20 21  1  0
 20 22  1  0
 22 23  2  0
 14 24  1  0
 24 25  2  0
 24 26  1  0
 26 27  1  0
 10 28  2  0
 28 29  1  0
 29  3  1  0
 28  5  1  0
 23 17  1  0
M  END
>  <fragmenstein_outcome>  (843) 
acceptable

>  <exports>  (843) 
['/opt/xchem-fragalysis-2/maxwin/BulkDock/OUTPUTS/xx01zvns2b_c1_elab_bulkdock_input_1GFT1FD.sdf', '/opt/xchem-fragalysis-2/maxwin/openbind-hippo/xx01zvns2b/cycle_01/syndirella/elabs/openbind_xx01zvns2b_c1_elab_chemspace_filtered.sdf']

>  <Energy>  (843) 
76.475042

>  <alias>  (843) 
HUEBXJIZLLPOHQ-UHFFFAOYSA-N-P8-P8-P48-601530

>  <fragmenstein_runtime>  (843) 
3.863982

>  <scratch_subdir>  (843) 
/opt/xchem-fragalysis-2/maxwin/BulkDock/SCRATCH/601530/HUEBXJIZLLPOHQ-UHFFFAOYSA-N-P8-P8-P48-601530

>  <HIPPO Compound ID>  (843) 
145889

>  <rmsd(smina/fragmenstein)>  (843) 
1.527

>  <distance_score>  (843) 
0.693042

>  <orig_smiles>  (843) 
CCc1cc2cc(Cl)cc(C(=O)NC(C)(Cc3ccc(F)cc3)C(=O)OC)c2[nH]1

>  <fragmenstein_mode>  (843) 
expansion

>  <inchikey>  (843) 
HUEBXJIZLLPOHQ-UHFFFAOYSA-N

>  <ref_pdb>  (843) 
Z0089a

>  <GNINA pK>  (843) 
nan

>  <gnina_score_min>  (843) 
5.4

>  <tags>  (843) 
xx01zvns2b_c1_elab_bulkdock_input,openbind_xx01zvns2b_c1_elab_nonasap_filtered_scored_top80percent,BulkDock Fragalysis export,openbind_xx01zvns2b_c1_elab_chemspace_filtered_scored_top80percent,fragmenstein_placed,openbind_xx01zvns2b_c1_elab_chemspace_filtered_scored,openbind_xx01zvns2b_c1_elab_chemspace_filtered_scored_top40percent,openbind_xx01zvns2b_c1_elab_chemspace_filtered_scored_top20percent,openbind_xx01zvns2b_c1_elab_chemspace_filtered_scored_top60percent,openbind_xx01zvns2b_c1_elabs_filtered

>  <smiles>  (843) 
CCc1cc2cc(Cl)cc(C(=O)NC(C)(Cc3ccc(F)cc3)C(=O)OC)c2[nH]1

>  <subsites>  (843) 
1 - Z4590/B/203/1

>  <gnina_score>  (843) 
5.487

>  <HIPPO Pose ID>  (843) 
84881

>  <ref_mols>  (843) 
Z0101a,Z0827a

>  <energy_score>  (843) 
-14.887831

>  <inspiration_score>  (843) 
None

>  <smina_score_min>  (843) 
-6.192

>  <fragmenstein_error>  (843) 


>  <name>  (843) 
HUEBXJIZLLPOHQ-UHFFFAOYSA-N-P8-P8-P48-601530

$$$$
JVXAIRBOHXHWEX-UHFFFAOYSA-N-P8-P8-P48-601530
     RDKit          3D

 29 31  0  0  0  0  0  0  0  0999 V2000
   -4.8453    9.3193  -20.5299 C   0  0  0  0  0  0  0  0  0  0  0  0
   -5.0128    7.9033  -20.4697 O   0  0  0  0  0  0  0  0  0  0  0  0
   -3.8597    7.2146  -20.7201 C   0  0  0  0  0  0  0  0  0  0  0  0
   -2.8273    7.7565  -21.1075 O   0  0  0  0  0  0  0  0  0  0  0  0
   -4.0234    5.6773  -20.5497 C   0  0  2  0  0  0  0  0  0  0  0  0
   -2.6881    5.1011  -20.0644 C   0  0  0  0  0  0  0  0  0  0  0  0
   -4.4681    5.0458  -21.8952 C   0  0  0  0  0  0  0  0  0  0  0  0
   -3.8953    5.6208  -23.1650 C   0  0  0  0  0  0  0  0  0  0  0  0
   -4.6329    6.5506  -23.9171 C   0  0  0  0  0  0  0  0  0  0  0  0
   -4.1037    7.0847  -25.0921 C   0  0  0  0  0  0  0  0  0  0  0  0
   -2.8373    6.6965  -25.5114 C   0  0  0  0  0  0  0  0  0  0  0  0
   -2.3298    7.2096  -26.6400 F   0  0  0  0  0  0  0  0  0  0  0  0
   -2.0901    5.7827  -24.7789 C   0  0  0  0  0  0  0  0  0  0  0  0
   -2.6184    5.2429  -23.6061 C   0  0  0  0  0  0  0  0  0  0  0  0
   -5.0412    5.3415  -19.5419 N   0  0  0  0  0  0  0  0  0  0  0  0
   -5.3311    5.9666  -18.1710 C   0  0  0  0  0  0  0  0  0  0  0  0
   -4.8621    6.8964  -17.6515 O   0  0  0  0  0  0  0  0  0  0  0  0
   -6.3903    5.2077  -17.4373 C   0  0  0  0  0  0  0  0  0  0  0  0
   -7.5310    4.7463  -18.1193 C   0  0  0  0  0  0  0  0  0  0  0  0
   -8.6079    4.1903  -17.4422 C   0  0  0  0  0  0  0  0  0  0  0  0
   -8.5896    4.1131  -16.0521 C   0  0  0  0  0  0  0  0  0  0  0  0
   -7.4572    4.5403  -15.3277 C   0  0  0  0  0  0  0  0  0  0  0  0
   -7.1657    4.6215  -13.9321 C   0  0  0  0  0  0  0  0  0  0  0  0
   -8.0074    4.2743  -12.8030 C   0  0  0  0  0  0  0  0  0  0  0  0
   -7.7454    4.5995  -11.6478 O   0  0  0  0  0  0  0  0  0  0  0  0
   -5.8869    5.1217  -13.8214 C   0  0  0  0  0  0  0  0  0  0  0  0
   -5.3779    5.3035  -15.0786 N   0  0  0  0  0  0  0  0  0  0  0  0
   -3.9862    5.6345  -15.3019 C   0  0  0  0  0  0  0  0  0  0  0  0
   -6.3512    5.0518  -16.0303 C   0  0  0  0  0  0  0  0  0  0  0  0
  1  2  1  0
  2  3  1  0
  3  4  2  0
  3  5  1  0
  5  6  1  1
  5  7  1  0
  7  8  1  0
  8  9  2  0
  9 10  1  0
 10 11  2  0
 11 12  1  0
 11 13  1  0
 13 14  2  0
  5 15  1  0
 15 16  1  0
 16 17  2  0
 16 18  1  0
 18 19  2  0
 19 20  1  0
 20 21  2  0
 21 22  1  0
 22 23  1  0
 23 24  1  0
 24 25  2  0
 23 26  2  0
 26 27  1  0
 27 28  1  0
 27 29  1  0
 14  8  1  0
 29 18  1  0
 29 22  2  0
M  END
>  <fragmenstein_outcome>  (844) 
acceptable

>  <exports>  (844) 
['/opt/xchem-fragalysis-2/maxwin/BulkDock/OUTPUTS/xx01zvns2b_c1_elab_bulkdock_input_1GFT1FD.sdf', '/opt/xchem-fragalysis-2/maxwin/openbind-hippo/xx01zvns2b/cycle_01/syndirella/elabs/openbind_xx01zvns2b_c1_elab_chemspace_filtered.sdf']

>  <Energy>  (844) 
114.012015

>  <alias>  (844) 
JVXAIRBOHXHWEX-UHFFFAOYSA-N-P8-P8-P48-601530

>  <fragmenstein_runtime>  (844) 
4.222229

>  <scratch_subdir>  (844) 
/opt/xchem-fragalysis-2/maxwin/BulkDock/SCRATCH/601530/JVXAIRBOHXHWEX-UHFFFAOYSA-N-P8-P8-P48-601530

>  <HIPPO Compound ID>  (844) 
145891

>  <rmsd(smina/fragmenstein)>  (844) 
2.031

>  <distance_score>  (844) 
0.874909

>  <orig_smiles>  (844) 
COC(=O)C(C)(Cc1ccc(F)cc1)NC(=O)c1cccc2c(C=O)cn(C)c12

>  <fragmenstein_mode>  (844) 
expansion

>  <inchikey>  (844) 
JVXAIRBOHXHWEX-UHFFFAOYSA-N

>  <ref_pdb>  (844) 
Z0089a

>  <GNINA pK>  (844) 
nan

>  <gnina_score_min>  (844) 
5.22

>  <tags>  (844) 
xx01zvns2b_c1_elab_bulkdock_input,openbind_xx01zvns2b_c1_elab_nonasap_filtered_scored_top80percent,BulkDock Fragalysis export,openbind_xx01zvns2b_c1_elab_chemspace_filtered_scored_top80percent,fragmenstein_placed,openbind_xx01zvns2b_c1_elab_chemspace_filtered_scored,openbind_xx01zvns2b_c1_elab_chemspace_filtered_scored_top40percent,openbind_xx01zvns2b_c1_elab_chemspace_filtered_scored_top20percent,openbind_xx01zvns2b_c1_elab_chemspace_filtered_scored_top60percent,openbind_xx01zvns2b_c1_elabs_filtered

>  <smiles>  (844) 
COC(=O)C(C)(Cc1ccc(F)cc1)NC(=O)c1cccc2c(C=O)cn(C)c12

>  <subsites>  (844) 
1 - Z4590/B/203/1

>  <gnina_score>  (844) 
4.968

>  <HIPPO Pose ID>  (844) 
84885

>  <ref_mols>  (844) 
Z0101a,Z0827a

>  <energy_score>  (844) 
-20.065567

>  <inspiration_score>  (844) 
None

>  <smina_score_min>  (844) 
-4.16

>  <fragmenstein_error>  (844) 


>  <name>  (844) 
JVXAIRBOHXHWEX-UHFFFAOYSA-N-P8-P8-P48-601530

$$$$
LCZHBEWDUSYCBU-UHFFFAOYSA-N-P8-P8-P48-601530
     RDKit          3D

 29 31  0  0  0  0  0  0  0  0999 V2000
   -2.6732    9.4455  -21.6849 C   0  0  0  0  0  0  0  0  0  0  0  0
   -2.7198    8.0329  -21.4911 O   0  0  0  0  0  0  0  0  0  0  0  0
   -3.9495    7.5471  -21.1585 C   0  0  0  0  0  0  0  0  0  0  0  0
   -4.9523    8.2484  -21.0335 O   0  0  0  0  0  0  0  0  0  0  0  0
   -3.9422    6.0050  -21.0225 C   0  0  2  0  0  0  0  0  0  0  0  0
   -2.5650    5.4412  -20.6444 C   0  0  0  0  0  0  0  0  0  0  0  0
   -4.4766    5.3496  -22.3149 C   0  0  0  0  0  0  0  0  0  0  0  0
   -3.8858    5.8585  -23.6059 C   0  0  0  0  0  0  0  0  0  0  0  0
   -2.6519    5.3773  -24.0710 C   0  0  0  0  0  0  0  0  0  0  0  0
   -2.1098    5.8610  -25.2620 C   0  0  0  0  0  0  0  0  0  0  0  0
   -2.8007    6.8205  -25.9911 C   0  0  0  0  0  0  0  0  0  0  0  0
   -2.2783    7.2823  -27.1347 F   0  0  0  0  0  0  0  0  0  0  0  0
   -4.0247    7.3079  -25.5514 C   0  0  0  0  0  0  0  0  0  0  0  0
   -4.5675    6.8299  -24.3585 C   0  0  0  0  0  0  0  0  0  0  0  0
   -4.8759    5.7026  -19.9377 N   0  0  0  0  0  0  0  0  0  0  0  0
   -4.6819    5.7386  -18.4166 C   0  0  0  0  0  0  0  0  0  0  0  0
   -3.7260    5.9402  -17.7816 O   0  0  0  0  0  0  0  0  0  0  0  0
   -5.9279    5.3817  -17.6690 C   0  0  0  0  0  0  0  0  0  0  0  0
   -7.0173    4.6895  -18.2214 C   0  0  0  0  0  0  0  0  0  0  0  0
   -8.0861    4.2972  -17.4314 C   0  0  0  0  0  0  0  0  0  0  0  0
   -8.0862    4.5574  -16.0552 C   0  0  0  0  0  0  0  0  0  0  0  0
   -9.1158    3.9282  -15.2067 C   0  0  0  0  0  0  0  0  0  0  0  0
   -7.0316    5.2786  -15.4685 C   0  0  0  0  0  0  0  0  0  0  0  0
   -6.7157    5.6919  -14.1371 C   0  0  0  0  0  0  0  0  0  0  0  0
   -7.4646    5.4786  -12.9342 C   0  0  0  0  0  0  0  0  0  0  0  0
   -8.0490    5.3659  -11.9376 N   0  0  0  0  0  0  0  0  0  0  0  0
   -5.5101    6.3561  -14.1884 C   0  0  0  0  0  0  0  0  0  0  0  0
   -5.0630    6.3059  -15.4814 N   0  0  0  0  0  0  0  0  0  0  0  0
   -5.9821    5.6697  -16.2900 C   0  0  0  0  0  0  0  0  0  0  0  0
  1  2  1  0
  2  3  1  0
  3  4  2  0
  3  5  1  0
  5  6  1  1
  5  7  1  0
  7  8  1  0
  8  9  2  0
  9 10  1  0
 10 11  2  0
 11 12  1  0
 11 13  1  0
 13 14  2  0
  5 15  1  0
 15 16  1  0
 16 17  2  0
 16 18  1  0
 18 19  2  0
 19 20  1  0
 20 21  2  0
 21 22  1  0
 21 23  1  0
 23 24  1  0
 24 25  1  0
 25 26  3  0
 24 27  2  0
 27 28  1  0
 28 29  1  0
 14  8  1  0
 29 18  1  0
 29 23  2  0
M  END
>  <fragmenstein_outcome>  (845) 
too moved

>  <exports>  (845) 
['/opt/xchem-fragalysis-2/maxwin/openbind-hippo/xx01zvns2b/cycle_01/syndirella/elabs/openbind_xx01zvns2b_c1_elab_chemspace_filtered.sdf']

>  <Energy>  (845) 
107.133019

>  <alias>  (845) 
LCZHBEWDUSYCBU-UHFFFAOYSA-N-P8-P8-P48-601530

>  <fragmenstein_runtime>  (845) 
5.526445

>  <scratch_subdir>  (845) 
/opt/xchem-fragalysis-2/maxwin/BulkDock/SCRATCH/601530/LCZHBEWDUSYCBU-UHFFFAOYSA-N-P8-P8-P48-601530

>  <HIPPO Compound ID>  (845) 
145892

>  <rmsd(smina/fragmenstein)>  (845) 
2.387

>  <distance_score>  (845) 
1.088718

>  <orig_smiles>  (845) 
COC(=O)C(C)(Cc1ccc(F)cc1)NC(=O)c1ccc(C)c2c(C#N)c[nH]c12

>  <fragmenstein_mode>  (845) 
expansion

>  <inchikey>  (845) 
LCZHBEWDUSYCBU-UHFFFAOYSA-N

>  <ref_pdb>  (845) 
Z0089a

>  <GNINA pK>  (845) 
nan

>  <gnina_score_min>  (845) 
5.223

>  <tags>  (845) 
xx01zvns2b_c1_elab_bulkdock_input,openbind_xx01zvns2b_c1_elab_nonasap_filtered_scored_top80percent,openbind_xx01zvns2b_c1_elab_chemspace_filtered_scored_top80percent,fragmenstein_placed,openbind_xx01zvns2b_c1_elab_chemspace_filtered_scored,openbind_xx01zvns2b_c1_elab_chemspace_filtered_scored_top40percent,openbind_xx01zvns2b_c1_elab_chemspace_filtered_scored_top20percent,openbind_xx01zvns2b_c1_elab_chemspace_filtered_scored_top60percent,openbind_xx01zvns2b_c1_elabs_filtered

>  <smiles>  (845) 
COC(=O)C(C)(Cc1ccc(F)cc1)NC(=O)c1ccc(C)c2c(C#N)c[nH]c12

>  <subsites>  (845) 
1 - Z4590/B/203/1

>  <gnina_score>  (845) 
5.142

>  <HIPPO Pose ID>  (845) 
84887

>  <ref_mols>  (845) 
Z0101a,Z0827a

>  <energy_score>  (845) 
-12.47679

>  <inspiration_score>  (845) 
None

>  <smina_score_min>  (845) 
-5.323

>  <fragmenstein_error>  (845) 


>  <name>  (845) 
LCZHBEWDUSYCBU-UHFFFAOYSA-N-P8-P8-P48-601530

$$$$
VWGBZMNGSGRBAO-UHFFFAOYSA-N-P8-P8-P48-601530
     RDKit          3D

 29 31  0  0  0  0  0  0  0  0999 V2000
   -1.6440    9.2441  -21.6559 C   0  0  0  0  0  0  0  0  0  0  0  0
   -1.7729    7.8520  -21.3701 O   0  0  0  0  0  0  0  0  0  0  0  0
   -2.9502    7.5119  -20.7682 C   0  0  0  0  0  0  0  0  0  0  0  0
   -3.8361    8.3155  -20.4833 O   0  0  0  0  0  0  0  0  0  0  0  0
   -3.0528    5.9832  -20.5561 C   0  0  2  0  0  0  0  0  0  0  0  0
   -1.7801    5.4622  -19.8911 C   0  0  0  0  0  0  0  0  0  0  0  0
   -3.3022    5.2100  -21.8913 C   0  0  0  0  0  0  0  0  0  0  0  0
   -3.8302    5.9871  -23.0788 C   0  0  0  0  0  0  0  0  0  0  0  0
   -5.0873    6.5984  -23.0587 C   0  0  0  0  0  0  0  0  0  0  0  0
   -5.5400    7.3223  -24.1633 C   0  0  0  0  0  0  0  0  0  0  0  0
   -4.7383    7.4327  -25.2912 C   0  0  0  0  0  0  0  0  0  0  0  0
   -5.1729    8.1358  -26.3449 F   0  0  0  0  0  0  0  0  0  0  0  0
   -3.4881    6.8328  -25.3361 C   0  0  0  0  0  0  0  0  0  0  0  0
   -3.0339    6.1115  -24.2315 C   0  0  0  0  0  0  0  0  0  0  0  0
   -4.1968    5.7386  -19.6779 N   0  0  0  0  0  0  0  0  0  0  0  0
   -4.2525    5.2244  -18.2200 C   0  0  0  0  0  0  0  0  0  0  0  0
   -3.3923    4.9896  -17.4678 O   0  0  0  0  0  0  0  0  0  0  0  0
   -5.6543    4.9261  -17.8468 C   0  0  0  0  0  0  0  0  0  0  0  0
   -6.5184    4.4473  -18.8368 C   0  0  0  0  0  0  0  0  0  0  0  0
   -7.8359    4.1986  -18.5653 C   0  0  0  0  0  0  0  0  0  0  0  0
   -8.3230    4.3793  -17.2783 C   0  0  0  0  0  0  0  0  0  0  0  0
  -10.1458    4.0151  -17.1964 Br  0  0  0  0  0  0  0  0  0  0  0  0
   -7.4839    4.8106  -16.2167 C   0  0  0  0  0  0  0  0  0  0  0  0
   -7.6242    5.1519  -14.8269 C   0  0  0  0  0  0  0  0  0  0  0  0
   -8.8490    5.2373  -14.0210 C   0  0  0  0  0  0  0  0  0  0  0  0
   -6.3657    5.3783  -14.3078 C   0  0  0  0  0  0  0  0  0  0  0  0
   -5.9706    5.6159  -12.8895 C   0  0  0  0  0  0  0  0  0  0  0  0
   -5.4825    5.3570  -15.3598 N   0  0  0  0  0  0  0  0  0  0  0  0
   -6.1375    5.0414  -16.5320 C   0  0  0  0  0  0  0  0  0  0  0  0
  1  2  1  0
  2  3  1  0
  3  4  2  0
  3  5  1  0
  5  6  1  1
  5  7  1  0
  7  8  1  0
  8  9  2  0
  9 10  1  0
 10 11  2  0
 11 12  1  0
 11 13  1  0
 13 14  2  0
  5 15  1  0
 15 16  1  0
 16 17  2  0
 16 18  1  0
 18 19  2  0
 19 20  1  0
 20 21  2  0
 21 22  1  0
 21 23  1  0
 23 24  1  0
 24 25  1  0
 24 26  2  0
 26 27  1  0
 26 28  1  0
 28 29  1  0
 14  8  1  0
 29 18  1  0
 29 23  2  0
M  END
>  <fragmenstein_outcome>  (846) 
too moved

>  <exports>  (846) 
['/opt/xchem-fragalysis-2/maxwin/openbind-hippo/xx01zvns2b/cycle_01/syndirella/elabs/openbind_xx01zvns2b_c1_elab_chemspace_filtered.sdf']

>  <Energy>  (846) 
108.503143

>  <alias>  (846) 
VWGBZMNGSGRBAO-UHFFFAOYSA-N-P8-P8-P48-601530

>  <fragmenstein_runtime>  (846) 
4.395946

>  <scratch_subdir>  (846) 
/opt/xchem-fragalysis-2/maxwin/BulkDock/SCRATCH/601530/VWGBZMNGSGRBAO-UHFFFAOYSA-N-P8-P8-P48-601530

>  <HIPPO Compound ID>  (846) 
145893

>  <rmsd(smina/fragmenstein)>  (846) 
2.282

>  <distance_score>  (846) 
1.803699

>  <orig_smiles>  (846) 
COC(=O)C(C)(Cc1ccc(F)cc1)NC(=O)c1ccc(Br)c2c(C)c(C)[nH]c12

>  <fragmenstein_mode>  (846) 
expansion

>  <inchikey>  (846) 
VWGBZMNGSGRBAO-UHFFFAOYSA-N

>  <ref_pdb>  (846) 
Z0089a

>  <GNINA pK>  (846) 
nan

>  <gnina_score_min>  (846) 
5.329

>  <tags>  (846) 
xx01zvns2b_c1_elab_bulkdock_input,openbind_xx01zvns2b_c1_elab_nonasap_filtered_scored_top80percent,openbind_xx01zvns2b_c1_elab_chemspace_filtered_scored_top80percent,fragmenstein_placed,openbind_xx01zvns2b_c1_elab_chemspace_filtered_scored,openbind_xx01zvns2b_c1_elab_chemspace_filtered_scored_top40percent,openbind_xx01zvns2b_c1_elab_chemspace_filtered_scored_top20percent,openbind_xx01zvns2b_c1_elab_chemspace_filtered_scored_top60percent,openbind_xx01zvns2b_c1_elabs_filtered

>  <smiles>  (846) 
COC(=O)C(C)(Cc1ccc(F)cc1)NC(=O)c1ccc(Br)c2c(C)c(C)[nH]c12

>  <subsites>  (846) 
1 - Z4590/B/203/1

>  <gnina_score>  (846) 
5.579

>  <HIPPO Pose ID>  (846) 
84889

>  <ref_mols>  (846) 
Z0101a,Z0827a

>  <energy_score>  (846) 
-9.966888

>  <inspiration_score>  (846) 
None

>  <smina_score_min>  (846) 
-5.622

>  <fragmenstein_error>  (846) 


>  <name>  (846) 
VWGBZMNGSGRBAO-UHFFFAOYSA-N-P8-P8-P48-601530

$$$$
AMIYWLWIULQINH-UHFFFAOYSA-N-P8-P8-P48-601530
     RDKit          3D

 30 33  0  0  0  0  0  0  0  0999 V2000
   -4.8293    9.4839  -20.1014 C   0  0  0  0  0  0  0  0  0  0  0  0
   -5.0078    8.0678  -20.1181 O   0  0  0  0  0  0  0  0  0  0  0  0
   -3.9979    7.3945  -20.7547 C   0  0  0  0  0  0  0  0  0  0  0  0
   -3.0788    7.9676  -21.3308 O   0  0  0  0  0  0  0  0  0  0  0  0
   -4.1782    5.8527  -20.6932 C   0  0  2  0  0  0  0  0  0  0  0  0
   -2.8362    5.2470  -20.2511 C   0  0  0  0  0  0  0  0  0  0  0  0
   -4.6303    5.3006  -22.0675 C   0  0  0  0  0  0  0  0  0  0  0  0
   -3.8238    5.6713  -23.2864 C   0  0  0  0  0  0  0  0  0  0  0  0
   -4.2750    6.6788  -24.1558 C   0  0  0  0  0  0  0  0  0  0  0  0
   -3.5306    7.0251  -25.2845 C   0  0  0  0  0  0  0  0  0  0  0  0
   -2.3330    6.3711  -25.5435 C   0  0  0  0  0  0  0  0  0  0  0  0
   -1.6177    6.7057  -26.6255 F   0  0  0  0  0  0  0  0  0  0  0  0
   -1.8685    5.3725  -24.6983 C   0  0  0  0  0  0  0  0  0  0  0  0
   -2.6167    5.0170  -23.5755 C   0  0  0  0  0  0  0  0  0  0  0  0
   -5.2304    5.5230  -19.7106 N   0  0  0  0  0  0  0  0  0  0  0  0
   -5.1218    5.0404  -18.2532 C   0  0  0  0  0  0  0  0  0  0  0  0
   -4.1861    4.8996  -17.5712 O   0  0  0  0  0  0  0  0  0  0  0  0
   -6.4609    4.8036  -17.6257 C   0  0  0  0  0  0  0  0  0  0  0  0
   -7.5983    4.3416  -18.3071 C   0  0  0  0  0  0  0  0  0  0  0  0
   -8.7913    4.0910  -17.6292 C   0  0  0  0  0  0  0  0  0  0  0  0
   -8.8825    4.3059  -16.2513 C   0  0  0  0  0  0  0  0  0  0  0  0
   -7.7772    4.8051  -15.5427 C   0  0  0  0  0  0  0  0  0  0  0  0
   -7.5347    5.1645  -14.1893 C   0  0  0  0  0  0  0  0  0  0  0  0
   -6.1982    5.4628  -14.0716 C   0  0  0  0  0  0  0  0  0  0  0  0
   -5.6371    5.3992  -15.3137 N   0  0  0  0  0  0  0  0  0  0  0  0
   -6.5884    5.0137  -16.2392 C   0  0  0  0  0  0  0  0  0  0  0  0
   -5.4774    5.8025  -12.8166 C   0  0  0  0  0  0  0  0  0  0  0  0
   -6.3285    5.4202  -11.6008 C   0  0  0  0  0  0  0  0  0  0  0  0
   -7.7853    5.8529  -11.7964 C   0  0  0  0  0  0  0  0  0  0  0  0
   -8.4390    5.1774  -13.0164 C   0  0  0  0  0  0  0  0  0  0  0  0
  1  2  1  0
  2  3  1  0
  3  4  2  0
  3  5  1  0
  5  6  1  1
  5  7  1  0
  7  8  1  0
  8  9  2  0
  9 10  1  0
 10 11  2  0
 11 12  1  0
 11 13  1  0
 13 14  2  0
  5 15  1  0
 15 16  1  0
 16 17  2  0
 16 18  1  0
 18 19  2  0
 19 20  1  0
 20 21  2  0
 21 22  1  0
 22 23  1  0
 23 24  2  0
 24 25  1  0
 25 26  1  0
 24 27  1  0
 27 28  1  0
 28 29  1  0
 29 30  1  0
 14  8  1  0
 26 18  1  0
 26 22  2  0
 30 23  1  0
M  END
>  <fragmenstein_outcome>  (847) 
too moved

>  <exports>  (847) 
['/opt/xchem-fragalysis-2/maxwin/openbind-hippo/xx01zvns2b/cycle_01/syndirella/elabs/openbind_xx01zvns2b_c1_elab_chemspace_filtered.sdf']

>  <Energy>  (847) 
94.507688

>  <alias>  (847) 
AMIYWLWIULQINH-UHFFFAOYSA-N-P8-P8-P48-601530

>  <fragmenstein_runtime>  (847) 
5.450104

>  <scratch_subdir>  (847) 
/opt/xchem-fragalysis-2/maxwin/BulkDock/SCRATCH/601530/AMIYWLWIULQINH-UHFFFAOYSA-N-P8-P8-P48-601530

>  <HIPPO Compound ID>  (847) 
145895

>  <rmsd(smina/fragmenstein)>  (847) 
1.983

>  <distance_score>  (847) 
1.214068

>  <orig_smiles>  (847) 
COC(=O)C(C)(Cc1ccc(F)cc1)NC(=O)c1cccc2c3c([nH]c12)CCCC3

>  <fragmenstein_mode>  (847) 
expansion

>  <inchikey>  (847) 
AMIYWLWIULQINH-UHFFFAOYSA-N

>  <ref_pdb>  (847) 
Z0089a

>  <GNINA pK>  (847) 
nan

>  <gnina_score_min>  (847) 
5.35

>  <tags>  (847) 
xx01zvns2b_c1_elab_bulkdock_input,openbind_xx01zvns2b_c1_elab_nonasap_filtered_scored_top80percent,openbind_xx01zvns2b_c1_elab_chemspace_filtered_scored_top80percent,fragmenstein_placed,openbind_xx01zvns2b_c1_elab_chemspace_filtered_scored,openbind_xx01zvns2b_c1_elab_chemspace_filtered_scored_top40percent,openbind_xx01zvns2b_c1_elab_chemspace_filtered_scored_top20percent,openbind_xx01zvns2b_c1_elab_chemspace_filtered_scored_top60percent,openbind_xx01zvns2b_c1_elabs_filtered

>  <smiles>  (847) 
COC(=O)C(C)(Cc1ccc(F)cc1)NC(=O)c1cccc2c3c([nH]c12)CCCC3

>  <subsites>  (847) 
1 - Z4590/B/203/1

>  <gnina_score>  (847) 
5.253

>  <HIPPO Pose ID>  (847) 
84893

>  <ref_mols>  (847) 
Z0101a,Z0827a

>  <energy_score>  (847) 
-21.846454

>  <inspiration_score>  (847) 
None

>  <smina_score_min>  (847) 
-5.658

>  <fragmenstein_error>  (847) 


>  <name>  (847) 
AMIYWLWIULQINH-UHFFFAOYSA-N-P8-P8-P48-601530

$$$$
INYWNEVOOHYGLT-UHFFFAOYSA-N-P8-P8-P48-601530
     RDKit          3D

 30 33  0  0  0  0  0  0  0  0999 V2000
   -6.8334    7.9134  -12.2637 C   0  0  0  0  0  0  0  0  0  0  0  0
   -6.2051    6.7884  -11.4537 C   0  0  0  0  0  0  0  0  0  0  0  0
   -6.3264    5.5834  -12.2060 O   0  0  0  0  0  0  0  0  0  0  0  0
   -5.4828    5.5444  -13.2709 C   0  0  0  0  0  0  0  0  0  0  0  0
   -4.3125    5.9007  -13.2569 O   0  0  0  0  0  0  0  0  0  0  0  0
   -6.2087    5.1168  -14.4307 C   0  0  0  0  0  0  0  0  0  0  0  0
   -7.5276    4.7233  -14.5719 C   0  0  0  0  0  0  0  0  0  0  0  0
   -7.7790    4.5157  -15.9511 C   0  0  0  0  0  0  0  0  0  0  0  0
   -8.9095    4.1241  -16.6841 C   0  0  0  0  0  0  0  0  0  0  0  0
   -8.8120    4.0035  -18.0705 C   0  0  0  0  0  0  0  0  0  0  0  0
   -7.6054    4.2635  -18.7236 C   0  0  0  0  0  0  0  0  0  0  0  0
   -6.4704    4.7014  -18.0306 C   0  0  0  0  0  0  0  0  0  0  0  0
   -5.1504    5.0412  -18.6608 C   0  0  0  0  0  0  0  0  0  0  0  0
   -4.2037    4.9468  -17.9840 O   0  0  0  0  0  0  0  0  0  0  0  0
   -5.2991    5.5646  -20.1054 N   0  0  0  0  0  0  0  0  0  0  0  0
   -4.2761    6.0035  -21.0773 C   0  0  0  0  0  0  0  0  0  0  0  0
   -3.4365    7.1593  -20.5489 C   0  0  0  0  0  0  0  0  0  0  0  0
   -4.2544    8.3716  -20.1736 C   0  0  0  0  0  0  0  0  0  0  0  0
   -4.6202    8.5962  -18.8367 C   0  0  0  0  0  0  0  0  0  0  0  0
   -5.3432    9.7366  -18.4858 C   0  0  0  0  0  0  0  0  0  0  0  0
   -5.7016   10.6508  -19.4703 C   0  0  0  0  0  0  0  0  0  0  0  0
   -6.4238   11.7271  -19.1349 F   0  0  0  0  0  0  0  0  0  0  0  0
   -5.3470   10.4524  -20.7969 C   0  0  0  0  0  0  0  0  0  0  0  0
   -4.6296    9.3124  -21.1380 C   0  0  0  0  0  0  0  0  0  0  0  0
   -4.2962    9.1229  -22.4217 F   0  0  0  0  0  0  0  0  0  0  0  0
   -3.3989    4.8386  -21.5989 C   0  0  0  0  0  0  0  0  0  0  0  0
   -4.2959    4.6695  -22.7441 O   0  0  0  0  0  0  0  0  0  0  0  0
   -4.7447    6.0394  -22.5474 C   0  0  0  0  0  0  0  0  0  0  0  0
   -6.5970    4.7907  -16.6332 C   0  0  0  0  0  0  0  0  0  0  0  0
   -5.6551    5.1132  -15.6846 N   0  0  0  0  0  0  0  0  0  0  0  0
  1  2  1  0
  2  3  1  0
  3  4  1  0
  4  5  2  0
  4  6  1  0
  6  7  2  0
  7  8  1  0
  8  9  2  0
  9 10  1  0
 10 11  2  0
 11 12  1  0
 12 13  1  0
 13 14  2  0
 13 15  1  0
 15 16  1  0
 16 17  1  0
 17 18  1  0
 18 19  2  0
 19 20  1  0
 20 21  2  0
 21 22  1  0
 21 23  1  0
 23 24  2  0
 24 25  1  0
 16 26  1  0
 26 27  1  0
 27 28  1  0
 12 29  2  0
 29 30  1  0
 30  6  1  0
 29  8  1  0
 28 16  1  0
 24 18  1  0
M  END
>  <fragmenstein_outcome>  (848) 
too moved

>  <exports>  (848) 
['/opt/xchem-fragalysis-2/maxwin/openbind-hippo/xx01zvns2b/cycle_01/syndirella/elabs/openbind_xx01zvns2b_c1_elab_chemspace_filtered.sdf']

>  <Energy>  (848) 
57.440369

>  <alias>  (848) 
INYWNEVOOHYGLT-UHFFFAOYSA-N-P8-P8-P48-601530

>  <fragmenstein_runtime>  (848) 
5.260297

>  <scratch_subdir>  (848) 
/opt/xchem-fragalysis-2/maxwin/BulkDock/SCRATCH/601530/INYWNEVOOHYGLT-UHFFFAOYSA-N-P8-P8-P48-601530

>  <HIPPO Compound ID>  (848) 
145897

>  <rmsd(smina/fragmenstein)>  (848) 
2.535

>  <distance_score>  (848) 
1.289964

>  <orig_smiles>  (848) 
CCOC(=O)c1cc2cccc(C(=O)NC3(Cc4ccc(F)cc4F)COC3)c2[nH]1

>  <fragmenstein_mode>  (848) 
expansion

>  <inchikey>  (848) 
INYWNEVOOHYGLT-UHFFFAOYSA-N

>  <ref_pdb>  (848) 
Z0089a

>  <GNINA pK>  (848) 
nan

>  <gnina_score_min>  (848) 
5.313

>  <tags>  (848) 
xx01zvns2b_c1_elab_bulkdock_input,openbind_xx01zvns2b_c1_elab_nonasap_filtered_scored_top80percent,openbind_xx01zvns2b_c1_elab_chemspace_filtered_scored_top80percent,fragmenstein_placed,openbind_xx01zvns2b_c1_elab_chemspace_filtered_scored,openbind_xx01zvns2b_c1_elab_chemspace_filtered_scored_top40percent,openbind_xx01zvns2b_c1_elab_chemspace_filtered_scored_top20percent,openbind_xx01zvns2b_c1_elab_chemspace_filtered_scored_top60percent,openbind_xx01zvns2b_c1_elabs_filtered

>  <smiles>  (848) 
CCOC(=O)c1cc2cccc(C(=O)NC3(Cc4ccc(F)cc4F)COC3)c2[nH]1

>  <subsites>  (848) 
1 - Z4590/B/203/1

>  <gnina_score>  (848) 
5.216

>  <HIPPO Pose ID>  (848) 
84897

>  <ref_mols>  (848) 
Z0101a,Z0827a

>  <energy_score>  (848) 
-36.161452

>  <inspiration_score>  (848) 
None

>  <smina_score_min>  (848) 
-5.589

>  <fragmenstein_error>  (848) 


>  <name>  (848) 
INYWNEVOOHYGLT-UHFFFAOYSA-N-P8-P8-P48-601530

$$$$
FRSDMJUZNVFIDR-UHFFFAOYSA-N-P8-P8-P48-601530
     RDKit          3D

 31 34  0  0  0  0  0  0  0  0999 V2000
   -2.8455    9.1723  -21.0417 C   0  0  0  0  0  0  0  0  0  0  0  0
   -2.8879    7.7485  -20.9659 O   0  0  0  0  0  0  0  0  0  0  0  0
   -4.1179    7.2301  -20.6842 C   0  0  0  0  0  0  0  0  0  0  0  0
   -5.1211    7.9185  -20.5053 O   0  0  0  0  0  0  0  0  0  0  0  0
   -4.1042    5.6803  -20.6824 C   0  0  2  0  0  0  0  0  0  0  0  0
   -2.7358    5.1274  -20.2596 C   0  0  0  0  0  0  0  0  0  0  0  0
   -4.5284    5.1276  -22.0633 C   0  0  0  0  0  0  0  0  0  0  0  0
   -3.8913    5.7522  -23.2784 C   0  0  0  0  0  0  0  0  0  0  0  0
   -2.6300    5.3275  -23.7231 C   0  0  0  0  0  0  0  0  0  0  0  0
   -2.0455    5.9116  -24.8469 C   0  0  0  0  0  0  0  0  0  0  0  0
   -2.7217    6.9153  -25.5287 C   0  0  0  0  0  0  0  0  0  0  0  0
   -2.1588    7.4746  -26.6078 F   0  0  0  0  0  0  0  0  0  0  0  0
   -3.9728    7.3482  -25.1075 C   0  0  0  0  0  0  0  0  0  0  0  0
   -4.5582    6.7692  -23.9815 C   0  0  0  0  0  0  0  0  0  0  0  0
   -5.1335    5.2837  -19.7107 N   0  0  0  0  0  0  0  0  0  0  0  0
   -5.0073    4.8643  -18.2352 C   0  0  0  0  0  0  0  0  0  0  0  0
   -4.0601    4.6919  -17.5764 O   0  0  0  0  0  0  0  0  0  0  0  0
   -6.3463    4.6975  -17.5905 C   0  0  0  0  0  0  0  0  0  0  0  0
   -7.5021    4.2950  -18.2786 C   0  0  0  0  0  0  0  0  0  0  0  0
   -8.7090    4.1131  -17.6099 C   0  0  0  0  0  0  0  0  0  0  0  0
   -8.7973    4.3525  -16.2368 C   0  0  0  0  0  0  0  0  0  0  0  0
   -7.6700    4.7943  -15.5218 C   0  0  0  0  0  0  0  0  0  0  0  0
   -7.4355    5.1997  -14.1721 C   0  0  0  0  0  0  0  0  0  0  0  0
   -6.0728    5.3648  -14.0274 C   0  0  0  0  0  0  0  0  0  0  0  0
   -5.5097    5.2478  -15.2732 N   0  0  0  0  0  0  0  0  0  0  0  0
   -6.4659    4.9163  -16.2063 C   0  0  0  0  0  0  0  0  0  0  0  0
   -5.2566    5.6446  -12.8084 C   0  0  0  0  0  0  0  0  0  0  0  0
   -5.8678    5.0565  -11.5394 C   0  0  0  0  0  0  0  0  0  0  0  0
   -7.0478    5.8569  -10.9919 C   0  0  0  0  0  0  0  0  0  0  0  0
   -8.0198    6.4009  -12.0371 C   0  0  0  0  0  0  0  0  0  0  0  0
   -8.4453    5.3828  -13.0967 C   0  0  0  0  0  0  0  0  0  0  0  0
  1  2  1  0
  2  3  1  0
  3  4  2  0
  3  5  1  0
  5  6  1  1
  5  7  1  0
  7  8  1  0
  8  9  2  0
  9 10  1  0
 10 11  2  0
 11 12  1  0
 11 13  1  0
 13 14  2  0
  5 15  1  0
 15 16  1  0
 16 17  2  0
 16 18  1  0
 18 19  2  0
 19 20  1  0
 20 21  2  0
 21 22  1  0
 22 23  1  0
 23 24  2  0
 24 25  1  0
 25 26  1  0
 24 27  1  0
 27 28  1  0
 28 29  1  0
 29 30  1  0
 30 31  1  0
 14  8  1  0
 26 18  1  0
 26 22  2  0
 31 23  1  0
M  END
>  <fragmenstein_outcome>  (849) 
too moved

>  <exports>  (849) 
['/opt/xchem-fragalysis-2/maxwin/openbind-hippo/xx01zvns2b/cycle_01/syndirella/elabs/openbind_xx01zvns2b_c1_elab_chemspace_filtered.sdf']

>  <Energy>  (849) 
92.302717

>  <alias>  (849) 
FRSDMJUZNVFIDR-UHFFFAOYSA-N-P8-P8-P48-601530

>  <fragmenstein_runtime>  (849) 
5.457234

>  <scratch_subdir>  (849) 
/opt/xchem-fragalysis-2/maxwin/BulkDock/SCRATCH/601530/FRSDMJUZNVFIDR-UHFFFAOYSA-N-P8-P8-P48-601530

>  <HIPPO Compound ID>  (849) 
145899

>  <rmsd(smina/fragmenstein)>  (849) 
2.068

>  <distance_score>  (849) 
1.269877

>  <orig_smiles>  (849) 
COC(=O)C(C)(Cc1ccc(F)cc1)NC(=O)c1cccc2c3c([nH]c12)CCCCC3

>  <fragmenstein_mode>  (849) 
expansion

>  <inchikey>  (849) 
FRSDMJUZNVFIDR-UHFFFAOYSA-N

>  <ref_pdb>  (849) 
Z0089a

>  <GNINA pK>  (849) 
nan

>  <gnina_score_min>  (849) 
5.476

>  <tags>  (849) 
xx01zvns2b_c1_elab_bulkdock_input,openbind_xx01zvns2b_c1_elab_nonasap_filtered_scored_top80percent,openbind_xx01zvns2b_c1_elab_chemspace_filtered_scored_top80percent,fragmenstein_placed,openbind_xx01zvns2b_c1_elab_chemspace_filtered_scored,openbind_xx01zvns2b_c1_elab_chemspace_filtered_scored_top40percent,openbind_xx01zvns2b_c1_elab_chemspace_filtered_scored_top20percent,openbind_xx01zvns2b_c1_elab_chemspace_filtered_scored_top60percent,openbind_xx01zvns2b_c1_elabs_filtered

>  <smiles>  (849) 
COC(=O)C(C)(Cc1ccc(F)cc1)NC(=O)c1cccc2c3c([nH]c12)CCCCC3

>  <subsites>  (849) 
1 - Z4590/B/203/1

>  <gnina_score>  (849) 
5.392

>  <HIPPO Pose ID>  (849) 
84901

>  <ref_mols>  (849) 
Z0101a,Z0827a

>  <energy_score>  (849) 
-32.484331

>  <inspiration_score>  (849) 
None

>  <smina_score_min>  (849) 
-5.84

>  <fragmenstein_error>  (849) 


>  <name>  (849) 
FRSDMJUZNVFIDR-UHFFFAOYSA-N-P8-P8-P48-601530

$$$$
YSOOFNMTJHRRDL-UHFFFAOYSA-N-P8-P8-P48-601530
     RDKit          3D

 31 33  0  0  0  0  0  0  0  0999 V2000
   -7.8060    3.9223  -11.6390 C   0  0  0  0  0  0  0  0  0  0  0  0
   -7.8041    5.4360  -11.5857 C   0  0  0  0  0  0  0  0  0  0  0  0
   -6.5288    5.9879  -11.9608 O   0  0  0  0  0  0  0  0  0  0  0  0
   -5.9646    6.0904  -13.1972 C   0  0  0  0  0  0  0  0  0  0  0  0
   -4.8550    6.6079  -13.3028 O   0  0  0  0  0  0  0  0  0  0  0  0
   -6.6731    5.5917  -14.3612 C   0  0  0  0  0  0  0  0  0  0  0  0
   -7.9477    5.1229  -14.6272 C   0  0  0  0  0  0  0  0  0  0  0  0
   -8.0264    4.7199  -15.9837 C   0  0  0  0  0  0  0  0  0  0  0  0
   -9.0485    4.1599  -16.7651 C   0  0  0  0  0  0  0  0  0  0  0  0
   -8.8242    3.9366  -18.1203 C   0  0  0  0  0  0  0  0  0  0  0  0
   -7.5866    4.2335  -18.6882 C   0  0  0  0  0  0  0  0  0  0  0  0
   -6.5471    4.8048  -17.9397 C   0  0  0  0  0  0  0  0  0  0  0  0
   -5.2170    5.2054  -18.5027 C   0  0  0  0  0  0  0  0  0  0  0  0
   -4.3267    5.2912  -17.7543 O   0  0  0  0  0  0  0  0  0  0  0  0
   -5.2937    5.5371  -20.0045 N   0  0  0  0  0  0  0  0  0  0  0  0
   -4.3018    6.1446  -20.8982 C   0  0  1  0  0  0  0  0  0  0  0  0
   -4.1746    7.6149  -20.4806 C   0  0  0  0  0  0  0  0  0  0  0  0
   -2.9389    5.4057  -20.7975 C   0  0  0  0  0  0  0  0  0  0  0  0
   -1.8242    6.0658  -21.5916 C   0  0  0  0  0  0  0  0  0  0  0  0
   -0.9238    6.9352  -20.9536 C   0  0  0  0  0  0  0  0  0  0  0  0
    0.0895    7.5608  -21.6803 C   0  0  0  0  0  0  0  0  0  0  0  0
    0.2080    7.3140  -23.0422 C   0  0  0  0  0  0  0  0  0  0  0  0
    1.1789    7.9189  -23.7397 F   0  0  0  0  0  0  0  0  0  0  0  0
   -0.6639    6.4494  -23.6917 C   0  0  0  0  0  0  0  0  0  0  0  0
   -1.6785    5.8226  -22.9674 C   0  0  0  0  0  0  0  0  0  0  0  0
   -4.8318    5.9681  -22.3382 C   0  0  0  0  0  0  0  0  0  0  0  0
   -5.1198    4.8806  -22.8315 O   0  0  0  0  0  0  0  0  0  0  0  0
   -4.9368    7.1556  -23.0010 O   0  0  0  0  0  0  0  0  0  0  0  0
   -5.3453    7.0473  -24.3648 C   0  0  0  0  0  0  0  0  0  0  0  0
   -6.8069    5.0173  -16.5730 C   0  0  0  0  0  0  0  0  0  0  0  0
   -6.0060    5.5225  -15.5754 N   0  0  0  0  0  0  0  0  0  0  0  0
  1  2  1  0
  2  3  1  0
  3  4  1  0
  4  5  2  0
  4  6  1  0
  6  7  2  0
  7  8  1  0
  8  9  2  0
  9 10  1  0
 10 11  2  0
 11 12  1  0
 12 13  1  0
 13 14  2  0
 13 15  1  0
 15 16  1  0
 16 17  1  1
 16 18  1  0
 18 19  1  0
 19 20  2  0
 20 21  1  0
 21 22  2  0
 22 23  1  0
 22 24  1  0
 24 25  2  0
 16 26  1  0
 26 27  2  0
 26 28  1  0
 28 29  1  0
 12 30  2  0
 30 31  1  0
 31  6  1  0
 30  8  1  0
 25 19  1  0
M  END
>  <fragmenstein_outcome>  (850) 
acceptable

>  <exports>  (850) 
['/opt/xchem-fragalysis-2/maxwin/BulkDock/OUTPUTS/xx01zvns2b_c1_elab_bulkdock_input_1GFT1FD.sdf', '/opt/xchem-fragalysis-2/maxwin/openbind-hippo/xx01zvns2b/cycle_01/syndirella/elabs/openbind_xx01zvns2b_c1_elab_chemspace_filtered.sdf']

>  <Energy>  (850) 
88.700259

>  <alias>  (850) 
YSOOFNMTJHRRDL-UHFFFAOYSA-N-P8-P8-P48-601530

>  <fragmenstein_runtime>  (850) 
4.037707

>  <scratch_subdir>  (850) 
/opt/xchem-fragalysis-2/maxwin/BulkDock/SCRATCH/601530/YSOOFNMTJHRRDL-UHFFFAOYSA-N-P8-P8-P48-601530

>  <HIPPO Compound ID>  (850) 
145900

>  <rmsd(smina/fragmenstein)>  (850) 
2.301

>  <distance_score>  (850) 
0.853129

>  <orig_smiles>  (850) 
CCOC(=O)c1cc2cccc(C(=O)NC(C)(Cc3ccc(F)cc3)C(=O)OC)c2[nH]1

>  <fragmenstein_mode>  (850) 
expansion

>  <inchikey>  (850) 
YSOOFNMTJHRRDL-UHFFFAOYSA-N

>  <ref_pdb>  (850) 
Z0089a

>  <GNINA pK>  (850) 
nan

>  <gnina_score_min>  (850) 
5.536

>  <tags>  (850) 
xx01zvns2b_c1_elab_bulkdock_input,openbind_xx01zvns2b_c1_elab_nonasap_filtered_scored_top80percent,BulkDock Fragalysis export,openbind_xx01zvns2b_c1_elab_chemspace_filtered_scored_top80percent,fragmenstein_placed,openbind_xx01zvns2b_c1_elab_chemspace_filtered_scored,openbind_xx01zvns2b_c1_elab_chemspace_filtered_scored_top40percent,openbind_xx01zvns2b_c1_elab_chemspace_filtered_scored_top20percent,openbind_xx01zvns2b_c1_elab_chemspace_filtered_scored_top60percent,openbind_xx01zvns2b_c1_elabs_filtered

>  <smiles>  (850) 
CCOC(=O)c1cc2cccc(C(=O)NC(C)(Cc3ccc(F)cc3)C(=O)OC)c2[nH]1

>  <subsites>  (850) 
1 - Z4590/B/203/1

>  <gnina_score>  (850) 
5.124

>  <HIPPO Pose ID>  (850) 
84903

>  <ref_mols>  (850) 
Z0101a,Z0827a

>  <energy_score>  (850) 
-8.988788

>  <inspiration_score>  (850) 
None

>  <smina_score_min>  (850) 
-5.849

>  <fragmenstein_error>  (850) 


>  <name>  (850) 
YSOOFNMTJHRRDL-UHFFFAOYSA-N-P8-P8-P48-601530

$$$$
WRZWTHSRQGLLKN-UHFFFAOYSA-N-P8-P8-P48-601530
     RDKit          3D

 31 34  0  0  0  0  0  0  0  0999 V2000
   -4.8896    9.3225  -19.8455 C   0  0  0  0  0  0  0  0  0  0  0  0
   -5.0466    7.9084  -19.9626 O   0  0  0  0  0  0  0  0  0  0  0  0
   -4.0563    7.3072  -20.6950 C   0  0  0  0  0  0  0  0  0  0  0  0
   -3.1843    7.9423  -21.2788 O   0  0  0  0  0  0  0  0  0  0  0  0
   -4.1812    5.7593  -20.7085 C   0  0  2  0  0  0  0  0  0  0  0  0
   -2.8202    5.1831  -20.2887 C   0  0  0  0  0  0  0  0  0  0  0  0
   -4.6151    5.2536  -22.1053 C   0  0  0  0  0  0  0  0  0  0  0  0
   -3.8159    5.6859  -23.3081 C   0  0  0  0  0  0  0  0  0  0  0  0
   -2.5970    5.0648  -23.6212 C   0  0  0  0  0  0  0  0  0  0  0  0
   -1.8610    5.4688  -24.7355 C   0  0  0  0  0  0  0  0  0  0  0  0
   -2.3478    6.4849  -25.5467 C   0  0  0  0  0  0  0  0  0  0  0  0
   -1.6435    6.8672  -26.6202 F   0  0  0  0  0  0  0  0  0  0  0  0
   -3.5562    7.1078  -25.2627 C   0  0  0  0  0  0  0  0  0  0  0  0
   -4.2897    6.7114  -24.1434 C   0  0  0  0  0  0  0  0  0  0  0  0
   -5.2235    5.3367  -19.7543 N   0  0  0  0  0  0  0  0  0  0  0  0
   -5.1186    4.9326  -18.2736 C   0  0  0  0  0  0  0  0  0  0  0  0
   -4.1822    4.7948  -17.5921 O   0  0  0  0  0  0  0  0  0  0  0  0
   -6.4618    4.7488  -17.6377 C   0  0  0  0  0  0  0  0  0  0  0  0
   -7.6107    4.3082  -18.3150 C   0  0  0  0  0  0  0  0  0  0  0  0
   -8.8069    4.0860  -17.6344 C   0  0  0  0  0  0  0  0  0  0  0  0
   -8.8893    4.3105  -16.2581 C   0  0  0  0  0  0  0  0  0  0  0  0
   -7.7749    4.7974  -15.5554 C   0  0  0  0  0  0  0  0  0  0  0  0
   -7.5266    5.1639  -14.2051 C   0  0  0  0  0  0  0  0  0  0  0  0
   -6.1851    5.4387  -14.0902 C   0  0  0  0  0  0  0  0  0  0  0  0
   -5.6256    5.3564  -15.3324 N   0  0  0  0  0  0  0  0  0  0  0  0
   -6.5829    4.9782  -16.2542 C   0  0  0  0  0  0  0  0  0  0  0  0
   -5.4569    5.7801  -12.8407 C   0  0  0  0  0  0  0  0  0  0  0  0
   -6.3262    5.4627  -11.6186 C   0  0  0  0  0  0  0  0  0  0  0  0
   -7.7944    5.8939  -11.8072 C   0  0  1  0  0  0  0  0  0  0  0  0
   -7.9345    7.4185  -11.8889 C   0  0  0  0  0  0  0  0  0  0  0  0
   -8.4371    5.2032  -13.0356 C   0  0  0  0  0  0  0  0  0  0  0  0
  1  2  1  0
  2  3  1  0
  3  4  2  0
  3  5  1  0
  5  6  1  1
  5  7  1  0
  7  8  1  0
  8  9  2  0
  9 10  1  0
 10 11  2  0
 11 12  1  0
 11 13  1  0
 13 14  2  0
  5 15  1  0
 15 16  1  0
 16 17  2  0
 16 18  1  0
 18 19  2  0
 19 20  1  0
 20 21  2  0
 21 22  1  0
 22 23  1  0
 23 24  2  0
 24 25  1  0
 25 26  1  0
 24 27  1  0
 27 28  1  0
 28 29  1  0
 29 30  1  6
 29 31  1  0
 14  8  1  0
 26 18  1  0
 26 22  2  0
 31 23  1  0
M  END
>  <fragmenstein_outcome>  (851) 
too moved

>  <exports>  (851) 
['/opt/xchem-fragalysis-2/maxwin/openbind-hippo/xx01zvns2b/cycle_01/syndirella/elabs/openbind_xx01zvns2b_c1_elab_chemspace_filtered.sdf']

>  <Energy>  (851) 
96.340141

>  <alias>  (851) 
WRZWTHSRQGLLKN-UHFFFAOYSA-N-P8-P8-P48-601530

>  <fragmenstein_runtime>  (851) 
5.348386

>  <scratch_subdir>  (851) 
/opt/xchem-fragalysis-2/maxwin/BulkDock/SCRATCH/601530/WRZWTHSRQGLLKN-UHFFFAOYSA-N-P8-P8-P48-601530

>  <HIPPO Compound ID>  (851) 
145901

>  <rmsd(smina/fragmenstein)>  (851) 
2.203

>  <distance_score>  (851) 
1.214842

>  <orig_smiles>  (851) 
COC(=O)C(C)(Cc1ccc(F)cc1)NC(=O)c1cccc2c3c([nH]c12)CCC(C)C3

>  <fragmenstein_mode>  (851) 
expansion

>  <inchikey>  (851) 
WRZWTHSRQGLLKN-UHFFFAOYSA-N

>  <ref_pdb>  (851) 
Z0089a

>  <GNINA pK>  (851) 
nan

>  <gnina_score_min>  (851) 
5.477

>  <tags>  (851) 
xx01zvns2b_c1_elab_bulkdock_input,openbind_xx01zvns2b_c1_elab_nonasap_filtered_scored_top80percent,openbind_xx01zvns2b_c1_elab_chemspace_filtered_scored_top80percent,fragmenstein_placed,openbind_xx01zvns2b_c1_elab_chemspace_filtered_scored,openbind_xx01zvns2b_c1_elab_chemspace_filtered_scored_top40percent,openbind_xx01zvns2b_c1_elab_chemspace_filtered_scored_top20percent,openbind_xx01zvns2b_c1_elab_chemspace_filtered_scored_top60percent,openbind_xx01zvns2b_c1_elabs_filtered

>  <smiles>  (851) 
COC(=O)C(C)(Cc1ccc(F)cc1)NC(=O)c1cccc2c3c([nH]c12)CCC(C)C3

>  <subsites>  (851) 
1 - Z4590/B/203/1

>  <gnina_score>  (851) 
5.311

>  <HIPPO Pose ID>  (851) 
84905

>  <ref_mols>  (851) 
Z0101a,Z0827a

>  <energy_score>  (851) 
-34.094371

>  <inspiration_score>  (851) 
None

>  <smina_score_min>  (851) 
-5.859

>  <fragmenstein_error>  (851) 


>  <name>  (851) 
WRZWTHSRQGLLKN-UHFFFAOYSA-N-P8-P8-P48-601530

$$$$
XIXYJAYOJFELHL-UHFFFAOYSA-N-P8-P8-P48-601530
     RDKit          3D

 32 36  0  0  0  0  0  0  0  0999 V2000
   -4.0442    4.4562  -18.0923 O   0  0  0  0  0  0  0  0  0  0  0  0
   -5.0404    4.9037  -18.4986 C   0  0  0  0  0  0  0  0  0  0  0  0
   -5.3338    5.6655  -19.8095 N   0  0  0  0  0  0  0  0  0  0  0  0
   -4.4604    5.9595  -20.9650 C   0  0  0  0  0  0  0  0  0  0  0  0
   -4.1329    7.4531  -20.9490 C   0  0  0  0  0  0  0  0  0  0  0  0
   -3.6302    8.0114  -22.2593 C   0  0  0  0  0  0  0  0  0  0  0  0
   -2.2662    7.9825  -22.5846 C   0  0  0  0  0  0  0  0  0  0  0  0
   -1.8225    8.4953  -23.8054 C   0  0  0  0  0  0  0  0  0  0  0  0
   -2.7383    9.0411  -24.6985 C   0  0  0  0  0  0  0  0  0  0  0  0
   -2.3060    9.5335  -25.8666 F   0  0  0  0  0  0  0  0  0  0  0  0
   -4.0907    9.0882  -24.3968 C   0  0  0  0  0  0  0  0  0  0  0  0
   -4.5239    8.5758  -23.1805 C   0  0  0  0  0  0  0  0  0  0  0  0
   -5.8324    8.6283  -22.8912 F   0  0  0  0  0  0  0  0  0  0  0  0
   -3.2534    5.0065  -21.1710 C   0  0  0  0  0  0  0  0  0  0  0  0
   -3.6589    4.7633  -22.5549 O   0  0  0  0  0  0  0  0  0  0  0  0
   -4.9782    5.2661  -22.2482 C   0  0  0  0  0  0  0  0  0  0  0  0
   -6.2886    4.7526  -17.6865 C   0  0  0  0  0  0  0  0  0  0  0  0
   -7.4623    4.3278  -18.3483 C   0  0  0  0  0  0  0  0  0  0  0  0
   -8.6472    4.0878  -17.6689 C   0  0  0  0  0  0  0  0  0  0  0  0
   -8.6854    4.2247  -16.2880 C   0  0  0  0  0  0  0  0  0  0  0  0
   -7.5392    4.6394  -15.5830 C   0  0  0  0  0  0  0  0  0  0  0  0
   -7.3091    4.8255  -14.1973 C   0  0  0  0  0  0  0  0  0  0  0  0
   -6.0148    5.2440  -14.0512 C   0  0  0  0  0  0  0  0  0  0  0  0
   -5.4383    5.3306  -15.3031 N   0  0  0  0  0  0  0  0  0  0  0  0
   -4.0611    5.7951  -15.4615 C   0  0  0  0  0  0  0  0  0  0  0  0
   -3.9575    7.1904  -16.0333 C   0  0  0  0  0  0  0  0  0  0  0  0
   -3.0355    7.4585  -17.0551 C   0  0  0  0  0  0  0  0  0  0  0  0
   -2.8702    8.7562  -17.5439 C   0  0  0  0  0  0  0  0  0  0  0  0
   -3.6248    9.8031  -17.0203 C   0  0  0  0  0  0  0  0  0  0  0  0
   -4.5370    9.5554  -15.9980 C   0  0  0  0  0  0  0  0  0  0  0  0
   -4.6953    8.2600  -15.5011 C   0  0  0  0  0  0  0  0  0  0  0  0
   -6.3437    4.9209  -16.2763 C   0  0  0  0  0  0  0  0  0  0  0  0
  1  2  2  0
  2  3  1  0
  3  4  1  0
  4  5  1  0
  5  6  1  0
  6  7  2  0
  7  8  1  0
  8  9  2  0
  9 10  1  0
  9 11  1  0
 11 12  2  0
 12 13  1  0
  4 14  1  0
 14 15  1  0
 15 16  1  0
  2 17  1  0
 17 18  2  0
 18 19  1  0
 19 20  2  0
 20 21  1  0
 21 22  1  0
 22 23  2  0
 23 24  1  0
 24 25  1  0
 25 26  1  0
 26 27  2  0
 27 28  1  0
 28 29  2  0
 29 30  1  0
 30 31  2  0
 24 32  1  0
 16  4  1  0
 32 17  1  0
 12  6  1  0
 32 21  2  0
 31 26  1  0
M  END
>  <fragmenstein_outcome>  (852) 
acceptable

>  <exports>  (852) 
['/opt/xchem-fragalysis-2/maxwin/BulkDock/OUTPUTS/xx01zvns2b_c1_elab_bulkdock_input_1GFT1FD.sdf', '/opt/xchem-fragalysis-2/maxwin/openbind-hippo/xx01zvns2b/cycle_01/syndirella/elabs/openbind_xx01zvns2b_c1_elab_chemspace_filtered.sdf']

>  <Energy>  (852) 
111.043345

>  <alias>  (852) 
XIXYJAYOJFELHL-UHFFFAOYSA-N-P8-P8-P48-601530

>  <fragmenstein_runtime>  (852) 
5.309001

>  <scratch_subdir>  (852) 
/opt/xchem-fragalysis-2/maxwin/BulkDock/SCRATCH/601530/XIXYJAYOJFELHL-UHFFFAOYSA-N-P8-P8-P48-601530

>  <HIPPO Compound ID>  (852) 
145902

>  <rmsd(smina/fragmenstein)>  (852) 
2.471

>  <distance_score>  (852) 
0.927725

>  <orig_smiles>  (852) 
O=C(NC1(Cc2ccc(F)cc2F)COC1)c1cccc2ccn(Cc3ccccc3)c12

>  <fragmenstein_mode>  (852) 
expansion

>  <inchikey>  (852) 
XIXYJAYOJFELHL-UHFFFAOYSA-N

>  <ref_pdb>  (852) 
Z0089a

>  <GNINA pK>  (852) 
nan

>  <gnina_score_min>  (852) 
5.415

>  <tags>  (852) 
xx01zvns2b_c1_elab_bulkdock_input,openbind_xx01zvns2b_c1_elab_nonasap_filtered_scored_top80percent,BulkDock Fragalysis export,openbind_xx01zvns2b_c1_elab_chemspace_filtered_scored_top80percent,fragmenstein_placed,openbind_xx01zvns2b_c1_elab_chemspace_filtered_scored,openbind_xx01zvns2b_c1_elab_chemspace_filtered_scored_top40percent,openbind_xx01zvns2b_c1_elab_chemspace_filtered_scored_top20percent,openbind_xx01zvns2b_c1_elab_chemspace_filtered_scored_top60percent,openbind_xx01zvns2b_c1_elabs_filtered

>  <smiles>  (852) 
O=C(NC1(Cc2ccc(F)cc2F)COC1)c1cccc2ccn(Cc3ccccc3)c12

>  <subsites>  (852) 
1 - Z4590/B/203/1

>  <gnina_score>  (852) 
5.214

>  <HIPPO Pose ID>  (852) 
84907

>  <ref_mols>  (852) 
Z0101a,Z0827a

>  <energy_score>  (852) 
-33.317261

>  <inspiration_score>  (852) 
None

>  <smina_score_min>  (852) 
-5.198

>  <fragmenstein_error>  (852) 


>  <name>  (852) 
XIXYJAYOJFELHL-UHFFFAOYSA-N-P8-P8-P48-601530

$$$$
IMKRJOBKGSTMOE-UHFFFAOYSA-N-P8-P8-P48-601530
     RDKit          3D

 33 36  0  0  0  0  0  0  0  0999 V2000
   -2.8289    9.1951  -21.3615 C   0  0  0  0  0  0  0  0  0  0  0  0
   -2.8715    7.7915  -21.1099 O   0  0  0  0  0  0  0  0  0  0  0  0
   -4.0901    7.3112  -20.7316 C   0  0  0  0  0  0  0  0  0  0  0  0
   -5.0766    8.0225  -20.5496 O   0  0  0  0  0  0  0  0  0  0  0  0
   -4.0936    5.7656  -20.6203 C   0  0  2  0  0  0  0  0  0  0  0  0
   -2.7226    5.2309  -20.1816 C   0  0  0  0  0  0  0  0  0  0  0  0
   -4.5349    5.1255  -21.9591 C   0  0  0  0  0  0  0  0  0  0  0  0
   -3.9343    5.6970  -23.2189 C   0  0  0  0  0  0  0  0  0  0  0  0
   -2.6680    5.2819  -23.6584 C   0  0  0  0  0  0  0  0  0  0  0  0
   -2.1125    5.8232  -24.8178 C   0  0  0  0  0  0  0  0  0  0  0  0
   -2.8228    6.7738  -25.5400 C   0  0  0  0  0  0  0  0  0  0  0  0
   -2.2873    7.2922  -26.6529 F   0  0  0  0  0  0  0  0  0  0  0  0
   -4.0797    7.1956  -25.1247 C   0  0  0  0  0  0  0  0  0  0  0  0
   -4.6360    6.6602  -23.9630 C   0  0  0  0  0  0  0  0  0  0  0  0
   -5.1199    5.4473  -19.6126 N   0  0  0  0  0  0  0  0  0  0  0  0
   -4.9933    4.7731  -18.2345 C   0  0  0  0  0  0  0  0  0  0  0  0
   -4.0699    4.2934  -17.7107 O   0  0  0  0  0  0  0  0  0  0  0  0
   -6.3093    4.7327  -17.5337 C   0  0  0  0  0  0  0  0  0  0  0  0
   -7.4466    4.3430  -18.2724 C   0  0  0  0  0  0  0  0  0  0  0  0
   -8.6661    4.0988  -17.6597 C   0  0  0  0  0  0  0  0  0  0  0  0
   -8.7698    4.1909  -16.2769 C   0  0  0  0  0  0  0  0  0  0  0  0
   -7.6644    4.5942  -15.5035 C   0  0  0  0  0  0  0  0  0  0  0  0
   -7.4867    4.7241  -14.1034 C   0  0  0  0  0  0  0  0  0  0  0  0
   -6.2107    5.1747  -13.8925 C   0  0  0  0  0  0  0  0  0  0  0  0
   -5.6087    5.3644  -15.1202 N   0  0  0  0  0  0  0  0  0  0  0  0
   -4.3236    6.0493  -15.2310 C   0  0  0  0  0  0  0  0  0  0  0  0
   -4.4925    7.5048  -15.6014 C   0  0  0  0  0  0  0  0  0  0  0  0
   -4.1341    7.9639  -16.8752 C   0  0  0  0  0  0  0  0  0  0  0  0
   -4.3048    9.3055  -17.2215 C   0  0  0  0  0  0  0  0  0  0  0  0
   -4.8230   10.2075  -16.2951 C   0  0  0  0  0  0  0  0  0  0  0  0
   -5.1731    9.7684  -15.0208 C   0  0  0  0  0  0  0  0  0  0  0  0
   -5.0103    8.4254  -14.6758 C   0  0  0  0  0  0  0  0  0  0  0  0
   -6.4455    4.9094  -16.1326 C   0  0  0  0  0  0  0  0  0  0  0  0
  1  2  1  0
  2  3  1  0
  3  4  2  0
  3  5  1  0
  5  6  1  1
  5  7  1  0
  7  8  1  0
  8  9  2  0
  9 10  1  0
 10 11  2  0
 11 12  1  0
 11 13  1  0
 13 14  2  0
  5 15  1  0
 15 16  1  0
 16 17  2  0
 16 18  1  0
 18 19  2  0
 19 20  1  0
 20 21  2  0
 21 22  1  0
 22 23  1  0
 23 24  2  0
 24 25  1  0
 25 26  1  0
 26 27  1  0
 27 28  2  0
 28 29  1  0
 29 30  2  0
 30 31  1  0
 31 32  2  0
 25 33  1  0
 14  8  1  0
 33 18  1  0
 33 22  2  0
 32 27  1  0
M  END
>  <fragmenstein_outcome>  (853) 
acceptable

>  <exports>  (853) 
['/opt/xchem-fragalysis-2/maxwin/BulkDock/OUTPUTS/xx01zvns2b_c1_elab_bulkdock_input_1GFT1FD.sdf', '/opt/xchem-fragalysis-2/maxwin/openbind-hippo/xx01zvns2b/cycle_01/syndirella/elabs/openbind_xx01zvns2b_c1_elab_chemspace_filtered.sdf']

>  <Energy>  (853) 
126.649372

>  <alias>  (853) 
IMKRJOBKGSTMOE-UHFFFAOYSA-N-P8-P8-P48-601530

>  <fragmenstein_runtime>  (853) 
5.970637

>  <scratch_subdir>  (853) 
/opt/xchem-fragalysis-2/maxwin/BulkDock/SCRATCH/601530/IMKRJOBKGSTMOE-UHFFFAOYSA-N-P8-P8-P48-601530

>  <HIPPO Compound ID>  (853) 
145903

>  <rmsd(smina/fragmenstein)>  (853) 
2.143

>  <distance_score>  (853) 
0.84829

>  <orig_smiles>  (853) 
COC(=O)C(C)(Cc1ccc(F)cc1)NC(=O)c1cccc2ccn(Cc3ccccc3)c12

>  <fragmenstein_mode>  (853) 
expansion

>  <inchikey>  (853) 
IMKRJOBKGSTMOE-UHFFFAOYSA-N

>  <ref_pdb>  (853) 
Z0089a

>  <GNINA pK>  (853) 
nan

>  <gnina_score_min>  (853) 
5.343

>  <tags>  (853) 
xx01zvns2b_c1_elab_bulkdock_input,openbind_xx01zvns2b_c1_elab_nonasap_filtered_scored_top80percent,BulkDock Fragalysis export,openbind_xx01zvns2b_c1_elab_chemspace_filtered_scored_top80percent,fragmenstein_placed,openbind_xx01zvns2b_c1_elab_chemspace_filtered_scored,openbind_xx01zvns2b_c1_elab_chemspace_filtered_scored_top40percent,openbind_xx01zvns2b_c1_elab_chemspace_filtered_scored_top20percent,openbind_xx01zvns2b_c1_elab_chemspace_filtered_scored_top60percent,openbind_xx01zvns2b_c1_elabs_filtered

>  <smiles>  (853) 
COC(=O)C(C)(Cc1ccc(F)cc1)NC(=O)c1cccc2ccn(Cc3ccccc3)c12

>  <subsites>  (853) 
1 - Z4590/B/203/1

>  <gnina_score>  (853) 
5.295

>  <HIPPO Pose ID>  (853) 
84909

>  <ref_mols>  (853) 
Z0101a,Z0827a

>  <energy_score>  (853) 
-19.445071

>  <inspiration_score>  (853) 
None

>  <smina_score_min>  (853) 
-5.403

>  <fragmenstein_error>  (853) 


>  <name>  (853) 
IMKRJOBKGSTMOE-UHFFFAOYSA-N-P8-P8-P48-601530

$$$$
WBOMFWXIDYCRRQ-UHFFFAOYSA-N-P268-P8-P268-601530
     RDKit          3D

 26 28  0  0  0  0  0  0  0  0999 V2000
   -4.2497    9.4888  -19.4425 C   0  0  0  0  0  0  0  0  0  0  0  0
   -4.2179    8.6946  -20.6220 O   0  0  0  0  0  0  0  0  0  0  0  0
   -3.5578    7.4433  -20.3790 C   0  0  0  0  0  0  0  0  0  0  0  0
   -3.4614    6.6458  -21.6796 C   0  0  1  0  0  0  0  0  0  0  0  0
   -2.5630    5.4117  -21.5483 C   0  0  0  0  0  0  0  0  0  0  0  0
   -4.8330    6.3516  -22.2933 C   0  0  0  0  0  0  0  0  0  0  0  0
   -5.6850    5.5691  -21.4466 N   0  0  0  0  0  0  0  0  0  0  0  0
   -5.7382    4.0468  -21.2121 C   0  0  0  0  0  0  0  0  0  0  0  0
   -5.1501    3.1822  -21.7272 O   0  0  0  0  0  0  0  0  0  0  0  0
   -6.7862    3.7641  -20.0844 C   0  0  0  0  0  0  0  0  0  0  0  0
   -6.5417    4.5035  -18.8745 N   0  0  0  0  0  0  0  0  0  0  0  0
   -5.2418    4.7594  -18.4252 C   0  0  0  0  0  0  0  0  0  0  0  0
   -4.2541    4.6318  -19.1258 O   0  0  0  0  0  0  0  0  0  0  0  0
   -5.3037    5.1881  -17.0705 N   0  0  0  0  0  0  0  0  0  0  0  0
   -4.2350    5.7477  -16.3609 C   0  0  0  0  0  0  0  0  0  0  0  0
   -2.9600    5.7340  -16.8061 C   0  0  0  0  0  0  0  0  0  0  0  0
   -1.7842    6.3741  -16.1225 C   0  0  0  0  0  0  0  0  0  0  0  0
   -2.0797    6.8551  -14.7081 C   0  0  0  0  0  0  0  0  0  0  0  0
   -3.4566    7.4938  -14.6458 C   0  0  0  0  0  0  0  0  0  0  0  0
   -4.5310    6.4860  -15.0667 C   0  0  0  0  0  0  0  0  0  0  0  0
   -6.6296    4.9081  -16.6501 C   0  0  0  0  0  0  0  0  0  0  0  0
   -7.1853    4.8840  -15.3866 C   0  0  0  0  0  0  0  0  0  0  0  0
   -8.5050    4.4595  -15.2620 C   0  0  0  0  0  0  0  0  0  0  0  0
   -9.2381    4.0731  -16.3930 C   0  0  0  0  0  0  0  0  0  0  0  0
   -8.6784    4.0696  -17.6641 C   0  0  0  0  0  0  0  0  0  0  0  0
   -7.3730    4.4858  -17.7594 C   0  0  0  0  0  0  0  0  0  0  0  0
  1  2  1  0
  2  3  1  0
  3  4  1  0
  4  5  1  1
  4  6  1  0
  6  7  1  0
  7  8  1  0
  8  9  2  0
  8 10  1  0
 10 11  1  0
 11 12  1  0
 12 13  2  0
 12 14  1  0
 14 15  1  0
 15 16  2  0
 16 17  1  0
 17 18  1  0
 18 19  1  0
 19 20  1  0
 14 21  1  0
 21 22  2  0
 22 23  1  0
 23 24  2  0
 24 25  1  0
 25 26  2  0
 26 11  1  0
 20 15  1  0
 26 21  1  0
M  END
>  <fragmenstein_outcome>  (854) 
too moved

>  <exports>  (854) 
['/opt/xchem-fragalysis-2/maxwin/openbind-hippo/xx01zvns2b/cycle_01/syndirella/elabs/openbind_xx01zvns2b_c1_elab_chemspace_filtered.sdf']

>  <Energy>  (854) 
67.16431

>  <alias>  (854) 
WBOMFWXIDYCRRQ-UHFFFAOYSA-N-P268-P8-P268-601530

>  <fragmenstein_runtime>  (854) 
5.951694

>  <scratch_subdir>  (854) 
/opt/xchem-fragalysis-2/maxwin/BulkDock/SCRATCH/601530/WBOMFWXIDYCRRQ-UHFFFAOYSA-N-P268-P8-P268-601530

>  <HIPPO Compound ID>  (854) 
146928

>  <rmsd(smina/fragmenstein)>  (854) 
2.972

>  <distance_score>  (854) 
1.321164

>  <orig_smiles>  (854) 
COCC(C)CNC(=O)Cn1c(=O)n(C2=CCCCC2)c2ccccc21

>  <fragmenstein_mode>  (854) 
expansion

>  <inchikey>  (854) 
WBOMFWXIDYCRRQ-UHFFFAOYSA-N

>  <ref_pdb>  (854) 
Z0089a

>  <GNINA pK>  (854) 
nan

>  <gnina_score_min>  (854) 
5.367

>  <tags>  (854) 
xx01zvns2b_c1_elab_bulkdock_input,openbind_xx01zvns2b_c1_elab_nonasap_filtered_scored_top80percent,openbind_xx01zvns2b_c1_elab_chemspace_filtered_scored_top80percent,fragmenstein_placed,openbind_xx01zvns2b_c1_elab_chemspace_filtered_scored,openbind_xx01zvns2b_c1_elab_chemspace_filtered_scored_top40percent,openbind_xx01zvns2b_c1_elab_chemspace_filtered_scored_top20percent,openbind_xx01zvns2b_c1_elab_chemspace_filtered_scored_top60percent,openbind_xx01zvns2b_c1_elabs_filtered

>  <smiles>  (854) 
COCC(C)CNC(=O)Cn1c(=O)n(C2=CCCCC2)c2ccccc21

>  <subsites>  (854) 
1 - Z4590/B/203/1

>  <gnina_score>  (854) 
4.753

>  <HIPPO Pose ID>  (854) 
85364

>  <ref_mols>  (854) 
Z0101a,Z4245a

>  <energy_score>  (854) 
-34.976475

>  <inspiration_score>  (854) 
None

>  <smina_score_min>  (854) 
-3.949

>  <fragmenstein_error>  (854) 


>  <name>  (854) 
WBOMFWXIDYCRRQ-UHFFFAOYSA-N-P268-P8-P268-601530

$$$$
HYNNDTTYUKMFLJ-UHFFFAOYSA-N-P8-P8-P268-601530
     RDKit          3D

 26 29  0  0  0  0  0  0  0  0999 V2000
   -2.5177    6.9060  -20.8181 C   0  0  0  0  0  0  0  0  0  0  0  0
   -3.2161    7.0628  -22.1466 C   0  0  1  0  0  0  0  0  0  0  0  0
   -2.9759    5.9301  -23.1264 C   0  0  0  0  0  0  0  0  0  0  0  0
   -4.0152    6.0355  -24.1136 O   0  0  0  0  0  0  0  0  0  0  0  0
   -5.0526    6.8820  -23.5913 C   0  0  0  0  0  0  0  0  0  0  0  0
   -4.7240    7.1604  -22.1260 C   0  0  1  0  0  0  0  0  0  0  0  0
   -5.3537    6.2250  -21.2291 N   0  0  0  0  0  0  0  0  0  0  0  0
   -5.5270    4.6883  -21.3363 C   0  0  0  0  0  0  0  0  0  0  0  0
   -5.2542    3.9542  -22.2041 O   0  0  0  0  0  0  0  0  0  0  0  0
   -6.2791    4.1640  -20.0782 C   0  0  0  0  0  0  0  0  0  0  0  0
   -6.3474    4.9570  -18.8901 N   0  0  0  0  0  0  0  0  0  0  0  0
   -5.1089    5.2237  -18.2897 C   0  0  0  0  0  0  0  0  0  0  0  0
   -4.0675    5.2289  -18.9238 O   0  0  0  0  0  0  0  0  0  0  0  0
   -5.3179    5.4697  -16.9139 N   0  0  0  0  0  0  0  0  0  0  0  0
   -4.3494    5.9934  -16.0642 C   0  0  0  0  0  0  0  0  0  0  0  0
   -4.6495    6.6044  -14.8995 C   0  0  0  0  0  0  0  0  0  0  0  0
   -3.6462    7.2193  -13.9648 C   0  0  0  0  0  0  0  0  0  0  0  0
   -2.2597    7.3878  -14.5764 C   0  0  0  0  0  0  0  0  0  0  0  0
   -1.8828    6.1610  -15.3905 C   0  0  0  0  0  0  0  0  0  0  0  0
   -2.8997    5.9222  -16.5096 C   0  0  0  0  0  0  0  0  0  0  0  0
   -6.6407    5.0468  -16.6461 C   0  0  0  0  0  0  0  0  0  0  0  0
   -7.2723    4.8155  -15.4417 C   0  0  0  0  0  0  0  0  0  0  0  0
   -8.5756    4.3291  -15.4780 C   0  0  0  0  0  0  0  0  0  0  0  0
   -9.2129    4.0645  -16.7023 C   0  0  0  0  0  0  0  0  0  0  0  0
   -8.5500    4.2379  -17.9158 C   0  0  0  0  0  0  0  0  0  0  0  0
   -7.2640    4.7281  -17.8575 C   0  0  0  0  0  0  0  0  0  0  0  0
  2  1  1  1
  2  3  1  0
  3  4  1  0
  4  5  1  0
  5  6  1  0
  6  7  1  1
  7  8  1  0
  8  9  2  0
  8 10  1  0
 10 11  1  0
 11 12  1  0
 12 13  2  0
 12 14  1  0
 14 15  1  0
 15 16  2  0
 16 17  1  0
 17 18  1  0
 18 19  1  0
 19 20  1  0
 14 21  1  0
 21 22  2  0
 22 23  1  0
 23 24  2  0
 24 25  1  0
 25 26  2  0
  6  2  1  0
 26 11  1  0
 20 15  1  0
 26 21  1  0
M  END
>  <fragmenstein_outcome>  (855) 
too moved

>  <exports>  (855) 
['/opt/xchem-fragalysis-2/maxwin/openbind-hippo/xx01zvns2b/cycle_01/syndirella/elabs/openbind_xx01zvns2b_c1_elab_chemspace_filtered.sdf']

>  <Energy>  (855) 
82.493484

>  <alias>  (855) 
HYNNDTTYUKMFLJ-UHFFFAOYSA-N-P8-P8-P268-601530

>  <fragmenstein_runtime>  (855) 
5.203315

>  <scratch_subdir>  (855) 
/opt/xchem-fragalysis-2/maxwin/BulkDock/SCRATCH/601530/HYNNDTTYUKMFLJ-UHFFFAOYSA-N-P8-P8-P268-601530

>  <HIPPO Compound ID>  (855) 
146954

>  <rmsd(smina/fragmenstein)>  (855) 
2.848

>  <distance_score>  (855) 
1.811423

>  <orig_smiles>  (855) 
CC1COCC1NC(=O)Cn1c(=O)n(C2=CCCCC2)c2ccccc21

>  <fragmenstein_mode>  (855) 
expansion

>  <inchikey>  (855) 
HYNNDTTYUKMFLJ-UHFFFAOYSA-N

>  <ref_pdb>  (855) 
Z0089a

>  <GNINA pK>  (855) 
nan

>  <gnina_score_min>  (855) 
5.206

>  <tags>  (855) 
xx01zvns2b_c1_elab_bulkdock_input,openbind_xx01zvns2b_c1_elab_nonasap_filtered_scored_top80percent,openbind_xx01zvns2b_c1_elab_chemspace_filtered_scored_top80percent,fragmenstein_placed,openbind_xx01zvns2b_c1_elab_chemspace_filtered_scored,openbind_xx01zvns2b_c1_elab_chemspace_filtered_scored_top40percent,openbind_xx01zvns2b_c1_elab_chemspace_filtered_scored_top20percent,openbind_xx01zvns2b_c1_elab_chemspace_filtered_scored_top60percent,openbind_xx01zvns2b_c1_elabs_filtered

>  <smiles>  (855) 
CC1COCC1NC(=O)Cn1c(=O)n(C2=CCCCC2)c2ccccc21

>  <subsites>  (855) 
1 - Z4590/B/203/1

>  <gnina_score>  (855) 
4.682

>  <HIPPO Pose ID>  (855) 
85415

>  <ref_mols>  (855) 
Z0101a,Z4245a

>  <energy_score>  (855) 
-13.807827

>  <inspiration_score>  (855) 
None

>  <smina_score_min>  (855) 
-5.453

>  <fragmenstein_error>  (855) 


>  <name>  (855) 
HYNNDTTYUKMFLJ-UHFFFAOYSA-N-P8-P8-P268-601530

$$$$
YRQJYXCRXYJQNX-UHFFFAOYSA-N-P8-P8-P268-601530
     RDKit          3D

 27 30  0  0  0  0  0  0  0  0999 V2000
   -5.9287    3.5572  -21.5914 O   0  0  0  0  0  0  0  0  0  0  0  0
   -5.8096    4.4335  -20.8258 C   0  0  0  0  0  0  0  0  0  0  0  0
   -6.7131    4.5640  -19.5705 C   0  0  0  0  0  0  0  0  0  0  0  0
   -6.1779    4.2468  -18.2936 N   0  0  0  0  0  0  0  0  0  0  0  0
   -4.8783    4.6147  -17.9545 C   0  0  0  0  0  0  0  0  0  0  0  0
   -3.9606    4.6353  -18.7582 O   0  0  0  0  0  0  0  0  0  0  0  0
   -4.8685    4.9881  -16.5722 N   0  0  0  0  0  0  0  0  0  0  0  0
   -3.7958    5.6279  -15.9343 C   0  0  0  0  0  0  0  0  0  0  0  0
   -2.5959    5.8266  -16.5212 C   0  0  0  0  0  0  0  0  0  0  0  0
   -1.4074    6.4998  -15.8933 C   0  0  0  0  0  0  0  0  0  0  0  0
   -1.5441    6.6893  -14.3897 C   0  0  0  0  0  0  0  0  0  0  0  0
   -2.9387    7.1865  -14.0584 C   0  0  0  0  0  0  0  0  0  0  0  0
   -4.0014    6.1907  -14.5373 C   0  0  0  0  0  0  0  0  0  0  0  0
   -6.1803    4.7110  -16.0858 C   0  0  0  0  0  0  0  0  0  0  0  0
   -6.7291    4.7584  -14.8204 C   0  0  0  0  0  0  0  0  0  0  0  0
   -8.0854    4.4585  -14.6704 C   0  0  0  0  0  0  0  0  0  0  0  0
   -8.8749    4.1381  -15.7815 C   0  0  0  0  0  0  0  0  0  0  0  0
   -8.3333    4.0890  -17.0548 C   0  0  0  0  0  0  0  0  0  0  0  0
   -6.9805    4.3350  -17.1609 C   0  0  0  0  0  0  0  0  0  0  0  0
   -4.8847    5.6866  -20.8625 N   0  0  0  0  0  0  0  0  0  0  0  0
   -3.8632    6.0599  -21.7920 C   0  0  1  0  0  0  0  0  0  0  0  0
   -2.6322    5.1644  -21.6973 C   0  0  0  0  0  0  0  0  0  0  0  0
   -2.0149    5.1743  -23.1009 C   0  0  0  0  0  0  0  0  0  0  0  0
   -2.9723    5.9577  -23.9902 C   0  0  0  0  0  0  0  0  0  0  0  0
   -4.2988    5.9067  -23.2391 C   0  0  2  0  0  0  0  0  0  0  0  0
   -5.2754    6.9786  -23.6714 C   0  0  0  0  0  0  0  0  0  0  0  0
   -5.6513    6.8270  -25.0333 O   0  0  0  0  0  0  0  0  0  0  0  0
  1  2  2  0
  2  3  1  0
  3  4  1  0
  4  5  1  0
  5  6  2  0
  5  7  1  0
  7  8  1  0
  8  9  2  0
  9 10  1  0
 10 11  1  0
 11 12  1  0
 12 13  1  0
  7 14  1  0
 14 15  2  0
 15 16  1  0
 16 17  2  0
 17 18  1  0
 18 19  2  0
  2 20  1  0
 21 20  1  1
 21 22  1  0
 22 23  1  0
 23 24  1  0
 24 25  1  0
 25 26  1  6
 26 27  1  0
 19  4  1  0
 25 21  1  0
 13  8  1  0
 19 14  1  0
M  END
>  <fragmenstein_outcome>  (856) 
too moved

>  <exports>  (856) 
['/opt/xchem-fragalysis-2/maxwin/openbind-hippo/xx01zvns2b/cycle_01/syndirella/elabs/openbind_xx01zvns2b_c1_elab_chemspace_filtered.sdf']

>  <Energy>  (856) 
78.88469

>  <alias>  (856) 
YRQJYXCRXYJQNX-UHFFFAOYSA-N-P8-P8-P268-601530

>  <fragmenstein_runtime>  (856) 
10.624345

>  <scratch_subdir>  (856) 
/opt/xchem-fragalysis-2/maxwin/BulkDock/SCRATCH/601530/YRQJYXCRXYJQNX-UHFFFAOYSA-N-P8-P8-P268-601530

>  <HIPPO Compound ID>  (856) 
146959

>  <rmsd(smina/fragmenstein)>  (856) 
3.353

>  <distance_score>  (856) 
1.602911

>  <orig_smiles>  (856) 
O=C(Cn1c(=O)n(C2=CCCCC2)c2ccccc21)NC1CCCC1CO

>  <fragmenstein_mode>  (856) 
expansion

>  <inchikey>  (856) 
YRQJYXCRXYJQNX-UHFFFAOYSA-N

>  <ref_pdb>  (856) 
Z0089a

>  <GNINA pK>  (856) 
nan

>  <gnina_score_min>  (856) 
5.223

>  <tags>  (856) 
xx01zvns2b_c1_elab_bulkdock_input,openbind_xx01zvns2b_c1_elab_nonasap_filtered_scored_top80percent,openbind_xx01zvns2b_c1_elab_chemspace_filtered_scored_top80percent,fragmenstein_placed,openbind_xx01zvns2b_c1_elab_chemspace_filtered_scored,openbind_xx01zvns2b_c1_elab_chemspace_filtered_scored_top40percent,openbind_xx01zvns2b_c1_elab_chemspace_filtered_scored_top20percent,openbind_xx01zvns2b_c1_elab_chemspace_filtered_scored_top60percent,openbind_xx01zvns2b_c1_elabs_filtered

>  <smiles>  (856) 
O=C(Cn1c(=O)n(C2=CCCCC2)c2ccccc21)NC1CCCC1CO

>  <subsites>  (856) 
1 - Z4590/B/203/1

>  <gnina_score>  (856) 
4.908

>  <HIPPO Pose ID>  (856) 
85425

>  <ref_mols>  (856) 
Z0101a,Z4245a

>  <energy_score>  (856) 
-7.292054

>  <inspiration_score>  (856) 
None

>  <smina_score_min>  (856) 
-4.835

>  <fragmenstein_error>  (856) 


>  <name>  (856) 
YRQJYXCRXYJQNX-UHFFFAOYSA-N-P8-P8-P268-601530

$$$$
SNQFXSNYHZNVPM-UHFFFAOYSA-N-P268-P8-P268-601530
     RDKit          3D

 27 30  0  0  0  0  0  0  0  0999 V2000
   -1.7971    6.1632  -20.4858 C   0  0  0  0  0  0  0  0  0  0  0  0
   -2.8189    5.7166  -21.5275 C   0  0  0  0  0  0  0  0  0  0  0  0
   -2.0638    5.3242  -22.8093 C   0  0  0  0  0  0  0  0  0  0  0  0
   -3.6444    4.5356  -20.9849 C   0  0  0  0  0  0  0  0  0  0  0  0
   -5.0292    4.8632  -21.2673 N   0  0  0  0  0  0  0  0  0  0  0  0
   -6.1272    4.2159  -20.7713 C   0  0  0  0  0  0  0  0  0  0  0  0
   -6.6156    3.2608  -21.3746 O   0  0  0  0  0  0  0  0  0  0  0  0
   -6.8261    4.7487  -19.5204 C   0  0  0  0  0  0  0  0  0  0  0  0
   -6.2737    4.5260  -18.2442 N   0  0  0  0  0  0  0  0  0  0  0  0
   -5.1389    5.2545  -17.9022 C   0  0  0  0  0  0  0  0  0  0  0  0
   -4.4630    5.8635  -18.7175 O   0  0  0  0  0  0  0  0  0  0  0  0
   -5.0376    5.2872  -16.4860 N   0  0  0  0  0  0  0  0  0  0  0  0
   -3.9467    5.8290  -15.8093 C   0  0  0  0  0  0  0  0  0  0  0  0
   -2.7295    5.9337  -16.3843 C   0  0  0  0  0  0  0  0  0  0  0  0
   -1.5014    6.4990  -15.7310 C   0  0  0  0  0  0  0  0  0  0  0  0
   -1.6453    6.6892  -14.2261 C   0  0  0  0  0  0  0  0  0  0  0  0
   -3.0162    7.2542  -13.8918 C   0  0  0  0  0  0  0  0  0  0  0  0
   -4.1234    6.3172  -14.3866 C   0  0  0  0  0  0  0  0  0  0  0  0
   -6.2894    4.8154  -16.0051 C   0  0  0  0  0  0  0  0  0  0  0  0
   -6.8157    4.7494  -14.7320 C   0  0  0  0  0  0  0  0  0  0  0  0
   -8.1374    4.3253  -14.5843 C   0  0  0  0  0  0  0  0  0  0  0  0
   -8.9029    3.9636  -15.7002 C   0  0  0  0  0  0  0  0  0  0  0  0
   -8.3633    3.9763  -16.9784 C   0  0  0  0  0  0  0  0  0  0  0  0
   -7.0531    4.3925  -17.0961 C   0  0  0  0  0  0  0  0  0  0  0  0
   -5.1230    5.9891  -22.1626 C   0  0  0  0  0  0  0  0  0  0  0  0
   -3.8864    6.8080  -21.7906 C   0  0  2  0  0  0  0  0  0  0  0  0
   -3.5303    7.7500  -22.7926 O   0  0  0  0  0  0  0  0  0  0  0  0
  1  2  1  0
  2  3  1  0
  2  4  1  0
  4  5  1  0
  5  6  1  0
  6  7  2  0
  6  8  1  0
  8  9  1  0
  9 10  1  0
 10 11  2  0
 10 12  1  0
 12 13  1  0
 13 14  2  0
 14 15  1  0
 15 16  1  0
 16 17  1  0
 17 18  1  0
 12 19  1  0
 19 20  2  0
 20 21  1  0
 21 22  2  0
 22 23  1  0
 23 24  2  0
  5 25  1  0
 25 26  1  0
 26 27  1  6
 26  2  1  0
 24  9  1  0
 18 13  1  0
 24 19  1  0
M  END
>  <fragmenstein_outcome>  (857) 
too moved

>  <exports>  (857) 
['/opt/xchem-fragalysis-2/maxwin/openbind-hippo/xx01zvns2b/cycle_01/syndirella/elabs/openbind_xx01zvns2b_c1_elab_chemspace_filtered.sdf']

>  <Energy>  (857) 
112.431398

>  <alias>  (857) 
SNQFXSNYHZNVPM-UHFFFAOYSA-N-P268-P8-P268-601530

>  <fragmenstein_runtime>  (857) 
9.544222

>  <scratch_subdir>  (857) 
/opt/xchem-fragalysis-2/maxwin/BulkDock/SCRATCH/601530/SNQFXSNYHZNVPM-UHFFFAOYSA-N-P268-P8-P268-601530

>  <HIPPO Compound ID>  (857) 
146962

>  <rmsd(smina/fragmenstein)>  (857) 
4.461

>  <distance_score>  (857) 
1.663396

>  <orig_smiles>  (857) 
CC1(C)CN(C(=O)Cn2c(=O)n(C3=CCCCC3)c3ccccc32)CC1O

>  <fragmenstein_mode>  (857) 
expansion

>  <inchikey>  (857) 
SNQFXSNYHZNVPM-UHFFFAOYSA-N

>  <ref_pdb>  (857) 
Z0089a

>  <GNINA pK>  (857) 
nan

>  <gnina_score_min>  (857) 
5.449

>  <tags>  (857) 
xx01zvns2b_c1_elab_bulkdock_input,openbind_xx01zvns2b_c1_elab_nonasap_filtered_scored_top80percent,openbind_xx01zvns2b_c1_elab_chemspace_filtered_scored_top80percent,fragmenstein_placed,openbind_xx01zvns2b_c1_elab_chemspace_filtered_scored,openbind_xx01zvns2b_c1_elab_chemspace_filtered_scored_top40percent,openbind_xx01zvns2b_c1_elab_chemspace_filtered_scored_top20percent,openbind_xx01zvns2b_c1_elab_chemspace_filtered_scored_top60percent,openbind_xx01zvns2b_c1_elabs_filtered

>  <smiles>  (857) 
CC1(C)CN(C(=O)Cn2c(=O)n(C3=CCCCC3)c3ccccc32)CC1O

>  <subsites>  (857) 
1 - Z4590/B/203/1

>  <gnina_score>  (857) 
4.676

>  <HIPPO Pose ID>  (857) 
85430

>  <ref_mols>  (857) 
Z0101a,Z4245a

>  <energy_score>  (857) 
-8.417714

>  <inspiration_score>  (857) 
None

>  <smina_score_min>  (857) 
-5.249

>  <fragmenstein_error>  (857) 


>  <name>  (857) 
SNQFXSNYHZNVPM-UHFFFAOYSA-N-P268-P8-P268-601530

$$$$
HSHOQBFMCSUSIA-UHFFFAOYSA-N-P8-P8-P268-601530
     RDKit          3D

 27 30  0  0  0  0  0  0  0  0999 V2000
   -5.5040    8.1636  -19.3662 O   0  0  0  0  0  0  0  0  0  0  0  0
   -5.7386    7.0695  -19.6942 C   0  0  0  0  0  0  0  0  0  0  0  0
   -6.6580    6.1585  -18.8623 C   0  0  0  0  0  0  0  0  0  0  0  0
   -6.4113    4.7321  -18.6752 N   0  0  0  0  0  0  0  0  0  0  0  0
   -5.0598    4.5649  -18.2963 C   0  0  0  0  0  0  0  0  0  0  0  0
   -4.1710    4.4856  -19.1332 O   0  0  0  0  0  0  0  0  0  0  0  0
   -4.9916    4.5849  -16.8686 N   0  0  0  0  0  0  0  0  0  0  0  0
   -3.8844    5.0194  -16.1358 C   0  0  0  0  0  0  0  0  0  0  0  0
   -2.8799    5.7165  -16.7055 C   0  0  0  0  0  0  0  0  0  0  0  0
   -1.7310    6.3545  -15.9765 C   0  0  0  0  0  0  0  0  0  0  0  0
   -1.9388    6.4313  -14.4692 C   0  0  0  0  0  0  0  0  0  0  0  0
   -2.5236    5.1306  -13.9464 C   0  0  0  0  0  0  0  0  0  0  0  0
   -3.8561    4.8128  -14.6343 C   0  0  0  0  0  0  0  0  0  0  0  0
   -6.3137    4.3219  -16.4205 C   0  0  0  0  0  0  0  0  0  0  0  0
   -6.8614    4.1800  -15.1641 C   0  0  0  0  0  0  0  0  0  0  0  0
   -8.2443    4.0168  -15.0644 C   0  0  0  0  0  0  0  0  0  0  0  0
   -9.0561    3.9890  -16.2094 C   0  0  0  0  0  0  0  0  0  0  0  0
   -8.5169    4.1550  -17.4743 C   0  0  0  0  0  0  0  0  0  0  0  0
   -7.1503    4.3190  -17.5404 C   0  0  0  0  0  0  0  0  0  0  0  0
   -5.3237    6.2981  -20.9530 N   0  0  0  0  0  0  0  0  0  0  0  0
   -4.4575    6.6714  -22.0296 C   0  0  0  0  0  0  0  0  0  0  0  0
   -3.1990    5.8258  -21.8721 C   0  0  0  0  0  0  0  0  0  0  0  0
   -2.3439    6.2311  -20.6803 C   0  0  0  0  0  0  0  0  0  0  0  0
   -1.7992    5.1215  -19.9885 O   0  0  0  0  0  0  0  0  0  0  0  0
   -2.4034    5.8034  -23.1969 C   0  0  0  0  0  0  0  0  0  0  0  0
   -3.1990    4.6663  -23.6464 O   0  0  0  0  0  0  0  0  0  0  0  0
   -3.4418    4.3411  -22.2411 C   0  0  0  0  0  0  0  0  0  0  0  0
  1  2  2  0
  2  3  1  0
  3  4  1  0
  4  5  1  0
  5  6  2  0
  5  7  1  0
  7  8  1  0
  8  9  2  0
  9 10  1  0
 10 11  1  0
 11 12  1  0
 12 13  1  0
  7 14  1  0
 14 15  2  0
 15 16  1  0
 16 17  2  0
 17 18  1  0
 18 19  2  0
  2 20  1  0
 20 21  1  0
 21 22  1  0
 22 23  1  0
 23 24  1  0
 22 25  1  0
 25 26  1  0
 26 27  1  0
 19  4  1  0
 27 22  1  0
 13  8  1  0
 19 14  1  0
M  END
>  <fragmenstein_outcome>  (858) 
too moved

>  <exports>  (858) 
['/opt/xchem-fragalysis-2/maxwin/openbind-hippo/xx01zvns2b/cycle_01/syndirella/elabs/openbind_xx01zvns2b_c1_elab_chemspace_filtered.sdf']

>  <Energy>  (858) 
84.889336

>  <alias>  (858) 
HSHOQBFMCSUSIA-UHFFFAOYSA-N-P8-P8-P268-601530

>  <fragmenstein_runtime>  (858) 
9.846337

>  <scratch_subdir>  (858) 
/opt/xchem-fragalysis-2/maxwin/BulkDock/SCRATCH/601530/HSHOQBFMCSUSIA-UHFFFAOYSA-N-P8-P8-P268-601530

>  <HIPPO Compound ID>  (858) 
146978

>  <rmsd(smina/fragmenstein)>  (858) 
2.231

>  <distance_score>  (858) 
1.518158

>  <orig_smiles>  (858) 
O=C(Cn1c(=O)n(C2=CCCCC2)c2ccccc21)NCC1(CO)COC1

>  <fragmenstein_mode>  (858) 
expansion

>  <inchikey>  (858) 
HSHOQBFMCSUSIA-UHFFFAOYSA-N

>  <ref_pdb>  (858) 
Z0089a

>  <GNINA pK>  (858) 
nan

>  <gnina_score_min>  (858) 
5.245

>  <tags>  (858) 
xx01zvns2b_c1_elab_bulkdock_input,openbind_xx01zvns2b_c1_elab_nonasap_filtered_scored_top80percent,openbind_xx01zvns2b_c1_elab_chemspace_filtered_scored_top80percent,fragmenstein_placed,openbind_xx01zvns2b_c1_elab_chemspace_filtered_scored,openbind_xx01zvns2b_c1_elab_chemspace_filtered_scored_top40percent,openbind_xx01zvns2b_c1_elab_chemspace_filtered_scored_top20percent,openbind_xx01zvns2b_c1_elab_chemspace_filtered_scored_top60percent,openbind_xx01zvns2b_c1_elabs_filtered

>  <smiles>  (858) 
O=C(Cn1c(=O)n(C2=CCCCC2)c2ccccc21)NCC1(CO)COC1

>  <subsites>  (858) 
1 - Z4590/B/203/1

>  <gnina_score>  (858) 
4.628

>  <HIPPO Pose ID>  (858) 
85461

>  <ref_mols>  (858) 
Z0101a,Z4245a

>  <energy_score>  (858) 
-6.574355

>  <inspiration_score>  (858) 
None

>  <smina_score_min>  (858) 
-5.723

>  <fragmenstein_error>  (858) 


>  <name>  (858) 
HSHOQBFMCSUSIA-UHFFFAOYSA-N-P8-P8-P268-601530

$$$$
OGZUPTGVBUJQJZ-UHFFFAOYSA-N-P268-P8-P268-601530
     RDKit          3D

 27 29  0  0  0  0  0  0  0  0999 V2000
   -1.4204    8.9935  -20.3161 C   0  0  0  0  0  0  0  0  0  0  0  0
   -1.6145    7.8193  -21.0917 O   0  0  0  0  0  0  0  0  0  0  0  0
   -2.9844    7.3945  -21.0652 C   0  0  0  0  0  0  0  0  0  0  0  0
   -3.0991    6.0573  -21.8042 C   0  0  1  0  0  0  0  0  0  0  0  0
   -2.3056    4.9700  -21.0655 C   0  0  0  0  0  0  0  0  0  0  0  0
   -4.5425    5.6373  -22.1335 C   0  0  2  0  0  0  0  0  0  0  0  0
   -5.1493    6.4823  -23.2470 C   0  0  0  0  0  0  0  0  0  0  0  0
   -5.4021    5.6109  -20.9884 N   0  0  0  0  0  0  0  0  0  0  0  0
   -5.9663    6.7663  -20.1287 C   0  0  0  0  0  0  0  0  0  0  0  0
   -5.8812    7.9247  -20.2659 O   0  0  0  0  0  0  0  0  0  0  0  0
   -6.7779    6.1547  -18.9690 C   0  0  0  0  0  0  0  0  0  0  0  0
   -6.5020    4.7916  -18.5230 N   0  0  0  0  0  0  0  0  0  0  0  0
   -5.1438    4.7441  -18.1185 C   0  0  0  0  0  0  0  0  0  0  0  0
   -4.2467    4.5903  -18.9288 O   0  0  0  0  0  0  0  0  0  0  0  0
   -5.0786    4.9657  -16.7152 N   0  0  0  0  0  0  0  0  0  0  0  0
   -3.9272    5.4172  -16.0637 C   0  0  0  0  0  0  0  0  0  0  0  0
   -3.9049    5.8074  -14.7731 C   0  0  0  0  0  0  0  0  0  0  0  0
   -2.6911    6.2842  -14.0276 C   0  0  0  0  0  0  0  0  0  0  0  0
   -1.3849    5.9893  -14.7490 C   0  0  0  0  0  0  0  0  0  0  0  0
   -1.5088    6.3396  -16.2202 C   0  0  0  0  0  0  0  0  0  0  0  0
   -2.6567    5.5782  -16.8932 C   0  0  0  0  0  0  0  0  0  0  0  0
   -6.3825    4.6836  -16.2361 C   0  0  0  0  0  0  0  0  0  0  0  0
   -6.8887    4.5194  -14.9655 C   0  0  0  0  0  0  0  0  0  0  0  0
   -8.2402    4.1964  -14.8334 C   0  0  0  0  0  0  0  0  0  0  0  0
   -9.0546    4.0334  -15.9640 C   0  0  0  0  0  0  0  0  0  0  0  0
   -8.5550    4.1986  -17.2464 C   0  0  0  0  0  0  0  0  0  0  0  0
   -7.2207    4.5189  -17.3410 C   0  0  0  0  0  0  0  0  0  0  0  0
  1  2  1  0
  2  3  1  0
  3  4  1  0
  4  5  1  1
  4  6  1  0
  6  7  1  6
  6  8  1  0
  8  9  1  0
  9 10  2  0
  9 11  1  0
 11 12  1  0
 12 13  1  0
 13 14  2  0
 13 15  1  0
 15 16  1  0
 16 17  2  0
 17 18  1  0
 18 19  1  0
 19 20  1  0
 20 21  1  0
 15 22  1  0
 22 23  2  0
 23 24  1  0
 24 25  2  0
 25 26  1  0
 26 27  2  0
 27 12  1  0
 21 16  1  0
 27 22  1  0
M  END
>  <fragmenstein_outcome>  (859) 
too moved

>  <exports>  (859) 
['/opt/xchem-fragalysis-2/maxwin/openbind-hippo/xx01zvns2b/cycle_01/syndirella/elabs/openbind_xx01zvns2b_c1_elab_chemspace_filtered.sdf']

>  <Energy>  (859) 
92.395208

>  <alias>  (859) 
OGZUPTGVBUJQJZ-UHFFFAOYSA-N-P268-P8-P268-601530

>  <fragmenstein_runtime>  (859) 
6.371768

>  <scratch_subdir>  (859) 
/opt/xchem-fragalysis-2/maxwin/BulkDock/SCRATCH/601530/OGZUPTGVBUJQJZ-UHFFFAOYSA-N-P268-P8-P268-601530

>  <HIPPO Compound ID>  (859) 
146993

>  <rmsd(smina/fragmenstein)>  (859) 
2.825

>  <distance_score>  (859) 
1.38725

>  <orig_smiles>  (859) 
COCC(C)C(C)NC(=O)Cn1c(=O)n(C2=CCCCC2)c2ccccc21

>  <fragmenstein_mode>  (859) 
expansion

>  <inchikey>  (859) 
OGZUPTGVBUJQJZ-UHFFFAOYSA-N

>  <ref_pdb>  (859) 
Z0089a

>  <GNINA pK>  (859) 
nan

>  <gnina_score_min>  (859) 
5.637

>  <tags>  (859) 
xx01zvns2b_c1_elab_bulkdock_input,openbind_xx01zvns2b_c1_elab_nonasap_filtered_scored_top80percent,openbind_xx01zvns2b_c1_elab_chemspace_filtered_scored_top80percent,fragmenstein_placed,openbind_xx01zvns2b_c1_elab_chemspace_filtered_scored,openbind_xx01zvns2b_c1_elab_chemspace_filtered_scored_top40percent,openbind_xx01zvns2b_c1_elab_chemspace_filtered_scored_top20percent,openbind_xx01zvns2b_c1_elab_chemspace_filtered_scored_top60percent,openbind_xx01zvns2b_c1_elabs_filtered

>  <smiles>  (859) 
COCC(C)C(C)NC(=O)Cn1c(=O)n(C2=CCCCC2)c2ccccc21

>  <subsites>  (859) 
1 - Z4590/B/203/1

>  <gnina_score>  (859) 
5.001

>  <HIPPO Pose ID>  (859) 
85492

>  <ref_mols>  (859) 
Z0101a,Z4245a

>  <energy_score>  (859) 
-1.420709

>  <inspiration_score>  (859) 
None

>  <smina_score_min>  (859) 
-5.923

>  <fragmenstein_error>  (859) 


>  <name>  (859) 
OGZUPTGVBUJQJZ-UHFFFAOYSA-N-P268-P8-P268-601530

$$$$
BCYWFRJEFREKSS-UHFFFAOYSA-N-P8-P8-P268-601530
     RDKit          3D

 27 30  0  0  0  0  0  0  0  0999 V2000
   -4.2794    8.7406  -19.2964 C   0  0  0  0  0  0  0  0  0  0  0  0
   -4.4613    7.6959  -20.2398 O   0  0  0  0  0  0  0  0  0  0  0  0
   -3.2066    7.1307  -20.6449 C   0  0  0  0  0  0  0  0  0  0  0  0
   -3.3752    5.9968  -21.6707 C   0  0  0  0  0  0  0  0  0  0  0  0
   -2.2230    6.0081  -22.6564 C   0  0  0  0  0  0  0  0  0  0  0  0
   -4.8301    5.8687  -22.2738 C   0  0  0  0  0  0  0  0  0  0  0  0
   -4.9147    4.7731  -21.3624 N   0  0  0  0  0  0  0  0  0  0  0  0
   -6.0064    4.1588  -20.8293 C   0  0  0  0  0  0  0  0  0  0  0  0
   -6.5214    3.1975  -21.4068 O   0  0  0  0  0  0  0  0  0  0  0  0
   -6.6335    4.7651  -19.5656 C   0  0  0  0  0  0  0  0  0  0  0  0
   -6.1915    4.3944  -18.2740 N   0  0  0  0  0  0  0  0  0  0  0  0
   -4.9582    4.8422  -17.8258 C   0  0  0  0  0  0  0  0  0  0  0  0
   -4.0608    5.2199  -18.5546 O   0  0  0  0  0  0  0  0  0  0  0  0
   -4.9664    4.8284  -16.4088 N   0  0  0  0  0  0  0  0  0  0  0  0
   -3.8719    5.1609  -15.6224 C   0  0  0  0  0  0  0  0  0  0  0  0
   -3.6997    4.6750  -14.3772 C   0  0  0  0  0  0  0  0  0  0  0  0
   -2.5459    5.0100  -13.4759 C   0  0  0  0  0  0  0  0  0  0  0  0
   -1.4086    5.7524  -14.1719 C   0  0  0  0  0  0  0  0  0  0  0  0
   -1.9490    6.7792  -15.1543 C   0  0  0  0  0  0  0  0  0  0  0  0
   -2.8436    6.1135  -16.2035 C   0  0  0  0  0  0  0  0  0  0  0  0
   -6.2953    4.5289  -16.0256 C   0  0  0  0  0  0  0  0  0  0  0  0
   -6.9008    4.5633  -14.7875 C   0  0  0  0  0  0  0  0  0  0  0  0
   -8.2654    4.2938  -14.7255 C   0  0  0  0  0  0  0  0  0  0  0  0
   -8.9982    4.0366  -15.8943 C   0  0  0  0  0  0  0  0  0  0  0  0
   -8.4008    4.0569  -17.1449 C   0  0  0  0  0  0  0  0  0  0  0  0
   -7.0458    4.2953  -17.1774 C   0  0  0  0  0  0  0  0  0  0  0  0
   -3.5310    4.5084  -21.1718 C   0  0  0  0  0  0  0  0  0  0  0  0
  1  2  1  0
  2  3  1  0
  3  4  1  0
  4  5  1  0
  4  6  1  0
  6  7  1  0
  7  8  1  0
  8  9  2  0
  8 10  1  0
 10 11  1  0
 11 12  1  0
 12 13  2  0
 12 14  1  0
 14 15  1  0
 15 16  2  0
 16 17  1  0
 17 18  1  0
 18 19  1  0
 19 20  1  0
 14 21  1  0
 21 22  2  0
 22 23  1  0
 23 24  2  0
 24 25  1  0
 25 26  2  0
  7 27  1  0
 27  4  1  0
 26 11  1  0
 20 15  1  0
 26 21  1  0
M  END
>  <fragmenstein_outcome>  (860) 
too moved

>  <exports>  (860) 
['/opt/xchem-fragalysis-2/maxwin/openbind-hippo/xx01zvns2b/cycle_01/syndirella/elabs/openbind_xx01zvns2b_c1_elab_chemspace_filtered.sdf']

>  <Energy>  (860) 
95.1157

>  <alias>  (860) 
BCYWFRJEFREKSS-UHFFFAOYSA-N-P8-P8-P268-601530

>  <fragmenstein_runtime>  (860) 
10.379679

>  <scratch_subdir>  (860) 
/opt/xchem-fragalysis-2/maxwin/BulkDock/SCRATCH/601530/BCYWFRJEFREKSS-UHFFFAOYSA-N-P8-P8-P268-601530

>  <HIPPO Compound ID>  (860) 
146996

>  <rmsd(smina/fragmenstein)>  (860) 
2.902

>  <distance_score>  (860) 
1.793498

>  <orig_smiles>  (860) 
COCC1(C)CN(C(=O)Cn2c(=O)n(C3=CCCCC3)c3ccccc32)C1

>  <fragmenstein_mode>  (860) 
expansion

>  <inchikey>  (860) 
BCYWFRJEFREKSS-UHFFFAOYSA-N

>  <ref_pdb>  (860) 
Z0089a

>  <GNINA pK>  (860) 
nan

>  <gnina_score_min>  (860) 
5.323

>  <tags>  (860) 
xx01zvns2b_c1_elab_bulkdock_input,openbind_xx01zvns2b_c1_elab_nonasap_filtered_scored_top80percent,openbind_xx01zvns2b_c1_elab_chemspace_filtered_scored_top80percent,fragmenstein_placed,openbind_xx01zvns2b_c1_elab_chemspace_filtered_scored,openbind_xx01zvns2b_c1_elab_chemspace_filtered_scored_top40percent,openbind_xx01zvns2b_c1_elab_chemspace_filtered_scored_top20percent,openbind_xx01zvns2b_c1_elab_chemspace_filtered_scored_top60percent,openbind_xx01zvns2b_c1_elabs_filtered

>  <smiles>  (860) 
COCC1(C)CN(C(=O)Cn2c(=O)n(C3=CCCCC3)c3ccccc32)C1

>  <subsites>  (860) 
1 - Z4590/B/203/1

>  <gnina_score>  (860) 
4.831

>  <HIPPO Pose ID>  (860) 
85497

>  <ref_mols>  (860) 
Z0101a,Z4245a

>  <energy_score>  (860) 
-9.585637

>  <inspiration_score>  (860) 
None

>  <smina_score_min>  (860) 
-5.999

>  <fragmenstein_error>  (860) 


>  <name>  (860) 
BCYWFRJEFREKSS-UHFFFAOYSA-N-P8-P8-P268-601530

$$$$
FCOWSBLWCYFBPD-UHFFFAOYSA-N-P268-P8-P268-601530
     RDKit          3D

 27 30  0  0  0  0  0  0  0  0999 V2000
   -3.0160    7.2105  -21.1879 C   0  0  0  0  0  0  0  0  0  0  0  0
   -3.2992    5.9714  -22.0490 C   0  0  0  0  0  0  0  0  0  0  0  0
   -2.4248    4.8114  -21.5738 C   0  0  0  0  0  0  0  0  0  0  0  0
   -2.9981    6.2632  -23.5209 C   0  0  0  0  0  0  0  0  0  0  0  0
   -4.1935    6.7574  -24.1436 O   0  0  0  0  0  0  0  0  0  0  0  0
   -5.2756    6.6008  -23.2240 C   0  0  0  0  0  0  0  0  0  0  0  0
   -4.7772    5.6263  -22.1714 C   0  0  2  0  0  0  0  0  0  0  0  0
   -5.5385    5.6107  -20.9761 N   0  0  0  0  0  0  0  0  0  0  0  0
   -6.0072    6.7698  -20.0702 C   0  0  0  0  0  0  0  0  0  0  0  0
   -5.9062    7.9258  -20.2062 O   0  0  0  0  0  0  0  0  0  0  0  0
   -6.7894    6.1506  -18.9024 C   0  0  0  0  0  0  0  0  0  0  0  0
   -6.4658    4.7919  -18.4726 N   0  0  0  0  0  0  0  0  0  0  0  0
   -5.0952    4.7717  -18.1106 C   0  0  0  0  0  0  0  0  0  0  0  0
   -4.2237    4.6529  -18.9580 O   0  0  0  0  0  0  0  0  0  0  0  0
   -4.9911    4.9435  -16.7022 N   0  0  0  0  0  0  0  0  0  0  0  0
   -3.8180    5.3370  -16.0514 C   0  0  0  0  0  0  0  0  0  0  0  0
   -2.7446    5.8112  -16.7211 C   0  0  0  0  0  0  0  0  0  0  0  0
   -1.4924    6.3579  -16.0955 C   0  0  0  0  0  0  0  0  0  0  0  0
   -1.6252    6.6199  -14.6012 C   0  0  0  0  0  0  0  0  0  0  0  0
   -2.3636    5.4760  -13.9298 C   0  0  0  0  0  0  0  0  0  0  0  0
   -3.7587    5.2924  -14.5369 C   0  0  0  0  0  0  0  0  0  0  0  0
   -6.2917    4.6799  -16.1923 C   0  0  0  0  0  0  0  0  0  0  0  0
   -6.7997    4.6108  -14.9128 C   0  0  0  0  0  0  0  0  0  0  0  0
   -8.1498    4.2831  -14.7538 C   0  0  0  0  0  0  0  0  0  0  0  0
   -8.9739    4.0573  -15.8659 C   0  0  0  0  0  0  0  0  0  0  0  0
   -8.4876    4.1840  -17.1571 C   0  0  0  0  0  0  0  0  0  0  0  0
   -7.1515    4.4967  -17.2777 C   0  0  0  0  0  0  0  0  0  0  0  0
  1  2  1  0
  2  3  1  0
  2  4  1  0
  4  5  1  0
  5  6  1  0
  6  7  1  0
  7  8  1  1
  8  9  1  0
  9 10  2  0
  9 11  1  0
 11 12  1  0
 12 13  1  0
 13 14  2  0
 13 15  1  0
 15 16  1  0
 16 17  2  0
 17 18  1  0
 18 19  1  0
 19 20  1  0
 20 21  1  0
 15 22  1  0
 22 23  2  0
 23 24  1  0
 24 25  2  0
 25 26  1  0
 26 27  2  0
  7  2  1  0
 27 12  1  0
 21 16  1  0
 27 22  1  0
M  END
>  <fragmenstein_outcome>  (861) 
too moved

>  <exports>  (861) 
['/opt/xchem-fragalysis-2/maxwin/openbind-hippo/xx01zvns2b/cycle_01/syndirella/elabs/openbind_xx01zvns2b_c1_elab_chemspace_filtered.sdf']

>  <Energy>  (861) 
111.812791

>  <alias>  (861) 
FCOWSBLWCYFBPD-UHFFFAOYSA-N-P268-P8-P268-601530

>  <fragmenstein_runtime>  (861) 
6.957103

>  <scratch_subdir>  (861) 
/opt/xchem-fragalysis-2/maxwin/BulkDock/SCRATCH/601530/FCOWSBLWCYFBPD-UHFFFAOYSA-N-P268-P8-P268-601530

>  <HIPPO Compound ID>  (861) 
146997

>  <rmsd(smina/fragmenstein)>  (861) 
2.63

>  <distance_score>  (861) 
1.689333

>  <orig_smiles>  (861) 
CC1(C)COCC1NC(=O)Cn1c(=O)n(C2=CCCCC2)c2ccccc21

>  <fragmenstein_mode>  (861) 
expansion

>  <inchikey>  (861) 
FCOWSBLWCYFBPD-UHFFFAOYSA-N

>  <ref_pdb>  (861) 
Z0089a

>  <GNINA pK>  (861) 
nan

>  <gnina_score_min>  (861) 
5.575

>  <tags>  (861) 
xx01zvns2b_c1_elab_bulkdock_input,openbind_xx01zvns2b_c1_elab_nonasap_filtered_scored_top80percent,openbind_xx01zvns2b_c1_elab_chemspace_filtered_scored_top80percent,fragmenstein_placed,openbind_xx01zvns2b_c1_elab_chemspace_filtered_scored,openbind_xx01zvns2b_c1_elab_chemspace_filtered_scored_top40percent,openbind_xx01zvns2b_c1_elab_chemspace_filtered_scored_top20percent,openbind_xx01zvns2b_c1_elab_chemspace_filtered_scored_top60percent,openbind_xx01zvns2b_c1_elabs_filtered

>  <smiles>  (861) 
CC1(C)COCC1NC(=O)Cn1c(=O)n(C2=CCCCC2)c2ccccc21

>  <subsites>  (861) 
1 - Z4590/B/203/1

>  <gnina_score>  (861) 
4.885

>  <HIPPO Pose ID>  (861) 
85500

>  <ref_mols>  (861) 
Z0101a,Z4245a

>  <energy_score>  (861) 
-3.674494

>  <inspiration_score>  (861) 
None

>  <smina_score_min>  (861) 
-6.419

>  <fragmenstein_error>  (861) 


>  <name>  (861) 
FCOWSBLWCYFBPD-UHFFFAOYSA-N-P268-P8-P268-601530

$$$$
LJMIVLALZCANSV-UHFFFAOYSA-N-P268-P91-P268-601531
     RDKit          3D

 31 34  0  0  0  0  0  0  0  0999 V2000
   -5.2301    3.2901   -9.7237 C   0  0  0  0  0  0  0  0  0  0  0  0
   -6.4128    3.0273  -10.5018 N   0  0  0  0  0  0  0  0  0  0  0  0
   -6.6657    1.8501  -11.1386 C   0  0  0  0  0  0  0  0  0  0  0  0
   -7.8001    1.8971  -11.7977 N   0  0  0  0  0  0  0  0  0  0  0  0
   -8.3242    3.1226  -11.5331 C   0  0  0  0  0  0  0  0  0  0  0  0
   -7.4554    3.8814  -10.7793 C   0  0  0  0  0  0  0  0  0  0  0  0
   -7.5493    5.3014  -10.3618 C   0  0  0  0  0  0  0  0  0  0  0  0
   -6.4732    6.2067  -10.9704 C   0  0  2  0  0  0  0  0  0  0  0  0
   -6.9701    7.5461  -11.0239 O   0  0  0  0  0  0  0  0  0  0  0  0
   -5.9921    5.7450  -12.3675 C   0  0  0  0  0  0  0  0  0  0  0  0
   -4.8747    5.4731  -12.5873 O   0  0  0  0  0  0  0  0  0  0  0  0
   -7.2304    5.7725  -13.3149 N   0  0  0  0  0  0  0  0  0  0  0  0
   -7.3567    5.3929  -14.6520 C   0  0  0  0  0  0  0  0  0  0  0  0
   -8.6108    4.8739  -15.0107 C   0  0  0  0  0  0  0  0  0  0  0  0
   -8.8909    4.4404  -16.3136 C   0  0  0  0  0  0  0  0  0  0  0  0
   -7.9249    4.5285  -17.3088 C   0  0  0  0  0  0  0  0  0  0  0  0
   -6.6815    5.0161  -16.9606 C   0  0  0  0  0  0  0  0  0  0  0  0
   -6.3951    5.4608  -15.6493 C   0  0  0  0  0  0  0  0  0  0  0  0
   -5.1122    6.0430  -15.6916 N   0  0  0  0  0  0  0  0  0  0  0  0
   -4.6094    7.0663  -14.8402 C   0  0  0  0  0  0  0  0  0  0  0  0
   -4.5726    5.8869  -16.9671 C   0  0  0  0  0  0  0  0  0  0  0  0
   -3.5079    6.3386  -17.3694 O   0  0  0  0  0  0  0  0  0  0  0  0
   -5.5448    5.2426  -17.7504 N   0  0  0  0  0  0  0  0  0  0  0  0
   -5.3895    5.2963  -19.1675 C   0  0  2  0  0  0  0  0  0  0  0  0
   -5.6378    6.7064  -19.7095 C   0  0  0  0  0  0  0  0  0  0  0  0
   -5.0014    6.8549  -21.0790 C   0  0  0  0  0  0  0  0  0  0  0  0
   -5.3219    5.6981  -21.9896 C   0  0  0  0  0  0  0  0  0  0  0  0
   -5.3487    5.8297  -23.2104 O   0  0  0  0  0  0  0  0  0  0  0  0
   -5.5465    4.4775  -21.4031 N   0  0  0  0  0  0  0  0  0  0  0  0
   -6.0433    4.3205  -20.1211 C   0  0  0  0  0  0  0  0  0  0  0  0
   -6.8757    3.4650  -19.8583 O   0  0  0  0  0  0  0  0  0  0  0  0
  1  2  1  0
  2  3  1  0
  3  4  2  0
  4  5  1  0
  5  6  2  0
  6  7  1  0
  7  8  1  0
  8  9  1  6
  8 10  1  0
 10 11  2  0
 10 12  1  0
 12 13  1  0
 13 14  2  0
 14 15  1  0
 15 16  2  0
 16 17  1  0
 17 18  2  0
 18 19  1  0
 19 20  1  0
 19 21  1  0
 21 22  2  0
 21 23  1  0
 24 23  1  1
 24 25  1  0
 25 26  1  0
 26 27  1  0
 27 28  2  0
 27 29  1  0
 29 30  1  0
 30 31  2  0
  6  2  1  0
 18 13  1  0
 30 24  1  0
 23 17  1  0
M  END
>  <fragmenstein_outcome>  (862) 
too moved

>  <exports>  (862) 
['/opt/xchem-fragalysis-2/maxwin/openbind-hippo/xx01zvns2b/cycle_01/syndirella/elabs/openbind_xx01zvns2b_c1_elab_chemspace_filtered.sdf']

>  <Energy>  (862) 
46.959622

>  <alias>  (862) 
LJMIVLALZCANSV-UHFFFAOYSA-N-P268-P91-P268-601531

>  <fragmenstein_runtime>  (862) 
4.266101

>  <scratch_subdir>  (862) 
/opt/xchem-fragalysis-2/maxwin/BulkDock/SCRATCH/601531/LJMIVLALZCANSV-UHFFFAOYSA-N-P268-P91-P268-601531

>  <HIPPO Compound ID>  (862) 
147729

>  <rmsd(smina/fragmenstein)>  (862) 
1.735

>  <distance_score>  (862) 
1.319835

>  <orig_smiles>  (862) 
Cn1cncc1CC(O)C(=O)Nc1cccc2c1n(C)c(=O)n2C1CCC(=O)NC1=O

>  <fragmenstein_mode>  (862) 
expansion

>  <inchikey>  (862) 
LJMIVLALZCANSV-UHFFFAOYSA-N

>  <ref_pdb>  (862) 
Z0089a

>  <GNINA pK>  (862) 
nan

>  <gnina_score_min>  (862) 
5.154

>  <tags>  (862) 
xx01zvns2b_c1_elab_bulkdock_input,openbind_xx01zvns2b_c1_elab_nonasap_filtered_scored_top80percent,openbind_xx01zvns2b_c1_elab_chemspace_filtered_scored_top80percent,fragmenstein_placed,openbind_xx01zvns2b_c1_elab_chemspace_filtered_scored,openbind_xx01zvns2b_c1_elab_chemspace_filtered_scored_top40percent,openbind_xx01zvns2b_c1_elab_chemspace_filtered_scored_top20percent,openbind_xx01zvns2b_c1_elab_chemspace_filtered_scored_top60percent,openbind_xx01zvns2b_c1_elabs_filtered

>  <smiles>  (862) 
Cn1cncc1CC(O)C(=O)Nc1cccc2c1n(C)c(=O)n2C1CCC(=O)NC1=O

>  <subsites>  (862) 
1 - Z4590/B/203/1

>  <gnina_score>  (862) 
5.78

>  <HIPPO Pose ID>  (862) 
86970

>  <ref_mols>  (862) 
Z1688a,Z4245a

>  <energy_score>  (862) 
-30.857853

>  <inspiration_score>  (862) 
None

>  <smina_score_min>  (862) 
-6.618

>  <fragmenstein_error>  (862) 


>  <name>  (862) 
LJMIVLALZCANSV-UHFFFAOYSA-N-P268-P91-P268-601531

$$$$
KJXFTECPLAPHBP-UHFFFAOYSA-N-P7-P7-P35-601532
     RDKit          3D

 23 26  0  0  0  0  0  0  0  0999 V2000
   -4.1031    5.2887  -18.7600 C   0  0  0  0  0  0  0  0  0  0  0  0
   -5.5220    4.9074  -18.5865 C   0  0  0  0  0  0  0  0  0  0  0  0
   -6.3210    4.5123  -19.5450 N   0  0  0  0  0  0  0  0  0  0  0  0
   -7.5348    4.2528  -18.9640 C   0  0  0  0  0  0  0  0  0  0  0  0
   -7.4688    4.4275  -17.6068 C   0  0  0  0  0  0  0  0  0  0  0  0
   -6.1986    4.8976  -17.3999 N   0  0  0  0  0  0  0  0  0  0  0  0
   -5.7054    5.2922  -16.1063 C   0  0  0  0  0  0  0  0  0  0  0  0
   -6.8478    5.5832  -15.1447 C   0  0  0  0  0  0  0  0  0  0  0  0
   -7.8677    4.4415  -15.0903 C   0  0  2  0  0  0  0  0  0  0  0  0
   -7.2999    3.2029  -14.5170 N   0  0  0  0  0  0  0  0  0  0  0  0
   -6.3693    3.1881  -13.4955 C   0  0  0  0  0  0  0  0  0  0  0  0
   -5.2576    2.4592  -13.7406 N   0  0  0  0  0  0  0  0  0  0  0  0
   -4.2620    2.3919  -12.8528 C   0  0  0  0  0  0  0  0  0  0  0  0
   -3.1447    1.7402  -13.1893 N   0  0  0  0  0  0  0  0  0  0  0  0
   -2.1379    1.6612  -12.2924 C   0  0  0  0  0  0  0  0  0  0  0  0
   -2.1738    2.2353  -11.0384 C   0  0  0  0  0  0  0  0  0  0  0  0
   -3.3138    2.9421  -10.6922 C   0  0  0  0  0  0  0  0  0  0  0  0
   -4.3698    3.0359  -11.6107 C   0  0  0  0  0  0  0  0  0  0  0  0
   -5.5187    3.7839  -11.3407 C   0  0  0  0  0  0  0  0  0  0  0  0
   -6.5173    3.8826  -12.3095 C   0  0  0  0  0  0  0  0  0  0  0  0
   -7.6208    4.7554  -12.0848 C   0  0  0  0  0  0  0  0  0  0  0  0
   -8.4196    5.5768  -11.8949 N   0  0  0  0  0  0  0  0  0  0  0  0
   -8.4632    4.2235  -16.5132 C   0  0  0  0  0  0  0  0  0  0  0  0
  1  2  1  0
  2  3  2  0
  3  4  1  0
  4  5  2  0
  5  6  1  0
  6  7  1  0
  7  8  1  0
  8  9  1  0
  9 10  1  6
 10 11  1  0
 11 12  2  0
 12 13  1  0
 13 14  2  0
 14 15  1  0
 15 16  2  0
 16 17  1  0
 17 18  2  0
 18 19  1  0
 19 20  2  0
 20 21  1  0
 21 22  3  0
  9 23  1  0
  6  2  1  0
 20 11  1  0
 23  5  1  0
 18 13  1  0
M  END
>  <fragmenstein_outcome>  (863) 
too moved

>  <exports>  (863) 
['/opt/xchem-fragalysis-2/maxwin/openbind-hippo/xx01zvns2b/cycle_01/syndirella/elabs/openbind_xx01zvns2b_c1_elab_chemspace_filtered.sdf']

>  <Energy>  (863) 
37.390731

>  <alias>  (863) 
KJXFTECPLAPHBP-UHFFFAOYSA-N-P7-P7-P35-601532

>  <fragmenstein_runtime>  (863) 
2.897501

>  <scratch_subdir>  (863) 
/opt/xchem-fragalysis-2/maxwin/BulkDock/SCRATCH/601532/KJXFTECPLAPHBP-UHFFFAOYSA-N-P7-P7-P35-601532

>  <HIPPO Compound ID>  (863) 
142489

>  <rmsd(smina/fragmenstein)>  (863) 
1.085

>  <distance_score>  (863) 
1.789366

>  <orig_smiles>  (863) 
Cc1ncc2n1CCC(Nc1nc3ncccc3cc1C#N)C2

>  <fragmenstein_mode>  (863) 
expansion

>  <inchikey>  (863) 
KJXFTECPLAPHBP-UHFFFAOYSA-N

>  <ref_pdb>  (863) 
Z0089a

>  <GNINA pK>  (863) 
nan

>  <gnina_score_min>  (863) 
5.284

>  <tags>  (863) 
xx01zvns2b_c1_elab_bulkdock_input,openbind_xx01zvns2b_c1_elab_nonasap_filtered_scored_top80percent,openbind_xx01zvns2b_c1_elab_chemspace_filtered_scored_top80percent,fragmenstein_placed,openbind_xx01zvns2b_c1_elab_chemspace_filtered_scored,openbind_xx01zvns2b_c1_elab_chemspace_filtered_scored_top40percent,openbind_xx01zvns2b_c1_elab_chemspace_filtered_scored_top20percent,openbind_xx01zvns2b_c1_elab_chemspace_filtered_scored_top60percent,openbind_xx01zvns2b_c1_elabs_filtered

>  <smiles>  (863) 
Cc1ncc2n1CCC(Nc1nc3ncccc3cc1C#N)C2

>  <subsites>  (863) 
1 - Z4590/B/203/1

>  <gnina_score>  (863) 
5.514

>  <HIPPO Pose ID>  (863) 
89257

>  <ref_mols>  (863) 
Z0719a,Z0089a

>  <energy_score>  (863) 
-38.179734

>  <inspiration_score>  (863) 
None

>  <smina_score_min>  (863) 
-7.127

>  <fragmenstein_error>  (863) 


>  <name>  (863) 
KJXFTECPLAPHBP-UHFFFAOYSA-N-P7-P7-P35-601532

$$$$
WJAXPHLZUJRINP-UHFFFAOYSA-N-P7-P7-P35-601532
     RDKit          3D

 23 26  0  0  0  0  0  0  0  0999 V2000
   -3.8000    5.8167  -19.8425 C   0  0  0  0  0  0  0  0  0  0  0  0
   -5.0086    5.6731  -19.0095 C   0  0  0  0  0  0  0  0  0  0  0  0
   -6.1781    5.2159  -19.4023 N   0  0  0  0  0  0  0  0  0  0  0  0
   -6.9527    5.1522  -18.2847 C   0  0  0  0  0  0  0  0  0  0  0  0
   -6.2351    5.5896  -17.1960 C   0  0  0  0  0  0  0  0  0  0  0  0
   -5.0122    5.9508  -17.6661 N   0  0  0  0  0  0  0  0  0  0  0  0
   -6.6211    5.3658  -15.7864 C   0  0  0  0  0  0  0  0  0  0  0  0
   -7.3381    3.9991  -15.8080 C   0  0  1  0  0  0  0  0  0  0  0  0
   -7.6277    3.3390  -14.5138 N   0  0  0  0  0  0  0  0  0  0  0  0
   -6.5704    3.4365  -13.5931 C   0  0  0  0  0  0  0  0  0  0  0  0
   -5.5586    2.5514  -13.6800 N   0  0  0  0  0  0  0  0  0  0  0  0
   -4.4981    2.6701  -12.8771 C   0  0  0  0  0  0  0  0  0  0  0  0
   -3.4699    1.8400  -13.0546 N   0  0  0  0  0  0  0  0  0  0  0  0
   -2.4033    1.9259  -12.2324 C   0  0  0  0  0  0  0  0  0  0  0  0
   -2.2809    2.8598  -11.2248 C   0  0  0  0  0  0  0  0  0  0  0  0
   -3.3197    3.7616  -11.0593 C   0  0  0  0  0  0  0  0  0  0  0  0
   -4.4422    3.6791  -11.8962 C   0  0  0  0  0  0  0  0  0  0  0  0
   -5.4989    4.5909  -11.7998 C   0  0  0  0  0  0  0  0  0  0  0  0
   -6.5671    4.4799  -12.6823 C   0  0  0  0  0  0  0  0  0  0  0  0
   -7.6251    5.4399  -12.6857 C   0  0  0  0  0  0  0  0  0  0  0  0
   -8.4172    6.2908  -12.6713 N   0  0  0  0  0  0  0  0  0  0  0  0
   -8.6066    4.1029  -16.7080 C   0  0  0  0  0  0  0  0  0  0  0  0
   -8.2539    4.4297  -18.1905 C   0  0  0  0  0  0  0  0  0  0  0  0
  1  2  1  0
  2  3  2  0
  3  4  1  0
  4  5  2  0
  5  6  1  0
  5  7  1  0
  7  8  1  0
  8  9  1  1
  9 10  1  0
 10 11  2  0
 11 12  1  0
 12 13  2  0
 13 14  1  0
 14 15  2  0
 15 16  1  0
 16 17  2  0
 17 18  1  0
 18 19  2  0
 19 20  1  0
 20 21  3  0
  8 22  1  0
 22 23  1  0
  6  2  1  0
 19 10  1  0
 23  4  1  0
 17 12  1  0
M  END
>  <fragmenstein_outcome>  (864) 
too moved

>  <exports>  (864) 
['/opt/xchem-fragalysis-2/maxwin/openbind-hippo/xx01zvns2b/cycle_01/syndirella/elabs/openbind_xx01zvns2b_c1_elab_chemspace_filtered.sdf']

>  <Energy>  (864) 
49.191476

>  <alias>  (864) 
WJAXPHLZUJRINP-UHFFFAOYSA-N-P7-P7-P35-601532

>  <fragmenstein_runtime>  (864) 
3.804318

>  <scratch_subdir>  (864) 
/opt/xchem-fragalysis-2/maxwin/BulkDock/SCRATCH/601532/WJAXPHLZUJRINP-UHFFFAOYSA-N-P7-P7-P35-601532

>  <HIPPO Compound ID>  (864) 
142491

>  <rmsd(smina/fragmenstein)>  (864) 
0.575

>  <distance_score>  (864) 
1.553476

>  <orig_smiles>  (864) 
Cc1nc2c([nH]1)CC(Nc1nc3ncccc3cc1C#N)CC2

>  <fragmenstein_mode>  (864) 
expansion

>  <inchikey>  (864) 
WJAXPHLZUJRINP-UHFFFAOYSA-N

>  <ref_pdb>  (864) 
Z0089a

>  <GNINA pK>  (864) 
nan

>  <gnina_score_min>  (864) 
5.576

>  <tags>  (864) 
xx01zvns2b_c1_elab_bulkdock_input,openbind_xx01zvns2b_c1_elab_nonasap_filtered_scored_top80percent,openbind_xx01zvns2b_c1_elab_chemspace_filtered_scored_top80percent,fragmenstein_placed,openbind_xx01zvns2b_c1_elab_chemspace_filtered_scored,openbind_xx01zvns2b_c1_elab_chemspace_filtered_scored_top40percent,openbind_xx01zvns2b_c1_elab_chemspace_filtered_scored_top20percent,openbind_xx01zvns2b_c1_elab_chemspace_filtered_scored_top60percent,openbind_xx01zvns2b_c1_elabs_filtered

>  <smiles>  (864) 
Cc1nc2c([nH]1)CC(Nc1nc3ncccc3cc1C#N)CC2

>  <subsites>  (864) 
1 - Z4590/B/203/1

>  <gnina_score>  (864) 
5.816

>  <HIPPO Pose ID>  (864) 
89261

>  <ref_mols>  (864) 
Z0719a,Z0089a

>  <energy_score>  (864) 
-17.405393

>  <inspiration_score>  (864) 
None

>  <smina_score_min>  (864) 
-6.502

>  <fragmenstein_error>  (864) 


>  <name>  (864) 
WJAXPHLZUJRINP-UHFFFAOYSA-N-P7-P7-P35-601532

$$$$
OBZJDFRZHIPBFI-UHFFFAOYSA-N-P35-P7-P35-601532
     RDKit          3D

 23 26  0  0  0  0  0  0  0  0999 V2000
   -6.9637    4.1929  -19.9809 C   0  0  0  0  0  0  0  0  0  0  0  0
   -6.6761    5.1874  -18.9962 N   0  0  0  0  0  0  0  0  0  0  0  0
   -5.5122    5.9067  -18.9601 C   0  0  0  0  0  0  0  0  0  0  0  0
   -5.1948    6.2435  -17.7291 N   0  0  0  0  0  0  0  0  0  0  0  0
   -6.2267    5.7554  -16.9794 C   0  0  0  0  0  0  0  0  0  0  0  0
   -7.2517    5.2576  -17.7655 C   0  0  0  0  0  0  0  0  0  0  0  0
   -8.4698    4.5291  -17.3009 C   0  0  0  0  0  0  0  0  0  0  0  0
   -8.3278    4.1939  -15.8024 C   0  0  0  0  0  0  0  0  0  0  0  0
   -6.8368    4.0323  -15.4312 C   0  0  2  0  0  0  0  0  0  0  0  0
   -6.5286    3.1969  -14.2643 N   0  0  0  0  0  0  0  0  0  0  0  0
   -6.5796    3.7983  -13.0234 C   0  0  0  0  0  0  0  0  0  0  0  0
   -7.4288    4.8339  -12.8955 N   0  0  0  0  0  0  0  0  0  0  0  0
   -7.5625    5.4483  -11.7298 C   0  0  0  0  0  0  0  0  0  0  0  0
   -8.3792    6.5024  -11.6635 N   0  0  0  0  0  0  0  0  0  0  0  0
   -8.5224    7.1410  -10.4812 C   0  0  0  0  0  0  0  0  0  0  0  0
   -7.8747    6.7741   -9.3195 C   0  0  0  0  0  0  0  0  0  0  0  0
   -7.0152    5.6894   -9.3811 C   0  0  0  0  0  0  0  0  0  0  0  0
   -6.8438    5.0162  -10.5989 C   0  0  0  0  0  0  0  0  0  0  0  0
   -5.9511    3.9460  -10.7295 C   0  0  0  0  0  0  0  0  0  0  0  0
   -5.7941    3.3378  -11.9715 C   0  0  0  0  0  0  0  0  0  0  0  0
   -4.7326    2.3979  -12.1665 C   0  0  0  0  0  0  0  0  0  0  0  0
   -3.7887    1.7305  -12.2801 N   0  0  0  0  0  0  0  0  0  0  0  0
   -6.1208    5.4005  -15.5384 C   0  0  0  0  0  0  0  0  0  0  0  0
  1  2  1  0
  2  3  1  0
  3  4  2  0
  4  5  1  0
  5  6  2  0
  6  7  1  0
  7  8  1  0
  8  9  1  0
  9 10  1  1
 10 11  1  0
 11 12  2  0
 12 13  1  0
 13 14  2  0
 14 15  1  0
 15 16  2  0
 16 17  1  0
 17 18  2  0
 18 19  1  0
 19 20  2  0
 20 21  1  0
 21 22  3  0
  9 23  1  0
  6  2  1  0
 20 11  1  0
 23  5  1  0
 18 13  1  0
M  END
>  <fragmenstein_outcome>  (865) 
too moved

>  <exports>  (865) 
['/opt/xchem-fragalysis-2/maxwin/openbind-hippo/xx01zvns2b/cycle_01/syndirella/elabs/openbind_xx01zvns2b_c1_elab_chemspace_filtered.sdf']

>  <Energy>  (865) 
62.976215

>  <alias>  (865) 
OBZJDFRZHIPBFI-UHFFFAOYSA-N-P35-P7-P35-601532

>  <fragmenstein_runtime>  (865) 
3.154281

>  <scratch_subdir>  (865) 
/opt/xchem-fragalysis-2/maxwin/BulkDock/SCRATCH/601532/OBZJDFRZHIPBFI-UHFFFAOYSA-N-P35-P7-P35-601532

>  <HIPPO Compound ID>  (865) 
142492

>  <rmsd(smina/fragmenstein)>  (865) 
1.469

>  <distance_score>  (865) 
1.712906

>  <orig_smiles>  (865) 
Cn1cnc2c1CCC(Nc1nc3ncccc3cc1C#N)C2

>  <fragmenstein_mode>  (865) 
expansion

>  <inchikey>  (865) 
OBZJDFRZHIPBFI-UHFFFAOYSA-N

>  <ref_pdb>  (865) 
Z0089a

>  <GNINA pK>  (865) 
nan

>  <gnina_score_min>  (865) 
5.412

>  <tags>  (865) 
xx01zvns2b_c1_elab_bulkdock_input,openbind_xx01zvns2b_c1_elab_nonasap_filtered_scored_top80percent,openbind_xx01zvns2b_c1_elab_chemspace_filtered_scored_top80percent,fragmenstein_placed,openbind_xx01zvns2b_c1_elab_chemspace_filtered_scored,openbind_xx01zvns2b_c1_elab_chemspace_filtered_scored_top40percent,openbind_xx01zvns2b_c1_elab_chemspace_filtered_scored_top20percent,openbind_xx01zvns2b_c1_elab_chemspace_filtered_scored_top60percent,openbind_xx01zvns2b_c1_elabs_filtered

>  <smiles>  (865) 
Cn1cnc2c1CCC(Nc1nc3ncccc3cc1C#N)C2

>  <subsites>  (865) 
1 - Z4590/B/203/1

>  <gnina_score>  (865) 
5.469

>  <HIPPO Pose ID>  (865) 
89264

>  <ref_mols>  (865) 
Z0719a,Z0089a

>  <energy_score>  (865) 
-14.757022

>  <inspiration_score>  (865) 
None

>  <smina_score_min>  (865) 
-5.981

>  <fragmenstein_error>  (865) 


>  <name>  (865) 
OBZJDFRZHIPBFI-UHFFFAOYSA-N-P35-P7-P35-601532

$$$$
CBQZGEMQTNAPAQ-UHFFFAOYSA-N-P7-P7-P35-601532
     RDKit          3D

 27 30  0  0  0  0  0  0  0  0999 V2000
   -2.5962    4.6636  -14.9450 N   0  0  0  0  0  0  0  0  0  0  0  0
   -3.5354    4.7118  -15.6260 C   0  0  0  0  0  0  0  0  0  0  0  0
   -4.6989    4.7474  -16.4546 C   0  0  0  0  0  0  0  0  0  0  0  0
   -5.9602    4.6639  -15.8481 C   0  0  0  0  0  0  0  0  0  0  0  0
   -7.0947    4.5552  -16.6573 C   0  0  0  0  0  0  0  0  0  0  0  0
   -8.3804    4.3319  -16.1431 C   0  0  0  0  0  0  0  0  0  0  0  0
   -9.4374    4.1766  -17.0266 C   0  0  0  0  0  0  0  0  0  0  0  0
   -9.1776    4.2809  -18.3733 C   0  0  0  0  0  0  0  0  0  0  0  0
   -7.9521    4.4957  -18.8713 N   0  0  0  0  0  0  0  0  0  0  0  0
   -6.9246    4.6195  -18.0493 C   0  0  0  0  0  0  0  0  0  0  0  0
   -5.7276    4.7646  -18.6018 N   0  0  0  0  0  0  0  0  0  0  0  0
   -4.6219    4.7659  -17.8512 C   0  0  0  0  0  0  0  0  0  0  0  0
   -3.4558    4.6092  -18.5984 N   0  0  0  0  0  0  0  0  0  0  0  0
   -2.4569    5.6934  -18.6026 C   0  0  1  0  0  0  0  0  0  0  0  0
   -1.2055    5.1254  -19.3367 C   0  0  0  0  0  0  0  0  0  0  0  0
    0.0982    5.8651  -19.1218 C   0  0  0  0  0  0  0  0  0  0  0  0
    0.9115    6.1776  -20.2213 C   0  0  0  0  0  0  0  0  0  0  0  0
    2.1330    6.8307  -20.0454 C   0  0  0  0  0  0  0  0  0  0  0  0
    2.5629    7.1718  -18.7659 C   0  0  0  0  0  0  0  0  0  0  0  0
    1.7759    6.8504  -17.6626 C   0  0  0  0  0  0  0  0  0  0  0  0
    0.5556    6.1936  -17.8378 C   0  0  0  0  0  0  0  0  0  0  0  0
   -3.0092    6.9460  -19.3134 C   0  0  0  0  0  0  0  0  0  0  0  0
   -2.2456    8.1835  -18.9927 C   0  0  0  0  0  0  0  0  0  0  0  0
   -1.4420    8.9489  -19.8100 C   0  0  0  0  0  0  0  0  0  0  0  0
   -0.9401    9.9300  -19.0022 N   0  0  0  0  0  0  0  0  0  0  0  0
   -1.4764    9.7547  -17.7592 C   0  0  0  0  0  0  0  0  0  0  0  0
   -2.2789    8.7164  -17.7230 N   0  0  0  0  0  0  0  0  0  0  0  0
  1  2  3  0
  2  3  1  0
  3  4  2  0
  4  5  1  0
  5  6  2  0
  6  7  1  0
  7  8  2  0
  8  9  1  0
  9 10  2  0
 10 11  1  0
 11 12  2  0
 12 13  1  0
 13 14  1  0
 14 15  1  6
 15 16  1  0
 16 17  2  0
 17 18  1  0
 18 19  2  0
 19 20  1  0
 20 21  2  0
 14 22  1  0
 22 23  1  0
 23 24  2  0
 24 25  1  0
 25 26  1  0
 26 27  2  0
 12  3  1  0
 21 16  1  0
 27 23  1  0
 10  5  1  0
M  END
>  <fragmenstein_outcome>  (866) 
acceptable

>  <exports>  (866) 
['/opt/xchem-fragalysis-2/maxwin/BulkDock/OUTPUTS/xx01zvns2b_c1_elab_bulkdock_input_1GFT1FD.sdf', '/opt/xchem-fragalysis-2/maxwin/openbind-hippo/xx01zvns2b/cycle_01/syndirella/elabs/openbind_xx01zvns2b_c1_elab_chemspace_filtered.sdf']

>  <Energy>  (866) 
71.604607

>  <alias>  (866) 
CBQZGEMQTNAPAQ-UHFFFAOYSA-N-P7-P7-P35-601532

>  <fragmenstein_runtime>  (866) 
3.898951

>  <scratch_subdir>  (866) 
/opt/xchem-fragalysis-2/maxwin/BulkDock/SCRATCH/601532/CBQZGEMQTNAPAQ-UHFFFAOYSA-N-P7-P7-P35-601532

>  <HIPPO Compound ID>  (866) 
142502

>  <rmsd(smina/fragmenstein)>  (866) 
2.086

>  <distance_score>  (866) 
0.955483

>  <orig_smiles>  (866) 
N#Cc1cc2cccnc2nc1NC(Cc1ccccc1)Cc1c[nH]cn1

>  <fragmenstein_mode>  (866) 
expansion

>  <inchikey>  (866) 
CBQZGEMQTNAPAQ-UHFFFAOYSA-N

>  <ref_pdb>  (866) 
Z0089a

>  <GNINA pK>  (866) 
nan

>  <gnina_score_min>  (866) 
5.354

>  <tags>  (866) 
xx01zvns2b_c1_elab_bulkdock_input,openbind_xx01zvns2b_c1_elab_nonasap_filtered_scored_top80percent,BulkDock Fragalysis export,openbind_xx01zvns2b_c1_elab_chemspace_filtered_scored_top80percent,fragmenstein_placed,openbind_xx01zvns2b_c1_elab_chemspace_filtered_scored,openbind_xx01zvns2b_c1_elab_chemspace_filtered_scored_top40percent,openbind_xx01zvns2b_c1_elab_chemspace_filtered_scored_top20percent,openbind_xx01zvns2b_c1_elab_chemspace_filtered_scored_top60percent,openbind_xx01zvns2b_c1_elabs_filtered

>  <smiles>  (866) 
N#Cc1cc2cccnc2nc1NC(Cc1ccccc1)Cc1c[nH]cn1

>  <subsites>  (866) 
1 - Z4590/B/203/1

>  <gnina_score>  (866) 
5.449

>  <HIPPO Pose ID>  (866) 
89283

>  <ref_mols>  (866) 
Z0719a,Z0089a

>  <energy_score>  (866) 
-14.908583

>  <inspiration_score>  (866) 
None

>  <smina_score_min>  (866) 
-5.792

>  <fragmenstein_error>  (866) 


>  <name>  (866) 
CBQZGEMQTNAPAQ-UHFFFAOYSA-N-P7-P7-P35-601532

$$$$
IASQVUKFZGDYCG-UHFFFAOYSA-N-P64-P64-P84-601532
     RDKit          3D

 22 25  0  0  0  0  0  0  0  0999 V2000
   -9.5641    5.2778  -13.8980 O   0  0  0  0  0  0  0  0  0  0  0  0
   -8.4968    5.1013  -13.4458 C   0  0  0  0  0  0  0  0  0  0  0  0
   -7.1248    4.8714  -14.1527 N   0  0  0  0  0  0  0  0  0  0  0  0
   -6.7944    4.9049  -15.4733 C   0  0  0  0  0  0  0  0  0  0  0  0
   -7.8521    4.6013  -16.4202 C   0  0  0  0  0  0  0  0  0  0  0  0
   -7.6019    4.5645  -17.7400 C   0  0  0  0  0  0  0  0  0  0  0  0
   -8.9978    4.1438  -18.8932 Br  0  0  0  0  0  0  0  0  0  0  0  0
   -6.3098    4.8811  -18.1799 N   0  0  0  0  0  0  0  0  0  0  0  0
   -5.7446    4.9197  -19.4311 C   0  0  0  0  0  0  0  0  0  0  0  0
   -4.4960    5.4667  -19.2760 C   0  0  0  0  0  0  0  0  0  0  0  0
   -4.2174    5.6789  -17.9543 N   0  0  0  0  0  0  0  0  0  0  0  0
   -5.2876    5.2624  -17.3054 C   0  0  0  0  0  0  0  0  0  0  0  0
   -5.5514    5.1895  -15.9058 C   0  0  0  0  0  0  0  0  0  0  0  0
   -8.2472    5.0863  -11.9359 C   0  0  2  0  0  0  0  0  0  0  0  0
   -7.6283    6.3893  -11.4384 C   0  0  0  0  0  0  0  0  0  0  0  0
   -6.9609    6.1873  -10.0752 C   0  0  0  0  0  0  0  0  0  0  0  0
   -7.6611    5.1009   -9.2597 C   0  0  0  0  0  0  0  0  0  0  0  0
   -7.6692    3.7638  -10.0335 C   0  0  0  0  0  0  0  0  0  0  0  0
   -8.8864    2.8586   -9.6782 C   0  0  0  0  0  0  0  0  0  0  0  0
   -8.0246    2.2097   -8.5896 C   0  0  0  0  0  0  0  0  0  0  0  0
   -6.7980    2.6307   -9.4135 C   0  0  0  0  0  0  0  0  0  0  0  0
   -7.4664    4.0025  -11.4591 O   0  0  0  0  0  0  0  0  0  0  0  0
  1  2  2  0
  2  3  1  0
  3  4  1  0
  4  5  1  0
  5  6  2  0
  6  7  1  0
  6  8  1  0
  8  9  1  0
  9 10  2  0
 10 11  1  0
 11 12  2  0
 12 13  1  0
 14  2  1  6
 14 15  1  0
 15 16  1  0
 16 17  1  0
 17 18  1  0
 18 19  1  0
 19 20  1  0
 20 21  1  0
 18 22  1  0
 13  4  2  0
 22 14  1  0
 12  8  1  0
 21 18  1  0
M  END
>  <fragmenstein_outcome>  (867) 
too moved

>  <exports>  (867) 
['/opt/xchem-fragalysis-2/maxwin/openbind-hippo/xx01zvns2b/cycle_01/syndirella/elabs/openbind_xx01zvns2b_c1_elab_chemspace_filtered.sdf']

>  <Energy>  (867) 
74.918205

>  <alias>  (867) 
IASQVUKFZGDYCG-UHFFFAOYSA-N-P64-P64-P84-601532

>  <fragmenstein_runtime>  (867) 
8.539844

>  <scratch_subdir>  (867) 
/opt/xchem-fragalysis-2/maxwin/BulkDock/SCRATCH/601532/IASQVUKFZGDYCG-UHFFFAOYSA-N-P64-P64-P84-601532

>  <HIPPO Compound ID>  (867) 
139179

>  <rmsd(smina/fragmenstein)>  (867) 
0.542

>  <distance_score>  (867) 
1.267847

>  <orig_smiles>  (867) 
O=C(Nc1cc(Br)n2ccnc2c1)C1CCCC2(CCC2)O1

>  <fragmenstein_mode>  (867) 
expansion

>  <inchikey>  (867) 
IASQVUKFZGDYCG-UHFFFAOYSA-N

>  <ref_pdb>  (867) 
Z0089a

>  <GNINA pK>  (867) 
nan

>  <gnina_score_min>  (867) 
5.342

>  <tags>  (867) 
xx01zvns2b_c1_elab_bulkdock_input,openbind_xx01zvns2b_c1_elab_nonasap_filtered_scored_top80percent,openbind_xx01zvns2b_c1_elab_chemspace_filtered_scored_top80percent,fragmenstein_placed,openbind_xx01zvns2b_c1_elab_chemspace_filtered_scored,openbind_xx01zvns2b_c1_elab_chemspace_filtered_scored_top40percent,openbind_xx01zvns2b_c1_elab_chemspace_filtered_scored_top20percent,openbind_xx01zvns2b_c1_elab_chemspace_filtered_scored_top60percent,openbind_xx01zvns2b_c1_elabs_filtered

>  <smiles>  (867) 
O=C(Nc1cc(Br)n2ccnc2c1)C1CCCC2(CCC2)O1

>  <subsites>  (867) 
1 - Z4590/B/203/1

>  <gnina_score>  (867) 
5.254

>  <HIPPO Pose ID>  (867) 
89425

>  <ref_mols>  (867) 
Z1046b,Z1495a

>  <energy_score>  (867) 
-27.050226

>  <inspiration_score>  (867) 
None

>  <smina_score_min>  (867) 
-5.718

>  <fragmenstein_error>  (867) 


>  <name>  (867) 
IASQVUKFZGDYCG-UHFFFAOYSA-N-P64-P64-P84-601532

$$$$
YZLLXYVUCNZPFI-UHFFFAOYSA-N-P64-P64-P84-601532
     RDKit          3D

 22 25  0  0  0  0  0  0  0  0999 V2000
   -5.7356    3.8742   -9.2245 C   0  0  0  0  0  0  0  0  0  0  0  0
   -6.3245    5.0597   -9.9830 C   0  0  0  0  0  0  0  0  0  0  0  0
   -5.5260    6.3221   -9.6337 C   0  0  0  0  0  0  0  0  0  0  0  0
   -6.2379    4.8491  -11.4326 O   0  0  0  0  0  0  0  0  0  0  0  0
   -7.6086    4.8737  -11.8918 C   0  0  1  0  0  0  0  0  0  0  0  0
   -7.9602    5.1339  -13.3646 C   0  0  0  0  0  0  0  0  0  0  0  0
   -9.0441    5.3603  -13.7491 O   0  0  0  0  0  0  0  0  0  0  0  0
   -6.6260    4.9584  -14.1508 N   0  0  0  0  0  0  0  0  0  0  0  0
   -6.3867    4.9327  -15.4904 C   0  0  0  0  0  0  0  0  0  0  0  0
   -7.5090    4.7043  -16.3855 C   0  0  0  0  0  0  0  0  0  0  0  0
   -7.3191    4.6170  -17.7150 C   0  0  0  0  0  0  0  0  0  0  0  0
   -8.7859    4.2333  -18.7971 Br  0  0  0  0  0  0  0  0  0  0  0  0
   -6.0197    4.8019  -18.2156 N   0  0  0  0  0  0  0  0  0  0  0  0
   -5.5065    4.7876  -19.4930 C   0  0  0  0  0  0  0  0  0  0  0  0
   -4.1663    5.0728  -19.3771 C   0  0  0  0  0  0  0  0  0  0  0  0
   -3.8136    5.2470  -18.0682 N   0  0  0  0  0  0  0  0  0  0  0  0
   -4.9234    5.0560  -17.3856 C   0  0  0  0  0  0  0  0  0  0  0  0
   -5.1421    5.0733  -15.9808 C   0  0  0  0  0  0  0  0  0  0  0  0
   -8.2578    3.5592  -11.4232 C   0  0  0  0  0  0  0  0  0  0  0  0
   -8.5148    3.8439   -9.9436 C   0  0  0  0  0  0  0  0  0  0  0  0
   -7.8333    5.2118   -9.7379 C   0  0  2  0  0  0  0  0  0  0  0  0
   -8.2219    5.9413  -11.0029 C   0  0  0  0  0  0  0  0  0  0  0  0
  1  2  1  0
  2  3  1  0
  2  4  1  0
  4  5  1  0
  5  6  1  6
  6  7  2  0
  6  8  1  0
  8  9  1  0
  9 10  1  0
 10 11  2  0
 11 12  1  0
 11 13  1  0
 13 14  1  0
 14 15  2  0
 15 16  1  0
 16 17  2  0
 17 18  1  0
  5 19  1  0
 19 20  1  0
 21 20  1  6
 21 22  1  0
 21  2  1  0
 22  5  1  0
 18  9  2  0
 17 13  1  0
M  END
>  <fragmenstein_outcome>  (868) 
too moved

>  <exports>  (868) 
['/opt/xchem-fragalysis-2/maxwin/openbind-hippo/xx01zvns2b/cycle_01/syndirella/elabs/openbind_xx01zvns2b_c1_elab_chemspace_filtered.sdf']

>  <Energy>  (868) 
90.678583

>  <alias>  (868) 
YZLLXYVUCNZPFI-UHFFFAOYSA-N-P64-P64-P84-601532

>  <fragmenstein_runtime>  (868) 
15.059626

>  <scratch_subdir>  (868) 
/opt/xchem-fragalysis-2/maxwin/BulkDock/SCRATCH/601532/YZLLXYVUCNZPFI-UHFFFAOYSA-N-P64-P64-P84-601532

>  <HIPPO Compound ID>  (868) 
139185

>  <rmsd(smina/fragmenstein)>  (868) 
0.256

>  <distance_score>  (868) 
1.806743

>  <orig_smiles>  (868) 
CC1(C)OC2(C(=O)Nc3cc(Br)n4ccnc4c3)CCC1C2

>  <fragmenstein_mode>  (868) 
expansion

>  <inchikey>  (868) 
YZLLXYVUCNZPFI-UHFFFAOYSA-N

>  <ref_pdb>  (868) 
Z0089a

>  <GNINA pK>  (868) 
nan

>  <gnina_score_min>  (868) 
5.336

>  <tags>  (868) 
xx01zvns2b_c1_elab_bulkdock_input,openbind_xx01zvns2b_c1_elab_nonasap_filtered_scored_top80percent,openbind_xx01zvns2b_c1_elab_chemspace_filtered_scored_top80percent,fragmenstein_placed,openbind_xx01zvns2b_c1_elab_chemspace_filtered_scored,openbind_xx01zvns2b_c1_elab_chemspace_filtered_scored_top40percent,openbind_xx01zvns2b_c1_elab_chemspace_filtered_scored_top20percent,openbind_xx01zvns2b_c1_elab_chemspace_filtered_scored_top60percent,openbind_xx01zvns2b_c1_elabs_filtered

>  <smiles>  (868) 
CC1(C)OC2(C(=O)Nc3cc(Br)n4ccnc4c3)CCC1C2

>  <subsites>  (868) 
1 - Z4590/B/203/1

>  <gnina_score>  (868) 
5.326

>  <HIPPO Pose ID>  (868) 
89437

>  <ref_mols>  (868) 
Z1046b,Z1495a

>  <energy_score>  (868) 
-53.824847

>  <inspiration_score>  (868) 
None

>  <smina_score_min>  (868) 
-6.251

>  <fragmenstein_error>  (868) 


>  <name>  (868) 
YZLLXYVUCNZPFI-UHFFFAOYSA-N-P64-P64-P84-601532

$$$$
NZYSKMPUCHYIGK-UHFFFAOYSA-N-P84-P64-P84-601532
     RDKit          3D

 23 26  0  0  0  0  0  0  0  0999 V2000
   -9.1233    5.0634  -13.5088 O   0  0  0  0  0  0  0  0  0  0  0  0
   -7.9983    4.8975  -13.2187 C   0  0  0  0  0  0  0  0  0  0  0  0
   -6.6889    5.0414  -14.0857 N   0  0  0  0  0  0  0  0  0  0  0  0
   -6.5337    5.3046  -15.4049 C   0  0  0  0  0  0  0  0  0  0  0  0
   -7.6133    4.9132  -16.2896 C   0  0  0  0  0  0  0  0  0  0  0  0
   -7.4419    4.9685  -17.6208 C   0  0  0  0  0  0  0  0  0  0  0  0
   -8.7983    4.3369  -18.7165 Br  0  0  0  0  0  0  0  0  0  0  0  0
   -6.2434    5.5026  -18.1131 N   0  0  0  0  0  0  0  0  0  0  0  0
   -5.8227    5.7965  -19.3787 C   0  0  0  0  0  0  0  0  0  0  0  0
   -4.5873    6.3724  -19.2852 C   0  0  0  0  0  0  0  0  0  0  0  0
   -4.1940    6.4313  -17.9817 N   0  0  0  0  0  0  0  0  0  0  0  0
   -5.1929    5.9112  -17.2930 C   0  0  0  0  0  0  0  0  0  0  0  0
   -5.3546    5.7326  -15.8938 C   0  0  0  0  0  0  0  0  0  0  0  0
   -7.4871    4.3626  -11.8548 C   0  0  2  0  0  0  0  0  0  0  0  0
   -7.0600    2.9194  -12.1504 C   0  0  0  0  0  0  0  0  0  0  0  0
   -6.2971    2.3780  -10.9699 C   0  0  0  0  0  0  0  0  0  0  0  0
   -7.1833    2.4470   -9.7589 C   0  0  0  0  0  0  0  0  0  0  0  0
   -7.8203    3.8126   -9.5363 C   0  0  2  0  0  0  0  0  0  0  0  0
   -6.9462    4.8417   -8.8548 C   0  0  0  0  0  0  0  0  0  0  0  0
   -7.9868    5.6971   -8.1677 C   0  0  0  0  0  0  0  0  0  0  0  0
   -9.0166    4.8155   -7.7194 O   0  0  0  0  0  0  0  0  0  0  0  0
   -8.8929    3.5926   -8.4589 C   0  0  0  0  0  0  0  0  0  0  0  0
   -8.3770    4.3825  -10.7460 O   0  0  0  0  0  0  0  0  0  0  0  0
  1  2  2  0
  2  3  1  0
  3  4  1  0
  4  5  1  0
  5  6  2  0
  6  7  1  0
  6  8  1  0
  8  9  1  0
  9 10  2  0
 10 11  1  0
 11 12  2  0
 12 13  1  0
 14  2  1  6
 14 15  1  0
 15 16  1  0
 16 17  1  0
 18 17  1  6
 18 19  1  0
 19 20  1  0
 20 21  1  0
 21 22  1  0
 18 23  1  0
 13  4  2  0
 23 14  1  0
 12  8  1  0
 22 18  1  0
M  END
>  <fragmenstein_outcome>  (869) 
too moved

>  <exports>  (869) 
['/opt/xchem-fragalysis-2/maxwin/openbind-hippo/xx01zvns2b/cycle_01/syndirella/elabs/openbind_xx01zvns2b_c1_elab_chemspace_filtered.sdf']

>  <Energy>  (869) 
105.65305

>  <alias>  (869) 
NZYSKMPUCHYIGK-UHFFFAOYSA-N-P84-P64-P84-601532

>  <fragmenstein_runtime>  (869) 
6.983447

>  <scratch_subdir>  (869) 
/opt/xchem-fragalysis-2/maxwin/BulkDock/SCRATCH/601532/NZYSKMPUCHYIGK-UHFFFAOYSA-N-P84-P64-P84-601532

>  <HIPPO Compound ID>  (869) 
139230

>  <rmsd(smina/fragmenstein)>  (869) 
0.818

>  <distance_score>  (869) 
1.690662

>  <orig_smiles>  (869) 
O=C(Nc1cc(Br)n2ccnc2c1)C1CCCC2(CCOC2)O1

>  <fragmenstein_mode>  (869) 
expansion

>  <inchikey>  (869) 
NZYSKMPUCHYIGK-UHFFFAOYSA-N

>  <ref_pdb>  (869) 
Z0089a

>  <GNINA pK>  (869) 
nan

>  <gnina_score_min>  (869) 
5.16

>  <tags>  (869) 
xx01zvns2b_c1_elab_bulkdock_input,openbind_xx01zvns2b_c1_elab_nonasap_filtered_scored_top80percent,openbind_xx01zvns2b_c1_elab_chemspace_filtered_scored_top80percent,fragmenstein_placed,openbind_xx01zvns2b_c1_elab_chemspace_filtered_scored,openbind_xx01zvns2b_c1_elab_chemspace_filtered_scored_top40percent,openbind_xx01zvns2b_c1_elab_chemspace_filtered_scored_top20percent,openbind_xx01zvns2b_c1_elab_chemspace_filtered_scored_top60percent,openbind_xx01zvns2b_c1_elabs_filtered

>  <smiles>  (869) 
O=C(Nc1cc(Br)n2ccnc2c1)C1CCCC2(CCOC2)O1

>  <subsites>  (869) 
1 - Z4590/B/203/1

>  <gnina_score>  (869) 
5.097

>  <HIPPO Pose ID>  (869) 
89528

>  <ref_mols>  (869) 
Z1046b,Z1495a

>  <energy_score>  (869) 
-14.673549

>  <inspiration_score>  (869) 
None

>  <smina_score_min>  (869) 
-6.337

>  <fragmenstein_error>  (869) 


>  <name>  (869) 
NZYSKMPUCHYIGK-UHFFFAOYSA-N-P84-P64-P84-601532

$$$$
KLIQMTUFDMEVKT-UHFFFAOYSA-N-P84-P64-P84-601532
     RDKit          3D

 23 26  0  0  0  0  0  0  0  0999 V2000
   -8.8526    2.8016   -8.8984 C   0  0  0  0  0  0  0  0  0  0  0  0
   -8.2054    4.1449   -9.2614 C   0  0  0  0  0  0  0  0  0  0  0  0
   -8.6625    5.2270   -8.2675 C   0  0  0  0  0  0  0  0  0  0  0  0
   -8.6307    4.4863  -10.6070 O   0  0  0  0  0  0  0  0  0  0  0  0
   -7.5547    4.4801  -11.5661 C   0  0  1  0  0  0  0  0  0  0  0  0
   -7.9966    4.7113  -13.0605 C   0  0  0  0  0  0  0  0  0  0  0  0
   -9.1062    4.8994  -13.3945 O   0  0  0  0  0  0  0  0  0  0  0  0
   -6.6696    4.6711  -13.9087 N   0  0  0  0  0  0  0  0  0  0  0  0
   -6.4791    4.7540  -15.2498 C   0  0  0  0  0  0  0  0  0  0  0  0
   -7.5985    4.5808  -16.1541 C   0  0  0  0  0  0  0  0  0  0  0  0
   -7.4109    4.7029  -17.4815 C   0  0  0  0  0  0  0  0  0  0  0  0
   -8.8373    4.3902  -18.6282 Br  0  0  0  0  0  0  0  0  0  0  0  0
   -6.1299    5.0391  -17.9467 N   0  0  0  0  0  0  0  0  0  0  0  0
   -5.6619    5.3806  -19.1882 C   0  0  0  0  0  0  0  0  0  0  0  0
   -4.3161    5.6152  -19.0587 C   0  0  0  0  0  0  0  0  0  0  0  0
   -3.9178    5.4497  -17.7648 N   0  0  0  0  0  0  0  0  0  0  0  0
   -5.0211    5.1475  -17.1102 C   0  0  0  0  0  0  0  0  0  0  0  0
   -5.2356    4.9689  -15.7217 C   0  0  0  0  0  0  0  0  0  0  0  0
   -6.6628    5.6682  -11.1401 C   0  0  0  0  0  0  0  0  0  0  0  0
   -6.1018    5.4173   -9.7454 C   0  0  0  0  0  0  0  0  0  0  0  0
   -6.6663    4.0954   -9.1955 C   0  0  2  0  0  0  0  0  0  0  0  0
   -6.1770    2.9659  -10.0871 C   0  0  0  0  0  0  0  0  0  0  0  0
   -6.8530    3.1022  -11.4441 C   0  0  0  0  0  0  0  0  0  0  0  0
  1  2  1  0
  2  3  1  0
  2  4  1  0
  4  5  1  0
  5  6  1  6
  6  7  2  0
  6  8  1  0
  8  9  1  0
  9 10  1  0
 10 11  2  0
 11 12  1  0
 11 13  1  0
 13 14  1  0
 14 15  2  0
 15 16  1  0
 16 17  2  0
 17 18  1  0
  5 19  1  0
 19 20  1  0
 21 20  1  6
 21 22  1  0
 22 23  1  0
 21  2  1  0
 23  5  1  0
 18  9  2  0
 17 13  1  0
M  END
>  <fragmenstein_outcome>  (870) 
too moved

>  <exports>  (870) 
['/opt/xchem-fragalysis-2/maxwin/openbind-hippo/xx01zvns2b/cycle_01/syndirella/elabs/openbind_xx01zvns2b_c1_elab_chemspace_filtered.sdf']

>  <Energy>  (870) 
105.954814

>  <alias>  (870) 
KLIQMTUFDMEVKT-UHFFFAOYSA-N-P84-P64-P84-601532

>  <fragmenstein_runtime>  (870) 
13.371908

>  <scratch_subdir>  (870) 
/opt/xchem-fragalysis-2/maxwin/BulkDock/SCRATCH/601532/KLIQMTUFDMEVKT-UHFFFAOYSA-N-P84-P64-P84-601532

>  <HIPPO Compound ID>  (870) 
139240

>  <rmsd(smina/fragmenstein)>  (870) 
0.338

>  <distance_score>  (870) 
1.696522

>  <orig_smiles>  (870) 
CC1(C)OC2(C(=O)Nc3cc(Br)n4ccnc4c3)CCC1CC2

>  <fragmenstein_mode>  (870) 
expansion

>  <inchikey>  (870) 
KLIQMTUFDMEVKT-UHFFFAOYSA-N

>  <ref_pdb>  (870) 
Z0089a

>  <GNINA pK>  (870) 
nan

>  <gnina_score_min>  (870) 
5.298

>  <tags>  (870) 
xx01zvns2b_c1_elab_bulkdock_input,openbind_xx01zvns2b_c1_elab_nonasap_filtered_scored_top80percent,openbind_xx01zvns2b_c1_elab_chemspace_filtered_scored_top80percent,fragmenstein_placed,openbind_xx01zvns2b_c1_elab_chemspace_filtered_scored,openbind_xx01zvns2b_c1_elab_chemspace_filtered_scored_top40percent,openbind_xx01zvns2b_c1_elab_chemspace_filtered_scored_top20percent,openbind_xx01zvns2b_c1_elab_chemspace_filtered_scored_top60percent,openbind_xx01zvns2b_c1_elabs_filtered

>  <smiles>  (870) 
CC1(C)OC2(C(=O)Nc3cc(Br)n4ccnc4c3)CCC1CC2

>  <subsites>  (870) 
1 - Z4590/B/203/1

>  <gnina_score>  (870) 
5.381

>  <HIPPO Pose ID>  (870) 
89548

>  <ref_mols>  (870) 
Z1046b,Z1495a

>  <energy_score>  (870) 
-39.217603

>  <inspiration_score>  (870) 
None

>  <smina_score_min>  (870) 
-6.777

>  <fragmenstein_error>  (870) 


>  <name>  (870) 
KLIQMTUFDMEVKT-UHFFFAOYSA-N-P84-P64-P84-601532

$$$$
RAKLAQHYJWVCOX-UHFFFAOYSA-N-P64-P64-P84-601532
     RDKit          3D

 23 25  0  0  0  0  0  0  0  0999 V2000
   -7.4651    4.1010   -8.0304 C   0  0  0  0  0  0  0  0  0  0  0  0
   -7.7911    4.1460   -9.5235 C   0  0  0  0  0  0  0  0  0  0  0  0
   -8.9960    3.2140   -9.7180 C   0  0  0  0  0  0  0  0  0  0  0  0
   -8.1242    5.5340   -9.7497 O   0  0  0  0  0  0  0  0  0  0  0  0
   -8.4249    5.8001  -11.1124 C   0  0  0  0  0  0  0  0  0  0  0  0
   -7.2947    5.4223  -12.0394 C   0  0  2  0  0  0  0  0  0  0  0  0
   -7.8069    5.4751  -13.4866 C   0  0  0  0  0  0  0  0  0  0  0  0
   -8.9277    5.6252  -13.7970 O   0  0  0  0  0  0  0  0  0  0  0  0
   -6.5404    5.2003  -14.3638 N   0  0  0  0  0  0  0  0  0  0  0  0
   -6.3965    5.1536  -15.7113 C   0  0  0  0  0  0  0  0  0  0  0  0
   -7.5564    4.8117  -16.5139 C   0  0  0  0  0  0  0  0  0  0  0  0
   -7.4340    4.6445  -17.8436 C   0  0  0  0  0  0  0  0  0  0  0  0
   -8.9384    4.1551  -18.8265 Br  0  0  0  0  0  0  0  0  0  0  0  0
   -6.1807    4.8833  -18.4292 N   0  0  0  0  0  0  0  0  0  0  0  0
   -5.7227    4.7739  -19.7188 C   0  0  0  0  0  0  0  0  0  0  0  0
   -4.4706    5.3359  -19.7355 C   0  0  0  0  0  0  0  0  0  0  0  0
   -4.0707    5.6721  -18.4734 N   0  0  0  0  0  0  0  0  0  0  0  0
   -5.0767    5.3256  -17.6966 C   0  0  0  0  0  0  0  0  0  0  0  0
   -5.1987    5.3674  -16.2835 C   0  0  0  0  0  0  0  0  0  0  0  0
   -6.8705    4.0699  -11.8374 O   0  0  0  0  0  0  0  0  0  0  0  0
   -6.6046    3.7277  -10.4560 C   0  0  0  0  0  0  0  0  0  0  0  0
   -6.4112    2.2064  -10.4784 C   0  0  0  0  0  0  0  0  0  0  0  0
   -5.2719    4.3879  -10.0581 C   0  0  0  0  0  0  0  0  0  0  0  0
  1  2  1  0
  2  3  1  0
  2  4  1  0
  4  5  1  0
  5  6  1  0
  6  7  1  6
  7  8  2  0
  7  9  1  0
  9 10  1  0
 10 11  1  0
 11 12  2  0
 12 13  1  0
 12 14  1  0
 14 15  1  0
 15 16  2  0
 16 17  1  0
 17 18  2  0
 18 19  1  0
  6 20  1  0
 20 21  1  0
 21 22  1  0
 21 23  1  0
 21  2  1  0
 19 10  2  0
 18 14  1  0
M  END
>  <fragmenstein_outcome>  (871) 
too moved

>  <exports>  (871) 
['/opt/xchem-fragalysis-2/maxwin/openbind-hippo/xx01zvns2b/cycle_01/syndirella/elabs/openbind_xx01zvns2b_c1_elab_chemspace_filtered.sdf']

>  <Energy>  (871) 
133.614742

>  <alias>  (871) 
RAKLAQHYJWVCOX-UHFFFAOYSA-N-P64-P64-P84-601532

>  <fragmenstein_runtime>  (871) 
13.597323

>  <scratch_subdir>  (871) 
/opt/xchem-fragalysis-2/maxwin/BulkDock/SCRATCH/601532/RAKLAQHYJWVCOX-UHFFFAOYSA-N-P64-P64-P84-601532

>  <HIPPO Compound ID>  (871) 
139247

>  <rmsd(smina/fragmenstein)>  (871) 
0.968

>  <distance_score>  (871) 
1.412581

>  <orig_smiles>  (871) 
CC1(C)OCC(C(=O)Nc2cc(Br)n3ccnc3c2)OC1(C)C

>  <fragmenstein_mode>  (871) 
expansion

>  <inchikey>  (871) 
RAKLAQHYJWVCOX-UHFFFAOYSA-N

>  <ref_pdb>  (871) 
Z0089a

>  <GNINA pK>  (871) 
nan

>  <gnina_score_min>  (871) 
5.155

>  <tags>  (871) 
xx01zvns2b_c1_elab_bulkdock_input,openbind_xx01zvns2b_c1_elab_nonasap_filtered_scored_top80percent,openbind_xx01zvns2b_c1_elab_chemspace_filtered_scored_top80percent,fragmenstein_placed,openbind_xx01zvns2b_c1_elab_chemspace_filtered_scored,openbind_xx01zvns2b_c1_elab_chemspace_filtered_scored_top40percent,openbind_xx01zvns2b_c1_elab_chemspace_filtered_scored_top20percent,openbind_xx01zvns2b_c1_elab_chemspace_filtered_scored_top60percent,openbind_xx01zvns2b_c1_elabs_filtered

>  <smiles>  (871) 
CC1(C)OCC(C(=O)Nc2cc(Br)n3ccnc3c2)OC1(C)C

>  <subsites>  (871) 
1 - Z4590/B/203/1

>  <gnina_score>  (871) 
5.248

>  <HIPPO Pose ID>  (871) 
89561

>  <ref_mols>  (871) 
Z1046b,Z1495a

>  <energy_score>  (871) 
-50.663706

>  <inspiration_score>  (871) 
None

>  <smina_score_min>  (871) 
-5.81

>  <fragmenstein_error>  (871) 


>  <name>  (871) 
RAKLAQHYJWVCOX-UHFFFAOYSA-N-P64-P64-P84-601532

$$$$
FBOTVMTYEZRJCL-UHFFFAOYSA-N-P64-P64-P84-601532
     RDKit          3D

 24 27  0  0  0  0  0  0  0  0999 V2000
   -9.5345    5.2448  -13.8929 O   0  0  0  0  0  0  0  0  0  0  0  0
   -8.4949    4.9158  -13.4624 C   0  0  0  0  0  0  0  0  0  0  0  0
   -7.1051    4.7964  -14.1590 N   0  0  0  0  0  0  0  0  0  0  0  0
   -6.7561    4.9545  -15.4594 C   0  0  0  0  0  0  0  0  0  0  0  0
   -7.8067    4.7178  -16.4323 C   0  0  0  0  0  0  0  0  0  0  0  0
   -7.5273    4.6561  -17.7442 C   0  0  0  0  0  0  0  0  0  0  0  0
   -8.9078    4.2066  -18.9045 Br  0  0  0  0  0  0  0  0  0  0  0  0
   -6.2131    4.9187  -18.1528 N   0  0  0  0  0  0  0  0  0  0  0  0
   -5.6267    4.9841  -19.3934 C   0  0  0  0  0  0  0  0  0  0  0  0
   -4.3197    5.3415  -19.1848 C   0  0  0  0  0  0  0  0  0  0  0  0
   -4.0488    5.4707  -17.8524 N   0  0  0  0  0  0  0  0  0  0  0  0
   -5.1845    5.2001  -17.2444 C   0  0  0  0  0  0  0  0  0  0  0  0
   -5.4870    5.1477  -15.8545 C   0  0  0  0  0  0  0  0  0  0  0  0
   -8.3111    4.3990  -12.0348 C   0  0  1  0  0  0  0  0  0  0  0  0
   -8.1633    2.8770  -12.1418 C   0  0  0  0  0  0  0  0  0  0  0  0
   -6.9553    2.3853  -11.3865 C   0  0  0  0  0  0  0  0  0  0  0  0
   -7.0510    2.8921   -9.9661 C   0  0  0  0  0  0  0  0  0  0  0  0
   -7.2457    4.4391   -9.9162 C   0  0  0  0  0  0  0  0  0  0  0  0
   -8.5530    4.8316   -9.1888 C   0  0  0  0  0  0  0  0  0  0  0  0
   -8.4521    4.9821   -7.6749 C   0  0  0  0  0  0  0  0  0  0  0  0
   -7.3336    4.1479   -7.1035 C   0  0  0  0  0  0  0  0  0  0  0  0
   -5.9930    4.5633   -7.7015 C   0  0  0  0  0  0  0  0  0  0  0  0
   -6.0742    5.0679   -9.1516 C   0  0  0  0  0  0  0  0  0  0  0  0
   -7.2624    4.9826  -11.2662 O   0  0  0  0  0  0  0  0  0  0  0  0
  1  2  2  0
  2  3  1  0
  3  4  1  0
  4  5  1  0
  5  6  2  0
  6  7  1  0
  6  8  1  0
  8  9  1  0
  9 10  2  0
 10 11  1  0
 11 12  2  0
 12 13  1  0
 14  2  1  6
 14 15  1  0
 15 16  1  0
 16 17  1  0
 17 18  1  0
 18 19  1  0
 19 20  1  0
 20 21  1  0
 21 22  1  0
 22 23  1  0
 18 24  1  0
 13  4  2  0
 24 14  1  0
 12  8  1  0
 23 18  1  0
M  END
>  <fragmenstein_outcome>  (872) 
too moved

>  <exports>  (872) 
['/opt/xchem-fragalysis-2/maxwin/openbind-hippo/xx01zvns2b/cycle_01/syndirella/elabs/openbind_xx01zvns2b_c1_elab_chemspace_filtered.sdf']

>  <Energy>  (872) 
90.52061

>  <alias>  (872) 
FBOTVMTYEZRJCL-UHFFFAOYSA-N-P64-P64-P84-601532

>  <fragmenstein_runtime>  (872) 
9.700048

>  <scratch_subdir>  (872) 
/opt/xchem-fragalysis-2/maxwin/BulkDock/SCRATCH/601532/FBOTVMTYEZRJCL-UHFFFAOYSA-N-P64-P64-P84-601532

>  <HIPPO Compound ID>  (872) 
139266

>  <rmsd(smina/fragmenstein)>  (872) 
0.643

>  <distance_score>  (872) 
1.746976

>  <orig_smiles>  (872) 
O=C(Nc1cc(Br)n2ccnc2c1)C1CCCC2(CCCCC2)O1

>  <fragmenstein_mode>  (872) 
expansion

>  <inchikey>  (872) 
FBOTVMTYEZRJCL-UHFFFAOYSA-N

>  <ref_pdb>  (872) 
Z0089a

>  <GNINA pK>  (872) 
nan

>  <gnina_score_min>  (872) 
5.432

>  <tags>  (872) 
xx01zvns2b_c1_elab_bulkdock_input,openbind_xx01zvns2b_c1_elab_nonasap_filtered_scored_top80percent,openbind_xx01zvns2b_c1_elab_chemspace_filtered_scored_top80percent,fragmenstein_placed,openbind_xx01zvns2b_c1_elab_chemspace_filtered_scored,openbind_xx01zvns2b_c1_elab_chemspace_filtered_scored_top40percent,openbind_xx01zvns2b_c1_elab_chemspace_filtered_scored_top20percent,openbind_xx01zvns2b_c1_elab_chemspace_filtered_scored_top60percent,openbind_xx01zvns2b_c1_elabs_filtered

>  <smiles>  (872) 
O=C(Nc1cc(Br)n2ccnc2c1)C1CCCC2(CCCCC2)O1

>  <subsites>  (872) 
1 - Z4590/B/203/1

>  <gnina_score>  (872) 
5.61

>  <HIPPO Pose ID>  (872) 
89599

>  <ref_mols>  (872) 
Z1046b,Z1495a

>  <energy_score>  (872) 
-44.199768

>  <inspiration_score>  (872) 
None

>  <smina_score_min>  (872) 
-6.802

>  <fragmenstein_error>  (872) 


>  <name>  (872) 
FBOTVMTYEZRJCL-UHFFFAOYSA-N-P64-P64-P84-601532

$$$$
CNSABFMNDVPGQJ-UHFFFAOYSA-N-P64-P64-P84-601532
     RDKit          3D

 24 27  0  0  0  0  0  0  0  0999 V2000
   -9.5316    5.5984  -13.9021 O   0  0  0  0  0  0  0  0  0  0  0  0
   -8.4717    5.3936  -13.4401 C   0  0  0  0  0  0  0  0  0  0  0  0
   -7.1120    5.0456  -14.1357 N   0  0  0  0  0  0  0  0  0  0  0  0
   -6.7870    4.9791  -15.4541 C   0  0  0  0  0  0  0  0  0  0  0  0
   -7.8259    4.6535  -16.4075 C   0  0  0  0  0  0  0  0  0  0  0  0
   -7.5546    4.6227  -17.7259 C   0  0  0  0  0  0  0  0  0  0  0  0
   -8.9312    4.1705  -18.8901 Br  0  0  0  0  0  0  0  0  0  0  0  0
   -6.2590    4.9661  -18.1523 N   0  0  0  0  0  0  0  0  0  0  0  0
   -5.6815    5.0741  -19.3963 C   0  0  0  0  0  0  0  0  0  0  0  0
   -4.4222    5.5866  -19.2041 C   0  0  0  0  0  0  0  0  0  0  0  0
   -4.1565    5.7404  -17.8731 N   0  0  0  0  0  0  0  0  0  0  0  0
   -5.2447    5.3208  -17.2579 C   0  0  0  0  0  0  0  0  0  0  0  0
   -5.5332    5.2451  -15.8675 C   0  0  0  0  0  0  0  0  0  0  0  0
   -8.2116    5.5134  -11.9153 C   0  0  2  0  0  0  0  0  0  0  0  0
   -6.9833    6.3435  -11.5605 C   0  0  0  0  0  0  0  0  0  0  0  0
   -5.7779    5.5570  -11.0600 C   0  0  0  0  0  0  0  0  0  0  0  0
   -6.0945    4.2135  -10.4229 C   0  0  0  0  0  0  0  0  0  0  0  0
   -7.5713    4.0452  -10.0875 C   0  0  0  0  0  0  0  0  0  0  0  0
   -8.0566    5.0025   -8.9891 C   0  0  0  0  0  0  0  0  0  0  0  0
   -8.2011    4.2883   -7.6595 C   0  0  0  0  0  0  0  0  0  0  0  0
   -9.1753    3.2637   -7.7369 O   0  0  0  0  0  0  0  0  0  0  0  0
   -9.0240    2.3694   -8.8389 C   0  0  0  0  0  0  0  0  0  0  0  0
   -7.7580    2.5804   -9.6549 C   0  0  0  0  0  0  0  0  0  0  0  0
   -8.2675    4.2307  -11.3257 O   0  0  0  0  0  0  0  0  0  0  0  0
  1  2  2  0
  2  3  1  0
  3  4  1  0
  4  5  1  0
  5  6  2  0
  6  7  1  0
  6  8  1  0
  8  9  1  0
  9 10  2  0
 10 11  1  0
 11 12  2  0
 12 13  1  0
 14  2  1  6
 14 15  1  0
 15 16  1  0
 16 17  1  0
 17 18  1  0
 18 19  1  0
 19 20  1  0
 20 21  1  0
 21 22  1  0
 22 23  1  0
 18 24  1  0
 13  4  2  0
 24 14  1  0
 12  8  1  0
 23 18  1  0
M  END
>  <fragmenstein_outcome>  (873) 
too moved

>  <exports>  (873) 
['/opt/xchem-fragalysis-2/maxwin/openbind-hippo/xx01zvns2b/cycle_01/syndirella/elabs/openbind_xx01zvns2b_c1_elab_chemspace_filtered.sdf']

>  <Energy>  (873) 
94.974044

>  <alias>  (873) 
CNSABFMNDVPGQJ-UHFFFAOYSA-N-P64-P64-P84-601532

>  <fragmenstein_runtime>  (873) 
11.075727

>  <scratch_subdir>  (873) 
/opt/xchem-fragalysis-2/maxwin/BulkDock/SCRATCH/601532/CNSABFMNDVPGQJ-UHFFFAOYSA-N-P64-P64-P84-601532

>  <HIPPO Compound ID>  (873) 
139270

>  <rmsd(smina/fragmenstein)>  (873) 
0.413

>  <distance_score>  (873) 
1.653991

>  <orig_smiles>  (873) 
O=C(Nc1cc(Br)n2ccnc2c1)C1CCCC2(CCOCC2)O1

>  <fragmenstein_mode>  (873) 
expansion

>  <inchikey>  (873) 
CNSABFMNDVPGQJ-UHFFFAOYSA-N

>  <ref_pdb>  (873) 
Z0089a

>  <GNINA pK>  (873) 
nan

>  <gnina_score_min>  (873) 
5.204

>  <tags>  (873) 
xx01zvns2b_c1_elab_bulkdock_input,openbind_xx01zvns2b_c1_elab_nonasap_filtered_scored_top80percent,openbind_xx01zvns2b_c1_elab_chemspace_filtered_scored_top80percent,fragmenstein_placed,openbind_xx01zvns2b_c1_elab_chemspace_filtered_scored,openbind_xx01zvns2b_c1_elab_chemspace_filtered_scored_top40percent,openbind_xx01zvns2b_c1_elab_chemspace_filtered_scored_top20percent,openbind_xx01zvns2b_c1_elab_chemspace_filtered_scored_top60percent,openbind_xx01zvns2b_c1_elabs_filtered

>  <smiles>  (873) 
O=C(Nc1cc(Br)n2ccnc2c1)C1CCCC2(CCOCC2)O1

>  <subsites>  (873) 
1 - Z4590/B/203/1

>  <gnina_score>  (873) 
5.249

>  <HIPPO Pose ID>  (873) 
89607

>  <ref_mols>  (873) 
Z1046b,Z1495a

>  <energy_score>  (873) 
-21.495357

>  <inspiration_score>  (873) 
None

>  <smina_score_min>  (873) 
-7.228

>  <fragmenstein_error>  (873) 


>  <name>  (873) 
CNSABFMNDVPGQJ-UHFFFAOYSA-N-P64-P64-P84-601532

$$$$
OWTJDCBNFSPIFO-UHFFFAOYSA-N-P64-P64-P84-601532
     RDKit          3D

 25 28  0  0  0  0  0  0  0  0999 V2000
   -8.1727    2.1353   -8.3911 C   0  0  0  0  0  0  0  0  0  0  0  0
   -9.1714    2.7318   -9.3495 C   0  0  0  0  0  0  0  0  0  0  0  0
   -8.8292    4.0978   -9.6110 O   0  0  0  0  0  0  0  0  0  0  0  0
   -7.8838    4.2761  -10.5710 C   0  0  0  0  0  0  0  0  0  0  0  0
   -7.3113    3.3735  -11.1795 O   0  0  0  0  0  0  0  0  0  0  0  0
   -7.5414    5.7327  -10.7677 C   0  0  2  0  0  0  0  0  0  0  0  0
   -6.7468    6.4992   -9.6448 C   0  0  0  0  0  0  0  0  0  0  0  0
   -7.1787    7.6838  -10.5824 C   0  0  2  0  0  0  0  0  0  0  0  0
   -7.0945    9.1084  -10.1245 C   0  0  0  0  0  0  0  0  0  0  0  0
   -8.5476    6.9208  -10.6054 C   0  0  0  0  0  0  0  0  0  0  0  0
   -6.5399    7.4587  -11.8722 O   0  0  0  0  0  0  0  0  0  0  0  0
   -6.7429    6.0476  -12.0444 C   0  0  2  0  0  0  0  0  0  0  0  0
   -7.4443    5.7385  -13.3754 C   0  0  0  0  0  0  0  0  0  0  0  0
   -8.5734    5.4462  -13.4958 O   0  0  0  0  0  0  0  0  0  0  0  0
   -6.3108    5.8790  -14.4514 N   0  0  0  0  0  0  0  0  0  0  0  0
   -6.3219    5.6111  -15.7887 C   0  0  0  0  0  0  0  0  0  0  0  0
   -7.4876    5.0070  -16.4181 C   0  0  0  0  0  0  0  0  0  0  0  0
   -7.4663    4.7043  -17.7326 C   0  0  0  0  0  0  0  0  0  0  0  0
   -9.0158    4.0851  -18.5709 Br  0  0  0  0  0  0  0  0  0  0  0  0
   -6.2946    4.9660  -18.4578 N   0  0  0  0  0  0  0  0  0  0  0  0
   -5.9237    4.6765  -19.7475 C   0  0  0  0  0  0  0  0  0  0  0  0
   -4.7546    5.3557  -19.9779 C   0  0  0  0  0  0  0  0  0  0  0  0
   -4.3047    5.9453  -18.8305 N   0  0  0  0  0  0  0  0  0  0  0  0
   -5.2019    5.6368  -17.9140 C   0  0  0  0  0  0  0  0  0  0  0  0
   -5.2312    5.9113  -16.5223 C   0  0  0  0  0  0  0  0  0  0  0  0
  1  2  1  0
  2  3  1  0
  3  4  1  0
  4  5  2  0
  6  4  1  1
  6  7  1  0
  7  8  1  0
  8  9  1  1
  8 10  1  0
  8 11  1  0
 11 12  1  0
 12 13  1  6
 13 14  2  0
 13 15  1  0
 15 16  1  0
 16 17  1  0
 17 18  2  0
 18 19  1  0
 18 20  1  0
 20 21  1  0
 21 22  2  0
 22 23  1  0
 23 24  2  0
 24 25  1  0
 10  6  1  0
 25 16  2  0
 12  6  1  0
 24 20  1  0
M  END
>  <fragmenstein_outcome>  (874) 
too moved

>  <exports>  (874) 
['/opt/xchem-fragalysis-2/maxwin/openbind-hippo/xx01zvns2b/cycle_01/syndirella/elabs/openbind_xx01zvns2b_c1_elab_chemspace_filtered.sdf']

>  <Energy>  (874) 
47.435415

>  <alias>  (874) 
OWTJDCBNFSPIFO-UHFFFAOYSA-N-P64-P64-P84-601532

>  <fragmenstein_runtime>  (874) 
12.565176

>  <scratch_subdir>  (874) 
/opt/xchem-fragalysis-2/maxwin/BulkDock/SCRATCH/601532/OWTJDCBNFSPIFO-UHFFFAOYSA-N-P64-P64-P84-601532

>  <HIPPO Compound ID>  (874) 
139281

>  <rmsd(smina/fragmenstein)>  (874) 
2.878

>  <distance_score>  (874) 
1.438788

>  <orig_smiles>  (874) 
CCOC(=O)C12CC(C)(C1)OC2C(=O)Nc1cc(Br)n2ccnc2c1

>  <fragmenstein_mode>  (874) 
expansion

>  <inchikey>  (874) 
OWTJDCBNFSPIFO-UHFFFAOYSA-N

>  <ref_pdb>  (874) 
Z0089a

>  <GNINA pK>  (874) 
nan

>  <gnina_score_min>  (874) 
5.318

>  <tags>  (874) 
xx01zvns2b_c1_elab_bulkdock_input,openbind_xx01zvns2b_c1_elab_nonasap_filtered_scored_top80percent,openbind_xx01zvns2b_c1_elab_chemspace_filtered_scored_top80percent,fragmenstein_placed,openbind_xx01zvns2b_c1_elab_chemspace_filtered_scored,openbind_xx01zvns2b_c1_elab_chemspace_filtered_scored_top40percent,openbind_xx01zvns2b_c1_elab_chemspace_filtered_scored_top20percent,openbind_xx01zvns2b_c1_elab_chemspace_filtered_scored_top60percent,openbind_xx01zvns2b_c1_elabs_filtered

>  <smiles>  (874) 
CCOC(=O)C12CC(C)(C1)OC2C(=O)Nc1cc(Br)n2ccnc2c1

>  <subsites>  (874) 
1 - Z4590/B/203/1

>  <gnina_score>  (874) 
5.306

>  <HIPPO Pose ID>  (874) 
89629

>  <ref_mols>  (874) 
Z1046b,Z1495a

>  <energy_score>  (874) 
-62.270586

>  <inspiration_score>  (874) 
None

>  <smina_score_min>  (874) 
-6.02

>  <fragmenstein_error>  (874) 


>  <name>  (874) 
OWTJDCBNFSPIFO-UHFFFAOYSA-N-P64-P64-P84-601532

$$$$
FZCIDINPEATDIT-UHFFFAOYSA-N-P84-P64-P84-601532
     RDKit          3D

 25 27  0  0  0  0  0  0  0  0999 V2000
   -8.8800    2.1360   -7.2673 C   0  0  0  0  0  0  0  0  0  0  0  0
   -8.6043    3.0990   -8.3519 C   0  0  0  0  0  0  0  0  0  0  0  0
   -8.6888    4.4768   -8.3615 C   0  0  0  0  0  0  0  0  0  0  0  0
   -8.3361    4.8626   -9.6337 N   0  0  0  0  0  0  0  0  0  0  0  0
   -8.3234    6.1289  -10.2286 C   0  0  0  0  0  0  0  0  0  0  0  0
   -7.8638    6.2627  -11.4885 C   0  0  0  0  0  0  0  0  0  0  0  0
   -7.3186    5.0837  -12.1486 C   0  0  0  0  0  0  0  0  0  0  0  0
   -6.6403    5.2384  -13.3102 N   0  0  0  0  0  0  0  0  0  0  0  0
   -5.5653    4.3397  -13.9802 C   0  0  0  0  0  0  0  0  0  0  0  0
   -5.0437    3.3612  -13.5926 O   0  0  0  0  0  0  0  0  0  0  0  0
   -5.2312    4.8909  -15.3686 C   0  0  2  0  0  0  0  0  0  0  0  0
   -4.2512    5.9296  -15.4016 O   0  0  0  0  0  0  0  0  0  0  0  0
   -3.1129    5.7304  -16.2771 C   0  0  0  0  0  0  0  0  0  0  0  0
   -2.0320    5.0828  -15.4080 C   0  0  0  0  0  0  0  0  0  0  0  0
   -3.3179    4.9344  -17.5851 C   0  0  0  0  0  0  0  0  0  0  0  0
   -2.6261    7.1243  -16.7124 C   0  0  0  0  0  0  0  0  0  0  0  0
   -6.4005    5.2823  -16.2805 C   0  0  0  0  0  0  0  0  0  0  0  0
   -6.2704    6.4705  -17.0150 C   0  0  0  0  0  0  0  0  0  0  0  0
   -6.5038    6.4457  -18.3720 C   0  0  0  0  0  0  0  0  0  0  0  0
   -6.9673    5.2653  -18.9156 C   0  0  0  0  0  0  0  0  0  0  0  0
   -7.5106    4.2671  -18.1191 C   0  0  0  0  0  0  0  0  0  0  0  0
   -7.2526    4.2870  -16.7579 C   0  0  0  0  0  0  0  0  0  0  0  0
   -7.4135    3.8608  -11.5933 C   0  0  0  0  0  0  0  0  0  0  0  0
   -7.9642    3.7093  -10.3017 C   0  0  0  0  0  0  0  0  0  0  0  0
   -8.1653    2.6444   -9.5666 N   0  0  0  0  0  0  0  0  0  0  0  0
  1  2  1  0
  2  3  2  0
  3  4  1  0
  4  5  1  0
  5  6  2  0
  6  7  1  0
  7  8  1  0
  8  9  1  0
  9 10  2  0
  9 11  1  0
 11 12  1  1
 12 13  1  0
 13 14  1  0
 13 15  1  0
 13 16  1  0
 11 17  1  0
 17 18  2  0
 18 19  1  0
 19 20  2  0
 20 21  1  0
 21 22  2  0
  7 23  2  0
 23 24  1  0
 24 25  2  0
 25  2  1  0
 24  4  1  0
 22 17  1  0
M  END
>  <fragmenstein_outcome>  (875) 
too moved

>  <exports>  (875) 
['/opt/xchem-fragalysis-2/maxwin/openbind-hippo/xx01zvns2b/cycle_01/syndirella/elabs/openbind_xx01zvns2b_c1_elab_chemspace_filtered.sdf']

>  <Energy>  (875) 
145.557204

>  <alias>  (875) 
FZCIDINPEATDIT-UHFFFAOYSA-N-P84-P64-P84-601532

>  <fragmenstein_runtime>  (875) 
16.859102

>  <scratch_subdir>  (875) 
/opt/xchem-fragalysis-2/maxwin/BulkDock/SCRATCH/601532/FZCIDINPEATDIT-UHFFFAOYSA-N-P84-P64-P84-601532

>  <HIPPO Compound ID>  (875) 
139291

>  <rmsd(smina/fragmenstein)>  (875) 
1.545

>  <distance_score>  (875) 
1.696765

>  <orig_smiles>  (875) 
Cc1cn2ccc(NC(=O)C(OC(C)(C)C)c3ccccc3)cc2n1

>  <fragmenstein_mode>  (875) 
expansion

>  <inchikey>  (875) 
FZCIDINPEATDIT-UHFFFAOYSA-N

>  <ref_pdb>  (875) 
Z0089a

>  <GNINA pK>  (875) 
nan

>  <gnina_score_min>  (875) 
5.246

>  <tags>  (875) 
xx01zvns2b_c1_elab_bulkdock_input,openbind_xx01zvns2b_c1_elab_nonasap_filtered_scored_top80percent,openbind_xx01zvns2b_c1_elab_chemspace_filtered_scored_top80percent,fragmenstein_placed,openbind_xx01zvns2b_c1_elab_chemspace_filtered_scored,openbind_xx01zvns2b_c1_elab_chemspace_filtered_scored_top40percent,openbind_xx01zvns2b_c1_elab_chemspace_filtered_scored_top20percent,openbind_xx01zvns2b_c1_elab_chemspace_filtered_scored_top60percent,openbind_xx01zvns2b_c1_elabs_filtered

>  <smiles>  (875) 
Cc1cn2ccc(NC(=O)C(OC(C)(C)C)c3ccccc3)cc2n1

>  <subsites>  (875) 
1 - Z4590/B/203/1

>  <gnina_score>  (875) 
5.487

>  <HIPPO Pose ID>  (875) 
89650

>  <ref_mols>  (875) 
Z1046b,Z1495a

>  <energy_score>  (875) 
-5.75234

>  <inspiration_score>  (875) 
None

>  <smina_score_min>  (875) 
-7.74

>  <fragmenstein_error>  (875) 


>  <name>  (875) 
FZCIDINPEATDIT-UHFFFAOYSA-N-P84-P64-P84-601532

$$$$
XWDXKTRIFNAKHJ-UHFFFAOYSA-N-P84-P64-P84-601532
     RDKit          3D

 26 29  0  0  0  0  0  0  0  0999 V2000
   -4.9624    5.1954  -12.8917 O   0  0  0  0  0  0  0  0  0  0  0  0
   -6.0755    4.9699  -13.1831 C   0  0  0  0  0  0  0  0  0  0  0  0
   -6.7256    4.7205  -14.5857 N   0  0  0  0  0  0  0  0  0  0  0  0
   -6.1899    4.7888  -15.8262 C   0  0  0  0  0  0  0  0  0  0  0  0
   -7.0986    4.8428  -16.9654 C   0  0  0  0  0  0  0  0  0  0  0  0
   -6.5981    5.2149  -18.1560 C   0  0  0  0  0  0  0  0  0  0  0  0
   -5.2267    5.4463  -18.2638 N   0  0  0  0  0  0  0  0  0  0  0  0
   -4.4883    6.0594  -19.2325 C   0  0  0  0  0  0  0  0  0  0  0  0
   -5.1338    7.0869  -20.6662 Br  0  0  0  0  0  0  0  0  0  0  0  0
   -3.1712    5.9392  -18.8709 C   0  0  0  0  0  0  0  0  0  0  0  0
   -3.0649    5.3644  -17.6414 N   0  0  0  0  0  0  0  0  0  0  0  0
   -4.3121    5.1787  -17.2513 C   0  0  0  0  0  0  0  0  0  0  0  0
   -4.8541    4.8733  -15.9825 C   0  0  0  0  0  0  0  0  0  0  0  0
   -7.2051    4.8099  -12.1290 C   0  0  1  0  0  0  0  0  0  0  0  0
   -7.8661    3.4467  -12.3233 C   0  0  0  0  0  0  0  0  0  0  0  0
   -8.5199    2.9234  -11.0784 C   0  0  0  0  0  0  0  0  0  0  0  0
   -7.5137    2.9622   -9.9607 C   0  0  0  0  0  0  0  0  0  0  0  0
   -7.0948    4.4211   -9.6918 C   0  0  0  0  0  0  0  0  0  0  0  0
   -8.2336    5.3058   -9.1784 C   0  0  0  0  0  0  0  0  0  0  0  0
   -8.8239    4.7844   -7.8708 C   0  0  0  0  0  0  0  0  0  0  0  0
   -7.8041    4.1819   -6.9278 C   0  0  0  0  0  0  0  0  0  0  0  0
   -7.8872    2.8332   -6.9937 F   0  0  0  0  0  0  0  0  0  0  0  0
   -8.1432    4.5159   -5.6509 F   0  0  0  0  0  0  0  0  0  0  0  0
   -6.4045    4.6972   -7.2085 C   0  0  0  0  0  0  0  0  0  0  0  0
   -5.9457    4.4520   -8.6494 C   0  0  0  0  0  0  0  0  0  0  0  0
   -6.5608    5.0161  -10.8724 O   0  0  0  0  0  0  0  0  0  0  0  0
  1  2  2  0
  2  3  1  0
  3  4  1  0
  4  5  1  0
  5  6  2  0
  6  7  1  0
  7  8  1  0
  8  9  1  0
  8 10  2  0
 10 11  1  0
 11 12  2  0
 12 13  1  0
 14  2  1  6
 14 15  1  0
 15 16  1  0
 16 17  1  0
 17 18  1  0
 18 19  1  0
 19 20  1  0
 20 21  1  0
 21 22  1  0
 21 23  1  0
 21 24  1  0
 24 25  1  0
 18 26  1  0
 13  4  2  0
 26 14  1  0
 12  7  1  0
 25 18  1  0
M  END
>  <fragmenstein_outcome>  (876) 
too moved

>  <exports>  (876) 
['/opt/xchem-fragalysis-2/maxwin/openbind-hippo/xx01zvns2b/cycle_01/syndirella/elabs/openbind_xx01zvns2b_c1_elab_chemspace_filtered.sdf']

>  <Energy>  (876) 
109.749991

>  <alias>  (876) 
XWDXKTRIFNAKHJ-UHFFFAOYSA-N-P84-P64-P84-601532

>  <fragmenstein_runtime>  (876) 
17.655785

>  <scratch_subdir>  (876) 
/opt/xchem-fragalysis-2/maxwin/BulkDock/SCRATCH/601532/XWDXKTRIFNAKHJ-UHFFFAOYSA-N-P84-P64-P84-601532

>  <HIPPO Compound ID>  (876) 
139311

>  <rmsd(smina/fragmenstein)>  (876) 
1.616

>  <distance_score>  (876) 
1.809451

>  <orig_smiles>  (876) 
O=C(Nc1ccn2c(Br)cnc2c1)C1CCCC2(CCC(F)(F)CC2)O1

>  <fragmenstein_mode>  (876) 
expansion

>  <inchikey>  (876) 
XWDXKTRIFNAKHJ-UHFFFAOYSA-N

>  <ref_pdb>  (876) 
Z0089a

>  <GNINA pK>  (876) 
nan

>  <gnina_score_min>  (876) 
5.173

>  <tags>  (876) 
xx01zvns2b_c1_elab_bulkdock_input,openbind_xx01zvns2b_c1_elab_nonasap_filtered_scored_top80percent,openbind_xx01zvns2b_c1_elab_chemspace_filtered_scored_top80percent,fragmenstein_placed,openbind_xx01zvns2b_c1_elab_chemspace_filtered_scored,openbind_xx01zvns2b_c1_elab_chemspace_filtered_scored_top40percent,openbind_xx01zvns2b_c1_elab_chemspace_filtered_scored_top20percent,openbind_xx01zvns2b_c1_elab_chemspace_filtered_scored_top60percent,openbind_xx01zvns2b_c1_elabs_filtered

>  <smiles>  (876) 
O=C(Nc1ccn2c(Br)cnc2c1)C1CCCC2(CCC(F)(F)CC2)O1

>  <subsites>  (876) 
1 - Z4590/B/203/1

>  <gnina_score>  (876) 
5.397

>  <HIPPO Pose ID>  (876) 
89690

>  <ref_mols>  (876) 
Z1046b,Z1495a

>  <energy_score>  (876) 
-13.276535

>  <inspiration_score>  (876) 
None

>  <smina_score_min>  (876) 
-6.393

>  <fragmenstein_error>  (876) 


>  <name>  (876) 
XWDXKTRIFNAKHJ-UHFFFAOYSA-N-P84-P64-P84-601532

$$$$
PZALTQWIGXCNMR-UHFFFAOYSA-N-P64-P64-P84-601532
     RDKit          3D

 26 29  0  0  0  0  0  0  0  0999 V2000
   -9.1602    1.7692   -6.3558 C   0  0  0  0  0  0  0  0  0  0  0  0
   -9.5792    1.8541   -7.7898 C   0  0  0  0  0  0  0  0  0  0  0  0
   -8.5322    2.3645   -8.6029 O   0  0  0  0  0  0  0  0  0  0  0  0
   -8.3747    3.7133   -8.6286 C   0  0  0  0  0  0  0  0  0  0  0  0
   -8.8019    4.4807   -7.7702 O   0  0  0  0  0  0  0  0  0  0  0  0
   -7.6876    4.1115   -9.9296 C   0  0  1  0  0  0  0  0  0  0  0  0
   -6.6960    3.1102  -10.6621 C   0  0  0  0  0  0  0  0  0  0  0  0
   -7.0967    4.0396  -11.8400 C   0  0  1  0  0  0  0  0  0  0  0  0
   -6.9800    3.5812  -13.3063 C   0  0  0  0  0  0  0  0  0  0  0  0
   -7.4362    2.5714  -13.6773 O   0  0  0  0  0  0  0  0  0  0  0  0
   -6.2879    4.7141  -14.0917 N   0  0  0  0  0  0  0  0  0  0  0  0
   -6.1073    4.8777  -15.4219 C   0  0  0  0  0  0  0  0  0  0  0  0
   -7.1909    4.4334  -16.2864 C   0  0  0  0  0  0  0  0  0  0  0  0
   -7.1039    4.5960  -17.6180 C   0  0  0  0  0  0  0  0  0  0  0  0
   -8.5860    4.2209  -18.6821 Br  0  0  0  0  0  0  0  0  0  0  0  0
   -5.9032    5.0974  -18.1378 N   0  0  0  0  0  0  0  0  0  0  0  0
   -5.4564    5.2473  -19.4253 C   0  0  0  0  0  0  0  0  0  0  0  0
   -4.1872    5.7620  -19.3345 C   0  0  0  0  0  0  0  0  0  0  0  0
   -3.8208    5.9631  -18.0353 N   0  0  0  0  0  0  0  0  0  0  0  0
   -4.8526    5.5504  -17.3289 C   0  0  0  0  0  0  0  0  0  0  0  0
   -5.0216    5.4884  -15.9205 C   0  0  0  0  0  0  0  0  0  0  0  0
   -8.5260    3.8700  -11.2278 C   0  0  0  0  0  0  0  0  0  0  0  0
   -6.6585    5.4090  -11.5087 O   0  0  0  0  0  0  0  0  0  0  0  0
   -7.0683    5.5188  -10.1199 C   0  0  0  0  0  0  0  0  0  0  0  0
   -5.8487    5.7455   -9.2316 C   0  0  0  0  0  0  0  0  0  0  0  0
   -8.0524    6.6742   -9.9795 C   0  0  0  0  0  0  0  0  0  0  0  0
  1  2  1  0
  2  3  1  0
  3  4  1  0
  4  5  2  0
  6  4  1  1
  6  7  1  0
  7  8  1  0
  8  9  1  6
  9 10  2  0
  9 11  1  0
 11 12  1  0
 12 13  1  0
 13 14  2  0
 14 15  1  0
 14 16  1  0
 16 17  1  0
 17 18  2  0
 18 19  1  0
 19 20  2  0
 20 21  1  0
  8 22  1  0
  8 23  1  0
 23 24  1  0
 24 25  1  0
 24 26  1  0
 22  6  1  0
 24  6  1  0
 21 12  2  0
 20 16  1  0
M  END
>  <fragmenstein_outcome>  (877) 
too moved

>  <exports>  (877) 
['/opt/xchem-fragalysis-2/maxwin/openbind-hippo/xx01zvns2b/cycle_01/syndirella/elabs/openbind_xx01zvns2b_c1_elab_chemspace_filtered.sdf']

>  <Energy>  (877) 
71.036495

>  <alias>  (877) 
PZALTQWIGXCNMR-UHFFFAOYSA-N-P64-P64-P84-601532

>  <fragmenstein_runtime>  (877) 
7.864404

>  <scratch_subdir>  (877) 
/opt/xchem-fragalysis-2/maxwin/BulkDock/SCRATCH/601532/PZALTQWIGXCNMR-UHFFFAOYSA-N-P64-P64-P84-601532

>  <HIPPO Compound ID>  (877) 
139317

>  <rmsd(smina/fragmenstein)>  (877) 
0.62

>  <distance_score>  (877) 
1.768595

>  <orig_smiles>  (877) 
CCOC(=O)C12CC(C(=O)Nc3cc(Br)n4ccnc4c3)(C1)OC2(C)C

>  <fragmenstein_mode>  (877) 
expansion

>  <inchikey>  (877) 
PZALTQWIGXCNMR-UHFFFAOYSA-N

>  <ref_pdb>  (877) 
Z0089a

>  <GNINA pK>  (877) 
nan

>  <gnina_score_min>  (877) 
5.499

>  <tags>  (877) 
xx01zvns2b_c1_elab_bulkdock_input,openbind_xx01zvns2b_c1_elab_nonasap_filtered_scored_top80percent,openbind_xx01zvns2b_c1_elab_chemspace_filtered_scored_top80percent,fragmenstein_placed,openbind_xx01zvns2b_c1_elab_chemspace_filtered_scored,openbind_xx01zvns2b_c1_elab_chemspace_filtered_scored_top40percent,openbind_xx01zvns2b_c1_elab_chemspace_filtered_scored_top20percent,openbind_xx01zvns2b_c1_elab_chemspace_filtered_scored_top60percent,openbind_xx01zvns2b_c1_elabs_filtered

>  <smiles>  (877) 
CCOC(=O)C12CC(C(=O)Nc3cc(Br)n4ccnc4c3)(C1)OC2(C)C

>  <subsites>  (877) 
1 - Z4590/B/203/1

>  <gnina_score>  (877) 
5.4

>  <HIPPO Pose ID>  (877) 
89701

>  <ref_mols>  (877) 
Z1046b,Z1495a

>  <energy_score>  (877) 
-52.010157

>  <inspiration_score>  (877) 
None

>  <smina_score_min>  (877) 
-6.422

>  <fragmenstein_error>  (877) 


>  <name>  (877) 
PZALTQWIGXCNMR-UHFFFAOYSA-N-P64-P64-P84-601532

$$$$
AMNBQFXKOMBFDT-UHFFFAOYSA-N-P64-P64-P84-601532
     RDKit          3D

 28 31  0  0  0  0  0  0  0  0999 V2000
   -6.6382    4.4345   -3.4771 C   0  0  0  0  0  0  0  0  0  0  0  0
   -7.8767    5.0490   -4.1428 C   0  0  0  0  0  0  0  0  0  0  0  0
   -9.0520    4.0773   -3.9865 C   0  0  0  0  0  0  0  0  0  0  0  0
   -8.1594    6.4034   -3.4816 C   0  0  0  0  0  0  0  0  0  0  0  0
   -7.4991    5.2079   -5.5349 O   0  0  0  0  0  0  0  0  0  0  0  0
   -8.3918    5.7133   -6.4273 C   0  0  0  0  0  0  0  0  0  0  0  0
   -9.4583    6.0788   -6.1583 O   0  0  0  0  0  0  0  0  0  0  0  0
   -7.6574    5.7089   -7.7576 N   0  0  0  0  0  0  0  0  0  0  0  0
   -8.0391    6.2420   -9.0388 C   0  0  0  0  0  0  0  0  0  0  0  0
   -7.7878    5.2233  -10.1232 C   0  0  2  0  0  0  0  0  0  0  0  0
   -7.4615    3.6833   -9.9168 C   0  0  0  0  0  0  0  0  0  0  0  0
   -7.0167    3.8972  -11.4161 C   0  0  2  0  0  0  0  0  0  0  0  0
   -6.3897    5.2197  -10.8444 C   0  0  0  0  0  0  0  0  0  0  0  0
   -8.3427    4.2675  -12.0814 C   0  0  2  0  0  0  0  0  0  0  0  0
   -8.4791    4.7403  -13.5293 C   0  0  0  0  0  0  0  0  0  0  0  0
   -9.5484    4.9984  -13.9410 O   0  0  0  0  0  0  0  0  0  0  0  0
   -7.0973    4.6946  -14.2587 N   0  0  0  0  0  0  0  0  0  0  0  0
   -6.7868    4.8536  -15.5764 C   0  0  0  0  0  0  0  0  0  0  0  0
   -7.8645    4.5906  -16.5133 C   0  0  0  0  0  0  0  0  0  0  0  0
   -7.6329    4.5475  -17.8346 C   0  0  0  0  0  0  0  0  0  0  0  0
   -9.0507    4.1293  -18.9578 Br  0  0  0  0  0  0  0  0  0  0  0  0
   -6.3465    4.8518  -18.2923 N   0  0  0  0  0  0  0  0  0  0  0  0
   -5.7901    4.8509  -19.5479 C   0  0  0  0  0  0  0  0  0  0  0  0
   -4.5577    5.4375  -19.4263 C   0  0  0  0  0  0  0  0  0  0  0  0
   -4.2667    5.6805  -18.1116 N   0  0  0  0  0  0  0  0  0  0  0  0
   -5.3172    5.2526  -17.4352 C   0  0  0  0  0  0  0  0  0  0  0  0
   -5.5540    5.1577  -16.0276 C   0  0  0  0  0  0  0  0  0  0  0  0
   -8.7586    5.3117  -11.1971 O   0  0  0  0  0  0  0  0  0  0  0  0
  1  2  1  0
  2  3  1  0
  2  4  1  0
  2  5  1  0
  5  6  1  0
  6  7  2  0
  6  8  1  0
  8  9  1  0
 10  9  1  1
 10 11  1  0
 12 11  1  1
 12 13  1  0
 12 14  1  0
 14 15  1  6
 15 16  2  0
 15 17  1  0
 17 18  1  0
 18 19  1  0
 19 20  2  0
 20 21  1  0
 20 22  1  0
 22 23  1  0
 23 24  2  0
 24 25  1  0
 25 26  2  0
 26 27  1  0
 14 28  1  0
 13 10  1  0
 27 18  2  0
 28 10  1  0
 26 22  1  0
M  END
>  <fragmenstein_outcome>  (878) 
too moved

>  <exports>  (878) 
['/opt/xchem-fragalysis-2/maxwin/openbind-hippo/xx01zvns2b/cycle_01/syndirella/elabs/openbind_xx01zvns2b_c1_elab_chemspace_filtered.sdf']

>  <Energy>  (878) 
79.279518

>  <alias>  (878) 
AMNBQFXKOMBFDT-UHFFFAOYSA-N-P64-P64-P84-601532

>  <fragmenstein_runtime>  (878) 
17.830969

>  <scratch_subdir>  (878) 
/opt/xchem-fragalysis-2/maxwin/BulkDock/SCRATCH/601532/AMNBQFXKOMBFDT-UHFFFAOYSA-N-P64-P64-P84-601532

>  <HIPPO Compound ID>  (878) 
139320

>  <rmsd(smina/fragmenstein)>  (878) 
0.465

>  <distance_score>  (878) 
1.916367

>  <orig_smiles>  (878) 
CC(C)(C)OC(=O)NCC12CC(C1)C(C(=O)Nc1cc(Br)n3ccnc3c1)O2

>  <fragmenstein_mode>  (878) 
expansion

>  <inchikey>  (878) 
AMNBQFXKOMBFDT-UHFFFAOYSA-N

>  <ref_pdb>  (878) 
Z0089a

>  <GNINA pK>  (878) 
nan

>  <gnina_score_min>  (878) 
5.423

>  <tags>  (878) 
xx01zvns2b_c1_elab_bulkdock_input,openbind_xx01zvns2b_c1_elab_nonasap_filtered_scored_top80percent,openbind_xx01zvns2b_c1_elab_chemspace_filtered_scored_top80percent,fragmenstein_placed,openbind_xx01zvns2b_c1_elab_chemspace_filtered_scored,openbind_xx01zvns2b_c1_elab_chemspace_filtered_scored_top40percent,openbind_xx01zvns2b_c1_elab_chemspace_filtered_scored_top20percent,openbind_xx01zvns2b_c1_elab_chemspace_filtered_scored_top60percent,openbind_xx01zvns2b_c1_elabs_filtered

>  <smiles>  (878) 
CC(C)(C)OC(=O)NCC12CC(C1)C(C(=O)Nc1cc(Br)n3ccnc3c1)O2

>  <subsites>  (878) 
1 - Z4590/B/203/1

>  <gnina_score>  (878) 
5.546

>  <HIPPO Pose ID>  (878) 
89707

>  <ref_mols>  (878) 
Z1046b,Z1495a

>  <energy_score>  (878) 
-40.34824

>  <inspiration_score>  (878) 
None

>  <smina_score_min>  (878) 
-6.508

>  <fragmenstein_error>  (878) 


>  <name>  (878) 
AMNBQFXKOMBFDT-UHFFFAOYSA-N-P64-P64-P84-601532

$$$$
CLTOEDHRMKDURM-UHFFFAOYSA-N-P84-P64-P84-601532
     RDKit          3D

 28 31  0  0  0  0  0  0  0  0999 V2000
   -8.6627    2.0903   -7.2706 C   0  0  0  0  0  0  0  0  0  0  0  0
   -8.4321    3.0846   -8.3371 C   0  0  0  0  0  0  0  0  0  0  0  0
   -8.4422    4.4646   -8.2835 C   0  0  0  0  0  0  0  0  0  0  0  0
   -8.2635    4.8814   -9.5781 N   0  0  0  0  0  0  0  0  0  0  0  0
   -8.2855    6.1673  -10.1173 C   0  0  0  0  0  0  0  0  0  0  0  0
   -8.1647    6.3199  -11.4491 C   0  0  0  0  0  0  0  0  0  0  0  0
   -7.9912    5.1336  -12.2781 C   0  0  0  0  0  0  0  0  0  0  0  0
   -8.0632    5.2651  -13.6247 N   0  0  0  0  0  0  0  0  0  0  0  0
   -7.7060    4.2598  -14.7582 C   0  0  0  0  0  0  0  0  0  0  0  0
   -7.2245    3.1984  -14.7029 O   0  0  0  0  0  0  0  0  0  0  0  0
   -8.2207    4.8982  -16.0391 C   0  0  1  0  0  0  0  0  0  0  0  0
   -7.4643    6.0052  -16.5270 O   0  0  0  0  0  0  0  0  0  0  0  0
   -7.2733    5.6215  -17.9274 C   0  0  1  0  0  0  0  0  0  0  0  0
   -6.5519    6.6720  -18.7245 C   0  0  0  0  0  0  0  0  0  0  0  0
   -5.2114    6.2261  -18.8962 N   0  0  0  0  0  0  0  0  0  0  0  0
   -3.9395    6.6690  -18.2268 C   0  0  0  0  0  0  0  0  0  0  0  0
   -3.7463    7.5243  -17.4754 O   0  0  0  0  0  0  0  0  0  0  0  0
   -3.0089    5.8162  -18.7197 O   0  0  0  0  0  0  0  0  0  0  0  0
   -1.6285    5.9788  -18.3384 C   0  0  0  0  0  0  0  0  0  0  0  0
   -0.8990    4.8385  -19.0514 C   0  0  0  0  0  0  0  0  0  0  0  0
   -1.4235    5.8431  -16.8264 C   0  0  0  0  0  0  0  0  0  0  0  0
   -1.1105    7.3075  -18.8728 C   0  0  0  0  0  0  0  0  0  0  0  0
   -6.7820    4.1380  -17.8990 C   0  0  0  0  0  0  0  0  0  0  0  0
   -8.2080    3.9820  -17.2669 C   0  0  2  0  0  0  0  0  0  0  0  0
   -8.6197    4.9122  -18.4295 C   0  0  0  0  0  0  0  0  0  0  0  0
   -7.9058    3.9039  -11.7324 C   0  0  0  0  0  0  0  0  0  0  0  0
   -8.0824    3.7403  -10.3395 C   0  0  0  0  0  0  0  0  0  0  0  0
   -8.1803    2.6571   -9.6116 N   0  0  0  0  0  0  0  0  0  0  0  0
  1  2  1  0
  2  3  2  0
  3  4  1  0
  4  5  1  0
  5  6  2  0
  6  7  1  0
  7  8  1  0
  8  9  1  0
  9 10  2  0
 11  9  1  1
 11 12  1  0
 12 13  1  0
 13 14  1  6
 14 15  1  0
 15 16  1  0
 16 17  2  0
 16 18  1  0
 18 19  1  0
 19 20  1  0
 19 21  1  0
 19 22  1  0
 13 23  1  0
 24 23  1  6
 24 25  1  0
  7 26  2  0
 26 27  1  0
 27 28  2  0
 28  2  1  0
 27  4  1  0
 24 11  1  0
 25 13  1  0
M  END
>  <fragmenstein_outcome>  (879) 
too moved

>  <exports>  (879) 
['/opt/xchem-fragalysis-2/maxwin/openbind-hippo/xx01zvns2b/cycle_01/syndirella/elabs/openbind_xx01zvns2b_c1_elab_chemspace_filtered.sdf']

>  <Energy>  (879) 
65.367723

>  <alias>  (879) 
CLTOEDHRMKDURM-UHFFFAOYSA-N-P84-P64-P84-601532

>  <fragmenstein_runtime>  (879) 
17.266382

>  <scratch_subdir>  (879) 
/opt/xchem-fragalysis-2/maxwin/BulkDock/SCRATCH/601532/CLTOEDHRMKDURM-UHFFFAOYSA-N-P84-P64-P84-601532

>  <HIPPO Compound ID>  (879) 
139322

>  <rmsd(smina/fragmenstein)>  (879) 
1.488

>  <distance_score>  (879) 
1.331551

>  <orig_smiles>  (879) 
Cc1cn2ccc(NC(=O)C3OC4(CNC(=O)OC(C)(C)C)CC3C4)cc2n1

>  <fragmenstein_mode>  (879) 
expansion

>  <inchikey>  (879) 
CLTOEDHRMKDURM-UHFFFAOYSA-N

>  <ref_pdb>  (879) 
Z0089a

>  <GNINA pK>  (879) 
nan

>  <gnina_score_min>  (879) 
5.143

>  <tags>  (879) 
xx01zvns2b_c1_elab_bulkdock_input,openbind_xx01zvns2b_c1_elab_nonasap_filtered_scored_top80percent,openbind_xx01zvns2b_c1_elab_chemspace_filtered_scored_top80percent,fragmenstein_placed,openbind_xx01zvns2b_c1_elab_chemspace_filtered_scored,openbind_xx01zvns2b_c1_elab_chemspace_filtered_scored_top40percent,openbind_xx01zvns2b_c1_elab_chemspace_filtered_scored_top20percent,openbind_xx01zvns2b_c1_elab_chemspace_filtered_scored_top60percent,openbind_xx01zvns2b_c1_elabs_filtered

>  <smiles>  (879) 
Cc1cn2ccc(NC(=O)C3OC4(CNC(=O)OC(C)(C)C)CC3C4)cc2n1

>  <subsites>  (879) 
1 - Z4590/B/203/1

>  <gnina_score>  (879) 
5.634

>  <HIPPO Pose ID>  (879) 
89712

>  <ref_mols>  (879) 
Z1046b,Z1495a

>  <energy_score>  (879) 
-44.763737

>  <inspiration_score>  (879) 
None

>  <smina_score_min>  (879) 
-5.465

>  <fragmenstein_error>  (879) 


>  <name>  (879) 
CLTOEDHRMKDURM-UHFFFAOYSA-N-P84-P64-P84-601532

$$$$
BASCXKJIMFLERD-UHFFFAOYSA-N-P84-P64-P84-601532
     RDKit          3D

 29 32  0  0  0  0  0  0  0  0999 V2000
   -8.8447    2.3237   -6.7703 C   0  0  0  0  0  0  0  0  0  0  0  0
   -8.9950    3.6151   -5.9576 C   0  0  0  0  0  0  0  0  0  0  0  0
   -7.7640    3.9069   -5.0933 C   0  0  0  0  0  0  0  0  0  0  0  0
  -10.2319    3.4923   -5.0616 C   0  0  0  0  0  0  0  0  0  0  0  0
   -9.2838    4.7396   -6.8253 O   0  0  0  0  0  0  0  0  0  0  0  0
   -8.2930    5.1837   -7.6418 C   0  0  0  0  0  0  0  0  0  0  0  0
   -7.5551    6.0248   -7.3359 O   0  0  0  0  0  0  0  0  0  0  0  0
   -8.4410    4.4300   -8.9551 N   0  0  0  0  0  0  0  0  0  0  0  0
   -7.7776    4.6092  -10.2114 C   0  0  1  0  0  0  0  0  0  0  0  0
   -8.2711    3.6563  -11.3587 C   0  0  0  0  0  0  0  0  0  0  0  0
   -7.6261    4.8145  -12.1768 C   0  0  1  0  0  0  0  0  0  0  0  0
   -7.9839    4.9475  -13.6901 C   0  0  0  0  0  0  0  0  0  0  0  0
   -9.0369    5.2273  -14.1158 O   0  0  0  0  0  0  0  0  0  0  0  0
   -6.6489    4.6814  -14.4179 N   0  0  0  0  0  0  0  0  0  0  0  0
   -6.3239    4.7888  -15.7295 C   0  0  0  0  0  0  0  0  0  0  0  0
   -7.3399    4.9185  -16.7691 C   0  0  0  0  0  0  0  0  0  0  0  0
   -6.9512    5.2038  -18.0271 C   0  0  0  0  0  0  0  0  0  0  0  0
   -5.5926    5.3547  -18.2923 N   0  0  0  0  0  0  0  0  0  0  0  0
   -4.9371    5.7713  -19.4197 C   0  0  0  0  0  0  0  0  0  0  0  0
   -3.6090    5.7253  -19.0903 C   0  0  0  0  0  0  0  0  0  0  0  0
   -2.6228    6.0352  -19.9272 O   0  0  0  0  0  0  0  0  0  0  0  0
   -3.3915    5.3364  -17.8186 N   0  0  0  0  0  0  0  0  0  0  0  0
   -4.6005    5.1429  -17.3423 C   0  0  0  0  0  0  0  0  0  0  0  0
   -5.0131    4.8342  -16.0304 C   0  0  0  0  0  0  0  0  0  0  0  0
   -8.3375    5.7215  -11.1328 C   0  0  0  0  0  0  0  0  0  0  0  0
   -6.1950    4.8398  -11.8221 O   0  0  0  0  0  0  0  0  0  0  0  0
   -6.2478    4.6854  -10.3741 C   0  0  0  0  0  0  0  0  0  0  0  0
   -5.5737    5.8873   -9.7254 C   0  0  0  0  0  0  0  0  0  0  0  0
   -5.5322    3.4004   -9.9733 C   0  0  0  0  0  0  0  0  0  0  0  0
  1  2  1  0
  2  3  1  0
  2  4  1  0
  2  5  1  0
  5  6  1  0
  6  7  2  0
  6  8  1  0
  9  8  1  1
  9 10  1  0
 10 11  1  0
 11 12  1  6
 12 13  2  0
 12 14  1  0
 14 15  1  0
 15 16  1  0
 16 17  2  0
 17 18  1  0
 18 19  1  0
 19 20  2  0
 20 21  1  0
 20 22  1  0
 22 23  2  0
 23 24  1  0
 11 25  1  0
 11 26  1  0
 26 27  1  0
 27 28  1  0
 27 29  1  0
 25  9  1  0
 27  9  1  0
 24 15  2  0
 23 18  1  0
M  END
>  <fragmenstein_outcome>  (880) 
too moved

>  <exports>  (880) 
['/opt/xchem-fragalysis-2/maxwin/openbind-hippo/xx01zvns2b/cycle_01/syndirella/elabs/openbind_xx01zvns2b_c1_elab_chemspace_filtered.sdf']

>  <Energy>  (880) 
27.624098

>  <alias>  (880) 
BASCXKJIMFLERD-UHFFFAOYSA-N-P84-P64-P84-601532

>  <fragmenstein_runtime>  (880) 
14.523384

>  <scratch_subdir>  (880) 
/opt/xchem-fragalysis-2/maxwin/BulkDock/SCRATCH/601532/BASCXKJIMFLERD-UHFFFAOYSA-N-P84-P64-P84-601532

>  <HIPPO Compound ID>  (880) 
139360

>  <rmsd(smina/fragmenstein)>  (880) 
0.595

>  <distance_score>  (880) 
1.641807

>  <orig_smiles>  (880) 
CC(C)(C)OC(=O)NC12CC(C(=O)Nc3ccn4cc(O)nc4c3)(C1)OC2(C)C

>  <fragmenstein_mode>  (880) 
expansion

>  <inchikey>  (880) 
BASCXKJIMFLERD-UHFFFAOYSA-N

>  <ref_pdb>  (880) 
Z0089a

>  <GNINA pK>  (880) 
nan

>  <gnina_score_min>  (880) 
5.153

>  <tags>  (880) 
xx01zvns2b_c1_elab_bulkdock_input,openbind_xx01zvns2b_c1_elab_nonasap_filtered_scored_top80percent,openbind_xx01zvns2b_c1_elab_chemspace_filtered_scored_top80percent,fragmenstein_placed,openbind_xx01zvns2b_c1_elab_chemspace_filtered_scored,openbind_xx01zvns2b_c1_elab_chemspace_filtered_scored_top40percent,openbind_xx01zvns2b_c1_elab_chemspace_filtered_scored_top20percent,openbind_xx01zvns2b_c1_elab_chemspace_filtered_scored_top60percent,openbind_xx01zvns2b_c1_elabs_filtered

>  <smiles>  (880) 
CC(C)(C)OC(=O)NC12CC(C(=O)Nc3ccn4cc(O)nc4c3)(C1)OC2(C)C

>  <subsites>  (880) 
1 - Z4590/B/203/1

>  <gnina_score>  (880) 
5.104

>  <HIPPO Pose ID>  (880) 
89788

>  <ref_mols>  (880) 
Z1046b,Z1495a

>  <energy_score>  (880) 
-68.052752

>  <inspiration_score>  (880) 
None

>  <smina_score_min>  (880) 
-7.034

>  <fragmenstein_error>  (880) 


>  <name>  (880) 
BASCXKJIMFLERD-UHFFFAOYSA-N-P84-P64-P84-601532

$$$$
JYAYXWRMFWEALC-UHFFFAOYSA-N-P219-P8-P219-601532
     RDKit          3D

 22 24  0  0  0  0  0  0  0  0999 V2000
   -4.8458    6.5017  -12.5911 C   0  0  0  0  0  0  0  0  0  0  0  0
   -6.3194    6.2294  -12.8363 C   0  0  0  0  0  0  0  0  0  0  0  0
   -6.9751    7.4212  -13.5331 C   0  0  0  0  0  0  0  0  0  0  0  0
   -6.5713    4.8606  -13.5215 C   0  0  1  0  0  0  0  0  0  0  0  0
   -7.8831    4.3898  -12.8354 C   0  0  0  0  0  0  0  0  0  0  0  0
   -8.9471    4.7642  -13.1506 O   0  0  0  0  0  0  0  0  0  0  0  0
   -7.4441    3.4601  -11.6519 N   0  0  0  0  0  0  0  0  0  0  0  0
   -8.2366    2.8739  -10.5434 C   0  0  1  0  0  0  0  0  0  0  0  0
   -7.3459    1.9433   -9.6788 C   0  0  0  0  0  0  0  0  0  0  0  0
   -6.9424    3.1181   -8.8894 O   0  0  0  0  0  0  0  0  0  0  0  0
   -8.2425    3.7208   -9.2026 C   0  0  0  0  0  0  0  0  0  0  0  0
   -9.2364    3.3185   -8.1055 C   0  0  0  0  0  0  0  0  0  0  0  0
   -8.0831    5.2294   -9.3124 C   0  0  0  0  0  0  0  0  0  0  0  0
   -6.4386    4.9054  -14.9874 N   0  0  0  0  0  0  0  0  0  0  0  0
   -5.2282    5.1736  -15.6109 C   0  0  0  0  0  0  0  0  0  0  0  0
   -5.3125    5.1986  -16.9165 N   0  0  0  0  0  0  0  0  0  0  0  0
   -6.5992    4.8203  -17.1717 C   0  0  0  0  0  0  0  0  0  0  0  0
   -7.2007    4.5891  -18.4101 C   0  0  0  0  0  0  0  0  0  0  0  0
   -8.5361    4.1971  -18.4360 C   0  0  0  0  0  0  0  0  0  0  0  0
   -9.2677    4.0629  -17.2709 C   0  0  0  0  0  0  0  0  0  0  0  0
   -8.6732    4.2579  -16.0299 C   0  0  0  0  0  0  0  0  0  0  0  0
   -7.3330    4.6428  -15.9919 C   0  0  0  0  0  0  0  0  0  0  0  0
  1  2  1  0
  2  3  1  0
  4  2  1  6
  4  5  1  0
  5  6  2  0
  5  7  1  0
  8  7  1  6
  8  9  1  0
  9 10  1  0
 10 11  1  0
 11 12  1  0
 11 13  1  0
  4 14  1  0
 14 15  1  0
 15 16  2  0
 16 17  1  0
 17 18  2  0
 18 19  1  0
 19 20  2  0
 20 21  1  0
 21 22  2  0
 11  8  1  0
 22 14  1  0
 22 17  1  0
M  END
>  <fragmenstein_outcome>  (881) 
too moved

>  <exports>  (881) 
['/opt/xchem-fragalysis-2/maxwin/openbind-hippo/xx01zvns2b/cycle_01/syndirella/elabs/openbind_xx01zvns2b_c1_elab_chemspace_filtered.sdf']

>  <Energy>  (881) 
84.509127

>  <alias>  (881) 
JYAYXWRMFWEALC-UHFFFAOYSA-N-P219-P8-P219-601532

>  <fragmenstein_runtime>  (881) 
15.700921

>  <scratch_subdir>  (881) 
/opt/xchem-fragalysis-2/maxwin/BulkDock/SCRATCH/601532/JYAYXWRMFWEALC-UHFFFAOYSA-N-P219-P8-P219-601532

>  <HIPPO Compound ID>  (881) 
147193

>  <rmsd(smina/fragmenstein)>  (881) 
0.845

>  <distance_score>  (881) 
1.577919

>  <orig_smiles>  (881) 
CC(C)C(C(=O)NC1COC1(C)C)n1cnc2ccccc21

>  <fragmenstein_mode>  (881) 
expansion

>  <inchikey>  (881) 
JYAYXWRMFWEALC-UHFFFAOYSA-N

>  <ref_pdb>  (881) 
Z0089a

>  <GNINA pK>  (881) 
nan

>  <gnina_score_min>  (881) 
5.274

>  <tags>  (881) 
xx01zvns2b_c1_elab_bulkdock_input,openbind_xx01zvns2b_c1_elab_nonasap_filtered_scored_top80percent,openbind_xx01zvns2b_c1_elab_chemspace_filtered_scored_top80percent,fragmenstein_placed,openbind_xx01zvns2b_c1_elab_chemspace_filtered_scored,openbind_xx01zvns2b_c1_elab_chemspace_filtered_scored_top40percent,openbind_xx01zvns2b_c1_elab_chemspace_filtered_scored_top20percent,openbind_xx01zvns2b_c1_elab_chemspace_filtered_scored_top60percent,openbind_xx01zvns2b_c1_elabs_filtered

>  <smiles>  (881) 
CC(C)C(C(=O)NC1COC1(C)C)n1cnc2ccccc21

>  <subsites>  (881) 
1 - Z4590/B/203/1

>  <gnina_score>  (881) 
5.041

>  <HIPPO Pose ID>  (881) 
89972

>  <ref_mols>  (881) 
Z0101a,Z3880a

>  <energy_score>  (881) 
-28.244454

>  <inspiration_score>  (881) 
None

>  <smina_score_min>  (881) 
-5.962

>  <fragmenstein_error>  (881) 


>  <name>  (881) 
JYAYXWRMFWEALC-UHFFFAOYSA-N-P219-P8-P219-601532

$$$$
CRCDSJDOMNBHJN-UHFFFAOYSA-N-P219-P8-P219-601532
     RDKit          3D

 22 24  0  0  0  0  0  0  0  0999 V2000
   -3.6440    5.0672  -15.0510 C   0  0  0  0  0  0  0  0  0  0  0  0
   -5.0238    5.1059  -15.5888 C   0  0  0  0  0  0  0  0  0  0  0  0
   -5.2538    5.2870  -16.8712 N   0  0  0  0  0  0  0  0  0  0  0  0
   -6.5529    4.9332  -17.0511 C   0  0  0  0  0  0  0  0  0  0  0  0
   -7.2480    4.7887  -18.2562 C   0  0  0  0  0  0  0  0  0  0  0  0
   -8.5760    4.3764  -18.2157 C   0  0  0  0  0  0  0  0  0  0  0  0
   -9.1977    4.1199  -17.0069 C   0  0  0  0  0  0  0  0  0  0  0  0
   -8.5065    4.2279  -15.8014 C   0  0  0  0  0  0  0  0  0  0  0  0
   -7.1783    4.6620  -15.8319 C   0  0  0  0  0  0  0  0  0  0  0  0
   -6.2098    4.8895  -14.8680 N   0  0  0  0  0  0  0  0  0  0  0  0
   -6.3221    4.7531  -13.3928 C   0  0  2  0  0  0  0  0  0  0  0  0
   -7.7370    4.7056  -12.7234 C   0  0  0  0  0  0  0  0  0  0  0  0
   -8.6632    5.2878  -13.1453 O   0  0  0  0  0  0  0  0  0  0  0  0
   -7.5819    3.8548  -11.4098 N   0  0  0  0  0  0  0  0  0  0  0  0
   -8.5087    3.6365  -10.3155 C   0  0  1  0  0  0  0  0  0  0  0  0
   -8.4141    2.3236   -9.5827 C   0  0  0  0  0  0  0  0  0  0  0  0
   -9.0368    2.6443   -8.2379 C   0  0  0  0  0  0  0  0  0  0  0  0
   -8.7289    4.0181   -7.9530 O   0  0  0  0  0  0  0  0  0  0  0  0
   -8.3069    4.6353   -9.1771 C   0  0  0  0  0  0  0  0  0  0  0  0
   -5.7319    5.9473  -12.5676 C   0  0  0  0  0  0  0  0  0  0  0  0
   -5.8870    7.2995  -13.2497 C   0  0  0  0  0  0  0  0  0  0  0  0
   -4.3267    5.7330  -12.0001 C   0  0  0  0  0  0  0  0  0  0  0  0
  1  2  1  0
  2  3  2  0
  3  4  1  0
  4  5  2  0
  5  6  1  0
  6  7  2  0
  7  8  1  0
  8  9  2  0
  9 10  1  0
 10 11  1  0
 11 12  1  0
 12 13  2  0
 12 14  1  0
 15 14  1  6
 15 16  1  0
 16 17  1  0
 17 18  1  0
 18 19  1  0
 11 20  1  1
 20 21  1  0
 20 22  1  0
 10  2  1  0
 19 15  1  0
  9  4  1  0
M  END
>  <fragmenstein_outcome>  (882) 
too moved

>  <exports>  (882) 
['/opt/xchem-fragalysis-2/maxwin/openbind-hippo/xx01zvns2b/cycle_01/syndirella/elabs/openbind_xx01zvns2b_c1_elab_chemspace_filtered.sdf']

>  <Energy>  (882) 
81.25316

>  <alias>  (882) 
CRCDSJDOMNBHJN-UHFFFAOYSA-N-P219-P8-P219-601532

>  <fragmenstein_runtime>  (882) 
8.355824

>  <scratch_subdir>  (882) 
/opt/xchem-fragalysis-2/maxwin/BulkDock/SCRATCH/601532/CRCDSJDOMNBHJN-UHFFFAOYSA-N-P219-P8-P219-601532

>  <HIPPO Compound ID>  (882) 
147207

>  <rmsd(smina/fragmenstein)>  (882) 
0.674

>  <distance_score>  (882) 
1.436165

>  <orig_smiles>  (882) 
Cc1nc2ccccc2n1C(C(=O)NC1CCOC1)C(C)C

>  <fragmenstein_mode>  (882) 
expansion

>  <inchikey>  (882) 
CRCDSJDOMNBHJN-UHFFFAOYSA-N

>  <ref_pdb>  (882) 
Z0089a

>  <GNINA pK>  (882) 
nan

>  <gnina_score_min>  (882) 
5.211

>  <tags>  (882) 
xx01zvns2b_c1_elab_bulkdock_input,openbind_xx01zvns2b_c1_elab_nonasap_filtered_scored_top80percent,openbind_xx01zvns2b_c1_elab_chemspace_filtered_scored_top80percent,fragmenstein_placed,openbind_xx01zvns2b_c1_elab_chemspace_filtered_scored,openbind_xx01zvns2b_c1_elab_chemspace_filtered_scored_top40percent,openbind_xx01zvns2b_c1_elab_chemspace_filtered_scored_top20percent,openbind_xx01zvns2b_c1_elab_chemspace_filtered_scored_top60percent,openbind_xx01zvns2b_c1_elabs_filtered

>  <smiles>  (882) 
Cc1nc2ccccc2n1C(C(=O)NC1CCOC1)C(C)C

>  <subsites>  (882) 
1 - Z4590/B/203/1

>  <gnina_score>  (882) 
5.131

>  <HIPPO Pose ID>  (882) 
90000

>  <ref_mols>  (882) 
Z0101a,Z3880a

>  <energy_score>  (882) 
-2.937098

>  <inspiration_score>  (882) 
None

>  <smina_score_min>  (882) 
-6.28

>  <fragmenstein_error>  (882) 


>  <name>  (882) 
CRCDSJDOMNBHJN-UHFFFAOYSA-N-P219-P8-P219-601532

$$$$
RSBHLNCHAVRNGO-UHFFFAOYSA-N-P8-P8-P219-601532
     RDKit          3D

 22 24  0  0  0  0  0  0  0  0999 V2000
   -3.0312    5.5119  -14.8064 C   0  0  0  0  0  0  0  0  0  0  0  0
   -4.4120    6.1051  -14.5779 C   0  0  0  0  0  0  0  0  0  0  0  0
   -5.4528    5.4435  -15.4199 C   0  0  0  0  0  0  0  0  0  0  0  0
   -5.4831    5.4961  -16.7415 N   0  0  0  0  0  0  0  0  0  0  0  0
   -6.6889    4.9588  -17.1055 C   0  0  0  0  0  0  0  0  0  0  0  0
   -7.2519    4.7815  -18.3740 C   0  0  0  0  0  0  0  0  0  0  0  0
   -8.5637    4.3001  -18.4690 C   0  0  0  0  0  0  0  0  0  0  0  0
   -9.2987    4.0042  -17.3244 C   0  0  0  0  0  0  0  0  0  0  0  0
   -8.7312    4.1235  -16.0558 C   0  0  0  0  0  0  0  0  0  0  0  0
   -7.4180    4.5889  -15.9842 C   0  0  0  0  0  0  0  0  0  0  0  0
   -6.5459    4.7442  -14.9273 N   0  0  0  0  0  0  0  0  0  0  0  0
   -6.7026    3.9942  -13.6635 C   0  0  1  0  0  0  0  0  0  0  0  0
   -5.4049    3.3441  -13.2222 C   0  0  0  0  0  0  0  0  0  0  0  0
   -7.3625    4.7786  -12.5082 C   0  0  0  0  0  0  0  0  0  0  0  0
   -7.5235    5.9398  -12.5420 O   0  0  0  0  0  0  0  0  0  0  0  0
   -7.6923    3.7376  -11.3759 N   0  0  0  0  0  0  0  0  0  0  0  0
   -8.3718    3.9125  -10.1043 C   0  0  1  0  0  0  0  0  0  0  0  0
   -8.7738    2.6152   -9.4059 C   0  0  0  0  0  0  0  0  0  0  0  0
   -9.0091    2.9421   -8.0290 O   0  0  0  0  0  0  0  0  0  0  0  0
   -8.2422    4.1104   -7.7281 C   0  0  0  0  0  0  0  0  0  0  0  0
   -7.5412    4.5577   -9.0101 C   0  0  2  0  0  0  0  0  0  0  0  0
   -7.4653    6.0677   -9.1164 C   0  0  0  0  0  0  0  0  0  0  0  0
  1  2  1  0
  2  3  1  0
  3  4  2  0
  4  5  1  0
  5  6  2  0
  6  7  1  0
  7  8  2  0
  8  9  1  0
  9 10  2  0
 10 11  1  0
 11 12  1  0
 12 13  1  1
 12 14  1  0
 14 15  2  0
 14 16  1  0
 17 16  1  6
 17 18  1  0
 18 19  1  0
 19 20  1  0
 20 21  1  0
 21 22  1  6
 11  3  1  0
 21 17  1  0
 10  5  1  0
M  END
>  <fragmenstein_outcome>  (883) 
too moved

>  <exports>  (883) 
['/opt/xchem-fragalysis-2/maxwin/openbind-hippo/xx01zvns2b/cycle_01/syndirella/elabs/openbind_xx01zvns2b_c1_elab_chemspace_filtered.sdf']

>  <Energy>  (883) 
64.19908

>  <alias>  (883) 
RSBHLNCHAVRNGO-UHFFFAOYSA-N-P8-P8-P219-601532

>  <fragmenstein_runtime>  (883) 
4.970058

>  <scratch_subdir>  (883) 
/opt/xchem-fragalysis-2/maxwin/BulkDock/SCRATCH/601532/RSBHLNCHAVRNGO-UHFFFAOYSA-N-P8-P8-P219-601532

>  <HIPPO Compound ID>  (883) 
147237

>  <rmsd(smina/fragmenstein)>  (883) 
0.635

>  <distance_score>  (883) 
1.681511

>  <orig_smiles>  (883) 
CCc1nc2ccccc2n1C(C)C(=O)NC1COCC1C

>  <fragmenstein_mode>  (883) 
expansion

>  <inchikey>  (883) 
RSBHLNCHAVRNGO-UHFFFAOYSA-N

>  <ref_pdb>  (883) 
Z0089a

>  <GNINA pK>  (883) 
nan

>  <gnina_score_min>  (883) 
5.182

>  <tags>  (883) 
xx01zvns2b_c1_elab_bulkdock_input,openbind_xx01zvns2b_c1_elab_nonasap_filtered_scored_top80percent,openbind_xx01zvns2b_c1_elab_chemspace_filtered_scored_top80percent,fragmenstein_placed,openbind_xx01zvns2b_c1_elab_chemspace_filtered_scored,openbind_xx01zvns2b_c1_elab_chemspace_filtered_scored_top40percent,openbind_xx01zvns2b_c1_elab_chemspace_filtered_scored_top20percent,openbind_xx01zvns2b_c1_elab_chemspace_filtered_scored_top60percent,openbind_xx01zvns2b_c1_elabs_filtered

>  <smiles>  (883) 
CCc1nc2ccccc2n1C(C)C(=O)NC1COCC1C

>  <subsites>  (883) 
1 - Z4590/B/203/1

>  <gnina_score>  (883) 
5.099

>  <HIPPO Pose ID>  (883) 
90057

>  <ref_mols>  (883) 
Z0101a,Z3880a

>  <energy_score>  (883) 
-4.976063

>  <inspiration_score>  (883) 
None

>  <smina_score_min>  (883) 
-6.582

>  <fragmenstein_error>  (883) 


>  <name>  (883) 
RSBHLNCHAVRNGO-UHFFFAOYSA-N-P8-P8-P219-601532

$$$$
AASCGGAPVZVAJP-UHFFFAOYSA-N-P219-P8-P219-601532
     RDKit          3D

 22 24  0  0  0  0  0  0  0  0999 V2000
   -2.8222    4.9848  -14.5461 C   0  0  0  0  0  0  0  0  0  0  0  0
   -4.0398    5.8921  -14.4832 C   0  0  0  0  0  0  0  0  0  0  0  0
   -5.1781    5.3530  -15.2871 C   0  0  0  0  0  0  0  0  0  0  0  0
   -5.1858    5.3167  -16.6112 N   0  0  0  0  0  0  0  0  0  0  0  0
   -6.4218    4.8538  -16.9725 C   0  0  0  0  0  0  0  0  0  0  0  0
   -6.9657    4.6295  -18.2430 C   0  0  0  0  0  0  0  0  0  0  0  0
   -8.2954    4.2054  -18.3359 C   0  0  0  0  0  0  0  0  0  0  0  0
   -9.0816    4.0443  -17.2048 C   0  0  0  0  0  0  0  0  0  0  0  0
   -8.5480    4.2379  -15.9362 C   0  0  0  0  0  0  0  0  0  0  0  0
   -7.2048    4.6241  -15.8497 C   0  0  0  0  0  0  0  0  0  0  0  0
   -6.3747    4.8841  -14.7674 N   0  0  0  0  0  0  0  0  0  0  0  0
   -6.9207    4.9308  -13.3957 C   0  0  2  0  0  0  0  0  0  0  0  0
   -7.2911    6.3640  -13.0419 C   0  0  0  0  0  0  0  0  0  0  0  0
   -6.1641    4.2370  -12.2424 C   0  0  0  0  0  0  0  0  0  0  0  0
   -5.0230    3.9683  -12.2587 O   0  0  0  0  0  0  0  0  0  0  0  0
   -7.2321    4.0859  -11.0907 N   0  0  0  0  0  0  0  0  0  0  0  0
   -7.1155    3.4753   -9.7478 C   0  0  2  0  0  0  0  0  0  0  0  0
   -7.9472    2.1854   -9.6200 C   0  0  0  0  0  0  0  0  0  0  0  0
   -8.9429    2.8750   -8.6864 C   0  0  0  0  0  0  0  0  0  0  0  0
   -8.1022    4.1705   -8.7276 C   0  0  1  0  0  0  0  0  0  0  0  0
   -7.6111    4.5586   -7.3445 C   0  0  0  0  0  0  0  0  0  0  0  0
   -8.7575    5.3365   -9.2946 O   0  0  0  0  0  0  0  0  0  0  0  0
  1  2  1  0
  2  3  1  0
  3  4  2  0
  4  5  1  0
  5  6  2  0
  6  7  1  0
  7  8  2  0
  8  9  1  0
  9 10  2  0
 10 11  1  0
 11 12  1  0
 12 13  1  1
 12 14  1  0
 14 15  2  0
 14 16  1  0
 17 16  1  6
 17 18  1  0
 18 19  1  0
 19 20  1  0
 20 21  1  1
 20 22  1  0
 11  3  1  0
 20 17  1  0
 10  5  1  0
M  END
>  <fragmenstein_outcome>  (884) 
too moved

>  <exports>  (884) 
['/opt/xchem-fragalysis-2/maxwin/openbind-hippo/xx01zvns2b/cycle_01/syndirella/elabs/openbind_xx01zvns2b_c1_elab_chemspace_filtered.sdf']

>  <Energy>  (884) 
60.800514

>  <alias>  (884) 
AASCGGAPVZVAJP-UHFFFAOYSA-N-P219-P8-P219-601532

>  <fragmenstein_runtime>  (884) 
5.122696

>  <scratch_subdir>  (884) 
/opt/xchem-fragalysis-2/maxwin/BulkDock/SCRATCH/601532/AASCGGAPVZVAJP-UHFFFAOYSA-N-P219-P8-P219-601532

>  <HIPPO Compound ID>  (884) 
147254

>  <rmsd(smina/fragmenstein)>  (884) 
1.345

>  <distance_score>  (884) 
1.643154

>  <orig_smiles>  (884) 
CCc1nc2ccccc2n1C(C)C(=O)NC1CCC1(C)O

>  <fragmenstein_mode>  (884) 
expansion

>  <inchikey>  (884) 
AASCGGAPVZVAJP-UHFFFAOYSA-N

>  <ref_pdb>  (884) 
Z0089a

>  <GNINA pK>  (884) 
nan

>  <gnina_score_min>  (884) 
5.287

>  <tags>  (884) 
xx01zvns2b_c1_elab_bulkdock_input,openbind_xx01zvns2b_c1_elab_nonasap_filtered_scored_top80percent,openbind_xx01zvns2b_c1_elab_chemspace_filtered_scored_top80percent,fragmenstein_placed,openbind_xx01zvns2b_c1_elab_chemspace_filtered_scored,openbind_xx01zvns2b_c1_elab_chemspace_filtered_scored_top40percent,openbind_xx01zvns2b_c1_elab_chemspace_filtered_scored_top20percent,openbind_xx01zvns2b_c1_elab_chemspace_filtered_scored_top60percent,openbind_xx01zvns2b_c1_elabs_filtered

>  <smiles>  (884) 
CCc1nc2ccccc2n1C(C)C(=O)NC1CCC1(C)O

>  <subsites>  (884) 
1 - Z4590/B/203/1

>  <gnina_score>  (884) 
5.17

>  <HIPPO Pose ID>  (884) 
90090

>  <ref_mols>  (884) 
Z0101a,Z3880a

>  <energy_score>  (884) 
-24.780405

>  <inspiration_score>  (884) 
None

>  <smina_score_min>  (884) 
-6.348

>  <fragmenstein_error>  (884) 


>  <name>  (884) 
AASCGGAPVZVAJP-UHFFFAOYSA-N-P219-P8-P219-601532

$$$$
IZRLLYVVVVRYJX-UHFFFAOYSA-N-P219-P8-P219-601533
     RDKit          3D

 23 25  0  0  0  0  0  0  0  0999 V2000
   -2.5424    5.6416  -16.2337 C   0  0  0  0  0  0  0  0  0  0  0  0
   -3.6337    5.6145  -15.1708 C   0  0  0  0  0  0  0  0  0  0  0  0
   -4.9966    5.3930  -15.7483 C   0  0  0  0  0  0  0  0  0  0  0  0
   -5.2469    5.4429  -17.0409 N   0  0  0  0  0  0  0  0  0  0  0  0
   -6.5232    4.9947  -17.1844 C   0  0  0  0  0  0  0  0  0  0  0  0
   -7.2317    4.7613  -18.3652 C   0  0  0  0  0  0  0  0  0  0  0  0
   -8.5449    4.3070  -18.2767 C   0  0  0  0  0  0  0  0  0  0  0  0
   -9.1362    4.0802  -17.0455 C   0  0  0  0  0  0  0  0  0  0  0  0
   -8.4243    4.2545  -15.8615 C   0  0  0  0  0  0  0  0  0  0  0  0
   -7.1166    4.7438  -15.9493 C   0  0  0  0  0  0  0  0  0  0  0  0
   -6.1478    5.0650  -15.0162 N   0  0  0  0  0  0  0  0  0  0  0  0
   -6.2387    4.8692  -13.5523 C   0  0  1  0  0  0  0  0  0  0  0  0
   -5.4882    5.9284  -12.7500 C   0  0  0  0  0  0  0  0  0  0  0  0
   -7.6421    4.9160  -12.8891 C   0  0  0  0  0  0  0  0  0  0  0  0
   -8.5010    5.6252  -13.2527 O   0  0  0  0  0  0  0  0  0  0  0  0
   -7.5793    3.9470  -11.6597 N   0  0  0  0  0  0  0  0  0  0  0  0
   -8.5271    3.7316  -10.5802 C   0  0  1  0  0  0  0  0  0  0  0  0
   -8.6753    2.2980  -10.1586 C   0  0  0  0  0  0  0  0  0  0  0  0
   -8.5770    2.2973   -8.6486 C   0  0  2  0  0  0  0  0  0  0  0  0
   -9.8115    1.8324   -7.9140 C   0  0  0  0  0  0  0  0  0  0  0  0
   -8.2593    3.6249   -8.2279 O   0  0  0  0  0  0  0  0  0  0  0  0
   -8.1388    4.4454   -9.3036 C   0  0  0  0  0  0  0  0  0  0  0  0
   -7.7569    5.6047   -9.2276 O   0  0  0  0  0  0  0  0  0  0  0  0
  1  2  1  0
  2  3  1  0
  3  4  2  0
  4  5  1  0
  5  6  2  0
  6  7  1  0
  7  8  2  0
  8  9  1  0
  9 10  2  0
 10 11  1  0
 11 12  1  0
 12 13  1  1
 12 14  1  0
 14 15  2  0
 14 16  1  0
 17 16  1  6
 17 18  1  0
 18 19  1  0
 19 20  1  1
 19 21  1  0
 21 22  1  0
 22 23  2  0
 11  3  1  0
 22 17  1  0
 10  5  1  0
M  END
>  <fragmenstein_outcome>  (885) 
too moved

>  <exports>  (885) 
['/opt/xchem-fragalysis-2/maxwin/openbind-hippo/xx01zvns2b/cycle_01/syndirella/elabs/openbind_xx01zvns2b_c1_elab_chemspace_filtered.sdf']

>  <Energy>  (885) 
73.005404

>  <alias>  (885) 
IZRLLYVVVVRYJX-UHFFFAOYSA-N-P219-P8-P219-601533

>  <fragmenstein_runtime>  (885) 
9.320491

>  <scratch_subdir>  (885) 
/opt/xchem-fragalysis-2/maxwin/BulkDock/SCRATCH/601533/IZRLLYVVVVRYJX-UHFFFAOYSA-N-P219-P8-P219-601533

>  <HIPPO Compound ID>  (885) 
147283

>  <rmsd(smina/fragmenstein)>  (885) 
1.759

>  <distance_score>  (885) 
1.490512

>  <orig_smiles>  (885) 
CCc1nc2ccccc2n1C(C)C(=O)NC1CC(C)OC1=O

>  <fragmenstein_mode>  (885) 
expansion

>  <inchikey>  (885) 
IZRLLYVVVVRYJX-UHFFFAOYSA-N

>  <ref_pdb>  (885) 
Z0101a

>  <GNINA pK>  (885) 
nan

>  <gnina_score_min>  (885) 
5.523

>  <tags>  (885) 
xx01zvns2b_c1_elab_bulkdock_input,openbind_xx01zvns2b_c1_elab_nonasap_filtered_scored_top80percent,openbind_xx01zvns2b_c1_elab_chemspace_filtered_scored_top80percent,fragmenstein_placed,openbind_xx01zvns2b_c1_elab_chemspace_filtered_scored,openbind_xx01zvns2b_c1_elab_chemspace_filtered_scored_top40percent,openbind_xx01zvns2b_c1_elab_chemspace_filtered_scored_top20percent,openbind_xx01zvns2b_c1_elab_chemspace_filtered_scored_top60percent,openbind_xx01zvns2b_c1_elabs_filtered

>  <smiles>  (885) 
CCc1nc2ccccc2n1C(C)C(=O)NC1CC(C)OC1=O

>  <subsites>  (885) 
1 - Z4590/B/203/1

>  <gnina_score>  (885) 
5.163

>  <HIPPO Pose ID>  (885) 
90148

>  <ref_mols>  (885) 
Z0101a,Z3880a

>  <energy_score>  (885) 
-16.768974

>  <inspiration_score>  (885) 
None

>  <smina_score_min>  (885) 
-6.633

>  <fragmenstein_error>  (885) 


>  <name>  (885) 
IZRLLYVVVVRYJX-UHFFFAOYSA-N-P219-P8-P219-601533

$$$$
BJFGDJPQRFNEJH-UHFFFAOYSA-N-P219-P8-P219-601533
     RDKit          3D

 23 25  0  0  0  0  0  0  0  0999 V2000
   -3.5678    5.0411  -15.2596 C   0  0  0  0  0  0  0  0  0  0  0  0
   -4.9724    5.0889  -15.7541 C   0  0  0  0  0  0  0  0  0  0  0  0
   -5.2511    5.2616  -17.0279 N   0  0  0  0  0  0  0  0  0  0  0  0
   -6.5595    4.9160  -17.1530 C   0  0  0  0  0  0  0  0  0  0  0  0
   -7.3007    4.7729  -18.3282 C   0  0  0  0  0  0  0  0  0  0  0  0
   -8.6307    4.3763  -18.2341 C   0  0  0  0  0  0  0  0  0  0  0  0
   -9.2087    4.1259  -17.0017 C   0  0  0  0  0  0  0  0  0  0  0  0
   -8.4719    4.2295  -15.8236 C   0  0  0  0  0  0  0  0  0  0  0  0
   -7.1431    4.6533  -15.9126 C   0  0  0  0  0  0  0  0  0  0  0  0
   -6.1379    4.8776  -14.9925 N   0  0  0  0  0  0  0  0  0  0  0  0
   -6.1876    4.7391  -13.5045 C   0  0  2  0  0  0  0  0  0  0  0  0
   -7.5813    4.7362  -12.7815 C   0  0  0  0  0  0  0  0  0  0  0  0
   -8.4875    5.3668  -13.1758 O   0  0  0  0  0  0  0  0  0  0  0  0
   -7.4373    3.8680  -11.4837 N   0  0  0  0  0  0  0  0  0  0  0  0
   -8.3489    3.6829  -10.3676 C   0  0  1  0  0  0  0  0  0  0  0  0
   -8.5501    2.2711   -9.8775 C   0  0  0  0  0  0  0  0  0  0  0  0
   -9.0783    2.4671   -8.4632 C   0  0  0  0  0  0  0  0  0  0  0  0
   -8.6438    3.7626   -8.0104 O   0  0  0  0  0  0  0  0  0  0  0  0
   -7.8811    4.3531   -9.0736 C   0  0  2  0  0  0  0  0  0  0  0  0
   -8.0593    5.8554   -9.0548 C   0  0  0  0  0  0  0  0  0  0  0  0
   -5.4160    5.9137  -12.8316 C   0  0  0  0  0  0  0  0  0  0  0  0
   -6.2242    7.2060  -12.7262 C   0  0  0  0  0  0  0  0  0  0  0  0
   -4.7898    5.5444  -11.4830 C   0  0  0  0  0  0  0  0  0  0  0  0
  1  2  1  0
  2  3  2  0
  3  4  1  0
  4  5  2  0
  5  6  1  0
  6  7  2  0
  7  8  1  0
  8  9  2  0
  9 10  1  0
 10 11  1  0
 11 12  1  0
 12 13  2  0
 12 14  1  0
 15 14  1  6
 15 16  1  0
 16 17  1  0
 17 18  1  0
 18 19  1  0
 19 20  1  6
 11 21  1  1
 21 22  1  0
 21 23  1  0
 10  2  1  0
 19 15  1  0
  9  4  1  0
M  END
>  <fragmenstein_outcome>  (886) 
too moved

>  <exports>  (886) 
['/opt/xchem-fragalysis-2/maxwin/openbind-hippo/xx01zvns2b/cycle_01/syndirella/elabs/openbind_xx01zvns2b_c1_elab_chemspace_filtered.sdf']

>  <Energy>  (886) 
79.142057

>  <alias>  (886) 
BJFGDJPQRFNEJH-UHFFFAOYSA-N-P219-P8-P219-601533

>  <fragmenstein_runtime>  (886) 
9.617555

>  <scratch_subdir>  (886) 
/opt/xchem-fragalysis-2/maxwin/BulkDock/SCRATCH/601533/BJFGDJPQRFNEJH-UHFFFAOYSA-N-P219-P8-P219-601533

>  <HIPPO Compound ID>  (886) 
147314

>  <rmsd(smina/fragmenstein)>  (886) 
1.127

>  <distance_score>  (886) 
1.420638

>  <orig_smiles>  (886) 
Cc1nc2ccccc2n1C(C(=O)NC1CCOC1C)C(C)C

>  <fragmenstein_mode>  (886) 
expansion

>  <inchikey>  (886) 
BJFGDJPQRFNEJH-UHFFFAOYSA-N

>  <ref_pdb>  (886) 
Z0101a

>  <GNINA pK>  (886) 
nan

>  <gnina_score_min>  (886) 
5.562

>  <tags>  (886) 
xx01zvns2b_c1_elab_bulkdock_input,openbind_xx01zvns2b_c1_elab_nonasap_filtered_scored_top80percent,openbind_xx01zvns2b_c1_elab_chemspace_filtered_scored_top80percent,fragmenstein_placed,openbind_xx01zvns2b_c1_elab_chemspace_filtered_scored,openbind_xx01zvns2b_c1_elab_chemspace_filtered_scored_top40percent,openbind_xx01zvns2b_c1_elab_chemspace_filtered_scored_top20percent,openbind_xx01zvns2b_c1_elab_chemspace_filtered_scored_top60percent,openbind_xx01zvns2b_c1_elabs_filtered

>  <smiles>  (886) 
Cc1nc2ccccc2n1C(C(=O)NC1CCOC1C)C(C)C

>  <subsites>  (886) 
1 - Z4590/B/203/1

>  <gnina_score>  (886) 
5.306

>  <HIPPO Pose ID>  (886) 
90210

>  <ref_mols>  (886) 
Z0101a,Z3880a

>  <energy_score>  (886) 
-23.990511

>  <inspiration_score>  (886) 
None

>  <smina_score_min>  (886) 
-6.389

>  <fragmenstein_error>  (886) 


>  <name>  (886) 
BJFGDJPQRFNEJH-UHFFFAOYSA-N-P219-P8-P219-601533

$$$$
SNTZPWWZEAYXOR-UHFFFAOYSA-N-P219-P8-P219-601533
     RDKit          3D

 23 25  0  0  0  0  0  0  0  0999 V2000
   -3.7014    5.4443  -14.9686 C   0  0  0  0  0  0  0  0  0  0  0  0
   -4.9969    5.1508  -15.6336 C   0  0  0  0  0  0  0  0  0  0  0  0
   -5.1753    5.1627  -16.9385 N   0  0  0  0  0  0  0  0  0  0  0  0
   -6.4814    4.8096  -17.1315 C   0  0  0  0  0  0  0  0  0  0  0  0
   -7.1733    4.6285  -18.3331 C   0  0  0  0  0  0  0  0  0  0  0  0
   -8.5261    4.2923  -18.2804 C   0  0  0  0  0  0  0  0  0  0  0  0
   -9.1859    4.1677  -17.0679 C   0  0  0  0  0  0  0  0  0  0  0  0
   -8.5086    4.3382  -15.8639 C   0  0  0  0  0  0  0  0  0  0  0  0
   -7.1453    4.6404  -15.9179 C   0  0  0  0  0  0  0  0  0  0  0  0
   -6.1756    4.8287  -14.9561 N   0  0  0  0  0  0  0  0  0  0  0  0
   -6.3785    4.9831  -13.4883 C   0  0  2  0  0  0  0  0  0  0  0  0
   -7.1390    3.8465  -12.7362 C   0  0  0  0  0  0  0  0  0  0  0  0
   -7.8663    3.1157  -13.2776 O   0  0  0  0  0  0  0  0  0  0  0  0
   -6.7940    3.9887  -11.2253 N   0  0  0  0  0  0  0  0  0  0  0  0
   -7.2123    3.1819  -10.0730 C   0  0  2  0  0  0  0  0  0  0  0  0
   -6.3304    1.9296  -10.0414 C   0  0  0  0  0  0  0  0  0  0  0  0
   -8.6905    2.8047  -10.0880 C   0  0  0  0  0  0  0  0  0  0  0  0
   -9.0208    2.6613   -8.6156 C   0  0  0  0  0  0  0  0  0  0  0  0
   -8.3181    3.7362   -7.9758 O   0  0  0  0  0  0  0  0  0  0  0  0
   -7.1493    4.0034   -8.7682 C   0  0  0  0  0  0  0  0  0  0  0  0
   -6.9614    6.3950  -13.2320 C   0  0  0  0  0  0  0  0  0  0  0  0
   -6.1324    7.1488  -12.1975 C   0  0  0  0  0  0  0  0  0  0  0  0
   -8.4355    6.4508  -12.8348 C   0  0  0  0  0  0  0  0  0  0  0  0
  1  2  1  0
  2  3  2  0
  3  4  1  0
  4  5  2  0
  5  6  1  0
  6  7  2  0
  7  8  1  0
  8  9  2  0
  9 10  1  0
 10 11  1  0
 11 12  1  0
 12 13  2  0
 12 14  1  0
 14 15  1  0
 15 16  1  1
 15 17  1  0
 17 18  1  0
 18 19  1  0
 19 20  1  0
 11 21  1  6
 21 22  1  0
 21 23  1  0
 10  2  1  0
 20 15  1  0
  9  4  1  0
M  END
>  <fragmenstein_outcome>  (887) 
too moved

>  <exports>  (887) 
['/opt/xchem-fragalysis-2/maxwin/openbind-hippo/xx01zvns2b/cycle_01/syndirella/elabs/openbind_xx01zvns2b_c1_elab_chemspace_filtered.sdf']

>  <Energy>  (887) 
76.871797

>  <alias>  (887) 
SNTZPWWZEAYXOR-UHFFFAOYSA-N-P219-P8-P219-601533

>  <fragmenstein_runtime>  (887) 
15.294506

>  <scratch_subdir>  (887) 
/opt/xchem-fragalysis-2/maxwin/BulkDock/SCRATCH/601533/SNTZPWWZEAYXOR-UHFFFAOYSA-N-P219-P8-P219-601533

>  <HIPPO Compound ID>  (887) 
147315

>  <rmsd(smina/fragmenstein)>  (887) 
0.459

>  <distance_score>  (887) 
1.807888

>  <orig_smiles>  (887) 
Cc1nc2ccccc2n1C(C(=O)NC1(C)CCOC1)C(C)C

>  <fragmenstein_mode>  (887) 
expansion

>  <inchikey>  (887) 
SNTZPWWZEAYXOR-UHFFFAOYSA-N

>  <ref_pdb>  (887) 
Z0101a

>  <GNINA pK>  (887) 
nan

>  <gnina_score_min>  (887) 
5.198

>  <tags>  (887) 
xx01zvns2b_c1_elab_bulkdock_input,openbind_xx01zvns2b_c1_elab_nonasap_filtered_scored_top80percent,openbind_xx01zvns2b_c1_elab_chemspace_filtered_scored_top80percent,fragmenstein_placed,openbind_xx01zvns2b_c1_elab_chemspace_filtered_scored,openbind_xx01zvns2b_c1_elab_chemspace_filtered_scored_top40percent,openbind_xx01zvns2b_c1_elab_chemspace_filtered_scored_top20percent,openbind_xx01zvns2b_c1_elab_chemspace_filtered_scored_top60percent,openbind_xx01zvns2b_c1_elabs_filtered

>  <smiles>  (887) 
Cc1nc2ccccc2n1C(C(=O)NC1(C)CCOC1)C(C)C

>  <subsites>  (887) 
1 - Z4590/B/203/1

>  <gnina_score>  (887) 
5.26

>  <HIPPO Pose ID>  (887) 
90212

>  <ref_mols>  (887) 
Z0101a,Z3880a

>  <energy_score>  (887) 
-5.525046

>  <inspiration_score>  (887) 
None

>  <smina_score_min>  (887) 
-6.486

>  <fragmenstein_error>  (887) 


>  <name>  (887) 
SNTZPWWZEAYXOR-UHFFFAOYSA-N-P219-P8-P219-601533

$$$$
LOZRMXPRVTXOFM-UHFFFAOYSA-N-P8-P8-P219-601533
     RDKit          3D

 23 25  0  0  0  0  0  0  0  0999 V2000
   -4.8335    6.7595  -14.8718 C   0  0  0  0  0  0  0  0  0  0  0  0
   -5.7031    5.7940  -15.5914 C   0  0  0  0  0  0  0  0  0  0  0  0
   -5.7043    5.6661  -16.9055 N   0  0  0  0  0  0  0  0  0  0  0  0
   -6.8604    5.0038  -17.1989 C   0  0  0  0  0  0  0  0  0  0  0  0
   -7.4182    4.6965  -18.4419 C   0  0  0  0  0  0  0  0  0  0  0  0
   -8.7148    4.1775  -18.4831 C   0  0  0  0  0  0  0  0  0  0  0  0
   -9.4157    3.9291  -17.3060 C   0  0  0  0  0  0  0  0  0  0  0  0
   -8.8281    4.1259  -16.0544 C   0  0  0  0  0  0  0  0  0  0  0  0
   -7.5509    4.6783  -16.0391 C   0  0  0  0  0  0  0  0  0  0  0  0
   -6.6852    4.9911  -15.0101 N   0  0  0  0  0  0  0  0  0  0  0  0
   -6.6460    4.1867  -13.7526 C   0  0  2  0  0  0  0  0  0  0  0  0
   -7.7151    4.5563  -12.6626 C   0  0  0  0  0  0  0  0  0  0  0  0
   -8.2933    5.5776  -12.6264 O   0  0  0  0  0  0  0  0  0  0  0  0
   -7.7220    3.3431  -11.6542 N   0  0  0  0  0  0  0  0  0  0  0  0
   -8.3888    3.1910  -10.3197 C   0  0  1  0  0  0  0  0  0  0  0  0
   -7.5197    2.1982   -9.4673 C   0  0  0  0  0  0  0  0  0  0  0  0
   -6.7955    3.3521   -8.9247 O   0  0  0  0  0  0  0  0  0  0  0  0
   -8.0226    4.1406   -9.1036 C   0  0  0  0  0  0  0  0  0  0  0  0
   -8.8008    4.0069   -7.7774 C   0  0  0  0  0  0  0  0  0  0  0  0
   -7.7073    5.5933   -9.3972 C   0  0  0  0  0  0  0  0  0  0  0  0
   -5.2125    4.0785  -13.1840 C   0  0  0  0  0  0  0  0  0  0  0  0
   -4.9311    5.0894  -12.0745 C   0  0  0  0  0  0  0  0  0  0  0  0
   -4.8030    2.6684  -12.7262 C   0  0  0  0  0  0  0  0  0  0  0  0
  1  2  1  0
  2  3  2  0
  3  4  1  0
  4  5  2  0
  5  6  1  0
  6  7  2  0
  7  8  1  0
  8  9  2  0
  9 10  1  0
 10 11  1  0
 11 12  1  0
 12 13  2  0
 12 14  1  0
 15 14  1  6
 15 16  1  0
 16 17  1  0
 17 18  1  0
 18 19  1  0
 18 20  1  0
 11 21  1  1
 21 22  1  0
 21 23  1  0
 10  2  1  0
 18 15  1  0
  9  4  1  0
M  END
>  <fragmenstein_outcome>  (888) 
too moved

>  <exports>  (888) 
['/opt/xchem-fragalysis-2/maxwin/openbind-hippo/xx01zvns2b/cycle_01/syndirella/elabs/openbind_xx01zvns2b_c1_elab_chemspace_filtered.sdf']

>  <Energy>  (888) 
99.003619

>  <alias>  (888) 
LOZRMXPRVTXOFM-UHFFFAOYSA-N-P8-P8-P219-601533

>  <fragmenstein_runtime>  (888) 
13.700685

>  <scratch_subdir>  (888) 
/opt/xchem-fragalysis-2/maxwin/BulkDock/SCRATCH/601533/LOZRMXPRVTXOFM-UHFFFAOYSA-N-P8-P8-P219-601533

>  <HIPPO Compound ID>  (888) 
147323

>  <rmsd(smina/fragmenstein)>  (888) 
0.94

>  <distance_score>  (888) 
1.54126

>  <orig_smiles>  (888) 
Cc1nc2ccccc2n1C(C(=O)NC1COC1(C)C)C(C)C

>  <fragmenstein_mode>  (888) 
expansion

>  <inchikey>  (888) 
LOZRMXPRVTXOFM-UHFFFAOYSA-N

>  <ref_pdb>  (888) 
Z0101a

>  <GNINA pK>  (888) 
nan

>  <gnina_score_min>  (888) 
5.365

>  <tags>  (888) 
xx01zvns2b_c1_elab_bulkdock_input,openbind_xx01zvns2b_c1_elab_nonasap_filtered_scored_top80percent,openbind_xx01zvns2b_c1_elab_chemspace_filtered_scored_top80percent,fragmenstein_placed,openbind_xx01zvns2b_c1_elab_chemspace_filtered_scored,openbind_xx01zvns2b_c1_elab_chemspace_filtered_scored_top40percent,openbind_xx01zvns2b_c1_elab_chemspace_filtered_scored_top20percent,openbind_xx01zvns2b_c1_elab_chemspace_filtered_scored_top60percent,openbind_xx01zvns2b_c1_elabs_filtered

>  <smiles>  (888) 
Cc1nc2ccccc2n1C(C(=O)NC1COC1(C)C)C(C)C

>  <subsites>  (888) 
1 - Z4590/B/203/1

>  <gnina_score>  (888) 
5.45

>  <HIPPO Pose ID>  (888) 
90227

>  <ref_mols>  (888) 
Z0101a,Z3880a

>  <energy_score>  (888) 
-15.908822

>  <inspiration_score>  (888) 
None

>  <smina_score_min>  (888) 
-6.081

>  <fragmenstein_error>  (888) 


>  <name>  (888) 
LOZRMXPRVTXOFM-UHFFFAOYSA-N-P8-P8-P219-601533

$$$$
YYOTWMJSMWDHFW-UHFFFAOYSA-N-P8-P8-P219-601533
     RDKit          3D

 23 25  0  0  0  0  0  0  0  0999 V2000
   -4.9545    6.9961  -14.6685 C   0  0  0  0  0  0  0  0  0  0  0  0
   -5.7175    5.9622  -15.4059 C   0  0  0  0  0  0  0  0  0  0  0  0
   -5.6726    5.8295  -16.7204 N   0  0  0  0  0  0  0  0  0  0  0  0
   -6.7858    5.1094  -17.0450 C   0  0  0  0  0  0  0  0  0  0  0  0
   -7.3102    4.7943  -18.3030 C   0  0  0  0  0  0  0  0  0  0  0  0
   -8.5822    4.2198  -18.3692 C   0  0  0  0  0  0  0  0  0  0  0  0
   -9.2904    3.9318  -17.2050 C   0  0  0  0  0  0  0  0  0  0  0  0
   -8.7327    4.1401  -15.9410 C   0  0  0  0  0  0  0  0  0  0  0  0
   -7.4782    4.7423  -15.8976 C   0  0  0  0  0  0  0  0  0  0  0  0
   -6.6469    5.0938  -14.8493 N   0  0  0  0  0  0  0  0  0  0  0  0
   -6.6246    4.3353  -13.5781 C   0  0  2  0  0  0  0  0  0  0  0  0
   -7.5404    4.8538  -12.4173 C   0  0  0  0  0  0  0  0  0  0  0  0
   -7.9939    5.9389  -12.3778 O   0  0  0  0  0  0  0  0  0  0  0  0
   -7.5961    3.6796  -11.3534 N   0  0  0  0  0  0  0  0  0  0  0  0
   -8.1382    3.6544  -10.0031 C   0  0  0  0  0  0  0  0  0  0  0  0
   -8.2452    4.9656   -9.2294 C   0  0  1  0  0  0  0  0  0  0  0  0
   -8.3030    4.8448   -7.7049 C   0  0  0  0  0  0  0  0  0  0  0  0
   -7.1379    5.8115   -9.5333 O   0  0  0  0  0  0  0  0  0  0  0  0
   -7.7798    2.3846   -9.2239 C   0  0  0  0  0  0  0  0  0  0  0  0
   -9.1793    2.6033   -9.6822 C   0  0  0  0  0  0  0  0  0  0  0  0
   -5.2185    4.0217  -13.0063 C   0  0  0  0  0  0  0  0  0  0  0  0
   -4.6119    5.1380  -12.1539 C   0  0  0  0  0  0  0  0  0  0  0  0
   -4.2007    3.4764  -14.0122 C   0  0  0  0  0  0  0  0  0  0  0  0
  1  2  1  0
  2  3  2  0
  3  4  1  0
  4  5  2  0
  5  6  1  0
  6  7  2  0
  7  8  1  0
  8  9  2  0
  9 10  1  0
 10 11  1  0
 11 12  1  0
 12 13  2  0
 12 14  1  0
 14 15  1  0
 15 16  1  0
 16 17  1  1
 16 18  1  0
 15 19  1  0
 19 20  1  0
 11 21  1  1
 21 22  1  0
 21 23  1  0
 10  2  1  0
 20 15  1  0
  9  4  1  0
M  END
>  <fragmenstein_outcome>  (889) 
too moved

>  <exports>  (889) 
['/opt/xchem-fragalysis-2/maxwin/openbind-hippo/xx01zvns2b/cycle_01/syndirella/elabs/openbind_xx01zvns2b_c1_elab_chemspace_filtered.sdf']

>  <Energy>  (889) 
82.205786

>  <alias>  (889) 
YYOTWMJSMWDHFW-UHFFFAOYSA-N-P8-P8-P219-601533

>  <fragmenstein_runtime>  (889) 
16.917048

>  <scratch_subdir>  (889) 
/opt/xchem-fragalysis-2/maxwin/BulkDock/SCRATCH/601533/YYOTWMJSMWDHFW-UHFFFAOYSA-N-P8-P8-P219-601533

>  <HIPPO Compound ID>  (889) 
147325

>  <rmsd(smina/fragmenstein)>  (889) 
0.807

>  <distance_score>  (889) 
1.581573

>  <orig_smiles>  (889) 
Cc1nc2ccccc2n1C(C(=O)NC1(C(C)O)CC1)C(C)C

>  <fragmenstein_mode>  (889) 
expansion

>  <inchikey>  (889) 
YYOTWMJSMWDHFW-UHFFFAOYSA-N

>  <ref_pdb>  (889) 
Z0101a

>  <GNINA pK>  (889) 
nan

>  <gnina_score_min>  (889) 
5.18

>  <tags>  (889) 
xx01zvns2b_c1_elab_bulkdock_input,openbind_xx01zvns2b_c1_elab_nonasap_filtered_scored_top80percent,openbind_xx01zvns2b_c1_elab_chemspace_filtered_scored_top80percent,fragmenstein_placed,openbind_xx01zvns2b_c1_elab_chemspace_filtered_scored,openbind_xx01zvns2b_c1_elab_chemspace_filtered_scored_top40percent,openbind_xx01zvns2b_c1_elab_chemspace_filtered_scored_top20percent,openbind_xx01zvns2b_c1_elab_chemspace_filtered_scored_top60percent,openbind_xx01zvns2b_c1_elabs_filtered

>  <smiles>  (889) 
Cc1nc2ccccc2n1C(C(=O)NC1(C(C)O)CC1)C(C)C

>  <subsites>  (889) 
1 - Z4590/B/203/1

>  <gnina_score>  (889) 
5.339

>  <HIPPO Pose ID>  (889) 
90231

>  <ref_mols>  (889) 
Z0101a,Z3880a

>  <energy_score>  (889) 
-24.111414

>  <inspiration_score>  (889) 
None

>  <smina_score_min>  (889) 
-5.6

>  <fragmenstein_error>  (889) 


>  <name>  (889) 
YYOTWMJSMWDHFW-UHFFFAOYSA-N-P8-P8-P219-601533

$$$$
ZWAAIRGHKBCJDS-UHFFFAOYSA-N-P8-P8-P219-601533
     RDKit          3D

 23 25  0  0  0  0  0  0  0  0999 V2000
   -2.0762    6.7108  -13.9512 C   0  0  0  0  0  0  0  0  0  0  0  0
   -3.4796    6.6180  -14.5565 C   0  0  0  0  0  0  0  0  0  0  0  0
   -4.4470    7.4833  -13.7513 C   0  0  0  0  0  0  0  0  0  0  0  0
   -3.9105    5.1434  -14.6426 C   0  0  0  0  0  0  0  0  0  0  0  0
   -5.2072    4.9415  -15.3562 C   0  0  0  0  0  0  0  0  0  0  0  0
   -5.2596    5.0339  -16.6789 N   0  0  0  0  0  0  0  0  0  0  0  0
   -6.5291    4.7114  -17.0467 C   0  0  0  0  0  0  0  0  0  0  0  0
   -7.1076    4.6336  -18.3213 C   0  0  0  0  0  0  0  0  0  0  0  0
   -8.4608    4.2941  -18.4340 C   0  0  0  0  0  0  0  0  0  0  0  0
   -9.2255    4.0462  -17.3007 C   0  0  0  0  0  0  0  0  0  0  0  0
   -8.6573    4.1123  -16.0289 C   0  0  0  0  0  0  0  0  0  0  0  0
   -7.2981    4.4434  -15.9274 C   0  0  0  0  0  0  0  0  0  0  0  0
   -6.4462    4.6070  -14.8238 N   0  0  0  0  0  0  0  0  0  0  0  0
   -7.0539    4.5360  -13.4604 C   0  0  2  0  0  0  0  0  0  0  0  0
   -7.8818    5.8050  -13.2174 C   0  0  0  0  0  0  0  0  0  0  0  0
   -6.2711    4.2785  -12.1511 C   0  0  0  0  0  0  0  0  0  0  0  0
   -5.1408    4.5456  -12.0115 O   0  0  0  0  0  0  0  0  0  0  0  0
   -7.3201    3.7219  -11.1192 N   0  0  0  0  0  0  0  0  0  0  0  0
   -7.1992    3.4771   -9.6840 C   0  0  2  0  0  0  0  0  0  0  0  0
   -8.1662    2.4335   -9.1580 C   0  0  0  0  0  0  0  0  0  0  0  0
   -8.5843    2.9466   -7.8006 C   0  0  0  0  0  0  0  0  0  0  0  0
   -8.5643    4.3740   -7.9023 O   0  0  0  0  0  0  0  0  0  0  0  0
   -7.5475    4.7179   -8.8562 C   0  0  0  0  0  0  0  0  0  0  0  0
  1  2  1  0
  2  3  1  0
  2  4  1  0
  4  5  1  0
  5  6  2  0
  6  7  1  0
  7  8  2  0
  8  9  1  0
  9 10  2  0
 10 11  1  0
 11 12  2  0
 12 13  1  0
 13 14  1  0
 14 15  1  1
 14 16  1  0
 16 17  2  0
 16 18  1  0
 19 18  1  6
 19 20  1  0
 20 21  1  0
 21 22  1  0
 22 23  1  0
 13  5  1  0
 23 19  1  0
 12  7  1  0
M  END
>  <fragmenstein_outcome>  (890) 
too moved

>  <exports>  (890) 
['/opt/xchem-fragalysis-2/maxwin/openbind-hippo/xx01zvns2b/cycle_01/syndirella/elabs/openbind_xx01zvns2b_c1_elab_chemspace_filtered.sdf']

>  <Energy>  (890) 
74.129331

>  <alias>  (890) 
ZWAAIRGHKBCJDS-UHFFFAOYSA-N-P8-P8-P219-601533

>  <fragmenstein_runtime>  (890) 
8.544535

>  <scratch_subdir>  (890) 
/opt/xchem-fragalysis-2/maxwin/BulkDock/SCRATCH/601533/ZWAAIRGHKBCJDS-UHFFFAOYSA-N-P8-P8-P219-601533

>  <HIPPO Compound ID>  (890) 
147333

>  <rmsd(smina/fragmenstein)>  (890) 
1.154

>  <distance_score>  (890) 
1.541765

>  <orig_smiles>  (890) 
CC(C)Cc1nc2ccccc2n1C(C)C(=O)NC1CCOC1

>  <fragmenstein_mode>  (890) 
expansion

>  <inchikey>  (890) 
ZWAAIRGHKBCJDS-UHFFFAOYSA-N

>  <ref_pdb>  (890) 
Z0101a

>  <GNINA pK>  (890) 
nan

>  <gnina_score_min>  (890) 
5.385

>  <tags>  (890) 
xx01zvns2b_c1_elab_bulkdock_input,openbind_xx01zvns2b_c1_elab_nonasap_filtered_scored_top80percent,openbind_xx01zvns2b_c1_elab_chemspace_filtered_scored_top80percent,fragmenstein_placed,openbind_xx01zvns2b_c1_elab_chemspace_filtered_scored,openbind_xx01zvns2b_c1_elab_chemspace_filtered_scored_top40percent,openbind_xx01zvns2b_c1_elab_chemspace_filtered_scored_top20percent,openbind_xx01zvns2b_c1_elab_chemspace_filtered_scored_top60percent,openbind_xx01zvns2b_c1_elabs_filtered

>  <smiles>  (890) 
CC(C)Cc1nc2ccccc2n1C(C)C(=O)NC1CCOC1

>  <subsites>  (890) 
1 - Z4590/B/203/1

>  <gnina_score>  (890) 
5.29

>  <HIPPO Pose ID>  (890) 
90247

>  <ref_mols>  (890) 
Z0101a,Z3880a

>  <energy_score>  (890) 
-7.957696

>  <inspiration_score>  (890) 
None

>  <smina_score_min>  (890) 
-6.295

>  <fragmenstein_error>  (890) 


>  <name>  (890) 
ZWAAIRGHKBCJDS-UHFFFAOYSA-N-P8-P8-P219-601533

$$$$
LHUPODUYUFEURF-UHFFFAOYSA-N-P8-P8-P219-601533
     RDKit          3D

 23 25  0  0  0  0  0  0  0  0999 V2000
   -2.6358    2.9044  -12.7981 C   0  0  0  0  0  0  0  0  0  0  0  0
   -3.7504    3.0041  -13.8259 C   0  0  0  0  0  0  0  0  0  0  0  0
   -4.3056    4.4267  -13.9186 C   0  0  0  0  0  0  0  0  0  0  0  0
   -5.4371    4.4857  -14.8925 C   0  0  0  0  0  0  0  0  0  0  0  0
   -5.2902    4.6703  -16.1959 N   0  0  0  0  0  0  0  0  0  0  0  0
   -6.5350    4.5136  -16.7426 C   0  0  0  0  0  0  0  0  0  0  0  0
   -6.9482    4.5516  -18.0835 C   0  0  0  0  0  0  0  0  0  0  0  0
   -8.2972    4.3263  -18.3839 C   0  0  0  0  0  0  0  0  0  0  0  0
   -9.2229    4.0995  -17.3732 C   0  0  0  0  0  0  0  0  0  0  0  0
   -8.8277    4.0884  -16.0376 C   0  0  0  0  0  0  0  0  0  0  0  0
   -7.4744    4.2791  -15.7470 C   0  0  0  0  0  0  0  0  0  0  0  0
   -6.7698    4.3079  -14.5498 N   0  0  0  0  0  0  0  0  0  0  0  0
   -7.4562    4.5397  -13.2550 C   0  0  2  0  0  0  0  0  0  0  0  0
   -7.3354    6.0183  -12.8929 C   0  0  0  0  0  0  0  0  0  0  0  0
   -7.1547    3.6510  -12.0124 C   0  0  0  0  0  0  0  0  0  0  0  0
   -6.1721    3.0320  -11.8551 O   0  0  0  0  0  0  0  0  0  0  0  0
   -8.3831    3.8795  -11.0477 N   0  0  0  0  0  0  0  0  0  0  0  0
   -8.5918    3.4609   -9.6525 C   0  0  1  0  0  0  0  0  0  0  0  0
   -8.1691    2.1570   -8.9933 C   0  0  0  0  0  0  0  0  0  0  0  0
   -7.9555    2.8983   -7.7338 O   0  0  0  0  0  0  0  0  0  0  0  0
   -7.7433    4.1072   -8.5357 C   0  0  0  0  0  0  0  0  0  0  0  0
   -6.2647    4.3239   -8.7463 C   0  0  0  0  0  0  0  0  0  0  0  0
   -8.3655    5.3148   -7.8679 C   0  0  0  0  0  0  0  0  0  0  0  0
  1  2  1  0
  2  3  1  0
  3  4  1  0
  4  5  2  0
  5  6  1  0
  6  7  2  0
  7  8  1  0
  8  9  2  0
  9 10  1  0
 10 11  2  0
 11 12  1  0
 12 13  1  0
 13 14  1  1
 13 15  1  0
 15 16  2  0
 15 17  1  0
 18 17  1  6
 18 19  1  0
 19 20  1  0
 20 21  1  0
 21 22  1  0
 21 23  1  0
 12  4  1  0
 21 18  1  0
 11  6  1  0
M  END
>  <fragmenstein_outcome>  (891) 
too moved

>  <exports>  (891) 
['/opt/xchem-fragalysis-2/maxwin/openbind-hippo/xx01zvns2b/cycle_01/syndirella/elabs/openbind_xx01zvns2b_c1_elab_chemspace_filtered.sdf']

>  <Energy>  (891) 
77.18342

>  <alias>  (891) 
LHUPODUYUFEURF-UHFFFAOYSA-N-P8-P8-P219-601533

>  <fragmenstein_runtime>  (891) 
11.243507

>  <scratch_subdir>  (891) 
/opt/xchem-fragalysis-2/maxwin/BulkDock/SCRATCH/601533/LHUPODUYUFEURF-UHFFFAOYSA-N-P8-P8-P219-601533

>  <HIPPO Compound ID>  (891) 
147383

>  <rmsd(smina/fragmenstein)>  (891) 
0.705

>  <distance_score>  (891) 
1.786907

>  <orig_smiles>  (891) 
CCCc1nc2ccccc2n1C(C)C(=O)NC1COC1(C)C

>  <fragmenstein_mode>  (891) 
expansion

>  <inchikey>  (891) 
LHUPODUYUFEURF-UHFFFAOYSA-N

>  <ref_pdb>  (891) 
Z0101a

>  <GNINA pK>  (891) 
nan

>  <gnina_score_min>  (891) 
5.306

>  <tags>  (891) 
xx01zvns2b_c1_elab_bulkdock_input,openbind_xx01zvns2b_c1_elab_nonasap_filtered_scored_top80percent,openbind_xx01zvns2b_c1_elab_chemspace_filtered_scored_top80percent,fragmenstein_placed,openbind_xx01zvns2b_c1_elab_chemspace_filtered_scored,openbind_xx01zvns2b_c1_elab_chemspace_filtered_scored_top40percent,openbind_xx01zvns2b_c1_elab_chemspace_filtered_scored_top20percent,openbind_xx01zvns2b_c1_elab_chemspace_filtered_scored_top60percent,openbind_xx01zvns2b_c1_elabs_filtered

>  <smiles>  (891) 
CCCc1nc2ccccc2n1C(C)C(=O)NC1COC1(C)C

>  <subsites>  (891) 
1 - Z4590/B/203/1

>  <gnina_score>  (891) 
5.349

>  <HIPPO Pose ID>  (891) 
90347

>  <ref_mols>  (891) 
Z0101a,Z3880a

>  <energy_score>  (891) 
-17.415417

>  <inspiration_score>  (891) 
None

>  <smina_score_min>  (891) 
-6.132

>  <fragmenstein_error>  (891) 


>  <name>  (891) 
LHUPODUYUFEURF-UHFFFAOYSA-N-P8-P8-P219-601533

$$$$
LDVFVBSODIABKD-UHFFFAOYSA-N-P219-P8-P219-601533
     RDKit          3D

 23 25  0  0  0  0  0  0  0  0999 V2000
   -2.0935    5.6952  -16.1586 C   0  0  0  0  0  0  0  0  0  0  0  0
   -2.8203    7.0048  -15.8843 C   0  0  0  0  0  0  0  0  0  0  0  0
   -4.0193    6.8340  -14.9479 C   0  0  0  0  0  0  0  0  0  0  0  0
   -5.1660    6.0934  -15.5705 C   0  0  0  0  0  0  0  0  0  0  0  0
   -5.3536    5.9515  -16.8668 N   0  0  0  0  0  0  0  0  0  0  0  0
   -6.5287    5.2688  -16.9990 C   0  0  0  0  0  0  0  0  0  0  0  0
   -7.1856    4.8839  -18.1736 C   0  0  0  0  0  0  0  0  0  0  0  0
   -8.4372    4.2829  -18.0695 C   0  0  0  0  0  0  0  0  0  0  0  0
   -9.0020    4.0475  -16.8228 C   0  0  0  0  0  0  0  0  0  0  0  0
   -8.3257    4.3453  -15.6381 C   0  0  0  0  0  0  0  0  0  0  0  0
   -7.0915    4.9861  -15.7538 C   0  0  0  0  0  0  0  0  0  0  0  0
   -6.1906    5.4823  -14.8390 N   0  0  0  0  0  0  0  0  0  0  0  0
   -6.1515    5.2550  -13.3679 C   0  0  2  0  0  0  0  0  0  0  0  0
   -5.2173    4.0896  -13.1102 C   0  0  0  0  0  0  0  0  0  0  0  0
   -7.5315    5.2164  -12.6098 C   0  0  0  0  0  0  0  0  0  0  0  0
   -8.4026    5.9286  -12.9485 O   0  0  0  0  0  0  0  0  0  0  0  0
   -7.4422    4.2244  -11.3896 N   0  0  0  0  0  0  0  0  0  0  0  0
   -8.3739    3.9875  -10.2928 C   0  0  1  0  0  0  0  0  0  0  0  0
   -8.6948    2.5367   -9.9550 C   0  0  0  0  0  0  0  0  0  0  0  0
   -9.2028    2.5378   -8.6072 O   0  0  0  0  0  0  0  0  0  0  0  0
   -8.6596    3.6817   -7.9374 C   0  0  0  0  0  0  0  0  0  0  0  0
   -7.8539    4.4677   -8.9509 C   0  0  2  0  0  0  0  0  0  0  0  0
   -8.0631    5.7990   -8.8197 F   0  0  0  0  0  0  0  0  0  0  0  0
  1  2  1  0
  2  3  1  0
  3  4  1  0
  4  5  2  0
  5  6  1  0
  6  7  2  0
  7  8  1  0
  8  9  2  0
  9 10  1  0
 10 11  2  0
 11 12  1  0
 12 13  1  0
 13 14  1  6
 13 15  1  0
 15 16  2  0
 15 17  1  0
 18 17  1  6
 18 19  1  0
 19 20  1  0
 20 21  1  0
 21 22  1  0
 22 23  1  1
 12  4  1  0
 22 18  1  0
 11  6  1  0
M  END
>  <fragmenstein_outcome>  (892) 
too moved

>  <exports>  (892) 
['/opt/xchem-fragalysis-2/maxwin/openbind-hippo/xx01zvns2b/cycle_01/syndirella/elabs/openbind_xx01zvns2b_c1_elab_chemspace_filtered.sdf']

>  <Energy>  (892) 
90.600093

>  <alias>  (892) 
LDVFVBSODIABKD-UHFFFAOYSA-N-P219-P8-P219-601533

>  <fragmenstein_runtime>  (892) 
7.006538

>  <scratch_subdir>  (892) 
/opt/xchem-fragalysis-2/maxwin/BulkDock/SCRATCH/601533/LDVFVBSODIABKD-UHFFFAOYSA-N-P219-P8-P219-601533

>  <HIPPO Compound ID>  (892) 
147388

>  <rmsd(smina/fragmenstein)>  (892) 
1.034

>  <distance_score>  (892) 
1.543251

>  <orig_smiles>  (892) 
CCCc1nc2ccccc2n1C(C)C(=O)NC1COCC1F

>  <fragmenstein_mode>  (892) 
expansion

>  <inchikey>  (892) 
LDVFVBSODIABKD-UHFFFAOYSA-N

>  <ref_pdb>  (892) 
Z0101a

>  <GNINA pK>  (892) 
nan

>  <gnina_score_min>  (892) 
5.328

>  <tags>  (892) 
xx01zvns2b_c1_elab_bulkdock_input,openbind_xx01zvns2b_c1_elab_nonasap_filtered_scored_top80percent,openbind_xx01zvns2b_c1_elab_chemspace_filtered_scored_top80percent,fragmenstein_placed,openbind_xx01zvns2b_c1_elab_chemspace_filtered_scored,openbind_xx01zvns2b_c1_elab_chemspace_filtered_scored_top40percent,openbind_xx01zvns2b_c1_elab_chemspace_filtered_scored_top20percent,openbind_xx01zvns2b_c1_elab_chemspace_filtered_scored_top60percent,openbind_xx01zvns2b_c1_elabs_filtered

>  <smiles>  (892) 
CCCc1nc2ccccc2n1C(C)C(=O)NC1COCC1F

>  <subsites>  (892) 
1 - Z4590/B/203/1

>  <gnina_score>  (892) 
5.223

>  <HIPPO Pose ID>  (892) 
90356

>  <ref_mols>  (892) 
Z0101a,Z3880a

>  <energy_score>  (892) 
-10.615407

>  <inspiration_score>  (892) 
None

>  <smina_score_min>  (892) 
-5.973

>  <fragmenstein_error>  (892) 


>  <name>  (892) 
LDVFVBSODIABKD-UHFFFAOYSA-N-P219-P8-P219-601533

$$$$
KLPUMBGGDBCLGA-UHFFFAOYSA-N-P219-P8-P219-601533
     RDKit          3D

 23 25  0  0  0  0  0  0  0  0999 V2000
   -2.1970    5.4181  -15.2167 C   0  0  0  0  0  0  0  0  0  0  0  0
   -3.0984    5.2375  -14.0044 C   0  0  0  0  0  0  0  0  0  0  0  0
   -4.4087    6.0145  -14.1145 C   0  0  0  0  0  0  0  0  0  0  0  0
   -5.4019    5.3772  -15.0357 C   0  0  0  0  0  0  0  0  0  0  0  0
   -5.2820    5.3578  -16.3553 N   0  0  0  0  0  0  0  0  0  0  0  0
   -6.4586    4.8536  -16.8381 C   0  0  0  0  0  0  0  0  0  0  0  0
   -6.8774    4.6337  -18.1559 C   0  0  0  0  0  0  0  0  0  0  0  0
   -8.1782    4.1679  -18.3739 C   0  0  0  0  0  0  0  0  0  0  0  0
   -9.0622    3.9774  -17.3228 C   0  0  0  0  0  0  0  0  0  0  0  0
   -8.6519    4.1702  -16.0104 C   0  0  0  0  0  0  0  0  0  0  0  0
   -7.3310    4.5769  -15.7956 C   0  0  0  0  0  0  0  0  0  0  0  0
   -6.6066    4.8176  -14.6358 N   0  0  0  0  0  0  0  0  0  0  0  0
   -7.2685    4.7592  -13.3151 C   0  0  2  0  0  0  0  0  0  0  0  0
   -7.7874    6.1458  -12.9550 C   0  0  0  0  0  0  0  0  0  0  0  0
   -6.5485    4.1042  -12.1132 C   0  0  0  0  0  0  0  0  0  0  0  0
   -5.3863    3.9832  -12.0313 O   0  0  0  0  0  0  0  0  0  0  0  0
   -7.6821    3.7753  -11.0729 N   0  0  0  0  0  0  0  0  0  0  0  0
   -7.5938    3.3215   -9.6889 C   0  0  2  0  0  0  0  0  0  0  0  0
   -8.5121    2.1730   -9.3478 C   0  0  0  0  0  0  0  0  0  0  0  0
   -9.0602    2.4994   -7.9786 C   0  0  0  0  0  0  0  0  0  0  0  0
   -8.9111    3.9056   -7.7955 O   0  0  0  0  0  0  0  0  0  0  0  0
   -8.1425    4.4199   -8.7952 C   0  0  0  0  0  0  0  0  0  0  0  0
   -7.9617    5.6199   -8.9533 O   0  0  0  0  0  0  0  0  0  0  0  0
  1  2  1  0
  2  3  1  0
  3  4  1  0
  4  5  2  0
  5  6  1  0
  6  7  2  0
  7  8  1  0
  8  9  2  0
  9 10  1  0
 10 11  2  0
 11 12  1  0
 12 13  1  0
 13 14  1  1
 13 15  1  0
 15 16  2  0
 15 17  1  0
 18 17  1  6
 18 19  1  0
 19 20  1  0
 20 21  1  0
 21 22  1  0
 22 23  2  0
 12  4  1  0
 22 18  1  0
 11  6  1  0
M  END
>  <fragmenstein_outcome>  (893) 
too moved

>  <exports>  (893) 
['/opt/xchem-fragalysis-2/maxwin/openbind-hippo/xx01zvns2b/cycle_01/syndirella/elabs/openbind_xx01zvns2b_c1_elab_chemspace_filtered.sdf']

>  <Energy>  (893) 
62.272462

>  <alias>  (893) 
KLPUMBGGDBCLGA-UHFFFAOYSA-N-P219-P8-P219-601533

>  <fragmenstein_runtime>  (893) 
8.015759

>  <scratch_subdir>  (893) 
/opt/xchem-fragalysis-2/maxwin/BulkDock/SCRATCH/601533/KLPUMBGGDBCLGA-UHFFFAOYSA-N-P219-P8-P219-601533

>  <HIPPO Compound ID>  (893) 
147395

>  <rmsd(smina/fragmenstein)>  (893) 
1.252

>  <distance_score>  (893) 
1.884258

>  <orig_smiles>  (893) 
CCCc1nc2ccccc2n1C(C)C(=O)NC1CCOC1=O

>  <fragmenstein_mode>  (893) 
expansion

>  <inchikey>  (893) 
KLPUMBGGDBCLGA-UHFFFAOYSA-N

>  <ref_pdb>  (893) 
Z0101a

>  <GNINA pK>  (893) 
nan

>  <gnina_score_min>  (893) 
5.394

>  <tags>  (893) 
xx01zvns2b_c1_elab_bulkdock_input,openbind_xx01zvns2b_c1_elab_nonasap_filtered_scored_top80percent,openbind_xx01zvns2b_c1_elab_chemspace_filtered_scored_top80percent,fragmenstein_placed,openbind_xx01zvns2b_c1_elab_chemspace_filtered_scored,openbind_xx01zvns2b_c1_elab_chemspace_filtered_scored_top40percent,openbind_xx01zvns2b_c1_elab_chemspace_filtered_scored_top20percent,openbind_xx01zvns2b_c1_elab_chemspace_filtered_scored_top60percent,openbind_xx01zvns2b_c1_elabs_filtered

>  <smiles>  (893) 
CCCc1nc2ccccc2n1C(C)C(=O)NC1CCOC1=O

>  <subsites>  (893) 
1 - Z4590/B/203/1

>  <gnina_score>  (893) 
5.202

>  <HIPPO Pose ID>  (893) 
90370

>  <ref_mols>  (893) 
Z0101a,Z3880a

>  <energy_score>  (893) 
-3.340545

>  <inspiration_score>  (893) 
None

>  <smina_score_min>  (893) 
-6.483

>  <fragmenstein_error>  (893) 


>  <name>  (893) 
KLPUMBGGDBCLGA-UHFFFAOYSA-N-P219-P8-P219-601533

$$$$
UUHCJJJCCJICKZ-UHFFFAOYSA-N-P219-P8-P219-601533
     RDKit          3D

 23 25  0  0  0  0  0  0  0  0999 V2000
   -1.6659    6.9054  -14.6564 C   0  0  0  0  0  0  0  0  0  0  0  0
   -3.0352    6.7260  -15.2927 C   0  0  0  0  0  0  0  0  0  0  0  0
   -3.6618    5.3863  -14.9003 C   0  0  0  0  0  0  0  0  0  0  0  0
   -5.0187    5.2133  -15.5160 C   0  0  0  0  0  0  0  0  0  0  0  0
   -5.2126    5.2373  -16.8176 N   0  0  0  0  0  0  0  0  0  0  0  0
   -6.5151    4.8853  -16.9986 C   0  0  0  0  0  0  0  0  0  0  0  0
   -7.1943    4.6937  -18.2083 C   0  0  0  0  0  0  0  0  0  0  0  0
   -8.5335    4.3201  -18.1723 C   0  0  0  0  0  0  0  0  0  0  0  0
   -9.1815    4.1472  -16.9610 C   0  0  0  0  0  0  0  0  0  0  0  0
   -8.5120    4.3140  -15.7474 C   0  0  0  0  0  0  0  0  0  0  0  0
   -7.1701    4.7003  -15.7765 C   0  0  0  0  0  0  0  0  0  0  0  0
   -6.2158    4.9634  -14.8171 N   0  0  0  0  0  0  0  0  0  0  0  0
   -6.3212    5.0422  -13.3371 C   0  0  1  0  0  0  0  0  0  0  0  0
   -6.1544    6.5009  -12.9118 C   0  0  0  0  0  0  0  0  0  0  0  0
   -7.5933    4.6287  -12.5456 C   0  0  0  0  0  0  0  0  0  0  0  0
   -8.6767    4.9407  -12.8735 O   0  0  0  0  0  0  0  0  0  0  0  0
   -7.0977    3.8601  -11.2603 N   0  0  0  0  0  0  0  0  0  0  0  0
   -7.8274    3.4160  -10.0938 C   0  0  0  0  0  0  0  0  0  0  0  0
   -7.8386    4.4307   -8.9439 C   0  0  2  0  0  0  0  0  0  0  0  0
   -8.5816    4.0570   -7.6677 C   0  0  0  0  0  0  0  0  0  0  0  0
   -8.3756    5.6618   -9.4343 O   0  0  0  0  0  0  0  0  0  0  0  0
   -7.7315    1.9522   -9.7398 C   0  0  0  0  0  0  0  0  0  0  0  0
   -9.0112    2.4966  -10.2883 C   0  0  0  0  0  0  0  0  0  0  0  0
  1  2  1  0
  2  3  1  0
  3  4  1  0
  4  5  2  0
  5  6  1  0
  6  7  2  0
  7  8  1  0
  8  9  2  0
  9 10  1  0
 10 11  2  0
 11 12  1  0
 12 13  1  0
 13 14  1  6
 13 15  1  0
 15 16  2  0
 15 17  1  0
 17 18  1  0
 18 19  1  0
 19 20  1  1
 19 21  1  0
 18 22  1  0
 22 23  1  0
 12  4  1  0
 23 18  1  0
 11  6  1  0
M  END
>  <fragmenstein_outcome>  (894) 
too moved

>  <exports>  (894) 
['/opt/xchem-fragalysis-2/maxwin/openbind-hippo/xx01zvns2b/cycle_01/syndirella/elabs/openbind_xx01zvns2b_c1_elab_chemspace_filtered.sdf']

>  <Energy>  (894) 
68.495175

>  <alias>  (894) 
UUHCJJJCCJICKZ-UHFFFAOYSA-N-P219-P8-P219-601533

>  <fragmenstein_runtime>  (894) 
9.182661

>  <scratch_subdir>  (894) 
/opt/xchem-fragalysis-2/maxwin/BulkDock/SCRATCH/601533/UUHCJJJCCJICKZ-UHFFFAOYSA-N-P219-P8-P219-601533

>  <HIPPO Compound ID>  (894) 
147400

>  <rmsd(smina/fragmenstein)>  (894) 
0.738

>  <distance_score>  (894) 
1.573847

>  <orig_smiles>  (894) 
CCCc1nc2ccccc2n1C(C)C(=O)NC1(C(C)O)CC1

>  <fragmenstein_mode>  (894) 
expansion

>  <inchikey>  (894) 
UUHCJJJCCJICKZ-UHFFFAOYSA-N

>  <ref_pdb>  (894) 
Z0101a

>  <GNINA pK>  (894) 
nan

>  <gnina_score_min>  (894) 
5.16

>  <tags>  (894) 
xx01zvns2b_c1_elab_bulkdock_input,openbind_xx01zvns2b_c1_elab_nonasap_filtered_scored_top80percent,openbind_xx01zvns2b_c1_elab_chemspace_filtered_scored_top80percent,fragmenstein_placed,openbind_xx01zvns2b_c1_elab_chemspace_filtered_scored,openbind_xx01zvns2b_c1_elab_chemspace_filtered_scored_top40percent,openbind_xx01zvns2b_c1_elab_chemspace_filtered_scored_top20percent,openbind_xx01zvns2b_c1_elab_chemspace_filtered_scored_top60percent,openbind_xx01zvns2b_c1_elabs_filtered

>  <smiles>  (894) 
CCCc1nc2ccccc2n1C(C)C(=O)NC1(C(C)O)CC1

>  <subsites>  (894) 
1 - Z4590/B/203/1

>  <gnina_score>  (894) 
5.068

>  <HIPPO Pose ID>  (894) 
90380

>  <ref_mols>  (894) 
Z0101a,Z3880a

>  <energy_score>  (894) 
-48.604044

>  <inspiration_score>  (894) 
None

>  <smina_score_min>  (894) 
-5.525

>  <fragmenstein_error>  (894) 


>  <name>  (894) 
UUHCJJJCCJICKZ-UHFFFAOYSA-N-P219-P8-P219-601533

$$$$
XOUHWTKPSUTJRL-UHFFFAOYSA-N-P219-P8-P219-601533
     RDKit          3D

 24 26  0  0  0  0  0  0  0  0999 V2000
   -7.6362    6.1386  -13.0138 C   0  0  0  0  0  0  0  0  0  0  0  0
   -7.1603    4.7362  -13.3720 C   0  0  2  0  0  0  0  0  0  0  0  0
   -6.4634    4.0534  -12.1798 C   0  0  0  0  0  0  0  0  0  0  0  0
   -5.3094    3.8676  -12.1174 O   0  0  0  0  0  0  0  0  0  0  0  0
   -7.5942    3.7978  -11.1173 N   0  0  0  0  0  0  0  0  0  0  0  0
   -7.5066    3.3504   -9.7304 C   0  0  2  0  0  0  0  0  0  0  0  0
   -8.3868    2.1658   -9.4085 C   0  0  0  0  0  0  0  0  0  0  0  0
   -9.0028    2.4763   -8.0641 C   0  0  0  0  0  0  0  0  0  0  0  0
   -8.8870    3.8834   -7.8653 O   0  0  0  0  0  0  0  0  0  0  0  0
   -8.1151    4.4258   -8.8466 C   0  0  0  0  0  0  0  0  0  0  0  0
   -7.9755    5.6326   -8.9970 O   0  0  0  0  0  0  0  0  0  0  0  0
   -6.5321    4.7558  -14.7136 N   0  0  0  0  0  0  0  0  0  0  0  0
   -5.2885    5.1806  -15.1629 C   0  0  0  0  0  0  0  0  0  0  0  0
   -4.1557    5.5899  -14.2702 C   0  0  0  0  0  0  0  0  0  0  0  0
   -3.3671    4.5472  -13.9098 F   0  0  0  0  0  0  0  0  0  0  0  0
   -4.5758    6.2120  -13.1384 F   0  0  0  0  0  0  0  0  0  0  0  0
   -3.3345    6.4868  -14.8893 F   0  0  0  0  0  0  0  0  0  0  0  0
   -5.2503    5.1850  -16.4962 N   0  0  0  0  0  0  0  0  0  0  0  0
   -6.4818    4.7792  -16.9233 C   0  0  0  0  0  0  0  0  0  0  0  0
   -6.9709    4.5857  -18.2200 C   0  0  0  0  0  0  0  0  0  0  0  0
   -8.3024    4.1880  -18.3769 C   0  0  0  0  0  0  0  0  0  0  0  0
   -9.1471    4.0441  -17.2876 C   0  0  0  0  0  0  0  0  0  0  0  0
   -8.6697    4.2215  -15.9963 C   0  0  0  0  0  0  0  0  0  0  0  0
   -7.3203    4.5594  -15.8422 C   0  0  0  0  0  0  0  0  0  0  0  0
  2  1  1  1
  2  3  1  0
  3  4  2  0
  3  5  1  0
  6  5  1  6
  6  7  1  0
  7  8  1  0
  8  9  1  0
  9 10  1  0
 10 11  2  0
  2 12  1  0
 12 13  1  0
 13 14  1  0
 14 15  1  0
 14 16  1  0
 14 17  1  0
 13 18  2  0
 18 19  1  0
 19 20  2  0
 20 21  1  0
 21 22  2  0
 22 23  1  0
 23 24  2  0
 10  6  1  0
 24 12  1  0
 24 19  1  0
M  END
>  <fragmenstein_outcome>  (895) 
too moved

>  <exports>  (895) 
['/opt/xchem-fragalysis-2/maxwin/openbind-hippo/xx01zvns2b/cycle_01/syndirella/elabs/openbind_xx01zvns2b_c1_elab_chemspace_filtered.sdf']

>  <Energy>  (895) 
101.449592

>  <alias>  (895) 
XOUHWTKPSUTJRL-UHFFFAOYSA-N-P219-P8-P219-601533

>  <fragmenstein_runtime>  (895) 
5.307175

>  <scratch_subdir>  (895) 
/opt/xchem-fragalysis-2/maxwin/BulkDock/SCRATCH/601533/XOUHWTKPSUTJRL-UHFFFAOYSA-N-P219-P8-P219-601533

>  <HIPPO Compound ID>  (895) 
147442

>  <rmsd(smina/fragmenstein)>  (895) 
1.198

>  <distance_score>  (895) 
1.552638

>  <orig_smiles>  (895) 
CC(C(=O)NC1CCOC1=O)n1c(C(F)(F)F)nc2ccccc21

>  <fragmenstein_mode>  (895) 
expansion

>  <inchikey>  (895) 
XOUHWTKPSUTJRL-UHFFFAOYSA-N

>  <ref_pdb>  (895) 
Z0101a

>  <GNINA pK>  (895) 
nan

>  <gnina_score_min>  (895) 
5.234

>  <tags>  (895) 
xx01zvns2b_c1_elab_bulkdock_input,openbind_xx01zvns2b_c1_elab_nonasap_filtered_scored_top80percent,openbind_xx01zvns2b_c1_elab_chemspace_filtered_scored_top80percent,fragmenstein_placed,openbind_xx01zvns2b_c1_elab_chemspace_filtered_scored,openbind_xx01zvns2b_c1_elab_chemspace_filtered_scored_top40percent,openbind_xx01zvns2b_c1_elab_chemspace_filtered_scored_top20percent,openbind_xx01zvns2b_c1_elab_chemspace_filtered_scored_top60percent,openbind_xx01zvns2b_c1_elabs_filtered

>  <smiles>  (895) 
CC(C(=O)NC1CCOC1=O)n1c(C(F)(F)F)nc2ccccc21

>  <subsites>  (895) 
1 - Z4590/B/203/1

>  <gnina_score>  (895) 
5.164

>  <HIPPO Pose ID>  (895) 
90461

>  <ref_mols>  (895) 
Z0101a,Z3880a

>  <energy_score>  (895) 
-2.517925

>  <inspiration_score>  (895) 
None

>  <smina_score_min>  (895) 
-6.86

>  <fragmenstein_error>  (895) 


>  <name>  (895) 
XOUHWTKPSUTJRL-UHFFFAOYSA-N-P219-P8-P219-601533

$$$$
PHZLCWXQSMEQIO-UHFFFAOYSA-N-P8-P8-P219-601533
     RDKit          3D

 24 26  0  0  0  0  0  0  0  0999 V2000
   -5.7262    6.6952  -12.9802 C   0  0  0  0  0  0  0  0  0  0  0  0
   -5.5161    5.2193  -12.6438 C   0  0  0  0  0  0  0  0  0  0  0  0
   -4.0287    4.8548  -12.5903 C   0  0  0  0  0  0  0  0  0  0  0  0
   -6.3992    4.2597  -13.5013 C   0  0  1  0  0  0  0  0  0  0  0  0
   -7.7565    4.3253  -12.7281 C   0  0  0  0  0  0  0  0  0  0  0  0
   -8.6371    5.0319  -13.0539 O   0  0  0  0  0  0  0  0  0  0  0  0
   -7.6137    3.3852  -11.4657 N   0  0  0  0  0  0  0  0  0  0  0  0
   -8.5031    3.2074  -10.2962 C   0  0  1  0  0  0  0  0  0  0  0  0
   -7.9710    2.3984   -9.0727 C   0  0  1  0  0  0  0  0  0  0  0  0
   -6.9832    1.4012   -9.3326 O   0  0  0  0  0  0  0  0  0  0  0  0
   -7.4319    3.7172   -8.4893 C   0  0  0  0  0  0  0  0  0  0  0  0
   -8.4884    4.4346   -9.3301 C   0  0  1  0  0  0  0  0  0  0  0  0
   -8.1216    5.7137   -9.8781 O   0  0  0  0  0  0  0  0  0  0  0  0
   -6.3760    4.5500  -14.9613 N   0  0  0  0  0  0  0  0  0  0  0  0
   -5.2204    4.8048  -15.6850 C   0  0  0  0  0  0  0  0  0  0  0  0
   -5.4209    4.9347  -16.9736 N   0  0  0  0  0  0  0  0  0  0  0  0
   -6.7411    4.6460  -17.1445 C   0  0  0  0  0  0  0  0  0  0  0  0
   -7.4552    4.5312  -18.3473 C   0  0  0  0  0  0  0  0  0  0  0  0
   -8.7975    4.1868  -18.2793 C   0  0  0  0  0  0  0  0  0  0  0  0
   -9.5241    4.0294  -19.3920 F   0  0  0  0  0  0  0  0  0  0  0  0
   -9.4157    3.9917  -17.0632 C   0  0  0  0  0  0  0  0  0  0  0  0
  -10.7172    3.6891  -17.0647 F   0  0  0  0  0  0  0  0  0  0  0  0
   -8.7263    4.0915  -15.8570 C   0  0  0  0  0  0  0  0  0  0  0  0
   -7.3704    4.4174  -15.9109 C   0  0  0  0  0  0  0  0  0  0  0  0
  1  2  1  0
  2  3  1  0
  4  2  1  1
  4  5  1  0
  5  6  2  0
  5  7  1  0
  8  7  1  6
  8  9  1  0
  9 10  1  6
  9 11  1  0
 11 12  1  0
 12 13  1  6
  4 14  1  0
 14 15  1  0
 15 16  2  0
 16 17  1  0
 17 18  2  0
 18 19  1  0
 19 20  1  0
 19 21  2  0
 21 22  1  0
 21 23  1  0
 23 24  2  0
 12  8  1  0
 24 14  1  0
 24 17  1  0
M  END
>  <fragmenstein_outcome>  (896) 
too moved

>  <exports>  (896) 
['/opt/xchem-fragalysis-2/maxwin/openbind-hippo/xx01zvns2b/cycle_01/syndirella/elabs/openbind_xx01zvns2b_c1_elab_chemspace_filtered.sdf']

>  <Energy>  (896) 
72.081659

>  <alias>  (896) 
PHZLCWXQSMEQIO-UHFFFAOYSA-N-P8-P8-P219-601533

>  <fragmenstein_runtime>  (896) 
14.063599

>  <scratch_subdir>  (896) 
/opt/xchem-fragalysis-2/maxwin/BulkDock/SCRATCH/601533/PHZLCWXQSMEQIO-UHFFFAOYSA-N-P8-P8-P219-601533

>  <HIPPO Compound ID>  (896) 
147527

>  <rmsd(smina/fragmenstein)>  (896) 
0.977

>  <distance_score>  (896) 
1.501852

>  <orig_smiles>  (896) 
CC(C)C(C(=O)NC1C(O)CC1O)n1cnc2cc(F)c(F)cc21

>  <fragmenstein_mode>  (896) 
expansion

>  <inchikey>  (896) 
PHZLCWXQSMEQIO-UHFFFAOYSA-N

>  <ref_pdb>  (896) 
Z0101a

>  <GNINA pK>  (896) 
nan

>  <gnina_score_min>  (896) 
5.387

>  <tags>  (896) 
xx01zvns2b_c1_elab_bulkdock_input,openbind_xx01zvns2b_c1_elab_nonasap_filtered_scored_top80percent,openbind_xx01zvns2b_c1_elab_chemspace_filtered_scored_top80percent,fragmenstein_placed,openbind_xx01zvns2b_c1_elab_chemspace_filtered_scored,openbind_xx01zvns2b_c1_elab_chemspace_filtered_scored_top40percent,openbind_xx01zvns2b_c1_elab_chemspace_filtered_scored_top20percent,openbind_xx01zvns2b_c1_elab_chemspace_filtered_scored_top60percent,openbind_xx01zvns2b_c1_elabs_filtered

>  <smiles>  (896) 
CC(C)C(C(=O)NC1C(O)CC1O)n1cnc2cc(F)c(F)cc21

>  <subsites>  (896) 
1 - Z4590/B/203/1

>  <gnina_score>  (896) 
5.375

>  <HIPPO Pose ID>  (896) 
90628

>  <ref_mols>  (896) 
Z0101a,Z3880a

>  <energy_score>  (896) 
-15.540982

>  <inspiration_score>  (896) 
None

>  <smina_score_min>  (896) 
-6.957

>  <fragmenstein_error>  (896) 


>  <name>  (896) 
PHZLCWXQSMEQIO-UHFFFAOYSA-N-P8-P8-P219-601533

$$$$
OZYJVXLZCPUSHG-UHFFFAOYSA-N-P8-P8-P219-601533
     RDKit          3D

 24 26  0  0  0  0  0  0  0  0999 V2000
   -5.1798    6.2198  -12.4958 C   0  0  0  0  0  0  0  0  0  0  0  0
   -5.0883    4.7506  -12.9164 C   0  0  0  0  0  0  0  0  0  0  0  0
   -4.6578    3.8785  -11.7305 C   0  0  0  0  0  0  0  0  0  0  0  0
   -6.3617    4.2821  -13.6635 C   0  0  1  0  0  0  0  0  0  0  0  0
   -7.6157    4.7022  -12.8263 C   0  0  0  0  0  0  0  0  0  0  0  0
   -8.2832    5.6201  -13.1204 O   0  0  0  0  0  0  0  0  0  0  0  0
   -7.6785    3.7613  -11.5729 N   0  0  0  0  0  0  0  0  0  0  0  0
   -8.5177    3.8252  -10.3854 C   0  0  1  0  0  0  0  0  0  0  0  0
   -8.6247    2.5654   -9.5374 C   0  0  0  0  0  0  0  0  0  0  0  0
   -8.9480    2.9693   -8.1991 O   0  0  0  0  0  0  0  0  0  0  0  0
   -8.3669    4.2557   -8.0005 C   0  0  0  0  0  0  0  0  0  0  0  0
   -8.1387    4.8871   -9.3642 C   0  0  1  0  0  0  0  0  0  0  0  0
   -6.8272    5.2171   -9.4753 F   0  0  0  0  0  0  0  0  0  0  0  0
   -6.3666    4.7388  -15.0871 N   0  0  0  0  0  0  0  0  0  0  0  0
   -5.2929    5.2196  -15.8153 C   0  0  0  0  0  0  0  0  0  0  0  0
   -5.5079    5.2293  -17.1097 N   0  0  0  0  0  0  0  0  0  0  0  0
   -6.7859    4.7743  -17.2523 C   0  0  0  0  0  0  0  0  0  0  0  0
   -7.5123    4.5584  -18.4293 C   0  0  0  0  0  0  0  0  0  0  0  0
   -8.8367    4.1596  -18.3118 C   0  0  0  0  0  0  0  0  0  0  0  0
   -9.5887    3.9577  -19.4000 F   0  0  0  0  0  0  0  0  0  0  0  0
   -9.4168    3.9760  -17.0723 C   0  0  0  0  0  0  0  0  0  0  0  0
  -10.7124    3.6553  -17.0318 F   0  0  0  0  0  0  0  0  0  0  0  0
   -8.7002    4.1205  -15.8876 C   0  0  0  0  0  0  0  0  0  0  0  0
   -7.3704    4.5219  -16.0074 C   0  0  0  0  0  0  0  0  0  0  0  0
  1  2  1  0
  2  3  1  0
  4  2  1  1
  4  5  1  0
  5  6  2  0
  5  7  1  0
  8  7  1  6
  8  9  1  0
  9 10  1  0
 10 11  1  0
 11 12  1  0
 12 13  1  1
  4 14  1  0
 14 15  1  0
 15 16  2  0
 16 17  1  0
 17 18  2  0
 18 19  1  0
 19 20  1  0
 19 21  2  0
 21 22  1  0
 21 23  1  0
 23 24  2  0
 12  8  1  0
 24 14  1  0
 24 17  1  0
M  END
>  <fragmenstein_outcome>  (897) 
too moved

>  <exports>  (897) 
['/opt/xchem-fragalysis-2/maxwin/openbind-hippo/xx01zvns2b/cycle_01/syndirella/elabs/openbind_xx01zvns2b_c1_elab_chemspace_filtered.sdf']

>  <Energy>  (897) 
90.581038

>  <alias>  (897) 
OZYJVXLZCPUSHG-UHFFFAOYSA-N-P8-P8-P219-601533

>  <fragmenstein_runtime>  (897) 
9.812962

>  <scratch_subdir>  (897) 
/opt/xchem-fragalysis-2/maxwin/BulkDock/SCRATCH/601533/OZYJVXLZCPUSHG-UHFFFAOYSA-N-P8-P8-P219-601533

>  <HIPPO Compound ID>  (897) 
147528

>  <rmsd(smina/fragmenstein)>  (897) 
0.727

>  <distance_score>  (897) 
1.434204

>  <orig_smiles>  (897) 
CC(C)C(C(=O)NC1COCC1F)n1cnc2cc(F)c(F)cc21

>  <fragmenstein_mode>  (897) 
expansion

>  <inchikey>  (897) 
OZYJVXLZCPUSHG-UHFFFAOYSA-N

>  <ref_pdb>  (897) 
Z0101a

>  <GNINA pK>  (897) 
nan

>  <gnina_score_min>  (897) 
5.61

>  <tags>  (897) 
xx01zvns2b_c1_elab_bulkdock_input,openbind_xx01zvns2b_c1_elab_nonasap_filtered_scored_top80percent,openbind_xx01zvns2b_c1_elab_chemspace_filtered_scored_top80percent,fragmenstein_placed,openbind_xx01zvns2b_c1_elab_chemspace_filtered_scored,openbind_xx01zvns2b_c1_elab_chemspace_filtered_scored_top40percent,openbind_xx01zvns2b_c1_elab_chemspace_filtered_scored_top20percent,openbind_xx01zvns2b_c1_elab_chemspace_filtered_scored_top60percent,openbind_xx01zvns2b_c1_elabs_filtered

>  <smiles>  (897) 
CC(C)C(C(=O)NC1COCC1F)n1cnc2cc(F)c(F)cc21

>  <subsites>  (897) 
1 - Z4590/B/203/1

>  <gnina_score>  (897) 
5.542

>  <HIPPO Pose ID>  (897) 
90630

>  <ref_mols>  (897) 
Z0101a,Z3880a

>  <energy_score>  (897) 
-2.323121

>  <inspiration_score>  (897) 
None

>  <smina_score_min>  (897) 
-6.428

>  <fragmenstein_error>  (897) 


>  <name>  (897) 
OZYJVXLZCPUSHG-UHFFFAOYSA-N-P8-P8-P219-601533

$$$$
COWDGMKWJZKWFQ-UHFFFAOYSA-N-P8-P8-P219-601533
     RDKit          3D

 24 27  0  0  0  0  0  0  0  0999 V2000
   -5.1157    6.4304  -11.8771 C   0  0  0  0  0  0  0  0  0  0  0  0
   -5.3875    6.1996  -13.3565 C   0  0  0  0  0  0  0  0  0  0  0  0
   -6.2122    7.3753  -13.8860 C   0  0  0  0  0  0  0  0  0  0  0  0
   -5.9801    4.7988  -13.6945 C   0  0  1  0  0  0  0  0  0  0  0  0
   -7.1931    4.5940  -12.7441 C   0  0  0  0  0  0  0  0  0  0  0  0
   -8.2731    4.9924  -12.9758 O   0  0  0  0  0  0  0  0  0  0  0  0
   -6.6215    3.8778  -11.4554 N   0  0  0  0  0  0  0  0  0  0  0  0
   -7.2382    3.6087  -10.1944 C   0  0  2  0  0  0  0  0  0  0  0  0
   -6.9434    2.2942   -9.5103 C   0  0  0  0  0  0  0  0  0  0  0  0
   -7.9148    2.1444   -8.4616 O   0  0  0  0  0  0  0  0  0  0  0  0
   -9.0868    2.8479   -8.8814 C   0  0  0  0  0  0  0  0  0  0  0  0
   -8.6093    3.9385   -9.7815 C   0  0  1  0  0  0  0  0  0  0  0  0
   -7.5075    4.8349   -9.3216 C   0  0  0  0  0  0  0  0  0  0  0  0
   -6.0981    4.6714  -15.1684 N   0  0  0  0  0  0  0  0  0  0  0  0
   -4.9831    4.8209  -15.9859 C   0  0  0  0  0  0  0  0  0  0  0  0
   -5.2808    4.8472  -17.2588 N   0  0  0  0  0  0  0  0  0  0  0  0
   -6.6241    4.5994  -17.3013 C   0  0  0  0  0  0  0  0  0  0  0  0
   -7.4352    4.4440  -18.4344 C   0  0  0  0  0  0  0  0  0  0  0  0
   -8.7735    4.1385  -18.2425 C   0  0  0  0  0  0  0  0  0  0  0  0
   -9.5873    3.9416  -19.2872 F   0  0  0  0  0  0  0  0  0  0  0  0
   -9.2916    4.0078  -16.9708 C   0  0  0  0  0  0  0  0  0  0  0  0
  -10.5839    3.6973  -16.8563 F   0  0  0  0  0  0  0  0  0  0  0  0
   -8.5142    4.1706  -15.8252 C   0  0  0  0  0  0  0  0  0  0  0  0
   -7.1632    4.4708  -16.0094 C   0  0  0  0  0  0  0  0  0  0  0  0
  1  2  1  0
  2  3  1  0
  4  2  1  6
  4  5  1  0
  5  6  2  0
  5  7  1  0
  8  7  1  6
  8  9  1  0
  9 10  1  0
 10 11  1  0
 12 11  1  1
 12 13  1  0
  4 14  1  0
 14 15  1  0
 15 16  2  0
 16 17  1  0
 17 18  2  0
 18 19  1  0
 19 20  1  0
 19 21  2  0
 21 22  1  0
 21 23  1  0
 23 24  2  0
 12  8  1  0
 24 14  1  0
 13  8  1  0
 24 17  1  0
M  END
>  <fragmenstein_outcome>  (898) 
too moved

>  <exports>  (898) 
['/opt/xchem-fragalysis-2/maxwin/openbind-hippo/xx01zvns2b/cycle_01/syndirella/elabs/openbind_xx01zvns2b_c1_elab_chemspace_filtered.sdf']

>  <Energy>  (898) 
83.564089

>  <alias>  (898) 
COWDGMKWJZKWFQ-UHFFFAOYSA-N-P8-P8-P219-601533

>  <fragmenstein_runtime>  (898) 
7.339522

>  <scratch_subdir>  (898) 
/opt/xchem-fragalysis-2/maxwin/BulkDock/SCRATCH/601533/COWDGMKWJZKWFQ-UHFFFAOYSA-N-P8-P8-P219-601533

>  <HIPPO Compound ID>  (898) 
147529

>  <rmsd(smina/fragmenstein)>  (898) 
0.846

>  <distance_score>  (898) 
1.636867

>  <orig_smiles>  (898) 
CC(C)C(C(=O)NC12COCC1C2)n1cnc2cc(F)c(F)cc21

>  <fragmenstein_mode>  (898) 
expansion

>  <inchikey>  (898) 
COWDGMKWJZKWFQ-UHFFFAOYSA-N

>  <ref_pdb>  (898) 
Z0101a

>  <GNINA pK>  (898) 
nan

>  <gnina_score_min>  (898) 
5.544

>  <tags>  (898) 
xx01zvns2b_c1_elab_bulkdock_input,openbind_xx01zvns2b_c1_elab_nonasap_filtered_scored_top80percent,openbind_xx01zvns2b_c1_elab_chemspace_filtered_scored_top80percent,fragmenstein_placed,openbind_xx01zvns2b_c1_elab_chemspace_filtered_scored,openbind_xx01zvns2b_c1_elab_chemspace_filtered_scored_top40percent,openbind_xx01zvns2b_c1_elab_chemspace_filtered_scored_top20percent,openbind_xx01zvns2b_c1_elab_chemspace_filtered_scored_top60percent,openbind_xx01zvns2b_c1_elabs_filtered

>  <smiles>  (898) 
CC(C)C(C(=O)NC12COCC1C2)n1cnc2cc(F)c(F)cc21

>  <subsites>  (898) 
1 - Z4590/B/203/1

>  <gnina_score>  (898) 
5.459

>  <HIPPO Pose ID>  (898) 
90632

>  <ref_mols>  (898) 
Z0101a,Z3880a

>  <energy_score>  (898) 
-11.081741

>  <inspiration_score>  (898) 
None

>  <smina_score_min>  (898) 
-5.951

>  <fragmenstein_error>  (898) 


>  <name>  (898) 
COWDGMKWJZKWFQ-UHFFFAOYSA-N-P8-P8-P219-601533

$$$$
DUUMRQASHAGBPR-UHFFFAOYSA-N-P219-P8-P219-601533
     RDKit          3D

 24 26  0  0  0  0  0  0  0  0999 V2000
   -5.2385    6.5025  -12.0613 C   0  0  0  0  0  0  0  0  0  0  0  0
   -6.5177    6.6125  -12.8783 C   0  0  0  0  0  0  0  0  0  0  0  0
   -7.5624    7.4020  -12.0772 C   0  0  0  0  0  0  0  0  0  0  0  0
   -7.0310    5.2466  -13.3604 C   0  0  2  0  0  0  0  0  0  0  0  0
   -6.9584    4.1270  -12.2771 C   0  0  0  0  0  0  0  0  0  0  0  0
   -6.0782    3.3607  -12.1814 O   0  0  0  0  0  0  0  0  0  0  0  0
   -8.2307    4.3332  -11.3761 N   0  0  0  0  0  0  0  0  0  0  0  0
   -8.6183    3.6913  -10.1167 C   0  0  1  0  0  0  0  0  0  0  0  0
   -8.3551    2.2497   -9.7176 C   0  0  0  0  0  0  0  0  0  0  0  0
   -8.2997    2.6930   -8.3109 O   0  0  0  0  0  0  0  0  0  0  0  0
   -7.8988    4.0235   -8.7919 C   0  0  0  0  0  0  0  0  0  0  0  0
   -6.3965    4.1616   -8.7353 C   0  0  0  0  0  0  0  0  0  0  0  0
   -8.5510    5.1183   -7.9735 C   0  0  0  0  0  0  0  0  0  0  0  0
   -6.5100    4.9074  -14.7032 N   0  0  0  0  0  0  0  0  0  0  0  0
   -5.2672    5.1521  -15.2384 C   0  0  0  0  0  0  0  0  0  0  0  0
   -5.2645    5.1063  -16.5547 N   0  0  0  0  0  0  0  0  0  0  0  0
   -6.5367    4.7429  -16.9024 C   0  0  0  0  0  0  0  0  0  0  0  0
   -7.0827    4.4923  -18.1650 C   0  0  0  0  0  0  0  0  0  0  0  0
   -8.4254    4.1379  -18.2118 C   0  0  0  0  0  0  0  0  0  0  0  0
   -8.9909    3.8048  -19.3664 F   0  0  0  0  0  0  0  0  0  0  0  0
   -9.2163    4.0886  -17.0856 C   0  0  0  0  0  0  0  0  0  0  0  0
  -10.5191    3.8410  -17.2332 F   0  0  0  0  0  0  0  0  0  0  0  0
   -8.6955    4.3082  -15.8253 C   0  0  0  0  0  0  0  0  0  0  0  0
   -7.3397    4.6245  -15.7679 C   0  0  0  0  0  0  0  0  0  0  0  0
  1  2  1  0
  2  3  1  0
  4  2  1  1
  4  5  1  0
  5  6  2  0
  5  7  1  0
  8  7  1  6
  8  9  1  0
  9 10  1  0
 10 11  1  0
 11 12  1  0
 11 13  1  0
  4 14  1  0
 14 15  1  0
 15 16  2  0
 16 17  1  0
 17 18  2  0
 18 19  1  0
 19 20  1  0
 19 21  2  0
 21 22  1  0
 21 23  1  0
 23 24  2  0
 11  8  1  0
 24 14  1  0
 24 17  1  0
M  END
>  <fragmenstein_outcome>  (899) 
too moved

>  <exports>  (899) 
['/opt/xchem-fragalysis-2/maxwin/openbind-hippo/xx01zvns2b/cycle_01/syndirella/elabs/openbind_xx01zvns2b_c1_elab_chemspace_filtered.sdf']

>  <Energy>  (899) 
79.618993

>  <alias>  (899) 
DUUMRQASHAGBPR-UHFFFAOYSA-N-P219-P8-P219-601533

>  <fragmenstein_runtime>  (899) 
13.503684

>  <scratch_subdir>  (899) 
/opt/xchem-fragalysis-2/maxwin/BulkDock/SCRATCH/601533/DUUMRQASHAGBPR-UHFFFAOYSA-N-P219-P8-P219-601533

>  <HIPPO Compound ID>  (899) 
147540

>  <rmsd(smina/fragmenstein)>  (899) 
0.548

>  <distance_score>  (899) 
1.665086

>  <orig_smiles>  (899) 
CC(C)C(C(=O)NC1COC1(C)C)n1cnc2cc(F)c(F)cc21

>  <fragmenstein_mode>  (899) 
expansion

>  <inchikey>  (899) 
DUUMRQASHAGBPR-UHFFFAOYSA-N

>  <ref_pdb>  (899) 
Z0101a

>  <GNINA pK>  (899) 
nan

>  <gnina_score_min>  (899) 
5.513

>  <tags>  (899) 
xx01zvns2b_c1_elab_bulkdock_input,openbind_xx01zvns2b_c1_elab_nonasap_filtered_scored_top80percent,openbind_xx01zvns2b_c1_elab_chemspace_filtered_scored_top80percent,fragmenstein_placed,openbind_xx01zvns2b_c1_elab_chemspace_filtered_scored,openbind_xx01zvns2b_c1_elab_chemspace_filtered_scored_top40percent,openbind_xx01zvns2b_c1_elab_chemspace_filtered_scored_top20percent,openbind_xx01zvns2b_c1_elab_chemspace_filtered_scored_top60percent,openbind_xx01zvns2b_c1_elabs_filtered

>  <smiles>  (899) 
CC(C)C(C(=O)NC1COC1(C)C)n1cnc2cc(F)c(F)cc21

>  <subsites>  (899) 
1 - Z4590/B/203/1

>  <gnina_score>  (899) 
5.637

>  <HIPPO Pose ID>  (899) 
90655

>  <ref_mols>  (899) 
Z0101a,Z3880a

>  <energy_score>  (899) 
-29.7739

>  <inspiration_score>  (899) 
None

>  <smina_score_min>  (899) 
-6.25

>  <fragmenstein_error>  (899) 


>  <name>  (899) 
DUUMRQASHAGBPR-UHFFFAOYSA-N-P219-P8-P219-601533

$$$$
AIBJTPGVWJPXJY-UHFFFAOYSA-N-P8-P8-P219-601533
     RDKit          3D

 24 26  0  0  0  0  0  0  0  0999 V2000
   -2.3149    7.0498  -23.4306 C   0  0  0  0  0  0  0  0  0  0  0  0
   -3.1317    7.5501  -22.3829 O   0  0  0  0  0  0  0  0  0  0  0  0
   -2.9407    8.9587  -22.0789 C   0  0  1  0  0  0  0  0  0  0  0  0
   -3.9159    9.9257  -22.7953 C   0  0  0  0  0  0  0  0  0  0  0  0
   -4.8160    9.8279  -21.5477 C   0  0  0  0  0  0  0  0  0  0  0  0
   -3.5478    9.4856  -20.7406 C   0  0  1  0  0  0  0  0  0  0  0  0
   -3.6971    8.4829  -19.6951 N   0  0  0  0  0  0  0  0  0  0  0  0
   -4.8482    8.2557  -18.6662 C   0  0  0  0  0  0  0  0  0  0  0  0
   -5.8853    8.7932  -18.5553 O   0  0  0  0  0  0  0  0  0  0  0  0
   -4.4514    7.0959  -17.6893 C   0  0  2  0  0  0  0  0  0  0  0  0
   -2.9774    6.8157  -17.4092 C   0  0  0  0  0  0  0  0  0  0  0  0
   -5.2365    5.8913  -17.9548 N   0  0  0  0  0  0  0  0  0  0  0  0
   -5.2777    5.1486  -19.1175 C   0  0  0  0  0  0  0  0  0  0  0  0
   -4.1437    5.0583  -20.0866 C   0  0  0  0  0  0  0  0  0  0  0  0
   -4.4989    4.5732  -21.4955 C   0  0  0  0  0  0  0  0  0  0  0  0
   -5.1936    5.6360  -22.3326 C   0  0  0  0  0  0  0  0  0  0  0  0
   -3.2128    4.1068  -22.1783 C   0  0  0  0  0  0  0  0  0  0  0  0
   -6.3944    4.4516  -19.1596 N   0  0  0  0  0  0  0  0  0  0  0  0
   -6.9931    4.6119  -17.9370 C   0  0  0  0  0  0  0  0  0  0  0  0
   -8.2023    4.1033  -17.4452 C   0  0  0  0  0  0  0  0  0  0  0  0
   -8.5091    4.2818  -16.0906 C   0  0  0  0  0  0  0  0  0  0  0  0
   -7.6406    4.9712  -15.2457 C   0  0  0  0  0  0  0  0  0  0  0  0
   -6.4687    5.5544  -15.7383 C   0  0  0  0  0  0  0  0  0  0  0  0
   -6.1925    5.3798  -17.1012 C   0  0  0  0  0  0  0  0  0  0  0  0
  1  2  1  0
  3  2  1  6
  3  4  1  0
  4  5  1  0
  5  6  1  0
  6  7  1  1
  7  8  1  0
  8  9  2  0
  8 10  1  0
 10 11  1  6
 10 12  1  0
 12 13  1  0
 13 14  1  0
 14 15  1  0
 15 16  1  0
 15 17  1  0
 13 18  2  0
 18 19  1  0
 19 20  2  0
 20 21  1  0
 21 22  2  0
 22 23  1  0
 23 24  2  0
  6  3  1  0
 24 12  1  0
 24 19  1  0
M  END
>  <fragmenstein_outcome>  (900) 
too moved

>  <exports>  (900) 
['/opt/xchem-fragalysis-2/maxwin/openbind-hippo/xx01zvns2b/cycle_01/syndirella/elabs/openbind_xx01zvns2b_c1_elab_chemspace_filtered.sdf']

>  <Energy>  (900) 
78.117405

>  <alias>  (900) 
AIBJTPGVWJPXJY-UHFFFAOYSA-N-P8-P8-P219-601533

>  <fragmenstein_runtime>  (900) 
2.539234

>  <scratch_subdir>  (900) 
/opt/xchem-fragalysis-2/maxwin/BulkDock/SCRATCH/601533/AIBJTPGVWJPXJY-UHFFFAOYSA-N-P8-P8-P219-601533

>  <HIPPO Compound ID>  (900) 
147575

>  <rmsd(smina/fragmenstein)>  (900) 
1.115

>  <distance_score>  (900) 
1.581877

>  <orig_smiles>  (900) 
COC1CCC1NC(=O)C(C)n1c(CC(C)C)nc2ccccc21

>  <fragmenstein_mode>  (900) 
expansion

>  <inchikey>  (900) 
AIBJTPGVWJPXJY-UHFFFAOYSA-N

>  <ref_pdb>  (900) 
Z0101a

>  <GNINA pK>  (900) 
nan

>  <gnina_score_min>  (900) 
5.195

>  <tags>  (900) 
xx01zvns2b_c1_elab_bulkdock_input,openbind_xx01zvns2b_c1_elab_nonasap_filtered_scored_top80percent,openbind_xx01zvns2b_c1_elab_chemspace_filtered_scored_top80percent,fragmenstein_placed,openbind_xx01zvns2b_c1_elab_chemspace_filtered_scored,openbind_xx01zvns2b_c1_elab_chemspace_filtered_scored_top40percent,openbind_xx01zvns2b_c1_elab_chemspace_filtered_scored_top20percent,openbind_xx01zvns2b_c1_elab_chemspace_filtered_scored_top60percent,openbind_xx01zvns2b_c1_elabs_filtered

>  <smiles>  (900) 
COC1CCC1NC(=O)C(C)n1c(CC(C)C)nc2ccccc21

>  <subsites>  (900) 
1 - Z4590/B/203/1

>  <gnina_score>  (900) 
5.17

>  <HIPPO Pose ID>  (900) 
90724

>  <ref_mols>  (900) 
Z0101a,Z3880a

>  <energy_score>  (900) 
-6.531643

>  <inspiration_score>  (900) 
None

>  <smina_score_min>  (900) 
-5.03

>  <fragmenstein_error>  (900) 


>  <name>  (900) 
AIBJTPGVWJPXJY-UHFFFAOYSA-N-P8-P8-P219-601533

$$$$
WUJILQNCTLGCPM-UHFFFAOYSA-N-P23-P23-P95-601533
     RDKit          3D

 16 17  0  0  0  0  0  0  0  0999 V2000
   -2.5214    7.1773  -18.7944 C   0  0  0  0  0  0  0  0  0  0  0  0
   -2.7787    6.1685  -17.6805 C   0  0  2  0  0  0  0  0  0  0  0  0
   -2.7275    4.4253  -18.5585 Br  0  0  0  0  0  0  0  0  0  0  0  0
   -4.1089    6.3986  -16.9614 C   0  0  2  0  0  0  0  0  0  0  0  0
   -3.9960    8.1073  -15.9490 Br  0  0  0  0  0  0  0  0  0  0  0  0
   -4.3706    5.3941  -15.9453 N   0  0  0  0  0  0  0  0  0  0  0  0
   -5.7245    5.0670  -15.8038 C   0  0  0  0  0  0  0  0  0  0  0  0
   -6.1807    4.9829  -14.5385 N   0  0  0  0  0  0  0  0  0  0  0  0
   -7.4851    4.7095  -14.3605 C   0  0  0  0  0  0  0  0  0  0  0  0
   -7.9959    4.6648  -12.7306 Cl  0  0  0  0  0  0  0  0  0  0  0  0
   -8.4466    4.5568  -15.2749 N   0  0  0  0  0  0  0  0  0  0  0  0
   -7.9401    4.5937  -16.5165 C   0  0  0  0  0  0  0  0  0  0  0  0
   -8.8916    4.3520  -17.9088 S   0  0  0  0  0  0  0  0  0  0  0  0
   -7.4825    4.5377  -18.8699 C   0  0  0  0  0  0  0  0  0  0  0  0
   -6.3728    4.8515  -18.2358 N   0  0  0  0  0  0  0  0  0  0  0  0
   -6.6221    4.8367  -16.8697 C   0  0  0  0  0  0  0  0  0  0  0  0
  2  1  1  6
  2  3  1  0
  2  4  1  0
  4  5  1  1
  4  6  1  0
  6  7  1  0
  7  8  2  0
  8  9  1  0
  9 10  1  0
  9 11  2  0
 11 12  1  0
 12 13  1  0
 13 14  1  0
 14 15  2  0
 15 16  1  0
 16  7  1  0
 16 12  2  0
M  END
>  <fragmenstein_outcome>  (901) 
acceptable

>  <exports>  (901) 
['/opt/xchem-fragalysis-2/maxwin/BulkDock/OUTPUTS/xx01zvns2b_c1_elab_bulkdock_input_1GFT1FD.sdf', '/opt/xchem-fragalysis-2/maxwin/openbind-hippo/xx01zvns2b/cycle_01/syndirella/elabs/openbind_xx01zvns2b_c1_elab_chemspace_filtered.sdf']

>  <Energy>  (901) 
-3.253837

>  <alias>  (901) 
WUJILQNCTLGCPM-UHFFFAOYSA-N-P23-P23-P95-601533

>  <fragmenstein_runtime>  (901) 
1.155144

>  <scratch_subdir>  (901) 
/opt/xchem-fragalysis-2/maxwin/BulkDock/SCRATCH/601533/WUJILQNCTLGCPM-UHFFFAOYSA-N-P23-P23-P95-601533

>  <HIPPO Compound ID>  (901) 
138634

>  <rmsd(smina/fragmenstein)>  (901) 
1.222

>  <distance_score>  (901) 
0.840777

>  <orig_smiles>  (901) 
CC(Br)C(Br)Nc1nc(Cl)nc2scnc12

>  <fragmenstein_mode>  (901) 
expansion

>  <inchikey>  (901) 
WUJILQNCTLGCPM-UHFFFAOYSA-N

>  <ref_pdb>  (901) 
Z0101a

>  <GNINA pK>  (901) 
nan

>  <gnina_score_min>  (901) 
5.173

>  <tags>  (901) 
xx01zvns2b_c1_elab_bulkdock_input,openbind_xx01zvns2b_c1_elab_nonasap_filtered_scored_top80percent,BulkDock Fragalysis export,openbind_xx01zvns2b_c1_elab_chemspace_filtered_scored_top80percent,fragmenstein_placed,openbind_xx01zvns2b_c1_elab_chemspace_filtered_scored,openbind_xx01zvns2b_c1_elab_chemspace_filtered_scored_top40percent,openbind_xx01zvns2b_c1_elab_chemspace_filtered_scored_top20percent,openbind_xx01zvns2b_c1_elab_chemspace_filtered_scored_top60percent,openbind_xx01zvns2b_c1_elabs_filtered

>  <smiles>  (901) 
CC(Br)C(Br)Nc1nc(Cl)nc2scnc12

>  <subsites>  (901) 
1 - Z4590/B/203/1

>  <gnina_score>  (901) 
4.897

>  <HIPPO Pose ID>  (901) 
91066

>  <ref_mols>  (901) 
Z1719a,Z0472a

>  <energy_score>  (901) 
-60.327781

>  <inspiration_score>  (901) 
None

>  <smina_score_min>  (901) 
-4.763

>  <fragmenstein_error>  (901) 


>  <name>  (901) 
WUJILQNCTLGCPM-UHFFFAOYSA-N-P23-P23-P95-601533

$$$$
WSHRCOAQGKZFLK-UHFFFAOYSA-N-P23-P23-P95-601533
     RDKit          3D

 22 24  0  0  0  0  0  0  0  0999 V2000
   -4.9371    7.2068  -18.5073 C   0  0  0  0  0  0  0  0  0  0  0  0
   -4.5454    6.6633  -17.2190 N   0  0  0  0  0  0  0  0  0  0  0  0
   -4.9757    7.5183  -16.1211 C   0  0  0  0  0  0  0  0  0  0  0  0
   -3.2357    5.9933  -17.0688 C   0  0  0  0  0  0  0  0  0  0  0  0
   -2.2608    6.7870  -16.1584 C   0  0  0  0  0  0  0  0  0  0  0  0
   -2.4973    5.8224  -18.4260 C   0  0  0  0  0  0  0  0  0  0  0  0
   -3.3901    4.5418  -16.4747 C   0  0  0  0  0  0  0  0  0  0  0  0
   -4.3704    4.3585  -15.3788 N   0  0  0  0  0  0  0  0  0  0  0  0
   -5.7801    4.5352  -15.4836 C   0  0  0  0  0  0  0  0  0  0  0  0
   -6.3846    4.8351  -14.2839 N   0  0  0  0  0  0  0  0  0  0  0  0
   -7.7059    5.0104  -14.0413 C   0  0  0  0  0  0  0  0  0  0  0  0
   -8.1403    5.3363  -12.4621 S   0  0  0  0  0  0  0  0  0  0  0  0
   -8.5757    4.9358  -15.0795 N   0  0  0  0  0  0  0  0  0  0  0  0
   -8.0712    4.6982  -16.2474 C   0  0  0  0  0  0  0  0  0  0  0  0
   -9.0282    4.6009  -17.3838 C   0  0  0  0  0  0  0  0  0  0  0  0
   -8.5940    4.4861  -18.6407 C   0  0  0  0  0  0  0  0  0  0  0  0
   -7.1960    4.4126  -18.9478 C   0  0  0  0  0  0  0  0  0  0  0  0
   -6.2754    4.3804  -17.9774 C   0  0  0  0  0  0  0  0  0  0  0  0
   -6.6048    4.5219  -16.5695 C   0  0  0  0  0  0  0  0  0  0  0  0
   -3.9512    3.4756  -14.2189 C   0  0  0  0  0  0  0  0  0  0  0  0
   -3.1192    2.2401  -14.3711 C   0  0  0  0  0  0  0  0  0  0  0  0
   -2.5586    3.4403  -13.6567 C   0  0  0  0  0  0  0  0  0  0  0  0
  1  2  1  0
  2  3  1  0
  2  4  1  0
  4  5  1  0
  4  6  1  0
  4  7  1  0
  7  8  1  0
  8  9  1  0
  9 10  1  0
 10 11  1  0
 11 12  2  0
 11 13  1  0
 13 14  2  0
 14 15  1  0
 15 16  2  0
 16 17  1  0
 17 18  2  0
 18 19  1  0
  8 20  1  0
 20 21  1  0
 21 22  1  0
 19  9  2  0
 22 20  1  0
 19 14  1  0
M  END
>  <fragmenstein_outcome>  (902) 
too moved

>  <exports>  (902) 
['/opt/xchem-fragalysis-2/maxwin/openbind-hippo/xx01zvns2b/cycle_01/syndirella/elabs/openbind_xx01zvns2b_c1_elab_chemspace_filtered.sdf']

>  <Energy>  (902) 
38.905392

>  <alias>  (902) 
WSHRCOAQGKZFLK-UHFFFAOYSA-N-P23-P23-P95-601533

>  <fragmenstein_runtime>  (902) 
7.539163

>  <scratch_subdir>  (902) 
/opt/xchem-fragalysis-2/maxwin/BulkDock/SCRATCH/601533/WSHRCOAQGKZFLK-UHFFFAOYSA-N-P23-P23-P95-601533

>  <HIPPO Compound ID>  (902) 
138957

>  <rmsd(smina/fragmenstein)>  (902) 
1.524

>  <distance_score>  (902) 
1.139086

>  <orig_smiles>  (902) 
CN(C)C(C)(C)CN(c1[nH]c(=S)nc2ccccc12)C1CC1

>  <fragmenstein_mode>  (902) 
expansion

>  <inchikey>  (902) 
WSHRCOAQGKZFLK-UHFFFAOYSA-N

>  <ref_pdb>  (902) 
Z0101a

>  <GNINA pK>  (902) 
nan

>  <gnina_score_min>  (902) 
5.219

>  <tags>  (902) 
xx01zvns2b_c1_elab_bulkdock_input,openbind_xx01zvns2b_c1_elab_nonasap_filtered_scored_top80percent,openbind_xx01zvns2b_c1_elab_chemspace_filtered_scored_top80percent,fragmenstein_placed,openbind_xx01zvns2b_c1_elab_chemspace_filtered_scored,openbind_xx01zvns2b_c1_elab_chemspace_filtered_scored_top40percent,openbind_xx01zvns2b_c1_elab_chemspace_filtered_scored_top20percent,openbind_xx01zvns2b_c1_elab_chemspace_filtered_scored_top60percent,openbind_xx01zvns2b_c1_elabs_filtered

>  <smiles>  (902) 
CN(C)C(C)(C)CN(c1[nH]c(=S)nc2ccccc12)C1CC1

>  <subsites>  (902) 
1 - Z4590/B/203/1

>  <gnina_score>  (902) 
5.136

>  <HIPPO Pose ID>  (902) 
91584

>  <ref_mols>  (902) 
Z1719a,Z0472a

>  <energy_score>  (902) 
-34.788285

>  <inspiration_score>  (902) 
None

>  <smina_score_min>  (902) 
-5.865

>  <fragmenstein_error>  (902) 


>  <name>  (902) 
WSHRCOAQGKZFLK-UHFFFAOYSA-N-P23-P23-P95-601533

$$$$
SHYKBVKWGYZFCF-UHFFFAOYSA-N-P23-P23-P95-601533
     RDKit          3D

 23 26  0  0  0  0  0  0  0  0999 V2000
   -2.8962    4.2620  -13.6543 C   0  0  0  0  0  0  0  0  0  0  0  0
   -2.3247    5.5183  -14.2276 C   0  0  0  0  0  0  0  0  0  0  0  0
   -3.2637    6.5592  -14.7974 C   0  0  0  0  0  0  0  0  0  0  0  0
   -4.0534    6.0829  -15.9613 N   0  0  0  0  0  0  0  0  0  0  0  0
   -3.2287    5.8980  -17.0996 C   0  0  0  0  0  0  0  0  0  0  0  0
   -2.6893    7.0079  -17.7713 C   0  0  0  0  0  0  0  0  0  0  0  0
   -1.8706    6.8523  -18.8928 C   0  0  0  0  0  0  0  0  0  0  0  0
   -1.5792    5.5778  -19.3652 C   0  0  0  0  0  0  0  0  0  0  0  0
   -2.1108    4.4671  -18.7168 C   0  0  0  0  0  0  0  0  0  0  0  0
   -2.9202    4.6253  -17.5864 C   0  0  0  0  0  0  0  0  0  0  0  0
   -5.3272    5.5188  -15.7536 C   0  0  0  0  0  0  0  0  0  0  0  0
   -5.7141    5.3618  -14.5100 N   0  0  0  0  0  0  0  0  0  0  0  0
   -6.9294    4.8311  -14.1709 C   0  0  0  0  0  0  0  0  0  0  0  0
   -7.4180    4.6094  -12.5828 S   0  0  0  0  0  0  0  0  0  0  0  0
   -7.8082    4.4847  -15.1495 N   0  0  0  0  0  0  0  0  0  0  0  0
   -7.5148    4.6485  -16.4954 C   0  0  0  0  0  0  0  0  0  0  0  0
   -8.4797    4.2968  -17.4385 C   0  0  0  0  0  0  0  0  0  0  0  0
   -8.1738    4.3988  -18.7866 C   0  0  0  0  0  0  0  0  0  0  0  0
   -6.9305    4.8867  -19.1765 C   0  0  0  0  0  0  0  0  0  0  0  0
   -6.0082    5.3185  -18.2300 C   0  0  0  0  0  0  0  0  0  0  0  0
   -6.2695    5.1590  -16.8719 C   0  0  0  0  0  0  0  0  0  0  0  0
   -0.9367    5.4847  -14.7112 N   0  0  0  0  0  0  0  0  0  0  0  0
   -1.0877    6.0215  -13.6023 N   0  0  0  0  0  0  0  0  0  0  0  0
  1  2  1  0
  2  3  1  0
  3  4  1  0
  4  5  1  0
  5  6  2  0
  6  7  1  0
  7  8  2  0
  8  9  1  0
  9 10  2  0
  4 11  1  0
 11 12  2  0
 12 13  1  0
 13 14  2  0
 13 15  1  0
 15 16  1  0
 16 17  2  0
 17 18  1  0
 18 19  2  0
 19 20  1  0
 20 21  2  0
  2 22  1  0
 22 23  2  0
 23  2  1  0
 10  5  1  0
 21 11  1  0
 21 16  1  0
M  END
>  <fragmenstein_outcome>  (903) 
acceptable

>  <exports>  (903) 
['/opt/xchem-fragalysis-2/maxwin/BulkDock/OUTPUTS/xx01zvns2b_c1_elab_bulkdock_input_1GFT1FD.sdf', '/opt/xchem-fragalysis-2/maxwin/openbind-hippo/xx01zvns2b/cycle_01/syndirella/elabs/openbind_xx01zvns2b_c1_elab_chemspace_filtered.sdf']

>  <Energy>  (903) 
18.095691

>  <alias>  (903) 
SHYKBVKWGYZFCF-UHFFFAOYSA-N-P23-P23-P95-601533

>  <fragmenstein_runtime>  (903) 
5.355572

>  <scratch_subdir>  (903) 
/opt/xchem-fragalysis-2/maxwin/BulkDock/SCRATCH/601533/SHYKBVKWGYZFCF-UHFFFAOYSA-N-P23-P23-P95-601533

>  <HIPPO Compound ID>  (903) 
138968

>  <rmsd(smina/fragmenstein)>  (903) 
1.168

>  <distance_score>  (903) 
0.741642

>  <orig_smiles>  (903) 
CC1(CN(c2ccccc2)c2nc(=S)[nH]c3ccccc23)N=N1

>  <fragmenstein_mode>  (903) 
expansion

>  <inchikey>  (903) 
SHYKBVKWGYZFCF-UHFFFAOYSA-N

>  <ref_pdb>  (903) 
Z0101a

>  <GNINA pK>  (903) 
nan

>  <gnina_score_min>  (903) 
5.453

>  <tags>  (903) 
xx01zvns2b_c1_elab_bulkdock_input,openbind_xx01zvns2b_c1_elab_nonasap_filtered_scored_top80percent,BulkDock Fragalysis export,openbind_xx01zvns2b_c1_elab_chemspace_filtered_scored_top80percent,fragmenstein_placed,openbind_xx01zvns2b_c1_elab_chemspace_filtered_scored,openbind_xx01zvns2b_c1_elab_chemspace_filtered_scored_top40percent,openbind_xx01zvns2b_c1_elab_chemspace_filtered_scored_top20percent,openbind_xx01zvns2b_c1_elab_chemspace_filtered_scored_top60percent,openbind_xx01zvns2b_c1_elabs_filtered

>  <smiles>  (903) 
CC1(CN(c2ccccc2)c2nc(=S)[nH]c3ccccc23)N=N1

>  <subsites>  (903) 
1 - Z4590/B/203/1

>  <gnina_score>  (903) 
5.316

>  <HIPPO Pose ID>  (903) 
91606

>  <ref_mols>  (903) 
Z1719a,Z0472a

>  <energy_score>  (903) 
-32.760181

>  <inspiration_score>  (903) 
None

>  <smina_score_min>  (903) 
-6.301

>  <fragmenstein_error>  (903) 


>  <name>  (903) 
SHYKBVKWGYZFCF-UHFFFAOYSA-N-P23-P23-P95-601533

$$$$
BRUHSFZSKRXSQU-UHFFFAOYSA-N-P23-P23-P95-601533
     RDKit          3D

 24 27  0  0  0  0  0  0  0  0999 V2000
   -1.6056    7.0477  -14.3607 C   0  0  0  0  0  0  0  0  0  0  0  0
   -3.0566    7.2514  -14.0685 C   0  0  0  0  0  0  0  0  0  0  0  0
   -3.9619    7.7016  -15.1900 C   0  0  0  0  0  0  0  0  0  0  0  0
   -4.3933    6.5968  -16.0746 N   0  0  0  0  0  0  0  0  0  0  0  0
   -3.4696    6.2810  -17.1064 C   0  0  0  0  0  0  0  0  0  0  0  0
   -3.1107    7.2514  -18.0633 C   0  0  0  0  0  0  0  0  0  0  0  0
   -2.3004    6.9351  -19.1567 C   0  0  0  0  0  0  0  0  0  0  0  0
   -1.8529    5.6317  -19.3296 C   0  0  0  0  0  0  0  0  0  0  0  0
   -2.1926    4.6574  -18.3930 C   0  0  0  0  0  0  0  0  0  0  0  0
   -2.9534    4.9854  -17.2661 C   0  0  0  0  0  0  0  0  0  0  0  0
   -3.1920    3.8054  -16.0268 Cl  0  0  0  0  0  0  0  0  0  0  0  0
   -5.6218    5.9119  -15.8849 C   0  0  0  0  0  0  0  0  0  0  0  0
   -6.0816    5.7771  -14.5901 N   0  0  0  0  0  0  0  0  0  0  0  0
   -7.2414    5.1631  -14.2007 C   0  0  0  0  0  0  0  0  0  0  0  0
   -7.5350    4.9925  -12.5618 S   0  0  0  0  0  0  0  0  0  0  0  0
   -8.1128    4.7550  -15.1585 N   0  0  0  0  0  0  0  0  0  0  0  0
   -7.7221    4.8238  -16.3876 C   0  0  0  0  0  0  0  0  0  0  0  0
   -8.6707    4.3555  -17.4325 C   0  0  0  0  0  0  0  0  0  0  0  0
   -8.3109    4.3430  -18.7185 C   0  0  0  0  0  0  0  0  0  0  0  0
   -7.0151    4.7906  -19.1455 C   0  0  0  0  0  0  0  0  0  0  0  0
   -6.1436    5.3307  -18.2898 C   0  0  0  0  0  0  0  0  0  0  0  0
   -6.4039    5.3788  -16.8626 C   0  0  0  0  0  0  0  0  0  0  0  0
   -3.4027    7.7154  -12.7145 N   0  0  0  0  0  0  0  0  0  0  0  0
   -3.6407    6.5186  -12.9394 N   0  0  0  0  0  0  0  0  0  0  0  0
  1  2  1  0
  2  3  1  0
  3  4  1  0
  4  5  1  0
  5  6  2  0
  6  7  1  0
  7  8  2  0
  8  9  1  0
  9 10  2  0
 10 11  1  0
  4 12  1  0
 12 13  1  0
 13 14  1  0
 14 15  2  0
 14 16  1  0
 16 17  2  0
 17 18  1  0
 18 19  2  0
 19 20  1  0
 20 21  2  0
 21 22  1  0
  2 23  1  0
 23 24  2  0
 24  2  1  0
 10  5  1  0
 22 12  2  0
 22 17  1  0
M  END
>  <fragmenstein_outcome>  (904) 
acceptable

>  <exports>  (904) 
['/opt/xchem-fragalysis-2/maxwin/BulkDock/OUTPUTS/xx01zvns2b_c1_elab_bulkdock_input_1GFT1FD.sdf', '/opt/xchem-fragalysis-2/maxwin/openbind-hippo/xx01zvns2b/cycle_01/syndirella/elabs/openbind_xx01zvns2b_c1_elab_chemspace_filtered.sdf']

>  <Energy>  (904) 
31.550904

>  <alias>  (904) 
BRUHSFZSKRXSQU-UHFFFAOYSA-N-P23-P23-P95-601533

>  <fragmenstein_runtime>  (904) 
4.882419

>  <scratch_subdir>  (904) 
/opt/xchem-fragalysis-2/maxwin/BulkDock/SCRATCH/601533/BRUHSFZSKRXSQU-UHFFFAOYSA-N-P23-P23-P95-601533

>  <HIPPO Compound ID>  (904) 
138978

>  <rmsd(smina/fragmenstein)>  (904) 
1.168

>  <distance_score>  (904) 
0.83714

>  <orig_smiles>  (904) 
CC1(CN(c2ccccc2Cl)c2[nH]c(=S)nc3ccccc23)N=N1

>  <fragmenstein_mode>  (904) 
expansion

>  <inchikey>  (904) 
BRUHSFZSKRXSQU-UHFFFAOYSA-N

>  <ref_pdb>  (904) 
Z0101a

>  <GNINA pK>  (904) 
nan

>  <gnina_score_min>  (904) 
5.617

>  <tags>  (904) 
xx01zvns2b_c1_elab_bulkdock_input,openbind_xx01zvns2b_c1_elab_nonasap_filtered_scored_top80percent,BulkDock Fragalysis export,openbind_xx01zvns2b_c1_elab_chemspace_filtered_scored_top80percent,fragmenstein_placed,openbind_xx01zvns2b_c1_elab_chemspace_filtered_scored,openbind_xx01zvns2b_c1_elab_chemspace_filtered_scored_top40percent,openbind_xx01zvns2b_c1_elab_chemspace_filtered_scored_top20percent,openbind_xx01zvns2b_c1_elab_chemspace_filtered_scored_top60percent,openbind_xx01zvns2b_c1_elabs_filtered

>  <smiles>  (904) 
CC1(CN(c2ccccc2Cl)c2[nH]c(=S)nc3ccccc23)N=N1

>  <subsites>  (904) 
1 - Z4590/B/203/1

>  <gnina_score>  (904) 
5.459

>  <HIPPO Pose ID>  (904) 
91626

>  <ref_mols>  (904) 
Z1719a,Z0472a

>  <energy_score>  (904) 
-47.868778

>  <inspiration_score>  (904) 
None

>  <smina_score_min>  (904) 
-5.29

>  <fragmenstein_error>  (904) 


>  <name>  (904) 
BRUHSFZSKRXSQU-UHFFFAOYSA-N-P23-P23-P95-601533

$$$$
CFWDOCDVIHDVBR-UHFFFAOYSA-N-P23-P23-P95-601533
     RDKit          3D

 24 27  0  0  0  0  0  0  0  0999 V2000
   -4.7266    2.9025  -13.0310 C   0  0  0  0  0  0  0  0  0  0  0  0
   -3.6213    3.2600  -13.9741 C   0  0  0  0  0  0  0  0  0  0  0  0
   -3.4667    4.6963  -14.4533 C   0  0  0  0  0  0  0  0  0  0  0  0
   -4.1816    5.0326  -15.7193 N   0  0  0  0  0  0  0  0  0  0  0  0
   -3.6800    6.2670  -16.3572 C   0  0  0  0  0  0  0  0  0  0  0  0
   -2.8922    6.0150  -17.6317 C   0  0  0  0  0  0  0  0  0  0  0  0
   -2.4191    4.7534  -18.0096 C   0  0  0  0  0  0  0  0  0  0  0  0
   -1.7054    4.5746  -19.1999 C   0  0  0  0  0  0  0  0  0  0  0  0
   -1.4344    5.6628  -20.0233 C   0  0  0  0  0  0  0  0  0  0  0  0
   -1.8920    6.9265  -19.6635 C   0  0  0  0  0  0  0  0  0  0  0  0
   -2.6153    7.0986  -18.4799 C   0  0  0  0  0  0  0  0  0  0  0  0
   -5.5932    5.0384  -15.5880 C   0  0  0  0  0  0  0  0  0  0  0  0
   -6.0881    5.1556  -14.3461 N   0  0  0  0  0  0  0  0  0  0  0  0
   -7.4132    5.0561  -14.2185 C   0  0  0  0  0  0  0  0  0  0  0  0
   -8.0087    5.0935  -12.6228 Cl  0  0  0  0  0  0  0  0  0  0  0  0
   -8.3160    4.9186  -15.1797 N   0  0  0  0  0  0  0  0  0  0  0  0
   -7.8277    4.8116  -16.4100 C   0  0  0  0  0  0  0  0  0  0  0  0
   -8.7412    4.6077  -17.4314 C   0  0  0  0  0  0  0  0  0  0  0  0
   -8.3368    4.4947  -18.7559 C   0  0  0  0  0  0  0  0  0  0  0  0
   -6.9921    4.5871  -19.0738 C   0  0  0  0  0  0  0  0  0  0  0  0
   -6.0597    4.7621  -18.0590 C   0  0  0  0  0  0  0  0  0  0  0  0
   -6.4533    4.8840  -16.7049 C   0  0  0  0  0  0  0  0  0  0  0  0
   -2.3709    2.4950  -13.7905 N   0  0  0  0  0  0  0  0  0  0  0  0
   -3.0471    2.1798  -14.7812 N   0  0  0  0  0  0  0  0  0  0  0  0
  1  2  1  0
  2  3  1  0
  3  4  1  0
  4  5  1  0
  5  6  1  0
  6  7  2  0
  7  8  1  0
  8  9  2  0
  9 10  1  0
 10 11  2  0
  4 12  1  0
 12 13  2  0
 13 14  1  0
 14 15  1  0
 14 16  2  0
 16 17  1  0
 17 18  2  0
 18 19  1  0
 19 20  2  0
 20 21  1  0
 21 22  2  0
  2 23  1  0
 23 24  2  0
 24  2  1  0
 11  6  1  0
 22 12  1  0
 22 17  1  0
M  END
>  <fragmenstein_outcome>  (905) 
acceptable

>  <exports>  (905) 
['/opt/xchem-fragalysis-2/maxwin/BulkDock/OUTPUTS/xx01zvns2b_c1_elab_bulkdock_input_1GFT1FD.sdf', '/opt/xchem-fragalysis-2/maxwin/openbind-hippo/xx01zvns2b/cycle_01/syndirella/elabs/openbind_xx01zvns2b_c1_elab_chemspace_filtered.sdf']

>  <Energy>  (905) 
21.388744

>  <alias>  (905) 
CFWDOCDVIHDVBR-UHFFFAOYSA-N-P23-P23-P95-601533

>  <fragmenstein_runtime>  (905) 
3.918188

>  <scratch_subdir>  (905) 
/opt/xchem-fragalysis-2/maxwin/BulkDock/SCRATCH/601533/CFWDOCDVIHDVBR-UHFFFAOYSA-N-P23-P23-P95-601533

>  <HIPPO Compound ID>  (905) 
138979

>  <rmsd(smina/fragmenstein)>  (905) 
0.937

>  <distance_score>  (905) 
0.869489

>  <orig_smiles>  (905) 
CC1(CN(Cc2ccccc2)c2nc(Cl)nc3ccccc23)N=N1

>  <fragmenstein_mode>  (905) 
expansion

>  <inchikey>  (905) 
CFWDOCDVIHDVBR-UHFFFAOYSA-N

>  <ref_pdb>  (905) 
Z0101a

>  <GNINA pK>  (905) 
nan

>  <gnina_score_min>  (905) 
5.436

>  <tags>  (905) 
xx01zvns2b_c1_elab_bulkdock_input,openbind_xx01zvns2b_c1_elab_nonasap_filtered_scored_top80percent,BulkDock Fragalysis export,openbind_xx01zvns2b_c1_elab_chemspace_filtered_scored_top80percent,fragmenstein_placed,openbind_xx01zvns2b_c1_elab_chemspace_filtered_scored,openbind_xx01zvns2b_c1_elab_chemspace_filtered_scored_top40percent,openbind_xx01zvns2b_c1_elab_chemspace_filtered_scored_top20percent,openbind_xx01zvns2b_c1_elab_chemspace_filtered_scored_top60percent,openbind_xx01zvns2b_c1_elabs_filtered

>  <smiles>  (905) 
CC1(CN(Cc2ccccc2)c2nc(Cl)nc3ccccc23)N=N1

>  <subsites>  (905) 
1 - Z4590/B/203/1

>  <gnina_score>  (905) 
5.066

>  <HIPPO Pose ID>  (905) 
91628

>  <ref_mols>  (905) 
Z1719a,Z0472a

>  <energy_score>  (905) 
-46.077233

>  <inspiration_score>  (905) 
None

>  <smina_score_min>  (905) 
-6.399

>  <fragmenstein_error>  (905) 


>  <name>  (905) 
CFWDOCDVIHDVBR-UHFFFAOYSA-N-P23-P23-P95-601533

$$$$
ZYXQALLGCXQQIU-UHFFFAOYSA-N-P34-P34-P48-601533
     RDKit          3D

 26 29  0  0  0  0  0  0  0  0999 V2000
   -6.2936    4.3945  -20.2373 C   0  0  0  0  0  0  0  0  0  0  0  0
   -6.2403    4.7405  -18.7901 C   0  0  0  0  0  0  0  0  0  0  0  0
   -7.4359    4.5993  -18.0474 C   0  0  0  0  0  0  0  0  0  0  0  0
   -7.4576    4.8247  -16.6739 C   0  0  0  0  0  0  0  0  0  0  0  0
   -8.7359    4.5769  -15.8966 C   0  0  0  0  0  0  0  0  0  0  0  0
   -9.3522    5.7407  -15.5377 F   0  0  0  0  0  0  0  0  0  0  0  0
   -8.5159    3.9240  -14.7221 F   0  0  0  0  0  0  0  0  0  0  0  0
   -9.6473    3.8409  -16.5892 F   0  0  0  0  0  0  0  0  0  0  0  0
   -6.3742    5.2535  -15.9833 N   0  0  0  0  0  0  0  0  0  0  0  0
   -5.2671    5.3714  -16.7310 C   0  0  0  0  0  0  0  0  0  0  0  0
   -4.0655    5.7294  -16.2254 N   0  0  0  0  0  0  0  0  0  0  0  0
   -3.0952    5.8057  -17.1359 N   0  0  0  0  0  0  0  0  0  0  0  0
   -3.6892    5.4789  -18.2958 C   0  0  0  0  0  0  0  0  0  0  0  0
   -2.8051    5.5761  -19.3410 N   0  0  0  0  0  0  0  0  0  0  0  0
   -2.9551    5.1708  -20.8246 C   0  0  0  0  0  0  0  0  0  0  0  0
   -3.8811    4.7613  -21.4081 O   0  0  0  0  0  0  0  0  0  0  0  0
   -1.5833    5.4374  -21.5227 C   0  0  2  0  0  0  0  0  0  0  0  0
   -1.2413    6.9152  -21.8604 C   0  0  0  0  0  0  0  0  0  0  0  0
   -0.5982    6.4141  -23.1702 C   0  0  2  0  0  0  0  0  0  0  0  0
    0.9133    6.2261  -23.2198 C   0  0  0  0  0  0  0  0  0  0  0  0
    1.2597    6.3316  -24.7100 C   0  0  0  0  0  0  0  0  0  0  0  0
    0.1780    7.2220  -25.2657 C   0  0  0  0  0  0  0  0  0  0  0  0
    0.1845    7.8046  -26.3344 O   0  0  0  0  0  0  0  0  0  0  0  0
   -0.8587    7.2216  -24.3584 N   0  0  0  0  0  0  0  0  0  0  0  0
   -1.4875    5.1551  -23.0517 C   0  0  0  0  0  0  0  0  0  0  0  0
   -5.0819    5.1584  -18.0959 C   0  0  0  0  0  0  0  0  0  0  0  0
  1  2  1  0
  2  3  2  0
  3  4  1  0
  4  5  1  0
  5  6  1  0
  5  7  1  0
  5  8  1  0
  4  9  2  0
  9 10  1  0
 10 11  1  0
 11 12  1  0
 12 13  2  0
 13 14  1  0
 14 15  1  0
 15 16  2  0
 17 15  1  6
 17 18  1  0
 19 18  1  1
 19 20  1  0
 20 21  1  0
 21 22  1  0
 22 23  2  0
 22 24  1  0
 19 25  1  0
 13 26  1  0
 26  2  1  0
 26 10  2  0
 25 17  1  0
 24 19  1  0
M  END
>  <fragmenstein_outcome>  (906) 
acceptable

>  <exports>  (906) 
['/opt/xchem-fragalysis-2/maxwin/BulkDock/OUTPUTS/xx01zvns2b_c1_elab_bulkdock_input_1GFT1FD.sdf', '/opt/xchem-fragalysis-2/maxwin/openbind-hippo/xx01zvns2b/cycle_01/syndirella/elabs/openbind_xx01zvns2b_c1_elab_chemspace_filtered.sdf']

>  <Energy>  (906) 
67.820547

>  <alias>  (906) 
ZYXQALLGCXQQIU-UHFFFAOYSA-N-P34-P34-P48-601533

>  <fragmenstein_runtime>  (906) 
5.61141

>  <scratch_subdir>  (906) 
/opt/xchem-fragalysis-2/maxwin/BulkDock/SCRATCH/601533/ZYXQALLGCXQQIU-UHFFFAOYSA-N-P34-P34-P48-601533

>  <HIPPO Compound ID>  (906) 
145347

>  <rmsd(smina/fragmenstein)>  (906) 
2.648

>  <distance_score>  (906) 
0.9609

>  <orig_smiles>  (906) 
Cc1cc(C(F)(F)F)nc2[nH]nc(NC(=O)C3CC4(CCC(=O)N4)C3)c12

>  <fragmenstein_mode>  (906) 
expansion

>  <inchikey>  (906) 
ZYXQALLGCXQQIU-UHFFFAOYSA-N

>  <ref_pdb>  (906) 
Z0101a

>  <GNINA pK>  (906) 
nan

>  <gnina_score_min>  (906) 
5.209

>  <tags>  (906) 
xx01zvns2b_c1_elab_bulkdock_input,openbind_xx01zvns2b_c1_elab_nonasap_filtered_scored_top80percent,BulkDock Fragalysis export,openbind_xx01zvns2b_c1_elab_chemspace_filtered_scored_top80percent,fragmenstein_placed,openbind_xx01zvns2b_c1_elab_chemspace_filtered_scored,openbind_xx01zvns2b_c1_elab_chemspace_filtered_scored_top40percent,openbind_xx01zvns2b_c1_elab_chemspace_filtered_scored_top20percent,openbind_xx01zvns2b_c1_elab_chemspace_filtered_scored_top60percent,openbind_xx01zvns2b_c1_elabs_filtered

>  <smiles>  (906) 
Cc1cc(C(F)(F)F)nc2[nH]nc(NC(=O)C3CC4(CCC(=O)N4)C3)c12

>  <subsites>  (906) 
1 - Z4590/B/203/1

>  <gnina_score>  (906) 
4.721

>  <HIPPO Pose ID>  (906) 
91640

>  <ref_mols>  (906) 
Z0827a,Z0709a

>  <energy_score>  (906) 
-53.94322

>  <inspiration_score>  (906) 
None

>  <smina_score_min>  (906) 
-5.716

>  <fragmenstein_error>  (906) 


>  <name>  (906) 
ZYXQALLGCXQQIU-UHFFFAOYSA-N-P34-P34-P48-601533

$$$$
JYRBZOQFRCNYRV-UHFFFAOYSA-N-P34-P34-P48-601533
     RDKit          3D

 32 35  0  0  0  0  0  0  0  0999 V2000
   -5.9743    4.6097  -20.2061 C   0  0  0  0  0  0  0  0  0  0  0  0
   -5.9947    4.9941  -18.7620 C   0  0  0  0  0  0  0  0  0  0  0  0
   -7.1420    4.6221  -18.0198 C   0  0  0  0  0  0  0  0  0  0  0  0
   -7.2626    4.9280  -16.6668 C   0  0  0  0  0  0  0  0  0  0  0  0
   -8.4871    4.4608  -15.8901 C   0  0  0  0  0  0  0  0  0  0  0  0
   -9.2111    5.5088  -15.3915 F   0  0  0  0  0  0  0  0  0  0  0  0
   -9.3595    3.7063  -16.6167 F   0  0  0  0  0  0  0  0  0  0  0  0
   -8.1527    3.7140  -14.8034 F   0  0  0  0  0  0  0  0  0  0  0  0
   -6.3232    5.6385  -15.9933 N   0  0  0  0  0  0  0  0  0  0  0  0
   -5.2512    5.9647  -16.7334 C   0  0  0  0  0  0  0  0  0  0  0  0
   -4.2006    6.6678  -16.2507 N   0  0  0  0  0  0  0  0  0  0  0  0
   -3.2648    6.9346  -17.1592 N   0  0  0  0  0  0  0  0  0  0  0  0
   -3.6855    6.3107  -18.2735 C   0  0  0  0  0  0  0  0  0  0  0  0
   -2.7909    6.4571  -19.3016 N   0  0  0  0  0  0  0  0  0  0  0  0
   -2.7516    5.8716  -20.6067 C   0  0  0  0  0  0  0  0  0  0  0  0
   -3.4483    5.0397  -21.1135 O   0  0  0  0  0  0  0  0  0  0  0  0
   -1.5952    6.4588  -21.4513 C   0  0  2  0  0  0  0  0  0  0  0  0
   -0.1940    6.1344  -20.8712 C   0  0  0  0  0  0  0  0  0  0  0  0
    0.7221    7.3404  -20.6012 C   0  0  1  0  0  0  0  0  0  0  0  0
    0.5694    8.4090  -21.6028 C   0  0  0  0  0  0  0  0  0  0  0  0
   -0.7913    8.8516  -21.0838 C   0  0  1  0  0  0  0  0  0  0  0  0
   -1.8339    7.9463  -21.7840 C   0  0  0  0  0  0  0  0  0  0  0  0
   -1.1483    8.7499  -19.5704 N   0  0  0  0  0  0  0  0  0  0  0  0
   -1.7142    9.9650  -19.1244 C   0  0  0  0  0  0  0  0  0  0  0  0
   -1.1998   10.9355  -18.6487 O   0  0  0  0  0  0  0  0  0  0  0  0
   -3.0550    9.8459  -19.3274 O   0  0  0  0  0  0  0  0  0  0  0  0
   -3.9879   10.8620  -18.8874 C   0  0  0  0  0  0  0  0  0  0  0  0
   -3.7662   12.1799  -19.6355 C   0  0  0  0  0  0  0  0  0  0  0  0
   -5.3701   10.3055  -19.2664 C   0  0  0  0  0  0  0  0  0  0  0  0
   -3.9383   11.0463  -17.3670 C   0  0  0  0  0  0  0  0  0  0  0  0
    0.2467    8.2414  -19.4905 C   0  0  0  0  0  0  0  0  0  0  0  0
   -4.9742    5.6940  -18.0732 C   0  0  0  0  0  0  0  0  0  0  0  0
  1  2  1  0
  2  3  2  0
  3  4  1  0
  4  5  1  0
  5  6  1  0
  5  7  1  0
  5  8  1  0
  4  9  2  0
  9 10  1  0
 10 11  1  0
 11 12  1  0
 12 13  2  0
 13 14  1  0
 14 15  1  0
 15 16  2  0
 17 15  1  1
 17 18  1  0
 19 18  1  6
 19 20  1  0
 20 21  1  0
 21 22  1  6
 21 23  1  0
 23 24  1  0
 24 25  2  0
 24 26  1  0
 26 27  1  0
 27 28  1  0
 27 29  1  0
 27 30  1  0
 23 31  1  0
 13 32  1  0
 32  2  1  0
 32 10  2  0
 22 17  1  0
 31 19  1  0
M  END
>  <fragmenstein_outcome>  (907) 
too moved

>  <exports>  (907) 
['/opt/xchem-fragalysis-2/maxwin/openbind-hippo/xx01zvns2b/cycle_01/syndirella/elabs/openbind_xx01zvns2b_c1_elab_chemspace_filtered.sdf']

>  <Energy>  (907) 
116.145386

>  <alias>  (907) 
JYRBZOQFRCNYRV-UHFFFAOYSA-N-P34-P34-P48-601533

>  <fragmenstein_runtime>  (907) 
11.517646

>  <scratch_subdir>  (907) 
/opt/xchem-fragalysis-2/maxwin/BulkDock/SCRATCH/601533/JYRBZOQFRCNYRV-UHFFFAOYSA-N-P34-P34-P48-601533

>  <HIPPO Compound ID>  (907) 
145366

>  <rmsd(smina/fragmenstein)>  (907) 
1.556

>  <distance_score>  (907) 
1.480723

>  <orig_smiles>  (907) 
Cc1cc(C(F)(F)F)nc2[nH]nc(NC(=O)C3CC4CC(C3)N(C(=O)OC(C)(C)C)C4)c12

>  <fragmenstein_mode>  (907) 
expansion

>  <inchikey>  (907) 
JYRBZOQFRCNYRV-UHFFFAOYSA-N

>  <ref_pdb>  (907) 
Z0101a

>  <GNINA pK>  (907) 
nan

>  <gnina_score_min>  (907) 
5.461

>  <tags>  (907) 
xx01zvns2b_c1_elab_bulkdock_input,openbind_xx01zvns2b_c1_elab_nonasap_filtered_scored_top80percent,openbind_xx01zvns2b_c1_elab_chemspace_filtered_scored_top80percent,fragmenstein_placed,openbind_xx01zvns2b_c1_elab_chemspace_filtered_scored,openbind_xx01zvns2b_c1_elab_chemspace_filtered_scored_top40percent,openbind_xx01zvns2b_c1_elab_chemspace_filtered_scored_top20percent,openbind_xx01zvns2b_c1_elab_chemspace_filtered_scored_top60percent,openbind_xx01zvns2b_c1_elabs_filtered

>  <smiles>  (907) 
Cc1cc(C(F)(F)F)nc2[nH]nc(NC(=O)C3CC4CC(C3)N(C(=O)OC(C)(C)C)C4)c12

>  <subsites>  (907) 
1 - Z4590/B/203/1

>  <gnina_score>  (907) 
6.135

>  <HIPPO Pose ID>  (907) 
91678

>  <ref_mols>  (907) 
Z0827a,Z0709a

>  <energy_score>  (907) 
-5.73377

>  <inspiration_score>  (907) 
None

>  <smina_score_min>  (907) 
-5.172

>  <fragmenstein_error>  (907) 


>  <name>  (907) 
JYRBZOQFRCNYRV-UHFFFAOYSA-N-P34-P34-P48-601533

$$$$
ADBBOGGISJBTID-UHFFFAOYSA-N-P86-P50-P86-601533
     RDKit          3D

 18 20  0  0  0  0  0  0  0  0999 V2000
   -6.0520    5.0864  -13.9419 C   0  0  0  0  0  0  0  0  0  0  0  0
   -6.6839    4.8859  -15.2803 C   0  0  0  0  0  0  0  0  0  0  0  0
   -6.0086    5.1942  -16.4752 C   0  0  0  0  0  0  0  0  0  0  0  0
   -6.6179    5.0554  -17.7306 C   0  0  0  0  0  0  0  0  0  0  0  0
   -5.9540    5.3266  -18.9199 N   0  0  0  0  0  0  0  0  0  0  0  0
   -4.4610    5.6812  -19.1860 C   0  0  0  0  0  0  0  0  0  0  0  0
   -3.5831    5.8739  -18.4378 O   0  0  0  0  0  0  0  0  0  0  0  0
   -4.2920    5.8050  -20.6911 C   0  0  0  0  0  0  0  0  0  0  0  0
   -4.5029    7.2531  -21.0954 C   0  0  0  0  0  0  0  0  0  0  0  0
   -4.2203    7.4910  -22.5466 C   0  0  0  0  0  0  0  0  0  0  0  0
   -4.7738    8.7286  -23.2102 C   0  0  0  0  0  0  0  0  0  0  0  0
   -5.2922    7.3718  -23.5940 C   0  0  0  0  0  0  0  0  0  0  0  0
   -7.9434    4.6344  -17.7230 C   0  0  0  0  0  0  0  0  0  0  0  0
   -8.9017    4.5042  -18.6961 N   0  0  0  0  0  0  0  0  0  0  0  0
  -10.0805    4.2580  -18.0597 C   0  0  0  0  0  0  0  0  0  0  0  0
   -9.9009    3.9589  -16.8037 N   0  0  0  0  0  0  0  0  0  0  0  0
   -8.6140    4.2948  -16.5526 C   0  0  0  0  0  0  0  0  0  0  0  0
   -7.9892    4.4022  -15.3155 C   0  0  0  0  0  0  0  0  0  0  0  0
  1  2  1  0
  2  3  2  0
  3  4  1  0
  4  5  1  0
  5  6  1  0
  6  7  2  0
  6  8  1  0
  8  9  1  0
  9 10  1  0
 10 11  1  0
 11 12  1  0
  4 13  2  0
 13 14  1  0
 14 15  1  0
 15 16  2  0
 16 17  1  0
 17 18  2  0
 18  2  1  0
 12 10  1  0
 17 13  1  0
M  END
>  <fragmenstein_outcome>  (908) 
too moved

>  <exports>  (908) 
['/opt/xchem-fragalysis-2/maxwin/openbind-hippo/xx01zvns2b/cycle_01/syndirella/elabs/openbind_xx01zvns2b_c1_elab_chemspace_filtered.sdf']

>  <Energy>  (908) 
29.882992

>  <alias>  (908) 
ADBBOGGISJBTID-UHFFFAOYSA-N-P86-P50-P86-601533

>  <fragmenstein_runtime>  (908) 
13.784706

>  <scratch_subdir>  (908) 
/opt/xchem-fragalysis-2/maxwin/BulkDock/SCRATCH/601533/ADBBOGGISJBTID-UHFFFAOYSA-N-P86-P50-P86-601533

>  <HIPPO Compound ID>  (908) 
136708

>  <rmsd(smina/fragmenstein)>  (908) 
1.034

>  <distance_score>  (908) 
1.271211

>  <orig_smiles>  (908) 
Cc1cc(NC(=O)CCC2CC2)c2[nH]cnc2c1

>  <fragmenstein_mode>  (908) 
expansion

>  <inchikey>  (908) 
ADBBOGGISJBTID-UHFFFAOYSA-N

>  <ref_pdb>  (908) 
Z0101a

>  <GNINA pK>  (908) 
nan

>  <gnina_score_min>  (908) 
5.36

>  <tags>  (908) 
xx01zvns2b_c1_elab_bulkdock_input,openbind_xx01zvns2b_c1_elab_nonasap_filtered_scored_top80percent,openbind_xx01zvns2b_c1_elab_chemspace_filtered_scored_top80percent,fragmenstein_placed,openbind_xx01zvns2b_c1_elab_chemspace_filtered_scored,openbind_xx01zvns2b_c1_elab_chemspace_filtered_scored_top40percent,openbind_xx01zvns2b_c1_elab_chemspace_filtered_scored_top20percent,openbind_xx01zvns2b_c1_elab_chemspace_filtered_scored_top60percent,openbind_xx01zvns2b_c1_elabs_filtered

>  <smiles>  (908) 
Cc1cc(NC(=O)CCC2CC2)c2[nH]cnc2c1

>  <subsites>  (908) 
1 - Z4590/B/203/1

>  <gnina_score>  (908) 
5.267

>  <HIPPO Pose ID>  (908) 
91693

>  <ref_mols>  (908) 
Z0846a,Z1597a

>  <energy_score>  (908) 
-3.793472

>  <inspiration_score>  (908) 
None

>  <smina_score_min>  (908) 
-7.214

>  <fragmenstein_error>  (908) 


>  <name>  (908) 
ADBBOGGISJBTID-UHFFFAOYSA-N-P86-P50-P86-601533

$$$$
AGUBERUTAHLOKR-UHFFFAOYSA-N-P50-P50-P86-601533
     RDKit          3D

 19 21  0  0  0  0  0  0  0  0999 V2000
   -6.0074    4.7439  -14.0290 C   0  0  0  0  0  0  0  0  0  0  0  0
   -6.7214    4.7046  -15.3402 C   0  0  0  0  0  0  0  0  0  0  0  0
   -6.0909    5.0836  -16.5377 C   0  0  0  0  0  0  0  0  0  0  0  0
   -6.7718    5.0916  -17.7626 C   0  0  0  0  0  0  0  0  0  0  0  0
   -6.1680    5.5005  -18.9452 N   0  0  0  0  0  0  0  0  0  0  0  0
   -4.6643    5.7541  -19.2801 C   0  0  0  0  0  0  0  0  0  0  0  0
   -3.7193    5.7309  -18.5895 O   0  0  0  0  0  0  0  0  0  0  0  0
   -4.5947    6.1094  -20.7592 C   0  0  0  0  0  0  0  0  0  0  0  0
   -4.9856    7.5593  -20.9858 C   0  0  2  0  0  0  0  0  0  0  0  0
   -5.1034    7.9350  -22.4601 C   0  0  0  0  0  0  0  0  0  0  0  0
   -4.7812    9.4075  -22.4342 C   0  0  0  0  0  0  0  0  0  0  0  0
   -3.6869    9.4568  -21.3944 C   0  0  0  0  0  0  0  0  0  0  0  0
   -3.9922    8.4393  -20.4374 O   0  0  0  0  0  0  0  0  0  0  0  0
   -8.1077    4.7035  -17.7249 C   0  0  0  0  0  0  0  0  0  0  0  0
   -9.1131    4.6827  -18.6569 N   0  0  0  0  0  0  0  0  0  0  0  0
  -10.2625    4.3529  -18.0037 C   0  0  0  0  0  0  0  0  0  0  0  0
  -10.0314    3.9562  -16.7822 N   0  0  0  0  0  0  0  0  0  0  0  0
   -8.7293    4.2672  -16.5598 C   0  0  0  0  0  0  0  0  0  0  0  0
   -8.0362    4.2437  -15.3539 C   0  0  0  0  0  0  0  0  0  0  0  0
  1  2  1  0
  2  3  2  0
  3  4  1  0
  4  5  1  0
  5  6  1  0
  6  7  2  0
  6  8  1  0
  9  8  1  6
  9 10  1  0
 10 11  1  0
 11 12  1  0
 12 13  1  0
  4 14  2  0
 14 15  1  0
 15 16  1  0
 16 17  2  0
 17 18  1  0
 18 19  2  0
 19  2  1  0
 13  9  1  0
 18 14  1  0
M  END
>  <fragmenstein_outcome>  (909) 
too moved

>  <exports>  (909) 
['/opt/xchem-fragalysis-2/maxwin/openbind-hippo/xx01zvns2b/cycle_01/syndirella/elabs/openbind_xx01zvns2b_c1_elab_chemspace_filtered.sdf']

>  <Energy>  (909) 
21.253607

>  <alias>  (909) 
AGUBERUTAHLOKR-UHFFFAOYSA-N-P50-P50-P86-601533

>  <fragmenstein_runtime>  (909) 
3.12624

>  <scratch_subdir>  (909) 
/opt/xchem-fragalysis-2/maxwin/BulkDock/SCRATCH/601533/AGUBERUTAHLOKR-UHFFFAOYSA-N-P50-P50-P86-601533

>  <HIPPO Compound ID>  (909) 
136726

>  <rmsd(smina/fragmenstein)>  (909) 
1.343

>  <distance_score>  (909) 
1.419531

>  <orig_smiles>  (909) 
Cc1cc(NC(=O)CC2CCCO2)c2[nH]cnc2c1

>  <fragmenstein_mode>  (909) 
expansion

>  <inchikey>  (909) 
AGUBERUTAHLOKR-UHFFFAOYSA-N

>  <ref_pdb>  (909) 
Z0101a

>  <GNINA pK>  (909) 
nan

>  <gnina_score_min>  (909) 
5.261

>  <tags>  (909) 
xx01zvns2b_c1_elab_bulkdock_input,openbind_xx01zvns2b_c1_elab_nonasap_filtered_scored_top80percent,openbind_xx01zvns2b_c1_elab_chemspace_filtered_scored_top80percent,fragmenstein_placed,openbind_xx01zvns2b_c1_elab_chemspace_filtered_scored,openbind_xx01zvns2b_c1_elab_chemspace_filtered_scored_top40percent,openbind_xx01zvns2b_c1_elab_chemspace_filtered_scored_top20percent,openbind_xx01zvns2b_c1_elab_chemspace_filtered_scored_top60percent,openbind_xx01zvns2b_c1_elabs_filtered

>  <smiles>  (909) 
Cc1cc(NC(=O)CC2CCCO2)c2[nH]cnc2c1

>  <subsites>  (909) 
1 - Z4590/B/203/1

>  <gnina_score>  (909) 
5.02

>  <HIPPO Pose ID>  (909) 
91728

>  <ref_mols>  (909) 
Z0846a,Z1597a

>  <energy_score>  (909) 
-8.30988

>  <inspiration_score>  (909) 
None

>  <smina_score_min>  (909) 
-7.445

>  <fragmenstein_error>  (909) 


>  <name>  (909) 
AGUBERUTAHLOKR-UHFFFAOYSA-N-P50-P50-P86-601533

$$$$
IBRLIROKMQCCIQ-UHFFFAOYSA-N-P50-P50-P86-601533
     RDKit          3D

 19 21  0  0  0  0  0  0  0  0999 V2000
   -6.0487    4.9243  -13.9417 C   0  0  0  0  0  0  0  0  0  0  0  0
   -6.7008    4.8475  -15.2835 C   0  0  0  0  0  0  0  0  0  0  0  0
   -6.0242    5.2259  -16.4576 C   0  0  0  0  0  0  0  0  0  0  0  0
   -6.6332    5.1706  -17.7196 C   0  0  0  0  0  0  0  0  0  0  0  0
   -5.9508    5.4868  -18.8927 N   0  0  0  0  0  0  0  0  0  0  0  0
   -4.4930    6.0042  -19.1094 C   0  0  0  0  0  0  0  0  0  0  0  0
   -3.6747    6.3154  -18.3310 O   0  0  0  0  0  0  0  0  0  0  0  0
   -4.1992    5.9548  -20.6064 C   0  0  0  0  0  0  0  0  0  0  0  0
   -4.1463    7.3374  -21.2558 C   0  0  0  0  0  0  0  0  0  0  0  0
   -5.3733    7.5856  -22.0807 C   0  0  2  0  0  0  0  0  0  0  0  0
   -5.3617    7.2732  -23.5565 C   0  0  0  0  0  0  0  0  0  0  0  0
   -5.5500    8.6959  -23.1018 C   0  0  2  0  0  0  0  0  0  0  0  0
   -4.5275    9.7244  -23.4217 C   0  0  0  0  0  0  0  0  0  0  0  0
   -7.9636    4.7502  -17.7325 C   0  0  0  0  0  0  0  0  0  0  0  0
   -8.9301    4.6930  -18.7051 N   0  0  0  0  0  0  0  0  0  0  0  0
  -10.1058    4.3819  -18.0875 C   0  0  0  0  0  0  0  0  0  0  0  0
   -9.9231    3.9987  -16.8538 N   0  0  0  0  0  0  0  0  0  0  0  0
   -8.6335    4.3296  -16.5862 C   0  0  0  0  0  0  0  0  0  0  0  0
   -7.9972    4.3420  -15.3497 C   0  0  0  0  0  0  0  0  0  0  0  0
  1  2  1  0
  2  3  2  0
  3  4  1  0
  4  5  1  0
  5  6  1  0
  6  7  2  0
  6  8  1  0
  8  9  1  0
 10  9  1  6
 10 11  1  0
 11 12  1  0
 12 13  1  6
  4 14  2  0
 14 15  1  0
 15 16  1  0
 16 17  2  0
 17 18  1  0
 18 19  2  0
 19  2  1  0
 12 10  1  0
 18 14  1  0
M  END
>  <fragmenstein_outcome>  (910) 
too moved

>  <exports>  (910) 
['/opt/xchem-fragalysis-2/maxwin/openbind-hippo/xx01zvns2b/cycle_01/syndirella/elabs/openbind_xx01zvns2b_c1_elab_chemspace_filtered.sdf']

>  <Energy>  (910) 
35.539311

>  <alias>  (910) 
IBRLIROKMQCCIQ-UHFFFAOYSA-N-P50-P50-P86-601533

>  <fragmenstein_runtime>  (910) 
2.882449

>  <scratch_subdir>  (910) 
/opt/xchem-fragalysis-2/maxwin/BulkDock/SCRATCH/601533/IBRLIROKMQCCIQ-UHFFFAOYSA-N-P50-P50-P86-601533

>  <HIPPO Compound ID>  (910) 
136731

>  <rmsd(smina/fragmenstein)>  (910) 
1.076

>  <distance_score>  (910) 
1.297818

>  <orig_smiles>  (910) 
Cc1cc(NC(=O)CCC2CC2C)c2[nH]cnc2c1

>  <fragmenstein_mode>  (910) 
expansion

>  <inchikey>  (910) 
IBRLIROKMQCCIQ-UHFFFAOYSA-N

>  <ref_pdb>  (910) 
Z0101a

>  <GNINA pK>  (910) 
nan

>  <gnina_score_min>  (910) 
5.467

>  <tags>  (910) 
xx01zvns2b_c1_elab_bulkdock_input,openbind_xx01zvns2b_c1_elab_nonasap_filtered_scored_top80percent,openbind_xx01zvns2b_c1_elab_chemspace_filtered_scored_top80percent,fragmenstein_placed,openbind_xx01zvns2b_c1_elab_chemspace_filtered_scored,openbind_xx01zvns2b_c1_elab_chemspace_filtered_scored_top40percent,openbind_xx01zvns2b_c1_elab_chemspace_filtered_scored_top20percent,openbind_xx01zvns2b_c1_elab_chemspace_filtered_scored_top60percent,openbind_xx01zvns2b_c1_elabs_filtered

>  <smiles>  (910) 
Cc1cc(NC(=O)CCC2CC2C)c2[nH]cnc2c1

>  <subsites>  (910) 
1 - Z4590/B/203/1

>  <gnina_score>  (910) 
5.343

>  <HIPPO Pose ID>  (910) 
91738

>  <ref_mols>  (910) 
Z0846a,Z1597a

>  <energy_score>  (910) 
-7.599777

>  <inspiration_score>  (910) 
None

>  <smina_score_min>  (910) 
-7.111

>  <fragmenstein_error>  (910) 


>  <name>  (910) 
IBRLIROKMQCCIQ-UHFFFAOYSA-N-P50-P50-P86-601533

$$$$
QRMYKPOZUWAUEC-UHFFFAOYSA-N-P50-P50-P86-601533
     RDKit          3D

 19 21  0  0  0  0  0  0  0  0999 V2000
  -10.8455    4.8043  -18.4348 C   0  0  0  0  0  0  0  0  0  0  0  0
   -9.5313    4.4708  -17.8903 C   0  0  0  0  0  0  0  0  0  0  0  0
   -9.3201    4.0162  -16.6823 N   0  0  0  0  0  0  0  0  0  0  0  0
   -8.0101    4.2877  -16.4470 C   0  0  0  0  0  0  0  0  0  0  0  0
   -7.3303    4.1725  -15.2375 C   0  0  0  0  0  0  0  0  0  0  0  0
   -6.0111    4.6061  -15.1958 C   0  0  0  0  0  0  0  0  0  0  0  0
   -5.3840    5.1101  -16.3410 C   0  0  0  0  0  0  0  0  0  0  0  0
   -6.0369    5.2009  -17.5783 C   0  0  0  0  0  0  0  0  0  0  0  0
   -5.3681    5.6733  -18.7090 N   0  0  0  0  0  0  0  0  0  0  0  0
   -3.9197    6.2356  -18.8688 C   0  0  0  0  0  0  0  0  0  0  0  0
   -3.0987    6.4584  -18.0627 O   0  0  0  0  0  0  0  0  0  0  0  0
   -3.6358    6.4158  -20.3523 C   0  0  0  0  0  0  0  0  0  0  0  0
   -4.2874    7.6734  -20.9104 C   0  0  1  0  0  0  0  0  0  0  0  0
   -3.5405    8.2505  -22.1184 C   0  0  0  0  0  0  0  0  0  0  0  0
   -4.6106    8.4442  -23.1611 C   0  0  0  0  0  0  0  0  0  0  0  0
   -5.5593    7.3310  -22.8181 C   0  0  0  0  0  0  0  0  0  0  0  0
   -5.6010    7.3274  -21.3857 O   0  0  0  0  0  0  0  0  0  0  0  0
   -7.3702    4.7827  -17.5856 C   0  0  0  0  0  0  0  0  0  0  0  0
   -8.3588    4.7707  -18.5364 N   0  0  0  0  0  0  0  0  0  0  0  0
  1  2  1  0
  2  3  2  0
  3  4  1  0
  4  5  2  0
  5  6  1  0
  6  7  2  0
  7  8  1  0
  8  9  1  0
  9 10  1  0
 10 11  2  0
 10 12  1  0
 13 12  1  6
 13 14  1  0
 14 15  1  0
 15 16  1  0
 16 17  1  0
  8 18  2  0
 18 19  1  0
 19  2  1  0
 18  4  1  0
 17 13  1  0
M  END
>  <fragmenstein_outcome>  (911) 
too moved

>  <exports>  (911) 
['/opt/xchem-fragalysis-2/maxwin/openbind-hippo/xx01zvns2b/cycle_01/syndirella/elabs/openbind_xx01zvns2b_c1_elab_chemspace_filtered.sdf']

>  <Energy>  (911) 
15.550315

>  <alias>  (911) 
QRMYKPOZUWAUEC-UHFFFAOYSA-N-P50-P50-P86-601533

>  <fragmenstein_runtime>  (911) 
4.707823

>  <scratch_subdir>  (911) 
/opt/xchem-fragalysis-2/maxwin/BulkDock/SCRATCH/601533/QRMYKPOZUWAUEC-UHFFFAOYSA-N-P50-P50-P86-601533

>  <HIPPO Compound ID>  (911) 
136737

>  <rmsd(smina/fragmenstein)>  (911) 
1.694

>  <distance_score>  (911) 
1.815676

>  <orig_smiles>  (911) 
Cc1nc2cccc(NC(=O)CC3CCCO3)c2[nH]1

>  <fragmenstein_mode>  (911) 
expansion

>  <inchikey>  (911) 
QRMYKPOZUWAUEC-UHFFFAOYSA-N

>  <ref_pdb>  (911) 
Z0101a

>  <GNINA pK>  (911) 
nan

>  <gnina_score_min>  (911) 
5.199

>  <tags>  (911) 
xx01zvns2b_c1_elab_bulkdock_input,openbind_xx01zvns2b_c1_elab_nonasap_filtered_scored_top80percent,openbind_xx01zvns2b_c1_elab_chemspace_filtered_scored_top80percent,fragmenstein_placed,openbind_xx01zvns2b_c1_elab_chemspace_filtered_scored,openbind_xx01zvns2b_c1_elab_chemspace_filtered_scored_top40percent,openbind_xx01zvns2b_c1_elab_chemspace_filtered_scored_top20percent,openbind_xx01zvns2b_c1_elab_chemspace_filtered_scored_top60percent,openbind_xx01zvns2b_c1_elabs_filtered

>  <smiles>  (911) 
Cc1nc2cccc(NC(=O)CC3CCCO3)c2[nH]1

>  <subsites>  (911) 
1 - Z4590/B/203/1

>  <gnina_score>  (911) 
5.129

>  <HIPPO Pose ID>  (911) 
91750

>  <ref_mols>  (911) 
Z0846a,Z1597a

>  <energy_score>  (911) 
-26.386952

>  <inspiration_score>  (911) 
None

>  <smina_score_min>  (911) 
-7.078

>  <fragmenstein_error>  (911) 


>  <name>  (911) 
QRMYKPOZUWAUEC-UHFFFAOYSA-N-P50-P50-P86-601533

$$$$
VNIQYZAZOYQUQV-UHFFFAOYSA-N-P50-P50-P86-601533
     RDKit          3D

 19 20  0  0  0  0  0  0  0  0999 V2000
  -10.9443    4.7449  -18.3199 C   0  0  0  0  0  0  0  0  0  0  0  0
   -9.6595    4.3961  -17.7227 C   0  0  0  0  0  0  0  0  0  0  0  0
   -9.4728    4.0155  -16.4843 N   0  0  0  0  0  0  0  0  0  0  0  0
   -8.1525    4.2404  -16.2536 C   0  0  0  0  0  0  0  0  0  0  0  0
   -7.4614    4.1673  -15.0472 C   0  0  0  0  0  0  0  0  0  0  0  0
   -6.1226    4.5564  -15.0409 C   0  0  0  0  0  0  0  0  0  0  0  0
   -5.4825    4.9704  -16.2150 C   0  0  0  0  0  0  0  0  0  0  0  0
   -6.1528    4.9970  -17.4384 C   0  0  0  0  0  0  0  0  0  0  0  0
   -5.5345    5.3436  -18.6303 N   0  0  0  0  0  0  0  0  0  0  0  0
   -4.0533    5.7296  -18.9270 C   0  0  0  0  0  0  0  0  0  0  0  0
   -3.1511    5.8878  -18.1995 O   0  0  0  0  0  0  0  0  0  0  0  0
   -3.9354    5.8019  -20.4389 C   0  0  0  0  0  0  0  0  0  0  0  0
   -4.6030    7.0366  -21.0359 C   0  0  0  0  0  0  0  0  0  0  0  0
   -4.8528    6.8559  -22.5349 C   0  0  0  0  0  0  0  0  0  0  0  0
   -5.5765    8.0247  -23.2026 C   0  0  1  0  0  0  0  0  0  0  0  0
   -4.7725    9.3137  -23.2169 C   0  0  0  0  0  0  0  0  0  0  0  0
   -5.8861    7.6888  -24.5534 O   0  0  0  0  0  0  0  0  0  0  0  0
   -7.4981    4.6381  -17.4158 C   0  0  0  0  0  0  0  0  0  0  0  0
   -8.4765    4.6087  -18.3734 N   0  0  0  0  0  0  0  0  0  0  0  0
  1  2  1  0
  2  3  2  0
  3  4  1  0
  4  5  2  0
  5  6  1  0
  6  7  2  0
  7  8  1  0
  8  9  1  0
  9 10  1  0
 10 11  2  0
 10 12  1  0
 12 13  1  0
 13 14  1  0
 14 15  1  0
 15 16  1  6
 15 17  1  0
  8 18  2  0
 18 19  1  0
 19  2  1  0
 18  4  1  0
M  END
>  <fragmenstein_outcome>  (912) 
too moved

>  <exports>  (912) 
['/opt/xchem-fragalysis-2/maxwin/openbind-hippo/xx01zvns2b/cycle_01/syndirella/elabs/openbind_xx01zvns2b_c1_elab_chemspace_filtered.sdf']

>  <Energy>  (912) 
18.257398

>  <alias>  (912) 
VNIQYZAZOYQUQV-UHFFFAOYSA-N-P50-P50-P86-601533

>  <fragmenstein_runtime>  (912) 
4.779443

>  <scratch_subdir>  (912) 
/opt/xchem-fragalysis-2/maxwin/BulkDock/SCRATCH/601533/VNIQYZAZOYQUQV-UHFFFAOYSA-N-P50-P50-P86-601533

>  <HIPPO Compound ID>  (912) 
136740

>  <rmsd(smina/fragmenstein)>  (912) 
1.392

>  <distance_score>  (912) 
1.262706

>  <orig_smiles>  (912) 
Cc1nc2cccc(NC(=O)CCCC(C)O)c2[nH]1

>  <fragmenstein_mode>  (912) 
expansion

>  <inchikey>  (912) 
VNIQYZAZOYQUQV-UHFFFAOYSA-N

>  <ref_pdb>  (912) 
Z0101a

>  <GNINA pK>  (912) 
nan

>  <gnina_score_min>  (912) 
5.202

>  <tags>  (912) 
xx01zvns2b_c1_elab_bulkdock_input,openbind_xx01zvns2b_c1_elab_nonasap_filtered_scored_top80percent,openbind_xx01zvns2b_c1_elab_chemspace_filtered_scored_top80percent,fragmenstein_placed,openbind_xx01zvns2b_c1_elab_chemspace_filtered_scored,openbind_xx01zvns2b_c1_elab_chemspace_filtered_scored_top40percent,openbind_xx01zvns2b_c1_elab_chemspace_filtered_scored_top20percent,openbind_xx01zvns2b_c1_elab_chemspace_filtered_scored_top60percent,openbind_xx01zvns2b_c1_elabs_filtered

>  <smiles>  (912) 
Cc1nc2cccc(NC(=O)CCCC(C)O)c2[nH]1

>  <subsites>  (912) 
1 - Z4590/B/203/1

>  <gnina_score>  (912) 
4.986

>  <HIPPO Pose ID>  (912) 
91756

>  <ref_mols>  (912) 
Z0846a,Z1597a

>  <energy_score>  (912) 
-5.073543

>  <inspiration_score>  (912) 
None

>  <smina_score_min>  (912) 
-6.795

>  <fragmenstein_error>  (912) 


>  <name>  (912) 
VNIQYZAZOYQUQV-UHFFFAOYSA-N-P50-P50-P86-601533

$$$$
FCWKHIQDETXNJV-UHFFFAOYSA-N-P86-P50-P86-601533
     RDKit          3D

 19 20  0  0  0  0  0  0  0  0999 V2000
   -4.6003    5.7835  -15.9609 C   0  0  0  0  0  0  0  0  0  0  0  0
   -5.9592    5.2373  -16.2984 C   0  0  0  0  0  0  0  0  0  0  0  0
   -6.7417    4.8291  -15.1936 C   0  0  0  0  0  0  0  0  0  0  0  0
   -8.0371    4.3397  -15.3348 C   0  0  0  0  0  0  0  0  0  0  0  0
   -8.5735    4.3115  -16.6140 C   0  0  0  0  0  0  0  0  0  0  0  0
   -9.8482    4.0135  -16.9862 N   0  0  0  0  0  0  0  0  0  0  0  0
   -9.9145    4.3617  -18.2419 C   0  0  0  0  0  0  0  0  0  0  0  0
   -8.6785    4.5935  -18.7623 N   0  0  0  0  0  0  0  0  0  0  0  0
   -7.8014    4.6938  -17.7058 C   0  0  0  0  0  0  0  0  0  0  0  0
   -6.4626    5.1123  -17.6103 C   0  0  0  0  0  0  0  0  0  0  0  0
   -5.7969    5.3581  -18.8184 N   0  0  0  0  0  0  0  0  0  0  0  0
   -4.2732    5.5220  -19.1213 C   0  0  0  0  0  0  0  0  0  0  0  0
   -3.3557    5.5531  -18.3966 O   0  0  0  0  0  0  0  0  0  0  0  0
   -4.1435    5.5916  -20.6310 C   0  0  0  0  0  0  0  0  0  0  0  0
   -4.6049    6.9336  -21.1838 C   0  0  0  0  0  0  0  0  0  0  0  0
   -4.8317    6.8452  -22.6945 C   0  0  0  0  0  0  0  0  0  0  0  0
   -5.4917    8.0924  -23.2829 C   0  0  2  0  0  0  0  0  0  0  0  0
   -5.8943    7.8581  -24.7308 C   0  0  0  0  0  0  0  0  0  0  0  0
   -4.6157    9.2099  -23.2444 O   0  0  0  0  0  0  0  0  0  0  0  0
  1  2  1  0
  2  3  2  0
  3  4  1  0
  4  5  2  0
  5  6  1  0
  6  7  2  0
  7  8  1  0
  8  9  1  0
  9 10  2  0
 10 11  1  0
 11 12  1  0
 12 13  2  0
 12 14  1  0
 14 15  1  0
 15 16  1  0
 16 17  1  0
 17 18  1  6
 17 19  1  0
 10  2  1  0
  9  5  1  0
M  END
>  <fragmenstein_outcome>  (913) 
too moved

>  <exports>  (913) 
['/opt/xchem-fragalysis-2/maxwin/openbind-hippo/xx01zvns2b/cycle_01/syndirella/elabs/openbind_xx01zvns2b_c1_elab_chemspace_filtered.sdf']

>  <Energy>  (913) 
27.047357

>  <alias>  (913) 
FCWKHIQDETXNJV-UHFFFAOYSA-N-P86-P50-P86-601533

>  <fragmenstein_runtime>  (913) 
4.461748

>  <scratch_subdir>  (913) 
/opt/xchem-fragalysis-2/maxwin/BulkDock/SCRATCH/601533/FCWKHIQDETXNJV-UHFFFAOYSA-N-P86-P50-P86-601533

>  <HIPPO Compound ID>  (913) 
136742

>  <rmsd(smina/fragmenstein)>  (913) 
0.749

>  <distance_score>  (913) 
1.078039

>  <orig_smiles>  (913) 
Cc1ccc2nc[nH]c2c1NC(=O)CCCC(C)O

>  <fragmenstein_mode>  (913) 
expansion

>  <inchikey>  (913) 
FCWKHIQDETXNJV-UHFFFAOYSA-N

>  <ref_pdb>  (913) 
Z0101a

>  <GNINA pK>  (913) 
nan

>  <gnina_score_min>  (913) 
5.322

>  <tags>  (913) 
xx01zvns2b_c1_elab_bulkdock_input,openbind_xx01zvns2b_c1_elab_nonasap_filtered_scored_top80percent,openbind_xx01zvns2b_c1_elab_chemspace_filtered_scored_top80percent,fragmenstein_placed,openbind_xx01zvns2b_c1_elab_chemspace_filtered_scored,openbind_xx01zvns2b_c1_elab_chemspace_filtered_scored_top40percent,openbind_xx01zvns2b_c1_elab_chemspace_filtered_scored_top20percent,openbind_xx01zvns2b_c1_elab_chemspace_filtered_scored_top60percent,openbind_xx01zvns2b_c1_elabs_filtered

>  <smiles>  (913) 
Cc1ccc2nc[nH]c2c1NC(=O)CCCC(C)O

>  <subsites>  (913) 
1 - Z4590/B/203/1

>  <gnina_score>  (913) 
5.2

>  <HIPPO Pose ID>  (913) 
91761

>  <ref_mols>  (913) 
Z0846a,Z1597a

>  <energy_score>  (913) 
-18.292221

>  <inspiration_score>  (913) 
None

>  <smina_score_min>  (913) 
-6.805

>  <fragmenstein_error>  (913) 


>  <name>  (913) 
FCWKHIQDETXNJV-UHFFFAOYSA-N-P86-P50-P86-601533

$$$$
WCDXDBHATYGOQI-UHFFFAOYSA-N-P50-P50-P86-601533
     RDKit          3D

 19 20  0  0  0  0  0  0  0  0999 V2000
   -5.1227    8.9021  -24.4019 C   0  0  0  0  0  0  0  0  0  0  0  0
   -5.0203    8.6906  -22.8943 C   0  0  0  0  0  0  0  0  0  0  0  0
   -4.7282    7.2351  -22.4906 C   0  0  2  0  0  0  0  0  0  0  0  0
   -5.6496    6.3182  -23.2773 C   0  0  0  0  0  0  0  0  0  0  0  0
   -4.8507    7.0540  -20.9624 C   0  0  0  0  0  0  0  0  0  0  0  0
   -4.4048    5.6790  -20.4669 C   0  0  0  0  0  0  0  0  0  0  0  0
   -4.6059    5.4991  -18.9713 C   0  0  0  0  0  0  0  0  0  0  0  0
   -3.7278    5.5400  -18.1993 O   0  0  0  0  0  0  0  0  0  0  0  0
   -6.1267    5.2444  -18.7564 N   0  0  0  0  0  0  0  0  0  0  0  0
   -6.8306    4.9087  -17.6088 C   0  0  0  0  0  0  0  0  0  0  0  0
   -6.2648    4.8972  -16.3340 C   0  0  0  0  0  0  0  0  0  0  0  0
   -7.0679    4.6445  -15.2174 C   0  0  0  0  0  0  0  0  0  0  0  0
   -6.3936    4.7322  -13.6415 Cl  0  0  0  0  0  0  0  0  0  0  0  0
   -8.4357    4.3913  -15.3140 C   0  0  0  0  0  0  0  0  0  0  0  0
   -8.9659    4.4339  -16.5918 C   0  0  0  0  0  0  0  0  0  0  0  0
  -10.2524    4.3921  -17.0461 N   0  0  0  0  0  0  0  0  0  0  0  0
  -10.2312    4.6672  -18.3735 C   0  0  0  0  0  0  0  0  0  0  0  0
   -9.0089    4.6971  -18.8381 N   0  0  0  0  0  0  0  0  0  0  0  0
   -8.2068    4.6561  -17.7309 C   0  0  0  0  0  0  0  0  0  0  0  0
  1  2  1  0
  2  3  1  0
  3  4  1  6
  3  5  1  0
  5  6  1  0
  6  7  1  0
  7  8  2  0
  7  9  1  0
  9 10  1  0
 10 11  2  0
 11 12  1  0
 12 13  1  0
 12 14  2  0
 14 15  1  0
 15 16  1  0
 16 17  1  0
 17 18  2  0
 18 19  1  0
 19 10  1  0
 19 15  2  0
M  END
>  <fragmenstein_outcome>  (914) 
too moved

>  <exports>  (914) 
['/opt/xchem-fragalysis-2/maxwin/openbind-hippo/xx01zvns2b/cycle_01/syndirella/elabs/openbind_xx01zvns2b_c1_elab_chemspace_filtered.sdf']

>  <Energy>  (914) 
28.620075

>  <alias>  (914) 
WCDXDBHATYGOQI-UHFFFAOYSA-N-P50-P50-P86-601533

>  <fragmenstein_runtime>  (914) 
4.523081

>  <scratch_subdir>  (914) 
/opt/xchem-fragalysis-2/maxwin/BulkDock/SCRATCH/601533/WCDXDBHATYGOQI-UHFFFAOYSA-N-P50-P50-P86-601533

>  <HIPPO Compound ID>  (914) 
136753

>  <rmsd(smina/fragmenstein)>  (914) 
0.63

>  <distance_score>  (914) 
1.062141

>  <orig_smiles>  (914) 
CCC(C)CCC(=O)Nc1cc(Cl)cc2[nH]cnc12

>  <fragmenstein_mode>  (914) 
expansion

>  <inchikey>  (914) 
WCDXDBHATYGOQI-UHFFFAOYSA-N

>  <ref_pdb>  (914) 
Z0101a

>  <GNINA pK>  (914) 
nan

>  <gnina_score_min>  (914) 
5.367

>  <tags>  (914) 
xx01zvns2b_c1_elab_bulkdock_input,openbind_xx01zvns2b_c1_elab_nonasap_filtered_scored_top80percent,openbind_xx01zvns2b_c1_elab_chemspace_filtered_scored_top80percent,fragmenstein_placed,openbind_xx01zvns2b_c1_elab_chemspace_filtered_scored,openbind_xx01zvns2b_c1_elab_chemspace_filtered_scored_top40percent,openbind_xx01zvns2b_c1_elab_chemspace_filtered_scored_top20percent,openbind_xx01zvns2b_c1_elab_chemspace_filtered_scored_top60percent,openbind_xx01zvns2b_c1_elabs_filtered

>  <smiles>  (914) 
CCC(C)CCC(=O)Nc1cc(Cl)cc2[nH]cnc12

>  <subsites>  (914) 
1 - Z4590/B/203/1

>  <gnina_score>  (914) 
5.062

>  <HIPPO Pose ID>  (914) 
91782

>  <ref_mols>  (914) 
Z0846a,Z1597a

>  <energy_score>  (914) 
-3.190867

>  <inspiration_score>  (914) 
None

>  <smina_score_min>  (914) 
-6.349

>  <fragmenstein_error>  (914) 


>  <name>  (914) 
WCDXDBHATYGOQI-UHFFFAOYSA-N-P50-P50-P86-601533

$$$$
WLTVLYHBGSCGRT-UHFFFAOYSA-N-P86-P50-P86-601533
     RDKit          3D

 19 20  0  0  0  0  0  0  0  0999 V2000
   -4.8652    9.2770  -22.8345 C   0  0  0  0  0  0  0  0  0  0  0  0
   -5.0314    7.8337  -23.2784 C   0  0  2  0  0  0  0  0  0  0  0  0
   -6.2091    7.7483  -24.0820 O   0  0  0  0  0  0  0  0  0  0  0  0
   -5.1875    6.8567  -22.1125 C   0  0  0  0  0  0  0  0  0  0  0  0
   -3.9312    6.6420  -21.2708 C   0  0  0  0  0  0  0  0  0  0  0  0
   -4.0318    5.3700  -20.4313 C   0  0  0  0  0  0  0  0  0  0  0  0
   -4.4132    5.5850  -18.9685 C   0  0  0  0  0  0  0  0  0  0  0  0
   -3.6375    5.9645  -18.1788 O   0  0  0  0  0  0  0  0  0  0  0  0
   -5.8882    5.1185  -18.7903 N   0  0  0  0  0  0  0  0  0  0  0  0
   -6.6469    4.9410  -17.6364 C   0  0  0  0  0  0  0  0  0  0  0  0
   -6.1346    5.1196  -16.3481 C   0  0  0  0  0  0  0  0  0  0  0  0
   -6.9454    4.9001  -15.2273 C   0  0  0  0  0  0  0  0  0  0  0  0
   -6.3236    5.1586  -13.6494 Cl  0  0  0  0  0  0  0  0  0  0  0  0
   -8.2803    4.5172  -15.3266 C   0  0  0  0  0  0  0  0  0  0  0  0
   -8.7721    4.4117  -16.6140 C   0  0  0  0  0  0  0  0  0  0  0  0
  -10.0488    4.2712  -17.0784 N   0  0  0  0  0  0  0  0  0  0  0  0
  -10.0062    4.4649  -18.4206 C   0  0  0  0  0  0  0  0  0  0  0  0
   -8.7785    4.4634  -18.8748 N   0  0  0  0  0  0  0  0  0  0  0  0
   -8.0002    4.5809  -17.7573 C   0  0  0  0  0  0  0  0  0  0  0  0
  2  1  1  1
  2  3  1  0
  2  4  1  0
  4  5  1  0
  5  6  1  0
  6  7  1  0
  7  8  2  0
  7  9  1  0
  9 10  1  0
 10 11  2  0
 11 12  1  0
 12 13  1  0
 12 14  2  0
 14 15  1  0
 15 16  1  0
 16 17  1  0
 17 18  2  0
 18 19  1  0
 19 10  1  0
 19 15  2  0
M  END
>  <fragmenstein_outcome>  (915) 
acceptable

>  <exports>  (915) 
['/opt/xchem-fragalysis-2/maxwin/BulkDock/OUTPUTS/xx01zvns2b_c1_elab_bulkdock_input_1GFT1FD.sdf', '/opt/xchem-fragalysis-2/maxwin/openbind-hippo/xx01zvns2b/cycle_01/syndirella/elabs/openbind_xx01zvns2b_c1_elab_chemspace_filtered.sdf']

>  <Energy>  (915) 
30.369615

>  <alias>  (915) 
WLTVLYHBGSCGRT-UHFFFAOYSA-N-P86-P50-P86-601533

>  <fragmenstein_runtime>  (915) 
4.421783

>  <scratch_subdir>  (915) 
/opt/xchem-fragalysis-2/maxwin/BulkDock/SCRATCH/601533/WLTVLYHBGSCGRT-UHFFFAOYSA-N-P86-P50-P86-601533

>  <HIPPO Compound ID>  (915) 
136759

>  <rmsd(smina/fragmenstein)>  (915) 
0.902

>  <distance_score>  (915) 
0.858514

>  <orig_smiles>  (915) 
CC(O)CCCC(=O)Nc1cc(Cl)cc2[nH]cnc12

>  <fragmenstein_mode>  (915) 
expansion

>  <inchikey>  (915) 
WLTVLYHBGSCGRT-UHFFFAOYSA-N

>  <ref_pdb>  (915) 
Z0101a

>  <GNINA pK>  (915) 
nan

>  <gnina_score_min>  (915) 
5.278

>  <tags>  (915) 
xx01zvns2b_c1_elab_bulkdock_input,openbind_xx01zvns2b_c1_elab_nonasap_filtered_scored_top80percent,BulkDock Fragalysis export,openbind_xx01zvns2b_c1_elab_chemspace_filtered_scored_top80percent,fragmenstein_placed,openbind_xx01zvns2b_c1_elab_chemspace_filtered_scored,openbind_xx01zvns2b_c1_elab_chemspace_filtered_scored_top40percent,openbind_xx01zvns2b_c1_elab_chemspace_filtered_scored_top20percent,openbind_xx01zvns2b_c1_elab_chemspace_filtered_scored_top60percent,openbind_xx01zvns2b_c1_elabs_filtered

>  <smiles>  (915) 
CC(O)CCCC(=O)Nc1cc(Cl)cc2[nH]cnc12

>  <subsites>  (915) 
1 - Z4590/B/203/1

>  <gnina_score>  (915) 
5.007

>  <HIPPO Pose ID>  (915) 
91795

>  <ref_mols>  (915) 
Z0846a,Z1597a

>  <energy_score>  (915) 
-18.001803

>  <inspiration_score>  (915) 
None

>  <smina_score_min>  (915) 
-6.583

>  <fragmenstein_error>  (915) 


>  <name>  (915) 
WLTVLYHBGSCGRT-UHFFFAOYSA-N-P86-P50-P86-601533

$$$$
ZWMLYPJPWSFVOI-UHFFFAOYSA-N-P50-P50-P86-601533
     RDKit          3D

 19 20  0  0  0  0  0  0  0  0999 V2000
   -5.8322    7.8751  -24.4795 C   0  0  0  0  0  0  0  0  0  0  0  0
   -5.3989    8.0850  -23.0359 C   0  0  0  0  0  0  0  0  0  0  0  0
   -4.9433    6.7697  -22.4086 C   0  0  0  0  0  0  0  0  0  0  0  0
   -4.7218    6.8395  -20.8914 C   0  0  2  0  0  0  0  0  0  0  0  0
   -3.7135    7.8149  -20.6198 O   0  0  0  0  0  0  0  0  0  0  0  0
   -4.2939    5.4720  -20.3640 C   0  0  0  0  0  0  0  0  0  0  0  0
   -4.5437    5.3195  -18.8763 C   0  0  0  0  0  0  0  0  0  0  0  0
   -3.6873    5.3825  -18.0822 O   0  0  0  0  0  0  0  0  0  0  0  0
   -6.0554    4.9946  -18.7048 N   0  0  0  0  0  0  0  0  0  0  0  0
   -6.8060    4.7839  -17.5593 C   0  0  0  0  0  0  0  0  0  0  0  0
   -6.2770    4.8230  -16.2699 C   0  0  0  0  0  0  0  0  0  0  0  0
   -7.1193    4.6535  -15.1670 C   0  0  0  0  0  0  0  0  0  0  0  0
   -6.4819    4.7778  -13.5788 Cl  0  0  0  0  0  0  0  0  0  0  0  0
   -8.4927    4.4469  -15.2922 C   0  0  0  0  0  0  0  0  0  0  0  0
   -8.9860    4.4518  -16.5856 C   0  0  0  0  0  0  0  0  0  0  0  0
  -10.2602    4.4437  -17.0757 N   0  0  0  0  0  0  0  0  0  0  0  0
  -10.1865    4.6586  -18.4129 C   0  0  0  0  0  0  0  0  0  0  0  0
   -8.9528    4.5925  -18.8447 N   0  0  0  0  0  0  0  0  0  0  0  0
   -8.1872    4.5841  -17.7109 C   0  0  0  0  0  0  0  0  0  0  0  0
  1  2  1  0
  2  3  1  0
  3  4  1  0
  4  5  1  6
  4  6  1  0
  6  7  1  0
  7  8  2  0
  7  9  1  0
  9 10  1  0
 10 11  2  0
 11 12  1  0
 12 13  1  0
 12 14  2  0
 14 15  1  0
 15 16  1  0
 16 17  1  0
 17 18  2  0
 18 19  1  0
 19 10  1  0
 19 15  2  0
M  END
>  <fragmenstein_outcome>  (916) 
acceptable

>  <exports>  (916) 
['/opt/xchem-fragalysis-2/maxwin/BulkDock/OUTPUTS/xx01zvns2b_c1_elab_bulkdock_input_1GFT1FD.sdf', '/opt/xchem-fragalysis-2/maxwin/openbind-hippo/xx01zvns2b/cycle_01/syndirella/elabs/openbind_xx01zvns2b_c1_elab_chemspace_filtered.sdf']

>  <Energy>  (916) 
24.327721

>  <alias>  (916) 
ZWMLYPJPWSFVOI-UHFFFAOYSA-N-P50-P50-P86-601533

>  <fragmenstein_runtime>  (916) 
3.07419

>  <scratch_subdir>  (916) 
/opt/xchem-fragalysis-2/maxwin/BulkDock/SCRATCH/601533/ZWMLYPJPWSFVOI-UHFFFAOYSA-N-P50-P50-P86-601533

>  <HIPPO Compound ID>  (916) 
136764

>  <rmsd(smina/fragmenstein)>  (916) 
1.017

>  <distance_score>  (916) 
0.926725

>  <orig_smiles>  (916) 
CCCC(O)CC(=O)Nc1cc(Cl)cc2[nH]cnc12

>  <fragmenstein_mode>  (916) 
expansion

>  <inchikey>  (916) 
ZWMLYPJPWSFVOI-UHFFFAOYSA-N

>  <ref_pdb>  (916) 
Z0101a

>  <GNINA pK>  (916) 
nan

>  <gnina_score_min>  (916) 
5.294

>  <tags>  (916) 
xx01zvns2b_c1_elab_bulkdock_input,openbind_xx01zvns2b_c1_elab_nonasap_filtered_scored_top80percent,BulkDock Fragalysis export,openbind_xx01zvns2b_c1_elab_chemspace_filtered_scored_top80percent,fragmenstein_placed,openbind_xx01zvns2b_c1_elab_chemspace_filtered_scored,openbind_xx01zvns2b_c1_elab_chemspace_filtered_scored_top40percent,openbind_xx01zvns2b_c1_elab_chemspace_filtered_scored_top20percent,openbind_xx01zvns2b_c1_elab_chemspace_filtered_scored_top60percent,openbind_xx01zvns2b_c1_elabs_filtered

>  <smiles>  (916) 
CCCC(O)CC(=O)Nc1cc(Cl)cc2[nH]cnc12

>  <subsites>  (916) 
1 - Z4590/B/203/1

>  <gnina_score>  (916) 
4.989

>  <HIPPO Pose ID>  (916) 
91804

>  <ref_mols>  (916) 
Z0846a,Z1597a

>  <energy_score>  (916) 
-34.69161

>  <inspiration_score>  (916) 
None

>  <smina_score_min>  (916) 
-6.467

>  <fragmenstein_error>  (916) 


>  <name>  (916) 
ZWMLYPJPWSFVOI-UHFFFAOYSA-N-P50-P50-P86-601533

$$$$
JKYYVCVUVQEYJQ-UHFFFAOYSA-N-P50-P50-P86-601533
     RDKit          3D

 19 20  0  0  0  0  0  0  0  0999 V2000
   -5.8808    7.7955  -24.6134 C   0  0  0  0  0  0  0  0  0  0  0  0
   -5.4364    8.1068  -23.1929 C   0  0  0  0  0  0  0  0  0  0  0  0
   -4.9139    6.8517  -22.4965 C   0  0  0  0  0  0  0  0  0  0  0  0
   -4.6509    7.0488  -20.9998 C   0  0  2  0  0  0  0  0  0  0  0  0
   -3.6781    8.0804  -20.8333 O   0  0  0  0  0  0  0  0  0  0  0  0
   -4.1577    5.7513  -20.3690 C   0  0  0  0  0  0  0  0  0  0  0  0
   -4.4964    5.7018  -18.8926 C   0  0  0  0  0  0  0  0  0  0  0  0
   -3.7144    5.9290  -18.0528 O   0  0  0  0  0  0  0  0  0  0  0  0
   -5.9943    5.2809  -18.7909 N   0  0  0  0  0  0  0  0  0  0  0  0
   -6.7701    4.9760  -17.6830 C   0  0  0  0  0  0  0  0  0  0  0  0
   -6.2589    4.9580  -16.3843 C   0  0  0  0  0  0  0  0  0  0  0  0
   -7.0766    4.6231  -15.3019 C   0  0  0  0  0  0  0  0  0  0  0  0
   -6.4076    4.7204  -13.5443 Br  0  0  0  0  0  0  0  0  0  0  0  0
   -8.4078    4.2614  -15.4649 C   0  0  0  0  0  0  0  0  0  0  0  0
   -8.9331    4.3169  -16.7493 C   0  0  0  0  0  0  0  0  0  0  0  0
  -10.2216    4.1354  -17.1434 N   0  0  0  0  0  0  0  0  0  0  0  0
  -10.2543    4.5897  -18.3664 C   0  0  0  0  0  0  0  0  0  0  0  0
   -9.0005    4.7503  -18.8733 N   0  0  0  0  0  0  0  0  0  0  0  0
   -8.1253    4.6817  -17.8203 C   0  0  0  0  0  0  0  0  0  0  0  0
  1  2  1  0
  2  3  1  0
  3  4  1  0
  4  5  1  6
  4  6  1  0
  6  7  1  0
  7  8  2  0
  7  9  1  0
  9 10  1  0
 10 11  2  0
 11 12  1  0
 12 13  1  0
 12 14  2  0
 14 15  1  0
 15 16  1  0
 16 17  2  0
 17 18  1  0
 18 19  1  0
 19 10  1  0
 19 15  2  0
M  END
>  <fragmenstein_outcome>  (917) 
acceptable

>  <exports>  (917) 
['/opt/xchem-fragalysis-2/maxwin/BulkDock/OUTPUTS/xx01zvns2b_c1_elab_bulkdock_input_1GFT1FD.sdf', '/opt/xchem-fragalysis-2/maxwin/openbind-hippo/xx01zvns2b/cycle_01/syndirella/elabs/openbind_xx01zvns2b_c1_elab_chemspace_filtered.sdf']

>  <Energy>  (917) 
6.131259

>  <alias>  (917) 
JKYYVCVUVQEYJQ-UHFFFAOYSA-N-P50-P50-P86-601533

>  <fragmenstein_runtime>  (917) 
3.013891

>  <scratch_subdir>  (917) 
/opt/xchem-fragalysis-2/maxwin/BulkDock/SCRATCH/601533/JKYYVCVUVQEYJQ-UHFFFAOYSA-N-P50-P50-P86-601533

>  <HIPPO Compound ID>  (917) 
136765

>  <rmsd(smina/fragmenstein)>  (917) 
0.963

>  <distance_score>  (917) 
0.93791

>  <orig_smiles>  (917) 
CCCC(O)CC(=O)Nc1cc(Br)cc2nc[nH]c12

>  <fragmenstein_mode>  (917) 
expansion

>  <inchikey>  (917) 
JKYYVCVUVQEYJQ-UHFFFAOYSA-N

>  <ref_pdb>  (917) 
Z0101a

>  <GNINA pK>  (917) 
nan

>  <gnina_score_min>  (917) 
5.474

>  <tags>  (917) 
xx01zvns2b_c1_elab_bulkdock_input,openbind_xx01zvns2b_c1_elab_nonasap_filtered_scored_top80percent,BulkDock Fragalysis export,openbind_xx01zvns2b_c1_elab_chemspace_filtered_scored_top80percent,fragmenstein_placed,openbind_xx01zvns2b_c1_elab_chemspace_filtered_scored,openbind_xx01zvns2b_c1_elab_chemspace_filtered_scored_top40percent,openbind_xx01zvns2b_c1_elab_chemspace_filtered_scored_top20percent,openbind_xx01zvns2b_c1_elab_chemspace_filtered_scored_top60percent,openbind_xx01zvns2b_c1_elabs_filtered

>  <smiles>  (917) 
CCCC(O)CC(=O)Nc1cc(Br)cc2nc[nH]c12

>  <subsites>  (917) 
1 - Z4590/B/203/1

>  <gnina_score>  (917) 
5.261

>  <HIPPO Pose ID>  (917) 
91806

>  <ref_mols>  (917) 
Z0846a,Z1597a

>  <energy_score>  (917) 
-21.219538

>  <inspiration_score>  (917) 
None

>  <smina_score_min>  (917) 
-7.042

>  <fragmenstein_error>  (917) 


>  <name>  (917) 
JKYYVCVUVQEYJQ-UHFFFAOYSA-N-P50-P50-P86-601533

$$$$
KQBMHULPCUPHAV-UHFFFAOYSA-N-P86-P50-P86-601533
     RDKit          3D

 19 20  0  0  0  0  0  0  0  0999 V2000
   -5.8913    7.9075  -24.6858 C   0  0  0  0  0  0  0  0  0  0  0  0
   -5.3664    8.1227  -23.2755 C   0  0  0  0  0  0  0  0  0  0  0  0
   -4.8780    6.8079  -22.6719 C   0  0  0  0  0  0  0  0  0  0  0  0
   -4.4975    6.9263  -21.1932 C   0  0  2  0  0  0  0  0  0  0  0  0
   -3.3963    7.8279  -21.0851 O   0  0  0  0  0  0  0  0  0  0  0  0
   -4.1215    5.5565  -20.6442 C   0  0  0  0  0  0  0  0  0  0  0  0
   -4.2761    5.5188  -19.1382 C   0  0  0  0  0  0  0  0  0  0  0  0
   -3.3641    5.5922  -18.4091 O   0  0  0  0  0  0  0  0  0  0  0  0
   -5.7974    5.3301  -18.8396 N   0  0  0  0  0  0  0  0  0  0  0  0
   -6.4660    5.1058  -17.6279 C   0  0  0  0  0  0  0  0  0  0  0  0
   -5.9643    5.2405  -16.3158 C   0  0  0  0  0  0  0  0  0  0  0  0
   -4.6056    5.7869  -15.9781 C   0  0  0  0  0  0  0  0  0  0  0  0
   -6.7471    4.8380  -15.2086 C   0  0  0  0  0  0  0  0  0  0  0  0
   -8.0414    4.3457  -15.3470 C   0  0  0  0  0  0  0  0  0  0  0  0
   -8.5780    4.3129  -16.6257 C   0  0  0  0  0  0  0  0  0  0  0  0
   -9.8535    4.0159  -16.9952 N   0  0  0  0  0  0  0  0  0  0  0  0
   -9.9218    4.3649  -18.2505 C   0  0  0  0  0  0  0  0  0  0  0  0
   -8.6861    4.5918  -18.7742 N   0  0  0  0  0  0  0  0  0  0  0  0
   -7.8060    4.6898  -17.7198 C   0  0  0  0  0  0  0  0  0  0  0  0
  1  2  1  0
  2  3  1  0
  3  4  1  0
  4  5  1  6
  4  6  1  0
  6  7  1  0
  7  8  2  0
  7  9  1  0
  9 10  1  0
 10 11  2  0
 11 12  1  0
 11 13  1  0
 13 14  2  0
 14 15  1  0
 15 16  1  0
 16 17  2  0
 17 18  1  0
 18 19  1  0
 19 10  1  0
 19 15  2  0
M  END
>  <fragmenstein_outcome>  (918) 
too moved

>  <exports>  (918) 
['/opt/xchem-fragalysis-2/maxwin/openbind-hippo/xx01zvns2b/cycle_01/syndirella/elabs/openbind_xx01zvns2b_c1_elab_chemspace_filtered.sdf']

>  <Energy>  (918) 
25.090527

>  <alias>  (918) 
KQBMHULPCUPHAV-UHFFFAOYSA-N-P86-P50-P86-601533

>  <fragmenstein_runtime>  (918) 
3.858961

>  <scratch_subdir>  (918) 
/opt/xchem-fragalysis-2/maxwin/BulkDock/SCRATCH/601533/KQBMHULPCUPHAV-UHFFFAOYSA-N-P86-P50-P86-601533

>  <HIPPO Compound ID>  (918) 
136766

>  <rmsd(smina/fragmenstein)>  (918) 
0.822

>  <distance_score>  (918) 
1.093094

>  <orig_smiles>  (918) 
CCCC(O)CC(=O)Nc1c(C)ccc2nc[nH]c12

>  <fragmenstein_mode>  (918) 
expansion

>  <inchikey>  (918) 
KQBMHULPCUPHAV-UHFFFAOYSA-N

>  <ref_pdb>  (918) 
Z0101a

>  <GNINA pK>  (918) 
nan

>  <gnina_score_min>  (918) 
5.247

>  <tags>  (918) 
xx01zvns2b_c1_elab_bulkdock_input,openbind_xx01zvns2b_c1_elab_nonasap_filtered_scored_top80percent,openbind_xx01zvns2b_c1_elab_chemspace_filtered_scored_top80percent,fragmenstein_placed,openbind_xx01zvns2b_c1_elab_chemspace_filtered_scored,openbind_xx01zvns2b_c1_elab_chemspace_filtered_scored_top40percent,openbind_xx01zvns2b_c1_elab_chemspace_filtered_scored_top20percent,openbind_xx01zvns2b_c1_elab_chemspace_filtered_scored_top60percent,openbind_xx01zvns2b_c1_elabs_filtered

>  <smiles>  (918) 
CCCC(O)CC(=O)Nc1c(C)ccc2nc[nH]c12

>  <subsites>  (918) 
1 - Z4590/B/203/1

>  <gnina_score>  (918) 
5.172

>  <HIPPO Pose ID>  (918) 
91809

>  <ref_mols>  (918) 
Z0846a,Z1597a

>  <energy_score>  (918) 
-32.794686

>  <inspiration_score>  (918) 
None

>  <smina_score_min>  (918) 
-6.879

>  <fragmenstein_error>  (918) 


>  <name>  (918) 
KQBMHULPCUPHAV-UHFFFAOYSA-N-P86-P50-P86-601533

$$$$
VYNLNLLLXUIECZ-UHFFFAOYSA-N-P50-P50-P86-601533
     RDKit          3D

 19 20  0  0  0  0  0  0  0  0999 V2000
   -4.0308    5.8517  -18.8901 O   0  0  0  0  0  0  0  0  0  0  0  0
   -4.9996    5.7191  -19.5318 C   0  0  0  0  0  0  0  0  0  0  0  0
   -5.1431    6.0163  -21.0171 C   0  0  0  0  0  0  0  0  0  0  0  0
   -3.8976    6.5176  -21.7398 C   0  0  0  0  0  0  0  0  0  0  0  0
   -4.2137    6.7987  -23.2302 C   0  0  0  0  0  0  0  0  0  0  0  0
   -4.4907    8.2608  -23.5412 C   0  0  0  0  0  0  0  0  0  0  0  0
   -5.6469    8.8079  -22.7508 C   0  0  0  0  0  0  0  0  0  0  0  0
   -5.3145    8.8755  -21.4350 F   0  0  0  0  0  0  0  0  0  0  0  0
   -6.4459    5.3119  -19.1073 N   0  0  0  0  0  0  0  0  0  0  0  0
   -6.9432    4.9125  -17.8781 C   0  0  0  0  0  0  0  0  0  0  0  0
   -6.2260    4.8992  -16.6836 C   0  0  0  0  0  0  0  0  0  0  0  0
   -6.8917    4.6173  -15.4824 C   0  0  0  0  0  0  0  0  0  0  0  0
   -6.0553    4.7224  -13.9861 Cl  0  0  0  0  0  0  0  0  0  0  0  0
   -8.2560    4.3250  -15.4196 C   0  0  0  0  0  0  0  0  0  0  0  0
   -8.9317    4.3698  -16.6255 C   0  0  0  0  0  0  0  0  0  0  0  0
  -10.2564    4.2955  -16.9331 N   0  0  0  0  0  0  0  0  0  0  0  0
  -10.4045    4.5911  -18.2470 C   0  0  0  0  0  0  0  0  0  0  0  0
   -9.2471    4.6774  -18.8478 N   0  0  0  0  0  0  0  0  0  0  0  0
   -8.3185    4.6285  -17.8392 C   0  0  0  0  0  0  0  0  0  0  0  0
  1  2  2  0
  2  3  1  0
  3  4  1  0
  4  5  1  0
  5  6  1  0
  6  7  1  0
  7  8  1  0
  2  9  1  0
  9 10  1  0
 10 11  2  0
 11 12  1  0
 12 13  1  0
 12 14  2  0
 14 15  1  0
 15 16  1  0
 16 17  1  0
 17 18  2  0
 18 19  1  0
 19 10  1  0
 19 15  2  0
M  END
>  <fragmenstein_outcome>  (919) 
too moved

>  <exports>  (919) 
['/opt/xchem-fragalysis-2/maxwin/openbind-hippo/xx01zvns2b/cycle_01/syndirella/elabs/openbind_xx01zvns2b_c1_elab_chemspace_filtered.sdf']

>  <Energy>  (919) 
27.572303

>  <alias>  (919) 
VYNLNLLLXUIECZ-UHFFFAOYSA-N-P50-P50-P86-601533

>  <fragmenstein_runtime>  (919) 
2.355389

>  <scratch_subdir>  (919) 
/opt/xchem-fragalysis-2/maxwin/BulkDock/SCRATCH/601533/VYNLNLLLXUIECZ-UHFFFAOYSA-N-P50-P50-P86-601533

>  <HIPPO Compound ID>  (919) 
136768

>  <rmsd(smina/fragmenstein)>  (919) 
1.22

>  <distance_score>  (919) 
1.709129

>  <orig_smiles>  (919) 
O=C(CCCCCF)Nc1cc(Cl)cc2[nH]cnc12

>  <fragmenstein_mode>  (919) 
expansion

>  <inchikey>  (919) 
VYNLNLLLXUIECZ-UHFFFAOYSA-N

>  <ref_pdb>  (919) 
Z0101a

>  <GNINA pK>  (919) 
nan

>  <gnina_score_min>  (919) 
5.301

>  <tags>  (919) 
xx01zvns2b_c1_elab_bulkdock_input,openbind_xx01zvns2b_c1_elab_nonasap_filtered_scored_top80percent,openbind_xx01zvns2b_c1_elab_chemspace_filtered_scored_top80percent,fragmenstein_placed,openbind_xx01zvns2b_c1_elab_chemspace_filtered_scored,openbind_xx01zvns2b_c1_elab_chemspace_filtered_scored_top40percent,openbind_xx01zvns2b_c1_elab_chemspace_filtered_scored_top20percent,openbind_xx01zvns2b_c1_elab_chemspace_filtered_scored_top60percent,openbind_xx01zvns2b_c1_elabs_filtered

>  <smiles>  (919) 
O=C(CCCCCF)Nc1cc(Cl)cc2[nH]cnc12

>  <subsites>  (919) 
1 - Z4590/B/203/1

>  <gnina_score>  (919) 
4.968

>  <HIPPO Pose ID>  (919) 
91812

>  <ref_mols>  (919) 
Z0846a,Z1597a

>  <energy_score>  (919) 
-16.010877

>  <inspiration_score>  (919) 
None

>  <smina_score_min>  (919) 
-6.085

>  <fragmenstein_error>  (919) 


>  <name>  (919) 
VYNLNLLLXUIECZ-UHFFFAOYSA-N-P50-P50-P86-601533

$$$$
FFUUOXUZVDFSDL-UHFFFAOYSA-N-P50-P50-P86-601533
     RDKit          3D

 19 20  0  0  0  0  0  0  0  0999 V2000
   -3.8070    6.2361  -18.3927 O   0  0  0  0  0  0  0  0  0  0  0  0
   -4.6233    5.9563  -19.1861 C   0  0  0  0  0  0  0  0  0  0  0  0
   -4.2748    5.9881  -20.6925 C   0  0  0  0  0  0  0  0  0  0  0  0
   -5.4175    6.2088  -21.6878 C   0  0  0  0  0  0  0  0  0  0  0  0
   -5.0592    6.6780  -23.1083 C   0  0  0  0  0  0  0  0  0  0  0  0
   -5.1902    8.1816  -23.2994 C   0  0  0  0  0  0  0  0  0  0  0  0
   -4.2937    8.9427  -22.3519 C   0  0  0  0  0  0  0  0  0  0  0  0
   -4.7279    8.7704  -21.0763 F   0  0  0  0  0  0  0  0  0  0  0  0
   -6.0788    5.4256  -18.9950 N   0  0  0  0  0  0  0  0  0  0  0  0
   -6.7612    5.0573  -17.8406 C   0  0  0  0  0  0  0  0  0  0  0  0
   -6.1763    5.0498  -16.5725 C   0  0  0  0  0  0  0  0  0  0  0  0
   -6.9148    4.6641  -15.4469 C   0  0  0  0  0  0  0  0  0  0  0  0
   -6.1591    4.7799  -13.7251 Br  0  0  0  0  0  0  0  0  0  0  0  0
   -8.2358    4.2407  -15.5329 C   0  0  0  0  0  0  0  0  0  0  0  0
   -8.8386    4.2967  -16.7815 C   0  0  0  0  0  0  0  0  0  0  0  0
  -10.1437    4.0780  -17.0957 N   0  0  0  0  0  0  0  0  0  0  0  0
  -10.2674    4.5413  -18.3099 C   0  0  0  0  0  0  0  0  0  0  0  0
   -9.0530    4.7544  -18.8889 N   0  0  0  0  0  0  0  0  0  0  0  0
   -8.1107    4.7046  -17.8938 C   0  0  0  0  0  0  0  0  0  0  0  0
  1  2  2  0
  2  3  1  0
  3  4  1  0
  4  5  1  0
  5  6  1  0
  6  7  1  0
  7  8  1  0
  2  9  1  0
  9 10  1  0
 10 11  2  0
 11 12  1  0
 12 13  1  0
 12 14  2  0
 14 15  1  0
 15 16  1  0
 16 17  2  0
 17 18  1  0
 18 19  1  0
 19 10  1  0
 19 15  2  0
M  END
>  <fragmenstein_outcome>  (920) 
too moved

>  <exports>  (920) 
['/opt/xchem-fragalysis-2/maxwin/openbind-hippo/xx01zvns2b/cycle_01/syndirella/elabs/openbind_xx01zvns2b_c1_elab_chemspace_filtered.sdf']

>  <Energy>  (920) 
11.786227

>  <alias>  (920) 
FFUUOXUZVDFSDL-UHFFFAOYSA-N-P50-P50-P86-601533

>  <fragmenstein_runtime>  (920) 
2.885644

>  <scratch_subdir>  (920) 
/opt/xchem-fragalysis-2/maxwin/BulkDock/SCRATCH/601533/FFUUOXUZVDFSDL-UHFFFAOYSA-N-P50-P50-P86-601533

>  <HIPPO Compound ID>  (920) 
136769

>  <rmsd(smina/fragmenstein)>  (920) 
0.979

>  <distance_score>  (920) 
1.878599

>  <orig_smiles>  (920) 
O=C(CCCCCF)Nc1cc(Br)cc2nc[nH]c12

>  <fragmenstein_mode>  (920) 
expansion

>  <inchikey>  (920) 
FFUUOXUZVDFSDL-UHFFFAOYSA-N

>  <ref_pdb>  (920) 
Z0101a

>  <GNINA pK>  (920) 
nan

>  <gnina_score_min>  (920) 
5.646

>  <tags>  (920) 
xx01zvns2b_c1_elab_bulkdock_input,openbind_xx01zvns2b_c1_elab_nonasap_filtered_scored_top80percent,openbind_xx01zvns2b_c1_elab_chemspace_filtered_scored_top80percent,fragmenstein_placed,openbind_xx01zvns2b_c1_elab_chemspace_filtered_scored,openbind_xx01zvns2b_c1_elab_chemspace_filtered_scored_top40percent,openbind_xx01zvns2b_c1_elab_chemspace_filtered_scored_top20percent,openbind_xx01zvns2b_c1_elab_chemspace_filtered_scored_top60percent,openbind_xx01zvns2b_c1_elabs_filtered

>  <smiles>  (920) 
O=C(CCCCCF)Nc1cc(Br)cc2nc[nH]c12

>  <subsites>  (920) 
1 - Z4590/B/203/1

>  <gnina_score>  (920) 
5.328

>  <HIPPO Pose ID>  (920) 
91814

>  <ref_mols>  (920) 
Z0846a,Z1597a

>  <energy_score>  (920) 
-10.346395

>  <inspiration_score>  (920) 
None

>  <smina_score_min>  (920) 
-6.55

>  <fragmenstein_error>  (920) 


>  <name>  (920) 
FFUUOXUZVDFSDL-UHFFFAOYSA-N-P50-P50-P86-601533

$$$$
GTQNMOVIJQCZRL-UHFFFAOYSA-N-P86-P50-P86-601533
     RDKit          3D

 19 20  0  0  0  0  0  0  0  0999 V2000
   -4.2885    5.6376  -16.2716 C   0  0  0  0  0  0  0  0  0  0  0  0
   -5.7222    5.2550  -16.5164 C   0  0  0  0  0  0  0  0  0  0  0  0
   -6.4778    4.9416  -15.3592 C   0  0  0  0  0  0  0  0  0  0  0  0
   -7.7891    4.4773  -15.4223 C   0  0  0  0  0  0  0  0  0  0  0  0
   -8.3692    4.3784  -16.6784 C   0  0  0  0  0  0  0  0  0  0  0  0
   -9.6608    4.0658  -16.9805 N   0  0  0  0  0  0  0  0  0  0  0  0
   -9.7725    4.3393  -18.2523 C   0  0  0  0  0  0  0  0  0  0  0  0
   -8.5606    4.5692  -18.8287 N   0  0  0  0  0  0  0  0  0  0  0  0
   -7.6374    4.7041  -17.8169 C   0  0  0  0  0  0  0  0  0  0  0  0
   -6.2988    5.1428  -17.8003 C   0  0  0  0  0  0  0  0  0  0  0  0
   -5.6916    5.3790  -19.0460 N   0  0  0  0  0  0  0  0  0  0  0  0
   -4.3713    6.1403  -19.4052 C   0  0  0  0  0  0  0  0  0  0  0  0
   -3.6361    6.7488  -18.7238 O   0  0  0  0  0  0  0  0  0  0  0  0
   -4.0570    5.8949  -20.8939 C   0  0  0  0  0  0  0  0  0  0  0  0
   -5.2396    6.0920  -21.8423 C   0  0  0  0  0  0  0  0  0  0  0  0
   -4.9395    6.6332  -23.2483 C   0  0  0  0  0  0  0  0  0  0  0  0
   -5.1607    8.1349  -23.3718 C   0  0  0  0  0  0  0  0  0  0  0  0
   -4.3236    8.9132  -22.3828 C   0  0  0  0  0  0  0  0  0  0  0  0
   -4.7545    8.6640  -21.1207 F   0  0  0  0  0  0  0  0  0  0  0  0
  1  2  1  0
  2  3  2  0
  3  4  1  0
  4  5  2  0
  5  6  1  0
  6  7  2  0
  7  8  1  0
  8  9  1  0
  9 10  2  0
 10 11  1  0
 11 12  1  0
 12 13  2  0
 12 14  1  0
 14 15  1  0
 15 16  1  0
 16 17  1  0
 17 18  1  0
 18 19  1  0
 10  2  1  0
  9  5  1  0
M  END
>  <fragmenstein_outcome>  (921) 
too moved

>  <exports>  (921) 
['/opt/xchem-fragalysis-2/maxwin/openbind-hippo/xx01zvns2b/cycle_01/syndirella/elabs/openbind_xx01zvns2b_c1_elab_chemspace_filtered.sdf']

>  <Energy>  (921) 
29.180953

>  <alias>  (921) 
GTQNMOVIJQCZRL-UHFFFAOYSA-N-P86-P50-P86-601533

>  <fragmenstein_runtime>  (921) 
3.390138

>  <scratch_subdir>  (921) 
/opt/xchem-fragalysis-2/maxwin/BulkDock/SCRATCH/601533/GTQNMOVIJQCZRL-UHFFFAOYSA-N-P86-P50-P86-601533

>  <HIPPO Compound ID>  (921) 
136770

>  <rmsd(smina/fragmenstein)>  (921) 
0.976

>  <distance_score>  (921) 
1.50913

>  <orig_smiles>  (921) 
Cc1ccc2nc[nH]c2c1NC(=O)CCCCCF

>  <fragmenstein_mode>  (921) 
expansion

>  <inchikey>  (921) 
GTQNMOVIJQCZRL-UHFFFAOYSA-N

>  <ref_pdb>  (921) 
Z0101a

>  <GNINA pK>  (921) 
nan

>  <gnina_score_min>  (921) 
5.545

>  <tags>  (921) 
xx01zvns2b_c1_elab_bulkdock_input,openbind_xx01zvns2b_c1_elab_nonasap_filtered_scored_top80percent,openbind_xx01zvns2b_c1_elab_chemspace_filtered_scored_top80percent,fragmenstein_placed,openbind_xx01zvns2b_c1_elab_chemspace_filtered_scored,openbind_xx01zvns2b_c1_elab_chemspace_filtered_scored_top40percent,openbind_xx01zvns2b_c1_elab_chemspace_filtered_scored_top20percent,openbind_xx01zvns2b_c1_elab_chemspace_filtered_scored_top60percent,openbind_xx01zvns2b_c1_elabs_filtered

>  <smiles>  (921) 
Cc1ccc2nc[nH]c2c1NC(=O)CCCCCF

>  <subsites>  (921) 
1 - Z4590/B/203/1

>  <gnina_score>  (921) 
5.219

>  <HIPPO Pose ID>  (921) 
91817

>  <ref_mols>  (921) 
Z0846a,Z1597a

>  <energy_score>  (921) 
-4.376147

>  <inspiration_score>  (921) 
None

>  <smina_score_min>  (921) 
-6.55

>  <fragmenstein_error>  (921) 


>  <name>  (921) 
GTQNMOVIJQCZRL-UHFFFAOYSA-N-P86-P50-P86-601533

$$$$
DXWFGUGMDFNMGJ-UHFFFAOYSA-N-P50-P50-P86-601533
     RDKit          3D

 19 20  0  0  0  0  0  0  0  0999 V2000
   -5.8707    7.7318  -24.5905 C   0  0  0  0  0  0  0  0  0  0  0  0
   -5.4316    8.0907  -23.1792 C   0  0  0  0  0  0  0  0  0  0  0  0
   -4.8699    6.8713  -22.4508 C   0  0  0  0  0  0  0  0  0  0  0  0
   -4.6537    7.0679  -20.9381 C   0  0  2  0  0  0  0  0  0  0  0  0
   -3.7117    8.2349  -20.6314 C   0  0  0  0  0  0  0  0  0  0  0  0
   -4.1069    5.7708  -20.3253 C   0  0  0  0  0  0  0  0  0  0  0  0
   -4.4282    5.6242  -18.8463 C   0  0  0  0  0  0  0  0  0  0  0  0
   -3.6325    5.7557  -17.9992 O   0  0  0  0  0  0  0  0  0  0  0  0
   -5.9227    5.1854  -18.7693 N   0  0  0  0  0  0  0  0  0  0  0  0
   -6.7290    4.9234  -17.6705 C   0  0  0  0  0  0  0  0  0  0  0  0
   -6.2391    4.8977  -16.3638 C   0  0  0  0  0  0  0  0  0  0  0  0
   -7.0838    4.5983  -15.2916 C   0  0  0  0  0  0  0  0  0  0  0  0
   -6.4385    4.6864  -13.5246 Br  0  0  0  0  0  0  0  0  0  0  0  0
   -8.4235    4.2779  -15.4722 C   0  0  0  0  0  0  0  0  0  0  0  0
   -8.9264    4.3384  -16.7653 C   0  0  0  0  0  0  0  0  0  0  0  0
  -10.2139    4.1909  -17.1788 N   0  0  0  0  0  0  0  0  0  0  0  0
  -10.2106    4.6180  -18.4117 C   0  0  0  0  0  0  0  0  0  0  0  0
   -8.9440    4.7415  -18.8955 N   0  0  0  0  0  0  0  0  0  0  0  0
   -8.0907    4.6699  -17.8259 C   0  0  0  0  0  0  0  0  0  0  0  0
  1  2  1  0
  2  3  1  0
  3  4  1  0
  4  5  1  6
  4  6  1  0
  6  7  1  0
  7  8  2  0
  7  9  1  0
  9 10  1  0
 10 11  2  0
 11 12  1  0
 12 13  1  0
 12 14  2  0
 14 15  1  0
 15 16  1  0
 16 17  2  0
 17 18  1  0
 18 19  1  0
 19 10  1  0
 19 15  2  0
M  END
>  <fragmenstein_outcome>  (922) 
acceptable

>  <exports>  (922) 
['/opt/xchem-fragalysis-2/maxwin/BulkDock/OUTPUTS/xx01zvns2b_c1_elab_bulkdock_input_1GFT1FD.sdf', '/opt/xchem-fragalysis-2/maxwin/openbind-hippo/xx01zvns2b/cycle_01/syndirella/elabs/openbind_xx01zvns2b_c1_elab_chemspace_filtered.sdf']

>  <Energy>  (922) 
5.781435

>  <alias>  (922) 
DXWFGUGMDFNMGJ-UHFFFAOYSA-N-P50-P50-P86-601533

>  <fragmenstein_runtime>  (922) 
4.314618

>  <scratch_subdir>  (922) 
/opt/xchem-fragalysis-2/maxwin/BulkDock/SCRATCH/601533/DXWFGUGMDFNMGJ-UHFFFAOYSA-N-P50-P50-P86-601533

>  <HIPPO Compound ID>  (922) 
136781

>  <rmsd(smina/fragmenstein)>  (922) 
0.961

>  <distance_score>  (922) 
0.874527

>  <orig_smiles>  (922) 
CCCC(C)CC(=O)Nc1cc(Br)cc2nc[nH]c12

>  <fragmenstein_mode>  (922) 
expansion

>  <inchikey>  (922) 
DXWFGUGMDFNMGJ-UHFFFAOYSA-N

>  <ref_pdb>  (922) 
Z0101a

>  <GNINA pK>  (922) 
nan

>  <gnina_score_min>  (922) 
5.713

>  <tags>  (922) 
xx01zvns2b_c1_elab_bulkdock_input,openbind_xx01zvns2b_c1_elab_nonasap_filtered_scored_top80percent,BulkDock Fragalysis export,openbind_xx01zvns2b_c1_elab_chemspace_filtered_scored_top80percent,fragmenstein_placed,openbind_xx01zvns2b_c1_elab_chemspace_filtered_scored,openbind_xx01zvns2b_c1_elab_chemspace_filtered_scored_top40percent,openbind_xx01zvns2b_c1_elab_chemspace_filtered_scored_top20percent,openbind_xx01zvns2b_c1_elab_chemspace_filtered_scored_top60percent,openbind_xx01zvns2b_c1_elabs_filtered

>  <smiles>  (922) 
CCCC(C)CC(=O)Nc1cc(Br)cc2nc[nH]c12

>  <subsites>  (922) 
1 - Z4590/B/203/1

>  <gnina_score>  (922) 
5.452

>  <HIPPO Pose ID>  (922) 
91838

>  <ref_mols>  (922) 
Z0846a,Z1597a

>  <energy_score>  (922) 
-12.817947

>  <inspiration_score>  (922) 
None

>  <smina_score_min>  (922) 
-7.082

>  <fragmenstein_error>  (922) 


>  <name>  (922) 
DXWFGUGMDFNMGJ-UHFFFAOYSA-N-P50-P50-P86-601533

$$$$
IBKQHWBSOBDVSK-UHFFFAOYSA-N-P86-P50-P86-601533
     RDKit          3D

 19 20  0  0  0  0  0  0  0  0999 V2000
   -5.9229    8.1014  -24.6295 C   0  0  0  0  0  0  0  0  0  0  0  0
   -5.3027    8.2960  -23.2563 C   0  0  0  0  0  0  0  0  0  0  0  0
   -5.1121    6.9793  -22.5337 C   0  0  0  0  0  0  0  0  0  0  0  0
   -5.4933    5.9264  -23.0361 O   0  0  0  0  0  0  0  0  0  0  0  0
   -4.4665    7.0507  -21.1625 C   0  0  0  0  0  0  0  0  0  0  0  0
   -4.1349    5.6888  -20.5730 C   0  0  0  0  0  0  0  0  0  0  0  0
   -4.4374    5.6707  -19.0858 C   0  0  0  0  0  0  0  0  0  0  0  0
   -3.6456    5.9562  -18.2745 O   0  0  0  0  0  0  0  0  0  0  0  0
   -5.9242    5.2349  -18.9346 N   0  0  0  0  0  0  0  0  0  0  0  0
   -6.6776    4.9810  -17.7962 C   0  0  0  0  0  0  0  0  0  0  0  0
   -6.1712    5.0999  -16.4990 C   0  0  0  0  0  0  0  0  0  0  0  0
   -6.9676    4.7965  -15.3876 C   0  0  0  0  0  0  0  0  0  0  0  0
   -6.3064    5.0505  -13.6419 Br  0  0  0  0  0  0  0  0  0  0  0  0
   -8.2742    4.3425  -15.5137 C   0  0  0  0  0  0  0  0  0  0  0  0
   -8.8012    4.2887  -16.7961 C   0  0  0  0  0  0  0  0  0  0  0  0
  -10.0907    4.0718  -17.1602 N   0  0  0  0  0  0  0  0  0  0  0  0
  -10.1360    4.4381  -18.4108 C   0  0  0  0  0  0  0  0  0  0  0  0
   -8.8897    4.5388  -18.9495 N   0  0  0  0  0  0  0  0  0  0  0  0
   -8.0134    4.6054  -17.8976 C   0  0  0  0  0  0  0  0  0  0  0  0
  1  2  1  0
  2  3  1  0
  3  4  2  0
  3  5  1  0
  5  6  1  0
  6  7  1  0
  7  8  2  0
  7  9  1  0
  9 10  1  0
 10 11  2  0
 11 12  1  0
 12 13  1  0
 12 14  2  0
 14 15  1  0
 15 16  1  0
 16 17  2  0
 17 18  1  0
 18 19  1  0
 19 10  1  0
 19 15  2  0
M  END
>  <fragmenstein_outcome>  (923) 
acceptable

>  <exports>  (923) 
['/opt/xchem-fragalysis-2/maxwin/BulkDock/OUTPUTS/xx01zvns2b_c1_elab_bulkdock_input_1GFT1FD.sdf', '/opt/xchem-fragalysis-2/maxwin/openbind-hippo/xx01zvns2b/cycle_01/syndirella/elabs/openbind_xx01zvns2b_c1_elab_chemspace_filtered.sdf']

>  <Energy>  (923) 
-6.012324

>  <alias>  (923) 
IBKQHWBSOBDVSK-UHFFFAOYSA-N-P86-P50-P86-601533

>  <fragmenstein_runtime>  (923) 
3.333666

>  <scratch_subdir>  (923) 
/opt/xchem-fragalysis-2/maxwin/BulkDock/SCRATCH/601533/IBKQHWBSOBDVSK-UHFFFAOYSA-N-P86-P50-P86-601533

>  <HIPPO Compound ID>  (923) 
136783

>  <rmsd(smina/fragmenstein)>  (923) 
0.671

>  <distance_score>  (923) 
0.989197

>  <orig_smiles>  (923) 
CCC(=O)CCC(=O)Nc1cc(Br)cc2nc[nH]c12

>  <fragmenstein_mode>  (923) 
expansion

>  <inchikey>  (923) 
IBKQHWBSOBDVSK-UHFFFAOYSA-N

>  <ref_pdb>  (923) 
Z0101a

>  <GNINA pK>  (923) 
nan

>  <gnina_score_min>  (923) 
5.492

>  <tags>  (923) 
xx01zvns2b_c1_elab_bulkdock_input,openbind_xx01zvns2b_c1_elab_nonasap_filtered_scored_top80percent,BulkDock Fragalysis export,openbind_xx01zvns2b_c1_elab_chemspace_filtered_scored_top80percent,fragmenstein_placed,openbind_xx01zvns2b_c1_elab_chemspace_filtered_scored,openbind_xx01zvns2b_c1_elab_chemspace_filtered_scored_top40percent,openbind_xx01zvns2b_c1_elab_chemspace_filtered_scored_top20percent,openbind_xx01zvns2b_c1_elab_chemspace_filtered_scored_top60percent,openbind_xx01zvns2b_c1_elabs_filtered

>  <smiles>  (923) 
CCC(=O)CCC(=O)Nc1cc(Br)cc2nc[nH]c12

>  <subsites>  (923) 
1 - Z4590/B/203/1

>  <gnina_score>  (923) 
5.455

>  <HIPPO Pose ID>  (923) 
91843

>  <ref_mols>  (923) 
Z0846a,Z1597a

>  <energy_score>  (923) 
-13.27936

>  <inspiration_score>  (923) 
None

>  <smina_score_min>  (923) 
-7.068

>  <fragmenstein_error>  (923) 


>  <name>  (923) 
IBKQHWBSOBDVSK-UHFFFAOYSA-N-P86-P50-P86-601533

$$$$
RDYWZXXUPCIRQJ-UHFFFAOYSA-N-P50-P50-P86-601533
     RDKit          3D

 19 20  0  0  0  0  0  0  0  0999 V2000
   -5.8454    8.0124  -24.6132 C   0  0  0  0  0  0  0  0  0  0  0  0
   -5.2154    8.2117  -23.2448 C   0  0  0  0  0  0  0  0  0  0  0  0
   -5.2232    6.9343  -22.4337 C   0  0  0  0  0  0  0  0  0  0  0  0
   -5.8203    5.9383  -22.8335 O   0  0  0  0  0  0  0  0  0  0  0  0
   -4.5356    6.9810  -21.0813 C   0  0  0  0  0  0  0  0  0  0  0  0
   -4.2095    5.5959  -20.5523 C   0  0  0  0  0  0  0  0  0  0  0  0
   -4.3494    5.5034  -19.0531 C   0  0  0  0  0  0  0  0  0  0  0  0
   -3.4342    5.5325  -18.3241 O   0  0  0  0  0  0  0  0  0  0  0  0
   -5.8707    5.3073  -18.7598 N   0  0  0  0  0  0  0  0  0  0  0  0
   -6.5370    5.0219  -17.5594 C   0  0  0  0  0  0  0  0  0  0  0  0
   -6.0130    4.9923  -16.2490 C   0  0  0  0  0  0  0  0  0  0  0  0
   -4.6047    5.3643  -15.8834 C   0  0  0  0  0  0  0  0  0  0  0  0
   -6.8232    4.5757  -15.1690 C   0  0  0  0  0  0  0  0  0  0  0  0
   -8.1591    4.2239  -15.3295 C   0  0  0  0  0  0  0  0  0  0  0  0
   -8.7043    4.3219  -16.6018 C   0  0  0  0  0  0  0  0  0  0  0  0
   -9.9972    4.1245  -16.9845 N   0  0  0  0  0  0  0  0  0  0  0  0
  -10.0385    4.5175  -18.2293 C   0  0  0  0  0  0  0  0  0  0  0  0
   -8.7891    4.7273  -18.7298 N   0  0  0  0  0  0  0  0  0  0  0  0
   -7.9068    4.7111  -17.6720 C   0  0  0  0  0  0  0  0  0  0  0  0
  1  2  1  0
  2  3  1  0
  3  4  2  0
  3  5  1  0
  5  6  1  0
  6  7  1  0
  7  8  2  0
  7  9  1  0
  9 10  1  0
 10 11  2  0
 11 12  1  0
 11 13  1  0
 13 14  2  0
 14 15  1  0
 15 16  1  0
 16 17  2  0
 17 18  1  0
 18 19  1  0
 19 10  1  0
 19 15  2  0
M  END
>  <fragmenstein_outcome>  (924) 
too moved

>  <exports>  (924) 
['/opt/xchem-fragalysis-2/maxwin/openbind-hippo/xx01zvns2b/cycle_01/syndirella/elabs/openbind_xx01zvns2b_c1_elab_chemspace_filtered.sdf']

>  <Energy>  (924) 
10.998991

>  <alias>  (924) 
RDYWZXXUPCIRQJ-UHFFFAOYSA-N-P50-P50-P86-601533

>  <fragmenstein_runtime>  (924) 
2.628873

>  <scratch_subdir>  (924) 
/opt/xchem-fragalysis-2/maxwin/BulkDock/SCRATCH/601533/RDYWZXXUPCIRQJ-UHFFFAOYSA-N-P50-P50-P86-601533

>  <HIPPO Compound ID>  (924) 
136784

>  <rmsd(smina/fragmenstein)>  (924) 
0.677

>  <distance_score>  (924) 
1.173033

>  <orig_smiles>  (924) 
CCC(=O)CCC(=O)Nc1c(C)ccc2nc[nH]c12

>  <fragmenstein_mode>  (924) 
expansion

>  <inchikey>  (924) 
RDYWZXXUPCIRQJ-UHFFFAOYSA-N

>  <ref_pdb>  (924) 
Z0101a

>  <GNINA pK>  (924) 
nan

>  <gnina_score_min>  (924) 
5.343

>  <tags>  (924) 
xx01zvns2b_c1_elab_bulkdock_input,openbind_xx01zvns2b_c1_elab_nonasap_filtered_scored_top80percent,openbind_xx01zvns2b_c1_elab_chemspace_filtered_scored_top80percent,fragmenstein_placed,openbind_xx01zvns2b_c1_elab_chemspace_filtered_scored,openbind_xx01zvns2b_c1_elab_chemspace_filtered_scored_top40percent,openbind_xx01zvns2b_c1_elab_chemspace_filtered_scored_top20percent,openbind_xx01zvns2b_c1_elab_chemspace_filtered_scored_top60percent,openbind_xx01zvns2b_c1_elabs_filtered

>  <smiles>  (924) 
CCC(=O)CCC(=O)Nc1c(C)ccc2nc[nH]c12

>  <subsites>  (924) 
1 - Z4590/B/203/1

>  <gnina_score>  (924) 
5.4

>  <HIPPO Pose ID>  (924) 
91844

>  <ref_mols>  (924) 
Z0846a,Z1597a

>  <energy_score>  (924) 
-13.969519

>  <inspiration_score>  (924) 
None

>  <smina_score_min>  (924) 
-6.951

>  <fragmenstein_error>  (924) 


>  <name>  (924) 
RDYWZXXUPCIRQJ-UHFFFAOYSA-N-P50-P50-P86-601533

$$$$
JANQUOLVGKRIQT-UHFFFAOYSA-N-P86-P50-P86-601533
     RDKit          3D

 19 21  0  0  0  0  0  0  0  0999 V2000
   -3.7156    5.8297  -18.2716 O   0  0  0  0  0  0  0  0  0  0  0  0
   -4.5430    5.5506  -19.0507 C   0  0  0  0  0  0  0  0  0  0  0  0
   -4.2641    5.4721  -20.5560 C   0  0  0  0  0  0  0  0  0  0  0  0
   -4.4710    6.7702  -21.2601 C   0  0  0  0  0  0  0  0  0  0  0  0
   -5.1240    6.9526  -22.4161 C   0  0  0  0  0  0  0  0  0  0  0  0
   -5.1069    8.3724  -22.8457 C   0  0  0  0  0  0  0  0  0  0  0  0
   -4.0560    8.9895  -21.9265 C   0  0  0  0  0  0  0  0  0  0  0  0
   -3.9098    8.0529  -20.7337 C   0  0  0  0  0  0  0  0  0  0  0  0
   -6.0290    5.1395  -18.8396 N   0  0  0  0  0  0  0  0  0  0  0  0
   -6.7423    4.9058  -17.6719 C   0  0  0  0  0  0  0  0  0  0  0  0
   -6.1936    5.0526  -16.3948 C   0  0  0  0  0  0  0  0  0  0  0  0
   -6.9810    4.8293  -15.2595 C   0  0  0  0  0  0  0  0  0  0  0  0
   -6.3262    5.0754  -13.6928 Cl  0  0  0  0  0  0  0  0  0  0  0  0
   -8.3215    4.4611  -15.3362 C   0  0  0  0  0  0  0  0  0  0  0  0
   -8.8426    4.3781  -16.6144 C   0  0  0  0  0  0  0  0  0  0  0  0
  -10.1274    4.2549  -17.0557 N   0  0  0  0  0  0  0  0  0  0  0  0
  -10.1193    4.4775  -18.3924 C   0  0  0  0  0  0  0  0  0  0  0  0
   -8.9032    4.4832  -18.8752 N   0  0  0  0  0  0  0  0  0  0  0  0
   -8.0985    4.5620  -17.7716 C   0  0  0  0  0  0  0  0  0  0  0  0
  1  2  2  0
  2  3  1  0
  3  4  1  0
  4  5  2  0
  5  6  1  0
  6  7  1  0
  7  8  1  0
  2  9  1  0
  9 10  1  0
 10 11  2  0
 11 12  1  0
 12 13  1  0
 12 14  2  0
 14 15  1  0
 15 16  1  0
 16 17  1  0
 17 18  2  0
 18 19  1  0
  8  4  1  0
 19 10  1  0
 19 15  2  0
M  END
>  <fragmenstein_outcome>  (925) 
too moved

>  <exports>  (925) 
['/opt/xchem-fragalysis-2/maxwin/openbind-hippo/xx01zvns2b/cycle_01/syndirella/elabs/openbind_xx01zvns2b_c1_elab_chemspace_filtered.sdf']

>  <Energy>  (925) 
49.452582

>  <alias>  (925) 
JANQUOLVGKRIQT-UHFFFAOYSA-N-P86-P50-P86-601533

>  <fragmenstein_runtime>  (925) 
3.769779

>  <scratch_subdir>  (925) 
/opt/xchem-fragalysis-2/maxwin/BulkDock/SCRATCH/601533/JANQUOLVGKRIQT-UHFFFAOYSA-N-P86-P50-P86-601533

>  <HIPPO Compound ID>  (925) 
136791

>  <rmsd(smina/fragmenstein)>  (925) 
0.836

>  <distance_score>  (925) 
1.250572

>  <orig_smiles>  (925) 
O=C(CC1=CCCC1)Nc1cc(Cl)cc2[nH]cnc12

>  <fragmenstein_mode>  (925) 
expansion

>  <inchikey>  (925) 
JANQUOLVGKRIQT-UHFFFAOYSA-N

>  <ref_pdb>  (925) 
Z0101a

>  <GNINA pK>  (925) 
nan

>  <gnina_score_min>  (925) 
5.503

>  <tags>  (925) 
xx01zvns2b_c1_elab_bulkdock_input,openbind_xx01zvns2b_c1_elab_nonasap_filtered_scored_top80percent,openbind_xx01zvns2b_c1_elab_chemspace_filtered_scored_top80percent,fragmenstein_placed,openbind_xx01zvns2b_c1_elab_chemspace_filtered_scored,openbind_xx01zvns2b_c1_elab_chemspace_filtered_scored_top40percent,openbind_xx01zvns2b_c1_elab_chemspace_filtered_scored_top20percent,openbind_xx01zvns2b_c1_elab_chemspace_filtered_scored_top60percent,openbind_xx01zvns2b_c1_elabs_filtered

>  <smiles>  (925) 
O=C(CC1=CCCC1)Nc1cc(Cl)cc2[nH]cnc12

>  <subsites>  (925) 
1 - Z4590/B/203/1

>  <gnina_score>  (925) 
5.13

>  <HIPPO Pose ID>  (925) 
91859

>  <ref_mols>  (925) 
Z0846a,Z1597a

>  <energy_score>  (925) 
-19.825886

>  <inspiration_score>  (925) 
None

>  <smina_score_min>  (925) 
-6.944

>  <fragmenstein_error>  (925) 


>  <name>  (925) 
JANQUOLVGKRIQT-UHFFFAOYSA-N-P86-P50-P86-601533

$$$$
XOALDPZBOKTZPA-UHFFFAOYSA-N-P86-P50-P86-601533
     RDKit          3D

 19 21  0  0  0  0  0  0  0  0999 V2000
   -6.1084    5.0726  -13.8511 C   0  0  0  0  0  0  0  0  0  0  0  0
   -6.7274    4.9210  -15.2018 C   0  0  0  0  0  0  0  0  0  0  0  0
   -6.0132    5.2117  -16.3779 C   0  0  0  0  0  0  0  0  0  0  0  0
   -6.5873    5.0662  -17.6475 C   0  0  0  0  0  0  0  0  0  0  0  0
   -5.8860    5.2981  -18.8219 N   0  0  0  0  0  0  0  0  0  0  0  0
   -4.3867    5.6676  -19.0505 C   0  0  0  0  0  0  0  0  0  0  0  0
   -3.5388    5.9071  -18.2797 O   0  0  0  0  0  0  0  0  0  0  0  0
   -4.1584    5.6119  -20.5656 C   0  0  0  0  0  0  0  0  0  0  0  0
   -4.4489    6.8950  -21.2701 C   0  0  0  0  0  0  0  0  0  0  0  0
   -4.4448    8.1407  -20.7781 C   0  0  0  0  0  0  0  0  0  0  0  0
   -4.7140    9.1492  -21.8357 C   0  0  0  0  0  0  0  0  0  0  0  0
   -5.2116    8.3067  -23.0062 C   0  0  0  0  0  0  0  0  0  0  0  0
   -4.7354    6.8871  -22.7423 C   0  0  0  0  0  0  0  0  0  0  0  0
   -7.9133    4.6471  -17.6771 C   0  0  0  0  0  0  0  0  0  0  0  0
   -8.8428    4.5163  -18.6780 N   0  0  0  0  0  0  0  0  0  0  0  0
  -10.0382    4.2670  -18.0746 C   0  0  0  0  0  0  0  0  0  0  0  0
   -9.8930    3.9611  -16.8156 N   0  0  0  0  0  0  0  0  0  0  0  0
   -8.6155    4.3053  -16.5263 C   0  0  0  0  0  0  0  0  0  0  0  0
   -8.0231    4.4140  -15.2731 C   0  0  0  0  0  0  0  0  0  0  0  0
  1  2  1  0
  2  3  2  0
  3  4  1  0
  4  5  1  0
  5  6  1  0
  6  7  2  0
  6  8  1  0
  8  9  1  0
  9 10  2  0
 10 11  1  0
 11 12  1  0
 12 13  1  0
  4 14  2  0
 14 15  1  0
 15 16  1  0
 16 17  2  0
 17 18  1  0
 18 19  2  0
 19  2  1  0
 13  9  1  0
 18 14  1  0
M  END
>  <fragmenstein_outcome>  (926) 
too moved

>  <exports>  (926) 
['/opt/xchem-fragalysis-2/maxwin/openbind-hippo/xx01zvns2b/cycle_01/syndirella/elabs/openbind_xx01zvns2b_c1_elab_chemspace_filtered.sdf']

>  <Energy>  (926) 
40.982633

>  <alias>  (926) 
XOALDPZBOKTZPA-UHFFFAOYSA-N-P86-P50-P86-601533

>  <fragmenstein_runtime>  (926) 
5.811155

>  <scratch_subdir>  (926) 
/opt/xchem-fragalysis-2/maxwin/BulkDock/SCRATCH/601533/XOALDPZBOKTZPA-UHFFFAOYSA-N-P86-P50-P86-601533

>  <HIPPO Compound ID>  (926) 
136794

>  <rmsd(smina/fragmenstein)>  (926) 
0.882

>  <distance_score>  (926) 
1.563802

>  <orig_smiles>  (926) 
Cc1cc(NC(=O)CC2=CCCC2)c2[nH]cnc2c1

>  <fragmenstein_mode>  (926) 
expansion

>  <inchikey>  (926) 
XOALDPZBOKTZPA-UHFFFAOYSA-N

>  <ref_pdb>  (926) 
Z0101a

>  <GNINA pK>  (926) 
nan

>  <gnina_score_min>  (926) 
5.542

>  <tags>  (926) 
xx01zvns2b_c1_elab_bulkdock_input,openbind_xx01zvns2b_c1_elab_nonasap_filtered_scored_top80percent,openbind_xx01zvns2b_c1_elab_chemspace_filtered_scored_top80percent,fragmenstein_placed,openbind_xx01zvns2b_c1_elab_chemspace_filtered_scored,openbind_xx01zvns2b_c1_elab_chemspace_filtered_scored_top40percent,openbind_xx01zvns2b_c1_elab_chemspace_filtered_scored_top20percent,openbind_xx01zvns2b_c1_elab_chemspace_filtered_scored_top60percent,openbind_xx01zvns2b_c1_elabs_filtered

>  <smiles>  (926) 
Cc1cc(NC(=O)CC2=CCCC2)c2[nH]cnc2c1

>  <subsites>  (926) 
1 - Z4590/B/203/1

>  <gnina_score>  (926) 
5.341

>  <HIPPO Pose ID>  (926) 
91865

>  <ref_mols>  (926) 
Z0846a,Z1597a

>  <energy_score>  (926) 
-23.545962

>  <inspiration_score>  (926) 
None

>  <smina_score_min>  (926) 
-7.801

>  <fragmenstein_error>  (926) 


>  <name>  (926) 
XOALDPZBOKTZPA-UHFFFAOYSA-N-P86-P50-P86-601533

$$$$
UOLPHLPBKDHASG-UHFFFAOYSA-N-P50-P50-P86-601533
     RDKit          3D

 19 20  0  0  0  0  0  0  0  0999 V2000
   -5.3475   10.1472  -23.2877 C   0  0  0  0  0  0  0  0  0  0  0  0
   -5.3091    8.9501  -23.1991 C   0  0  0  0  0  0  0  0  0  0  0  0
   -5.2863    7.4805  -23.2074 C   0  0  0  0  0  0  0  0  0  0  0  0
   -5.3076    6.8437  -21.8146 C   0  0  0  0  0  0  0  0  0  0  0  0
   -3.9704    6.8850  -21.0708 C   0  0  0  0  0  0  0  0  0  0  0  0
   -3.7354    5.6688  -20.1755 C   0  0  0  0  0  0  0  0  0  0  0  0
   -4.2371    5.7523  -18.7362 C   0  0  0  0  0  0  0  0  0  0  0  0
   -3.5200    6.0235  -17.8515 O   0  0  0  0  0  0  0  0  0  0  0  0
   -5.7370    5.3249  -18.7262 N   0  0  0  0  0  0  0  0  0  0  0  0
   -6.5966    5.0630  -17.6595 C   0  0  0  0  0  0  0  0  0  0  0  0
   -6.1667    5.0890  -16.3297 C   0  0  0  0  0  0  0  0  0  0  0  0
   -7.0285    4.7333  -15.2855 C   0  0  0  0  0  0  0  0  0  0  0  0
   -6.4487    4.8514  -13.4972 Br  0  0  0  0  0  0  0  0  0  0  0  0
   -8.3374    4.3263  -15.5092 C   0  0  0  0  0  0  0  0  0  0  0  0
   -8.7970    4.3669  -16.8181 C   0  0  0  0  0  0  0  0  0  0  0  0
  -10.0688    4.1754  -17.2666 N   0  0  0  0  0  0  0  0  0  0  0  0
  -10.0396    4.6124  -18.4960 C   0  0  0  0  0  0  0  0  0  0  0  0
   -8.7628    4.7609  -18.9451 N   0  0  0  0  0  0  0  0  0  0  0  0
   -7.9382    4.7306  -17.8530 C   0  0  0  0  0  0  0  0  0  0  0  0
  1  2  3  0
  2  3  1  0
  3  4  1  0
  4  5  1  0
  5  6  1  0
  6  7  1  0
  7  8  2  0
  7  9  1  0
  9 10  1  0
 10 11  2  0
 11 12  1  0
 12 13  1  0
 12 14  2  0
 14 15  1  0
 15 16  1  0
 16 17  2  0
 17 18  1  0
 18 19  1  0
 19 10  1  0
 19 15  2  0
M  END
>  <fragmenstein_outcome>  (927) 
too moved

>  <exports>  (927) 
['/opt/xchem-fragalysis-2/maxwin/openbind-hippo/xx01zvns2b/cycle_01/syndirella/elabs/openbind_xx01zvns2b_c1_elab_chemspace_filtered.sdf']

>  <Energy>  (927) 
11.243345

>  <alias>  (927) 
UOLPHLPBKDHASG-UHFFFAOYSA-N-P50-P50-P86-601533

>  <fragmenstein_runtime>  (927) 
3.032236

>  <scratch_subdir>  (927) 
/opt/xchem-fragalysis-2/maxwin/BulkDock/SCRATCH/601533/UOLPHLPBKDHASG-UHFFFAOYSA-N-P50-P50-P86-601533

>  <HIPPO Compound ID>  (927) 
136798

>  <rmsd(smina/fragmenstein)>  (927) 
1.009

>  <distance_score>  (927) 
1.145245

>  <orig_smiles>  (927) 
C#CCCCCC(=O)Nc1cc(Br)cc2nc[nH]c12

>  <fragmenstein_mode>  (927) 
expansion

>  <inchikey>  (927) 
UOLPHLPBKDHASG-UHFFFAOYSA-N

>  <ref_pdb>  (927) 
Z0101a

>  <GNINA pK>  (927) 
nan

>  <gnina_score_min>  (927) 
5.697

>  <tags>  (927) 
xx01zvns2b_c1_elab_bulkdock_input,openbind_xx01zvns2b_c1_elab_nonasap_filtered_scored_top80percent,openbind_xx01zvns2b_c1_elab_chemspace_filtered_scored_top80percent,fragmenstein_placed,openbind_xx01zvns2b_c1_elab_chemspace_filtered_scored,openbind_xx01zvns2b_c1_elab_chemspace_filtered_scored_top40percent,openbind_xx01zvns2b_c1_elab_chemspace_filtered_scored_top20percent,openbind_xx01zvns2b_c1_elab_chemspace_filtered_scored_top60percent,openbind_xx01zvns2b_c1_elabs_filtered

>  <smiles>  (927) 
C#CCCCCC(=O)Nc1cc(Br)cc2nc[nH]c12

>  <subsites>  (927) 
1 - Z4590/B/203/1

>  <gnina_score>  (927) 
5.478

>  <HIPPO Pose ID>  (927) 
91872

>  <ref_mols>  (927) 
Z0846a,Z1597a

>  <energy_score>  (927) 
-17.005869

>  <inspiration_score>  (927) 
None

>  <smina_score_min>  (927) 
-6.777

>  <fragmenstein_error>  (927) 


>  <name>  (927) 
UOLPHLPBKDHASG-UHFFFAOYSA-N-P50-P50-P86-601533

$$$$
XZYIKVGADODDSA-UHFFFAOYSA-N-P50-P50-P86-601533
     RDKit          3D

 19 20  0  0  0  0  0  0  0  0999 V2000
   -5.3008   10.1423  -23.2367 C   0  0  0  0  0  0  0  0  0  0  0  0
   -5.2441    8.9447  -23.1645 C   0  0  0  0  0  0  0  0  0  0  0  0
   -5.2070    7.4756  -23.2005 C   0  0  0  0  0  0  0  0  0  0  0  0
   -5.3472    6.8056  -21.8310 C   0  0  0  0  0  0  0  0  0  0  0  0
   -4.0526    6.6888  -21.0192 C   0  0  0  0  0  0  0  0  0  0  0  0
   -3.9744    5.3872  -20.2148 C   0  0  0  0  0  0  0  0  0  0  0  0
   -4.3756    5.4570  -18.7462 C   0  0  0  0  0  0  0  0  0  0  0  0
   -3.5843    5.6354  -17.9021 O   0  0  0  0  0  0  0  0  0  0  0  0
   -5.9011    5.1536  -18.6520 N   0  0  0  0  0  0  0  0  0  0  0  0
   -6.7109    4.9230  -17.5412 C   0  0  0  0  0  0  0  0  0  0  0  0
   -6.2266    4.9784  -16.2319 C   0  0  0  0  0  0  0  0  0  0  0  0
   -7.0860    4.7597  -15.1503 C   0  0  0  0  0  0  0  0  0  0  0  0
   -6.4909    4.8857  -13.5459 Cl  0  0  0  0  0  0  0  0  0  0  0  0
   -8.4444    4.4972  -15.3097 C   0  0  0  0  0  0  0  0  0  0  0  0
   -8.9043    4.4947  -16.6145 C   0  0  0  0  0  0  0  0  0  0  0  0
  -10.1722    4.4541  -17.1248 N   0  0  0  0  0  0  0  0  0  0  0  0
  -10.0714    4.6632  -18.4623 C   0  0  0  0  0  0  0  0  0  0  0  0
   -8.8270    4.6234  -18.8685 N   0  0  0  0  0  0  0  0  0  0  0  0
   -8.0817    4.6593  -17.7232 C   0  0  0  0  0  0  0  0  0  0  0  0
  1  2  3  0
  2  3  1  0
  3  4  1  0
  4  5  1  0
  5  6  1  0
  6  7  1  0
  7  8  2  0
  7  9  1  0
  9 10  1  0
 10 11  2  0
 11 12  1  0
 12 13  1  0
 12 14  2  0
 14 15  1  0
 15 16  1  0
 16 17  1  0
 17 18  2  0
 18 19  1  0
 19 10  1  0
 19 15  2  0
M  END
>  <fragmenstein_outcome>  (928) 
too moved

>  <exports>  (928) 
['/opt/xchem-fragalysis-2/maxwin/openbind-hippo/xx01zvns2b/cycle_01/syndirella/elabs/openbind_xx01zvns2b_c1_elab_chemspace_filtered.sdf']

>  <Energy>  (928) 
31.478544

>  <alias>  (928) 
XZYIKVGADODDSA-UHFFFAOYSA-N-P50-P50-P86-601533

>  <fragmenstein_runtime>  (928) 
4.087883

>  <scratch_subdir>  (928) 
/opt/xchem-fragalysis-2/maxwin/BulkDock/SCRATCH/601533/XZYIKVGADODDSA-UHFFFAOYSA-N-P50-P50-P86-601533

>  <HIPPO Compound ID>  (928) 
136805

>  <rmsd(smina/fragmenstein)>  (928) 
1.025

>  <distance_score>  (928) 
1.049016

>  <orig_smiles>  (928) 
C#CCCCCC(=O)Nc1cc(Cl)cc2[nH]cnc12

>  <fragmenstein_mode>  (928) 
expansion

>  <inchikey>  (928) 
XZYIKVGADODDSA-UHFFFAOYSA-N

>  <ref_pdb>  (928) 
Z0101a

>  <GNINA pK>  (928) 
nan

>  <gnina_score_min>  (928) 
5.499

>  <tags>  (928) 
xx01zvns2b_c1_elab_bulkdock_input,openbind_xx01zvns2b_c1_elab_nonasap_filtered_scored_top80percent,openbind_xx01zvns2b_c1_elab_chemspace_filtered_scored_top80percent,fragmenstein_placed,openbind_xx01zvns2b_c1_elab_chemspace_filtered_scored,openbind_xx01zvns2b_c1_elab_chemspace_filtered_scored_top40percent,openbind_xx01zvns2b_c1_elab_chemspace_filtered_scored_top20percent,openbind_xx01zvns2b_c1_elab_chemspace_filtered_scored_top60percent,openbind_xx01zvns2b_c1_elabs_filtered

>  <smiles>  (928) 
C#CCCCCC(=O)Nc1cc(Cl)cc2[nH]cnc12

>  <subsites>  (928) 
1 - Z4590/B/203/1

>  <gnina_score>  (928) 
5.157

>  <HIPPO Pose ID>  (928) 
91886

>  <ref_mols>  (928) 
Z0846a,Z1597a

>  <energy_score>  (928) 
-17.975377

>  <inspiration_score>  (928) 
None

>  <smina_score_min>  (928) 
-6.299

>  <fragmenstein_error>  (928) 


>  <name>  (928) 
XZYIKVGADODDSA-UHFFFAOYSA-N-P50-P50-P86-601533

$$$$
CWLWYBOFALPBLF-UHFFFAOYSA-N-P50-P50-P86-601533
     RDKit          3D

 19 20  0  0  0  0  0  0  0  0999 V2000
   -5.8280    7.6926  -24.6016 C   0  0  0  0  0  0  0  0  0  0  0  0
   -5.4449    8.0508  -23.1752 C   0  0  0  0  0  0  0  0  0  0  0  0
   -4.8697    6.8451  -22.4372 C   0  0  0  0  0  0  0  0  0  0  0  0
   -4.6759    7.1155  -20.9429 C   0  0  0  0  0  0  0  0  0  0  0  0
   -3.9812    5.9447  -20.2469 C   0  0  1  0  0  0  0  0  0  0  0  0
   -2.5724    6.0978  -20.4257 O   0  0  0  0  0  0  0  0  0  0  0  0
   -4.3316    5.8570  -18.7426 C   0  0  0  0  0  0  0  0  0  0  0  0
   -3.5200    6.0078  -17.9099 O   0  0  0  0  0  0  0  0  0  0  0  0
   -5.8410    5.4710  -18.6268 N   0  0  0  0  0  0  0  0  0  0  0  0
   -6.5984    5.1152  -17.5172 C   0  0  0  0  0  0  0  0  0  0  0  0
   -6.0714    5.1357  -16.2198 C   0  0  0  0  0  0  0  0  0  0  0  0
   -6.8342    4.7630  -15.1017 C   0  0  0  0  0  0  0  0  0  0  0  0
   -6.2657    4.8035  -13.7211 C   0  0  0  0  0  0  0  0  0  0  0  0
   -8.1383    4.3007  -15.2637 C   0  0  0  0  0  0  0  0  0  0  0  0
   -8.6906    4.3148  -16.5411 C   0  0  0  0  0  0  0  0  0  0  0  0
   -9.9672    4.0243  -16.9036 N   0  0  0  0  0  0  0  0  0  0  0  0
  -10.0523    4.4275  -18.1414 C   0  0  0  0  0  0  0  0  0  0  0  0
   -8.8285    4.7092  -18.6729 N   0  0  0  0  0  0  0  0  0  0  0  0
   -7.9330    4.7291  -17.6334 C   0  0  0  0  0  0  0  0  0  0  0  0
  1  2  1  0
  2  3  1  0
  3  4  1  0
  4  5  1  0
  5  6  1  1
  5  7  1  0
  7  8  2  0
  7  9  1  0
  9 10  1  0
 10 11  2  0
 11 12  1  0
 12 13  1  0
 12 14  2  0
 14 15  1  0
 15 16  1  0
 16 17  2  0
 17 18  1  0
 18 19  1  0
 19 10  1  0
 19 15  2  0
M  END
>  <fragmenstein_outcome>  (929) 
too moved

>  <exports>  (929) 
['/opt/xchem-fragalysis-2/maxwin/openbind-hippo/xx01zvns2b/cycle_01/syndirella/elabs/openbind_xx01zvns2b_c1_elab_chemspace_filtered.sdf']

>  <Energy>  (929) 
44.319633

>  <alias>  (929) 
CWLWYBOFALPBLF-UHFFFAOYSA-N-P50-P50-P86-601533

>  <fragmenstein_runtime>  (929) 
3.63692

>  <scratch_subdir>  (929) 
/opt/xchem-fragalysis-2/maxwin/BulkDock/SCRATCH/601533/CWLWYBOFALPBLF-UHFFFAOYSA-N-P50-P50-P86-601533

>  <HIPPO Compound ID>  (929) 
136808

>  <rmsd(smina/fragmenstein)>  (929) 
1.152

>  <distance_score>  (929) 
1.104366

>  <orig_smiles>  (929) 
CCCCC(O)C(=O)Nc1cc(C)cc2nc[nH]c12

>  <fragmenstein_mode>  (929) 
expansion

>  <inchikey>  (929) 
CWLWYBOFALPBLF-UHFFFAOYSA-N

>  <ref_pdb>  (929) 
Z0101a

>  <GNINA pK>  (929) 
nan

>  <gnina_score_min>  (929) 
5.192

>  <tags>  (929) 
xx01zvns2b_c1_elab_bulkdock_input,openbind_xx01zvns2b_c1_elab_nonasap_filtered_scored_top80percent,openbind_xx01zvns2b_c1_elab_chemspace_filtered_scored_top80percent,fragmenstein_placed,openbind_xx01zvns2b_c1_elab_chemspace_filtered_scored,openbind_xx01zvns2b_c1_elab_chemspace_filtered_scored_top40percent,openbind_xx01zvns2b_c1_elab_chemspace_filtered_scored_top20percent,openbind_xx01zvns2b_c1_elab_chemspace_filtered_scored_top60percent,openbind_xx01zvns2b_c1_elabs_filtered

>  <smiles>  (929) 
CCCCC(O)C(=O)Nc1cc(C)cc2nc[nH]c12

>  <subsites>  (929) 
1 - Z4590/B/203/1

>  <gnina_score>  (929) 
5.037

>  <HIPPO Pose ID>  (929) 
91892

>  <ref_mols>  (929) 
Z0846a,Z1597a

>  <energy_score>  (929) 
-25.442619

>  <inspiration_score>  (929) 
None

>  <smina_score_min>  (929) 
-7.405

>  <fragmenstein_error>  (929) 


>  <name>  (929) 
CWLWYBOFALPBLF-UHFFFAOYSA-N-P50-P50-P86-601533

$$$$
ATWQBKJFKUMOKR-UHFFFAOYSA-N-P86-P50-P86-601533
     RDKit          3D

 19 21  0  0  0  0  0  0  0  0999 V2000
   -3.7232    6.3694  -18.9813 O   0  0  0  0  0  0  0  0  0  0  0  0
   -4.6435    6.0794  -19.6440 C   0  0  0  0  0  0  0  0  0  0  0  0
   -4.5864    6.1101  -21.1660 C   0  0  0  0  0  0  0  0  0  0  0  0
   -4.9728    7.4436  -21.7835 C   0  0  2  0  0  0  0  0  0  0  0  0
   -4.9357    7.4663  -23.3324 C   0  0  0  0  0  0  0  0  0  0  0  0
   -4.3316    8.8817  -23.2763 C   0  0  1  0  0  0  0  0  0  0  0  0
   -5.5981   10.1824  -23.5071 S   0  0  0  0  0  0  0  0  0  0  0  0
   -3.9743    8.6276  -21.7957 C   0  0  0  0  0  0  0  0  0  0  0  0
   -6.0549    5.5499  -19.2384 N   0  0  0  0  0  0  0  0  0  0  0  0
   -6.5634    5.1947  -17.9902 C   0  0  0  0  0  0  0  0  0  0  0  0
   -5.8316    5.3459  -16.8093 C   0  0  0  0  0  0  0  0  0  0  0  0
   -6.3885    5.0185  -15.5475 C   0  0  0  0  0  0  0  0  0  0  0  0
   -7.6920    4.5415  -15.4298 C   0  0  0  0  0  0  0  0  0  0  0  0
   -8.3871    4.4086  -16.6000 C   0  0  0  0  0  0  0  0  0  0  0  0
   -9.7374    4.1575  -16.7625 N   0  0  0  0  0  0  0  0  0  0  0  0
  -10.0715    4.4159  -18.0850 C   0  0  0  0  0  0  0  0  0  0  0  0
  -11.2058    4.5386  -18.5034 O   0  0  0  0  0  0  0  0  0  0  0  0
   -8.8783    4.6089  -18.7865 N   0  0  0  0  0  0  0  0  0  0  0  0
   -7.8453    4.7062  -17.8532 C   0  0  0  0  0  0  0  0  0  0  0  0
  1  2  2  0
  2  3  1  0
  4  3  1  1
  4  5  1  0
  5  6  1  0
  6  7  1  1
  6  8  1  0
  2  9  1  0
  9 10  1  0
 10 11  2  0
 11 12  1  0
 12 13  2  0
 13 14  1  0
 14 15  1  0
 15 16  1  0
 16 17  2  0
 16 18  1  0
 18 19  1  0
  8  4  1  0
 19 10  1  0
 19 14  2  0
M  END
>  <fragmenstein_outcome>  (930) 
too moved

>  <exports>  (930) 
['/opt/xchem-fragalysis-2/maxwin/openbind-hippo/xx01zvns2b/cycle_01/syndirella/elabs/openbind_xx01zvns2b_c1_elab_chemspace_filtered.sdf']

>  <Energy>  (930) 
-1.023389

>  <alias>  (930) 
ATWQBKJFKUMOKR-UHFFFAOYSA-N-P86-P50-P86-601533

>  <fragmenstein_runtime>  (930) 
21.143858

>  <scratch_subdir>  (930) 
/opt/xchem-fragalysis-2/maxwin/BulkDock/SCRATCH/601533/ATWQBKJFKUMOKR-UHFFFAOYSA-N-P86-P50-P86-601533

>  <HIPPO Compound ID>  (930) 
136814

>  <rmsd(smina/fragmenstein)>  (930) 
1.343

>  <distance_score>  (930) 
1.316352

>  <orig_smiles>  (930) 
O=C(CC1CC(S)C1)Nc1cccc2[nH]c(=O)[nH]c12

>  <fragmenstein_mode>  (930) 
expansion

>  <inchikey>  (930) 
ATWQBKJFKUMOKR-UHFFFAOYSA-N

>  <ref_pdb>  (930) 
Z0101a

>  <GNINA pK>  (930) 
nan

>  <gnina_score_min>  (930) 
5.546

>  <tags>  (930) 
xx01zvns2b_c1_elab_bulkdock_input,openbind_xx01zvns2b_c1_elab_nonasap_filtered_scored_top80percent,openbind_xx01zvns2b_c1_elab_chemspace_filtered_scored_top80percent,fragmenstein_placed,openbind_xx01zvns2b_c1_elab_chemspace_filtered_scored,openbind_xx01zvns2b_c1_elab_chemspace_filtered_scored_top40percent,openbind_xx01zvns2b_c1_elab_chemspace_filtered_scored_top20percent,openbind_xx01zvns2b_c1_elab_chemspace_filtered_scored_top60percent,openbind_xx01zvns2b_c1_elabs_filtered

>  <smiles>  (930) 
O=C(CC1CC(S)C1)Nc1cccc2[nH]c(=O)[nH]c12

>  <subsites>  (930) 
1 - Z4590/B/203/1

>  <gnina_score>  (930) 
5.216

>  <HIPPO Pose ID>  (930) 
91905

>  <ref_mols>  (930) 
Z0846a,Z1597a

>  <energy_score>  (930) 
-26.69423

>  <inspiration_score>  (930) 
None

>  <smina_score_min>  (930) 
-7.558

>  <fragmenstein_error>  (930) 


>  <name>  (930) 
ATWQBKJFKUMOKR-UHFFFAOYSA-N-P86-P50-P86-601533

$$$$
AEMDLGVMSBSKGR-UHFFFAOYSA-N-P50-P50-P86-601533
     RDKit          3D

 19 21  0  0  0  0  0  0  0  0999 V2000
   -5.8115    5.1975  -14.1696 C   0  0  0  0  0  0  0  0  0  0  0  0
   -6.5606    4.9926  -15.4459 C   0  0  0  0  0  0  0  0  0  0  0  0
   -6.0634    5.4523  -16.6821 C   0  0  0  0  0  0  0  0  0  0  0  0
   -6.8020    5.3294  -17.8655 C   0  0  0  0  0  0  0  0  0  0  0  0
   -6.3382    5.7446  -19.1119 N   0  0  0  0  0  0  0  0  0  0  0  0
   -5.0744    6.5822  -19.4972 C   0  0  0  0  0  0  0  0  0  0  0  0
   -4.1973    6.9801  -18.8324 O   0  0  0  0  0  0  0  0  0  0  0  0
   -5.1366    6.7194  -21.0133 C   0  0  0  0  0  0  0  0  0  0  0  0
   -4.1773    7.7240  -21.6504 C   0  0  1  0  0  0  0  0  0  0  0  0
   -4.3247    7.8336  -23.1996 C   0  0  0  0  0  0  0  0  0  0  0  0
   -5.3207    8.9861  -22.9622 C   0  0  2  0  0  0  0  0  0  0  0  0
   -5.1341   10.3655  -24.1234 S   0  0  0  0  0  0  0  0  0  0  0  0
   -4.6112    9.2203  -21.6068 C   0  0  0  0  0  0  0  0  0  0  0  0
   -8.0729    4.7663  -17.7352 C   0  0  0  0  0  0  0  0  0  0  0  0
   -9.1261    4.6059  -18.6014 N   0  0  0  0  0  0  0  0  0  0  0  0
  -10.1941    4.1817  -17.8690 C   0  0  0  0  0  0  0  0  0  0  0  0
   -9.8526    3.8620  -16.6502 N   0  0  0  0  0  0  0  0  0  0  0  0
   -8.5751    4.3022  -16.5242 C   0  0  0  0  0  0  0  0  0  0  0  0
   -7.8127    4.3840  -15.3654 C   0  0  0  0  0  0  0  0  0  0  0  0
  1  2  1  0
  2  3  2  0
  3  4  1  0
  4  5  1  0
  5  6  1  0
  6  7  2  0
  6  8  1  0
  9  8  1  1
  9 10  1  0
 10 11  1  0
 11 12  1  6
 11 13  1  0
  4 14  2  0
 14 15  1  0
 15 16  1  0
 16 17  2  0
 17 18  1  0
 18 19  2  0
 19  2  1  0
 13  9  1  0
 18 14  1  0
M  END
>  <fragmenstein_outcome>  (931) 
too moved

>  <exports>  (931) 
['/opt/xchem-fragalysis-2/maxwin/openbind-hippo/xx01zvns2b/cycle_01/syndirella/elabs/openbind_xx01zvns2b_c1_elab_chemspace_filtered.sdf']

>  <Energy>  (931) 
27.749476

>  <alias>  (931) 
AEMDLGVMSBSKGR-UHFFFAOYSA-N-P50-P50-P86-601533

>  <fragmenstein_runtime>  (931) 
10.13981

>  <scratch_subdir>  (931) 
/opt/xchem-fragalysis-2/maxwin/BulkDock/SCRATCH/601533/AEMDLGVMSBSKGR-UHFFFAOYSA-N-P50-P50-P86-601533

>  <HIPPO Compound ID>  (931) 
136815

>  <rmsd(smina/fragmenstein)>  (931) 
2.054

>  <distance_score>  (931) 
1.364085

>  <orig_smiles>  (931) 
Cc1cc(NC(=O)CC2CC(S)C2)c2[nH]cnc2c1

>  <fragmenstein_mode>  (931) 
expansion

>  <inchikey>  (931) 
AEMDLGVMSBSKGR-UHFFFAOYSA-N

>  <ref_pdb>  (931) 
Z0101a

>  <GNINA pK>  (931) 
nan

>  <gnina_score_min>  (931) 
5.287

>  <tags>  (931) 
xx01zvns2b_c1_elab_bulkdock_input,openbind_xx01zvns2b_c1_elab_nonasap_filtered_scored_top80percent,openbind_xx01zvns2b_c1_elab_chemspace_filtered_scored_top80percent,fragmenstein_placed,openbind_xx01zvns2b_c1_elab_chemspace_filtered_scored,openbind_xx01zvns2b_c1_elab_chemspace_filtered_scored_top40percent,openbind_xx01zvns2b_c1_elab_chemspace_filtered_scored_top20percent,openbind_xx01zvns2b_c1_elab_chemspace_filtered_scored_top60percent,openbind_xx01zvns2b_c1_elabs_filtered

>  <smiles>  (931) 
Cc1cc(NC(=O)CC2CC(S)C2)c2[nH]cnc2c1

>  <subsites>  (931) 
1 - Z4590/B/203/1

>  <gnina_score>  (931) 
5.26

>  <HIPPO Pose ID>  (931) 
91906

>  <ref_mols>  (931) 
Z0846a,Z1597a

>  <energy_score>  (931) 
-23.10124

>  <inspiration_score>  (931) 
None

>  <smina_score_min>  (931) 
-7.426

>  <fragmenstein_error>  (931) 


>  <name>  (931) 
AEMDLGVMSBSKGR-UHFFFAOYSA-N-P50-P50-P86-601533

$$$$
JLZOZOMOJGASJC-UHFFFAOYSA-N-P50-P50-P86-601533
     RDKit          3D

 19 20  0  0  0  0  0  0  0  0999 V2000
   -5.8437    7.7530  -24.5400 C   0  0  0  0  0  0  0  0  0  0  0  0
   -5.4129    8.0586  -23.1141 C   0  0  0  0  0  0  0  0  0  0  0  0
   -4.8753    6.8097  -22.4219 C   0  0  0  0  0  0  0  0  0  0  0  0
   -4.6017    7.0325  -20.9316 C   0  0  0  0  0  0  0  0  0  0  0  0
   -4.0142    5.7783  -20.2616 C   0  0  1  0  0  0  0  0  0  0  0  0
   -2.4959    5.7150  -20.4385 C   0  0  0  0  0  0  0  0  0  0  0  0
   -4.3864    5.7099  -18.7724 C   0  0  0  0  0  0  0  0  0  0  0  0
   -3.6247    5.8969  -17.9039 O   0  0  0  0  0  0  0  0  0  0  0  0
   -5.8968    5.3130  -18.7256 N   0  0  0  0  0  0  0  0  0  0  0  0
   -6.7099    4.9883  -17.6482 C   0  0  0  0  0  0  0  0  0  0  0  0
   -6.2360    4.9529  -16.3353 C   0  0  0  0  0  0  0  0  0  0  0  0
   -7.0842    4.6140  -15.2779 C   0  0  0  0  0  0  0  0  0  0  0  0
   -6.4605    4.6919  -13.5028 Br  0  0  0  0  0  0  0  0  0  0  0  0
   -8.4137    4.2657  -15.4790 C   0  0  0  0  0  0  0  0  0  0  0  0
   -8.9032    4.3340  -16.7768 C   0  0  0  0  0  0  0  0  0  0  0  0
  -10.1845    4.1702  -17.2051 N   0  0  0  0  0  0  0  0  0  0  0  0
  -10.1751    4.6187  -18.4306 C   0  0  0  0  0  0  0  0  0  0  0  0
   -8.9059    4.7677  -18.9000 N   0  0  0  0  0  0  0  0  0  0  0  0
   -8.0622    4.6985  -17.8232 C   0  0  0  0  0  0  0  0  0  0  0  0
  1  2  1  0
  2  3  1  0
  3  4  1  0
  4  5  1  0
  5  6  1  1
  5  7  1  0
  7  8  2  0
  7  9  1  0
  9 10  1  0
 10 11  2  0
 11 12  1  0
 12 13  1  0
 12 14  2  0
 14 15  1  0
 15 16  1  0
 16 17  2  0
 17 18  1  0
 18 19  1  0
 19 10  1  0
 19 15  2  0
M  END
>  <fragmenstein_outcome>  (932) 
too moved

>  <exports>  (932) 
['/opt/xchem-fragalysis-2/maxwin/openbind-hippo/xx01zvns2b/cycle_01/syndirella/elabs/openbind_xx01zvns2b_c1_elab_chemspace_filtered.sdf']

>  <Energy>  (932) 
5.324881

>  <alias>  (932) 
JLZOZOMOJGASJC-UHFFFAOYSA-N-P50-P50-P86-601533

>  <fragmenstein_runtime>  (932) 
5.764356

>  <scratch_subdir>  (932) 
/opt/xchem-fragalysis-2/maxwin/BulkDock/SCRATCH/601533/JLZOZOMOJGASJC-UHFFFAOYSA-N-P50-P50-P86-601533

>  <HIPPO Compound ID>  (932) 
136820

>  <rmsd(smina/fragmenstein)>  (932) 
1.063

>  <distance_score>  (932) 
1.085534

>  <orig_smiles>  (932) 
CCCCC(C)C(=O)Nc1cc(Br)cc2nc[nH]c12

>  <fragmenstein_mode>  (932) 
expansion

>  <inchikey>  (932) 
JLZOZOMOJGASJC-UHFFFAOYSA-N

>  <ref_pdb>  (932) 
Z0101a

>  <GNINA pK>  (932) 
nan

>  <gnina_score_min>  (932) 
5.734

>  <tags>  (932) 
xx01zvns2b_c1_elab_bulkdock_input,openbind_xx01zvns2b_c1_elab_nonasap_filtered_scored_top80percent,openbind_xx01zvns2b_c1_elab_chemspace_filtered_scored_top80percent,fragmenstein_placed,openbind_xx01zvns2b_c1_elab_chemspace_filtered_scored,openbind_xx01zvns2b_c1_elab_chemspace_filtered_scored_top40percent,openbind_xx01zvns2b_c1_elab_chemspace_filtered_scored_top20percent,openbind_xx01zvns2b_c1_elab_chemspace_filtered_scored_top60percent,openbind_xx01zvns2b_c1_elabs_filtered

>  <smiles>  (932) 
CCCCC(C)C(=O)Nc1cc(Br)cc2nc[nH]c12

>  <subsites>  (932) 
1 - Z4590/B/203/1

>  <gnina_score>  (932) 
5.54

>  <HIPPO Pose ID>  (932) 
91916

>  <ref_mols>  (932) 
Z0846a,Z1597a

>  <energy_score>  (932) 
-24.949635

>  <inspiration_score>  (932) 
None

>  <smina_score_min>  (932) 
-7.173

>  <fragmenstein_error>  (932) 


>  <name>  (932) 
JLZOZOMOJGASJC-UHFFFAOYSA-N-P50-P50-P86-601533

$$$$
IRTMISOSPAECSX-UHFFFAOYSA-N-P86-P50-P86-601533
     RDKit          3D

 19 22  0  0  0  0  0  0  0  0999 V2000
   -3.7738    5.7082  -18.5210 O   0  0  0  0  0  0  0  0  0  0  0  0
   -4.6703    5.5517  -19.2559 C   0  0  0  0  0  0  0  0  0  0  0  0
   -4.5519    5.8047  -20.7586 C   0  0  0  0  0  0  0  0  0  0  0  0
   -4.5200    7.2724  -21.0675 C   0  0  1  0  0  0  0  0  0  0  0  0
   -3.2749    7.8694  -21.7504 C   0  0  0  0  0  0  0  0  0  0  0  0
   -4.5505    7.7467  -22.4475 C   0  0  0  0  0  0  0  0  0  0  0  0
   -5.0235    7.2774  -23.7405 C   0  0  0  0  0  0  0  0  0  0  0  0
   -5.3566    8.6828  -23.2288 C   0  0  0  0  0  0  0  0  0  0  0  0
   -6.1336    5.1028  -18.9791 N   0  0  0  0  0  0  0  0  0  0  0  0
   -6.7899    4.8573  -17.7801 C   0  0  0  0  0  0  0  0  0  0  0  0
   -6.1901    4.9957  -16.5251 C   0  0  0  0  0  0  0  0  0  0  0  0
   -6.9401    4.7910  -15.3598 C   0  0  0  0  0  0  0  0  0  0  0  0
   -6.2297    5.0417  -13.8178 Cl  0  0  0  0  0  0  0  0  0  0  0  0
   -8.2871    4.4386  -15.3855 C   0  0  0  0  0  0  0  0  0  0  0  0
   -8.8554    4.3614  -16.6434 C   0  0  0  0  0  0  0  0  0  0  0  0
  -10.1547    4.2482  -17.0383 N   0  0  0  0  0  0  0  0  0  0  0  0
  -10.1985    4.4799  -18.3718 C   0  0  0  0  0  0  0  0  0  0  0  0
   -9.0017    4.4853  -18.8999 N   0  0  0  0  0  0  0  0  0  0  0  0
   -8.1544    4.5400  -17.8269 C   0  0  0  0  0  0  0  0  0  0  0  0
  1  2  2  0
  2  3  1  0
  4  3  1  6
  4  5  1  0
  5  6  1  0
  6  7  1  0
  7  8  1  0
  2  9  1  0
  9 10  1  0
 10 11  2  0
 11 12  1  0
 12 13  1  0
 12 14  2  0
 14 15  1  0
 15 16  1  0
 16 17  1  0
 17 18  2  0
 18 19  1  0
  6  4  1  0
 19 10  1  0
  8  6  1  0
 19 15  2  0
M  END
>  <fragmenstein_outcome>  (933) 
too moved

>  <exports>  (933) 
['/opt/xchem-fragalysis-2/maxwin/openbind-hippo/xx01zvns2b/cycle_01/syndirella/elabs/openbind_xx01zvns2b_c1_elab_chemspace_filtered.sdf']

>  <Energy>  (933) 
55.779247

>  <alias>  (933) 
IRTMISOSPAECSX-UHFFFAOYSA-N-P86-P50-P86-601533

>  <fragmenstein_runtime>  (933) 
5.401193

>  <scratch_subdir>  (933) 
/opt/xchem-fragalysis-2/maxwin/BulkDock/SCRATCH/601533/IRTMISOSPAECSX-UHFFFAOYSA-N-P86-P50-P86-601533

>  <HIPPO Compound ID>  (933) 
136824

>  <rmsd(smina/fragmenstein)>  (933) 
0.661

>  <distance_score>  (933) 
1.162975

>  <orig_smiles>  (933) 
O=C(CC1CC12CC2)Nc1cc(Cl)cc2[nH]cnc12

>  <fragmenstein_mode>  (933) 
expansion

>  <inchikey>  (933) 
IRTMISOSPAECSX-UHFFFAOYSA-N

>  <ref_pdb>  (933) 
Z0101a

>  <GNINA pK>  (933) 
nan

>  <gnina_score_min>  (933) 
5.476

>  <tags>  (933) 
xx01zvns2b_c1_elab_bulkdock_input,openbind_xx01zvns2b_c1_elab_nonasap_filtered_scored_top80percent,openbind_xx01zvns2b_c1_elab_chemspace_filtered_scored_top80percent,fragmenstein_placed,openbind_xx01zvns2b_c1_elab_chemspace_filtered_scored,openbind_xx01zvns2b_c1_elab_chemspace_filtered_scored_top40percent,openbind_xx01zvns2b_c1_elab_chemspace_filtered_scored_top20percent,openbind_xx01zvns2b_c1_elab_chemspace_filtered_scored_top60percent,openbind_xx01zvns2b_c1_elabs_filtered

>  <smiles>  (933) 
O=C(CC1CC12CC2)Nc1cc(Cl)cc2[nH]cnc12

>  <subsites>  (933) 
1 - Z4590/B/203/1

>  <gnina_score>  (933) 
5.179

>  <HIPPO Pose ID>  (933) 
91925

>  <ref_mols>  (933) 
Z0846a,Z1597a

>  <energy_score>  (933) 
-24.494137

>  <inspiration_score>  (933) 
None

>  <smina_score_min>  (933) 
-6.971

>  <fragmenstein_error>  (933) 


>  <name>  (933) 
IRTMISOSPAECSX-UHFFFAOYSA-N-P86-P50-P86-601533

$$$$
XEOJZVNQNINIII-UHFFFAOYSA-N-P50-P50-P86-601533
     RDKit          3D

 19 22  0  0  0  0  0  0  0  0999 V2000
  -10.9495    4.7556  -18.3327 C   0  0  0  0  0  0  0  0  0  0  0  0
   -9.6767    4.3955  -17.7181 C   0  0  0  0  0  0  0  0  0  0  0  0
   -9.5073    4.0308  -16.4724 N   0  0  0  0  0  0  0  0  0  0  0  0
   -8.1807    4.2124  -16.2394 C   0  0  0  0  0  0  0  0  0  0  0  0
   -7.4943    4.1239  -15.0311 C   0  0  0  0  0  0  0  0  0  0  0  0
   -6.1407    4.4578  -15.0264 C   0  0  0  0  0  0  0  0  0  0  0  0
   -5.4852    4.8389  -16.2026 C   0  0  0  0  0  0  0  0  0  0  0  0
   -6.1555    4.8899  -17.4253 C   0  0  0  0  0  0  0  0  0  0  0  0
   -5.5309    5.2421  -18.6110 N   0  0  0  0  0  0  0  0  0  0  0  0
   -4.0962    5.7936  -18.8741 C   0  0  0  0  0  0  0  0  0  0  0  0
   -3.2015    5.9602  -18.1388 O   0  0  0  0  0  0  0  0  0  0  0  0
   -4.0499    6.1282  -20.3564 C   0  0  0  0  0  0  0  0  0  0  0  0
   -4.7423    7.4223  -20.6702 C   0  0  1  0  0  0  0  0  0  0  0  0
   -3.9305    8.7023  -20.9365 C   0  0  0  0  0  0  0  0  0  0  0  0
   -4.6015    7.9773  -22.0091 C   0  0  0  0  0  0  0  0  0  0  0  0
   -5.4836    8.3173  -23.1190 C   0  0  0  0  0  0  0  0  0  0  0  0
   -4.2336    7.4569  -23.3189 C   0  0  0  0  0  0  0  0  0  0  0  0
   -7.5113    4.5777  -17.4032 C   0  0  0  0  0  0  0  0  0  0  0  0
   -8.4856    4.5688  -18.3642 N   0  0  0  0  0  0  0  0  0  0  0  0
  1  2  1  0
  2  3  2  0
  3  4  1  0
  4  5  2  0
  5  6  1  0
  6  7  2  0
  7  8  1  0
  8  9  1  0
  9 10  1  0
 10 11  2  0
 10 12  1  0
 13 12  1  6
 13 14  1  0
 14 15  1  0
 15 16  1  0
 16 17  1  0
  8 18  2  0
 18 19  1  0
 19  2  1  0
 18  4  1  0
 15 13  1  0
 17 15  1  0
M  END
>  <fragmenstein_outcome>  (934) 
too moved

>  <exports>  (934) 
['/opt/xchem-fragalysis-2/maxwin/openbind-hippo/xx01zvns2b/cycle_01/syndirella/elabs/openbind_xx01zvns2b_c1_elab_chemspace_filtered.sdf']

>  <Energy>  (934) 
44.432828

>  <alias>  (934) 
XEOJZVNQNINIII-UHFFFAOYSA-N-P50-P50-P86-601533

>  <fragmenstein_runtime>  (934) 
12.329257

>  <scratch_subdir>  (934) 
/opt/xchem-fragalysis-2/maxwin/BulkDock/SCRATCH/601533/XEOJZVNQNINIII-UHFFFAOYSA-N-P50-P50-P86-601533

>  <HIPPO Compound ID>  (934) 
136830

>  <rmsd(smina/fragmenstein)>  (934) 
1.446

>  <distance_score>  (934) 
1.437841

>  <orig_smiles>  (934) 
Cc1nc2cccc(NC(=O)CC3CC34CC4)c2[nH]1

>  <fragmenstein_mode>  (934) 
expansion

>  <inchikey>  (934) 
XEOJZVNQNINIII-UHFFFAOYSA-N

>  <ref_pdb>  (934) 
Z0101a

>  <GNINA pK>  (934) 
nan

>  <gnina_score_min>  (934) 
5.385

>  <tags>  (934) 
xx01zvns2b_c1_elab_bulkdock_input,openbind_xx01zvns2b_c1_elab_nonasap_filtered_scored_top80percent,openbind_xx01zvns2b_c1_elab_chemspace_filtered_scored_top80percent,fragmenstein_placed,openbind_xx01zvns2b_c1_elab_chemspace_filtered_scored,openbind_xx01zvns2b_c1_elab_chemspace_filtered_scored_top40percent,openbind_xx01zvns2b_c1_elab_chemspace_filtered_scored_top20percent,openbind_xx01zvns2b_c1_elab_chemspace_filtered_scored_top60percent,openbind_xx01zvns2b_c1_elabs_filtered

>  <smiles>  (934) 
Cc1nc2cccc(NC(=O)CC3CC34CC4)c2[nH]1

>  <subsites>  (934) 
1 - Z4590/B/203/1

>  <gnina_score>  (934) 
5.208

>  <HIPPO Pose ID>  (934) 
91936

>  <ref_mols>  (934) 
Z0846a,Z1597a

>  <energy_score>  (934) 
-19.485477

>  <inspiration_score>  (934) 
None

>  <smina_score_min>  (934) 
-7.12

>  <fragmenstein_error>  (934) 


>  <name>  (934) 
XEOJZVNQNINIII-UHFFFAOYSA-N-P50-P50-P86-601533

$$$$
USDCODYWEPYOAQ-UHFFFAOYSA-N-P86-P50-P86-601533
     RDKit          3D

 19 20  0  0  0  0  0  0  0  0999 V2000
  -10.8353    4.5250  -18.2577 C   0  0  0  0  0  0  0  0  0  0  0  0
   -9.5181    4.2488  -17.6937 C   0  0  0  0  0  0  0  0  0  0  0  0
   -9.2873    4.0338  -16.4242 N   0  0  0  0  0  0  0  0  0  0  0  0
   -8.0020    4.4253  -16.2479 C   0  0  0  0  0  0  0  0  0  0  0  0
   -7.3292    4.6238  -15.0463 C   0  0  0  0  0  0  0  0  0  0  0  0
   -6.0463    5.1593  -15.1055 C   0  0  0  0  0  0  0  0  0  0  0  0
   -5.4378    5.4390  -16.3343 C   0  0  0  0  0  0  0  0  0  0  0  0
   -6.0823    5.1902  -17.5503 C   0  0  0  0  0  0  0  0  0  0  0  0
   -5.4386    5.3483  -18.7707 N   0  0  0  0  0  0  0  0  0  0  0  0
   -3.9780    5.7833  -19.0948 C   0  0  0  0  0  0  0  0  0  0  0  0
   -3.1210    6.1481  -18.3867 O   0  0  0  0  0  0  0  0  0  0  0  0
   -3.7570    5.5547  -20.5821 C   0  0  0  0  0  0  0  0  0  0  0  0
   -3.7955    6.8415  -21.3982 C   0  0  0  0  0  0  0  0  0  0  0  0
   -5.0349    6.9244  -22.2947 C   0  0  0  0  0  0  0  0  0  0  0  0
   -4.9040    7.9711  -23.4140 C   0  0  0  0  0  0  0  0  0  0  0  0
   -5.9545    7.7369  -24.4988 C   0  0  0  0  0  0  0  0  0  0  0  0
   -5.0132    9.3970  -22.8791 C   0  0  0  0  0  0  0  0  0  0  0  0
   -7.3860    4.7083  -17.4655 C   0  0  0  0  0  0  0  0  0  0  0  0
   -8.3588    4.4433  -18.3957 N   0  0  0  0  0  0  0  0  0  0  0  0
  1  2  1  0
  2  3  2  0
  3  4  1  0
  4  5  2  0
  5  6  1  0
  6  7  2  0
  7  8  1  0
  8  9  1  0
  9 10  1  0
 10 11  2  0
 10 12  1  0
 12 13  1  0
 13 14  1  0
 14 15  1  0
 15 16  1  0
 15 17  1  0
  8 18  2  0
 18 19  1  0
 19  2  1  0
 18  4  1  0
M  END
>  <fragmenstein_outcome>  (935) 
too moved

>  <exports>  (935) 
['/opt/xchem-fragalysis-2/maxwin/openbind-hippo/xx01zvns2b/cycle_01/syndirella/elabs/openbind_xx01zvns2b_c1_elab_chemspace_filtered.sdf']

>  <Energy>  (935) 
21.596122

>  <alias>  (935) 
USDCODYWEPYOAQ-UHFFFAOYSA-N-P86-P50-P86-601533

>  <fragmenstein_runtime>  (935) 
4.786573

>  <scratch_subdir>  (935) 
/opt/xchem-fragalysis-2/maxwin/BulkDock/SCRATCH/601533/USDCODYWEPYOAQ-UHFFFAOYSA-N-P86-P50-P86-601533

>  <HIPPO Compound ID>  (935) 
136831

>  <rmsd(smina/fragmenstein)>  (935) 
0.971

>  <distance_score>  (935) 
1.243652

>  <orig_smiles>  (935) 
Cc1nc2cccc(NC(=O)CCCC(C)C)c2[nH]1

>  <fragmenstein_mode>  (935) 
expansion

>  <inchikey>  (935) 
USDCODYWEPYOAQ-UHFFFAOYSA-N

>  <ref_pdb>  (935) 
Z0101a

>  <GNINA pK>  (935) 
nan

>  <gnina_score_min>  (935) 
5.335

>  <tags>  (935) 
xx01zvns2b_c1_elab_bulkdock_input,openbind_xx01zvns2b_c1_elab_nonasap_filtered_scored_top80percent,openbind_xx01zvns2b_c1_elab_chemspace_filtered_scored_top80percent,fragmenstein_placed,openbind_xx01zvns2b_c1_elab_chemspace_filtered_scored,openbind_xx01zvns2b_c1_elab_chemspace_filtered_scored_top40percent,openbind_xx01zvns2b_c1_elab_chemspace_filtered_scored_top20percent,openbind_xx01zvns2b_c1_elab_chemspace_filtered_scored_top60percent,openbind_xx01zvns2b_c1_elabs_filtered

>  <smiles>  (935) 
Cc1nc2cccc(NC(=O)CCCC(C)C)c2[nH]1

>  <subsites>  (935) 
1 - Z4590/B/203/1

>  <gnina_score>  (935) 
5.192

>  <HIPPO Pose ID>  (935) 
91939

>  <ref_mols>  (935) 
Z0846a,Z1597a

>  <energy_score>  (935) 
-24.531301

>  <inspiration_score>  (935) 
None

>  <smina_score_min>  (935) 
-6.631

>  <fragmenstein_error>  (935) 


>  <name>  (935) 
USDCODYWEPYOAQ-UHFFFAOYSA-N-P86-P50-P86-601533

$$$$
CAICZHLEMFLSIC-UHFFFAOYSA-N-P50-P50-P86-601533
     RDKit          3D

 19 20  0  0  0  0  0  0  0  0999 V2000
   -5.8375    7.7421  -24.5492 C   0  0  0  0  0  0  0  0  0  0  0  0
   -5.3953    8.0574  -23.1291 C   0  0  0  0  0  0  0  0  0  0  0  0
   -4.8586    6.8114  -22.4301 C   0  0  0  0  0  0  0  0  0  0  0  0
   -4.5702    7.0495  -20.9446 C   0  0  0  0  0  0  0  0  0  0  0  0
   -4.0418    5.7925  -20.2562 C   0  0  1  0  0  0  0  0  0  0  0  0
   -2.0981    5.6728  -20.4460 Br  0  0  0  0  0  0  0  0  0  0  0  0
   -4.4044    5.7438  -18.7642 C   0  0  0  0  0  0  0  0  0  0  0  0
   -3.6584    5.9788  -17.8922 O   0  0  0  0  0  0  0  0  0  0  0  0
   -5.9080    5.3012  -18.7221 N   0  0  0  0  0  0  0  0  0  0  0  0
   -6.7230    4.9833  -17.6449 C   0  0  0  0  0  0  0  0  0  0  0  0
   -6.2499    4.9597  -16.3313 C   0  0  0  0  0  0  0  0  0  0  0  0
   -7.0969    4.6224  -15.2727 C   0  0  0  0  0  0  0  0  0  0  0  0
   -6.4743    4.7118  -13.4977 Br  0  0  0  0  0  0  0  0  0  0  0  0
   -8.4243    4.2666  -15.4732 C   0  0  0  0  0  0  0  0  0  0  0  0
   -8.9138    4.3272  -16.7714 C   0  0  0  0  0  0  0  0  0  0  0  0
  -10.1946    4.1582  -17.1983 N   0  0  0  0  0  0  0  0  0  0  0  0
  -10.1887    4.6118  -18.4219 C   0  0  0  0  0  0  0  0  0  0  0  0
   -8.9204    4.7594  -18.8952 N   0  0  0  0  0  0  0  0  0  0  0  0
   -8.0743    4.6895  -17.8199 C   0  0  0  0  0  0  0  0  0  0  0  0
  1  2  1  0
  2  3  1  0
  3  4  1  0
  4  5  1  0
  5  6  1  1
  5  7  1  0
  7  8  2  0
  7  9  1  0
  9 10  1  0
 10 11  2  0
 11 12  1  0
 12 13  1  0
 12 14  2  0
 14 15  1  0
 15 16  1  0
 16 17  2  0
 17 18  1  0
 18 19  1  0
 19 10  1  0
 19 15  2  0
M  END
>  <fragmenstein_outcome>  (936) 
acceptable

>  <exports>  (936) 
['/opt/xchem-fragalysis-2/maxwin/BulkDock/OUTPUTS/xx01zvns2b_c1_elab_bulkdock_input_1GFT1FD.sdf', '/opt/xchem-fragalysis-2/maxwin/openbind-hippo/xx01zvns2b/cycle_01/syndirella/elabs/openbind_xx01zvns2b_c1_elab_chemspace_filtered.sdf']

>  <Energy>  (936) 
27.233555

>  <alias>  (936) 
CAICZHLEMFLSIC-UHFFFAOYSA-N-P50-P50-P86-601533

>  <fragmenstein_runtime>  (936) 
3.581625

>  <scratch_subdir>  (936) 
/opt/xchem-fragalysis-2/maxwin/BulkDock/SCRATCH/601533/CAICZHLEMFLSIC-UHFFFAOYSA-N-P50-P50-P86-601533

>  <HIPPO Compound ID>  (936) 
136840

>  <rmsd(smina/fragmenstein)>  (936) 
0.962

>  <distance_score>  (936) 
0.927851

>  <orig_smiles>  (936) 
CCCCC(Br)C(=O)Nc1cc(Br)cc2nc[nH]c12

>  <fragmenstein_mode>  (936) 
expansion

>  <inchikey>  (936) 
CAICZHLEMFLSIC-UHFFFAOYSA-N

>  <ref_pdb>  (936) 
Z0101a

>  <GNINA pK>  (936) 
nan

>  <gnina_score_min>  (936) 
5.909

>  <tags>  (936) 
xx01zvns2b_c1_elab_bulkdock_input,openbind_xx01zvns2b_c1_elab_nonasap_filtered_scored_top80percent,BulkDock Fragalysis export,openbind_xx01zvns2b_c1_elab_chemspace_filtered_scored_top80percent,fragmenstein_placed,openbind_xx01zvns2b_c1_elab_chemspace_filtered_scored,openbind_xx01zvns2b_c1_elab_chemspace_filtered_scored_top40percent,openbind_xx01zvns2b_c1_elab_chemspace_filtered_scored_top20percent,openbind_xx01zvns2b_c1_elab_chemspace_filtered_scored_top60percent,openbind_xx01zvns2b_c1_elabs_filtered

>  <smiles>  (936) 
CCCCC(Br)C(=O)Nc1cc(Br)cc2nc[nH]c12

>  <subsites>  (936) 
1 - Z4590/B/203/1

>  <gnina_score>  (936) 
5.621

>  <HIPPO Pose ID>  (936) 
91956

>  <ref_mols>  (936) 
Z0846a,Z1597a

>  <energy_score>  (936) 
-29.694173

>  <inspiration_score>  (936) 
None

>  <smina_score_min>  (936) 
-6.7

>  <fragmenstein_error>  (936) 


>  <name>  (936) 
CAICZHLEMFLSIC-UHFFFAOYSA-N-P50-P50-P86-601533

$$$$
FOXXVKRVGUGGDK-UHFFFAOYSA-N-P50-P50-P86-601533
     RDKit          3D

 19 20  0  0  0  0  0  0  0  0999 V2000
   -5.8541    7.7288  -24.5944 C   0  0  0  0  0  0  0  0  0  0  0  0
   -5.4255    8.0643  -23.1751 C   0  0  0  0  0  0  0  0  0  0  0  0
   -4.8829    6.8314  -22.4577 C   0  0  0  0  0  0  0  0  0  0  0  0
   -4.6079    7.0943  -20.9744 C   0  0  0  0  0  0  0  0  0  0  0  0
   -4.0569    5.8612  -20.2647 C   0  0  1  0  0  0  0  0  0  0  0  0
   -2.1182    5.7413  -20.5092 Br  0  0  0  0  0  0  0  0  0  0  0  0
   -4.3701    5.8698  -18.7608 C   0  0  0  0  0  0  0  0  0  0  0  0
   -3.6012    6.1645  -17.9273 O   0  0  0  0  0  0  0  0  0  0  0  0
   -5.8543    5.3763  -18.6443 N   0  0  0  0  0  0  0  0  0  0  0  0
   -6.6168    5.0716  -17.5250 C   0  0  0  0  0  0  0  0  0  0  0  0
   -6.0838    5.1079  -16.2307 C   0  0  0  0  0  0  0  0  0  0  0  0
   -6.8389    4.7386  -15.1062 C   0  0  0  0  0  0  0  0  0  0  0  0
   -6.2817    4.8466  -13.7243 C   0  0  0  0  0  0  0  0  0  0  0  0
   -8.1569    4.3117  -15.2539 C   0  0  0  0  0  0  0  0  0  0  0  0
   -8.7138    4.3134  -16.5295 C   0  0  0  0  0  0  0  0  0  0  0  0
   -9.9947    4.0340  -16.8838 N   0  0  0  0  0  0  0  0  0  0  0  0
  -10.0807    4.4207  -18.1265 C   0  0  0  0  0  0  0  0  0  0  0  0
   -8.8561    4.6810  -18.6663 N   0  0  0  0  0  0  0  0  0  0  0  0
   -7.9558    4.7009  -17.6309 C   0  0  0  0  0  0  0  0  0  0  0  0
  1  2  1  0
  2  3  1  0
  3  4  1  0
  4  5  1  0
  5  6  1  1
  5  7  1  0
  7  8  2  0
  7  9  1  0
  9 10  1  0
 10 11  2  0
 11 12  1  0
 12 13  1  0
 12 14  2  0
 14 15  1  0
 15 16  1  0
 16 17  2  0
 17 18  1  0
 18 19  1  0
 19 10  1  0
 19 15  2  0
M  END
>  <fragmenstein_outcome>  (937) 
too moved

>  <exports>  (937) 
['/opt/xchem-fragalysis-2/maxwin/openbind-hippo/xx01zvns2b/cycle_01/syndirella/elabs/openbind_xx01zvns2b_c1_elab_chemspace_filtered.sdf']

>  <Energy>  (937) 
36.579136

>  <alias>  (937) 
FOXXVKRVGUGGDK-UHFFFAOYSA-N-P50-P50-P86-601533

>  <fragmenstein_runtime>  (937) 
3.149715

>  <scratch_subdir>  (937) 
/opt/xchem-fragalysis-2/maxwin/BulkDock/SCRATCH/601533/FOXXVKRVGUGGDK-UHFFFAOYSA-N-P50-P50-P86-601533

>  <HIPPO Compound ID>  (937) 
136842

>  <rmsd(smina/fragmenstein)>  (937) 
1.022

>  <distance_score>  (937) 
1.180901

>  <orig_smiles>  (937) 
CCCCC(Br)C(=O)Nc1cc(C)cc2nc[nH]c12

>  <fragmenstein_mode>  (937) 
expansion

>  <inchikey>  (937) 
FOXXVKRVGUGGDK-UHFFFAOYSA-N

>  <ref_pdb>  (937) 
Z0101a

>  <GNINA pK>  (937) 
nan

>  <gnina_score_min>  (937) 
5.731

>  <tags>  (937) 
xx01zvns2b_c1_elab_bulkdock_input,openbind_xx01zvns2b_c1_elab_nonasap_filtered_scored_top80percent,openbind_xx01zvns2b_c1_elab_chemspace_filtered_scored_top80percent,fragmenstein_placed,openbind_xx01zvns2b_c1_elab_chemspace_filtered_scored,openbind_xx01zvns2b_c1_elab_chemspace_filtered_scored_top40percent,openbind_xx01zvns2b_c1_elab_chemspace_filtered_scored_top20percent,openbind_xx01zvns2b_c1_elab_chemspace_filtered_scored_top60percent,openbind_xx01zvns2b_c1_elabs_filtered

>  <smiles>  (937) 
CCCCC(Br)C(=O)Nc1cc(C)cc2nc[nH]c12

>  <subsites>  (937) 
1 - Z4590/B/203/1

>  <gnina_score>  (937) 
5.483

>  <HIPPO Pose ID>  (937) 
91960

>  <ref_mols>  (937) 
Z0846a,Z1597a

>  <energy_score>  (937) 
-23.713916

>  <inspiration_score>  (937) 
None

>  <smina_score_min>  (937) 
-6.823

>  <fragmenstein_error>  (937) 


>  <name>  (937) 
FOXXVKRVGUGGDK-UHFFFAOYSA-N-P50-P50-P86-601533

$$$$
COIKOJBAWAUJMO-UHFFFAOYSA-N-P50-P50-P86-601533
     RDKit          3D

 19 21  0  0  0  0  0  0  0  0999 V2000
   -3.5511    5.9693  -17.7776 O   0  0  0  0  0  0  0  0  0  0  0  0
   -4.2355    5.6307  -18.6640 C   0  0  0  0  0  0  0  0  0  0  0  0
   -3.6997    5.4704  -20.0834 C   0  0  0  0  0  0  0  0  0  0  0  0
   -3.8691    6.6255  -21.0613 C   0  0  0  0  0  0  0  0  0  0  0  0
   -3.5461    8.0216  -20.5342 C   0  0  0  0  0  0  0  0  0  0  0  0
   -4.2065    8.9704  -21.5357 C   0  0  0  0  0  0  0  0  0  0  0  0
   -5.1155    8.1140  -22.4153 C   0  0  0  0  0  0  0  0  0  0  0  0
   -5.2613    6.8144  -21.6493 C   0  0  0  0  0  0  0  0  0  0  0  0
   -5.7242    5.1723  -18.6714 N   0  0  0  0  0  0  0  0  0  0  0  0
   -6.6075    4.9557  -17.6188 C   0  0  0  0  0  0  0  0  0  0  0  0
   -6.1974    4.9768  -16.2836 C   0  0  0  0  0  0  0  0  0  0  0  0
   -7.0926    4.6750  -15.2521 C   0  0  0  0  0  0  0  0  0  0  0  0
   -6.5377    4.7888  -13.4559 Br  0  0  0  0  0  0  0  0  0  0  0  0
   -8.4151    4.3270  -15.4966 C   0  0  0  0  0  0  0  0  0  0  0  0
   -8.8494    4.3687  -16.8147 C   0  0  0  0  0  0  0  0  0  0  0  0
  -10.1184    4.2237  -17.2879 N   0  0  0  0  0  0  0  0  0  0  0  0
  -10.0458    4.6328  -18.5250 C   0  0  0  0  0  0  0  0  0  0  0  0
   -8.7554    4.7320  -18.9470 N   0  0  0  0  0  0  0  0  0  0  0  0
   -7.9573    4.6821  -17.8366 C   0  0  0  0  0  0  0  0  0  0  0  0
  1  2  2  0
  2  3  1  0
  3  4  1  0
  4  5  1  0
  5  6  1  0
  6  7  1  0
  7  8  1  0
  2  9  1  0
  9 10  1  0
 10 11  2  0
 11 12  1  0
 12 13  1  0
 12 14  2  0
 14 15  1  0
 15 16  1  0
 16 17  2  0
 17 18  1  0
 18 19  1  0
  8  4  1  0
 19 10  1  0
 19 15  2  0
M  END
>  <fragmenstein_outcome>  (938) 
too moved

>  <exports>  (938) 
['/opt/xchem-fragalysis-2/maxwin/openbind-hippo/xx01zvns2b/cycle_01/syndirella/elabs/openbind_xx01zvns2b_c1_elab_chemspace_filtered.sdf']

>  <Energy>  (938) 
13.383984

>  <alias>  (938) 
COIKOJBAWAUJMO-UHFFFAOYSA-N-P50-P50-P86-601533

>  <fragmenstein_runtime>  (938) 
4.035192

>  <scratch_subdir>  (938) 
/opt/xchem-fragalysis-2/maxwin/BulkDock/SCRATCH/601533/COIKOJBAWAUJMO-UHFFFAOYSA-N-P50-P50-P86-601533

>  <HIPPO Compound ID>  (938) 
136847

>  <rmsd(smina/fragmenstein)>  (938) 
1.007

>  <distance_score>  (938) 
1.563492

>  <orig_smiles>  (938) 
O=C(CC1CCCC1)Nc1cc(Br)cc2nc[nH]c12

>  <fragmenstein_mode>  (938) 
expansion

>  <inchikey>  (938) 
COIKOJBAWAUJMO-UHFFFAOYSA-N

>  <ref_pdb>  (938) 
Z0101a

>  <GNINA pK>  (938) 
nan

>  <gnina_score_min>  (938) 
5.57

>  <tags>  (938) 
xx01zvns2b_c1_elab_bulkdock_input,openbind_xx01zvns2b_c1_elab_nonasap_filtered_scored_top80percent,openbind_xx01zvns2b_c1_elab_chemspace_filtered_scored_top80percent,fragmenstein_placed,openbind_xx01zvns2b_c1_elab_chemspace_filtered_scored,openbind_xx01zvns2b_c1_elab_chemspace_filtered_scored_top40percent,openbind_xx01zvns2b_c1_elab_chemspace_filtered_scored_top20percent,openbind_xx01zvns2b_c1_elab_chemspace_filtered_scored_top60percent,openbind_xx01zvns2b_c1_elabs_filtered

>  <smiles>  (938) 
O=C(CC1CCCC1)Nc1cc(Br)cc2nc[nH]c12

>  <subsites>  (938) 
1 - Z4590/B/203/1

>  <gnina_score>  (938) 
5.408

>  <HIPPO Pose ID>  (938) 
91970

>  <ref_mols>  (938) 
Z0846a,Z1597a

>  <energy_score>  (938) 
-19.83191

>  <inspiration_score>  (938) 
None

>  <smina_score_min>  (938) 
-7.094

>  <fragmenstein_error>  (938) 


>  <name>  (938) 
COIKOJBAWAUJMO-UHFFFAOYSA-N-P50-P50-P86-601533

$$$$
VULNQLMTZUITSG-UHFFFAOYSA-N-P86-P50-P86-601533
     RDKit          3D

 19 21  0  0  0  0  0  0  0  0999 V2000
   -3.6235    5.7894  -18.8462 O   0  0  0  0  0  0  0  0  0  0  0  0
   -4.5716    5.6819  -19.5227 C   0  0  0  0  0  0  0  0  0  0  0  0
   -4.5416    5.9762  -21.0177 C   0  0  0  0  0  0  0  0  0  0  0  0
   -4.8004    7.4641  -21.2288 C   0  0  0  0  0  0  0  0  0  0  0  0
   -3.6262    8.3391  -20.8018 C   0  0  0  0  0  0  0  0  0  0  0  0
   -3.9176    9.6856  -21.4478 C   0  0  0  0  0  0  0  0  0  0  0  0
   -4.7951    9.3908  -22.6628 C   0  0  0  0  0  0  0  0  0  0  0  0
   -4.9866    7.8777  -22.6865 C   0  0  0  0  0  0  0  0  0  0  0  0
   -6.0458    5.3496  -19.1476 N   0  0  0  0  0  0  0  0  0  0  0  0
   -6.6092    5.0033  -17.9263 C   0  0  0  0  0  0  0  0  0  0  0  0
   -5.8996    5.0983  -16.7251 C   0  0  0  0  0  0  0  0  0  0  0  0
   -6.5171    4.8294  -15.4791 C   0  0  0  0  0  0  0  0  0  0  0  0
   -7.8540    4.4495  -15.4017 C   0  0  0  0  0  0  0  0  0  0  0  0
   -8.5198    4.3626  -16.5935 C   0  0  0  0  0  0  0  0  0  0  0  0
   -9.8735    4.1873  -16.8013 N   0  0  0  0  0  0  0  0  0  0  0  0
  -10.1519    4.4565  -18.1319 C   0  0  0  0  0  0  0  0  0  0  0  0
  -11.2653    4.6249  -18.5870 O   0  0  0  0  0  0  0  0  0  0  0  0
   -8.9311    4.5901  -18.7941 N   0  0  0  0  0  0  0  0  0  0  0  0
   -7.9261    4.6246  -17.8292 C   0  0  0  0  0  0  0  0  0  0  0  0
  1  2  2  0
  2  3  1  0
  3  4  1  0
  4  5  1  0
  5  6  1  0
  6  7  1  0
  7  8  1  0
  2  9  1  0
  9 10  1  0
 10 11  2  0
 11 12  1  0
 12 13  2  0
 13 14  1  0
 14 15  1  0
 15 16  1  0
 16 17  2  0
 16 18  1  0
 18 19  1  0
  8  4  1  0
 19 10  1  0
 19 14  2  0
M  END
>  <fragmenstein_outcome>  (939) 
too moved

>  <exports>  (939) 
['/opt/xchem-fragalysis-2/maxwin/openbind-hippo/xx01zvns2b/cycle_01/syndirella/elabs/openbind_xx01zvns2b_c1_elab_chemspace_filtered.sdf']

>  <Energy>  (939) 
-8.756261

>  <alias>  (939) 
VULNQLMTZUITSG-UHFFFAOYSA-N-P86-P50-P86-601533

>  <fragmenstein_runtime>  (939) 
10.143938

>  <scratch_subdir>  (939) 
/opt/xchem-fragalysis-2/maxwin/BulkDock/SCRATCH/601533/VULNQLMTZUITSG-UHFFFAOYSA-N-P86-P50-P86-601533

>  <HIPPO Compound ID>  (939) 
136848

>  <rmsd(smina/fragmenstein)>  (939) 
0.608

>  <distance_score>  (939) 
1.526743

>  <orig_smiles>  (939) 
O=C(CC1CCCC1)Nc1cccc2[nH]c(=O)[nH]c12

>  <fragmenstein_mode>  (939) 
expansion

>  <inchikey>  (939) 
VULNQLMTZUITSG-UHFFFAOYSA-N

>  <ref_pdb>  (939) 
Z0101a

>  <GNINA pK>  (939) 
nan

>  <gnina_score_min>  (939) 
5.323

>  <tags>  (939) 
xx01zvns2b_c1_elab_bulkdock_input,openbind_xx01zvns2b_c1_elab_nonasap_filtered_scored_top80percent,openbind_xx01zvns2b_c1_elab_chemspace_filtered_scored_top80percent,fragmenstein_placed,openbind_xx01zvns2b_c1_elab_chemspace_filtered_scored,openbind_xx01zvns2b_c1_elab_chemspace_filtered_scored_top40percent,openbind_xx01zvns2b_c1_elab_chemspace_filtered_scored_top20percent,openbind_xx01zvns2b_c1_elab_chemspace_filtered_scored_top60percent,openbind_xx01zvns2b_c1_elabs_filtered

>  <smiles>  (939) 
O=C(CC1CCCC1)Nc1cccc2[nH]c(=O)[nH]c12

>  <subsites>  (939) 
1 - Z4590/B/203/1

>  <gnina_score>  (939) 
5.212

>  <HIPPO Pose ID>  (939) 
91973

>  <ref_mols>  (939) 
Z0846a,Z1597a

>  <energy_score>  (939) 
-24.384891

>  <inspiration_score>  (939) 
None

>  <smina_score_min>  (939) 
-7.393

>  <fragmenstein_error>  (939) 


>  <name>  (939) 
VULNQLMTZUITSG-UHFFFAOYSA-N-P86-P50-P86-601533

$$$$
GVXHEIQKPSDQDJ-UHFFFAOYSA-N-P50-P50-P86-601533
     RDKit          3D

 19 21  0  0  0  0  0  0  0  0999 V2000
   -5.3192   10.0169  -23.6111 O   0  0  0  0  0  0  0  0  0  0  0  0
   -5.0246    9.0605  -22.9291 C   0  0  0  0  0  0  0  0  0  0  0  0
   -5.2493    7.5324  -23.0548 C   0  0  0  0  0  0  0  0  0  0  0  0
   -5.1843    7.5126  -21.4909 C   0  0  0  0  0  0  0  0  0  0  0  0
   -4.6114    6.2495  -20.8751 C   0  0  0  0  0  0  0  0  0  0  0  0
   -4.7848    6.1516  -19.3636 C   0  0  0  0  0  0  0  0  0  0  0  0
   -3.9364    6.4310  -18.6075 O   0  0  0  0  0  0  0  0  0  0  0  0
   -6.2175    5.5813  -19.1116 N   0  0  0  0  0  0  0  0  0  0  0  0
   -6.8313    5.1684  -17.9316 C   0  0  0  0  0  0  0  0  0  0  0  0
   -6.1892    5.1623  -16.6903 C   0  0  0  0  0  0  0  0  0  0  0  0
   -6.8586    4.7257  -15.5388 C   0  0  0  0  0  0  0  0  0  0  0  0
   -6.0350    4.8483  -13.8489 Br  0  0  0  0  0  0  0  0  0  0  0  0
   -8.1618    4.2453  -15.5721 C   0  0  0  0  0  0  0  0  0  0  0  0
   -8.8218    4.2966  -16.7910 C   0  0  0  0  0  0  0  0  0  0  0  0
  -10.1289    4.0264  -17.0470 N   0  0  0  0  0  0  0  0  0  0  0  0
  -10.3298    4.4954  -18.2484 C   0  0  0  0  0  0  0  0  0  0  0  0
   -9.1536    4.7673  -18.8795 N   0  0  0  0  0  0  0  0  0  0  0  0
   -8.1646    4.7531  -17.9287 C   0  0  0  0  0  0  0  0  0  0  0  0
   -4.3661    8.8476  -21.5286 C   0  0  0  0  0  0  0  0  0  0  0  0
  1  2  2  0
  2  3  1  0
  3  4  1  0
  4  5  1  0
  5  6  1  0
  6  7  2  0
  6  8  1  0
  8  9  1  0
  9 10  2  0
 10 11  1  0
 11 12  1  0
 11 13  2  0
 13 14  1  0
 14 15  1  0
 15 16  2  0
 16 17  1  0
 17 18  1  0
  4 19  1  0
 19  2  1  0
 18  9  1  0
 18 14  2  0
M  END
>  <fragmenstein_outcome>  (940) 
too moved

>  <exports>  (940) 
['/opt/xchem-fragalysis-2/maxwin/openbind-hippo/xx01zvns2b/cycle_01/syndirella/elabs/openbind_xx01zvns2b_c1_elab_chemspace_filtered.sdf']

>  <Energy>  (940) 
12.255318

>  <alias>  (940) 
GVXHEIQKPSDQDJ-UHFFFAOYSA-N-P50-P50-P86-601533

>  <fragmenstein_runtime>  (940) 
28.484914

>  <scratch_subdir>  (940) 
/opt/xchem-fragalysis-2/maxwin/BulkDock/SCRATCH/601533/GVXHEIQKPSDQDJ-UHFFFAOYSA-N-P50-P50-P86-601533

>  <HIPPO Compound ID>  (940) 
136854

>  <rmsd(smina/fragmenstein)>  (940) 
1.305

>  <distance_score>  (940) 
1.056551

>  <orig_smiles>  (940) 
O=C1CC(CC(=O)Nc2cc(Br)cc3nc[nH]c23)C1

>  <fragmenstein_mode>  (940) 
expansion

>  <inchikey>  (940) 
GVXHEIQKPSDQDJ-UHFFFAOYSA-N

>  <ref_pdb>  (940) 
Z0101a

>  <GNINA pK>  (940) 
nan

>  <gnina_score_min>  (940) 
5.52

>  <tags>  (940) 
xx01zvns2b_c1_elab_bulkdock_input,openbind_xx01zvns2b_c1_elab_nonasap_filtered_scored_top80percent,openbind_xx01zvns2b_c1_elab_chemspace_filtered_scored_top80percent,fragmenstein_placed,openbind_xx01zvns2b_c1_elab_chemspace_filtered_scored,openbind_xx01zvns2b_c1_elab_chemspace_filtered_scored_top40percent,openbind_xx01zvns2b_c1_elab_chemspace_filtered_scored_top20percent,openbind_xx01zvns2b_c1_elab_chemspace_filtered_scored_top60percent,openbind_xx01zvns2b_c1_elabs_filtered

>  <smiles>  (940) 
O=C1CC(CC(=O)Nc2cc(Br)cc3nc[nH]c23)C1

>  <subsites>  (940) 
1 - Z4590/B/203/1

>  <gnina_score>  (940) 
5.361

>  <HIPPO Pose ID>  (940) 
91984

>  <ref_mols>  (940) 
Z0846a,Z1597a

>  <energy_score>  (940) 
-18.129225

>  <inspiration_score>  (940) 
None

>  <smina_score_min>  (940) 
-7.332

>  <fragmenstein_error>  (940) 


>  <name>  (940) 
GVXHEIQKPSDQDJ-UHFFFAOYSA-N-P50-P50-P86-601533

$$$$
NVLLWYPYPATZNK-UHFFFAOYSA-N-P50-P50-P86-601533
     RDKit          3D

 19 21  0  0  0  0  0  0  0  0999 V2000
   -5.2644   10.1258  -23.5599 O   0  0  0  0  0  0  0  0  0  0  0  0
   -5.0123    9.1247  -22.9266 C   0  0  0  0  0  0  0  0  0  0  0  0
   -4.2713    8.8016  -21.5906 C   0  0  0  0  0  0  0  0  0  0  0  0
   -5.1918    7.5358  -21.5327 C   0  0  0  0  0  0  0  0  0  0  0  0
   -4.6659    6.1919  -21.0633 C   0  0  0  0  0  0  0  0  0  0  0  0
   -4.6835    5.9830  -19.5561 C   0  0  0  0  0  0  0  0  0  0  0  0
   -3.7299    6.1098  -18.8892 O   0  0  0  0  0  0  0  0  0  0  0  0
   -6.1345    5.5500  -19.1743 N   0  0  0  0  0  0  0  0  0  0  0  0
   -6.6573    5.1121  -17.9594 C   0  0  0  0  0  0  0  0  0  0  0  0
   -5.9127    5.0649  -16.7800 C   0  0  0  0  0  0  0  0  0  0  0  0
   -6.5055    4.6715  -15.5534 C   0  0  0  0  0  0  0  0  0  0  0  0
   -7.8574    4.3364  -15.4697 C   0  0  0  0  0  0  0  0  0  0  0  0
   -8.5639    4.3956  -16.6395 C   0  0  0  0  0  0  0  0  0  0  0  0
   -9.9295    4.2729  -16.8350 N   0  0  0  0  0  0  0  0  0  0  0  0
  -10.2178    4.6244  -18.1476 C   0  0  0  0  0  0  0  0  0  0  0  0
  -11.3288    4.8049  -18.6034 O   0  0  0  0  0  0  0  0  0  0  0  0
   -9.0015    4.8005  -18.8065 N   0  0  0  0  0  0  0  0  0  0  0  0
   -7.9821    4.7448  -17.8594 C   0  0  0  0  0  0  0  0  0  0  0  0
   -5.3891    7.6350  -23.0830 C   0  0  0  0  0  0  0  0  0  0  0  0
  1  2  2  0
  2  3  1  0
  3  4  1  0
  4  5  1  0
  5  6  1  0
  6  7  2  0
  6  8  1  0
  8  9  1  0
  9 10  2  0
 10 11  1  0
 11 12  2  0
 12 13  1  0
 13 14  1  0
 14 15  1  0
 15 16  2  0
 15 17  1  0
 17 18  1  0
  4 19  1  0
 19  2  1  0
 18  9  1  0
 18 13  2  0
M  END
>  <fragmenstein_outcome>  (941) 
too moved

>  <exports>  (941) 
['/opt/xchem-fragalysis-2/maxwin/openbind-hippo/xx01zvns2b/cycle_01/syndirella/elabs/openbind_xx01zvns2b_c1_elab_chemspace_filtered.sdf']

>  <Energy>  (941) 
-8.480724

>  <alias>  (941) 
NVLLWYPYPATZNK-UHFFFAOYSA-N-P50-P50-P86-601533

>  <fragmenstein_runtime>  (941) 
20.512431

>  <scratch_subdir>  (941) 
/opt/xchem-fragalysis-2/maxwin/BulkDock/SCRATCH/601533/NVLLWYPYPATZNK-UHFFFAOYSA-N-P50-P50-P86-601533

>  <HIPPO Compound ID>  (941) 
136855

>  <rmsd(smina/fragmenstein)>  (941) 
1.534

>  <distance_score>  (941) 
1.217509

>  <orig_smiles>  (941) 
O=C1CC(CC(=O)Nc2cccc3[nH]c(=O)[nH]c23)C1

>  <fragmenstein_mode>  (941) 
expansion

>  <inchikey>  (941) 
NVLLWYPYPATZNK-UHFFFAOYSA-N

>  <ref_pdb>  (941) 
Z0101a

>  <GNINA pK>  (941) 
nan

>  <gnina_score_min>  (941) 
5.395

>  <tags>  (941) 
xx01zvns2b_c1_elab_bulkdock_input,openbind_xx01zvns2b_c1_elab_nonasap_filtered_scored_top80percent,openbind_xx01zvns2b_c1_elab_chemspace_filtered_scored_top80percent,fragmenstein_placed,openbind_xx01zvns2b_c1_elab_chemspace_filtered_scored,openbind_xx01zvns2b_c1_elab_chemspace_filtered_scored_top40percent,openbind_xx01zvns2b_c1_elab_chemspace_filtered_scored_top20percent,openbind_xx01zvns2b_c1_elab_chemspace_filtered_scored_top60percent,openbind_xx01zvns2b_c1_elabs_filtered

>  <smiles>  (941) 
O=C1CC(CC(=O)Nc2cccc3[nH]c(=O)[nH]c23)C1

>  <subsites>  (941) 
1 - Z4590/B/203/1

>  <gnina_score>  (941) 
5.099

>  <HIPPO Pose ID>  (941) 
91986

>  <ref_mols>  (941) 
Z0846a,Z1597a

>  <energy_score>  (941) 
-31.139676

>  <inspiration_score>  (941) 
None

>  <smina_score_min>  (941) 
-7.559

>  <fragmenstein_error>  (941) 


>  <name>  (941) 
NVLLWYPYPATZNK-UHFFFAOYSA-N-P50-P50-P86-601533

$$$$
JYADDJQKLSTADP-UHFFFAOYSA-N-P50-P50-P86-601533
     RDKit          3D

 19 21  0  0  0  0  0  0  0  0999 V2000
   -5.7576    5.1889  -14.2230 C   0  0  0  0  0  0  0  0  0  0  0  0
   -6.5281    4.9897  -15.4877 C   0  0  0  0  0  0  0  0  0  0  0  0
   -6.0644    5.4794  -16.7261 C   0  0  0  0  0  0  0  0  0  0  0  0
   -6.8310    5.3723  -17.8923 C   0  0  0  0  0  0  0  0  0  0  0  0
   -6.4316    5.8524  -19.1369 N   0  0  0  0  0  0  0  0  0  0  0  0
   -5.1278    6.6006  -19.5647 C   0  0  0  0  0  0  0  0  0  0  0  0
   -4.2326    6.9918  -18.9208 O   0  0  0  0  0  0  0  0  0  0  0  0
   -5.2405    6.7549  -21.0760 C   0  0  0  0  0  0  0  0  0  0  0  0
   -4.1540    7.5821  -21.7609 C   0  0  0  0  0  0  0  0  0  0  0  0
   -4.4064    7.7299  -23.2974 C   0  0  0  0  0  0  0  0  0  0  0  0
   -4.9379    9.1450  -22.9925 C   0  0  0  0  0  0  0  0  0  0  0  0
   -5.6379    9.9334  -23.5918 O   0  0  0  0  0  0  0  0  0  0  0  0
   -4.2758    9.1320  -21.5957 C   0  0  0  0  0  0  0  0  0  0  0  0
   -8.0886    4.7831  -17.7444 C   0  0  0  0  0  0  0  0  0  0  0  0
   -9.1561    4.6181  -18.5926 N   0  0  0  0  0  0  0  0  0  0  0  0
  -10.2024    4.1648  -17.8470 C   0  0  0  0  0  0  0  0  0  0  0  0
   -9.8335    3.8393  -16.6375 N   0  0  0  0  0  0  0  0  0  0  0  0
   -8.5580    4.2913  -16.5318 C   0  0  0  0  0  0  0  0  0  0  0  0
   -7.7707    4.3636  -15.3893 C   0  0  0  0  0  0  0  0  0  0  0  0
  1  2  1  0
  2  3  2  0
  3  4  1  0
  4  5  1  0
  5  6  1  0
  6  7  2  0
  6  8  1  0
  8  9  1  0
  9 10  1  0
 10 11  1  0
 11 12  2  0
 11 13  1  0
  4 14  2  0
 14 15  1  0
 15 16  1  0
 16 17  2  0
 17 18  1  0
 18 19  2  0
 19  2  1  0
 13  9  1  0
 18 14  1  0
M  END
>  <fragmenstein_outcome>  (942) 
too moved

>  <exports>  (942) 
['/opt/xchem-fragalysis-2/maxwin/openbind-hippo/xx01zvns2b/cycle_01/syndirella/elabs/openbind_xx01zvns2b_c1_elab_chemspace_filtered.sdf']

>  <Energy>  (942) 
18.019876

>  <alias>  (942) 
JYADDJQKLSTADP-UHFFFAOYSA-N-P50-P50-P86-601533

>  <fragmenstein_runtime>  (942) 
9.804579

>  <scratch_subdir>  (942) 
/opt/xchem-fragalysis-2/maxwin/BulkDock/SCRATCH/601533/JYADDJQKLSTADP-UHFFFAOYSA-N-P50-P50-P86-601533

>  <HIPPO Compound ID>  (942) 
136856

>  <rmsd(smina/fragmenstein)>  (942) 
1.871

>  <distance_score>  (942) 
1.44507

>  <orig_smiles>  (942) 
Cc1cc(NC(=O)CC2CC(=O)C2)c2[nH]cnc2c1

>  <fragmenstein_mode>  (942) 
expansion

>  <inchikey>  (942) 
JYADDJQKLSTADP-UHFFFAOYSA-N

>  <ref_pdb>  (942) 
Z0101a

>  <GNINA pK>  (942) 
nan

>  <gnina_score_min>  (942) 
5.217

>  <tags>  (942) 
xx01zvns2b_c1_elab_bulkdock_input,openbind_xx01zvns2b_c1_elab_nonasap_filtered_scored_top80percent,openbind_xx01zvns2b_c1_elab_chemspace_filtered_scored_top80percent,fragmenstein_placed,openbind_xx01zvns2b_c1_elab_chemspace_filtered_scored,openbind_xx01zvns2b_c1_elab_chemspace_filtered_scored_top40percent,openbind_xx01zvns2b_c1_elab_chemspace_filtered_scored_top20percent,openbind_xx01zvns2b_c1_elab_chemspace_filtered_scored_top60percent,openbind_xx01zvns2b_c1_elabs_filtered

>  <smiles>  (942) 
Cc1cc(NC(=O)CC2CC(=O)C2)c2[nH]cnc2c1

>  <subsites>  (942) 
1 - Z4590/B/203/1

>  <gnina_score>  (942) 
5.127

>  <HIPPO Pose ID>  (942) 
91988

>  <ref_mols>  (942) 
Z0846a,Z1597a

>  <energy_score>  (942) 
-30.246156

>  <inspiration_score>  (942) 
None

>  <smina_score_min>  (942) 
-7.404

>  <fragmenstein_error>  (942) 


>  <name>  (942) 
JYADDJQKLSTADP-UHFFFAOYSA-N-P50-P50-P86-601533

$$$$
VUUUCDOSMAFTQX-UHFFFAOYSA-N-P86-P50-P86-601533
     RDKit          3D

 19 20  0  0  0  0  0  0  0  0999 V2000
   -5.7421    7.6298  -24.5376 C   0  0  0  0  0  0  0  0  0  0  0  0
   -5.2292    8.0104  -23.1587 C   0  0  0  0  0  0  0  0  0  0  0  0
   -4.6946    6.7947  -22.4049 C   0  0  0  0  0  0  0  0  0  0  0  0
   -4.2330    7.1539  -20.9960 C   0  0  0  0  0  0  0  0  0  0  0  0
   -3.8826    5.9233  -20.2005 C   0  0  0  0  0  0  0  0  0  0  0  0
   -3.2888    4.9448  -20.6273 O   0  0  0  0  0  0  0  0  0  0  0  0
   -4.3658    5.9212  -18.7582 C   0  0  0  0  0  0  0  0  0  0  0  0
   -3.7050    6.3590  -17.9058 O   0  0  0  0  0  0  0  0  0  0  0  0
   -5.7775    5.3022  -18.7112 N   0  0  0  0  0  0  0  0  0  0  0  0
   -6.6006    5.0174  -17.6318 C   0  0  0  0  0  0  0  0  0  0  0  0
   -6.1880    5.1415  -16.3039 C   0  0  0  0  0  0  0  0  0  0  0  0
   -7.0502    4.8072  -15.2540 C   0  0  0  0  0  0  0  0  0  0  0  0
   -6.5049    5.0480  -13.4676 Br  0  0  0  0  0  0  0  0  0  0  0  0
   -8.3380    4.3337  -15.4738 C   0  0  0  0  0  0  0  0  0  0  0  0
   -8.7778    4.2812  -16.7895 C   0  0  0  0  0  0  0  0  0  0  0  0
  -10.0387    4.0571  -17.2455 N   0  0  0  0  0  0  0  0  0  0  0  0
   -9.9987    4.4419  -18.4909 C   0  0  0  0  0  0  0  0  0  0  0  0
   -8.7199    4.5602  -18.9410 N   0  0  0  0  0  0  0  0  0  0  0  0
   -7.9179    4.6142  -17.8312 C   0  0  0  0  0  0  0  0  0  0  0  0
  1  2  1  0
  2  3  1  0
  3  4  1  0
  4  5  1  0
  5  6  2  0
  5  7  1  0
  7  8  2  0
  7  9  1  0
  9 10  1  0
 10 11  2  0
 11 12  1  0
 12 13  1  0
 12 14  2  0
 14 15  1  0
 15 16  1  0
 16 17  2  0
 17 18  1  0
 18 19  1  0
 19 10  1  0
 19 15  2  0
M  END
>  <fragmenstein_outcome>  (943) 
too moved

>  <exports>  (943) 
['/opt/xchem-fragalysis-2/maxwin/openbind-hippo/xx01zvns2b/cycle_01/syndirella/elabs/openbind_xx01zvns2b_c1_elab_chemspace_filtered.sdf']

>  <Energy>  (943) 
43.937817

>  <alias>  (943) 
VUUUCDOSMAFTQX-UHFFFAOYSA-N-P86-P50-P86-601533

>  <fragmenstein_runtime>  (943) 
3.420363

>  <scratch_subdir>  (943) 
/opt/xchem-fragalysis-2/maxwin/BulkDock/SCRATCH/601533/VUUUCDOSMAFTQX-UHFFFAOYSA-N-P86-P50-P86-601533

>  <HIPPO Compound ID>  (943) 
136860

>  <rmsd(smina/fragmenstein)>  (943) 
0.995

>  <distance_score>  (943) 
1.01562

>  <orig_smiles>  (943) 
CCCCC(=O)C(=O)Nc1cc(Br)cc2nc[nH]c12

>  <fragmenstein_mode>  (943) 
expansion

>  <inchikey>  (943) 
VUUUCDOSMAFTQX-UHFFFAOYSA-N

>  <ref_pdb>  (943) 
Z0101a

>  <GNINA pK>  (943) 
nan

>  <gnina_score_min>  (943) 
5.479

>  <tags>  (943) 
xx01zvns2b_c1_elab_bulkdock_input,openbind_xx01zvns2b_c1_elab_nonasap_filtered_scored_top80percent,openbind_xx01zvns2b_c1_elab_chemspace_filtered_scored_top80percent,fragmenstein_placed,openbind_xx01zvns2b_c1_elab_chemspace_filtered_scored,openbind_xx01zvns2b_c1_elab_chemspace_filtered_scored_top40percent,openbind_xx01zvns2b_c1_elab_chemspace_filtered_scored_top20percent,openbind_xx01zvns2b_c1_elab_chemspace_filtered_scored_top60percent,openbind_xx01zvns2b_c1_elabs_filtered

>  <smiles>  (943) 
CCCCC(=O)C(=O)Nc1cc(Br)cc2nc[nH]c12

>  <subsites>  (943) 
1 - Z4590/B/203/1

>  <gnina_score>  (943) 
5.386

>  <HIPPO Pose ID>  (943) 
91997

>  <ref_mols>  (943) 
Z0846a,Z1597a

>  <energy_score>  (943) 
-20.784835

>  <inspiration_score>  (943) 
None

>  <smina_score_min>  (943) 
-6.929

>  <fragmenstein_error>  (943) 


>  <name>  (943) 
VUUUCDOSMAFTQX-UHFFFAOYSA-N-P86-P50-P86-601533

$$$$
RVIWUVVBOYFDOL-UHFFFAOYSA-N-P86-P50-P86-601533
     RDKit          3D

 19 20  0  0  0  0  0  0  0  0999 V2000
   -5.7956    7.6468  -24.6372 C   0  0  0  0  0  0  0  0  0  0  0  0
   -5.2404    8.0690  -23.2879 C   0  0  0  0  0  0  0  0  0  0  0  0
   -4.7180    6.8708  -22.4997 C   0  0  0  0  0  0  0  0  0  0  0  0
   -4.1751    7.2839  -21.1360 C   0  0  0  0  0  0  0  0  0  0  0  0
   -3.9733    6.0877  -20.2494 C   0  0  0  0  0  0  0  0  0  0  0  0
   -3.5305    5.0032  -20.5987 O   0  0  0  0  0  0  0  0  0  0  0  0
   -4.4442    6.2526  -18.8156 C   0  0  0  0  0  0  0  0  0  0  0  0
   -3.9214    6.9945  -18.0868 O   0  0  0  0  0  0  0  0  0  0  0  0
   -5.6680    5.3403  -18.6049 N   0  0  0  0  0  0  0  0  0  0  0  0
   -6.4223    5.0878  -17.4614 C   0  0  0  0  0  0  0  0  0  0  0  0
   -5.9871    5.1809  -16.1252 C   0  0  0  0  0  0  0  0  0  0  0  0
   -4.5863    5.5577  -15.7266 C   0  0  0  0  0  0  0  0  0  0  0  0
   -6.8655    4.8416  -15.0731 C   0  0  0  0  0  0  0  0  0  0  0  0
   -8.1622    4.3831  -15.3028 C   0  0  0  0  0  0  0  0  0  0  0  0
   -8.6013    4.3151  -16.6194 C   0  0  0  0  0  0  0  0  0  0  0  0
   -9.8508    4.0373  -17.0864 N   0  0  0  0  0  0  0  0  0  0  0  0
   -9.8104    4.3758  -18.3468 C   0  0  0  0  0  0  0  0  0  0  0  0
   -8.5340    4.5718  -18.7761 N   0  0  0  0  0  0  0  0  0  0  0  0
   -7.7405    4.6547  -17.6562 C   0  0  0  0  0  0  0  0  0  0  0  0
  1  2  1  0
  2  3  1  0
  3  4  1  0
  4  5  1  0
  5  6  2  0
  5  7  1  0
  7  8  2  0
  7  9  1  0
  9 10  1  0
 10 11  2  0
 11 12  1  0
 11 13  1  0
 13 14  2  0
 14 15  1  0
 15 16  1  0
 16 17  2  0
 17 18  1  0
 18 19  1  0
 19 10  1  0
 19 15  2  0
M  END
>  <fragmenstein_outcome>  (944) 
too moved

>  <exports>  (944) 
['/opt/xchem-fragalysis-2/maxwin/openbind-hippo/xx01zvns2b/cycle_01/syndirella/elabs/openbind_xx01zvns2b_c1_elab_chemspace_filtered.sdf']

>  <Energy>  (944) 
59.29664

>  <alias>  (944) 
RVIWUVVBOYFDOL-UHFFFAOYSA-N-P86-P50-P86-601533

>  <fragmenstein_runtime>  (944) 
3.246412

>  <scratch_subdir>  (944) 
/opt/xchem-fragalysis-2/maxwin/BulkDock/SCRATCH/601533/RVIWUVVBOYFDOL-UHFFFAOYSA-N-P86-P50-P86-601533

>  <HIPPO Compound ID>  (944) 
136861

>  <rmsd(smina/fragmenstein)>  (944) 
0.929

>  <distance_score>  (944) 
1.258989

>  <orig_smiles>  (944) 
CCCCC(=O)C(=O)Nc1c(C)ccc2nc[nH]c12

>  <fragmenstein_mode>  (944) 
expansion

>  <inchikey>  (944) 
RVIWUVVBOYFDOL-UHFFFAOYSA-N

>  <ref_pdb>  (944) 
Z0101a

>  <GNINA pK>  (944) 
nan

>  <gnina_score_min>  (944) 
5.49

>  <tags>  (944) 
xx01zvns2b_c1_elab_bulkdock_input,openbind_xx01zvns2b_c1_elab_nonasap_filtered_scored_top80percent,openbind_xx01zvns2b_c1_elab_chemspace_filtered_scored_top80percent,fragmenstein_placed,openbind_xx01zvns2b_c1_elab_chemspace_filtered_scored,openbind_xx01zvns2b_c1_elab_chemspace_filtered_scored_top40percent,openbind_xx01zvns2b_c1_elab_chemspace_filtered_scored_top20percent,openbind_xx01zvns2b_c1_elab_chemspace_filtered_scored_top60percent,openbind_xx01zvns2b_c1_elabs_filtered

>  <smiles>  (944) 
CCCCC(=O)C(=O)Nc1c(C)ccc2nc[nH]c12

>  <subsites>  (944) 
1 - Z4590/B/203/1

>  <gnina_score>  (944) 
5.245

>  <HIPPO Pose ID>  (944) 
91999

>  <ref_mols>  (944) 
Z0846a,Z1597a

>  <energy_score>  (944) 
-14.150671

>  <inspiration_score>  (944) 
None

>  <smina_score_min>  (944) 
-6.73

>  <fragmenstein_error>  (944) 


>  <name>  (944) 
RVIWUVVBOYFDOL-UHFFFAOYSA-N-P86-P50-P86-601533

$$$$
CKAOJEMBZHXZHT-UHFFFAOYSA-N-P50-P50-P86-601534
     RDKit          3D

 19 20  0  0  0  0  0  0  0  0999 V2000
   -5.9009    7.7092  -24.3279 C   0  0  0  0  0  0  0  0  0  0  0  0
   -4.9550    7.9210  -23.1600 C   0  0  1  0  0  0  0  0  0  0  0  0
   -5.1655    9.1744  -22.6687 F   0  0  0  0  0  0  0  0  0  0  0  0
   -5.1841    6.9129  -22.0352 C   0  0  0  0  0  0  0  0  0  0  0  0
   -4.0467    6.9011  -21.0057 C   0  0  0  0  0  0  0  0  0  0  0  0
   -3.9324    5.5731  -20.2617 C   0  0  0  0  0  0  0  0  0  0  0  0
   -4.3432    5.6010  -18.7977 C   0  0  0  0  0  0  0  0  0  0  0  0
   -3.5693    5.7545  -17.9338 O   0  0  0  0  0  0  0  0  0  0  0  0
   -5.8701    5.2937  -18.7426 N   0  0  0  0  0  0  0  0  0  0  0  0
   -6.6990    5.0296  -17.6578 C   0  0  0  0  0  0  0  0  0  0  0  0
   -6.2328    5.0274  -16.3411 C   0  0  0  0  0  0  0  0  0  0  0  0
   -7.0777    4.6827  -15.2819 C   0  0  0  0  0  0  0  0  0  0  0  0
   -6.4578    4.7805  -13.5062 Br  0  0  0  0  0  0  0  0  0  0  0  0
   -8.3987    4.3029  -15.4821 C   0  0  0  0  0  0  0  0  0  0  0  0
   -8.8862    4.3553  -16.7811 C   0  0  0  0  0  0  0  0  0  0  0  0
  -10.1645    4.1682  -17.2091 N   0  0  0  0  0  0  0  0  0  0  0  0
  -10.1607    4.6162  -18.4348 C   0  0  0  0  0  0  0  0  0  0  0  0
   -8.8930    4.7732  -18.9068 N   0  0  0  0  0  0  0  0  0  0  0  0
   -8.0483    4.7226  -17.8298 C   0  0  0  0  0  0  0  0  0  0  0  0
  2  1  1  6
  2  3  1  0
  2  4  1  0
  4  5  1  0
  5  6  1  0
  6  7  1  0
  7  8  2  0
  7  9  1  0
  9 10  1  0
 10 11  2  0
 11 12  1  0
 12 13  1  0
 12 14  2  0
 14 15  1  0
 15 16  1  0
 16 17  2  0
 17 18  1  0
 18 19  1  0
 19 10  1  0
 19 15  2  0
M  END
>  <fragmenstein_outcome>  (945) 
acceptable

>  <exports>  (945) 
['/opt/xchem-fragalysis-2/maxwin/BulkDock/OUTPUTS/xx01zvns2b_c1_elab_bulkdock_input_1GFT1FD.sdf', '/opt/xchem-fragalysis-2/maxwin/openbind-hippo/xx01zvns2b/cycle_01/syndirella/elabs/openbind_xx01zvns2b_c1_elab_chemspace_filtered.sdf']

>  <Energy>  (945) 
10.183122

>  <alias>  (945) 
CKAOJEMBZHXZHT-UHFFFAOYSA-N-P50-P50-P86-601534

>  <fragmenstein_runtime>  (945) 
6.139285

>  <scratch_subdir>  (945) 
/opt/xchem-fragalysis-2/maxwin/BulkDock/SCRATCH/601534/CKAOJEMBZHXZHT-UHFFFAOYSA-N-P50-P50-P86-601534

>  <HIPPO Compound ID>  (945) 
136875

>  <rmsd(smina/fragmenstein)>  (945) 
1.299

>  <distance_score>  (945) 
0.850609

>  <orig_smiles>  (945) 
CC(F)CCCC(=O)Nc1cc(Br)cc2nc[nH]c12

>  <fragmenstein_mode>  (945) 
expansion

>  <inchikey>  (945) 
CKAOJEMBZHXZHT-UHFFFAOYSA-N

>  <ref_pdb>  (945) 
Z0846a

>  <GNINA pK>  (945) 
nan

>  <gnina_score_min>  (945) 
5.516

>  <tags>  (945) 
xx01zvns2b_c1_elab_bulkdock_input,openbind_xx01zvns2b_c1_elab_nonasap_filtered_scored_top80percent,BulkDock Fragalysis export,openbind_xx01zvns2b_c1_elab_chemspace_filtered_scored_top80percent,fragmenstein_placed,openbind_xx01zvns2b_c1_elab_chemspace_filtered_scored,openbind_xx01zvns2b_c1_elab_chemspace_filtered_scored_top40percent,openbind_xx01zvns2b_c1_elab_chemspace_filtered_scored_top20percent,openbind_xx01zvns2b_c1_elab_chemspace_filtered_scored_top60percent,openbind_xx01zvns2b_c1_elabs_filtered

>  <smiles>  (945) 
CC(F)CCCC(=O)Nc1cc(Br)cc2nc[nH]c12

>  <subsites>  (945) 
1 - Z4590/B/203/1

>  <gnina_score>  (945) 
5.373

>  <HIPPO Pose ID>  (945) 
92026

>  <ref_mols>  (945) 
Z0846a,Z1597a

>  <energy_score>  (945) 
-5.124915

>  <inspiration_score>  (945) 
None

>  <smina_score_min>  (945) 
-5.885

>  <fragmenstein_error>  (945) 


>  <name>  (945) 
CKAOJEMBZHXZHT-UHFFFAOYSA-N-P50-P50-P86-601534

$$$$
DPSDKAQJOUGQKH-UHFFFAOYSA-N-P86-P50-P86-601534
     RDKit          3D

 19 20  0  0  0  0  0  0  0  0999 V2000
   -6.2333    7.8449  -23.9594 O   0  0  0  0  0  0  0  0  0  0  0  0
   -5.1675    7.4301  -23.5146 C   0  0  0  0  0  0  0  0  0  0  0  0
   -4.9876    6.9870  -22.0872 C   0  0  0  0  0  0  0  0  0  0  0  0
   -3.8398    7.7341  -21.4214 C   0  0  0  0  0  0  0  0  0  0  0  0
   -3.8217    7.5518  -19.9028 C   0  0  0  0  0  0  0  0  0  0  0  0
   -3.3398    6.1702  -19.4604 C   0  0  0  0  0  0  0  0  0  0  0  0
   -3.8831    5.8347  -18.0764 C   0  0  0  0  0  0  0  0  0  0  0  0
   -3.2545    5.9284  -17.0954 O   0  0  0  0  0  0  0  0  0  0  0  0
   -5.3592    5.3824  -18.2903 N   0  0  0  0  0  0  0  0  0  0  0  0
   -6.3457    5.0592  -17.3675 C   0  0  0  0  0  0  0  0  0  0  0  0
   -6.1585    5.1264  -15.9888 C   0  0  0  0  0  0  0  0  0  0  0  0
   -7.1929    4.7802  -15.1129 C   0  0  0  0  0  0  0  0  0  0  0  0
   -6.9434    4.9568  -13.2540 Br  0  0  0  0  0  0  0  0  0  0  0  0
   -8.4351    4.3418  -15.5630 C   0  0  0  0  0  0  0  0  0  0  0  0
   -8.6450    4.3126  -16.9363 C   0  0  0  0  0  0  0  0  0  0  0  0
   -9.8035    4.0744  -17.6216 N   0  0  0  0  0  0  0  0  0  0  0  0
   -9.5188    4.4107  -18.8509 C   0  0  0  0  0  0  0  0  0  0  0  0
   -8.1869    4.6003  -19.0310 N   0  0  0  0  0  0  0  0  0  0  0  0
   -7.6117    4.6687  -17.7973 C   0  0  0  0  0  0  0  0  0  0  0  0
  1  2  2  0
  2  3  1  0
  3  4  1  0
  4  5  1  0
  5  6  1  0
  6  7  1  0
  7  8  2  0
  7  9  1  0
  9 10  1  0
 10 11  2  0
 11 12  1  0
 12 13  1  0
 12 14  2  0
 14 15  1  0
 15 16  1  0
 16 17  2  0
 17 18  1  0
 18 19  1  0
 19 10  1  0
 19 15  2  0
M  END
>  <fragmenstein_outcome>  (946) 
too moved

>  <exports>  (946) 
['/opt/xchem-fragalysis-2/maxwin/openbind-hippo/xx01zvns2b/cycle_01/syndirella/elabs/openbind_xx01zvns2b_c1_elab_chemspace_filtered.sdf']

>  <Energy>  (946) 
6.718717

>  <alias>  (946) 
DPSDKAQJOUGQKH-UHFFFAOYSA-N-P86-P50-P86-601534

>  <fragmenstein_runtime>  (946) 
4.778851

>  <scratch_subdir>  (946) 
/opt/xchem-fragalysis-2/maxwin/BulkDock/SCRATCH/601534/DPSDKAQJOUGQKH-UHFFFAOYSA-N-P86-P50-P86-601534

>  <HIPPO Compound ID>  (946) 
136884

>  <rmsd(smina/fragmenstein)>  (946) 
0.732

>  <distance_score>  (946) 
1.305033

>  <orig_smiles>  (946) 
O=CCCCCC(=O)Nc1cc(Br)cc2nc[nH]c12

>  <fragmenstein_mode>  (946) 
expansion

>  <inchikey>  (946) 
DPSDKAQJOUGQKH-UHFFFAOYSA-N

>  <ref_pdb>  (946) 
Z0846a

>  <GNINA pK>  (946) 
nan

>  <gnina_score_min>  (946) 
5.317

>  <tags>  (946) 
xx01zvns2b_c1_elab_bulkdock_input,openbind_xx01zvns2b_c1_elab_nonasap_filtered_scored_top80percent,openbind_xx01zvns2b_c1_elab_chemspace_filtered_scored_top80percent,fragmenstein_placed,openbind_xx01zvns2b_c1_elab_chemspace_filtered_scored,openbind_xx01zvns2b_c1_elab_chemspace_filtered_scored_top40percent,openbind_xx01zvns2b_c1_elab_chemspace_filtered_scored_top20percent,openbind_xx01zvns2b_c1_elab_chemspace_filtered_scored_top60percent,openbind_xx01zvns2b_c1_elabs_filtered

>  <smiles>  (946) 
O=CCCCCC(=O)Nc1cc(Br)cc2nc[nH]c12

>  <subsites>  (946) 
1 - Z4590/B/203/1

>  <gnina_score>  (946) 
5.131

>  <HIPPO Pose ID>  (946) 
92045

>  <ref_mols>  (946) 
Z0846a,Z1597a

>  <energy_score>  (946) 
-15.227472

>  <inspiration_score>  (946) 
None

>  <smina_score_min>  (946) 
-5.379

>  <fragmenstein_error>  (946) 


>  <name>  (946) 
DPSDKAQJOUGQKH-UHFFFAOYSA-N-P86-P50-P86-601534

$$$$
LXBRVSFOBDXXDM-UHFFFAOYSA-N-P86-P50-P86-601534
     RDKit          3D

 19 20  0  0  0  0  0  0  0  0999 V2000
   -4.3812    5.7553  -16.1788 C   0  0  0  0  0  0  0  0  0  0  0  0
   -5.7755    5.2801  -16.4767 C   0  0  0  0  0  0  0  0  0  0  0  0
   -6.5408    4.9055  -15.3425 C   0  0  0  0  0  0  0  0  0  0  0  0
   -7.8381    4.4103  -15.4381 C   0  0  0  0  0  0  0  0  0  0  0  0
   -8.3983    4.3458  -16.7043 C   0  0  0  0  0  0  0  0  0  0  0  0
   -9.6813    4.0262  -17.0360 N   0  0  0  0  0  0  0  0  0  0  0  0
   -9.7824    4.3593  -18.2938 C   0  0  0  0  0  0  0  0  0  0  0  0
   -8.5647    4.6135  -18.8465 N   0  0  0  0  0  0  0  0  0  0  0  0
   -7.6529    4.7159  -17.8201 C   0  0  0  0  0  0  0  0  0  0  0  0
   -6.3149    5.1615  -17.7769 C   0  0  0  0  0  0  0  0  0  0  0  0
   -5.7061    5.4218  -19.0218 N   0  0  0  0  0  0  0  0  0  0  0  0
   -4.2738    5.9543  -19.3611 C   0  0  0  0  0  0  0  0  0  0  0  0
   -3.4157    6.3284  -18.6549 O   0  0  0  0  0  0  0  0  0  0  0  0
   -4.0242    5.8336  -20.8795 C   0  0  0  0  0  0  0  0  0  0  0  0
   -5.2227    6.0433  -21.8056 C   0  0  0  0  0  0  0  0  0  0  0  0
   -4.9281    6.6032  -23.2122 C   0  0  0  0  0  0  0  0  0  0  0  0
   -5.1784    8.0971  -23.2965 C   0  0  0  0  0  0  0  0  0  0  0  0
   -4.3954    8.7812  -22.2211 C   0  0  0  0  0  0  0  0  0  0  0  0
   -4.8479    8.9733  -21.0962 O   0  0  0  0  0  0  0  0  0  0  0  0
  1  2  1  0
  2  3  2  0
  3  4  1  0
  4  5  2  0
  5  6  1  0
  6  7  2  0
  7  8  1  0
  8  9  1  0
  9 10  2  0
 10 11  1  0
 11 12  1  0
 12 13  2  0
 12 14  1  0
 14 15  1  0
 15 16  1  0
 16 17  1  0
 17 18  1  0
 18 19  2  0
 10  2  1  0
  9  5  1  0
M  END
>  <fragmenstein_outcome>  (947) 
too moved

>  <exports>  (947) 
['/opt/xchem-fragalysis-2/maxwin/openbind-hippo/xx01zvns2b/cycle_01/syndirella/elabs/openbind_xx01zvns2b_c1_elab_chemspace_filtered.sdf']

>  <Energy>  (947) 
33.805777

>  <alias>  (947) 
LXBRVSFOBDXXDM-UHFFFAOYSA-N-P86-P50-P86-601534

>  <fragmenstein_runtime>  (947) 
2.531113

>  <scratch_subdir>  (947) 
/opt/xchem-fragalysis-2/maxwin/BulkDock/SCRATCH/601534/LXBRVSFOBDXXDM-UHFFFAOYSA-N-P86-P50-P86-601534

>  <HIPPO Compound ID>  (947) 
136885

>  <rmsd(smina/fragmenstein)>  (947) 
1.541

>  <distance_score>  (947) 
1.672149

>  <orig_smiles>  (947) 
Cc1ccc2nc[nH]c2c1NC(=O)CCCCC=O

>  <fragmenstein_mode>  (947) 
expansion

>  <inchikey>  (947) 
LXBRVSFOBDXXDM-UHFFFAOYSA-N

>  <ref_pdb>  (947) 
Z0846a

>  <GNINA pK>  (947) 
nan

>  <gnina_score_min>  (947) 
5.282

>  <tags>  (947) 
xx01zvns2b_c1_elab_bulkdock_input,openbind_xx01zvns2b_c1_elab_nonasap_filtered_scored_top80percent,openbind_xx01zvns2b_c1_elab_chemspace_filtered_scored_top80percent,fragmenstein_placed,openbind_xx01zvns2b_c1_elab_chemspace_filtered_scored,openbind_xx01zvns2b_c1_elab_chemspace_filtered_scored_top40percent,openbind_xx01zvns2b_c1_elab_chemspace_filtered_scored_top20percent,openbind_xx01zvns2b_c1_elab_chemspace_filtered_scored_top60percent,openbind_xx01zvns2b_c1_elabs_filtered

>  <smiles>  (947) 
Cc1ccc2nc[nH]c2c1NC(=O)CCCCC=O

>  <subsites>  (947) 
1 - Z4590/B/203/1

>  <gnina_score>  (947) 
4.536

>  <HIPPO Pose ID>  (947) 
92047

>  <ref_mols>  (947) 
Z0846a,Z1597a

>  <energy_score>  (947) 
-0.499014

>  <inspiration_score>  (947) 
None

>  <smina_score_min>  (947) 
-4.718

>  <fragmenstein_error>  (947) 


>  <name>  (947) 
LXBRVSFOBDXXDM-UHFFFAOYSA-N-P86-P50-P86-601534

$$$$
FJWHPBPZRAJQEQ-UHFFFAOYSA-N-P50-P50-P86-601534
     RDKit          3D

 19 20  0  0  0  0  0  0  0  0999 V2000
   -5.9452    7.8232  -24.5496 C   0  0  0  0  0  0  0  0  0  0  0  0
   -5.4999    8.0026  -23.1207 C   0  0  0  0  0  0  0  0  0  0  0  0
   -5.5752    9.0977  -22.5647 O   0  0  0  0  0  0  0  0  0  0  0  0
   -4.9208    6.7734  -22.4515 C   0  0  0  0  0  0  0  0  0  0  0  0
   -4.8091    6.8727  -20.9326 C   0  0  0  0  0  0  0  0  0  0  0  0
   -4.3097    5.5565  -20.3466 C   0  0  0  0  0  0  0  0  0  0  0  0
   -4.5569    5.4306  -18.8545 C   0  0  0  0  0  0  0  0  0  0  0  0
   -3.7187    5.5677  -18.0508 O   0  0  0  0  0  0  0  0  0  0  0  0
   -6.0487    5.0157  -18.6951 N   0  0  0  0  0  0  0  0  0  0  0  0
   -6.8025    4.7879  -17.5543 C   0  0  0  0  0  0  0  0  0  0  0  0
   -6.2745    4.8106  -16.2641 C   0  0  0  0  0  0  0  0  0  0  0  0
   -7.1187    4.6354  -15.1638 C   0  0  0  0  0  0  0  0  0  0  0  0
   -6.4836    4.7463  -13.5736 Cl  0  0  0  0  0  0  0  0  0  0  0  0
   -8.4927    4.4348  -15.2927 C   0  0  0  0  0  0  0  0  0  0  0  0
   -8.9844    4.4494  -16.5867 C   0  0  0  0  0  0  0  0  0  0  0  0
  -10.2581    4.4458  -17.0782 N   0  0  0  0  0  0  0  0  0  0  0  0
  -10.1830    4.6659  -18.4146 C   0  0  0  0  0  0  0  0  0  0  0  0
   -8.9485    4.6059  -18.8448 N   0  0  0  0  0  0  0  0  0  0  0  0
   -8.1839    4.5902  -17.7100 C   0  0  0  0  0  0  0  0  0  0  0  0
  1  2  1  0
  2  3  2  0
  2  4  1  0
  4  5  1  0
  5  6  1  0
  6  7  1  0
  7  8  2  0
  7  9  1  0
  9 10  1  0
 10 11  2  0
 11 12  1  0
 12 13  1  0
 12 14  2  0
 14 15  1  0
 15 16  1  0
 16 17  1  0
 17 18  2  0
 18 19  1  0
 19 10  1  0
 19 15  2  0
M  END
>  <fragmenstein_outcome>  (948) 
acceptable

>  <exports>  (948) 
['/opt/xchem-fragalysis-2/maxwin/BulkDock/OUTPUTS/xx01zvns2b_c1_elab_bulkdock_input_1GFT1FD.sdf', '/opt/xchem-fragalysis-2/maxwin/openbind-hippo/xx01zvns2b/cycle_01/syndirella/elabs/openbind_xx01zvns2b_c1_elab_chemspace_filtered.sdf']

>  <Energy>  (948) 
24.406665

>  <alias>  (948) 
FJWHPBPZRAJQEQ-UHFFFAOYSA-N-P50-P50-P86-601534

>  <fragmenstein_runtime>  (948) 
3.4871

>  <scratch_subdir>  (948) 
/opt/xchem-fragalysis-2/maxwin/BulkDock/SCRATCH/601534/FJWHPBPZRAJQEQ-UHFFFAOYSA-N-P50-P50-P86-601534

>  <HIPPO Compound ID>  (948) 
136894

>  <rmsd(smina/fragmenstein)>  (948) 
1.017

>  <distance_score>  (948) 
0.933658

>  <orig_smiles>  (948) 
CC(=O)CCCC(=O)Nc1cc(Cl)cc2[nH]cnc12

>  <fragmenstein_mode>  (948) 
expansion

>  <inchikey>  (948) 
FJWHPBPZRAJQEQ-UHFFFAOYSA-N

>  <ref_pdb>  (948) 
Z0846a

>  <GNINA pK>  (948) 
nan

>  <gnina_score_min>  (948) 
5.182

>  <tags>  (948) 
xx01zvns2b_c1_elab_bulkdock_input,openbind_xx01zvns2b_c1_elab_nonasap_filtered_scored_top80percent,BulkDock Fragalysis export,openbind_xx01zvns2b_c1_elab_chemspace_filtered_scored_top80percent,fragmenstein_placed,openbind_xx01zvns2b_c1_elab_chemspace_filtered_scored,openbind_xx01zvns2b_c1_elab_chemspace_filtered_scored_top40percent,openbind_xx01zvns2b_c1_elab_chemspace_filtered_scored_top20percent,openbind_xx01zvns2b_c1_elab_chemspace_filtered_scored_top60percent,openbind_xx01zvns2b_c1_elabs_filtered

>  <smiles>  (948) 
CC(=O)CCCC(=O)Nc1cc(Cl)cc2[nH]cnc12

>  <subsites>  (948) 
1 - Z4590/B/203/1

>  <gnina_score>  (948) 
5.086

>  <HIPPO Pose ID>  (948) 
92064

>  <ref_mols>  (948) 
Z0846a,Z1597a

>  <energy_score>  (948) 
-24.599614

>  <inspiration_score>  (948) 
None

>  <smina_score_min>  (948) 
-5.342

>  <fragmenstein_error>  (948) 


>  <name>  (948) 
FJWHPBPZRAJQEQ-UHFFFAOYSA-N-P50-P50-P86-601534

$$$$
AKLLCKCTCQFIHT-UHFFFAOYSA-N-P50-P50-P86-601534
     RDKit          3D

 19 20  0  0  0  0  0  0  0  0999 V2000
   -5.5720    7.3589  -24.3154 C   0  0  0  0  0  0  0  0  0  0  0  0
   -5.4463    7.9097  -22.9200 C   0  0  0  0  0  0  0  0  0  0  0  0
   -5.4536    9.1227  -22.7066 O   0  0  0  0  0  0  0  0  0  0  0  0
   -5.3328    6.9101  -21.7861 C   0  0  0  0  0  0  0  0  0  0  0  0
   -3.9234    6.8276  -21.2241 C   0  0  0  0  0  0  0  0  0  0  0  0
   -3.7363    5.6454  -20.2810 C   0  0  0  0  0  0  0  0  0  0  0  0
   -4.2061    5.8835  -18.8507 C   0  0  0  0  0  0  0  0  0  0  0  0
   -3.5354    6.4251  -18.0582 O   0  0  0  0  0  0  0  0  0  0  0  0
   -5.6027    5.1989  -18.6968 N   0  0  0  0  0  0  0  0  0  0  0  0
   -6.3828    4.9684  -17.5540 C   0  0  0  0  0  0  0  0  0  0  0  0
   -5.9151    4.8759  -16.2245 C   0  0  0  0  0  0  0  0  0  0  0  0
   -4.4727    5.0324  -15.8270 C   0  0  0  0  0  0  0  0  0  0  0  0
   -6.8050    4.5531  -15.1754 C   0  0  0  0  0  0  0  0  0  0  0  0
   -8.1498    4.2709  -15.3987 C   0  0  0  0  0  0  0  0  0  0  0  0
   -8.6210    4.3576  -16.7021 C   0  0  0  0  0  0  0  0  0  0  0  0
   -9.8997    4.1950  -17.1522 N   0  0  0  0  0  0  0  0  0  0  0  0
   -9.8621    4.5925  -18.3956 C   0  0  0  0  0  0  0  0  0  0  0  0
   -8.5829    4.7755  -18.8256 N   0  0  0  0  0  0  0  0  0  0  0  0
   -7.7525    4.7018  -17.7340 C   0  0  0  0  0  0  0  0  0  0  0  0
  1  2  1  0
  2  3  2  0
  2  4  1  0
  4  5  1  0
  5  6  1  0
  6  7  1  0
  7  8  2  0
  7  9  1  0
  9 10  1  0
 10 11  2  0
 11 12  1  0
 11 13  1  0
 13 14  2  0
 14 15  1  0
 15 16  1  0
 16 17  2  0
 17 18  1  0
 18 19  1  0
 19 10  1  0
 19 15  2  0
M  END
>  <fragmenstein_outcome>  (949) 
too moved

>  <exports>  (949) 
['/opt/xchem-fragalysis-2/maxwin/openbind-hippo/xx01zvns2b/cycle_01/syndirella/elabs/openbind_xx01zvns2b_c1_elab_chemspace_filtered.sdf']

>  <Energy>  (949) 
27.414975

>  <alias>  (949) 
AKLLCKCTCQFIHT-UHFFFAOYSA-N-P50-P50-P86-601534

>  <fragmenstein_runtime>  (949) 
3.254762

>  <scratch_subdir>  (949) 
/opt/xchem-fragalysis-2/maxwin/BulkDock/SCRATCH/601534/AKLLCKCTCQFIHT-UHFFFAOYSA-N-P50-P50-P86-601534

>  <HIPPO Compound ID>  (949) 
136896

>  <rmsd(smina/fragmenstein)>  (949) 
0.452

>  <distance_score>  (949) 
1.161537

>  <orig_smiles>  (949) 
CC(=O)CCCC(=O)Nc1c(C)ccc2nc[nH]c12

>  <fragmenstein_mode>  (949) 
expansion

>  <inchikey>  (949) 
AKLLCKCTCQFIHT-UHFFFAOYSA-N

>  <ref_pdb>  (949) 
Z0846a

>  <GNINA pK>  (949) 
nan

>  <gnina_score_min>  (949) 
5.201

>  <tags>  (949) 
xx01zvns2b_c1_elab_bulkdock_input,openbind_xx01zvns2b_c1_elab_nonasap_filtered_scored_top80percent,openbind_xx01zvns2b_c1_elab_chemspace_filtered_scored_top80percent,fragmenstein_placed,openbind_xx01zvns2b_c1_elab_chemspace_filtered_scored,openbind_xx01zvns2b_c1_elab_chemspace_filtered_scored_top40percent,openbind_xx01zvns2b_c1_elab_chemspace_filtered_scored_top20percent,openbind_xx01zvns2b_c1_elab_chemspace_filtered_scored_top60percent,openbind_xx01zvns2b_c1_elabs_filtered

>  <smiles>  (949) 
CC(=O)CCCC(=O)Nc1c(C)ccc2nc[nH]c12

>  <subsites>  (949) 
1 - Z4590/B/203/1

>  <gnina_score>  (949) 
5.217

>  <HIPPO Pose ID>  (949) 
92068

>  <ref_mols>  (949) 
Z0846a,Z1597a

>  <energy_score>  (949) 
-9.651194

>  <inspiration_score>  (949) 
None

>  <smina_score_min>  (949) 
-5.4

>  <fragmenstein_error>  (949) 


>  <name>  (949) 
AKLLCKCTCQFIHT-UHFFFAOYSA-N-P50-P50-P86-601534

$$$$
LUDZHANZKOMMBD-UHFFFAOYSA-N-P50-P50-P86-601534
     RDKit          3D

 19 20  0  0  0  0  0  0  0  0999 V2000
   -5.9364    7.7743  -24.6855 C   0  0  0  0  0  0  0  0  0  0  0  0
   -5.5222    8.0208  -23.2587 C   0  0  0  0  0  0  0  0  0  0  0  0
   -5.6759    9.1220  -22.7319 O   0  0  0  0  0  0  0  0  0  0  0  0
   -4.8974    6.8438  -22.5389 C   0  0  0  0  0  0  0  0  0  0  0  0
   -4.7590    7.0523  -21.0353 C   0  0  0  0  0  0  0  0  0  0  0  0
   -4.2017    5.8067  -20.3617 C   0  0  0  0  0  0  0  0  0  0  0  0
   -4.4551    5.7972  -18.8655 C   0  0  0  0  0  0  0  0  0  0  0  0
   -3.6257    6.0207  -18.0713 O   0  0  0  0  0  0  0  0  0  0  0  0
   -5.9470    5.3811  -18.6790 N   0  0  0  0  0  0  0  0  0  0  0  0
   -6.6596    5.0773  -17.5288 C   0  0  0  0  0  0  0  0  0  0  0  0
   -6.0832    5.1127  -16.2543 C   0  0  0  0  0  0  0  0  0  0  0  0
   -6.8103    4.7660  -15.1043 C   0  0  0  0  0  0  0  0  0  0  0  0
   -6.1941    4.8241  -13.7453 C   0  0  0  0  0  0  0  0  0  0  0  0
   -8.1221    4.3078  -15.2129 C   0  0  0  0  0  0  0  0  0  0  0  0
   -8.7175    4.3020  -16.4707 C   0  0  0  0  0  0  0  0  0  0  0  0
   -9.9998    3.9926  -16.7904 N   0  0  0  0  0  0  0  0  0  0  0  0
  -10.1291    4.3671  -18.0337 C   0  0  0  0  0  0  0  0  0  0  0  0
   -8.9271    4.6635  -18.6039 N   0  0  0  0  0  0  0  0  0  0  0  0
   -7.9994    4.7008  -17.5931 C   0  0  0  0  0  0  0  0  0  0  0  0
  1  2  1  0
  2  3  2  0
  2  4  1  0
  4  5  1  0
  5  6  1  0
  6  7  1  0
  7  8  2  0
  7  9  1  0
  9 10  1  0
 10 11  2  0
 11 12  1  0
 12 13  1  0
 12 14  2  0
 14 15  1  0
 15 16  1  0
 16 17  2  0
 17 18  1  0
 18 19  1  0
 19 10  1  0
 19 15  2  0
M  END
>  <fragmenstein_outcome>  (950) 
too moved

>  <exports>  (950) 
['/opt/xchem-fragalysis-2/maxwin/openbind-hippo/xx01zvns2b/cycle_01/syndirella/elabs/openbind_xx01zvns2b_c1_elab_chemspace_filtered.sdf']

>  <Energy>  (950) 
15.560338

>  <alias>  (950) 
LUDZHANZKOMMBD-UHFFFAOYSA-N-P50-P50-P86-601534

>  <fragmenstein_runtime>  (950) 
3.662057

>  <scratch_subdir>  (950) 
/opt/xchem-fragalysis-2/maxwin/BulkDock/SCRATCH/601534/LUDZHANZKOMMBD-UHFFFAOYSA-N-P50-P50-P86-601534

>  <HIPPO Compound ID>  (950) 
136898

>  <rmsd(smina/fragmenstein)>  (950) 
1.067

>  <distance_score>  (950) 
1.23047

>  <orig_smiles>  (950) 
CC(=O)CCCC(=O)Nc1cc(C)cc2nc[nH]c12

>  <fragmenstein_mode>  (950) 
expansion

>  <inchikey>  (950) 
LUDZHANZKOMMBD-UHFFFAOYSA-N

>  <ref_pdb>  (950) 
Z0846a

>  <GNINA pK>  (950) 
nan

>  <gnina_score_min>  (950) 
5.226

>  <tags>  (950) 
xx01zvns2b_c1_elab_bulkdock_input,openbind_xx01zvns2b_c1_elab_nonasap_filtered_scored_top80percent,openbind_xx01zvns2b_c1_elab_chemspace_filtered_scored_top80percent,fragmenstein_placed,openbind_xx01zvns2b_c1_elab_chemspace_filtered_scored,openbind_xx01zvns2b_c1_elab_chemspace_filtered_scored_top40percent,openbind_xx01zvns2b_c1_elab_chemspace_filtered_scored_top20percent,openbind_xx01zvns2b_c1_elab_chemspace_filtered_scored_top60percent,openbind_xx01zvns2b_c1_elabs_filtered

>  <smiles>  (950) 
CC(=O)CCCC(=O)Nc1cc(C)cc2nc[nH]c12

>  <subsites>  (950) 
1 - Z4590/B/203/1

>  <gnina_score>  (950) 
5.265

>  <HIPPO Pose ID>  (950) 
92072

>  <ref_mols>  (950) 
Z0846a,Z1597a

>  <energy_score>  (950) 
-15.97197

>  <inspiration_score>  (950) 
None

>  <smina_score_min>  (950) 
-5.863

>  <fragmenstein_error>  (950) 


>  <name>  (950) 
LUDZHANZKOMMBD-UHFFFAOYSA-N-P50-P50-P86-601534

$$$$
NSBQCHINEFYSJD-UHFFFAOYSA-N-P50-P50-P86-601534
     RDKit          3D

 19 21  0  0  0  0  0  0  0  0999 V2000
   -5.0376    8.9740  -23.5654 C   0  0  0  0  0  0  0  0  0  0  0  0
   -4.6812    8.8236  -22.1012 C   0  0  0  0  0  0  0  0  0  0  0  0
   -5.4632    7.7614  -21.3413 C   0  0  0  0  0  0  0  0  0  0  0  0
   -4.7422    6.4497  -21.0564 C   0  0  0  0  0  0  0  0  0  0  0  0
   -4.7959    6.0858  -19.5671 C   0  0  0  0  0  0  0  0  0  0  0  0
   -3.8753    6.2244  -18.8561 O   0  0  0  0  0  0  0  0  0  0  0  0
   -6.2242    5.5189  -19.2760 N   0  0  0  0  0  0  0  0  0  0  0  0
   -6.8117    5.1135  -18.0740 C   0  0  0  0  0  0  0  0  0  0  0  0
   -6.1297    5.0853  -16.8525 C   0  0  0  0  0  0  0  0  0  0  0  0
   -6.7755    4.6795  -15.6742 C   0  0  0  0  0  0  0  0  0  0  0  0
   -5.9021    4.7951  -14.0083 Br  0  0  0  0  0  0  0  0  0  0  0  0
   -8.0926    4.2385  -15.6601 C   0  0  0  0  0  0  0  0  0  0  0  0
   -8.7887    4.3031  -16.8571 C   0  0  0  0  0  0  0  0  0  0  0  0
  -10.1104    4.0619  -17.0664 N   0  0  0  0  0  0  0  0  0  0  0  0
  -10.3391    4.5182  -18.2672 C   0  0  0  0  0  0  0  0  0  0  0  0
   -9.1781    4.7700  -18.9333 N   0  0  0  0  0  0  0  0  0  0  0  0
   -8.1576    4.7400  -18.0180 C   0  0  0  0  0  0  0  0  0  0  0  0
   -3.2742    9.1527  -21.6471 C   0  0  0  0  0  0  0  0  0  0  0  0
   -4.3839   10.1162  -21.3660 C   0  0  0  0  0  0  0  0  0  0  0  0
  1  2  1  0
  2  3  1  0
  3  4  1  0
  4  5  1  0
  5  6  2  0
  5  7  1  0
  7  8  1  0
  8  9  2  0
  9 10  1  0
 10 11  1  0
 10 12  2  0
 12 13  1  0
 13 14  1  0
 14 15  2  0
 15 16  1  0
 16 17  1  0
  2 18  1  0
 18 19  1  0
 19  2  1  0
 17  8  1  0
 17 13  2  0
M  END
>  <fragmenstein_outcome>  (951) 
too moved

>  <exports>  (951) 
['/opt/xchem-fragalysis-2/maxwin/openbind-hippo/xx01zvns2b/cycle_01/syndirella/elabs/openbind_xx01zvns2b_c1_elab_chemspace_filtered.sdf']

>  <Energy>  (951) 
28.133663

>  <alias>  (951) 
NSBQCHINEFYSJD-UHFFFAOYSA-N-P50-P50-P86-601534

>  <fragmenstein_runtime>  (951) 
2.77026

>  <scratch_subdir>  (951) 
/opt/xchem-fragalysis-2/maxwin/BulkDock/SCRATCH/601534/NSBQCHINEFYSJD-UHFFFAOYSA-N-P50-P50-P86-601534

>  <HIPPO Compound ID>  (951) 
136901

>  <rmsd(smina/fragmenstein)>  (951) 
1.167

>  <distance_score>  (951) 
1.40549

>  <orig_smiles>  (951) 
CC1(CCC(=O)Nc2cc(Br)cc3nc[nH]c23)CC1

>  <fragmenstein_mode>  (951) 
expansion

>  <inchikey>  (951) 
NSBQCHINEFYSJD-UHFFFAOYSA-N

>  <ref_pdb>  (951) 
Z0846a

>  <GNINA pK>  (951) 
nan

>  <gnina_score_min>  (951) 
5.428

>  <tags>  (951) 
xx01zvns2b_c1_elab_bulkdock_input,openbind_xx01zvns2b_c1_elab_nonasap_filtered_scored_top80percent,openbind_xx01zvns2b_c1_elab_chemspace_filtered_scored_top80percent,fragmenstein_placed,openbind_xx01zvns2b_c1_elab_chemspace_filtered_scored,openbind_xx01zvns2b_c1_elab_chemspace_filtered_scored_top40percent,openbind_xx01zvns2b_c1_elab_chemspace_filtered_scored_top20percent,openbind_xx01zvns2b_c1_elab_chemspace_filtered_scored_top60percent,openbind_xx01zvns2b_c1_elabs_filtered

>  <smiles>  (951) 
CC1(CCC(=O)Nc2cc(Br)cc3nc[nH]c23)CC1

>  <subsites>  (951) 
1 - Z4590/B/203/1

>  <gnina_score>  (951) 
5.283

>  <HIPPO Pose ID>  (951) 
92078

>  <ref_mols>  (951) 
Z0846a,Z1597a

>  <energy_score>  (951) 
-16.727779

>  <inspiration_score>  (951) 
None

>  <smina_score_min>  (951) 
-5.939

>  <fragmenstein_error>  (951) 


>  <name>  (951) 
NSBQCHINEFYSJD-UHFFFAOYSA-N-P50-P50-P86-601534

$$$$
YRSVEZVWVCQUNX-UHFFFAOYSA-N-P50-P50-P86-601534
     RDKit          3D

 19 21  0  0  0  0  0  0  0  0999 V2000
   -4.3989    5.1965  -16.6045 C   0  0  0  0  0  0  0  0  0  0  0  0
   -5.8818    4.9751  -16.7199 C   0  0  0  0  0  0  0  0  0  0  0  0
   -6.5258    4.5342  -15.5401 C   0  0  0  0  0  0  0  0  0  0  0  0
   -7.8707    4.1765  -15.5131 C   0  0  0  0  0  0  0  0  0  0  0  0
   -8.5883    4.2874  -16.6963 C   0  0  0  0  0  0  0  0  0  0  0  0
   -9.9119    4.0354  -16.9047 N   0  0  0  0  0  0  0  0  0  0  0  0
  -10.1476    4.4639  -18.1161 C   0  0  0  0  0  0  0  0  0  0  0  0
   -8.9934    4.7818  -18.7660 N   0  0  0  0  0  0  0  0  0  0  0  0
   -7.9654    4.7488  -17.8515 C   0  0  0  0  0  0  0  0  0  0  0  0
   -6.6116    5.1305  -17.9190 C   0  0  0  0  0  0  0  0  0  0  0  0
   -6.1260    5.5757  -19.1605 N   0  0  0  0  0  0  0  0  0  0  0  0
   -4.8501    6.4118  -19.5118 C   0  0  0  0  0  0  0  0  0  0  0  0
   -3.9758    6.7864  -18.8272 O   0  0  0  0  0  0  0  0  0  0  0  0
   -4.8350    6.6112  -21.0234 C   0  0  0  0  0  0  0  0  0  0  0  0
   -4.9159    8.0928  -21.3818 C   0  0  0  0  0  0  0  0  0  0  0  0
   -5.1357    8.4232  -22.8601 C   0  0  0  0  0  0  0  0  0  0  0  0
   -5.4152    9.8861  -23.1342 C   0  0  0  0  0  0  0  0  0  0  0  0
   -4.2969    7.7033  -23.8916 C   0  0  0  0  0  0  0  0  0  0  0  0
   -5.7658    7.4171  -23.8031 C   0  0  0  0  0  0  0  0  0  0  0  0
  1  2  1  0
  2  3  2  0
  3  4  1  0
  4  5  2  0
  5  6  1  0
  6  7  2  0
  7  8  1  0
  8  9  1  0
  9 10  2  0
 10 11  1  0
 11 12  1  0
 12 13  2  0
 12 14  1  0
 14 15  1  0
 15 16  1  0
 16 17  1  0
 16 18  1  0
 18 19  1  0
 10  2  1  0
 19 16  1  0
  9  5  1  0
M  END
>  <fragmenstein_outcome>  (952) 
too moved

>  <exports>  (952) 
['/opt/xchem-fragalysis-2/maxwin/openbind-hippo/xx01zvns2b/cycle_01/syndirella/elabs/openbind_xx01zvns2b_c1_elab_chemspace_filtered.sdf']

>  <Energy>  (952) 
45.008362

>  <alias>  (952) 
YRSVEZVWVCQUNX-UHFFFAOYSA-N-P50-P50-P86-601534

>  <fragmenstein_runtime>  (952) 
3.61185

>  <scratch_subdir>  (952) 
/opt/xchem-fragalysis-2/maxwin/BulkDock/SCRATCH/601534/YRSVEZVWVCQUNX-UHFFFAOYSA-N-P50-P50-P86-601534

>  <HIPPO Compound ID>  (952) 
136902

>  <rmsd(smina/fragmenstein)>  (952) 
0.495

>  <distance_score>  (952) 
1.653452

>  <orig_smiles>  (952) 
Cc1ccc2nc[nH]c2c1NC(=O)CCC1(C)CC1

>  <fragmenstein_mode>  (952) 
expansion

>  <inchikey>  (952) 
YRSVEZVWVCQUNX-UHFFFAOYSA-N

>  <ref_pdb>  (952) 
Z0846a

>  <GNINA pK>  (952) 
nan

>  <gnina_score_min>  (952) 
5.274

>  <tags>  (952) 
xx01zvns2b_c1_elab_bulkdock_input,openbind_xx01zvns2b_c1_elab_nonasap_filtered_scored_top80percent,openbind_xx01zvns2b_c1_elab_chemspace_filtered_scored_top80percent,fragmenstein_placed,openbind_xx01zvns2b_c1_elab_chemspace_filtered_scored,openbind_xx01zvns2b_c1_elab_chemspace_filtered_scored_top40percent,openbind_xx01zvns2b_c1_elab_chemspace_filtered_scored_top20percent,openbind_xx01zvns2b_c1_elab_chemspace_filtered_scored_top60percent,openbind_xx01zvns2b_c1_elabs_filtered

>  <smiles>  (952) 
Cc1ccc2nc[nH]c2c1NC(=O)CCC1(C)CC1

>  <subsites>  (952) 
1 - Z4590/B/203/1

>  <gnina_score>  (952) 
5.297

>  <HIPPO Pose ID>  (952) 
92080

>  <ref_mols>  (952) 
Z0846a,Z1597a

>  <energy_score>  (952) 
-9.336175

>  <inspiration_score>  (952) 
None

>  <smina_score_min>  (952) 
-6.129

>  <fragmenstein_error>  (952) 


>  <name>  (952) 
YRSVEZVWVCQUNX-UHFFFAOYSA-N-P50-P50-P86-601534

$$$$
SVQFXTZUJVPTHU-UHFFFAOYSA-N-P50-P50-P86-601534
     RDKit          3D

 19 21  0  0  0  0  0  0  0  0999 V2000
   -5.2739    9.7160  -22.9895 C   0  0  0  0  0  0  0  0  0  0  0  0
   -5.0605    8.2280  -22.7952 C   0  0  0  0  0  0  0  0  0  0  0  0
   -4.8928    7.7964  -21.3354 C   0  0  0  0  0  0  0  0  0  0  0  0
   -4.6860    6.3085  -21.0722 C   0  0  0  0  0  0  0  0  0  0  0  0
   -4.7014    5.9896  -19.5802 C   0  0  0  0  0  0  0  0  0  0  0  0
   -3.7552    6.1297  -18.9048 O   0  0  0  0  0  0  0  0  0  0  0  0
   -6.1172    5.4315  -19.2337 N   0  0  0  0  0  0  0  0  0  0  0  0
   -6.6603    5.0380  -18.0117 C   0  0  0  0  0  0  0  0  0  0  0  0
   -5.9098    4.9730  -16.8357 C   0  0  0  0  0  0  0  0  0  0  0  0
   -6.5059    4.6141  -15.6001 C   0  0  0  0  0  0  0  0  0  0  0  0
   -7.8668    4.3246  -15.5038 C   0  0  0  0  0  0  0  0  0  0  0  0
   -8.5783    4.3962  -16.6698 C   0  0  0  0  0  0  0  0  0  0  0  0
   -9.9470    4.3025  -16.8567 N   0  0  0  0  0  0  0  0  0  0  0  0
  -10.2343    4.6440  -18.1715 C   0  0  0  0  0  0  0  0  0  0  0  0
  -11.3443    4.8390  -18.6240 O   0  0  0  0  0  0  0  0  0  0  0  0
   -9.0188    4.7910  -18.8375 N   0  0  0  0  0  0  0  0  0  0  0  0
   -7.9952    4.7191  -17.8973 C   0  0  0  0  0  0  0  0  0  0  0  0
   -5.7472    7.3228  -23.7953 C   0  0  0  0  0  0  0  0  0  0  0  0
   -4.2600    7.5126  -23.8589 C   0  0  0  0  0  0  0  0  0  0  0  0
  1  2  1  0
  2  3  1  0
  3  4  1  0
  4  5  1  0
  5  6  2  0
  5  7  1  0
  7  8  1  0
  8  9  2  0
  9 10  1  0
 10 11  2  0
 11 12  1  0
 12 13  1  0
 13 14  1  0
 14 15  2  0
 14 16  1  0
 16 17  1  0
  2 18  1  0
 18 19  1  0
 19  2  1  0
 17  8  1  0
 17 12  2  0
M  END
>  <fragmenstein_outcome>  (953) 
too moved

>  <exports>  (953) 
['/opt/xchem-fragalysis-2/maxwin/openbind-hippo/xx01zvns2b/cycle_01/syndirella/elabs/openbind_xx01zvns2b_c1_elab_chemspace_filtered.sdf']

>  <Energy>  (953) 
6.119582

>  <alias>  (953) 
SVQFXTZUJVPTHU-UHFFFAOYSA-N-P50-P50-P86-601534

>  <fragmenstein_runtime>  (953) 
10.348977

>  <scratch_subdir>  (953) 
/opt/xchem-fragalysis-2/maxwin/BulkDock/SCRATCH/601534/SVQFXTZUJVPTHU-UHFFFAOYSA-N-P50-P50-P86-601534

>  <HIPPO Compound ID>  (953) 
136903

>  <rmsd(smina/fragmenstein)>  (953) 
0.563

>  <distance_score>  (953) 
1.294711

>  <orig_smiles>  (953) 
CC1(CCC(=O)Nc2cccc3[nH]c(=O)[nH]c23)CC1

>  <fragmenstein_mode>  (953) 
expansion

>  <inchikey>  (953) 
SVQFXTZUJVPTHU-UHFFFAOYSA-N

>  <ref_pdb>  (953) 
Z0846a

>  <GNINA pK>  (953) 
nan

>  <gnina_score_min>  (953) 
5.179

>  <tags>  (953) 
xx01zvns2b_c1_elab_bulkdock_input,openbind_xx01zvns2b_c1_elab_nonasap_filtered_scored_top80percent,openbind_xx01zvns2b_c1_elab_chemspace_filtered_scored_top80percent,fragmenstein_placed,openbind_xx01zvns2b_c1_elab_chemspace_filtered_scored,openbind_xx01zvns2b_c1_elab_chemspace_filtered_scored_top40percent,openbind_xx01zvns2b_c1_elab_chemspace_filtered_scored_top20percent,openbind_xx01zvns2b_c1_elab_chemspace_filtered_scored_top60percent,openbind_xx01zvns2b_c1_elabs_filtered

>  <smiles>  (953) 
CC1(CCC(=O)Nc2cccc3[nH]c(=O)[nH]c23)CC1

>  <subsites>  (953) 
1 - Z4590/B/203/1

>  <gnina_score>  (953) 
5.154

>  <HIPPO Pose ID>  (953) 
92082

>  <ref_mols>  (953) 
Z0846a,Z1597a

>  <energy_score>  (953) 
-20.96842

>  <inspiration_score>  (953) 
None

>  <smina_score_min>  (953) 
-6.554

>  <fragmenstein_error>  (953) 


>  <name>  (953) 
SVQFXTZUJVPTHU-UHFFFAOYSA-N-P50-P50-P86-601534

$$$$
QXJQCDRTPOHIMV-UHFFFAOYSA-N-P86-P50-P86-601534
     RDKit          3D

 19 21  0  0  0  0  0  0  0  0999 V2000
   -5.6824    5.4558  -14.2679 C   0  0  0  0  0  0  0  0  0  0  0  0
   -6.4143    5.1607  -15.5361 C   0  0  0  0  0  0  0  0  0  0  0  0
   -5.9382    5.5862  -16.7937 C   0  0  0  0  0  0  0  0  0  0  0  0
   -6.6651    5.3737  -17.9742 C   0  0  0  0  0  0  0  0  0  0  0  0
   -6.2403    5.8069  -19.2306 N   0  0  0  0  0  0  0  0  0  0  0  0
   -4.9730    6.6243  -19.6478 C   0  0  0  0  0  0  0  0  0  0  0  0
   -4.1405    7.1200  -18.9908 O   0  0  0  0  0  0  0  0  0  0  0  0
   -4.9885    6.6471  -21.1841 C   0  0  0  0  0  0  0  0  0  0  0  0
   -3.9636    7.5717  -21.8399 C   0  0  0  0  0  0  0  0  0  0  0  0
   -4.5254    8.9619  -22.1499 C   0  0  0  0  0  0  0  0  0  0  0  0
   -5.3498    9.0848  -23.4146 C   0  0  0  0  0  0  0  0  0  0  0  0
   -4.8596    9.8626  -20.9811 C   0  0  0  0  0  0  0  0  0  0  0  0
   -3.6479   10.1475  -21.8163 C   0  0  0  0  0  0  0  0  0  0  0  0
   -7.8993    4.7379  -17.8170 C   0  0  0  0  0  0  0  0  0  0  0  0
   -8.9481    4.4874  -18.6684 N   0  0  0  0  0  0  0  0  0  0  0  0
   -9.9978    4.0754  -17.9031 C   0  0  0  0  0  0  0  0  0  0  0  0
   -9.6349    3.8098  -16.6782 N   0  0  0  0  0  0  0  0  0  0  0  0
   -8.3783    4.3075  -16.5830 C   0  0  0  0  0  0  0  0  0  0  0  0
   -7.6325    4.4952  -15.4273 C   0  0  0  0  0  0  0  0  0  0  0  0
  1  2  1  0
  2  3  2  0
  3  4  1  0
  4  5  1  0
  5  6  1  0
  6  7  2  0
  6  8  1  0
  8  9  1  0
  9 10  1  0
 10 11  1  0
 10 12  1  0
 12 13  1  0
  4 14  2  0
 14 15  1  0
 15 16  1  0
 16 17  2  0
 17 18  1  0
 18 19  2  0
 19  2  1  0
 13 10  1  0
 18 14  1  0
M  END
>  <fragmenstein_outcome>  (954) 
too moved

>  <exports>  (954) 
['/opt/xchem-fragalysis-2/maxwin/openbind-hippo/xx01zvns2b/cycle_01/syndirella/elabs/openbind_xx01zvns2b_c1_elab_chemspace_filtered.sdf']

>  <Energy>  (954) 
34.404133

>  <alias>  (954) 
QXJQCDRTPOHIMV-UHFFFAOYSA-N-P86-P50-P86-601534

>  <fragmenstein_runtime>  (954) 
5.809441

>  <scratch_subdir>  (954) 
/opt/xchem-fragalysis-2/maxwin/BulkDock/SCRATCH/601534/QXJQCDRTPOHIMV-UHFFFAOYSA-N-P86-P50-P86-601534

>  <HIPPO Compound ID>  (954) 
136904

>  <rmsd(smina/fragmenstein)>  (954) 
1.438

>  <distance_score>  (954) 
1.65207

>  <orig_smiles>  (954) 
Cc1cc(NC(=O)CCC2(C)CC2)c2[nH]cnc2c1

>  <fragmenstein_mode>  (954) 
expansion

>  <inchikey>  (954) 
QXJQCDRTPOHIMV-UHFFFAOYSA-N

>  <ref_pdb>  (954) 
Z0846a

>  <GNINA pK>  (954) 
nan

>  <gnina_score_min>  (954) 
5.296

>  <tags>  (954) 
xx01zvns2b_c1_elab_bulkdock_input,openbind_xx01zvns2b_c1_elab_nonasap_filtered_scored_top80percent,openbind_xx01zvns2b_c1_elab_chemspace_filtered_scored_top80percent,fragmenstein_placed,openbind_xx01zvns2b_c1_elab_chemspace_filtered_scored,openbind_xx01zvns2b_c1_elab_chemspace_filtered_scored_top40percent,openbind_xx01zvns2b_c1_elab_chemspace_filtered_scored_top20percent,openbind_xx01zvns2b_c1_elab_chemspace_filtered_scored_top60percent,openbind_xx01zvns2b_c1_elabs_filtered

>  <smiles>  (954) 
Cc1cc(NC(=O)CCC2(C)CC2)c2[nH]cnc2c1

>  <subsites>  (954) 
1 - Z4590/B/203/1

>  <gnina_score>  (954) 
5.194

>  <HIPPO Pose ID>  (954) 
92085

>  <ref_mols>  (954) 
Z0846a,Z1597a

>  <energy_score>  (954) 
-13.925384

>  <inspiration_score>  (954) 
None

>  <smina_score_min>  (954) 
-6.063

>  <fragmenstein_error>  (954) 


>  <name>  (954) 
QXJQCDRTPOHIMV-UHFFFAOYSA-N-P86-P50-P86-601534

$$$$
CQSKFJVVODQLSM-UHFFFAOYSA-N-P86-P50-P86-601534
     RDKit          3D

 20 22  0  0  0  0  0  0  0  0999 V2000
   -3.9641    6.8757  -18.7301 O   0  0  0  0  0  0  0  0  0  0  0  0
   -4.7799    6.4500  -19.4514 C   0  0  0  0  0  0  0  0  0  0  0  0
   -4.7298    6.5460  -20.9743 C   0  0  0  0  0  0  0  0  0  0  0  0
   -3.9706    7.7244  -21.5636 C   0  0  2  0  0  0  0  0  0  0  0  0
   -4.5832    9.1446  -21.4145 C   0  0  0  0  0  0  0  0  0  0  0  0
   -4.2112    9.4012  -22.8905 C   0  0  2  0  0  0  0  0  0  0  0  0
   -5.5450   10.2228  -23.8217 S   0  0  0  0  0  0  0  0  0  0  0  0
   -4.2090    7.8741  -23.0957 C   0  0  0  0  0  0  0  0  0  0  0  0
   -6.0553    5.6016  -19.1475 N   0  0  0  0  0  0  0  0  0  0  0  0
   -6.6084    5.2054  -17.9336 C   0  0  0  0  0  0  0  0  0  0  0  0
   -6.0273    5.3767  -16.6784 C   0  0  0  0  0  0  0  0  0  0  0  0
   -6.7018    4.9531  -15.5184 C   0  0  0  0  0  0  0  0  0  0  0  0
   -5.9697    5.2777  -13.8124 Br  0  0  0  0  0  0  0  0  0  0  0  0
   -7.9524    4.3391  -15.5509 C   0  0  0  0  0  0  0  0  0  0  0  0
   -8.5627    4.2404  -16.7906 C   0  0  0  0  0  0  0  0  0  0  0  0
   -9.8560    3.9205  -17.0670 N   0  0  0  0  0  0  0  0  0  0  0  0
  -10.0148    4.3770  -18.2731 C   0  0  0  0  0  0  0  0  0  0  0  0
  -11.1583    4.8348  -18.7305 O   0  0  0  0  0  0  0  0  0  0  0  0
   -8.8294    4.5315  -18.9220 N   0  0  0  0  0  0  0  0  0  0  0  0
   -7.8864    4.6521  -17.9345 C   0  0  0  0  0  0  0  0  0  0  0  0
  1  2  2  0
  2  3  1  0
  4  3  1  1
  4  5  1  0
  5  6  1  0
  6  7  1  6
  6  8  1  0
  2  9  1  0
  9 10  1  0
 10 11  2  0
 11 12  1  0
 12 13  1  0
 12 14  2  0
 14 15  1  0
 15 16  1  0
 16 17  2  0
 17 18  1  0
 17 19  1  0
 19 20  1  0
  8  4  1  0
 20 10  1  0
 20 15  2  0
M  END
>  <fragmenstein_outcome>  (955) 
too moved

>  <exports>  (955) 
['/opt/xchem-fragalysis-2/maxwin/openbind-hippo/xx01zvns2b/cycle_01/syndirella/elabs/openbind_xx01zvns2b_c1_elab_chemspace_filtered.sdf']

>  <Energy>  (955) 
6.32887

>  <alias>  (955) 
CQSKFJVVODQLSM-UHFFFAOYSA-N-P86-P50-P86-601534

>  <fragmenstein_runtime>  (955) 
28.048598

>  <scratch_subdir>  (955) 
/opt/xchem-fragalysis-2/maxwin/BulkDock/SCRATCH/601534/CQSKFJVVODQLSM-UHFFFAOYSA-N-P86-P50-P86-601534

>  <HIPPO Compound ID>  (955) 
136919

>  <rmsd(smina/fragmenstein)>  (955) 
0.683

>  <distance_score>  (955) 
1.314124

>  <orig_smiles>  (955) 
O=C(CC1CC(S)C1)Nc1cc(Br)cc2nc(O)[nH]c12

>  <fragmenstein_mode>  (955) 
expansion

>  <inchikey>  (955) 
CQSKFJVVODQLSM-UHFFFAOYSA-N

>  <ref_pdb>  (955) 
Z0846a

>  <GNINA pK>  (955) 
nan

>  <gnina_score_min>  (955) 
5.388

>  <tags>  (955) 
xx01zvns2b_c1_elab_bulkdock_input,openbind_xx01zvns2b_c1_elab_nonasap_filtered_scored_top80percent,openbind_xx01zvns2b_c1_elab_chemspace_filtered_scored_top80percent,fragmenstein_placed,openbind_xx01zvns2b_c1_elab_chemspace_filtered_scored,openbind_xx01zvns2b_c1_elab_chemspace_filtered_scored_top40percent,openbind_xx01zvns2b_c1_elab_chemspace_filtered_scored_top20percent,openbind_xx01zvns2b_c1_elab_chemspace_filtered_scored_top60percent,openbind_xx01zvns2b_c1_elabs_filtered

>  <smiles>  (955) 
O=C(CC1CC(S)C1)Nc1cc(Br)cc2nc(O)[nH]c12

>  <subsites>  (955) 
1 - Z4590/B/203/1

>  <gnina_score>  (955) 
5.287

>  <HIPPO Pose ID>  (955) 
92115

>  <ref_mols>  (955) 
Z0846a,Z1597a

>  <energy_score>  (955) 
-19.292686

>  <inspiration_score>  (955) 
None

>  <smina_score_min>  (955) 
-6.779

>  <fragmenstein_error>  (955) 


>  <name>  (955) 
CQSKFJVVODQLSM-UHFFFAOYSA-N-P86-P50-P86-601534

$$$$
GPYIGOFCICNCDY-UHFFFAOYSA-N-P50-P50-P86-601534
     RDKit          3D

 20 21  0  0  0  0  0  0  0  0999 V2000
   -5.3379   10.2100  -23.3194 C   0  0  0  0  0  0  0  0  0  0  0  0
   -5.3188    9.0108  -23.2607 C   0  0  0  0  0  0  0  0  0  0  0  0
   -5.3217    7.5423  -23.3018 C   0  0  0  0  0  0  0  0  0  0  0  0
   -5.3455    6.8798  -21.9229 C   0  0  0  0  0  0  0  0  0  0  0  0
   -4.0028    6.8791  -21.1913 C   0  0  0  0  0  0  0  0  0  0  0  0
   -3.8321    5.6727  -20.2731 C   0  0  0  0  0  0  0  0  0  0  0  0
   -4.3050    5.8310  -18.8343 C   0  0  0  0  0  0  0  0  0  0  0  0
   -3.5911    6.2229  -17.9930 O   0  0  0  0  0  0  0  0  0  0  0  0
   -5.7692    5.2957  -18.7498 N   0  0  0  0  0  0  0  0  0  0  0  0
   -6.5811    5.0556  -17.6444 C   0  0  0  0  0  0  0  0  0  0  0  0
   -6.0687    5.1089  -16.3421 C   0  0  0  0  0  0  0  0  0  0  0  0
   -6.8457    4.7428  -15.2393 C   0  0  0  0  0  0  0  0  0  0  0  0
   -6.1648    4.9070  -13.4930 Br  0  0  0  0  0  0  0  0  0  0  0  0
   -8.1461    4.2864  -15.3732 C   0  0  0  0  0  0  0  0  0  0  0  0
   -8.6912    4.3066  -16.6480 C   0  0  0  0  0  0  0  0  0  0  0  0
   -9.9855    4.0749  -16.9823 N   0  0  0  0  0  0  0  0  0  0  0  0
  -10.0545    4.5148  -18.1980 C   0  0  0  0  0  0  0  0  0  0  0  0
  -11.1969    4.8918  -18.7105 O   0  0  0  0  0  0  0  0  0  0  0  0
   -8.8395    4.7057  -18.7806 N   0  0  0  0  0  0  0  0  0  0  0  0
   -7.9252    4.6927  -17.7522 C   0  0  0  0  0  0  0  0  0  0  0  0
  1  2  3  0
  2  3  1  0
  3  4  1  0
  4  5  1  0
  5  6  1  0
  6  7  1  0
  7  8  2  0
  7  9  1  0
  9 10  1  0
 10 11  2  0
 11 12  1  0
 12 13  1  0
 12 14  2  0
 14 15  1  0
 15 16  1  0
 16 17  2  0
 17 18  1  0
 17 19  1  0
 19 20  1  0
 20 10  1  0
 20 15  2  0
M  END
>  <fragmenstein_outcome>  (956) 
too moved

>  <exports>  (956) 
['/opt/xchem-fragalysis-2/maxwin/openbind-hippo/xx01zvns2b/cycle_01/syndirella/elabs/openbind_xx01zvns2b_c1_elab_chemspace_filtered.sdf']

>  <Energy>  (956) 
-17.749729

>  <alias>  (956) 
GPYIGOFCICNCDY-UHFFFAOYSA-N-P50-P50-P86-601534

>  <fragmenstein_runtime>  (956) 
3.21499

>  <scratch_subdir>  (956) 
/opt/xchem-fragalysis-2/maxwin/BulkDock/SCRATCH/601534/GPYIGOFCICNCDY-UHFFFAOYSA-N-P50-P50-P86-601534

>  <HIPPO Compound ID>  (956) 
136934

>  <rmsd(smina/fragmenstein)>  (956) 
1.251

>  <distance_score>  (956) 
1.104634

>  <orig_smiles>  (956) 
C#CCCCCC(=O)Nc1cc(Br)cc2nc(O)[nH]c12

>  <fragmenstein_mode>  (956) 
expansion

>  <inchikey>  (956) 
GPYIGOFCICNCDY-UHFFFAOYSA-N

>  <ref_pdb>  (956) 
Z0846a

>  <GNINA pK>  (956) 
nan

>  <gnina_score_min>  (956) 
5.339

>  <tags>  (956) 
xx01zvns2b_c1_elab_bulkdock_input,openbind_xx01zvns2b_c1_elab_nonasap_filtered_scored_top80percent,openbind_xx01zvns2b_c1_elab_chemspace_filtered_scored_top80percent,fragmenstein_placed,openbind_xx01zvns2b_c1_elab_chemspace_filtered_scored,openbind_xx01zvns2b_c1_elab_chemspace_filtered_scored_top40percent,openbind_xx01zvns2b_c1_elab_chemspace_filtered_scored_top20percent,openbind_xx01zvns2b_c1_elab_chemspace_filtered_scored_top60percent,openbind_xx01zvns2b_c1_elabs_filtered

>  <smiles>  (956) 
C#CCCCCC(=O)Nc1cc(Br)cc2nc(O)[nH]c12

>  <subsites>  (956) 
1 - Z4590/B/203/1

>  <gnina_score>  (956) 
5.363

>  <HIPPO Pose ID>  (956) 
92144

>  <ref_mols>  (956) 
Z0846a,Z1597a

>  <energy_score>  (956) 
-10.70349

>  <inspiration_score>  (956) 
None

>  <smina_score_min>  (956) 
-6.335

>  <fragmenstein_error>  (956) 


>  <name>  (956) 
GPYIGOFCICNCDY-UHFFFAOYSA-N-P50-P50-P86-601534

$$$$
UKXWZZQRBPFPJD-UHFFFAOYSA-N-P50-P50-P86-601534
     RDKit          3D

 20 21  0  0  0  0  0  0  0  0999 V2000
   -5.7931    7.9017  -24.6846 C   0  0  0  0  0  0  0  0  0  0  0  0
   -5.1631    8.1803  -23.3314 C   0  0  1  0  0  0  0  0  0  0  0  0
   -6.0091    8.9783  -22.6282 F   0  0  0  0  0  0  0  0  0  0  0  0
   -4.9165    6.8867  -22.5674 C   0  0  0  0  0  0  0  0  0  0  0  0
   -4.5844    7.0948  -21.0903 C   0  0  0  0  0  0  0  0  0  0  0  0
   -4.1781    5.7765  -20.4457 C   0  0  0  0  0  0  0  0  0  0  0  0
   -4.4405    5.7403  -18.9528 C   0  0  0  0  0  0  0  0  0  0  0  0
   -3.6087    5.9154  -18.1491 O   0  0  0  0  0  0  0  0  0  0  0  0
   -5.9414    5.3492  -18.7851 N   0  0  0  0  0  0  0  0  0  0  0  0
   -6.6631    5.0168  -17.6488 C   0  0  0  0  0  0  0  0  0  0  0  0
   -6.0942    5.0038  -16.3732 C   0  0  0  0  0  0  0  0  0  0  0  0
   -6.8485    4.6344  -15.2564 C   0  0  0  0  0  0  0  0  0  0  0  0
   -6.1147    4.7540  -13.5278 Br  0  0  0  0  0  0  0  0  0  0  0  0
   -8.1690    4.2231  -15.3587 C   0  0  0  0  0  0  0  0  0  0  0  0
   -8.7527    4.2752  -16.6159 C   0  0  0  0  0  0  0  0  0  0  0  0
  -10.0559    4.0645  -16.9314 N   0  0  0  0  0  0  0  0  0  0  0  0
  -10.1427    4.5103  -18.1446 C   0  0  0  0  0  0  0  0  0  0  0  0
  -11.2892    4.8747  -18.6542 O   0  0  0  0  0  0  0  0  0  0  0  0
   -8.9397    4.7108  -18.7406 N   0  0  0  0  0  0  0  0  0  0  0  0
   -8.0115    4.6755  -17.7277 C   0  0  0  0  0  0  0  0  0  0  0  0
  2  1  1  6
  2  3  1  0
  2  4  1  0
  4  5  1  0
  5  6  1  0
  6  7  1  0
  7  8  2  0
  7  9  1  0
  9 10  1  0
 10 11  2  0
 11 12  1  0
 12 13  1  0
 12 14  2  0
 14 15  1  0
 15 16  1  0
 16 17  2  0
 17 18  1  0
 17 19  1  0
 19 20  1  0
 20 10  1  0
 20 15  2  0
M  END
>  <fragmenstein_outcome>  (957) 
acceptable

>  <exports>  (957) 
['/opt/xchem-fragalysis-2/maxwin/BulkDock/OUTPUTS/xx01zvns2b_c1_elab_bulkdock_input_1GFT1FD.sdf', '/opt/xchem-fragalysis-2/maxwin/openbind-hippo/xx01zvns2b/cycle_01/syndirella/elabs/openbind_xx01zvns2b_c1_elab_chemspace_filtered.sdf']

>  <Energy>  (957) 
-23.313397

>  <alias>  (957) 
UKXWZZQRBPFPJD-UHFFFAOYSA-N-P50-P50-P86-601534

>  <fragmenstein_runtime>  (957) 
3.721533

>  <scratch_subdir>  (957) 
/opt/xchem-fragalysis-2/maxwin/BulkDock/SCRATCH/601534/UKXWZZQRBPFPJD-UHFFFAOYSA-N-P50-P50-P86-601534

>  <HIPPO Compound ID>  (957) 
136941

>  <rmsd(smina/fragmenstein)>  (957) 
0.086

>  <distance_score>  (957) 
0.981093

>  <orig_smiles>  (957) 
CC(F)CCCC(=O)Nc1cc(Br)cc2nc(O)[nH]c12

>  <fragmenstein_mode>  (957) 
expansion

>  <inchikey>  (957) 
UKXWZZQRBPFPJD-UHFFFAOYSA-N

>  <ref_pdb>  (957) 
Z0846a

>  <GNINA pK>  (957) 
nan

>  <gnina_score_min>  (957) 
5.353

>  <tags>  (957) 
xx01zvns2b_c1_elab_bulkdock_input,openbind_xx01zvns2b_c1_elab_nonasap_filtered_scored_top80percent,BulkDock Fragalysis export,openbind_xx01zvns2b_c1_elab_chemspace_filtered_scored_top80percent,fragmenstein_placed,openbind_xx01zvns2b_c1_elab_chemspace_filtered_scored,openbind_xx01zvns2b_c1_elab_chemspace_filtered_scored_top40percent,openbind_xx01zvns2b_c1_elab_chemspace_filtered_scored_top20percent,openbind_xx01zvns2b_c1_elab_chemspace_filtered_scored_top60percent,openbind_xx01zvns2b_c1_elabs_filtered

>  <smiles>  (957) 
CC(F)CCCC(=O)Nc1cc(Br)cc2nc(O)[nH]c12

>  <subsites>  (957) 
1 - Z4590/B/203/1

>  <gnina_score>  (957) 
5.356

>  <HIPPO Pose ID>  (957) 
92158

>  <ref_mols>  (957) 
Z0846a,Z1597a

>  <energy_score>  (957) 
-24.529089

>  <inspiration_score>  (957) 
None

>  <smina_score_min>  (957) 
-5.801

>  <fragmenstein_error>  (957) 


>  <name>  (957) 
UKXWZZQRBPFPJD-UHFFFAOYSA-N-P50-P50-P86-601534

$$$$
LQLKQEZXLSNXNM-UHFFFAOYSA-N-P86-P50-P86-601534
     RDKit          3D

 20 21  0  0  0  0  0  0  0  0999 V2000
   -5.9236    7.8119  -24.7349 C   0  0  0  0  0  0  0  0  0  0  0  0
   -5.4792    8.0157  -23.3113 C   0  0  0  0  0  0  0  0  0  0  0  0
   -5.6197    9.1022  -22.7515 O   0  0  0  0  0  0  0  0  0  0  0  0
   -4.8320    6.8203  -22.6408 C   0  0  0  0  0  0  0  0  0  0  0  0
   -4.6697    6.9938  -21.1368 C   0  0  0  0  0  0  0  0  0  0  0  0
   -4.1303    5.7269  -20.4911 C   0  0  0  0  0  0  0  0  0  0  0  0
   -4.3948    5.7224  -18.9959 C   0  0  0  0  0  0  0  0  0  0  0  0
   -3.5812    5.9954  -18.2015 O   0  0  0  0  0  0  0  0  0  0  0  0
   -5.8799    5.2840  -18.8113 N   0  0  0  0  0  0  0  0  0  0  0  0
   -6.6015    5.0136  -17.6589 C   0  0  0  0  0  0  0  0  0  0  0  0
   -6.0540    5.1509  -16.3792 C   0  0  0  0  0  0  0  0  0  0  0  0
   -6.7977    4.8284  -15.2397 C   0  0  0  0  0  0  0  0  0  0  0  0
   -6.0906    5.1137  -13.5199 Br  0  0  0  0  0  0  0  0  0  0  0  0
   -8.0865    4.3258  -15.3173 C   0  0  0  0  0  0  0  0  0  0  0  0
   -8.6538    4.2476  -16.5792 C   0  0  0  0  0  0  0  0  0  0  0  0
   -9.9436    3.9688  -16.8744 N   0  0  0  0  0  0  0  0  0  0  0  0
  -10.0525    4.3353  -18.1104 C   0  0  0  0  0  0  0  0  0  0  0  0
  -11.2130    4.6726  -18.6091 O   0  0  0  0  0  0  0  0  0  0  0  0
   -8.8566    4.5109  -18.7314 N   0  0  0  0  0  0  0  0  0  0  0  0
   -7.9289    4.5972  -17.7185 C   0  0  0  0  0  0  0  0  0  0  0  0
  1  2  1  0
  2  3  2  0
  2  4  1  0
  4  5  1  0
  5  6  1  0
  6  7  1  0
  7  8  2  0
  7  9  1  0
  9 10  1  0
 10 11  2  0
 11 12  1  0
 12 13  1  0
 12 14  2  0
 14 15  1  0
 15 16  1  0
 16 17  2  0
 17 18  1  0
 17 19  1  0
 19 20  1  0
 20 10  1  0
 20 15  2  0
M  END
>  <fragmenstein_outcome>  (958) 
too moved

>  <exports>  (958) 
['/opt/xchem-fragalysis-2/maxwin/openbind-hippo/xx01zvns2b/cycle_01/syndirella/elabs/openbind_xx01zvns2b_c1_elab_chemspace_filtered.sdf']

>  <Energy>  (958) 
-22.494855

>  <alias>  (958) 
LQLKQEZXLSNXNM-UHFFFAOYSA-N-P86-P50-P86-601534

>  <fragmenstein_runtime>  (958) 
3.18683

>  <scratch_subdir>  (958) 
/opt/xchem-fragalysis-2/maxwin/BulkDock/SCRATCH/601534/LQLKQEZXLSNXNM-UHFFFAOYSA-N-P86-P50-P86-601534

>  <HIPPO Compound ID>  (958) 
136943

>  <rmsd(smina/fragmenstein)>  (958) 
1.125

>  <distance_score>  (958) 
1.08276

>  <orig_smiles>  (958) 
CC(=O)CCCC(=O)Nc1cc(Br)cc2nc(O)[nH]c12

>  <fragmenstein_mode>  (958) 
expansion

>  <inchikey>  (958) 
LQLKQEZXLSNXNM-UHFFFAOYSA-N

>  <ref_pdb>  (958) 
Z0846a

>  <GNINA pK>  (958) 
nan

>  <gnina_score_min>  (958) 
5.377

>  <tags>  (958) 
xx01zvns2b_c1_elab_bulkdock_input,openbind_xx01zvns2b_c1_elab_nonasap_filtered_scored_top80percent,openbind_xx01zvns2b_c1_elab_chemspace_filtered_scored_top80percent,fragmenstein_placed,openbind_xx01zvns2b_c1_elab_chemspace_filtered_scored,openbind_xx01zvns2b_c1_elab_chemspace_filtered_scored_top40percent,openbind_xx01zvns2b_c1_elab_chemspace_filtered_scored_top20percent,openbind_xx01zvns2b_c1_elab_chemspace_filtered_scored_top60percent,openbind_xx01zvns2b_c1_elabs_filtered

>  <smiles>  (958) 
CC(=O)CCCC(=O)Nc1cc(Br)cc2nc(O)[nH]c12

>  <subsites>  (958) 
1 - Z4590/B/203/1

>  <gnina_score>  (958) 
5.147

>  <HIPPO Pose ID>  (958) 
92163

>  <ref_mols>  (958) 
Z0846a,Z1597a

>  <energy_score>  (958) 
-20.531344

>  <inspiration_score>  (958) 
None

>  <smina_score_min>  (958) 
-6.88

>  <fragmenstein_error>  (958) 


>  <name>  (958) 
LQLKQEZXLSNXNM-UHFFFAOYSA-N-P86-P50-P86-601534

$$$$
TWSSSCDARGUYGF-UHFFFAOYSA-N-P86-P50-P86-601534
     RDKit          3D

 20 21  0  0  0  0  0  0  0  0999 V2000
   -6.4982    7.9532  -24.2606 O   0  0  0  0  0  0  0  0  0  0  0  0
   -5.3191    7.8303  -23.9467 C   0  0  0  0  0  0  0  0  0  0  0  0
   -4.8687    7.0261  -22.7633 C   0  0  0  0  0  0  0  0  0  0  0  0
   -4.1930    7.9232  -21.7369 C   0  0  0  0  0  0  0  0  0  0  0  0
   -4.4263    7.4593  -20.3076 C   0  0  0  0  0  0  0  0  0  0  0  0
   -3.9467    6.0342  -20.0460 C   0  0  0  0  0  0  0  0  0  0  0  0
   -4.2539    5.6825  -18.6051 C   0  0  0  0  0  0  0  0  0  0  0  0
   -3.4507    5.7273  -17.7562 O   0  0  0  0  0  0  0  0  0  0  0  0
   -5.7835    5.3860  -18.5341 N   0  0  0  0  0  0  0  0  0  0  0  0
   -6.5770    5.0086  -17.4635 C   0  0  0  0  0  0  0  0  0  0  0  0
   -6.1022    5.0939  -16.1504 C   0  0  0  0  0  0  0  0  0  0  0  0
   -6.9093    4.7471  -15.0678 C   0  0  0  0  0  0  0  0  0  0  0  0
   -6.2978    4.9890  -13.3064 Br  0  0  0  0  0  0  0  0  0  0  0  0
   -8.1944    4.2633  -15.2387 C   0  0  0  0  0  0  0  0  0  0  0  0
   -8.6879    4.2175  -16.5342 C   0  0  0  0  0  0  0  0  0  0  0  0
   -9.9592    3.9470  -16.9097 N   0  0  0  0  0  0  0  0  0  0  0  0
   -9.9997    4.3546  -18.1364 C   0  0  0  0  0  0  0  0  0  0  0  0
  -11.1341    4.7202  -18.6734 O   0  0  0  0  0  0  0  0  0  0  0  0
   -8.7717    4.5549  -18.6864 N   0  0  0  0  0  0  0  0  0  0  0  0
   -7.8994    4.5999  -17.6214 C   0  0  0  0  0  0  0  0  0  0  0  0
  1  2  2  0
  2  3  1  0
  3  4  1  0
  4  5  1  0
  5  6  1  0
  6  7  1  0
  7  8  2  0
  7  9  1  0
  9 10  1  0
 10 11  2  0
 11 12  1  0
 12 13  1  0
 12 14  2  0
 14 15  1  0
 15 16  1  0
 16 17  2  0
 17 18  1  0
 17 19  1  0
 19 20  1  0
 20 10  1  0
 20 15  2  0
M  END
>  <fragmenstein_outcome>  (959) 
too moved

>  <exports>  (959) 
['/opt/xchem-fragalysis-2/maxwin/openbind-hippo/xx01zvns2b/cycle_01/syndirella/elabs/openbind_xx01zvns2b_c1_elab_chemspace_filtered.sdf']

>  <Energy>  (959) 
-21.278863

>  <alias>  (959) 
TWSSSCDARGUYGF-UHFFFAOYSA-N-P86-P50-P86-601534

>  <fragmenstein_runtime>  (959) 
2.983822

>  <scratch_subdir>  (959) 
/opt/xchem-fragalysis-2/maxwin/BulkDock/SCRATCH/601534/TWSSSCDARGUYGF-UHFFFAOYSA-N-P86-P50-P86-601534

>  <HIPPO Compound ID>  (959) 
136948

>  <rmsd(smina/fragmenstein)>  (959) 
0.76

>  <distance_score>  (959) 
1.153991

>  <orig_smiles>  (959) 
O=CCCCCC(=O)Nc1cc(Br)cc2nc(O)[nH]c12

>  <fragmenstein_mode>  (959) 
expansion

>  <inchikey>  (959) 
TWSSSCDARGUYGF-UHFFFAOYSA-N

>  <ref_pdb>  (959) 
Z0846a

>  <GNINA pK>  (959) 
nan

>  <gnina_score_min>  (959) 
5.149

>  <tags>  (959) 
xx01zvns2b_c1_elab_bulkdock_input,openbind_xx01zvns2b_c1_elab_nonasap_filtered_scored_top80percent,openbind_xx01zvns2b_c1_elab_chemspace_filtered_scored_top80percent,fragmenstein_placed,openbind_xx01zvns2b_c1_elab_chemspace_filtered_scored,openbind_xx01zvns2b_c1_elab_chemspace_filtered_scored_top40percent,openbind_xx01zvns2b_c1_elab_chemspace_filtered_scored_top20percent,openbind_xx01zvns2b_c1_elab_chemspace_filtered_scored_top60percent,openbind_xx01zvns2b_c1_elabs_filtered

>  <smiles>  (959) 
O=CCCCCC(=O)Nc1cc(Br)cc2nc(O)[nH]c12

>  <subsites>  (959) 
1 - Z4590/B/203/1

>  <gnina_score>  (959) 
5.1

>  <HIPPO Pose ID>  (959) 
92173

>  <ref_mols>  (959) 
Z0846a,Z1597a

>  <energy_score>  (959) 
-35.595785

>  <inspiration_score>  (959) 
None

>  <smina_score_min>  (959) 
-6.318

>  <fragmenstein_error>  (959) 


>  <name>  (959) 
TWSSSCDARGUYGF-UHFFFAOYSA-N-P86-P50-P86-601534

$$$$
AYGISRIVMPCNDV-UHFFFAOYSA-N-P86-P50-P86-601534
     RDKit          3D

 20 21  0  0  0  0  0  0  0  0999 V2000
   -5.7454    7.6124  -24.5781 C   0  0  0  0  0  0  0  0  0  0  0  0
   -5.3450    8.0499  -23.1773 C   0  0  0  0  0  0  0  0  0  0  0  0
   -4.5423    6.9813  -22.4087 C   0  0  1  0  0  0  0  0  0  0  0  0
   -3.1214    6.8647  -22.9690 C   0  0  0  0  0  0  0  0  0  0  0  0
   -4.5252    7.3219  -20.9063 C   0  0  0  0  0  0  0  0  0  0  0  0
   -3.7756    6.3147  -20.0374 C   0  0  0  0  0  0  0  0  0  0  0  0
   -4.1786    6.4404  -18.5693 C   0  0  0  0  0  0  0  0  0  0  0  0
   -3.4961    6.9226  -17.7520 O   0  0  0  0  0  0  0  0  0  0  0  0
   -5.5889    5.7897  -18.4507 N   0  0  0  0  0  0  0  0  0  0  0  0
   -6.3700    5.5269  -17.3316 C   0  0  0  0  0  0  0  0  0  0  0  0
   -6.0279    5.9071  -16.0345 C   0  0  0  0  0  0  0  0  0  0  0  0
   -6.8398    5.5540  -14.9457 C   0  0  0  0  0  0  0  0  0  0  0  0
   -6.3680    6.0613  -13.1988 Br  0  0  0  0  0  0  0  0  0  0  0  0
   -8.0007    4.8069  -15.0841 C   0  0  0  0  0  0  0  0  0  0  0  0
   -8.3201    4.3982  -16.3652 C   0  0  0  0  0  0  0  0  0  0  0  0
   -9.3099    3.5554  -16.7351 N   0  0  0  0  0  0  0  0  0  0  0  0
   -9.0394    3.3199  -17.9804 C   0  0  0  0  0  0  0  0  0  0  0  0
   -9.3884    2.2028  -18.5562 O   0  0  0  0  0  0  0  0  0  0  0  0
   -8.1739    4.2132  -18.5210 N   0  0  0  0  0  0  0  0  0  0  0  0
   -7.5383    4.7839  -17.4533 C   0  0  0  0  0  0  0  0  0  0  0  0
  1  2  1  0
  2  3  1  0
  3  4  1  6
  3  5  1  0
  5  6  1  0
  6  7  1  0
  7  8  2  0
  7  9  1  0
  9 10  1  0
 10 11  2  0
 11 12  1  0
 12 13  1  0
 12 14  2  0
 14 15  1  0
 15 16  1  0
 16 17  2  0
 17 18  1  0
 17 19  1  0
 19 20  1  0
 20 10  1  0
 20 15  2  0
M  END
>  <fragmenstein_outcome>  (960) 
too moved

>  <exports>  (960) 
['/opt/xchem-fragalysis-2/maxwin/openbind-hippo/xx01zvns2b/cycle_01/syndirella/elabs/openbind_xx01zvns2b_c1_elab_chemspace_filtered.sdf']

>  <Energy>  (960) 
-6.462215

>  <alias>  (960) 
AYGISRIVMPCNDV-UHFFFAOYSA-N-P86-P50-P86-601534

>  <fragmenstein_runtime>  (960) 
8.973403

>  <scratch_subdir>  (960) 
/opt/xchem-fragalysis-2/maxwin/BulkDock/SCRATCH/601534/AYGISRIVMPCNDV-UHFFFAOYSA-N-P86-P50-P86-601534

>  <HIPPO Compound ID>  (960) 
136960

>  <rmsd(smina/fragmenstein)>  (960) 
1.256

>  <distance_score>  (960) 
1.298911

>  <orig_smiles>  (960) 
CCC(C)CCC(=O)Nc1cc(Br)cc2nc(O)[nH]c12

>  <fragmenstein_mode>  (960) 
expansion

>  <inchikey>  (960) 
AYGISRIVMPCNDV-UHFFFAOYSA-N

>  <ref_pdb>  (960) 
Z0846a

>  <GNINA pK>  (960) 
nan

>  <gnina_score_min>  (960) 
5.158

>  <tags>  (960) 
xx01zvns2b_c1_elab_bulkdock_input,openbind_xx01zvns2b_c1_elab_nonasap_filtered_scored_top80percent,openbind_xx01zvns2b_c1_elab_chemspace_filtered_scored_top80percent,fragmenstein_placed,openbind_xx01zvns2b_c1_elab_chemspace_filtered_scored,openbind_xx01zvns2b_c1_elab_chemspace_filtered_scored_top40percent,openbind_xx01zvns2b_c1_elab_chemspace_filtered_scored_top20percent,openbind_xx01zvns2b_c1_elab_chemspace_filtered_scored_top60percent,openbind_xx01zvns2b_c1_elabs_filtered

>  <smiles>  (960) 
CCC(C)CCC(=O)Nc1cc(Br)cc2nc(O)[nH]c12

>  <subsites>  (960) 
1 - Z4590/B/203/1

>  <gnina_score>  (960) 
5.803

>  <HIPPO Pose ID>  (960) 
92197

>  <ref_mols>  (960) 
Z0846a,Z1597a

>  <energy_score>  (960) 
-16.175996

>  <inspiration_score>  (960) 
None

>  <smina_score_min>  (960) 
-5.064

>  <fragmenstein_error>  (960) 


>  <name>  (960) 
AYGISRIVMPCNDV-UHFFFAOYSA-N-P86-P50-P86-601534

$$$$
