A71EV2A-x1779_F_201_1_A71EV2A-x0911+A+147+1__LIG
     RDKit          3D

 15 16  0  0  0  0  0  0  0  0999 V2000
    9.0900   14.1120   26.9080 O   0  0  0  0  0  0  0  0  0  0  0  0
    9.0920   13.0550   26.2870 C   0  0  0  0  0  0  0  0  0  0  0  0
    7.8910   12.0900   26.2510 C   0  0  0  0  0  0  0  0  0  0  0  0
    8.1000   10.7680   25.7420 O   0  0  0  0  0  0  0  0  0  0  0  0
   10.1630   12.6740   25.5650 N   0  0  0  0  0  0  0  0  0  0  0  0
   10.2220   11.5060   24.8040 C   0  0  0  0  0  0  0  0  0  0  0  0
    9.1580   10.5980   24.8800 C   0  0  0  0  0  0  0  0  0  0  0  0
    9.1550    9.4510   24.1100 C   0  0  0  0  0  0  0  0  0  0  0  0
   10.2210    9.1940   23.2690 C   0  0  0  0  0  0  0  0  0  0  0  0
   11.2920   11.2440   23.9540 C   0  0  0  0  0  0  0  0  0  0  0  0
   11.2900   10.0850   23.1790 C   0  0  0  0  0  0  0  0  0  0  0  0
   12.3990    9.7740   22.2340 C   0  0  0  0  0  0  0  0  0  0  0  0
   12.3160    8.8270   21.4740 O   0  0  0  0  0  0  0  0  0  0  0  0
   13.6060   10.6490   22.2070 C   0  0  0  0  0  0  0  0  0  0  0  0
   14.3730   10.6030   20.8990 C   0  0  0  0  0  0  0  0  0  0  0  0
 15 14  1  0
 14 12  1  0
 13 12  2  0
 12 11  1  0
 11  9  1  0
  9  8  2  0
  8  7  1  0
  7  4  1  0
  4  3  1  0
  3  2  1  0
  2  1  2  0
  5  2  1  0
  6  5  1  0
  7  6  2  0
 10  6  1  0
 11 10  2  0
M  END
$$$$
