XX01ZVNS2B-x0404_B_301_1_XX01ZVNS2B-x4590+B+203+1__LIG
     RDKit          3D

 16 17  0  0  0  0  0  0  0  0999 V2000
   -8.1120    8.5230  -13.2510 O   0  0  0  0  0  0  0  0  0  0  0  0
   -8.7150    7.2500  -13.5360 S   0  0  0  0  0  0  0  0  0  0  0  0
   -8.2850    6.5490  -14.7120 O   0  0  0  0  0  0  0  0  0  0  0  0
  -10.4540    7.4580  -13.6120 C   0  0  0  0  0  0  0  0  0  0  0  0
   -8.4640    6.1950  -12.1410 C   0  0  0  0  0  0  0  0  0  0  0  0
   -8.2740    6.7570  -10.8910 C   0  0  0  0  0  0  0  0  0  0  0  0
   -8.2560    5.9420   -9.7750 C   0  0  0  0  0  0  0  0  0  0  0  0
   -8.4280    4.5600   -9.8950 C   0  0  0  0  0  0  0  0  0  0  0  0
   -8.5570    4.0080  -11.1740 C   0  0  0  0  0  0  0  0  0  0  0  0
   -8.5720    4.8200  -12.2940 C   0  0  0  0  0  0  0  0  0  0  0  0
   -8.5600    3.7620   -8.7540 N   0  0  0  0  0  0  0  0  0  0  0  0
   -8.5350    2.3010   -8.8880 C   0  0  0  0  0  0  0  0  0  0  0  0
   -9.2770    1.6730   -7.7340 C   0  0  0  0  0  0  0  0  0  0  0  0
   -8.6650    2.0900   -6.4580 N   0  0  0  0  0  0  0  0  0  0  0  0
   -8.6250    3.5640   -6.3180 C   0  0  0  0  0  0  0  0  0  0  0  0
   -7.9490    4.2210   -7.5020 C   0  0  0  0  0  0  0  0  0  0  0  0
  4  2  1  0
  3  2  2  0
  2  1  2  0
  5  2  1  0
  5 10  2  0
 10  9  1  0
  9  8  2  0
  8  7  1  0
  7  6  2  0
  6  5  1  0
 11  8  1  0
 11 16  1  0
 16 15  1  0
 15 14  1  0
 14 13  1  0
 13 12  1  0
 12 11  1  0
M  END
$$$$
