XX01ZVNS2B-x2235_B_301_1_XX01ZVNS2B-x4590+B+203+1__LIG
     RDKit          3D

 22 24  0  0  0  0  0  0  0  0999 V2000
   -2.1680    4.5590  -19.5890 C   0  0  0  0  0  0  0  0  0  0  0  0
   -2.8620    5.8450  -20.0070 C   0  0  0  0  0  0  0  0  0  0  0  0
   -2.3240    6.3700  -21.3250 C   0  0  0  0  0  0  0  0  0  0  0  0
   -4.3130    5.6320  -20.1100 N   0  0  0  0  0  0  0  0  0  0  0  0
   -5.1130    5.3890  -19.0510 C   0  0  0  0  0  0  0  0  0  0  0  0
   -6.3630    4.9850  -19.1800 N   0  0  0  0  0  0  0  0  0  0  0  0
   -6.8310    4.9060  -17.8680 C   0  0  0  0  0  0  0  0  0  0  0  0
   -8.0730    4.5030  -17.3820 C   0  0  0  0  0  0  0  0  0  0  0  0
   -8.2610    4.4790  -16.0210 C   0  0  0  0  0  0  0  0  0  0  0  0
   -7.2670    4.9140  -15.1320 C   0  0  0  0  0  0  0  0  0  0  0  0
   -7.4490    4.9490  -13.6470 C   0  0  0  0  0  0  0  0  0  0  0  0
   -6.7930    5.7200  -12.9630 O   0  0  0  0  0  0  0  0  0  0  0  0
   -8.3060    4.0340  -13.1140 N   0  0  0  0  0  0  0  0  0  0  0  0
   -8.4970    3.7930  -11.7400 C   0  0  0  0  0  0  0  0  0  0  0  0
   -9.1790    2.7110  -11.1670 C   0  0  0  0  0  0  0  0  0  0  0  0
   -9.1790    2.7620   -9.8430 N   0  0  0  0  0  0  0  0  0  0  0  0
   -8.5180    3.9250   -9.5460 N   0  0  0  0  0  0  0  0  0  0  0  0
   -8.3520    4.3230   -8.1520 C   0  0  0  0  0  0  0  0  0  0  0  0
   -8.1050    4.5760  -10.6610 C   0  0  0  0  0  0  0  0  0  0  0  0
   -6.0310    5.3040  -15.6130 C   0  0  0  0  0  0  0  0  0  0  0  0
   -5.8270    5.2980  -16.9780 C   0  0  0  0  0  0  0  0  0  0  0  0
   -4.7480    5.6470  -17.7680 N   0  0  0  0  0  0  0  0  0  0  0  0
  1  2  1  0
  2  3  1  0
  2  4  1  0
  4  5  1  0
  5  6  2  0
  6  7  1  0
  7  8  2  0
  8  9  1  0
  9 10  2  0
 10 11  1  0
 11 12  2  0
 11 13  1  0
 13 14  1  0
 14 15  1  0
 15 16  2  0
 16 17  1  0
 17 18  1  0
 17 19  1  0
 10 20  1  0
 20 21  2  0
 21 22  1  0
  5 22  1  0
  7 21  1  0
 14 19  2  0
M  END
$$$$
