A71EV2A-x5091_A_201_3_A71EV2A-x0911+A+147+1__LIG
     RDKit          3D

 19 20  0  0  0  0  0  0  0  0999 V2000
   10.2820   16.5050   18.8420 O   0  0  0  0  0  0  0  0  0  0  0  0
   10.7720   15.4120   19.1300 C   0  0  0  0  0  0  0  0  0  0  0  0
   11.1720   14.5420   18.2130 N   0  0  0  0  0  0  0  0  0  0  0  0
   10.9480   14.9820   20.5770 C   0  0  1  0  0  0  0  0  0  0  0  0
   11.8640   15.8860   21.4310 C   0  0  0  0  0  0  0  0  0  0  0  0
   11.5010   15.5300   22.8740 C   0  0  0  0  0  0  0  0  0  0  0  0
    9.6610   15.0410   21.3870 C   0  0  0  0  0  0  0  0  0  0  0  0
   10.1850   14.8800   22.7400 N   0  0  0  0  0  0  0  0  0  0  0  0
    9.6480   14.1220   23.7300 C   0  0  0  0  0  0  0  0  0  0  0  0
   10.2950   13.7900   24.7030 O   0  0  0  0  0  0  0  0  0  0  0  0
    8.3680   13.6500   23.5220 N   0  0  0  0  0  0  0  0  0  0  0  0
    7.2950   14.6350   23.4330 C   0  0  0  0  0  0  0  0  0  0  0  0
    7.9660   12.3580   24.0100 C   0  0  0  0  0  0  0  0  0  0  0  0
    6.9280   12.2520   24.9210 C   0  0  0  0  0  0  0  0  0  0  0  0
    6.5800   11.0120   25.4140 C   0  0  0  0  0  0  0  0  0  0  0  0
    7.2490    9.8820   24.9890 C   0  0  0  0  0  0  0  0  0  0  0  0
    8.6390   11.2150   23.5880 C   0  0  0  0  0  0  0  0  0  0  0  0
    8.2770    9.9630   24.0670 C   0  0  0  0  0  0  0  0  0  0  0  0
    8.9630    8.7170   23.5660 C   0  0  0  0  0  0  0  0  0  0  0  0
 19 18  1  0
 18 16  2  0
 16 15  1  0
 15 14  2  0
 14 13  1  0
 13 11  1  0
 12 11  1  0
 11  9  1  0
 10  9  2  0
  9  8  1  0
  8  6  1  0
  6  5  1  0
  5  4  1  0
  4  2  1  6
  3  2  1  0
  2  1  2  0
  7  4  1  0
  8  7  1  0
 17 13  2  0
 18 17  1  0
M  END
$$$$
