XX01ZVNS2B-x4164_C_1_3_XX01ZVNS2B-x4590+B+203+1_ALIG
     RDKit          3D

 23 26  0  0  0  0  0  0  0  0999 V2000
   -9.0620    2.1600   -9.1510 F   0  0  0  0  0  0  0  0  0  0  0  0
   -8.7230    3.2970   -9.8120 C   0  0  0  0  0  0  0  0  0  0  0  0
   -8.4400    4.4160   -9.0790 C   0  0  0  0  0  0  0  0  0  0  0  0
   -8.1600    5.5870   -9.7630 C   0  0  0  0  0  0  0  0  0  0  0  0
   -8.1650    5.6120  -11.1490 C   0  0  0  0  0  0  0  0  0  0  0  0
   -8.7200    3.2710  -11.1850 C   0  0  0  0  0  0  0  0  0  0  0  0
   -8.4380    4.4520  -11.8630 C   0  0  0  0  0  0  0  0  0  0  0  0
   -8.4240    4.4530  -13.2790 N   0  0  0  0  0  0  0  0  0  0  0  0
   -7.4790    4.9970  -14.0830 C   0  0  0  0  0  0  0  0  0  0  0  0
   -6.4990    5.6020  -13.6590 O   0  0  0  0  0  0  0  0  0  0  0  0
   -7.6500    4.7640  -15.5550 C   0  0  0  0  0  0  0  0  0  0  0  0
   -6.6180    5.0630  -16.4570 C   0  0  0  0  0  0  0  0  0  0  0  0
   -6.7430    4.8110  -17.8340 C   0  0  0  0  0  0  0  0  0  0  0  0
   -7.9280    4.2620  -18.3150 C   0  0  0  0  0  0  0  0  0  0  0  0
   -8.9600    3.9730  -17.4330 C   0  0  0  0  0  0  0  0  0  0  0  0
   -8.8240    4.2170  -16.0730 C   0  0  0  0  0  0  0  0  0  0  0  0
   -5.3840    5.5860  -16.2610 N   0  0  0  0  0  0  0  0  0  0  0  0
   -4.6910    5.6870  -17.4340 N   0  0  0  0  0  0  0  0  0  0  0  0
   -5.4740    5.2300  -18.3840 C   0  0  0  0  0  0  0  0  0  0  0  0
   -5.0160    5.1710  -19.8160 C   0  0  0  0  0  0  0  0  0  0  0  0
   -3.4850    5.0070  -19.9900 C   0  0  0  0  0  0  0  0  0  0  0  0
   -3.4730    6.1930  -20.8760 N   0  0  0  0  0  0  0  0  0  0  0  0
   -4.8720    6.5390  -20.5310 C   0  0  0  0  0  0  0  0  0  0  0  0
 10  9  2  0
  9  8  1  0
  8  7  1  0
  7  5  1  0
  5  4  2  0
  4  3  1  0
  3  2  2  0
  2  1  1  0
  6  2  1  0
  7  6  2  0
 11  9  1  0
 11 16  2  0
 16 15  1  0
 15 14  2  0
 14 13  1  0
 13 19  1  0
 20 19  1  0
 20 23  1  0
 23 22  1  0
 22 21  1  0
 21 20  1  0
 19 18  2  0
 18 17  1  0
 17 12  1  0
 12 11  1  0
 13 12  2  0
M  END
$$$$
XX01ZVNS2B-x4164_C_1_3_XX01ZVNS2B-x4590+B+203+1_BLIG
     RDKit          3D

 23 26  0  0  0  0  0  0  0  0999 V2000
   -8.1260    6.5310   -9.1590 F   0  0  0  0  0  0  0  0  0  0  0  0
   -8.2840    5.3600   -9.8260 C   0  0  0  0  0  0  0  0  0  0  0  0
   -8.4910    4.2200   -9.1020 C   0  0  0  0  0  0  0  0  0  0  0  0
   -8.7020    3.0400   -9.7960 C   0  0  0  0  0  0  0  0  0  0  0  0
   -8.6820    3.0240  -11.1810 C   0  0  0  0  0  0  0  0  0  0  0  0
   -8.2580    5.3930  -11.1980 C   0  0  0  0  0  0  0  0  0  0  0  0
   -8.4560    4.2000  -11.8870 C   0  0  0  0  0  0  0  0  0  0  0  0
   -8.4210    4.1680  -13.3040 N   0  0  0  0  0  0  0  0  0  0  0  0
   -7.6410    4.9220  -14.1180 C   0  0  0  0  0  0  0  0  0  0  0  0
   -6.8450    5.7600  -13.7060 O   0  0  0  0  0  0  0  0  0  0  0  0
   -7.7820    4.6650  -15.5870 C   0  0  0  0  0  0  0  0  0  0  0  0
   -6.7580    5.0000  -16.4870 C   0  0  0  0  0  0  0  0  0  0  0  0
   -6.8910    4.7840  -17.8690 C   0  0  0  0  0  0  0  0  0  0  0  0
   -8.0750    4.2390  -18.3580 C   0  0  0  0  0  0  0  0  0  0  0  0
   -9.0920    3.9010  -17.4760 C   0  0  0  0  0  0  0  0  0  0  0  0
   -8.9450    4.1050  -16.1090 C   0  0  0  0  0  0  0  0  0  0  0  0
   -5.5180    5.5040  -16.2840 N   0  0  0  0  0  0  0  0  0  0  0  0
   -4.8280    5.6210  -17.4580 N   0  0  0  0  0  0  0  0  0  0  0  0
   -5.6200    5.1960  -18.4150 C   0  0  0  0  0  0  0  0  0  0  0  0
   -5.1620    5.1370  -19.8470 C   0  0  0  0  0  0  0  0  0  0  0  0
   -3.6290    5.0140  -20.0560 C   0  0  0  0  0  0  0  0  0  0  0  0
   -3.7930    5.9210  -21.2170 N   0  0  0  0  0  0  0  0  0  0  0  0
   -5.0180    6.4850  -20.6000 C   0  0  0  0  0  0  0  0  0  0  0  0
 10  9  2  0
  9  8  1  0
  8  7  1  0
  7  5  1  0
  5  4  2  0
  4  3  1  0
  3  2  2  0
  2  1  1  0
  6  2  1  0
  7  6  2  0
 11  9  1  0
 11 16  2  0
 16 15  1  0
 15 14  2  0
 14 13  1  0
 13 19  1  0
 20 19  1  0
 20 23  1  0
 23 22  1  0
 22 21  1  0
 21 20  1  0
 19 18  2  0
 18 17  1  0
 17 12  1  0
 12 11  1  0
 13 12  2  0
M  END
$$$$
