XX01ZVNS2B-x1237_B_301_1_XX01ZVNS2B-x4590+B+203+1__LIG
     RDKit          3D

 20 22  0  0  0  0  0  0  0  0999 V2000
   -8.3180    6.7080  -11.3800 C   0  0  0  0  0  0  0  0  0  0  0  0
   -8.2840    5.3150  -10.8040 C   0  0  0  0  0  0  0  0  0  0  0  0
   -8.3690    5.1350   -9.4310 C   0  0  0  0  0  0  0  0  0  0  0  0
   -8.3450    3.9260   -8.8470 N   0  0  0  0  0  0  0  0  0  0  0  0
   -8.2280    2.8600   -9.6430 C   0  0  0  0  0  0  0  0  0  0  0  0
   -8.1420    2.9310  -11.0070 C   0  0  0  0  0  0  0  0  0  0  0  0
   -8.1660    4.1780  -11.6090 C   0  0  0  0  0  0  0  0  0  0  0  0
   -8.0770    4.2920  -13.0170 N   0  0  0  0  0  0  0  0  0  0  0  0
   -7.0840    4.8940  -13.7250 C   0  0  0  0  0  0  0  0  0  0  0  0
   -6.1850    5.5380  -13.1960 O   0  0  0  0  0  0  0  0  0  0  0  0
   -7.1710    4.7550  -15.1850 C   0  0  0  0  0  0  0  0  0  0  0  0
   -8.3000    4.3860  -15.9450 C   0  0  0  0  0  0  0  0  0  0  0  0
   -7.9570    4.3930  -17.2740 C   0  0  0  0  0  0  0  0  0  0  0  0
   -8.7270    4.0830  -18.4800 C   0  0  0  0  0  0  0  0  0  0  0  0
  -10.2070    3.8810  -18.3970 C   0  0  0  0  0  0  0  0  0  0  0  0
   -9.3240    2.7210  -18.6300 C   0  0  0  0  0  0  0  0  0  0  0  0
   -6.6320    4.7590  -17.3850 N   0  0  0  0  0  0  0  0  0  0  0  0
   -5.8800    4.8850  -18.6330 C   0  0  0  0  0  0  0  0  0  0  0  0
   -6.1330    4.9890  -16.0790 C   0  0  0  0  0  0  0  0  0  0  0  0
   -4.7210    5.4000  -15.8540 C   0  0  0  0  0  0  0  0  0  0  0  0
  1  2  1  0
  2  3  2  0
  3  4  1  0
  4  5  2  0
  5  6  1  0
  6  7  2  0
  7  8  1  0
  8  9  1  0
  9 10  2  0
  9 11  1  0
 11 12  1  0
 12 13  2  0
 13 14  1  0
 14 15  1  0
 15 16  1  0
 13 17  1  0
 17 18  1  0
 17 19  1  0
 19 20  1  0
  2  7  1  0
 11 19  2  0
 14 16  1  0
M  END
$$$$
