A71EV2A-x4575_A_201_1_A71EV2A-x0911+A+147+1__LIG
     RDKit          3D

 20 22  0  0  0  0  0  0  0  0999 V2000
    7.1380   13.2580   22.4080 O   0  0  0  0  0  0  0  0  0  0  0  0
    7.9330   13.6560   23.2410 C   0  0  0  0  0  0  0  0  0  0  0  0
    8.9600   14.4770   22.9240 N   0  0  0  0  0  0  0  0  0  0  0  0
   10.0650   14.8640   23.8200 C   0  0  0  0  0  0  0  0  0  0  0  0
   11.4310   14.7710   23.1480 C   0  0  0  0  0  0  0  0  0  0  0  0
   11.4170   15.4570   21.7820 C   0  0  0  0  0  0  0  0  0  0  0  0
    8.9740   15.1330   21.6120 C   0  0  0  0  0  0  0  0  0  0  0  0
   10.3060   14.8710   20.9010 C   0  0  1  0  0  0  0  0  0  0  0  0
   10.3840   15.4090   19.4830 C   0  0  0  0  0  0  0  0  0  0  0  0
   10.0030   16.5520   19.2140 O   0  0  0  0  0  0  0  0  0  0  0  0
   10.8810   14.5780   18.5750 N   0  0  0  0  0  0  0  0  0  0  0  0
    7.6670   13.2330   24.7080 C   0  0  0  0  0  0  0  0  0  0  0  0
    7.9680   14.2050   25.8910 C   0  0  0  0  0  0  0  0  0  0  0  0
    6.5610   13.9500   26.4460 C   0  0  0  0  0  0  0  0  0  0  0  0
    6.1650   13.2820   25.1220 C   0  0  0  0  0  0  0  0  0  0  0  0
    8.2940   11.8610   24.8560 C   0  0  0  0  0  0  0  0  0  0  0  0
    9.4910   11.3620   24.3930 C   0  0  0  0  0  0  0  0  0  0  0  0
    9.5610   10.0120   24.5970 O   0  0  0  0  0  0  0  0  0  0  0  0
    8.3830    9.6590   25.2250 C   0  0  0  0  0  0  0  0  0  0  0  0
    7.6010   10.7290   25.4150 C   0  0  0  0  0  0  0  0  0  0  0  0
 11  9  1  0
 10  9  2  0
  8  9  1  6
  8  6  1  0
  6  5  1  0
  5  4  1  0
  4  3  1  0
  3  2  1  0
  2  1  2  0
 12  2  1  0
 16 12  1  0
 16 20  1  0
 20 19  2  0
 19 18  1  0
 18 17  1  0
 17 16  2  0
 12 15  1  0
 15 14  1  0
 14 13  1  0
 13 12  1  0
  7  3  1  0
  8  7  1  0
M  END
$$$$
