A71EV2A-x4202_C_201_1_A71EV2A-x0911+A+147+1__LIG
     RDKit          3D

 21 23  0  0  0  0  0  0  0  0999 V2000
    9.7760   10.3580   23.6870 Br  0  0  0  0  0  0  0  0  0  0  0  0
    8.2790   10.8380   24.7600 C   0  0  0  0  0  0  0  0  0  0  0  0
    7.4490    9.8220   25.2150 C   0  0  0  0  0  0  0  0  0  0  0  0
    6.4100   10.1330   26.0780 C   0  0  0  0  0  0  0  0  0  0  0  0
    6.1970   11.4450   26.4620 C   0  0  0  0  0  0  0  0  0  0  0  0
    8.0770   12.1590   25.1330 C   0  0  0  0  0  0  0  0  0  0  0  0
    7.0250   12.4620   25.9900 C   0  0  0  0  0  0  0  0  0  0  0  0
    6.9560   13.9470   26.2680 C   0  0  0  0  0  0  0  0  0  0  0  0
    8.3080   14.4610   25.7960 C   0  0  0  0  0  0  0  0  0  0  0  0
    8.9200   13.3760   24.8220 C   0  0  2  0  0  0  0  0  0  0  0  0
    8.7900   13.7700   23.3520 C   0  0  0  0  0  0  0  0  0  0  0  0
    7.9170   13.2790   22.6410 O   0  0  0  0  0  0  0  0  0  0  0  0
    9.6320   14.7200   22.8790 N   0  0  0  0  0  0  0  0  0  0  0  0
   10.6540   15.4120   23.6890 C   0  0  0  0  0  0  0  0  0  0  0  0
   12.0250   15.3120   23.0690 C   0  0  0  0  0  0  0  0  0  0  0  0
   11.9820   15.8220   21.6250 C   0  0  0  0  0  0  0  0  0  0  0  0
    9.5470   15.1860   21.4930 C   0  0  0  0  0  0  0  0  0  0  0  0
   10.9190   15.0520   20.8260 C   0  0  1  0  0  0  0  0  0  0  0  0
   10.8240   15.5540   19.3980 C   0  0  0  0  0  0  0  0  0  0  0  0
   10.4890   16.7200   19.1500 O   0  0  0  0  0  0  0  0  0  0  0  0
   11.0720   14.6540   18.4460 N   0  0  0  0  0  0  0  0  0  0  0  0
 21 19  1  0
 20 19  2  0
 18 19  1  6
 18 16  1  0
 16 15  1  0
 15 14  1  0
 14 13  1  0
 13 11  1  0
 12 11  2  0
 10 11  1  6
 10  9  1  0
  9  8  1  0
  8  7  1  0
  7  5  1  0
  5  4  2  0
  4  3  1  0
  3  2  2  0
  2  1  1  0
  6  2  1  0
  7  6  2  0
 10  6  1  0
 17 13  1  0
 18 17  1  0
M  END
$$$$
