A71EV2A-x4274_C_201_1_A71EV2A-x0911+A+147+1__LIG
     RDKit          3D

 18 19  0  0  0  0  0  0  0  0999 V2000
   10.4010   16.5950   19.3790 O   0  0  0  0  0  0  0  0  0  0  0  0
   10.7870   15.4310   19.5980 C   0  0  0  0  0  0  0  0  0  0  0  0
   11.0260   14.5570   18.6220 N   0  0  0  0  0  0  0  0  0  0  0  0
   10.9410   14.9070   21.0150 C   0  0  1  0  0  0  0  0  0  0  0  0
   11.9540   15.7240   21.8380 C   0  0  0  0  0  0  0  0  0  0  0  0
   12.0410   15.1690   23.2610 C   0  0  0  0  0  0  0  0  0  0  0  0
   10.6780   15.1490   23.9160 C   0  0  0  0  0  0  0  0  0  0  0  0
    9.5740   14.9120   21.7100 C   0  0  0  0  0  0  0  0  0  0  0  0
    9.6780   14.4030   23.0990 N   0  0  0  0  0  0  0  0  0  0  0  0
    9.8800   12.9330   23.1600 C   0  0  0  0  0  0  0  0  0  0  0  0
    8.9470   12.2380   24.1280 C   0  0  0  0  0  0  0  0  0  0  0  0
    8.8070   10.8490   24.1270 C   0  0  0  0  0  0  0  0  0  0  0  0
    9.5510   10.2030   23.1990 O   0  0  0  0  0  0  0  0  0  0  0  0
    9.5140    8.7500   23.1830 C   0  0  0  0  0  0  0  0  0  0  0  0
    8.2790   13.0070   25.0000 N   0  0  0  0  0  0  0  0  0  0  0  0
    7.4440   12.4080   25.8750 C   0  0  0  0  0  0  0  0  0  0  0  0
    7.2400   11.0420   25.9150 C   0  0  0  0  0  0  0  0  0  0  0  0
    7.9350   10.2410   25.0210 C   0  0  0  0  0  0  0  0  0  0  0  0
 14 13  1  0
 13 12  1  0
 12 18  2  0
 18 17  1  0
 17 16  2  0
 16 15  1  0
 15 11  2  0
 12 11  1  0
 11 10  1  0
 10  9  1  0
  9  7  1  0
  7  6  1  0
  6  5  1  0
  5  4  1  0
  4  2  1  6
  3  2  1  0
  2  1  2  0
  8  4  1  0
  9  8  1  0
M  END
$$$$
