XX01ZVNS2B-x3464_B_203_1_XX01ZVNS2B-x4590+B+203+1__LIG
     RDKit          3D

 23 26  0  0  0  0  0  0  0  0999 V2000
   -5.9910    4.3220  -21.0500 O   0  0  0  0  0  0  0  0  0  0  0  0
   -6.1090    4.5070  -19.8450 C   0  0  0  0  0  0  0  0  0  0  0  0
   -4.9960    5.1250  -19.0480 C   0  0  0  0  0  0  0  0  0  0  0  0
   -5.0830    4.9890  -17.6310 O   0  0  0  0  0  0  0  0  0  0  0  0
   -6.3160    4.7920  -17.0730 C   0  0  0  0  0  0  0  0  0  0  0  0
   -6.3830    4.8720  -15.7060 C   0  0  0  0  0  0  0  0  0  0  0  0
   -7.5810    4.6200  -15.0420 C   0  0  0  0  0  0  0  0  0  0  0  0
   -7.5480    4.8020  -13.5560 C   0  0  0  0  0  0  0  0  0  0  0  0
   -6.6790    5.5010  -13.0450 O   0  0  0  0  0  0  0  0  0  0  0  0
   -8.4270    4.0670  -12.8370 N   0  0  0  0  0  0  0  0  0  0  0  0
   -8.5540    4.0300  -11.4240 C   0  0  0  0  0  0  0  0  0  0  0  0
   -8.2920    5.1750  -10.6730 C   0  0  0  0  0  0  0  0  0  0  0  0
   -8.3960    5.1440   -9.2930 C   0  0  0  0  0  0  0  0  0  0  0  0
   -8.6870    3.9370   -8.6700 C   0  0  0  0  0  0  0  0  0  0  0  0
   -8.9360    2.7920   -9.4140 C   0  0  0  0  0  0  0  0  0  0  0  0
   -8.8390    2.8100  -10.7980 C   0  0  0  0  0  0  0  0  0  0  0  0
   -9.2580    1.6600   -8.4810 C   0  0  0  0  0  0  0  0  0  0  0  0
   -8.6950    2.1630   -7.2220 N   0  0  0  0  0  0  0  0  0  0  0  0
   -8.8630    3.6240   -7.2120 C   0  0  0  0  0  0  0  0  0  0  0  0
   -8.7150    4.2970  -15.7930 C   0  0  0  0  0  0  0  0  0  0  0  0
   -8.6380    4.1730  -17.1670 C   0  0  0  0  0  0  0  0  0  0  0  0
   -7.4270    4.4080  -17.8160 C   0  0  0  0  0  0  0  0  0  0  0  0
   -7.2780    4.2740  -19.2080 N   0  0  0  0  0  0  0  0  0  0  0  0
  1  2  2  0
  2  3  1  0
  3  4  1  0
  4  5  1  0
  5  6  2  0
  6  7  1  0
  7  8  1  0
  8  9  2  0
  8 10  1  0
 10 11  1  0
 11 12  2  0
 12 13  1  0
 13 14  2  0
 14 15  1  0
 15 16  2  0
 15 17  1  0
 17 18  1  0
 18 19  1  0
  7 20  2  0
 20 21  1  0
 21 22  2  0
 22 23  1  0
  2 23  1  0
  5 22  1  0
 11 16  1  0
 14 19  1  0
M  END
$$$$
